data_PCOD9418977
_publ_section_title
;
Structure prediction by ZEFSAII (Michael W. Deem and Ramdas Pophale) SiO2 
 PCOD9418977
Probable space group: P M N A
;
_chemical_formula_sum "Si O2"
_cell_formula_units_Z 36
_cell_length_a 25.739042
_cell_length_b 11.652200
_cell_length_c 5.199034
_cell_angle_alpha 90.000000
_cell_angle_beta 90.000000
_cell_angle_gamma 90.000000
_cell_volume 1559.275900
_symmetry_space_group_name_H-M "P M N A"
_symmetry_group_IT_number 53
_symmetry_cell_setting 'orthorhombic'
loop_
_space_group_symop_operation_xyz
x,y,z
1/2-x,-y,1/2+z
x,-y,-z
1/2-x,y,1/2-z
-x,-y,-z
1/2+x,y,1/2-z
-x,y,z
1/2+x,-y,1/2+z
loop_
_atom_site_type_symbol
_atom_site_label
_atom_site_fract_x
_atom_site_fract_y
_atom_site_fract_z
Si Si1 0.898606 0.000000 0.500000
Si Si2 0.392724 0.571588 0.265835
Si Si3 0.941462 0.807538 0.159786
Si Si4 0.341587 0.123058 0.362642
Si Si5 0.716886 0.342086 0.494559
O O1 0.935491 0.926276 0.317366
O O2 0.855958 0.902815 0.571899
O O3 0.419285 0.500000 0.500000
O O4 0.424522 0.688233 0.205239
O O5 0.337852 0.606632 0.401884
O O6 0.385580 0.500000 0.000000
O O7 0.000000 0.797184 0.063585
O O8 0.896852 0.825710 0.950937
O O9 0.297905 0.213813 0.410292
O O10 0.333643 0.000000 0.500000
O O11 0.750000 0.392746 0.250000
O O12 0.750000 0.339973 0.750000
#
# Coordination Sequence:
#
# PCOD9418977 Si02
#       5
#     4   8   8   8   8
#     4  10  21  40  70  98 136 184 222 282 341 406
#     4  11  26  47  72  98 140 181 227 289 345 407
#     4  10  23  41  68 102 136 179 230 280 341 412
#     4   9  22  39  63  95 140 178 222 277 339 407
#     4  11  25  42  71  99 132 176 229 285 343 404
#
# _framework density 23.087638999999999
#
# number of rings (size 3 to 8) (size 9 to 14) (size 15 to 20)
#    0.000    1.778    0.000    1.667   15.556    8.444 
#    0.000    0.000    0.000    0.000    0.000    0.000 
#    0.000    0.000    0.000    0.000    0.000    0.000 
#
# Total GULP energy -200485.291924 kJ/mol
# GULP energy per Si atom -5569.035887 kJ/mol
# Density = 2.303509 g / cm^3
# Si number density = 23.087639 Si / 1000 Ang^3
#
#
#
# Elastic Constant Matrix: (Units=GPa)
#
#
# Indices 1 2 3 4 5 6 
#
# 1 79.4450 45.5571 26.3444 0.0000 0.0000 0.0000
# 2 45.5571 118.6640 26.4982 0.0000 0.0000 0.0000
# 3 26.3444 26.4982 99.3444 0.0000 0.0000 0.0000
# 4 0.0000 0.0000 0.0000 18.2791 0.0000 0.0000
# 5 0.0000 0.0000 0.0000 0.0000 -40.3416 0.0000
# 6 0.0000 0.0000 0.0000 0.0000 0.0000 225.3676
#
#
#
# Elastic Compliance Matrix: (Units=1/GPa)
#
#
# Indices 1 2 3 4 5 6 
#
# 1 0.016905 -0.005837 -0.002926 0.000000 0.000000 0.000000
# 2 -0.005837 0.010976 -0.001380 0.000000 0.000000 0.000000
# 3 -0.002926 -0.001380 0.011210 0.000000 0.000000 0.000000
# 4 0.000000 0.000000 0.000000 0.054707 0.000000 0.000000
# 5 0.000000 0.000000 0.000000 0.000000 -0.024788 0.000000
# 6 0.000000 0.000000 0.000000 0.000000 0.000000 0.004437
#
#
# Mechanical properties :
#
#
# Convention : Reuss Voigt Hill
#
# Bulk Modulus (GPa) = 53.17549 54.91699 54.04624
# Shear Modulus (GPa) = 49.99987 53.93126 51.96557
#
# Velocity S-wave (km/s) = 4.65871 4.83840 4.74940
# Velocity P-wave (km/s) = 7.21250 7.41966 7.31681
#
# Compressibility (1/GPa) = 0.01880566
#
# Stress axis : x y z
#
# Youngs Moduli (GPa) = 59.15577 91.10753 89.20622
#
# Poissons Ratio (x) = 0.53175 0.26102
# Poissons Ratio (y) = 0.34527 0.12310
# Poissons Ratio (z) = 0.17309 0.12572
#
# Static dielectric constant tensor:
#      x y z
#    x 1.868250 0.000000 0.000000 
#    y 0.000000 2.000470 0.000000 
#    z 0.000000 0.000000 2.010740 
# 
# From -- ./inp_files/3475.got.cif
#   From: 2010.05.17/outbox.cif.g08.bks.cpg/sg53_2_cif.got.tgz:3475.got - 2010.06.03 12:45:16.
