data_PCOD9418295
_publ_section_title
;
Structure prediction by ZEFSAII (Michael W. Deem and Ramdas Pophale) SiO2 
 PCOD9418295
Probable space group: P M N A
;
_chemical_formula_sum "Si O2"
_cell_formula_units_Z 48
_cell_length_a 10.215939
_cell_length_b 30.045640
_cell_length_c 8.914576
_cell_angle_alpha 90.000000
_cell_angle_beta 90.000000
_cell_angle_gamma 90.000000
_cell_volume 2736.279409
_symmetry_space_group_name_H-M "P M N A"
_symmetry_group_IT_number 53
_symmetry_cell_setting 'orthorhombic'
loop_
_space_group_symop_operation_xyz
x,y,z
1/2-x,-y,1/2+z
x,-y,-z
1/2-x,y,1/2-z
-x,-y,-z
1/2+x,y,1/2-z
-x,y,z
1/2+x,-y,1/2+z
loop_
_atom_site_type_symbol
_atom_site_label
_atom_site_fract_x
_atom_site_fract_y
_atom_site_fract_z
Si Si1 0.652987 0.621984 0.889611
Si Si2 0.652283 0.458489 0.887660
Si Si3 0.500000 0.951698 0.926637
Si Si4 0.654708 0.804385 0.111179
Si Si5 0.254774 0.098374 0.931583
Si Si6 0.851865 0.723561 0.618544
Si Si7 0.500000 0.949445 0.564729
O O1 0.750000 0.614868 0.750000
O O2 0.500000 0.616169 0.844442
O O3 0.669120 0.673280 0.941022
O O4 0.679139 0.586493 0.019224
O O5 0.750000 0.462783 0.750000
O O6 0.500000 0.457723 0.838590
O O7 0.667764 0.500000 0.000000
O O8 0.500000 0.952198 0.745795
O O9 0.373645 0.927291 0.992104
O O10 0.500000 0.000000 0.000000
O O11 0.750000 0.794945 0.250000
O O12 0.500000 0.812530 0.150171
O O13 0.715287 0.849478 0.041277
O O14 0.659201 0.762131 0.002973
O O15 0.250000 0.092602 0.750000
O O16 0.124644 0.077844 0.003405
O O17 0.750000 0.731240 0.750000
O O18 0.000000 0.724696 0.679278
O O19 0.500000 0.000000 0.500000
#
# Coordination Sequence:
#
# PCOD9418295 Si02
#       7
#     8   8   4   8   8   8   4
#     4   9  18  34  55  78 110 148 188 234 284 336
#     4  10  21  35  52  78 110 145 188 237 288 342
#     4  12  24  42  64  88 122 152 190 236 281 338
#     4  10  22  39  60  85 115 150 187 230 281 333
#     4  11  23  42  63  87 119 155 192 235 285 339
#     4   9  19  36  56  83 115 149 188 234 283 334
#     4  12  26  42  64  94 118 154 194 234 285 338
#
# _framework density 17.542069000000001
#
# number of rings (size 3 to 8) (size 9 to 14) (size 15 to 20)
#    0.000    1.833    0.833    3.000    3.500    3.667 
#    0.000    0.000    0.000    0.000    0.000    0.000 
#    0.000    0.000    0.000    0.000    0.000    0.000 
#
# Total GULP energy -267810.096341 kJ/mol
# GULP energy per Si atom -5579.377007 kJ/mol
# Density = 1.750214 g / cm^3
# Si number density = 17.542069 Si / 1000 Ang^3
#
#
#
# Elastic Constant Matrix: (Units=GPa)
#
#
# Indices 1 2 3 4 5 6 
#
# 1 148.7508 86.1465 75.7034 0.0000 0.0000 0.0000
# 2 86.1465 117.4719 74.3706 0.0000 0.0000 0.0000
# 3 75.7034 74.3706 104.3581 0.0000 0.0000 0.0000
# 4 0.0000 0.0000 0.0000 24.7446 0.0000 0.0000
# 5 0.0000 0.0000 0.0000 0.0000 40.4937 0.0000
# 6 0.0000 0.0000 0.0000 0.0000 0.0000 27.4992
#
#
#
# Elastic Compliance Matrix: (Units=1/GPa)
#
#
# Indices 1 2 3 4 5 6 
#
# 1 0.012861 -0.006423 -0.004752 0.000000 0.000000 0.000000
# 2 -0.006423 0.018718 -0.008680 0.000000 0.000000 0.000000
# 3 -0.004752 -0.008680 0.019216 0.000000 0.000000 0.000000
# 4 0.000000 0.000000 0.000000 0.040413 0.000000 0.000000
# 5 0.000000 0.000000 0.000000 0.000000 0.024695 0.000000
# 6 0.000000 0.000000 0.000000 0.000000 0.000000 0.036365
#
#
# Mechanical properties :
#
#
# Convention : Reuss Voigt Hill
#
# Bulk Modulus (GPa) = 90.21939 93.66910 91.94424
# Shear Modulus (GPa) = 25.55284 27.50486 26.52885
#
# Velocity S-wave (km/s) = 3.82076 3.96401 3.89305
# Velocity P-wave (km/s) = 8.42652 8.62925 8.52849
#
# Compressibility (1/GPa) = 0.01108409
#
# Stress axis : x y z
#
# Youngs Moduli (GPa) = 77.75534 53.42442 52.04018
#
# Poissons Ratio (x) = 0.34312 0.24732
# Poissons Ratio (y) = 0.49939 0.45172
# Poissons Ratio (z) = 0.36953 0.46374
#
# Static dielectric constant tensor:
#      x y z
#    x 1.736230 0.000000 0.000000 
#    y 0.000000 1.612910 0.000000 
#    z 0.000000 0.000000 1.561630 
# 
# From -- ./inp_files/6790.got.cif
#   From: 2010.05.17/outbox.cif.g08.bks.cpg/sg53_4_cif.got.tgz:6790.got - 2010.06.03 12:45:16.
