data_PCOD9418190
_publ_section_title
;
Structure prediction by ZEFSAII (Michael W. Deem and Ramdas Pophale) SiO2 
 PCOD9418190
Probable space group: P M N A
;
_chemical_formula_sum "Si O2"
_cell_formula_units_Z 34
_cell_length_a 13.828424
_cell_length_b 22.526627
_cell_length_c 5.178538
_cell_angle_alpha 90.000000
_cell_angle_beta 90.000000
_cell_angle_gamma 90.000000
_cell_volume 1613.154718
_symmetry_space_group_name_H-M "P M N A"
_symmetry_group_IT_number 53
_symmetry_cell_setting 'orthorhombic'
loop_
_space_group_symop_operation_xyz
x,y,z
1/2-x,-y,1/2+z
x,-y,-z
1/2-x,y,1/2-z
-x,-y,-z
1/2+x,y,1/2-z
-x,y,z
1/2+x,-y,1/2+z
loop_
_atom_site_type_symbol
_atom_site_label
_atom_site_fract_x
_atom_site_fract_y
_atom_site_fract_z
Si Si1 0.500000 0.780243 0.596665
Si Si2 0.319218 0.304995 0.499223
Si Si3 0.000000 0.858076 0.394905
Si Si4 0.181149 0.563510 0.000716
Si Si5 0.656150 0.061016 0.136529
Si Si6 0.500000 0.000000 0.500000
O O1 0.404602 0.741790 0.537108
O O2 0.500000 0.806846 0.886020
O O3 0.500000 0.832951 0.390073
O O4 0.250000 0.302348 0.250000
O O5 0.365815 0.371526 0.510132
O O6 0.250000 0.296319 0.750000
O O7 0.906636 0.899224 0.443470
O O8 0.250000 0.562288 0.250000
O O9 0.126462 0.500000 0.000000
O O10 0.250000 0.563854 0.750000
O O11 0.750000 0.092615 0.250000
O O12 0.583185 0.039857 0.355647
O O13 0.688275 0.000000 0.000000
#
# Coordination Sequence:
#
# PCOD9418190 Si02
#       6
#     4   8   4   8   8   2
#     4  12  26  45  62  91 127 173 216 263 299 364
#     4  10  21  39  64  87 121 168 214 262 317 375
#     4  11  28  42  67  93 134 163 210 261 303 365
#     4   8  14  27  51  84 116 151 198 257 320 374
#     4  11  24  42  71  97 125 165 197 253 318 381
#     4  10  20  40  64  96 128 152 194 236 304 370
#
# _framework density 21.076715
#
# number of rings (size 3 to 8) (size 9 to 14) (size 15 to 20)
#    0.000    1.882    1.176    2.824    6.588    2.824 
#    0.000    0.588    0.000    0.000    0.000   18.118 
#    0.000    0.000    0.000    0.000    0.000    0.000 
#
# Total GULP energy -189301.797639 kJ/mol
# GULP energy per Si atom -5567.699931 kJ/mol
# Density = 2.102874 g / cm^3
# Si number density = 21.076715 Si / 1000 Ang^3
#
#
#
# Elastic Constant Matrix: (Units=GPa)
#
#
# Indices 1 2 3 4 5 6 
#
# 1 94.1062 11.9705 13.6914 0.0000 0.0000 0.0000
# 2 11.9705 80.3790 7.8167 0.0000 0.0000 0.0000
# 3 13.6914 7.8167 109.1866 0.0000 0.0000 0.0000
# 4 0.0000 0.0000 0.0000 36.3261 0.0000 0.0000
# 5 0.0000 0.0000 0.0000 0.0000 -1.8611 0.0000
# 6 0.0000 0.0000 0.0000 0.0000 0.0000 -14.1828
#
#
#
# Elastic Compliance Matrix: (Units=1/GPa)
#
#
# Indices 1 2 3 4 5 6 
#
# 1 0.011004 -0.001515 -0.001271 0.000000 0.000000 0.000000
# 2 -0.001515 0.012737 -0.000722 0.000000 0.000000 0.000000
# 3 -0.001271 -0.000722 0.009370 0.000000 0.000000 0.000000
# 4 0.000000 0.000000 0.000000 0.027528 0.000000 0.000000
# 5 0.000000 0.000000 0.000000 0.000000 -0.537317 0.000000
# 6 0.000000 0.000000 0.000000 0.000000 0.000000 -0.070508
#
#
# Mechanical properties :
#
#
# Convention : Reuss Voigt Hill
#
# Bulk Modulus (GPa) = 38.32311 38.95877 38.64094
# Shear Modulus (GPa) = -9.40785 20.73599 5.66407
#
# Velocity S-wave (km/s) = -2.11502 3.14002 1.64110
# Velocity P-wave (km/s) = 3.50110 5.62767 4.68660
#
# Compressibility (1/GPa) = 0.02609392
#
# Stress axis : x y z
#
# Youngs Moduli (GPa) = 90.87607 78.51204 106.72663
#
# Poissons Ratio (x) = 0.11896 0.13569
# Poissons Ratio (y) = 0.13769 0.07704
# Poissons Ratio (z) = 0.11554 0.05667
#
# Static dielectric constant tensor:
#      x y z
#    x 1.708560 0.000000 0.000000 
#    y 0.000000 1.847550 0.000000 
#    z 0.000000 0.000000 1.785630 
# 
# From -- ./inp_files/1362.got.cif
#   From: 2010.05.17/outbox.cif.g08.bks.cpg/sg53_1_cif.got.tgz:1362.got - 2010.06.03 12:45:16.
