data_PCOD9418127
_publ_section_title
;
Structure prediction by ZEFSAII (Michael W. Deem and Ramdas Pophale) SiO2 
 PCOD9418127
Probable space group: P M N A
;
_chemical_formula_sum "Si O2"
_cell_formula_units_Z 64
_cell_length_a 7.836512
_cell_length_b 20.954691
_cell_length_c 19.942714
_cell_angle_alpha 90.000000
_cell_angle_beta 90.000000
_cell_angle_gamma 90.000000
_cell_volume 3274.826719
_symmetry_space_group_name_H-M "P M N A"
_symmetry_group_IT_number 53
_symmetry_cell_setting 'orthorhombic'
loop_
_space_group_symop_operation_xyz
x,y,z
1/2-x,-y,1/2+z
x,-y,-z
1/2-x,y,1/2-z
-x,-y,-z
1/2+x,y,1/2-z
-x,y,z
1/2+x,-y,1/2+z
loop_
_atom_site_type_symbol
_atom_site_label
_atom_site_fract_x
_atom_site_fract_y
_atom_site_fract_z
Si Si1 0.203296 0.150789 0.455727
Si Si2 0.198436 0.982664 0.579684
Si Si3 0.795160 0.757515 0.324158
Si Si4 0.706012 0.405162 0.327859
Si Si5 0.206622 0.518978 0.075411
Si Si6 0.302260 0.708369 0.582173
Si Si7 0.709525 0.118710 0.893502
Si Si8 0.798780 0.661747 0.438109
O O1 0.273318 0.088592 0.416346
O O2 0.231721 0.220339 0.425589
O O3 0.262495 0.145441 0.533094
O O4 0.000000 0.141325 0.459072
O O5 0.000000 0.979090 0.600880
O O6 0.199765 0.000000 0.500000
O O7 0.272492 0.046061 0.613979
O O8 0.750000 0.736223 0.250000
O O9 0.734775 0.829393 0.339475
O O10 0.731779 0.710857 0.382524
O O11 0.000000 0.757664 0.329283
O O12 0.750000 0.409615 0.250000
O O13 0.500000 0.404425 0.333940
O O14 0.765489 0.466106 0.371301
O O15 0.772375 0.340143 0.362761
O O16 0.271917 0.590138 0.087231
O O17 0.000000 0.520679 0.076693
O O18 0.259166 0.500000 0.000000
O O19 0.500000 0.716724 0.598056
O O20 0.285476 0.673608 0.510136
O O21 0.500000 0.116440 0.893568
O O22 0.000000 0.673896 0.448250
#
# Coordination Sequence:
#
# PCOD9418127 Si02
#       8
#     8   8   8   8   8   8   8   8
#     4   9  15  27  49  79 105 130 174 224 264 311
#     4   7  11  20  42  72  99 128 165 212 264 310
#     4  10  21  35  50  72 106 142 182 226 269 319
#     4  10  23  41  60  82 110 143 179 216 262 319
#     4  10  20  39  61  82 112 144 173 211 265 323
#     4  11  21  35  55  80 111 146 176 215 276 328
#     4   8  13  26  46  70 101 134 172 220 265 310
#     4  11  22  36  56  83 108 137 183 231 264 308
#
# _framework density 19.543018
#
# number of rings (size 3 to 8) (size 9 to 14) (size 15 to 20)
#    0.000    2.500    2.500    2.250    0.000    3.250 
#    0.000    2.500    0.000    4.875    0.000    3.500 
#    0.000    0.000    0.000    0.000    0.000    0.000 
#
# Total GULP energy -356777.339727 kJ/mol
# GULP energy per Si atom -5574.645933 kJ/mol
# Density = 1.949854 g / cm^3
# Si number density = 19.543018 Si / 1000 Ang^3
#
#
#
# Elastic Constant Matrix: (Units=GPa)
#
#
# Indices 1 2 3 4 5 6 
#
# 1 17.2857 -2.8189 -5.2029 0.0000 0.0000 0.0000
# 2 -2.8189 146.8841 45.7015 0.0000 0.0000 0.0000
# 3 -5.2029 45.7015 91.8738 0.0000 0.0000 0.0000
# 4 0.0000 0.0000 0.0000 23.1568 0.0000 0.0000
# 5 0.0000 0.0000 0.0000 0.0000 16.3838 0.0000
# 6 0.0000 0.0000 0.0000 0.0000 0.0000 37.6268
#
#
#
# Elastic Compliance Matrix: (Units=1/GPa)
#
#
# Indices 1 2 3 4 5 6 
#
# 1 0.058856 0.000109 0.003279 0.000000 0.000000 0.000000
# 2 0.000109 0.008055 -0.004001 0.000000 0.000000 0.000000
# 3 0.003279 -0.004001 0.013060 0.000000 0.000000 0.000000
# 4 0.000000 0.000000 0.000000 0.043184 0.000000 0.000000
# 5 0.000000 0.000000 0.000000 0.000000 0.061036 0.000000
# 6 0.000000 0.000000 0.000000 0.000000 0.000000 0.026577
#
#
# Mechanical properties :
#
#
# Convention : Reuss Voigt Hill
#
# Bulk Modulus (GPa) = 12.69910 36.82256 24.76083
# Shear Modulus (GPa) = 20.98710 29.99106 25.48908
#
# Velocity S-wave (km/s) = 3.28059 3.92167 3.61537
# Velocity P-wave (km/s) = 4.56747 6.27604 5.48865
#
# Compressibility (1/GPa) = 0.07874575
#
# Stress axis : x y z
#
# Youngs Moduli (GPa) = 16.99068 124.14730 76.56830
#
# Poissons Ratio (x) = -0.01358 -0.25104
# Poissons Ratio (y) = -0.00186 0.30632
# Poissons Ratio (z) = -0.05571 0.49667
#
# Static dielectric constant tensor:
#      x y z
#    x 1.735820 0.000000 0.000000 
#    y 0.000000 1.734360 0.000000 
#    z 0.000000 0.000000 1.659250 
# 
# From -- ./inp_files/31343.got.cif
#   From: 2010.05.17/outbox.cif.g08.bks.cpg/sg53_16_cif.got.tgz:31343.got - 2010.06.03 12:45:16.
