data_PCOD9418092
_publ_section_title
;
Structure prediction by ZEFSAII (Michael W. Deem and Ramdas Pophale) SiO2 
 PCOD9418092
Probable space group: P M N A
;
_chemical_formula_sum "Si O2"
_cell_formula_units_Z 44
_cell_length_a 15.907201
_cell_length_b 18.165771
_cell_length_c 8.131321
_cell_angle_alpha 90.000000
_cell_angle_beta 90.000000
_cell_angle_gamma 90.000000
_cell_volume 2349.679944
_symmetry_space_group_name_H-M "P M N A"
_symmetry_group_IT_number 53
_symmetry_cell_setting 'orthorhombic'
loop_
_space_group_symop_operation_xyz
x,y,z
1/2-x,-y,1/2+z
x,-y,-z
1/2-x,y,1/2-z
-x,-y,-z
1/2+x,y,1/2-z
-x,y,z
1/2+x,-y,1/2+z
loop_
_atom_site_type_symbol
_atom_site_label
_atom_site_fract_x
_atom_site_fract_y
_atom_site_fract_z
Si Si1 0.406643 0.083629 0.056006
Si Si2 0.285377 0.652422 0.062446
Si Si3 0.595587 0.083290 0.448535
Si Si4 0.251245 0.181966 0.945354
Si Si5 0.750000 0.452543 0.250000
Si Si6 0.590825 0.453682 0.833287
O O1 0.500000 0.106147 0.995441
O O2 0.407880 0.084570 0.252335
O O3 0.330900 0.134055 0.998712
O O4 0.392441 0.000000 0.000000
O O5 0.250000 0.648088 0.250000
O O6 0.265664 0.734011 0.998661
O O7 0.380366 0.626688 0.103304
O O8 0.255292 0.596334 0.917652
O O9 0.500000 0.096951 0.512092
O O10 0.665174 0.142444 0.500410
O O11 0.619793 0.000000 0.500000
O O12 0.250000 0.183868 0.750000
O O13 0.832837 0.504459 0.241785
O O14 0.500000 0.452486 0.748660
O O15 0.583451 0.500000 0.000000
#
# Coordination Sequence:
#
# PCOD9418092 Si02
#       6
#     8   8   8   8   4   8
#     4  10  21  37  59  85 113 153 202 245 294 353
#     4  10  22  38  58  88 121 157 195 244 303 356
#     4  10  21  38  60  84 116 156 200 249 292 345
#     4  11  23  37  57  84 120 156 196 242 302 354
#     4  10  20  38  66  82 120 156 190 256 298 356
#     4   9  18  36  63  90 116 154 201 243 298 362
#
# _framework density 18.725954000000002
#
# number of rings (size 3 to 8) (size 9 to 14) (size 15 to 20)
#    0.000    2.000    0.909    2.182    2.545    2.909 
#    0.000    5.455    0.000    0.000    0.000    0.000 
#    0.000    0.000    0.000    0.000    0.000    0.000 
#
# Total GULP energy -244999.796041 kJ/mol
# GULP energy per Si atom -5568.177183 kJ/mol
# Density = 1.868333 g / cm^3
# Si number density = 18.725954 Si / 1000 Ang^3
#
#
#
# Elastic Constant Matrix: (Units=GPa)
#
#
# Indices 1 2 3 4 5 6 
#
# 1 155.2043 96.2299 28.5905 0.0000 0.0000 0.0000
# 2 96.2299 137.9040 23.7076 0.0000 0.0000 0.0000
# 3 28.5905 23.7076 59.2350 0.0000 0.0000 0.0000
# 4 0.0000 0.0000 0.0000 29.6659 0.0000 0.0000
# 5 0.0000 0.0000 0.0000 0.0000 34.3932 0.0000
# 6 0.0000 0.0000 0.0000 0.0000 0.0000 -2.4891
#
#
#
# Elastic Compliance Matrix: (Units=1/GPa)
#
#
# Indices 1 2 3 4 5 6 
#
# 1 0.011706 -0.007729 -0.002557 0.000000 0.000000 0.000000
# 2 -0.007729 0.012890 -0.001429 0.000000 0.000000 0.000000
# 3 -0.002557 -0.001429 0.018688 0.000000 0.000000 0.000000
# 4 0.000000 0.000000 0.000000 0.033709 0.000000 0.000000
# 5 0.000000 0.000000 0.000000 0.000000 0.029076 0.000000
# 6 0.000000 0.000000 0.000000 0.000000 0.000000 -0.401754
#
#
# Mechanical properties :
#
#
# Convention : Reuss Voigt Hill
#
# Bulk Modulus (GPa) = 50.36387 72.15547 61.25967
# Shear Modulus (GPa) = -18.82266 25.90169 3.53951
#
# Velocity S-wave (km/s) = -3.17387 3.72317 1.37632
# Velocity P-wave (km/s) = 3.67727 7.55636 5.94226
#
# Compressibility (1/GPa) = 0.01985550
#
# Stress axis : x y z
#
# Youngs Moduli (GPa) = 85.42357 77.57665 53.51114
#
# Poissons Ratio (x) = 0.59961 0.13681
# Poissons Ratio (y) = 0.66026 0.07644
# Poissons Ratio (z) = 0.21841 0.11082
#
# Static dielectric constant tensor:
#      x y z
#    x 1.724530 0.000000 0.000000 
#    y 0.000000 1.679510 0.000000 
#    z 0.000000 0.000000 1.647280 
# 
# From -- ./inp_files/8561.got.cif
#   From: 2010.05.17/outbox.cif.g08.bks.cpg/sg53_5_cif.got.tgz:8561.got - 2010.06.03 12:45:16.
