data_PCOD9418790
_publ_section_title
;
Structure prediction by ZEFSAII (Michael W. Deem and Ramdas Pophale) SiO2 
 PCOD9418790
Probable space group: P M N A
;
_chemical_formula_sum "Si O2"
_cell_formula_units_Z 64
_cell_length_a 15.539125
_cell_length_b 7.962500
_cell_length_c 23.535294
_cell_angle_alpha 90.000000
_cell_angle_beta 90.000000
_cell_angle_gamma 90.000000
_cell_volume 2912.028583
_symmetry_space_group_name_H-M "P M N A"
_symmetry_group_IT_number 53
_symmetry_cell_setting 'orthorhombic'
loop_
_space_group_symop_operation_xyz
x,y,z
1/2-x,-y,1/2+z
x,-y,-z
1/2-x,y,1/2-z
-x,-y,-z
1/2+x,y,1/2-z
-x,y,z
1/2+x,-y,1/2+z
loop_
_atom_site_type_symbol
_atom_site_label
_atom_site_fract_x
_atom_site_fract_y
_atom_site_fract_z
Si Si1 0.597958 0.058807 0.157669
Si Si2 0.904175 0.451802 0.375871
Si Si3 0.760671 0.557727 0.061251
Si Si4 0.397682 0.815950 0.726253
Si Si5 0.725571 0.048707 0.940182
Si Si6 0.591752 0.362496 0.638697
Si Si7 0.152976 0.444508 0.744617
Si Si8 0.096820 0.973642 0.897209
O O1 0.500000 0.993081 0.151486
O O2 0.595123 0.258086 0.143688
O O3 0.625815 0.053588 0.223706
O O4 0.665332 0.983643 0.113809
O O5 0.828730 0.472611 0.421159
O O6 0.881385 0.560001 0.319478
O O7 0.000000 0.495600 0.396174
O O8 0.743520 0.754896 0.058164
O O9 0.831112 0.534151 0.110570
O O10 0.792389 0.500000 0.000000
O O11 0.500000 0.781878 0.734414
O O12 0.350233 0.640813 0.736633
O O13 0.387061 0.885131 0.663275
O O14 0.817039 0.949924 0.934267
O O15 0.683526 0.000000 0.000000
O O16 0.500000 0.441815 0.624124
O O17 0.599775 0.353778 0.706451
O O18 0.593817 0.173631 0.615020
O O19 0.250000 0.382729 0.750000
O O20 0.000000 0.925969 0.918155
#
# Coordination Sequence:
#
# PCOD9418790 Si02
#       8
#     8   8   8   8   8   8   8   8
#     4   9  20  38  59  84 116 150 188 230 279 336
#     4  10  21  39  60  85 119 155 189 233 283 338
#     4  11  24  41  59  84 113 147 200 241 286 343
#     4   9  19  35  56  88 118 150 187 225 280 342
#     4  11  24  39  59  83 110 149 192 240 287 335
#     4  10  21  40  60  84 119 154 188 235 286 340
#     4  11  20  33  58  91 121 151 187 232 280 339
#     4   9  21  39  59  84 117 151 187 231 283 340
#
# _framework density 21.977806999999999
#
# number of rings (size 3 to 8) (size 9 to 14) (size 15 to 20)
#    0.000    2.000    1.250    2.625    3.500    3.500 
#    0.000    1.250    0.000    0.000    0.000    0.000 
#    0.000    0.000    0.000    0.000    0.000    0.000 
#
# Total GULP energy -357596.037143 kJ/mol
# GULP energy per Si atom -5587.438080 kJ/mol
# Density = 2.192778 g / cm^3
# Si number density = 21.977807 Si / 1000 Ang^3
#
#
#
# Elastic Constant Matrix: (Units=GPa)
#
#
# Indices 1 2 3 4 5 6 
#
# 1 71.0394 8.5769 -1.5166 0.0000 0.0000 0.0000
# 2 8.5769 12.7789 3.9076 0.0000 0.0000 0.0000
# 3 -1.5166 3.9076 52.1104 0.0000 0.0000 0.0000
# 4 0.0000 0.0000 0.0000 29.2287 0.0000 0.0000
# 5 0.0000 0.0000 0.0000 0.0000 27.0590 0.0000
# 6 0.0000 0.0000 0.0000 0.0000 0.0000 3.5416
#
#
#
# Elastic Compliance Matrix: (Units=1/GPa)
#
#
# Indices 1 2 3 4 5 6 
#
# 1 0.015397 -0.010717 0.001252 0.000000 0.000000 0.000000
# 2 -0.010717 0.087550 -0.006877 0.000000 0.000000 0.000000
# 3 0.001252 -0.006877 0.019742 0.000000 0.000000 0.000000
# 4 0.000000 0.000000 0.000000 0.034213 0.000000 0.000000
# 5 0.000000 0.000000 0.000000 0.000000 0.036956 0.000000
# 6 0.000000 0.000000 0.000000 0.000000 0.000000 0.282360
#
#
# Mechanical properties :
#
#
# Convention : Reuss Voigt Hill
#
# Bulk Modulus (GPa) = 11.11052 17.54050 14.32551
# Shear Modulus (GPa) = 9.27807 20.29655 14.78731
#
# Velocity S-wave (km/s) = 2.05687 3.04221 2.59671
# Velocity P-wave (km/s) = 3.27220 4.50981 3.93991
#
# Compressibility (1/GPa) = 0.09000480
#
# Stress axis : x y z
#
# Youngs Moduli (GPa) = 64.94621 11.42203 50.65308
#
# Poissons Ratio (x) = 0.12241 -0.06341
# Poissons Ratio (y) = 0.69604 0.34834
# Poissons Ratio (z) = -0.08130 0.07855
#
# Static dielectric constant tensor:
#      x y z
#    x 1.833440 0.000000 0.000000 
#    y 0.000000 1.806970 0.000000 
#    z 0.000000 0.000000 1.801380 
# 
# From -- ./inp_files/35321.got.cif
#   From: 2010.05.17/outbox.cif.g08.bks.cpg/sg53_18_cif.got.tgz:35321.got - 2010.06.03 12:45:16.
