data_PCOD9418860
_publ_section_title
;
Structure prediction by ZEFSAII (Michael W. Deem and Ramdas Pophale) SiO2 
 PCOD9418860
Probable space group: P M N A
;
_chemical_formula_sum "Si O2"
_cell_formula_units_Z 64
_cell_length_a 8.745757
_cell_length_b 14.821690
_cell_length_c 25.320550
_cell_angle_alpha 90.000000
_cell_angle_beta 90.000000
_cell_angle_gamma 90.000000
_cell_volume 3282.224379
_symmetry_space_group_name_H-M "P M N A"
_symmetry_group_IT_number 53
_symmetry_cell_setting 'orthorhombic'
loop_
_space_group_symop_operation_xyz
x,y,z
1/2-x,-y,1/2+z
x,-y,-z
1/2-x,y,1/2-z
-x,-y,-z
1/2+x,y,1/2-z
-x,y,z
1/2+x,-y,1/2+z
loop_
_atom_site_type_symbol
_atom_site_label
_atom_site_fract_x
_atom_site_fract_y
_atom_site_fract_z
Si Si1 0.317784 0.791694 0.807458
Si Si2 0.822828 0.210676 0.018272
Si Si3 0.316352 0.520003 0.060400
Si Si4 0.316371 0.726499 0.089310
Si Si5 0.822592 0.348774 0.108947
Si Si6 0.679221 0.986236 0.663790
Si Si7 0.815972 0.185608 0.805146
Si Si8 0.676234 0.038488 0.058216
O O1 0.250000 0.769614 0.750000
O O2 0.500000 0.789382 0.806548
O O3 0.256587 0.719347 0.849987
O O4 0.265090 0.894373 0.820626
O O5 0.758591 0.220497 0.959668
O O6 0.000000 0.180353 0.018142
O O7 0.814827 0.303009 0.050916
O O8 0.718633 0.142549 0.051353
O O9 0.500000 0.511601 0.060057
O O10 0.279044 0.621385 0.078618
O O11 0.250805 0.446318 0.100747
O O12 0.263772 0.500000 0.000000
O O13 0.500000 0.737715 0.087542
O O14 0.252219 0.762725 0.144487
O O15 0.000000 0.355899 0.123838
O O16 0.500000 0.971602 0.673377
O O17 0.713143 0.001472 0.601929
O O18 0.728158 0.079403 0.690695
O O19 0.750000 0.221230 0.750000
O O20 0.000000 0.190626 0.806222
O O21 0.500000 0.025017 0.074011
O O22 0.698761 0.000000 0.000000
#
# Coordination Sequence:
#
# PCOD9418860 Si02
#       8
#     8   8   8   8   8   8   8   8
#     4  12  25  42  66  92 126 166 210 260 310 369
#     4  11  22  36  58  88 126 164 202 252 310 370
#     4  10  21  39  64  94 127 164 206 253 310 373
#     4  11  23  40  65  94 127 164 208 258 312 375
#     4  11  23  39  62  93 128 163 204 254 308 368
#     4  11  23  40  62  90 123 162 210 258 308 366
#     4  11  25  44  66  91 124 164 210 261 312 366
#     4  11  23  36  54  84 122 166 211 255 310 371
#
# _framework density 19.498971999999998
#
# number of rings (size 3 to 8) (size 9 to 14) (size 15 to 20)
#    0.000    1.000    2.500    4.500    0.000    8.250 
#    0.000    0.625    0.000    3.000    0.000    0.000 
#    0.000    0.000    0.000    0.000    0.000    0.000 
#
# Total GULP energy -357764.782036 kJ/mol
# GULP energy per Si atom -5590.074719 kJ/mol
# Density = 1.945459 g / cm^3
# Si number density = 19.498972 Si / 1000 Ang^3
#
#
#
# Elastic Constant Matrix: (Units=GPa)
#
#
# Indices 1 2 3 4 5 6 
#
# 1 43.5476 33.3197 41.0867 0.0000 0.0000 0.0000
# 2 33.3197 78.9993 41.3777 0.0000 0.0000 0.0000
# 3 41.0867 41.3777 132.3570 0.0000 0.0000 0.0000
# 4 0.0000 0.0000 0.0000 17.6997 0.0000 0.0000
# 5 0.0000 0.0000 0.0000 0.0000 30.9557 0.0000
# 6 0.0000 0.0000 0.0000 0.0000 0.0000 37.1229
#
#
#
# Elastic Compliance Matrix: (Units=1/GPa)
#
#
# Indices 1 2 3 4 5 6 
#
# 1 0.040904 -0.012677 -0.008734 0.000000 0.000000 0.000000
# 2 -0.012677 0.019066 -0.002025 0.000000 0.000000 0.000000
# 3 -0.008734 -0.002025 0.010900 0.000000 0.000000 0.000000
# 4 0.000000 0.000000 0.000000 0.056498 0.000000 0.000000
# 5 0.000000 0.000000 0.000000 0.000000 0.032304 0.000000
# 6 0.000000 0.000000 0.000000 0.000000 0.000000 0.026938
#
#
# Mechanical properties :
#
#
# Convention : Reuss Voigt Hill
#
# Bulk Modulus (GPa) = 41.67331 54.05245 47.86288
# Shear Modulus (GPa) = 20.70546 26.43030 23.56788
#
# Velocity S-wave (km/s) = 3.26218 3.68567 3.48037
# Velocity P-wave (km/s) = 5.96720 6.77444 6.38359
#
# Compressibility (1/GPa) = 0.02399618
#
# Stress axis : x y z
#
# Youngs Moduli (GPa) = 24.44744 52.44945 91.74513
#
# Poissons Ratio (x) = 0.66492 0.80134
# Poissons Ratio (y) = 0.30993 0.18579
# Poissons Ratio (z) = 0.21353 0.10621
#
# Static dielectric constant tensor:
#      x y z
#    x 1.662650 0.000000 0.000000 
#    y 0.000000 1.698140 0.000000 
#    z 0.000000 0.000000 1.687350 
# 
# From -- ./inp_files/34253.got.cif
#   From: 2010.05.17/outbox.cif.g08.bks.cpg/sg53_18_cif.got.tgz:34253.got - 2010.06.03 12:45:16.
