data_PCOD9418846
_publ_section_title
;
Structure prediction by ZEFSAII (Michael W. Deem and Ramdas Pophale) SiO2 
 PCOD9418846
Probable space group: P M N A
;
_chemical_formula_sum "Si O2"
_cell_formula_units_Z 64
_cell_length_a 20.601332
_cell_length_b 15.709597
_cell_length_c 8.980434
_cell_angle_alpha 90.000000
_cell_angle_beta 90.000000
_cell_angle_gamma 90.000000
_cell_volume 2906.415297
_symmetry_space_group_name_H-M "P M N A"
_symmetry_group_IT_number 53
_symmetry_cell_setting 'orthorhombic'
loop_
_space_group_symop_operation_xyz
x,y,z
1/2-x,-y,1/2+z
x,-y,-z
1/2-x,y,1/2-z
-x,-y,-z
1/2+x,y,1/2-z
-x,y,z
1/2+x,-y,1/2+z
loop_
_atom_site_type_symbol
_atom_site_label
_atom_site_fract_x
_atom_site_fract_y
_atom_site_fract_z
Si Si1 0.694102 0.295511 0.973307
Si Si2 0.573500 0.624059 0.196448
Si Si3 0.432397 0.099787 0.972199
Si Si4 0.681418 0.858765 0.241590
Si Si5 0.076775 0.228344 0.943092
Si Si6 0.569603 0.571819 0.705473
Si Si7 0.099268 0.751452 0.705277
Si Si8 0.212310 0.581337 0.906578
O O1 0.634607 0.351735 0.907260
O O2 0.702064 0.222935 0.854373
O O3 0.670260 0.261379 0.133782
O O4 0.761433 0.341200 0.998138
O O5 0.500000 0.643264 0.139836
O O6 0.580540 0.684408 0.343763
O O7 0.574782 0.522403 0.224389
O O8 0.500000 0.127765 0.895677
O O9 0.370708 0.101941 0.868777
O O10 0.425863 0.167620 0.108709
O O11 0.438244 0.000000 0.000000
O O12 0.750000 0.908174 0.250000
O O13 0.635026 0.830976 0.378362
O O14 0.000000 0.201410 0.930516
O O15 0.090588 0.234636 0.119456
O O16 0.500000 0.574838 0.623445
O O17 0.569643 0.655564 0.810475
O O18 0.635689 0.581314 0.614884
O O19 0.250000 0.579322 0.750000
O O20 0.232303 0.500000 0.000000
#
# Coordination Sequence:
#
# PCOD9418846 Si02
#       8
#     8   8   8   8   8   8   8   8
#     4  10  23  41  62  89 122 173 221 269 316 382
#     4   9  21  39  60  88 125 174 222 273 329 379
#     4  10  22  46  76 102 129 166 212 264 329 403
#     4  10  23  41  67  94 132 170 211 257 321 389
#     4  10  21  39  63  94 133 172 217 265 325 389
#     4  11  24  39  59  88 126 166 217 276 327 375
#     4  11  23  40  66  97 129 159 212 274 328 384
#     4  12  26  42  60  82 123 171 227 270 322 379
#
# _framework density 22.020253
#
# number of rings (size 3 to 8) (size 9 to 14) (size 15 to 20)
#    0.000    1.625    1.250    2.250    3.500    5.750 
#    0.000    3.125    0.000    2.250    0.000    0.000 
#    0.000    0.000    0.000    0.000    0.000    0.000 
#
# Total GULP energy -356623.204606 kJ/mol
# GULP energy per Si atom -5572.237572 kJ/mol
# Density = 2.197013 g / cm^3
# Si number density = 22.020253 Si / 1000 Ang^3
#
#
#
# Elastic Constant Matrix: (Units=GPa)
#
#
# Indices 1 2 3 4 5 6 
#
# 1 142.3616 12.8328 56.0372 0.0000 0.0000 0.0000
# 2 12.8328 67.6163 17.2582 0.0000 0.0000 0.0000
# 3 56.0372 17.2582 97.8276 0.0000 0.0000 0.0000
# 4 0.0000 0.0000 0.0000 -16.8326 0.0000 0.0000
# 5 0.0000 0.0000 0.0000 0.0000 105.5549 0.0000
# 6 0.0000 0.0000 0.0000 0.0000 0.0000 20.9359
#
#
#
# Elastic Compliance Matrix: (Units=1/GPa)
#
#
# Indices 1 2 3 4 5 6 
#
# 1 0.009080 -0.000414 -0.005128 0.000000 0.000000 0.000000
# 2 -0.000414 0.015506 -0.002498 0.000000 0.000000 0.000000
# 3 -0.005128 -0.002498 0.013600 0.000000 0.000000 0.000000
# 4 0.000000 0.000000 0.000000 -0.059409 0.000000 0.000000
# 5 0.000000 0.000000 0.000000 0.000000 0.009474 0.000000
# 6 0.000000 0.000000 0.000000 0.000000 0.000000 0.047765
#
#
# Mechanical properties :
#
#
# Convention : Reuss Voigt Hill
#
# Bulk Modulus (GPa) = 45.23901 53.34021 49.28961
# Shear Modulus (GPa) = 84.08213 36.71015 60.39614
#
# Velocity S-wave (km/s) = 6.18602 4.08745 5.24281
# Velocity P-wave (km/s) = 8.46235 6.82292 7.68647
#
# Compressibility (1/GPa) = 0.02210482
#
# Stress axis : x y z
#
# Youngs Moduli (GPa) = 110.12809 64.49294 73.52780
#
# Poissons Ratio (x) = 0.02673 0.37707
# Poissons Ratio (y) = 0.04564 0.18367
# Poissons Ratio (z) = 0.56476 0.16110
#
# Static dielectric constant tensor:
#      x y z
#    x 1.775520 0.000000 0.000000 
#    y 0.000000 1.823000 0.000000 
#    z 0.000000 0.000000 1.867600 
# 
# From -- ./inp_files/11201.got.cif
#   From: 2010.05.17/outbox.cif.g08.bks.cpg/sg53_6_cif.got.tgz:11201.got - 2010.06.03 12:45:16.
