data_PCOD9418819
_publ_section_title
;
Structure prediction by ZEFSAII (Michael W. Deem and Ramdas Pophale) SiO2 
 PCOD9418819
Probable space group: P M N A
;
_chemical_formula_sum "Si O2"
_cell_formula_units_Z 64
_cell_length_a 14.523678
_cell_length_b 11.603122
_cell_length_c 17.439383
_cell_angle_alpha 90.000000
_cell_angle_beta 90.000000
_cell_angle_gamma 90.000000
_cell_volume 2938.884958
_symmetry_space_group_name_H-M "P M N A"
_symmetry_group_IT_number 53
_symmetry_cell_setting 'orthorhombic'
loop_
_space_group_symop_operation_xyz
x,y,z
1/2-x,-y,1/2+z
x,-y,-z
1/2-x,y,1/2-z
-x,-y,-z
1/2+x,y,1/2-z
-x,y,z
1/2+x,-y,1/2+z
loop_
_atom_site_type_symbol
_atom_site_label
_atom_site_fract_x
_atom_site_fract_y
_atom_site_fract_z
Si Si1 0.102709 0.168962 0.424811
Si Si2 0.302951 0.157750 0.826600
Si Si3 0.389383 0.243306 0.381660
Si Si4 0.605370 0.507920 0.407748
Si Si5 0.714334 0.879611 0.487949
Si Si6 0.605814 0.437393 0.072999
Si Si7 0.106652 0.077581 0.259039
Si Si8 0.218579 0.402605 0.664238
O O1 0.186321 0.113018 0.469741
O O2 0.108173 0.303355 0.441950
O O3 0.112774 0.158363 0.333477
O O4 0.000000 0.124995 0.444961
O O5 0.250000 0.189281 0.750000
O O6 0.236873 0.130948 0.898289
O O7 0.341106 0.285037 0.849897
O O8 0.355085 0.043086 0.795721
O O9 0.500000 0.230648 0.386726
O O10 0.373644 0.380797 0.371343
O O11 0.341554 0.212403 0.462434
O O12 0.356465 0.151665 0.314723
O O13 0.605996 0.500000 0.500000
O O14 0.500000 0.540139 0.385189
O O15 0.685945 0.594914 0.383341
O O16 0.663093 0.000000 0.500000
O O17 0.500000 0.472975 0.080865
O O18 0.660656 0.485198 0.143743
O O19 0.648679 0.500000 0.000000
O O20 0.000000 0.054398 0.240937
O O21 0.250000 0.415593 0.750000
#
# Coordination Sequence:
#
# PCOD9418819 Si02
#       8
#     8   8   8   8   8   8   8   8
#     4  10  22  38  61  95 128 163 215 273 324 393
#     4  11  24  43  59  86 130 167 213 268 322 397
#     4  10  23  41  66  99 133 174 226 280 339 406
#     4  10  21  41  68  97 132 174 221 277 335 396
#     4  12  22  37  64  92 119 171 215 271 334 387
#     4  10  21  39  62  88 125 168 208 260 322 386
#     4  10  22  41  63  92 130 170 216 274 326 387
#     4  11  24  38  59  91 127 166 210 262 319 388
#
# _framework density 21.776966999999999
#
# number of rings (size 3 to 8) (size 9 to 14) (size 15 to 20)
#    0.000    1.500    1.250    3.375    1.750    2.000 
#    0.000    2.500    0.000    0.000    0.000    0.000 
#    0.000    0.000    0.000    0.000    0.000    0.000 
#
# Total GULP energy -356533.870362 kJ/mol
# GULP energy per Si atom -5570.841724 kJ/mol
# Density = 2.172740 g / cm^3
# Si number density = 21.776967 Si / 1000 Ang^3
#
#
#
# Elastic Constant Matrix: (Units=GPa)
#
#
# Indices 1 2 3 4 5 6 
#
# 1 52.4582 26.8811 19.3545 0.0000 0.0000 0.0000
# 2 26.8811 69.3216 27.0507 0.0000 0.0000 0.0000
# 3 19.3545 27.0507 104.5790 0.0000 0.0000 0.0000
# 4 0.0000 0.0000 0.0000 35.1742 0.0000 0.0000
# 5 0.0000 0.0000 0.0000 0.0000 -26.8405 0.0000
# 6 0.0000 0.0000 0.0000 0.0000 0.0000 40.2267
#
#
#
# Elastic Compliance Matrix: (Units=1/GPa)
#
#
# Indices 1 2 3 4 5 6 
#
# 1 0.024273 -0.008519 -0.002289 0.000000 0.000000 0.000000
# 2 -0.008519 0.019035 -0.003347 0.000000 0.000000 0.000000
# 3 -0.002289 -0.003347 0.010851 0.000000 0.000000 0.000000
# 4 0.000000 0.000000 0.000000 0.028430 0.000000 0.000000
# 5 0.000000 0.000000 0.000000 0.000000 -0.037257 0.000000
# 6 0.000000 0.000000 0.000000 0.000000 0.000000 0.024859
#
#
# Mechanical properties :
#
#
# Convention : Reuss Voigt Hill
#
# Bulk Modulus (GPa) = 38.68531 41.43681 40.06106
# Shear Modulus (GPa) = 46.67777 19.91691 33.29734
#
# Velocity S-wave (km/s) = 4.63476 3.02749 3.91451
# Velocity P-wave (km/s) = 6.81500 5.59375 6.23435
#
# Compressibility (1/GPa) = 0.02584960
#
# Stress axis : x y z
#
# Youngs Moduli (GPa) = 41.19861 52.53439 92.15371
#
# Poissons Ratio (x) = 0.44755 0.21090
# Poissons Ratio (y) = 0.35098 0.30844
# Poissons Ratio (z) = 0.09428 0.17583
#
# Static dielectric constant tensor:
#      x y z
#    x 1.828580 0.000000 0.000000 
#    y 0.000000 1.998710 0.000000 
#    z 0.000000 0.000000 1.825220 
# 
# From -- ./inp_files/28544.got.cif
#   From: 2010.05.17/outbox.cif.g08.bks.cpg/sg53_15_cif.got.tgz:28544.got - 2010.06.03 12:45:16.
