data_PCOD9418614
_publ_section_title
;
Structure prediction by ZEFSAII (Michael W. Deem and Ramdas Pophale) SiO2 
 PCOD9418614
Probable space group: P M N A
;
_chemical_formula_sum "Si O2"
_cell_formula_units_Z 48
_cell_length_a 17.396272
_cell_length_b 15.217920
_cell_length_c 9.597965
_cell_angle_alpha 90.000000
_cell_angle_beta 90.000000
_cell_angle_gamma 90.000000
_cell_volume 2540.917990
_symmetry_space_group_name_H-M "P M N A"
_symmetry_group_IT_number 53
_symmetry_cell_setting 'orthorhombic'
loop_
_space_group_symop_operation_xyz
x,y,z
1/2-x,-y,1/2+z
x,-y,-z
1/2-x,y,1/2-z
-x,-y,-z
1/2+x,y,1/2-z
-x,y,z
1/2+x,-y,1/2+z
loop_
_atom_site_type_symbol
_atom_site_label
_atom_site_fract_x
_atom_site_fract_y
_atom_site_fract_z
Si Si1 0.590531 0.161648 0.305158
Si Si2 0.308737 0.239227 0.543803
Si Si3 0.759906 0.587463 0.585705
Si Si4 0.084238 0.312341 0.422775
Si Si5 0.358478 0.197976 0.838579
Si Si6 0.830040 0.995213 0.334520
O O1 0.500000 0.151268 0.337196
O O2 0.642990 0.177993 0.440435
O O3 0.599058 0.247992 0.208108
O O4 0.622472 0.078658 0.219732
O O5 0.291860 0.331793 0.469681
O O6 0.350900 0.247378 0.691811
O O7 0.225346 0.199947 0.585006
O O8 0.743137 0.500000 0.500000
O O9 0.750000 0.574197 0.750000
O O10 0.847528 0.618771 0.562196
O O11 0.087052 0.248309 0.556231
O O12 0.000000 0.352365 0.407966
O O13 0.374769 0.096225 0.809749
O O14 0.750000 0.992185 0.250000
O O15 0.816189 0.000000 0.500000
#
# Coordination Sequence:
#
# PCOD9418614 Si02
#       6
#     8   8   8   8   8   8
#     4  11  24  39  61  88 125 171 206 244 304 364
#     4  10  21  42  61  88 123 157 208 247 303 364
#     4  11  24  40  68  97 118 152 195 257 302 366
#     4  10  22  41  63  90 125 165 199 238 307 370
#     4  10  21  37  62  90 120 167 206 257 293 346
#     4  12  23  36  59  89 122 161 214 265 296 341
#
# _framework density 18.890809999999998
#
# number of rings (size 3 to 8) (size 9 to 14) (size 15 to 20)
#    0.000    1.333    5.000    1.000    7.000    2.000 
#    0.000    0.833    0.000    1.000    0.000    0.000 
#    0.000    0.000    0.000    0.000    0.000    0.000 
#
# Total GULP energy -268107.573186 kJ/mol
# GULP energy per Si atom -5585.574441 kJ/mol
# Density = 1.884781 g / cm^3
# Si number density = 18.890810 Si / 1000 Ang^3
#
#
#
# Elastic Constant Matrix: (Units=GPa)
#
#
# Indices 1 2 3 4 5 6 
#
# 1 57.0363 23.8115 46.1201 0.0000 0.0000 0.0000
# 2 23.8115 91.2438 39.5044 0.0000 0.0000 0.0000
# 3 46.1201 39.5044 144.9016 0.0000 0.0000 0.0000
# 4 0.0000 0.0000 0.0000 34.3347 0.0000 0.0000
# 5 0.0000 0.0000 0.0000 0.0000 13.2322 0.0000
# 6 0.0000 0.0000 0.0000 0.0000 0.0000 7.0054
#
#
#
# Elastic Compliance Matrix: (Units=1/GPa)
#
#
# Indices 1 2 3 4 5 6 
#
# 1 0.024517 -0.003424 -0.006870 0.000000 0.000000 0.000000
# 2 -0.003424 0.012905 -0.002428 0.000000 0.000000 0.000000
# 3 -0.006870 -0.002428 0.009750 0.000000 0.000000 0.000000
# 4 0.000000 0.000000 0.000000 0.029125 0.000000 0.000000
# 5 0.000000 0.000000 0.000000 0.000000 0.075573 0.000000
# 6 0.000000 0.000000 0.000000 0.000000 0.000000 0.142747
#
#
# Mechanical properties :
#
#
# Convention : Reuss Voigt Hill
#
# Bulk Modulus (GPa) = 46.02517 56.89486 51.46001
# Shear Modulus (GPa) = 15.27632 23.16417 19.22024
#
# Velocity S-wave (km/s) = 2.84679 3.50553 3.19319
# Velocity P-wave (km/s) = 5.93484 6.82409 6.39494
#
# Compressibility (1/GPa) = 0.02172724
#
# Stress axis : x y z
#
# Youngs Moduli (GPa) = 40.78755 77.49225 102.56465
#
# Poissons Ratio (x) = 0.26531 0.70463
# Poissons Ratio (y) = 0.13965 0.24907
# Poissons Ratio (z) = 0.28021 0.18818
#
# Static dielectric constant tensor:
#      x y z
#    x 1.650890 0.000000 0.000000 
#    y 0.000000 1.638160 0.000000 
#    z 0.000000 0.000000 1.651690 
# 
# From -- ./inp_files/9996.got.cif
#   From: 2010.05.17/outbox.cif.g08.bks.cpg/sg53_5_cif.got.tgz:9996.got - 2010.06.03 12:45:16.
