data_PCOD9418221
_publ_section_title
;
Structure prediction by ZEFSAII (Michael W. Deem and Ramdas Pophale) SiO2 
 PCOD9418221
Probable space group: P M N A
;
_chemical_formula_sum "Si O2"
_cell_formula_units_Z 40
_cell_length_a 14.174654
_cell_length_b 10.586444
_cell_length_c 12.382298
_cell_angle_alpha 90.000000
_cell_angle_beta 90.000000
_cell_angle_gamma 90.000000
_cell_volume 1858.077494
_symmetry_space_group_name_H-M "P M N A"
_symmetry_group_IT_number 53
_symmetry_cell_setting 'orthorhombic'
loop_
_space_group_symop_operation_xyz
x,y,z
1/2-x,-y,1/2+z
x,-y,-z
1/2-x,y,1/2-z
-x,-y,-z
1/2+x,y,1/2-z
-x,y,z
1/2+x,-y,1/2+z
loop_
_atom_site_type_symbol
_atom_site_label
_atom_site_fract_x
_atom_site_fract_y
_atom_site_fract_z
Si Si1 0.396301 0.359019 0.038571
Si Si2 0.756474 0.753408 0.364361
Si Si3 0.111287 0.011946 0.630691
Si Si4 0.886277 0.648738 0.985937
Si Si5 0.112598 0.246832 0.244349
O O1 0.500000 0.294436 0.029506
O O2 0.368370 0.349632 0.163105
O O3 0.405950 0.500000 0.000000
O O4 0.322678 0.300926 0.957637
O O5 0.750000 0.683095 0.250000
O O6 0.812518 0.882363 0.339142
O O7 0.654766 0.738451 0.419939
O O8 0.000000 0.040677 0.654591
O O9 0.117793 0.000000 0.500000
O O10 0.138006 0.885222 0.697323
O O11 0.851748 0.708601 0.872005
O O12 0.000000 0.649017 0.988721
O O13 0.857053 0.500000 0.000000
O O14 0.000000 0.239536 0.229843
#
# Coordination Sequence:
#
# PCOD9418221 Si02
#       5
#     8   8   8   8   8
#     4  10  21  39  66  98 128 163 216 278 341 406
#     4  12  26  39  60  97 138 172 220 271 341 406
#     4  10  20  41  68  96 131 172 224 280 332 396
#     4  10  24  46  69  96 136 184 233 288 348 413
#     4   9  19  40  70  97 123 171 226 275 338 404
#
# _framework density 21.527626999999999
#
# number of rings (size 3 to 8) (size 9 to 14) (size 15 to 20)
#    0.000    1.800    2.000    1.200    2.800    4.000 
#    0.000    0.000    0.000    4.200    0.000    0.000 
#    0.000    0.000    0.000    0.000    0.000    0.000 
#
# Total GULP energy -222972.415859 kJ/mol
# GULP energy per Si atom -5574.310396 kJ/mol
# Density = 2.147863 g / cm^3
# Si number density = 21.527627 Si / 1000 Ang^3
#
#
#
# Elastic Constant Matrix: (Units=GPa)
#
#
# Indices 1 2 3 4 5 6 
#
# 1 80.1387 21.4938 29.1346 0.0000 0.0000 0.0000
# 2 21.4938 93.2484 33.6583 0.0000 0.0000 0.0000
# 3 29.1346 33.6583 166.5163 0.0000 0.0000 0.0000
# 4 0.0000 0.0000 0.0000 26.1954 0.0000 0.0000
# 5 0.0000 0.0000 0.0000 0.0000 27.4430 0.0000
# 6 0.0000 0.0000 0.0000 0.0000 0.0000 -9.9811
#
#
#
# Elastic Compliance Matrix: (Units=1/GPa)
#
#
# Indices 1 2 3 4 5 6 
#
# 1 0.013846 -0.002499 -0.001917 0.000000 0.000000 0.000000
# 2 -0.002499 0.012019 -0.001992 0.000000 0.000000 0.000000
# 3 -0.001917 -0.001992 0.006744 0.000000 0.000000 0.000000
# 4 0.000000 0.000000 0.000000 0.038175 0.000000 0.000000
# 5 0.000000 0.000000 0.000000 0.000000 0.036439 0.000000
# 6 0.000000 0.000000 0.000000 0.000000 0.000000 -0.100190
#
#
# Mechanical properties :
#
#
# Convention : Reuss Voigt Hill
#
# Bulk Modulus (GPa) = 50.52851 56.49741 53.51296
# Shear Modulus (GPa) = 189.05327 25.77258 107.41292
#
# Velocity S-wave (km/s) = 9.38134 3.46379 7.07133
# Velocity P-wave (km/s) = 11.86880 6.50371 9.56992
#
# Compressibility (1/GPa) = 0.01979081
#
# Stress axis : x y z
#
# Youngs Moduli (GPa) = 72.22423 83.20002 148.28954
#
# Poissons Ratio (x) = 0.20795 0.28432
# Poissons Ratio (y) = 0.18052 0.29542
# Poissons Ratio (z) = 0.13848 0.16575
#
# Static dielectric constant tensor:
#      x y z
#    x 1.868220 0.000000 0.000000 
#    y 0.000000 1.835480 0.000000 
#    z 0.000000 0.000000 -2.105320 
# 
# From -- ./inp_files/15776.got.cif
#   From: 2010.05.17/outbox.cif.g08.bks.cpg/sg53_8_cif.got.tgz:15776.got - 2010.06.03 12:45:16.
