data_PCOD9418811
_publ_section_title
;
Structure prediction by ZEFSAII (Michael W. Deem and Ramdas Pophale) SiO2 
 PCOD9418811
Probable space group: P M N A
;
_chemical_formula_sum "Si O2"
_cell_formula_units_Z 56
_cell_length_a 8.136442
_cell_length_b 15.043326
_cell_length_c 21.214027
_cell_angle_alpha 90.000000
_cell_angle_beta 90.000000
_cell_angle_gamma 90.000000
_cell_volume 2596.578862
_symmetry_space_group_name_H-M "P M N A"
_symmetry_group_IT_number 53
_symmetry_cell_setting 'orthorhombic'
loop_
_space_group_symop_operation_xyz
x,y,z
1/2-x,-y,1/2+z
x,-y,-z
1/2-x,y,1/2-z
-x,-y,-z
1/2+x,y,1/2-z
-x,y,z
1/2+x,-y,1/2+z
loop_
_atom_site_type_symbol
_atom_site_label
_atom_site_fract_x
_atom_site_fract_y
_atom_site_fract_z
Si Si1 0.685624 0.025635 0.681113
Si Si2 0.306203 0.897721 0.002906
Si Si3 0.696856 0.652616 0.679242
Si Si4 0.197354 0.512612 0.926491
Si Si5 0.311551 0.155371 0.137349
Si Si6 0.803160 0.373499 0.679218
Si Si7 0.688579 0.194799 0.880160
O O1 0.750000 0.011971 0.750000
O O2 0.500000 0.059274 0.677598
O O3 0.803370 0.099544 0.652547
O O4 0.699680 0.928933 0.651760
O O5 0.500000 0.910118 0.020230
O O6 0.227721 0.831774 0.054078
O O7 0.305003 0.844949 0.937983
O O8 0.240110 0.000000 0.000000
O O9 0.750000 0.622725 0.750000
O O10 0.500000 0.649722 0.678581
O O11 0.756752 0.594855 0.618471
O O12 0.756496 0.753329 0.668482
O O13 0.238313 0.430766 0.879835
O O14 0.000000 0.521340 0.931277
O O15 0.256870 0.500000 0.000000
O O16 0.500000 0.135739 0.156723
O O17 0.750000 0.399655 0.750000
O O18 0.744429 0.272777 0.663715
O O19 0.000000 0.379762 0.679476
O O20 0.500000 0.222213 0.892452
#
# Coordination Sequence:
#
# PCOD9418811 Si02
#       7
#     8   8   8   8   8   8   8
#     4  12  24  38  57  84 120 162 209 258 308 368
#     4   9  17  34  60  86 119 163 205 251 308 368
#     4  11  24  43  66  94 127 165 211 260 316 378
#     4  10  24  46  70  97 133 169 204 258 325 386
#     4  11  22  38  63  90 123 164 206 256 312 372
#     4  11  24  41  67  97 130 168 215 267 317 383
#     4  10  21  39  61  90 125 163 209 257 312 372
#
# _framework density 21.566839000000002
#
# number of rings (size 3 to 8) (size 9 to 14) (size 15 to 20)
#    0.000    1.429    1.429    3.857    2.000    4.857 
#    0.000    2.143    0.000    0.000    0.000    0.000 
#    0.000    0.000    0.000    0.000    0.000    0.000 
#
# Total GULP energy -312153.840960 kJ/mol
# GULP energy per Si atom -5574.175731 kJ/mol
# Density = 2.151775 g / cm^3
# Si number density = 21.566839 Si / 1000 Ang^3
#
#
#
# Elastic Constant Matrix: (Units=GPa)
#
#
# Indices 1 2 3 4 5 6 
#
# 1 33.1043 -1.8551 10.7039 0.0000 0.0000 0.0000
# 2 -1.8551 98.9880 42.5296 0.0000 0.0000 0.0000
# 3 10.7039 42.5296 153.8478 0.0000 0.0000 0.0000
# 4 0.0000 0.0000 0.0000 -16.9525 0.0000 0.0000
# 5 0.0000 0.0000 0.0000 0.0000 19.1562 0.0000
# 6 0.0000 0.0000 0.0000 0.0000 0.0000 31.5364
#
#
#
# Elastic Compliance Matrix: (Units=1/GPa)
#
#
# Indices 1 2 3 4 5 6 
#
# 1 0.031159 0.001720 -0.002643 0.000000 0.000000 0.000000
# 2 0.001720 0.011559 -0.003315 0.000000 0.000000 0.000000
# 3 -0.002643 -0.003315 0.007600 0.000000 0.000000 0.000000
# 4 0.000000 0.000000 0.000000 -0.058988 0.000000 0.000000
# 5 0.000000 0.000000 0.000000 0.000000 0.052202 0.000000
# 6 0.000000 0.000000 0.000000 0.000000 0.000000 0.031709
#
#
# Mechanical properties :
#
#
# Convention : Reuss Voigt Hill
#
# Bulk Modulus (GPa) = 23.90038 43.18854 33.54446
# Shear Modulus (GPa) = 51.19558 22.38548 36.79053
#
# Velocity S-wave (km/s) = 4.87746 3.22523 4.13472
# Velocity P-wave (km/s) = 6.54412 5.82567 6.19532
#
# Compressibility (1/GPa) = 0.04184035
#
# Stress axis : x y z
#
# Youngs Moduli (GPa) = 32.09390 86.51502 131.57542
#
# Poissons Ratio (x) = -0.14877 0.34778
# Poissons Ratio (y) = -0.05519 0.43616
# Poissons Ratio (z) = 0.08483 0.28679
#
# Static dielectric constant tensor:
#      x y z
#    x 1.791230 0.000000 0.000000 
#    y 0.000000 1.735410 0.000000 
#    z 0.000000 0.000000 1.882340 
# 
# From -- ./inp_files/30813.got.cif
#   From: 2010.05.17/outbox.cif.g08.bks.cpg/sg53_16_cif.got.tgz:30813.got - 2010.06.03 12:45:16.
