data_PCOD9418288
_publ_section_title
;
Structure prediction by ZEFSAII (Michael W. Deem and Ramdas Pophale) SiO2 
 PCOD9418288
Probable space group: P M N A
;
_chemical_formula_sum "Si O2"
_cell_formula_units_Z 40
_cell_length_a 11.372485
_cell_length_b 17.688536
_cell_length_c 7.637289
_cell_angle_alpha 90.000000
_cell_angle_beta 90.000000
_cell_angle_gamma 90.000000
_cell_volume 1536.336991
_symmetry_space_group_name_H-M "P M N A"
_symmetry_group_IT_number 53
_symmetry_cell_setting 'orthorhombic'
loop_
_space_group_symop_operation_xyz
x,y,z
1/2-x,-y,1/2+z
x,-y,-z
1/2-x,y,1/2-z
-x,-y,-z
1/2+x,y,1/2-z
-x,y,z
1/2+x,-y,1/2+z
loop_
_atom_site_type_symbol
_atom_site_label
_atom_site_fract_x
_atom_site_fract_y
_atom_site_fract_z
Si Si1 0.875458 0.450408 0.828320
Si Si2 0.126051 0.714331 0.277702
Si Si3 0.873003 0.327547 0.314828
Si Si4 0.874093 0.151836 0.304433
Si Si5 0.870103 0.068829 0.640729
O O1 0.750000 0.469634 0.750000
O O2 0.870864 0.359313 0.849278
O O3 0.000000 0.462823 0.728662
O O4 0.882318 0.500000 0.000000
O O5 0.250000 0.754894 0.250000
O O6 0.126349 0.680394 0.474524
O O7 0.000000 0.751993 0.243410
O O8 0.750000 0.361323 0.250000
O O9 0.873385 0.239697 0.251863
O O10 0.000000 0.361036 0.262283
O O11 0.750000 0.117049 0.250000
O O12 0.873432 0.141967 0.513524
O O13 0.000000 0.119784 0.241930
O O14 0.750000 0.067033 0.750000
O O15 0.000000 0.064531 0.730018
O O16 0.867253 0.000000 0.500000
#
# Coordination Sequence:
#
# PCOD9418288 Si02
#       5
#     8   8   8   8   8
#     4   9  18  34  55  77 101 131 167 205 248 300
#     4   9  18  33  52  75 103 133 166 206 251 299
#     4   9  18  33  53  77 105 136 170 211 259 310
#     4   9  18  33  52  75 103 135 173 215 260 312
#     4  10  21  35  51  74 104 138 178 223 267 313
#
# _framework density 26.035952999999999
#
# number of rings (size 3 to 8) (size 9 to 14) (size 15 to 20)
#    0.000    2.800    0.000    0.600    0.000    3.200 
#    0.000    4.000    0.000   21.600    0.000    0.000 
#    0.000    0.000    0.000    0.000    0.000    0.000 
#
# Total GULP energy -223198.766223 kJ/mol
# GULP energy per Si atom -5579.969156 kJ/mol
# Density = 2.597669 g / cm^3
# Si number density = 26.035953 Si / 1000 Ang^3
#
#
#
# Elastic Constant Matrix: (Units=GPa)
#
#
# Indices 1 2 3 4 5 6 
#
# 1 417.3477 15.1332 67.3888 0.0000 0.0000 0.0000
# 2 15.1332 90.2054 -4.7570 0.0000 0.0000 0.0000
# 3 67.3888 -4.7570 31.5644 0.0000 0.0000 0.0000
# 4 0.0000 0.0000 0.0000 33.3606 0.0000 0.0000
# 5 0.0000 0.0000 0.0000 0.0000 48.3385 0.0000
# 6 0.0000 0.0000 0.0000 0.0000 0.0000 -16.6355
#
#
#
# Elastic Compliance Matrix: (Units=1/GPa)
#
#
# Indices 1 2 3 4 5 6 
#
# 1 0.003755 -0.001061 -0.008176 0.000000 0.000000 0.000000
# 2 -0.001061 0.011474 0.003995 0.000000 0.000000 0.000000
# 3 -0.008176 0.003995 0.049739 0.000000 0.000000 0.000000
# 4 0.000000 0.000000 0.000000 0.029976 0.000000 0.000000
# 5 0.000000 0.000000 0.000000 0.000000 0.020687 0.000000
# 6 0.000000 0.000000 0.000000 0.000000 0.000000 -0.060113
#
#
# Mechanical properties :
#
#
# Convention : Reuss Voigt Hill
#
# Bulk Modulus (GPa) = 18.35426 77.18305 47.76865
# Shear Modulus (GPa) = 59.40701 43.76955 51.58828
#
# Velocity S-wave (km/s) = 4.78193 4.10459 4.45615
# Velocity P-wave (km/s) = 6.12813 7.22307 6.69801
#
# Compressibility (1/GPa) = 0.05448327
#
# Stress axis : x y z
#
# Youngs Moduli (GPa) = 266.32829 87.14983 20.10487
#
# Poissons Ratio (x) = 0.09247 0.16438
# Poissons Ratio (y) = 0.28260 -0.08031
# Poissons Ratio (z) = 2.17755 -0.34814
#
# Static dielectric constant tensor:
#      x y z
#    x 2.124920 0.000000 0.000000 
#    y 0.000000 2.069550 0.000000 
#    z 0.000000 0.000000 2.038280 
# 
# From -- ./inp_files/752.got.cif
#   From: 2010.05.17/outbox.cif.g08.bks.cpg/sg53_1_cif.got.tgz:752.got - 2010.06.03 12:45:16.
