data_PCOD9418800
_publ_section_title
;
Structure prediction by ZEFSAII (Michael W. Deem and Ramdas Pophale) SiO2 
 PCOD9418800
Probable space group: P M N A
;
_chemical_formula_sum "Si O2"
_cell_formula_units_Z 40
_cell_length_a 10.359905
_cell_length_b 13.630991
_cell_length_c 13.021200
_cell_angle_alpha 90.000000
_cell_angle_beta 90.000000
_cell_angle_gamma 90.000000
_cell_volume 1838.798808
_symmetry_space_group_name_H-M "P M N A"
_symmetry_group_IT_number 53
_symmetry_cell_setting 'orthorhombic'
loop_
_space_group_symop_operation_xyz
x,y,z
1/2-x,-y,1/2+z
x,-y,-z
1/2-x,y,1/2-z
-x,-y,-z
1/2+x,y,1/2-z
-x,y,z
1/2+x,-y,1/2+z
loop_
_atom_site_type_symbol
_atom_site_label
_atom_site_fract_x
_atom_site_fract_y
_atom_site_fract_z
Si Si1 0.000000 0.480822 0.277427
Si Si2 0.733711 0.276267 0.477289
Si Si3 0.000000 0.168464 0.711566
Si Si4 0.000000 0.956398 0.113572
Si Si5 0.000000 0.598063 0.067266
Si Si6 0.773033 0.071441 0.585675
Si Si7 0.000000 0.350368 0.570618
Si Si8 0.750000 0.655876 0.750000
O O1 0.126370 0.413538 0.268531
O O2 0.000000 0.558207 0.183228
O O3 0.000000 0.541192 0.383380
O O4 0.625266 0.340648 0.533681
O O5 0.724459 0.166340 0.521183
O O6 0.872563 0.321534 0.508021
O O7 0.722927 0.283189 0.353999
O O8 0.000000 0.151696 0.833027
O O9 0.123163 0.113992 0.663308
O O10 0.000000 0.277234 0.669072
O O11 0.150140 0.982029 0.138348
O O12 0.000000 0.000000 0.000000
O O13 0.000000 0.500000 0.000000
O O14 0.831992 0.000000 0.500000
#
# Coordination Sequence:
#
# PCOD9418800 Si02
#       8
#     4   8   4   4   4   8   4   4
#     4  12  25  39  65  93 123 173 217 257 330 384
#     4  11  24  43  64  94 131 168 213 270 322 382
#     4  10  21  41  65  94 126 166 208 270 314 372
#     4  10  21  39  60  92 125 160 208 256 310 372
#     4  12  23  43  65  90 129 171 208 267 321 383
#     4  10  22  42  67  92 128 165 212 264 315 380
#     4  10  25  40  66  95 126 168 222 269 314 386
#     4  12  24  42  62  90 130 166 210 264 326 396
#
# _framework density 21.753333000000001
#
# number of rings (size 3 to 8) (size 9 to 14) (size 15 to 20)
#    0.000    1.200    2.000    3.300    2.800    0.800 
#    7.200    0.000    0.000    0.000    0.000    0.000 
#    0.000    0.000    0.000    0.000    0.000    0.000 
#
# Total GULP energy -223110.819531 kJ/mol
# GULP energy per Si atom -5577.770488 kJ/mol
# Density = 2.170382 g / cm^3
# Si number density = 21.753333 Si / 1000 Ang^3
#
#
#
# Elastic Constant Matrix: (Units=GPa)
#
#
# Indices 1 2 3 4 5 6 
#
# 1 136.9807 21.2301 2.4220 0.0000 0.0000 0.0000
# 2 21.2301 84.3870 45.0865 0.0000 0.0000 0.0000
# 3 2.4220 45.0865 124.5182 0.0000 0.0000 0.0000
# 4 0.0000 0.0000 0.0000 45.0958 0.0000 0.0000
# 5 0.0000 0.0000 0.0000 0.0000 23.7646 0.0000
# 6 0.0000 0.0000 0.0000 0.0000 0.0000 50.6530
#
#
#
# Elastic Compliance Matrix: (Units=1/GPa)
#
#
# Indices 1 2 3 4 5 6 
#
# 1 0.007643 -0.002285 0.000679 0.000000 0.000000 0.000000
# 2 -0.002285 0.015376 -0.005523 0.000000 0.000000 0.000000
# 3 0.000679 -0.005523 0.010018 0.000000 0.000000 0.000000
# 4 0.000000 0.000000 0.000000 0.022175 0.000000 0.000000
# 5 0.000000 0.000000 0.000000 0.000000 0.042079 0.000000
# 6 0.000000 0.000000 0.000000 0.000000 0.000000 0.019742
#
#
# Mechanical properties :
#
#
# Convention : Reuss Voigt Hill
#
# Bulk Modulus (GPa) = 53.25678 53.70701 53.48189
# Shear Modulus (GPa) = 36.35024 42.37917 39.36471
#
# Velocity S-wave (km/s) = 4.09225 4.41860 4.25855
# Velocity P-wave (km/s) = 6.84572 7.12563 6.98708
#
# Compressibility (1/GPa) = 0.01877695
#
# Stress axis : x y z
#
# Youngs Moduli (GPa) = 130.84723 65.03652 99.82475
#
# Poissons Ratio (x) = 0.14863 -0.06777
# Poissons Ratio (y) = 0.29904 0.55133
# Poissons Ratio (z) = -0.08883 0.35920
#
# Static dielectric constant tensor:
#      x y z
#    x 1.801350 0.000000 0.000000 
#    y 0.000000 1.760510 0.000000 
#    z 0.000000 0.000000 1.831560 
# 
# From -- ./inp_files/21728.got.cif
#   From: 2010.05.17/outbox.cif.g08.bks.cpg/sg53_11_cif.got.tgz:21728.got - 2010.06.03 12:45:16.
