data_PCOD9419361
_publ_section_title
;
Structure prediction by ZEFSAII (Michael W. Deem and Ramdas Pophale) SiO2 
 PCOD9419361
Probable space group: P M N A
;
_chemical_formula_sum "Si O2"
_cell_formula_units_Z 64
_cell_length_a 28.696271
_cell_length_b 9.427368
_cell_length_c 11.233719
_cell_angle_alpha 90.000000
_cell_angle_beta 90.000000
_cell_angle_gamma 90.000000
_cell_volume 3039.061449
_symmetry_space_group_name_H-M "P M N A"
_symmetry_group_IT_number 53
_symmetry_cell_setting 'orthorhombic'
loop_
_space_group_symop_operation_xyz
x,y,z
1/2-x,-y,1/2+z
x,-y,-z
1/2-x,y,1/2-z
-x,-y,-z
1/2+x,y,1/2-z
-x,y,z
1/2+x,-y,1/2+z
loop_
_atom_site_type_symbol
_atom_site_label
_atom_site_fract_x
_atom_site_fract_y
_atom_site_fract_z
Si Si1 0.631322 0.859590 0.550414
Si Si2 0.054131 0.567959 0.127475
Si Si3 0.230872 0.933131 0.869966
Si Si4 0.695039 0.292311 0.093633
Si Si5 0.127309 0.205950 0.795038
Si Si6 0.553853 0.269885 0.285223
Si Si7 0.609858 0.069760 0.126668
Si Si8 0.797555 0.402658 0.674153
O O1 0.676033 0.899099 0.629388
O O2 0.651127 0.803622 0.425901
O O3 0.592840 0.772062 0.617818
O O4 0.606285 0.000000 0.500000
O O5 0.081157 0.705156 0.172734
O O6 0.057884 0.439892 0.222913
O O7 0.000000 0.603117 0.110149
O O8 0.070132 0.500000 0.000000
O O9 0.250000 0.011632 0.750000
O O10 0.258654 0.787768 0.869268
O O11 0.241486 0.000000 0.000000
O O12 0.654207 0.174849 0.105698
O O13 0.686645 0.432710 0.171177
O O14 0.705686 0.347792 0.961056
O O15 0.161935 0.304843 0.724107
O O16 0.117832 0.060837 0.721033
O O17 0.500000 0.241262 0.319172
O O18 0.569283 0.172893 0.175002
O O19 0.599197 0.000000 0.000000
O O20 0.750000 0.390627 0.750000
#
# Coordination Sequence:
#
# PCOD9419361 Si02
#       8
#     8   8   8   8   8   8   8   8
#     4  11  23  41  64 105 137 173 230 286 362 418
#     4  10  22  43  71 105 140 180 225 285 371 440
#     4  11  25  40  65  97 136 184 233 290 347 420
#     4  11  24  45  70  96 141 189 233 297 353 415
#     4  12  24  43  71 104 138 182 234 298 345 429
#     4  11  24  44  70 101 143 180 225 292 360 430
#     4  12  25  46  73 102 140 190 246 289 353 420
#     4  11  25  45  67 101 139 187 241 287 356 423
#
# _framework density 21.059132000000002
#
# number of rings (size 3 to 8) (size 9 to 14) (size 15 to 20)
#    0.000    0.875    3.750    3.000    1.750    2.500 
#    2.250    0.000    0.000    1.500    0.000    0.000 
#    0.000    0.000    0.000    0.000    0.000    0.000 
#
# Total GULP energy -357077.477164 kJ/mol
# GULP energy per Si atom -5579.335581 kJ/mol
# Density = 2.101120 g / cm^3
# Si number density = 21.059132 Si / 1000 Ang^3
#
#
#
# Elastic Constant Matrix: (Units=GPa)
#
#
# Indices 1 2 3 4 5 6 
#
# 1 96.0160 46.5668 36.7497 0.0000 0.0000 0.0000
# 2 46.5668 112.8610 36.8119 0.0000 0.0000 0.0000
# 3 36.7497 36.8119 127.1564 0.0000 0.0000 0.0000
# 4 0.0000 0.0000 0.0000 38.7462 0.0000 0.0000
# 5 0.0000 0.0000 0.0000 0.0000 20.7732 0.0000
# 6 0.0000 0.0000 0.0000 0.0000 0.0000 0.0460
#
#
#
# Elastic Compliance Matrix: (Units=1/GPa)
#
#
# Indices 1 2 3 4 5 6 
#
# 1 0.013743 -0.004831 -0.002573 0.000000 0.000000 0.000000
# 2 -0.004831 0.011483 -0.001928 0.000000 0.000000 0.000000
# 3 -0.002573 -0.001928 0.009166 0.000000 0.000000 0.000000
# 4 0.000000 0.000000 0.000000 0.025809 0.000000 0.000000
# 5 0.000000 0.000000 0.000000 0.000000 0.048139 0.000000
# 6 0.000000 0.000000 0.000000 0.000000 0.000000 21.725764
#
#
# Mechanical properties :
#
#
# Convention : Reuss Voigt Hill
#
# Bulk Modulus (GPa) = 63.58461 64.03224 63.80843
# Shear Modulus (GPa) = 0.22875 26.30675 13.26775
#
# Velocity S-wave (km/s) = 0.32994 3.53822 2.51275
# Velocity P-wave (km/s) = 5.51399 6.86760 6.22768
#
# Compressibility (1/GPa) = 0.01572707
#
# Stress axis : x y z
#
# Youngs Moduli (GPa) = 72.76519 87.08814 109.09658
#
# Poissons Ratio (x) = 0.42073 0.28073
# Poissons Ratio (y) = 0.35153 0.21034
# Poissons Ratio (z) = 0.18724 0.16791
#
# Static dielectric constant tensor:
#      x y z
#    x 1.737910 0.000000 0.000000 
#    y 0.000000 1.820900 0.000000 
#    z 0.000000 0.000000 1.934790 
# 
# From -- ./inp_files/19053.got.cif
#   From: 2010.05.17/outbox.cif.g08.bks.cpg/sg53_10_cif.got.tgz:19053.got - 2010.06.03 12:45:16.
