data_PCOD9419368
_publ_section_title
;
Structure prediction by ZEFSAII (Michael W. Deem and Ramdas Pophale) SiO2 
 PCOD9419368
Probable space group: P M N A
;
_chemical_formula_sum "Si O2"
_cell_formula_units_Z 42
_cell_length_a 24.607457
_cell_length_b 6.797486
_cell_length_c 9.094490
_cell_angle_alpha 90.000000
_cell_angle_beta 90.000000
_cell_angle_gamma 90.000000
_cell_volume 1521.224833
_symmetry_space_group_name_H-M "P M N A"
_symmetry_group_IT_number 53
_symmetry_cell_setting 'orthorhombic'
loop_
_space_group_symop_operation_xyz
x,y,z
1/2-x,-y,1/2+z
x,-y,-z
1/2-x,y,1/2-z
-x,-y,-z
1/2+x,y,1/2-z
-x,y,z
1/2+x,-y,1/2+z
loop_
_atom_site_type_symbol
_atom_site_label
_atom_site_fract_x
_atom_site_fract_y
_atom_site_fract_z
Si Si1 0.882074 0.829994 0.325592
Si Si2 0.621971 0.295301 0.124974
Si Si3 0.294593 0.621362 0.622818
Si Si4 0.500000 0.500000 0.500000
Si Si5 0.500000 0.708854 0.802107
Si Si6 0.292576 0.131408 0.612181
Si Si7 0.500000 0.830242 0.276626
O O1 0.856780 0.690686 0.453843
O O2 0.853733 0.831950 0.168866
O O3 0.944293 0.776491 0.305350
O O4 0.873436 0.058869 0.361406
O O5 0.649454 0.377865 0.275187
O O6 0.557510 0.328343 0.120771
O O7 0.250000 0.625534 0.750000
O O8 0.286898 0.377113 0.567795
O O9 0.290597 0.877416 0.577962
O O10 0.500000 0.566787 0.665405
O O11 0.500000 0.736742 0.438052
O O12 0.500000 0.933049 0.744258
O O13 0.250000 0.127994 0.750000
#
# Coordination Sequence:
#
# PCOD9419368 Si02
#       7
#     8   8   8   2   4   8   4
#     4  10  22  43  74 107 144 189 241 310 375 436
#     4  10  22  43  74 105 146 190 245 300 374 446
#     4  12  27  47  68 100 143 194 241 302 380 444
#     4  12  26  40  70 102 152 202 250 302 374 438
#     4  10  24  43  71 109 151 198 250 310 370 444
#     4  12  25  41  69 102 136 181 244 306 358 433
#     4  10  24  45  71 107 155 197 251 304 379 448
#
# _framework density 27.60933
#
# number of rings (size 3 to 8) (size 9 to 14) (size 15 to 20)
#    0.000    1.143    1.905    3.143    6.667    2.286 
#    0.000    3.810    0.000    0.000    0.000    0.000 
#    0.000    0.000    0.000    0.000    0.000    0.000 
#
# Total GULP energy -233810.033746 kJ/mol
# GULP energy per Si atom -5566.905565 kJ/mol
# Density = 2.754649 g / cm^3
# Si number density = 27.609330 Si / 1000 Ang^3
#
#
#
# Elastic Constant Matrix: (Units=GPa)
#
#
# Indices 1 2 3 4 5 6 
#
# 1 132.9092 31.8336 90.7748 0.0000 0.0000 0.0000
# 2 31.8336 215.8021 97.0071 0.0000 0.0000 0.0000
# 3 90.7748 97.0071 249.3945 0.0000 0.0000 0.0000
# 4 0.0000 0.0000 0.0000 86.2299 0.0000 0.0000
# 5 0.0000 0.0000 0.0000 0.0000 31.1390 0.0000
# 6 0.0000 0.0000 0.0000 0.0000 0.0000 -21.8608
#
#
#
# Elastic Compliance Matrix: (Units=1/GPa)
#
#
# Indices 1 2 3 4 5 6 
#
# 1 0.010020 0.000196 -0.003723 0.000000 0.000000 0.000000
# 2 0.000196 0.005620 -0.002257 0.000000 0.000000 0.000000
# 3 -0.003723 -0.002257 0.006243 0.000000 0.000000 0.000000
# 4 0.000000 0.000000 0.000000 0.011597 0.000000 0.000000
# 5 0.000000 0.000000 0.000000 0.000000 0.032114 0.000000
# 6 0.000000 0.000000 0.000000 0.000000 0.000000 -0.045744
#
#
# Mechanical properties :
#
#
# Convention : Reuss Voigt Hill
#
# Bulk Modulus (GPa) = 96.96414 115.25964 106.11189
# Shear Modulus (GPa) = 143.44677 44.33432 93.89054
#
# Velocity S-wave (km/s) = 7.21586 4.01156 5.83786
# Velocity P-wave (km/s) = 10.22845 7.95576 9.16284
#
# Compressibility (1/GPa) = 0.01031309
#
# Stress axis : x y z
#
# Youngs Moduli (GPa) = 99.80103 177.94821 160.18501
#
# Poissons Ratio (x) = -0.03480 0.59639
# Poissons Ratio (y) = -0.01952 0.36154
# Poissons Ratio (z) = 0.37157 0.40164
#
# Static dielectric constant tensor:
#      x y z
#    x 2.132370 0.000000 0.000000 
#    y 0.000000 2.367050 0.000000 
#    z 0.000000 0.000000 1.994020 
# 
# From -- ./inp_files/35681.got.cif
#   From: 2010.05.17/outbox.cif.g08.bks.cpg/sg53_18_cif.got.tgz:35681.got - 2010.06.03 12:45:16.
