data_PCOD9419354
_publ_section_title
;
Structure prediction by ZEFSAII (Michael W. Deem and Ramdas Pophale) SiO2 
 PCOD9419354
Probable space group: P M N A
;
_chemical_formula_sum "Si O2"
_cell_formula_units_Z 56
_cell_length_a 13.946705
_cell_length_b 13.152992
_cell_length_c 14.097446
_cell_angle_alpha 90.000000
_cell_angle_beta 90.000000
_cell_angle_gamma 90.000000
_cell_volume 2586.048172
_symmetry_space_group_name_H-M "P M N A"
_symmetry_group_IT_number 53
_symmetry_cell_setting 'orthorhombic'
loop_
_space_group_symop_operation_xyz
x,y,z
1/2-x,-y,1/2+z
x,-y,-z
1/2-x,y,1/2-z
-x,-y,-z
1/2+x,y,1/2-z
-x,y,z
1/2+x,-y,1/2+z
loop_
_atom_site_type_symbol
_atom_site_label
_atom_site_fract_x
_atom_site_fract_y
_atom_site_fract_z
Si Si1 0.615819 0.814945 0.800679
Si Si2 0.112489 0.598787 0.776318
Si Si3 0.384503 0.118842 0.994279
Si Si4 0.884220 0.039865 0.144473
Si Si5 0.270434 0.739278 0.142202
Si Si6 0.113963 0.836588 0.042187
Si Si7 0.712899 0.505988 0.113063
O O1 0.500000 0.813436 0.804118
O O2 0.640405 0.717209 0.737271
O O3 0.646822 0.823496 0.909158
O O4 0.645455 0.916006 0.744646
O O5 0.186493 0.539951 0.845384
O O6 0.131752 0.555318 0.670651
O O7 0.000000 0.590596 0.802602
O O8 0.500000 0.119325 0.988781
O O9 0.342014 0.181771 0.907297
O O10 0.354962 0.000000 0.000000
O O11 0.000000 0.034992 0.144412
O O12 0.855125 0.928182 0.112764
O O13 0.861541 0.119847 0.061133
O O14 0.250000 0.768189 0.250000
O O15 0.174569 0.742431 0.077452
O O16 0.302806 0.622972 0.141295
O O17 0.000000 0.820676 0.046642
O O18 0.708974 0.500000 0.000000
#
# Coordination Sequence:
#
# PCOD9419354 Si02
#       7
#     8   8   8   8   8   8   8
#     4   9  18  37  66  94 119 161 215 261 319 380
#     4  10  22  43  67  95 128 168 219 271 327 392
#     4  10  24  44  66  96 134 170 214 270 322 384
#     4   8  16  34  59  91 124 157 204 251 301 379
#     4  12  26  43  60  94 127 166 219 260 319 397
#     4   9  20  37  59  88 127 169 203 248 312 381
#     4  11  25  46  66  95 131 165 219 281 329 390
#
# _framework density 21.654661999999998
#
# number of rings (size 3 to 8) (size 9 to 14) (size 15 to 20)
#    0.000    2.143    1.429    1.714    6.000    2.286 
#    0.000    0.000    0.000    0.000    0.000    0.000 
#    0.000    0.000    0.000    0.000    0.000    0.000 
#
# Total GULP energy -312771.065581 kJ/mol
# GULP energy per Si atom -5585.197600 kJ/mol
# Density = 2.160537 g / cm^3
# Si number density = 21.654662 Si / 1000 Ang^3
#
#
#
# Elastic Constant Matrix: (Units=GPa)
#
#
# Indices 1 2 3 4 5 6 
#
# 1 80.7060 2.1765 -17.6802 0.0000 0.0000 0.0000
# 2 2.1765 79.1912 13.1062 0.0000 0.0000 0.0000
# 3 -17.6802 13.1062 97.9297 0.0000 0.0000 0.0000
# 4 0.0000 0.0000 0.0000 26.4135 0.0000 0.0000
# 5 0.0000 0.0000 0.0000 0.0000 28.7224 0.0000
# 6 0.0000 0.0000 0.0000 0.0000 0.0000 12.4973
#
#
#
# Elastic Compliance Matrix: (Units=1/GPa)
#
#
# Indices 1 2 3 4 5 6 
#
# 1 0.012945 -0.000759 0.002439 0.000000 0.000000 0.000000
# 2 -0.000759 0.012958 -0.001871 0.000000 0.000000 0.000000
# 3 0.002439 -0.001871 0.010902 0.000000 0.000000 0.000000
# 4 0.000000 0.000000 0.000000 0.037859 0.000000 0.000000
# 5 0.000000 0.000000 0.000000 0.000000 0.034816 0.000000
# 6 0.000000 0.000000 0.000000 0.000000 0.000000 0.080018
#
#
# Mechanical properties :
#
#
# Convention : Reuss Voigt Hill
#
# Bulk Modulus (GPa) = 27.45603 28.11466 27.78535
# Shear Modulus (GPa) = 24.74962 30.87494 27.81228
#
# Velocity S-wave (km/s) = 3.38438 3.78006 3.58768
# Velocity P-wave (km/s) = 5.28948 5.66243 5.47913
#
# Compressibility (1/GPa) = 0.03642187
#
# Stress axis : x y z
#
# Youngs Moduli (GPa) = 77.24755 77.17094 91.72501
#
# Poissons Ratio (x) = 0.05860 -0.22370
# Poissons Ratio (y) = 0.05866 0.17165
# Poissons Ratio (z) = -0.18839 0.14441
#
# Static dielectric constant tensor:
#      x y z
#    x 1.815320 0.000000 0.000000 
#    y 0.000000 1.764450 0.000000 
#    z 0.000000 0.000000 1.890890 
# 
# From -- ./inp_files/22864.got.cif
#   From: 2010.05.17/outbox.cif.g08.bks.cpg/sg53_12_cif.got.tgz:22864.got - 2010.06.03 12:45:16.
