data_PCOD9419085
_publ_section_title
;
Structure prediction by ZEFSAII (Michael W. Deem and Ramdas Pophale) SiO2 
 PCOD9419085
Probable space group: P M N A
;
_chemical_formula_sum "Si O2"
_cell_formula_units_Z 48
_cell_length_a 17.443529
_cell_length_b 6.154312
_cell_length_c 21.994306
_cell_angle_alpha 90.000000
_cell_angle_beta 90.000000
_cell_angle_gamma 90.000000
_cell_volume 2361.152969
_symmetry_space_group_name_H-M "P M N A"
_symmetry_group_IT_number 53
_symmetry_cell_setting 'orthorhombic'
loop_
_space_group_symop_operation_xyz
x,y,z
1/2-x,-y,1/2+z
x,-y,-z
1/2-x,y,1/2-z
-x,-y,-z
1/2+x,y,1/2-z
-x,y,z
1/2+x,-y,1/2+z
loop_
_atom_site_type_symbol
_atom_site_label
_atom_site_fract_x
_atom_site_fract_y
_atom_site_fract_z
Si Si1 0.628833 0.020490 0.755212
Si Si2 0.000000 0.120645 0.645227
Si Si3 0.911886 0.266950 0.138330
Si Si4 0.325227 0.689518 0.843022
Si Si5 0.000000 0.379990 0.370641
Si Si6 0.275090 0.042448 0.429167
Si Si7 0.697998 0.342698 0.661910
O O1 0.570660 0.106555 0.806891
O O2 0.669502 0.208468 0.718946
O O3 0.593071 0.865735 0.702370
O O4 0.686194 0.873743 0.793306
O O5 0.000000 0.355733 0.610036
O O6 0.000000 0.886205 0.608104
O O7 0.855805 0.150462 0.090389
O O8 0.873621 0.502177 0.145937
O O9 0.000000 0.276580 0.119757
O O10 0.414818 0.628304 0.842123
O O11 0.292702 0.799267 0.904795
O O12 0.270647 0.493077 0.827388
O O13 0.268456 0.000000 0.500000
O O14 0.276943 0.818347 0.391924
#
# Coordination Sequence:
#
# PCOD9419085 Si02
#       7
#     8   4   8   8   4   8   8
#     4  10  22  37  59  94 136 172 207 267 329 413
#     4  10  22  38  60  92 141 175 210 260 329 400
#     4  10  22  39  61  96 131 172 219 264 331 412
#     4  10  24  42  61  96 127 171 221 273 343 411
#     4  10  24  42  63  95 133 178 217 270 339 412
#     4  10  24  46  65  88 125 170 228 291 342 394
#     4  10  24  38  63  90 129 171 215 274 336 402
#
# _framework density 20.329052000000001
#
# number of rings (size 3 to 8) (size 9 to 14) (size 15 to 20)
#    0.000    2.000    0.833    0.000   10.500   11.000 
#    0.000    1.250    0.000    1.000    0.000    0.000 
#    0.000    0.000    0.000    0.000    0.000    0.000 
#
# Total GULP energy -267472.915441 kJ/mol
# GULP energy per Si atom -5572.352405 kJ/mol
# Density = 2.028278 g / cm^3
# Si number density = 20.329052 Si / 1000 Ang^3
#
#
#
# Elastic Constant Matrix: (Units=GPa)
#
#
# Indices 1 2 3 4 5 6 
#
# 1 122.0633 34.3100 23.9438 0.0000 0.0000 0.0000
# 2 34.3100 147.4560 30.2154 0.0000 0.0000 0.0000
# 3 23.9438 30.2154 49.2660 0.0000 0.0000 0.0000
# 4 0.0000 0.0000 0.0000 6.6976 0.0000 0.0000
# 5 0.0000 0.0000 0.0000 0.0000 8.8564 0.0000
# 6 0.0000 0.0000 0.0000 0.0000 0.0000 7.6121
#
#
#
# Elastic Compliance Matrix: (Units=1/GPa)
#
#
# Indices 1 2 3 4 5 6 
#
# 1 0.009308 -0.001417 -0.003655 0.000000 0.000000 0.000000
# 2 -0.001417 0.007972 -0.004201 0.000000 0.000000 0.000000
# 3 -0.003655 -0.004201 0.024651 0.000000 0.000000 0.000000
# 4 0.000000 0.000000 0.000000 0.149307 0.000000 0.000000
# 5 0.000000 0.000000 0.000000 0.000000 0.112913 0.000000
# 6 0.000000 0.000000 0.000000 0.000000 0.000000 0.131369
#
#
# Mechanical properties :
#
#
# Convention : Reuss Voigt Hill
#
# Bulk Modulus (GPa) = 42.76101 55.08040 48.92070
# Shear Modulus (GPa) = 10.82579 19.98762 15.40670
#
# Velocity S-wave (km/s) = 2.31016 3.13901 2.75592
# Velocity P-wave (km/s) = 5.30998 6.34753 5.85179
#
# Compressibility (1/GPa) = 0.02338579
#
# Stress axis : x y z
#
# Youngs Moduli (GPa) = 107.43902 125.43680 40.56697
#
# Poissons Ratio (x) = 0.17772 0.14826
# Poissons Ratio (y) = 0.15222 0.17041
# Poissons Ratio (z) = 0.39265 0.52694
#
# Static dielectric constant tensor:
#      x y z
#    x 1.745720 0.000000 0.000000 
#    y 0.000000 1.814170 0.000000 
#    z 0.000000 0.000000 1.699260 
# 
# From -- ./inp_files/35500.got.cif
#   From: 2010.05.17/outbox.cif.g08.bks.cpg/sg53_18_cif.got.tgz:35500.got - 2010.06.03 12:45:16.
