data_PCOD9419427
_publ_section_title
;
Structure prediction by ZEFSAII (Michael W. Deem and Ramdas Pophale) SiO2 
 PCOD9419427
Probable space group: P M N A
;
_chemical_formula_sum "Si O2"
_cell_formula_units_Z 48
_cell_length_a 13.736504
_cell_length_b 12.077664
_cell_length_c 15.046031
_cell_angle_alpha 90.000000
_cell_angle_beta 90.000000
_cell_angle_gamma 90.000000
_cell_volume 2496.209965
_symmetry_space_group_name_H-M "P M N A"
_symmetry_group_IT_number 53
_symmetry_cell_setting 'orthorhombic'
loop_
_space_group_symop_operation_xyz
x,y,z
1/2-x,-y,1/2+z
x,-y,-z
1/2-x,y,1/2-z
-x,-y,-z
1/2+x,y,1/2-z
-x,y,z
1/2+x,-y,1/2+z
loop_
_atom_site_type_symbol
_atom_site_label
_atom_site_fract_x
_atom_site_fract_y
_atom_site_fract_z
Si Si1 0.750983 0.192756 0.550879
Si Si2 0.882094 0.771588 0.689484
Si Si3 0.385238 0.628128 0.976415
Si Si4 0.884091 0.155065 0.117367
Si Si5 0.614408 0.988608 0.119711
Si Si6 0.388723 0.096960 0.681163
O O1 0.818221 0.299010 0.540169
O O2 0.676515 0.186580 0.468744
O O3 0.824032 0.088463 0.555293
O O4 0.685514 0.182184 0.638644
O O5 0.859805 0.669140 0.624364
O O6 0.851048 0.780532 0.792639
O O7 0.000000 0.778084 0.694952
O O8 0.852314 0.885943 0.640358
O O9 0.500000 0.654844 0.988538
O O10 0.372088 0.500000 0.000000
O O11 0.000000 0.174147 0.104540
O O12 0.872810 0.023646 0.135869
O O13 0.500000 0.991421 0.097056
O O14 0.622646 0.926959 0.215066
O O15 0.500000 0.129688 0.663716
#
# Coordination Sequence:
#
# PCOD9419427 Si02
#       6
#     8   8   8   8   8   8
#     4  12  21  30  57  89 113 147 193 245 285 346
#     4   8  17  36  57  78 114 156 189 232 293 348
#     4  10  23  41  58  78 110 153 198 245 294 342
#     4   9  19  34  54  85 121 154 186 228 291 357
#     4   9  19  34  53  84 122 154 187 231 291 357
#     4   9  19  35  52  79 124 163 186 222 286 358
#
# _framework density 19.229151999999999
#
# number of rings (size 3 to 8) (size 9 to 14) (size 15 to 20)
#    0.000    2.500    0.000    4.000    4.667    2.000 
#    0.000    2.500    7.333    2.000    0.000    0.000 
#    0.000    0.000    0.000    0.000    0.000    0.000 
#
# Total GULP energy -268156.940542 kJ/mol
# GULP energy per Si atom -5586.602928 kJ/mol
# Density = 1.918539 g / cm^3
# Si number density = 19.229152 Si / 1000 Ang^3
#
#
#
# Elastic Constant Matrix: (Units=GPa)
#
#
# Indices 1 2 3 4 5 6 
#
# 1 90.1319 54.1952 39.6397 0.0000 0.0000 0.0000
# 2 54.1952 85.1102 51.3994 0.0000 0.0000 0.0000
# 3 39.6397 51.3994 103.5122 0.0000 0.0000 0.0000
# 4 0.0000 0.0000 0.0000 19.5867 0.0000 0.0000
# 5 0.0000 0.0000 0.0000 0.0000 35.1009 0.0000
# 6 0.0000 0.0000 0.0000 0.0000 0.0000 17.0194
#
#
#
# Elastic Compliance Matrix: (Units=1/GPa)
#
#
# Indices 1 2 3 4 5 6 
#
# 1 0.018194 -0.010538 -0.001735 0.000000 0.000000 0.000000
# 2 -0.010538 0.022885 -0.007328 0.000000 0.000000 0.000000
# 3 -0.001735 -0.007328 0.013964 0.000000 0.000000 0.000000
# 4 0.000000 0.000000 0.000000 0.051055 0.000000 0.000000
# 5 0.000000 0.000000 0.000000 0.000000 0.028489 0.000000
# 6 0.000000 0.000000 0.000000 0.000000 0.000000 0.058756
#
#
# Mechanical properties :
#
#
# Convention : Reuss Voigt Hill
#
# Bulk Modulus (GPa) = 63.12537 63.24699 63.18618
# Shear Modulus (GPa) = 21.02378 23.24273 22.13325
#
# Velocity S-wave (km/s) = 3.31014 3.48044 3.39636
# Velocity P-wave (km/s) = 6.89265 7.00813 6.95063
#
# Compressibility (1/GPa) = 0.01584149
#
# Stress axis : x y z
#
# Youngs Moduli (GPa) = 54.96342 43.69650 71.61278
#
# Poissons Ratio (x) = 0.46045 0.12424
# Poissons Ratio (y) = 0.57918 0.52481
# Poissons Ratio (z) = 0.09535 0.32022
#
# Static dielectric constant tensor:
#      x y z
#    x 1.742210 0.000000 0.000000 
#    y 0.000000 1.614150 0.000000 
#    z 0.000000 0.000000 1.745020 
# 
# From -- ./inp_files/22692.got.cif
#   From: 2010.05.17/outbox.cif.g08.bks.cpg/sg53_12_cif.got.tgz:22692.got - 2010.06.03 12:45:16.
