data_PCOD9419791
_publ_section_title
;
Structure prediction by ZEFSAII (Michael W. Deem and Ramdas Pophale) SiO2 
 PCOD9419791
Probable space group: P M N A
;
_chemical_formula_sum "Si O2"
_cell_formula_units_Z 44
_cell_length_a 24.311295
_cell_length_b 9.822262
_cell_length_c 9.218886
_cell_angle_alpha 90.000000
_cell_angle_beta 90.000000
_cell_angle_gamma 90.000000
_cell_volume 2201.395387
_symmetry_space_group_name_H-M "P M N A"
_symmetry_group_IT_number 53
_symmetry_cell_setting 'orthorhombic'
loop_
_space_group_symop_operation_xyz
x,y,z
1/2-x,-y,1/2+z
x,-y,-z
1/2-x,y,1/2-z
-x,-y,-z
1/2+x,y,1/2-z
-x,y,z
1/2+x,-y,1/2+z
loop_
_atom_site_type_symbol
_atom_site_label
_atom_site_fract_x
_atom_site_fract_y
_atom_site_fract_z
Si Si1 0.360670 0.348133 0.479774
Si Si2 0.933149 0.297469 0.738001
Si Si3 0.580956 0.500000 0.000000
Si Si4 0.442086 0.719179 0.769194
Si Si5 0.888870 0.001521 0.665623
Si Si6 0.707259 0.099957 0.376051
O O1 0.338280 0.500000 0.500000
O O2 0.405183 0.318854 0.605667
O O3 0.394182 0.336070 0.330956
O O4 0.315400 0.231274 0.461554
O O5 0.899600 0.399413 0.630126
O O6 0.920558 0.142257 0.693230
O O7 0.000000 0.324485 0.734917
O O8 0.554353 0.618340 0.903907
O O9 0.500000 0.717299 0.688067
O O10 0.428594 0.871279 0.818905
O O11 0.867187 0.000000 0.500000
O O12 0.842440 0.975461 0.788509
O O13 0.750000 0.137259 0.250000
O O14 0.729719 0.000000 0.500000
#
# Coordination Sequence:
#
# PCOD9419791 Si02
#       6
#     8   8   4   8   8   8
#     4  11  24  42  65  93 133 168 212 262 324 388
#     4  12  23  38  61  95 140 183 219 254 308 382
#     4  12  23  34  56  92 132 180 222 248 292 364
#     4  11  22  35  56  90 131 174 216 254 300 369
#     4  11  23  39  62  93 129 171 214 268 318 370
#     4  11  24  47  72  95 118 156 216 279 335 391
#
# _framework density 19.987323
#
# number of rings (size 3 to 8) (size 9 to 14) (size 15 to 20)
#    0.000    0.727    5.455    3.273    0.000    1.455 
#    0.000    3.636    8.000    0.000    0.000    0.000 
#    0.000    0.000    0.000    0.000    0.000    0.000 
#
# Total GULP energy -245070.952766 kJ/mol
# GULP energy per Si atom -5569.794381 kJ/mol
# Density = 1.994183 g / cm^3
# Si number density = 19.987323 Si / 1000 Ang^3
#
#
#
# Elastic Constant Matrix: (Units=GPa)
#
#
# Indices 1 2 3 4 5 6 
#
# 1 45.7946 25.2920 6.9653 0.0000 0.0000 0.0000
# 2 25.2920 160.3512 42.0118 0.0000 0.0000 0.0000
# 3 6.9653 42.0118 97.1971 0.0000 0.0000 0.0000
# 4 0.0000 0.0000 0.0000 38.0557 0.0000 0.0000
# 5 0.0000 0.0000 0.0000 0.0000 21.8842 0.0000
# 6 0.0000 0.0000 0.0000 0.0000 0.0000 14.6515
#
#
#
# Elastic Compliance Matrix: (Units=1/GPa)
#
#
# Indices 1 2 3 4 5 6 
#
# 1 0.023921 -0.003748 -0.000094 0.000000 0.000000 0.000000
# 2 -0.003748 0.007620 -0.003025 0.000000 0.000000 0.000000
# 3 -0.000094 -0.003025 0.011603 0.000000 0.000000 0.000000
# 4 0.000000 0.000000 0.000000 0.026277 0.000000 0.000000
# 5 0.000000 0.000000 0.000000 0.000000 0.045695 0.000000
# 6 0.000000 0.000000 0.000000 0.000000 0.000000 0.068252
#
#
# Mechanical properties :
#
#
# Convention : Reuss Voigt Hill
#
# Bulk Modulus (GPa) = 34.00329 50.20898 42.10613
# Shear Modulus (GPa) = 24.16550 30.18988 27.17769
#
# Velocity S-wave (km/s) = 3.48090 3.89067 3.69147
# Velocity P-wave (km/s) = 5.76237 6.73484 6.26749
#
# Compressibility (1/GPa) = 0.02940892
#
# Stress axis : x y z
#
# Youngs Moduli (GPa) = 41.80396 131.23186 86.18734
#
# Poissons Ratio (x) = 0.49191 0.00811
# Poissons Ratio (y) = 0.15670 0.26072
# Poissons Ratio (z) = 0.00393 0.39698
#
# Static dielectric constant tensor:
#      x y z
#    x 1.713260 0.000000 0.000000 
#    y 0.000000 1.701810 0.000000 
#    z 0.000000 0.000000 1.707900 
# 
# From -- ./inp_files/12893.got.cif
#   From: 2010.05.17/outbox.cif.g08.bks.cpg/sg53_7_cif.got.tgz:12893.got - 2010.06.03 12:45:16.
