data_PCOD9419094
_publ_section_title
;
Structure prediction by ZEFSAII (Michael W. Deem and Ramdas Pophale) SiO2 
 PCOD9419094
Probable space group: P M N A
;
_chemical_formula_sum "Si O2"
_cell_formula_units_Z 32
_cell_length_a 10.858507
_cell_length_b 9.742753
_cell_length_c 14.328772
_cell_angle_alpha 90.000000
_cell_angle_beta 90.000000
_cell_angle_gamma 90.000000
_cell_volume 1515.865889
_symmetry_space_group_name_H-M "P M N A"
_symmetry_group_IT_number 53
_symmetry_cell_setting 'orthorhombic'
loop_
_space_group_symop_operation_xyz
x,y,z
1/2-x,-y,1/2+z
x,-y,-z
1/2-x,y,1/2-z
-x,-y,-z
1/2+x,y,1/2-z
-x,y,z
1/2+x,-y,1/2+z
loop_
_atom_site_type_symbol
_atom_site_label
_atom_site_fract_x
_atom_site_fract_y
_atom_site_fract_z
Si Si1 0.000000 0.750394 0.756322
Si Si2 0.500000 0.472369 0.112574
Si Si3 0.750000 0.073238 0.250000
Si Si4 0.141389 0.102676 0.586082
Si Si5 0.000000 0.516984 0.113159
Si Si6 0.741079 0.601311 0.088899
O O1 0.126563 0.836011 0.766107
O O2 0.000000 0.681293 0.652459
O O3 0.000000 0.627353 0.832051
O O4 0.626158 0.541251 0.146622
O O5 0.500000 0.500000 0.000000
O O6 0.781299 0.974141 0.335511
O O7 0.203059 0.246586 0.559836
O O8 0.000000 0.127976 0.616939
O O9 0.137176 0.000000 0.500000
O O10 0.873915 0.595689 0.135784
O O11 0.000000 0.500000 0.000000
O O12 0.749673 0.500000 0.000000
#
# Coordination Sequence:
#
# PCOD9419094 Si02
#       6
#     4   4   4   8   4   8
#     4  12  26  44  72 106 146 194 238 306 374 440
#     4  10  22  37  72 102 133 177 247 299 354 425
#     4  12  28  46  72 106 150 192 248 296 382 446
#     4  11  26  46  76 106 147 194 247 304 366 448
#     4  10  24  41  66 102 147 179 235 297 370 431
#     4  10  22  42  71 100 138 178 239 295 361 419
#
# _framework density 21.110047999999999
#
# number of rings (size 3 to 8) (size 9 to 14) (size 15 to 20)
#    0.000    1.250    2.500    1.500   14.000    3.000 
#    0.000    1.250    0.000    0.000    0.000    0.000 
#    0.000    0.000    0.000    0.000    0.000    0.000 
#
# Total GULP energy -178710.915750 kJ/mol
# GULP energy per Si atom -5584.716117 kJ/mol
# Density = 2.106200 g / cm^3
# Si number density = 21.110048 Si / 1000 Ang^3
#
#
#
# Elastic Constant Matrix: (Units=GPa)
#
#
# Indices 1 2 3 4 5 6 
#
# 1 228.3480 81.5657 24.8894 0.0000 0.0000 0.0000
# 2 81.5657 167.5683 38.2956 0.0000 0.0000 0.0000
# 3 24.8894 38.2956 100.0220 0.0000 0.0000 0.0000
# 4 0.0000 0.0000 0.0000 44.5404 0.0000 0.0000
# 5 0.0000 0.0000 0.0000 0.0000 -4.2961 0.0000
# 6 0.0000 0.0000 0.0000 0.0000 0.0000 39.9990
#
#
#
# Elastic Compliance Matrix: (Units=1/GPa)
#
#
# Indices 1 2 3 4 5 6 
#
# 1 0.005313 -0.002503 -0.000364 0.000000 0.000000 0.000000
# 2 -0.002503 0.007719 -0.002333 0.000000 0.000000 0.000000
# 3 -0.000364 -0.002333 0.010981 0.000000 0.000000 0.000000
# 4 0.000000 0.000000 0.000000 0.022452 0.000000 0.000000
# 5 0.000000 0.000000 0.000000 0.000000 -0.232768 0.000000
# 6 0.000000 0.000000 0.000000 0.000000 0.000000 0.025001
#
#
# Mechanical properties :
#
#
# Convention : Reuss Voigt Hill
#
# Bulk Modulus (GPa) = 73.44933 87.27109 80.36021
# Shear Modulus (GPa) = -34.16118 39.46115 2.64999
#
# Velocity S-wave (km/s) = -4.02710 4.32824 1.12163
# Velocity P-wave (km/s) = 3.63946 8.14917 6.31089
#
# Compressibility (1/GPa) = 0.01361483
#
# Stress axis : x y z
#
# Youngs Moduli (GPa) = 188.21716 129.54736 91.06299
#
# Poissons Ratio (x) = 0.32426 0.03312
# Poissons Ratio (y) = 0.47111 0.21241
# Poissons Ratio (z) = 0.06846 0.30218
#
# Static dielectric constant tensor:
#      x y z
#    x 1.826200 0.000000 0.000000 
#    y 0.000000 1.740870 0.000000 
#    z 0.000000 0.000000 1.743670 
# 
# From -- ./inp_files/21406.got.cif
#   From: 2010.05.17/outbox.cif.g08.bks.cpg/sg53_11_cif.got.tgz:21406.got - 2010.06.03 12:45:16.
