data_PCOD9419537
_publ_section_title
;
Structure prediction by ZEFSAII (Michael W. Deem and Ramdas Pophale) SiO2 
 PCOD9419537
Probable space group: P M N A
;
_chemical_formula_sum "Si O2"
_cell_formula_units_Z 28
_cell_length_a 27.157560
_cell_length_b 5.119464
_cell_length_c 8.863524
_cell_angle_alpha 90.000000
_cell_angle_beta 90.000000
_cell_angle_gamma 90.000000
_cell_volume 1232.314805
_symmetry_space_group_name_H-M "P M N A"
_symmetry_group_IT_number 53
_symmetry_cell_setting 'orthorhombic'
loop_
_space_group_symop_operation_xyz
x,y,z
1/2-x,-y,1/2+z
x,-y,-z
1/2-x,y,1/2-z
-x,-y,-z
1/2+x,y,1/2-z
-x,y,z
1/2+x,-y,1/2+z
loop_
_atom_site_type_symbol
_atom_site_label
_atom_site_fract_x
_atom_site_fract_y
_atom_site_fract_z
Si Si1 0.296378 0.579472 0.827338
Si Si2 0.151768 0.246569 0.897171
Si Si3 0.102641 0.094508 0.327390
Si Si4 0.000000 0.746275 0.608802
O O1 0.250000 0.719134 0.750000
O O2 0.306180 0.331700 0.719503
O O3 0.347732 0.735218 0.817070
O O4 0.287447 0.500000 0.000000
O O5 0.108009 0.141301 0.790639
O O6 0.140912 0.500000 0.000000
O O7 0.165635 0.000000 0.000000
O O8 0.051315 0.242712 0.301518
O O9 0.102446 0.000000 0.500000
O O10 0.000000 0.500000 0.500000
O O11 0.000000 0.000000 0.500000
#
# Coordination Sequence:
#
# PCOD9419537 Si02
#       4
#     8   8   8   4
#     4  12  26  47  76 112 149 200 251 311 372 450
#     4  12  26  47  73 106 154 195 243 308 375 447
#     4  11  24  48  79 111 151 196 257 314 376 449
#     4  10  24  42  80 115 148 193 256 319 374 445
#
# _framework density 22.721467000000001
#
# number of rings (size 3 to 8) (size 9 to 14) (size 15 to 20)
#    0.000    0.571    5.714    1.714    4.000    1.143 
#    5.143    1.429    0.000    0.000    0.000    0.000 
#    0.000    0.000    0.000    0.000    0.000    0.000 
#
# Total GULP energy -156547.380407 kJ/mol
# GULP energy per Si atom -5590.977872 kJ/mol
# Density = 2.266975 g / cm^3
# Si number density = 22.721467 Si / 1000 Ang^3
#
#
#
# Elastic Constant Matrix: (Units=GPa)
#
#
# Indices 1 2 3 4 5 6 
#
# 1 212.3670 56.8543 58.4122 0.0000 0.0000 0.0000
# 2 56.8543 140.5080 67.1694 0.0000 0.0000 0.0000
# 3 58.4122 67.1694 178.7739 0.0000 0.0000 0.0000
# 4 0.0000 0.0000 0.0000 39.7589 0.0000 0.0000
# 5 0.0000 0.0000 0.0000 0.0000 24.6100 0.0000
# 6 0.0000 0.0000 0.0000 0.0000 0.0000 41.5792
#
#
#
# Elastic Compliance Matrix: (Units=1/GPa)
#
#
# Indices 1 2 3 4 5 6 
#
# 1 0.005473 -0.001657 -0.001166 0.000000 0.000000 0.000000
# 2 -0.001657 0.009177 -0.002907 0.000000 0.000000 0.000000
# 3 -0.001166 -0.002907 0.007067 0.000000 0.000000 0.000000
# 4 0.000000 0.000000 0.000000 0.025152 0.000000 0.000000
# 5 0.000000 0.000000 0.000000 0.000000 0.040634 0.000000
# 6 0.000000 0.000000 0.000000 0.000000 0.000000 0.024050
#
#
# Mechanical properties :
#
#
# Convention : Reuss Voigt Hill
#
# Bulk Modulus (GPa) = 97.48658 99.61340 98.54999
# Shear Modulus (GPa) = 39.54722 44.47047 42.00884
#
# Velocity S-wave (km/s) = 4.17648 4.42883 4.30450
# Velocity P-wave (km/s) = 8.13975 8.37191 8.25665
#
# Compressibility (1/GPa) = 0.01025782
#
# Stress axis : x y z
#
# Youngs Moduli (GPa) = 182.71052 108.96652 141.51222
#
# Poissons Ratio (x) = 0.18060 0.16494
# Poissons Ratio (y) = 0.30283 0.41131
# Poissons Ratio (z) = 0.21296 0.31671
#
# Static dielectric constant tensor:
#      x y z
#    x 1.917760 0.000000 0.000000 
#    y 0.000000 1.929050 0.000000 
#    z 0.000000 0.000000 1.862330 
# 
# From -- ./inp_files/12083.got.cif
#   From: 2010.05.17/outbox.cif.g08.bks.cpg/sg53_7_cif.got.tgz:12083.got - 2010.06.03 12:45:16.
