data_PCOD9419681
_publ_section_title
;
Structure prediction by ZEFSAII (Michael W. Deem and Ramdas Pophale) SiO2 
 PCOD9419681
Probable space group: P M N A
;
_chemical_formula_sum "Si O2"
_cell_formula_units_Z 64
_cell_length_a 25.531601
_cell_length_b 9.330688
_cell_length_c 16.269028
_cell_angle_alpha 90.000000
_cell_angle_beta 90.000000
_cell_angle_gamma 90.000000
_cell_volume 3875.728291
_symmetry_space_group_name_H-M "P M N A"
_symmetry_group_IT_number 53
_symmetry_cell_setting 'orthorhombic'
loop_
_space_group_symop_operation_xyz
x,y,z
1/2-x,-y,1/2+z
x,-y,-z
1/2-x,y,1/2-z
-x,-y,-z
1/2+x,y,1/2-z
-x,y,z
1/2+x,-y,1/2+z
loop_
_atom_site_type_symbol
_atom_site_label
_atom_site_fract_x
_atom_site_fract_y
_atom_site_fract_z
Si Si1 0.287132 0.365095 0.449244
Si Si2 0.795986 0.576678 0.682235
Si Si3 0.141333 0.752379 0.798284
Si Si4 0.561774 0.585751 0.617753
Si Si5 0.357241 0.073797 0.653809
Si Si6 0.807909 0.739653 0.291927
Si Si7 0.749069 0.114171 0.934735
Si Si8 0.436968 0.270204 0.557069
O O1 0.309608 0.500000 0.500000
O O2 0.233221 0.409216 0.404080
O O3 0.323336 0.304317 0.375912
O O4 0.273430 0.246890 0.515974
O O5 0.750000 0.570041 0.750000
O O6 0.829614 0.711015 0.713899
O O7 0.824020 0.422932 0.688228
O O8 0.090487 0.654572 0.806020
O O9 0.128375 0.917821 0.811943
O O10 0.500000 0.584665 0.626675
O O11 0.572545 0.687434 0.538178
O O12 0.576850 0.420770 0.601724
O O13 0.346249 0.183360 0.728406
O O14 0.300025 0.051852 0.612139
O O15 0.399702 0.145146 0.592238
O O16 0.750000 0.732671 0.250000
O O17 0.795251 0.832213 0.372610
O O18 0.729100 0.000000 0.000000
O O19 0.500000 0.241985 0.566653
#
# Coordination Sequence:
#
# PCOD9419681 Si02
#       8
#     8   8   8   8   8   8   8   8
#     4  11  21  32  49  70  92 126 168 201 231 279
#     4   9  19  33  47  66  90 125 164 200 234 273
#     4  11  22  31  48  70  97 128 161 199 239 285
#     4   9  19  34  51  71  93 124 164 204 236 274
#     4  11  22  32  46  70  99 130 159 192 246 290
#     4   9  19  33  47  64  93 128 159 197 236 281
#     4  11  21  32  47  70  98 127 161 199 239 284
#     4   9  19  34  52  70  94 125 162 202 238 281
#
# _framework density 16.513024999999999
#
# number of rings (size 3 to 8) (size 9 to 14) (size 15 to 20)
#    0.000    2.000    2.500    2.250    7.000    2.000 
#    0.000    1.250    0.000    0.000    0.000    0.000 
#    0.000    2.000    0.000    0.125    0.000    0.000 
#
# Total GULP energy -356757.723420 kJ/mol
# GULP energy per Si atom -5574.339428 kJ/mol
# Density = 1.647544 g / cm^3
# Si number density = 16.513025 Si / 1000 Ang^3
#
#
#
# Elastic Constant Matrix: (Units=GPa)
#
#
# Indices 1 2 3 4 5 6 
#
# 1 35.7108 19.3339 9.0790 0.0000 0.0000 0.0000
# 2 19.3339 61.6530 1.4908 0.0000 0.0000 0.0000
# 3 9.0790 1.4908 28.6588 0.0000 0.0000 0.0000
# 4 0.0000 0.0000 0.0000 16.5911 0.0000 0.0000
# 5 0.0000 0.0000 0.0000 0.0000 20.0820 0.0000
# 6 0.0000 0.0000 0.0000 0.0000 0.0000 -3.8343
#
#
#
# Elastic Compliance Matrix: (Units=1/GPa)
#
#
# Indices 1 2 3 4 5 6 
#
# 1 0.036959 -0.011321 -0.011120 0.000000 0.000000 0.000000
# 2 -0.011321 0.019708 0.002561 0.000000 0.000000 0.000000
# 3 -0.011120 0.002561 0.038283 0.000000 0.000000 0.000000
# 4 0.000000 0.000000 0.000000 0.060273 0.000000 0.000000
# 5 0.000000 0.000000 0.000000 0.000000 0.049796 0.000000
# 6 0.000000 0.000000 0.000000 0.000000 0.000000 -0.260804
#
#
# Mechanical properties :
#
#
# Convention : Reuss Voigt Hill
#
# Bulk Modulus (GPa) = 18.11892 20.64778 19.38335
# Shear Modulus (GPa) = 2108.89812 12.97570 1060.93691
#
# Velocity S-wave (km/s) = 35.77547 2.80623 25.37478
# Velocity P-wave (km/s) = 41.44284 4.79906 29.50034
#
# Compressibility (1/GPa) = 0.05519094
#
# Stress axis : x y z
#
# Youngs Moduli (GPa) = 27.05697 50.74049 26.12151
#
# Poissons Ratio (x) = 0.57444 0.29046
# Poissons Ratio (y) = 0.30632 -0.06691
# Poissons Ratio (z) = 0.30086 -0.12996
#
# Static dielectric constant tensor:
#      x y z
#    x 1.567970 0.000000 0.000000 
#    y 0.000000 1.609580 0.000000 
#    z 0.000000 0.000000 1.470170 
# 
# From -- ./inp_files/29746.got.cif
#   From: 2010.05.17/outbox.cif.g08.bks.cpg/sg53_15_cif.got.tgz:29746.got - 2010.06.03 12:45:16.
