data_PCOD9419479
_publ_section_title
;
Structure prediction by ZEFSAII (Michael W. Deem and Ramdas Pophale) SiO2 
 PCOD9419479
Probable space group: P M N A
;
_chemical_formula_sum "Si O2"
_cell_formula_units_Z 20
_cell_length_a 32.937343
_cell_length_b 5.177447
_cell_length_c 5.046507
_cell_angle_alpha 90.000000
_cell_angle_beta 90.000000
_cell_angle_gamma 90.000000
_cell_volume 860.587640
_symmetry_space_group_name_H-M "P M N A"
_symmetry_group_IT_number 53
_symmetry_cell_setting 'orthorhombic'
loop_
_space_group_symop_operation_xyz
x,y,z
1/2-x,-y,1/2+z
x,-y,-z
1/2-x,y,1/2-z
-x,-y,-z
1/2+x,y,1/2-z
-x,y,z
1/2+x,-y,1/2+z
loop_
_atom_site_type_symbol
_atom_site_label
_atom_site_fract_x
_atom_site_fract_y
_atom_site_fract_z
Si Si1 0.721645 0.000000 0.000000
Si Si2 0.889013 0.500000 0.000000
Si Si3 0.667129 0.500000 0.000000
Si Si4 0.545552 0.754063 0.814411
O O1 0.694343 0.250086 0.061505
O O2 0.750000 0.939593 0.250000
O O3 0.860827 0.566424 0.248386
O O4 0.919682 0.278809 0.098366
O O5 0.500000 0.763298 0.698470
O O6 0.547693 0.500000 0.000000
O O7 0.551321 0.000000 0.000000
#
# Coordination Sequence:
#
# PCOD9419479 Si02
#       4
#     4   4   4   8
#     4  12  26  52  76 104 141 182 231 284 358 458
#     4  12  25  47  68 110 151 182 243 306 364 417
#     4  12  28  43  77 110 139 186 229 296 369 429
#     4  10  23  43  68  98 141 201 250 293 354 420
#
# _framework density 23.239932
#
# number of rings (size 3 to 8) (size 9 to 14) (size 15 to 20)
#    0.000    0.800    2.000    4.200    2.800    4.800 
#    0.000    6.000    0.000    0.000    0.000    0.000 
#    0.000    0.000    0.000    0.000    0.000    0.000 
#
# Total GULP energy -112167.628312 kJ/mol
# GULP energy per Si atom -5608.381416 kJ/mol
# Density = 2.318704 g / cm^3
# Si number density = 23.239932 Si / 1000 Ang^3
#
#
#
# Elastic Constant Matrix: (Units=GPa)
#
#
# Indices 1 2 3 4 5 6 
#
# 1 149.3563 45.3277 59.3693 0.0000 0.0000 0.0000
# 2 45.3277 163.6125 15.5838 0.0000 0.0000 0.0000
# 3 59.3693 15.5838 119.7180 0.0000 0.0000 0.0000
# 4 0.0000 0.0000 0.0000 33.6310 0.0000 0.0000
# 5 0.0000 0.0000 0.0000 0.0000 59.1184 0.0000
# 6 0.0000 0.0000 0.0000 0.0000 0.0000 772.4266
#
#
#
# Elastic Compliance Matrix: (Units=1/GPa)
#
#
# Indices 1 2 3 4 5 6 
#
# 1 0.008996 -0.002093 -0.004189 0.000000 0.000000 0.000000
# 2 -0.002093 0.006676 0.000169 0.000000 0.000000 0.000000
# 3 -0.004189 0.000169 0.010408 0.000000 0.000000 0.000000
# 4 0.000000 0.000000 0.000000 0.029734 0.000000 0.000000
# 5 0.000000 0.000000 0.000000 0.000000 0.016915 0.000000
# 6 0.000000 0.000000 0.000000 0.000000 0.000000 0.001295
#
#
# Mechanical properties :
#
#
# Convention : Reuss Voigt Hill
#
# Bulk Modulus (GPa) = 72.18073 74.80536 73.49304
# Shear Modulus (GPa) = 55.02535 193.86227 124.44381
#
# Velocity S-wave (km/s) = 4.87119 9.14324 7.32555
# Velocity P-wave (km/s) = 7.92239 11.98846 10.16090
#
# Compressibility (1/GPa) = 0.01385411
#
# Stress axis : x y z
#
# Youngs Moduli (GPa) = 111.16541 149.79453 96.07914
#
# Poissons Ratio (x) = 0.31355 0.40243
# Poissons Ratio (y) = 0.23269 -0.01624
# Poissons Ratio (z) = 0.46562 -0.02532
#
# Static dielectric constant tensor:
#      x y z
#    x 1.857560 0.000000 0.000000 
#    y 0.000000 1.872550 0.000000 
#    z 0.000000 0.000000 1.878350 
# 
# From -- ./inp_files/4822.got.cif
#   From: 2010.05.17/outbox.cif.g08.bks.cpg/sg53_3_cif.got.tgz:4822.got - 2010.06.03 12:45:16.
