data_PCOD9419018
_publ_section_title
;
Structure prediction by ZEFSAII (Michael W. Deem and Ramdas Pophale) SiO2 
 PCOD9419018
Probable space group: P M N A
;
_chemical_formula_sum "Si O2"
_cell_formula_units_Z 36
_cell_length_a 13.780821
_cell_length_b 8.405433
_cell_length_c 14.989047
_cell_angle_alpha 90.000000
_cell_angle_beta 90.000000
_cell_angle_gamma 90.000000
_cell_volume 1736.237787
_symmetry_space_group_name_H-M "P M N A"
_symmetry_group_IT_number 53
_symmetry_cell_setting 'orthorhombic'
loop_
_space_group_symop_operation_xyz
x,y,z
1/2-x,-y,1/2+z
x,-y,-z
1/2-x,y,1/2-z
-x,-y,-z
1/2+x,y,1/2-z
-x,y,z
1/2+x,-y,1/2+z
loop_
_atom_site_type_symbol
_atom_site_label
_atom_site_fract_x
_atom_site_fract_y
_atom_site_fract_z
Si Si1 0.250000 0.393478 0.750000
Si Si2 0.110076 0.816253 0.372440
Si Si3 0.646300 0.151436 0.210091
Si Si4 0.390782 0.379200 0.366100
Si Si5 0.793307 0.675178 0.536462
O O1 0.324164 0.288236 0.806815
O O2 0.180332 0.495289 0.815863
O O3 0.165005 0.801237 0.466544
O O4 0.000000 0.754446 0.380951
O O5 0.104784 0.994185 0.334270
O O6 0.750000 0.103078 0.250000
O O7 0.599434 0.236789 0.294569
O O8 0.660408 0.281679 0.131996
O O9 0.500000 0.434879 0.387718
O O10 0.323299 0.322264 0.448408
O O11 0.819368 0.500000 0.500000
#
# Coordination Sequence:
#
# PCOD9419018 Si02
#       5
#     4   8   8   8   8
#     4  12  22  44  64  98 126 164 216 274 310 384
#     4  12  25  41  66  95 128 169 212 266 326 377
#     4  10  21  42  69  92 130 167 211 270 313 380
#     4  11  22  42  69  94 125 174 215 258 323 377
#     4  11  22  41  63  98 131 164 210 265 314 377
#
# _framework density 20.734487999999999
#
# number of rings (size 3 to 8) (size 9 to 14) (size 15 to 20)
#    0.000    0.889    6.667    2.000    0.000    3.556 
#    0.000    0.000    0.000    2.667    0.000    0.000 
#    0.000    0.000    0.000    0.000    0.000    0.000 
#
# Total GULP energy -200908.339250 kJ/mol
# GULP energy per Si atom -5580.787201 kJ/mol
# Density = 2.068729 g / cm^3
# Si number density = 20.734488 Si / 1000 Ang^3
#
#
#
# Elastic Constant Matrix: (Units=GPa)
#
#
# Indices 1 2 3 4 5 6 
#
# 1 183.4744 42.1427 47.0722 0.0000 0.0000 0.0000
# 2 42.1427 93.1085 28.9594 0.0000 0.0000 0.0000
# 3 47.0722 28.9594 91.8993 0.0000 0.0000 0.0000
# 4 0.0000 0.0000 0.0000 39.0944 0.0000 0.0000
# 5 0.0000 0.0000 0.0000 0.0000 -2.8078 0.0000
# 6 0.0000 0.0000 0.0000 0.0000 0.0000 4.6847
#
#
#
# Elastic Compliance Matrix: (Units=1/GPa)
#
#
# Indices 1 2 3 4 5 6 
#
# 1 0.006645 -0.002161 -0.002723 0.000000 0.000000 0.000000
# 2 -0.002161 0.012610 -0.002867 0.000000 0.000000 0.000000
# 3 -0.002723 -0.002867 0.013180 0.000000 0.000000 0.000000
# 4 0.000000 0.000000 0.000000 0.025579 0.000000 0.000000
# 5 0.000000 0.000000 0.000000 0.000000 -0.356145 0.000000
# 6 0.000000 0.000000 0.000000 0.000000 0.000000 0.213460
#
#
# Mechanical properties :
#
#
# Convention : Reuss Voigt Hill
#
# Bulk Modulus (GPa) = 59.05421 67.20343 63.12882
# Shear Modulus (GPa) = -78.70818 24.88145 -26.91336
#
# Velocity S-wave (km/s) = -6.16786 3.46786 -3.60669
# Velocity P-wave (km/s) = 4.70959 6.96538 3.62879
#
# Compressibility (1/GPa) = 0.01693359
#
# Stress axis : x y z
#
# Youngs Moduli (GPa) = 150.48296 79.30298 75.87509
#
# Poissons Ratio (x) = 0.17136 0.20660
# Poissons Ratio (y) = 0.32518 0.21752
# Poissons Ratio (z) = 0.40975 0.22735
#
# Static dielectric constant tensor:
#      x y z
#    x 1.781290 0.000000 0.000000 
#    y 0.000000 1.756130 0.000000 
#    z 0.000000 0.000000 1.770900 
# 
# From -- ./inp_files/22319.got.cif
#   From: 2010.05.17/outbox.cif.g08.bks.cpg/sg53_12_cif.got.tgz:22319.got - 2010.06.03 12:45:16.
