data_PCOD9419766
_publ_section_title
;
Structure prediction by ZEFSAII (Michael W. Deem and Ramdas Pophale) SiO2 
 PCOD9419766
Probable space group: P M N A
;
_chemical_formula_sum "Si O2"
_cell_formula_units_Z 32
_cell_length_a 13.066985
_cell_length_b 11.734263
_cell_length_c 9.497109
_cell_angle_alpha 90.000000
_cell_angle_beta 90.000000
_cell_angle_gamma 90.000000
_cell_volume 1456.205386
_symmetry_space_group_name_H-M "P M N A"
_symmetry_group_IT_number 53
_symmetry_cell_setting 'orthorhombic'
loop_
_space_group_symop_operation_xyz
x,y,z
1/2-x,-y,1/2+z
x,-y,-z
1/2-x,y,1/2-z
-x,-y,-z
1/2+x,y,1/2-z
-x,y,z
1/2+x,-y,1/2+z
loop_
_atom_site_type_symbol
_atom_site_label
_atom_site_fract_x
_atom_site_fract_y
_atom_site_fract_z
Si Si1 0.315969 0.076587 0.114162
Si Si2 0.115963 0.330130 0.395903
Si Si3 0.500000 0.191458 0.494950
Si Si4 0.156400 0.381099 0.064854
Si Si5 0.500000 0.005042 0.733173
O O1 0.250000 0.107174 0.250000
O O2 0.370142 0.194815 0.076461
O O3 0.402124 0.991006 0.168575
O O4 0.255904 0.000000 0.000000
O O5 0.129090 0.365131 0.230616
O O6 0.221562 0.376732 0.460875
O O7 0.000000 0.363021 0.439146
O O8 0.401435 0.272976 0.501070
O O9 0.500000 0.103252 0.620319
O O10 0.500000 0.116004 0.351648
O O11 0.119302 0.500000 0.000000
#
# Coordination Sequence:
#
# PCOD9419766 Si02
#       5
#     8   8   4   8   4
#     4  12  24  41  69 101 142 185 224 282 355 426
#     4  11  22  42  67  96 132 178 228 286 352 409
#     4  11  21  40  72 103 138 180 234 285 342 424
#     4  11  22  41  68  94 129 181 233 283 341 408
#     4  11  23  40  66 107 139 179 226 284 356 415
#
# _framework density 21.974923
#
# number of rings (size 3 to 8) (size 9 to 14) (size 15 to 20)
#    0.000    0.750    7.500    0.750    7.000    0.500 
#    0.000    5.000    0.000    0.000    0.000    0.000 
#    0.000    0.000    0.000    0.000    0.000    0.000 
#
# Total GULP energy -178638.359041 kJ/mol
# GULP energy per Si atom -5582.448720 kJ/mol
# Density = 2.192491 g / cm^3
# Si number density = 21.974923 Si / 1000 Ang^3
#
#
#
# Elastic Constant Matrix: (Units=GPa)
#
#
# Indices 1 2 3 4 5 6 
#
# 1 151.1418 29.3820 -4.7613 0.0000 0.0000 0.0000
# 2 29.3820 149.6886 48.4260 0.0000 0.0000 0.0000
# 3 -4.7613 48.4260 29.8018 0.0000 0.0000 0.0000
# 4 0.0000 0.0000 0.0000 31.9268 0.0000 0.0000
# 5 0.0000 0.0000 0.0000 0.0000 -8.8827 0.0000
# 6 0.0000 0.0000 0.0000 0.0000 0.0000 3.2987
#
#
#
# Elastic Compliance Matrix: (Units=1/GPa)
#
#
# Indices 1 2 3 4 5 6 
#
# 1 0.007635 -0.003992 0.007706 0.000000 0.000000 0.000000
# 2 -0.003992 0.016171 -0.026915 0.000000 0.000000 0.000000
# 3 0.007706 -0.026915 0.078521 0.000000 0.000000 0.000000
# 4 0.000000 0.000000 0.000000 0.031322 0.000000 0.000000
# 5 0.000000 0.000000 0.000000 0.000000 -0.112578 0.000000
# 6 0.000000 0.000000 0.000000 0.000000 0.000000 0.303146
#
#
# Mechanical properties :
#
#
# Convention : Reuss Voigt Hill
#
# Bulk Modulus (GPa) = 17.88071 52.96952 35.42511
# Shear Modulus (GPa) = 12.84484 22.44094 17.64289
#
# Velocity S-wave (km/s) = 2.42031 3.19910 2.83656
# Velocity P-wave (km/s) = 3.99563 6.14837 5.18496
#
# Compressibility (1/GPa) = 0.05592620
#
# Stress axis : x y z
#
# Youngs Moduli (GPa) = 130.97527 61.83756 12.73537
#
# Poissons Ratio (x) = 0.24683 -0.09814
# Poissons Ratio (y) = 0.52280 0.34277
# Poissons Ratio (z) = -1.00929 1.66437
#
# Static dielectric constant tensor:
#      x y z
#    x 1.858010 0.000000 0.000000 
#    y 0.000000 1.783850 0.000000 
#    z 0.000000 0.000000 1.900620 
# 
# From -- ./inp_files/14600.got.cif
#   From: 2010.05.17/outbox.cif.g08.bks.cpg/sg53_8_cif.got.tgz:14600.got - 2010.06.03 12:45:16.
