data_PCOD9419979
_publ_section_title
;
Structure prediction by ZEFSAII (Michael W. Deem and Ramdas Pophale) SiO2 
 PCOD9419979
Probable space group: P M N A
;
_chemical_formula_sum "Si O2"
_cell_formula_units_Z 32
_cell_length_a 21.014180
_cell_length_b 9.300143
_cell_length_c 8.623828
_cell_angle_alpha 90.000000
_cell_angle_beta 90.000000
_cell_angle_gamma 90.000000
_cell_volume 1685.396782
_symmetry_space_group_name_H-M "P M N A"
_symmetry_group_IT_number 53
_symmetry_cell_setting 'orthorhombic'
loop_
_space_group_symop_operation_xyz
x,y,z
1/2-x,-y,1/2+z
x,-y,-z
1/2-x,y,1/2-z
-x,-y,-z
1/2+x,y,1/2-z
-x,y,z
1/2+x,-y,1/2+z
loop_
_atom_site_type_symbol
_atom_site_label
_atom_site_fract_x
_atom_site_fract_y
_atom_site_fract_z
Si Si1 0.569674 0.871840 0.243484
Si Si2 0.203449 0.143982 0.897246
Si Si3 0.283596 0.633857 0.903129
Si Si4 0.884798 0.866748 0.584281
O O1 0.500000 0.839418 0.307747
O O2 0.632074 0.823700 0.335515
O O3 0.577306 0.045004 0.213801
O O4 0.574816 0.815837 0.064517
O O5 0.250000 0.120899 0.750000
O O6 0.233895 0.273307 0.995556
O O7 0.199517 0.000000 0.000000
O O8 0.250000 0.577966 0.750000
O O9 0.338869 0.745081 0.858390
O O10 0.308642 0.500000 0.000000
O O11 0.846626 0.000000 0.500000
#
# Coordination Sequence:
#
# PCOD9419979 Si02
#       4
#     8   8   8   8
#     4   9  18  33  61  88 117 149 191 238 284 339
#     4  12  21  36  58  88 120 151 192 241 288 340
#     4  12  24  36  57  87 117 152 193 243 293 341
#     4   8  17  34  57  83 116 145 194 228 281 342
#
# _framework density 18.986626000000001
#
# number of rings (size 3 to 8) (size 9 to 14) (size 15 to 20)
#    1.500    0.000    2.500    6.750    0.000    0.500 
#    0.000    0.000    0.000    3.750    0.000    0.000 
#    0.000    0.000    0.000    0.000    0.000    0.000 
#
# Total GULP energy -178139.883397 kJ/mol
# GULP energy per Si atom -5566.871356 kJ/mol
# Density = 1.894341 g / cm^3
# Si number density = 18.986626 Si / 1000 Ang^3
#
#
#
# Elastic Constant Matrix: (Units=GPa)
#
#
# Indices 1 2 3 4 5 6 
#
# 1 111.2186 -14.8993 4.3276 0.0000 0.0000 0.0000
# 2 -14.8993 23.3321 -12.0591 0.0000 0.0000 0.0000
# 3 4.3276 -12.0591 41.0616 0.0000 0.0000 0.0000
# 4 0.0000 0.0000 0.0000 23.1960 0.0000 0.0000
# 5 0.0000 0.0000 0.0000 0.0000 -7.2712 0.0000
# 6 0.0000 0.0000 0.0000 0.0000 0.0000 0.4402
#
#
#
# Elastic Compliance Matrix: (Units=1/GPa)
#
#
# Indices 1 2 3 4 5 6 
#
# 1 0.009864 0.006793 0.000955 0.000000 0.000000 0.000000
# 2 0.006793 0.055207 0.015497 0.000000 0.000000 0.000000
# 3 0.000955 0.015497 0.028804 0.000000 0.000000 0.000000
# 4 0.000000 0.000000 0.000000 0.043111 0.000000 0.000000
# 5 0.000000 0.000000 0.000000 0.000000 -0.137529 0.000000
# 6 0.000000 0.000000 0.000000 0.000000 0.000000 2.271829
#
#
# Mechanical properties :
#
#
# Convention : Reuss Voigt Hill
#
# Bulk Modulus (GPa) = 7.12425 14.48344 10.80385
# Shear Modulus (GPa) = 2.20111 16.48920 9.34515
#
# Velocity S-wave (km/s) = 1.07787 2.95017 2.22096
# Velocity P-wave (km/s) = 2.30423 4.38742 3.50421
#
# Compressibility (1/GPa) = 0.14036559
#
# Stress axis : x y z
#
# Youngs Moduli (GPa) = 101.37765 18.11374 34.71714
#
# Poissons Ratio (x) = -0.12304 -0.03316
# Poissons Ratio (y) = -0.68863 -0.53802
# Poissons Ratio (z) = -0.09684 -0.28071
#
# Static dielectric constant tensor:
#      x y z
#    x 1.687560 0.000000 0.000000 
#    y 0.000000 1.651810 0.000000 
#    z 0.000000 0.000000 1.728120 
# 
# From -- ./inp_files/11433.got.cif
#   From: 2010.05.17/outbox.cif.g08.bks.cpg/sg53_6_cif.got.tgz:11433.got - 2010.06.03 12:45:16.
