data_PCOD9419692
_publ_section_title
;
Structure prediction by ZEFSAII (Michael W. Deem and Ramdas Pophale) SiO2 
 PCOD9419692
Probable space group: P M N A
;
_chemical_formula_sum "Si O2"
_cell_formula_units_Z 56
_cell_length_a 7.804706
_cell_length_b 19.672353
_cell_length_c 17.663797
_cell_angle_alpha 90.000000
_cell_angle_beta 90.000000
_cell_angle_gamma 90.000000
_cell_volume 2712.045190
_symmetry_space_group_name_H-M "P M N A"
_symmetry_group_IT_number 53
_symmetry_cell_setting 'orthorhombic'
loop_
_space_group_symop_operation_xyz
x,y,z
1/2-x,-y,1/2+z
x,-y,-z
1/2-x,y,1/2-z
-x,-y,-z
1/2+x,y,1/2-z
-x,y,z
1/2+x,-y,1/2+z
loop_
_atom_site_type_symbol
_atom_site_label
_atom_site_fract_x
_atom_site_fract_y
_atom_site_fract_z
Si Si1 0.196027 0.957269 0.570300
Si Si2 0.790849 0.289021 0.065611
Si Si3 0.705225 0.350955 0.666491
Si Si4 0.708343 0.216762 0.590867
Si Si5 0.200648 0.828380 0.835188
Si Si6 0.294884 0.079988 0.664214
Si Si7 0.709890 0.576707 0.486735
O O1 0.268037 0.886914 0.602337
O O2 0.000000 0.943447 0.549385
O O3 0.276803 0.000000 0.500000
O O4 0.208867 0.010239 0.639214
O O5 0.725440 0.243936 0.135594
O O6 0.735463 0.366255 0.048140
O O7 0.000000 0.291467 0.068265
O O8 0.744209 0.245656 0.990805
O O9 0.750000 0.374765 0.750000
O O10 0.500000 0.349340 0.661122
O O11 0.766363 0.273770 0.650962
O O12 0.764929 0.396282 0.595922
O O13 0.500000 0.214320 0.592885
O O14 0.766913 0.141625 0.611097
O O15 0.250000 0.848120 0.750000
O O16 0.000000 0.818646 0.832240
O O17 0.250000 0.097397 0.750000
O O18 0.500000 0.072242 0.656900
O O19 0.768016 0.500000 0.500000
O O20 0.500000 0.576215 0.487489
#
# Coordination Sequence:
#
# PCOD9419692 Si02
#       7
#     8   8   8   8   8   8   8
#     4  11  24  40  56  75 100 129 167 216 266 314
#     4   8  15  29  50  74  97 127 169 210 247 294
#     4   9  16  27  45  70  99 128 160 199 242 292
#     4   8  15  28  47  71  97 126 162 202 242 291
#     4  11  22  37  57  78 104 138 178 222 266 313
#     4  11  21  33  50  72 100 131 164 202 248 299
#     4   8  14  27  49  75 101 131 169 209 247 293
#
# _framework density 20.648624999999999
#
# number of rings (size 3 to 8) (size 9 to 14) (size 15 to 20)
#    0.000    2.571    0.000    4.714    0.000    2.286 
#    0.000    1.429    0.000    7.286    0.000    0.000 
#    0.000    0.000    0.000    0.000    0.000    0.000 
#
# Total GULP energy -312286.163097 kJ/mol
# GULP energy per Si atom -5576.538627 kJ/mol
# Density = 2.060163 g / cm^3
# Si number density = 20.648625 Si / 1000 Ang^3
#
#
#
# Elastic Constant Matrix: (Units=GPa)
#
#
# Indices 1 2 3 4 5 6 
#
# 1 28.2487 5.3358 5.9432 0.0000 0.0000 0.0000
# 2 5.3358 140.2992 35.8882 0.0000 0.0000 0.0000
# 3 5.9432 35.8882 71.1827 0.0000 0.0000 0.0000
# 4 0.0000 0.0000 0.0000 20.4492 0.0000 0.0000
# 5 0.0000 0.0000 0.0000 0.0000 12.2579 0.0000
# 6 0.0000 0.0000 0.0000 0.0000 0.0000 8.2454
#
#
#
# Elastic Compliance Matrix: (Units=1/GPa)
#
#
# Indices 1 2 3 4 5 6 
#
# 1 0.036091 -0.000691 -0.002665 0.000000 0.000000 0.000000
# 2 -0.000691 0.008196 -0.004075 0.000000 0.000000 0.000000
# 3 -0.002665 -0.004075 0.016325 0.000000 0.000000 0.000000
# 4 0.000000 0.000000 0.000000 0.048902 0.000000 0.000000
# 5 0.000000 0.000000 0.000000 0.000000 0.081580 0.000000
# 6 0.000000 0.000000 0.000000 0.000000 0.000000 0.121280
#
#
# Mechanical properties :
#
#
# Convention : Reuss Voigt Hill
#
# Bulk Modulus (GPa) = 21.85726 37.11835 29.48781
# Shear Modulus (GPa) = 14.59916 21.02806 17.81361
#
# Velocity S-wave (km/s) = 2.66188 3.19466 2.94037
# Velocity P-wave (km/s) = 4.47837 5.62344 5.08325
#
# Compressibility (1/GPa) = 0.04575138
#
# Stress axis : x y z
#
# Youngs Moduli (GPa) = 27.70775 122.00826 61.25524
#
# Poissons Ratio (x) = 0.08430 0.16324
# Poissons Ratio (y) = 0.01914 0.24959
# Poissons Ratio (z) = 0.07384 0.49713
#
# Static dielectric constant tensor:
#      x y z
#    x 1.759140 0.000000 0.000000 
#    y 0.000000 1.746330 0.000000 
#    z 0.000000 0.000000 1.874960 
# 
# From -- ./inp_files/20645.got.cif
#   From: 2010.05.17/outbox.cif.g08.bks.cpg/sg53_11_cif.got.tgz:20645.got - 2010.06.03 12:45:16.
