data_PCOD9419138
_publ_section_title
;
Structure prediction by ZEFSAII (Michael W. Deem and Ramdas Pophale) SiO2 
 PCOD9419138
Probable space group: P M N A
;
_chemical_formula_sum "Si O2"
_cell_formula_units_Z 48
_cell_length_a 18.166999
_cell_length_b 13.231332
_cell_length_c 9.639043
_cell_angle_alpha 90.000000
_cell_angle_beta 90.000000
_cell_angle_gamma 90.000000
_cell_volume 2316.971420
_symmetry_space_group_name_H-M "P M N A"
_symmetry_group_IT_number 53
_symmetry_cell_setting 'orthorhombic'
loop_
_space_group_symop_operation_xyz
x,y,z
1/2-x,-y,1/2+z
x,-y,-z
1/2-x,y,1/2-z
-x,-y,-z
1/2+x,y,1/2-z
-x,y,z
1/2+x,-y,1/2+z
loop_
_atom_site_type_symbol
_atom_site_label
_atom_site_fract_x
_atom_site_fract_y
_atom_site_fract_z
Si Si1 0.089829 0.442810 0.293245
Si Si2 0.579907 0.144781 0.307474
Si Si3 0.770818 0.913065 0.902883
Si Si4 0.837513 0.346794 0.727129
Si Si5 0.154011 0.246757 0.445016
Si Si6 0.082078 0.349260 0.013377
O O1 0.122688 0.551642 0.328974
O O2 0.133859 0.354308 0.373860
O O3 0.105810 0.431179 0.127992
O O4 0.000000 0.434869 0.313971
O O5 0.500000 0.096785 0.307031
O O6 0.641679 0.089013 0.394936
O O7 0.605551 0.169903 0.149551
O O8 0.576361 0.251662 0.387295
O O9 0.750000 0.943939 0.750000
O O10 0.735388 0.802312 0.927449
O O11 0.741089 0.000000 0.000000
O O12 0.750000 0.359496 0.750000
O O13 0.854988 0.262868 0.609532
O O14 0.869925 0.327183 0.879497
O O15 0.000000 0.375060 0.962769
#
# Coordination Sequence:
#
# PCOD9419138 Si02
#       6
#     8   8   8   8   8   8
#     4  10  22  40  60  82 115 162 207 244 290 346
#     4   9  19  38  63  87 114 154 197 238 291 353
#     4  10  22  40  64  88 116 152 191 240 303 366
#     4  12  24  33  52  88 125 158 201 248 289 340
#     4  10  22  39  58  84 120 158 194 240 295 358
#     4   9  19  36  56  79 115 159 198 240 287 335
#
# _framework density 20.716699999999999
#
# number of rings (size 3 to 8) (size 9 to 14) (size 15 to 20)
#    0.000    2.000    0.000    4.000    0.000   14.333 
#    0.000    0.000    0.000   12.500    0.000    0.000 
#    0.000    0.000    0.000    0.000    0.000    0.000 
#
# Total GULP energy -267392.123777 kJ/mol
# GULP energy per Si atom -5570.669245 kJ/mol
# Density = 2.066955 g / cm^3
# Si number density = 20.716700 Si / 1000 Ang^3
#
#
#
# Elastic Constant Matrix: (Units=GPa)
#
#
# Indices 1 2 3 4 5 6 
#
# 1 117.5580 23.5251 50.1889 0.0000 0.0000 0.0000
# 2 23.5251 40.8147 35.0545 0.0000 0.0000 0.0000
# 3 50.1889 35.0545 138.3314 0.0000 0.0000 0.0000
# 4 0.0000 0.0000 0.0000 24.7447 0.0000 0.0000
# 5 0.0000 0.0000 0.0000 0.0000 4.7027 0.0000
# 6 0.0000 0.0000 0.0000 0.0000 0.0000 -17.0456
#
#
#
# Elastic Compliance Matrix: (Units=1/GPa)
#
#
# Indices 1 2 3 4 5 6 
#
# 1 0.010450 -0.003537 -0.002895 0.000000 0.000000 0.000000
# 2 -0.003537 0.032514 -0.006956 0.000000 0.000000 0.000000
# 3 -0.002895 -0.006956 0.010042 0.000000 0.000000 0.000000
# 4 0.000000 0.000000 0.000000 0.040413 0.000000 0.000000
# 5 0.000000 0.000000 0.000000 0.000000 0.212645 0.000000
# 6 0.000000 0.000000 0.000000 0.000000 0.000000 -0.058666
#
#
# Mechanical properties :
#
#
# Convention : Reuss Voigt Hill
#
# Bulk Modulus (GPa) = 38.12413 57.13790 47.63102
# Shear Modulus (GPa) = 17.67299 15.00940 16.34120
#
# Velocity S-wave (km/s) = 2.92392 2.69459 2.81159
# Velocity P-wave (km/s) = 5.46275 6.10914 5.79496
#
# Compressibility (1/GPa) = 0.02623010
#
# Stress axis : x y z
#
# Youngs Moduli (GPa) = 95.69125 30.75602 99.57944
#
# Poissons Ratio (x) = 0.10878 0.28831
# Poissons Ratio (y) = 0.33843 0.69269
# Poissons Ratio (z) = 0.27705 0.21394
#
# Static dielectric constant tensor:
#      x y z
#    x 1.972330 0.000000 0.000000 
#    y 0.000000 1.830080 0.000000 
#    z 0.000000 0.000000 1.692440 
# 
# From -- ./inp_files/9947.got.cif
#   From: 2010.05.17/outbox.cif.g08.bks.cpg/sg53_5_cif.got.tgz:9947.got - 2010.06.03 12:45:16.
