data_PCOD9419186
_publ_section_title
;
Structure prediction by ZEFSAII (Michael W. Deem and Ramdas Pophale) SiO2 
 PCOD9419186
Probable space group: P M N A
;
_chemical_formula_sum "Si O2"
_cell_formula_units_Z 64
_cell_length_a 16.554451
_cell_length_b 11.521789
_cell_length_c 14.345295
_cell_angle_alpha 90.000000
_cell_angle_beta 90.000000
_cell_angle_gamma 90.000000
_cell_volume 2736.176975
_symmetry_space_group_name_H-M "P M N A"
_symmetry_group_IT_number 53
_symmetry_cell_setting 'orthorhombic'
loop_
_space_group_symop_operation_xyz
x,y,z
1/2-x,-y,1/2+z
x,-y,-z
1/2-x,y,1/2-z
-x,-y,-z
1/2+x,y,1/2-z
-x,y,z
1/2+x,-y,1/2+z
loop_
_atom_site_type_symbol
_atom_site_label
_atom_site_fract_x
_atom_site_fract_y
_atom_site_fract_z
Si Si1 0.095738 0.860419 0.640351
Si Si2 0.405175 0.893547 0.431538
Si Si3 0.591880 0.699116 0.174476
Si Si4 0.339122 0.465163 0.207042
Si Si5 0.840140 0.338005 0.484692
Si Si6 0.409260 0.727582 0.679881
Si Si7 0.158715 0.066241 0.728035
Si Si8 0.840324 0.641982 0.007378
O O1 0.147532 0.782717 0.571060
O O2 0.115937 0.826390 0.748177
O O3 0.000000 0.840267 0.626448
O O4 0.118484 0.993538 0.644376
O O5 0.500000 0.890165 0.449516
O O6 0.387885 0.933432 0.326301
O O7 0.378170 0.755995 0.439517
O O8 0.372815 0.000000 0.500000
O O9 0.500000 0.726037 0.202484
O O10 0.629938 0.592114 0.228843
O O11 0.651856 0.804049 0.190650
O O12 0.594188 0.663897 0.065649
O O13 0.250000 0.445162 0.250000
O O14 0.341924 0.432023 0.098143
O O15 0.405149 0.382441 0.253092
O O16 0.753430 0.354343 0.532534
O O17 0.500000 0.749436 0.645157
O O18 0.351506 0.692545 0.596802
O O19 0.250000 0.031233 0.750000
O O20 0.864853 0.500000 0.000000
#
# Coordination Sequence:
#
# PCOD9419186 Si02
#       8
#     8   8   8   8   8   8   8   8
#     4  10  23  44  71  99 133 179 240 294 353 434
#     4  11  26  48  73 103 150 198 245 303 372 447
#     4  12  26  44  68  99 143 189 238 296 366 439
#     4  11  22  41  69  97 138 186 232 292 358 434
#     4  11  25  43  69  99 143 187 235 297 361 435
#     4  10  22  39  64  99 134 177 231 286 350 426
#     4  12  27  45  72 103 139 185 239 306 372 440
#     4  12  25  41  69 106 144 187 240 301 365 437
#
# _framework density 23.390298999999999
#
# number of rings (size 3 to 8) (size 9 to 14) (size 15 to 20)
#    0.000    0.875    1.250    5.250    5.250    5.500 
#    0.000    1.250    0.000    0.000    0.000    0.000 
#    0.000    0.000    0.000    0.000    0.000    0.000 
#
# Total GULP energy -356987.276982 kJ/mol
# GULP energy per Si atom -5577.926203 kJ/mol
# Density = 2.333706 g / cm^3
# Si number density = 23.390299 Si / 1000 Ang^3
#
#
#
# Elastic Constant Matrix: (Units=GPa)
#
#
# Indices 1 2 3 4 5 6 
#
# 1 63.3348 -0.7853 3.6501 0.0000 0.0000 0.0000
# 2 -0.7853 122.7197 1.8787 0.0000 0.0000 0.0000
# 3 3.6501 1.8787 34.0074 0.0000 0.0000 0.0000
# 4 0.0000 0.0000 0.0000 29.1037 0.0000 0.0000
# 5 0.0000 0.0000 0.0000 0.0000 27.4276 0.0000
# 6 0.0000 0.0000 0.0000 0.0000 0.0000 12.8245
#
#
#
# Elastic Compliance Matrix: (Units=1/GPa)
#
#
# Indices 1 2 3 4 5 6 
#
# 1 0.015889 0.000128 -0.001712 0.000000 0.000000 0.000000
# 2 0.000128 0.008157 -0.000464 0.000000 0.000000 0.000000
# 3 -0.001712 -0.000464 0.029615 0.000000 0.000000 0.000000
# 4 0.000000 0.000000 0.000000 0.034360 0.000000 0.000000
# 5 0.000000 0.000000 0.000000 0.000000 0.036460 0.000000
# 6 0.000000 0.000000 0.000000 0.000000 0.000000 0.077976
#
#
# Mechanical properties :
#
#
# Convention : Reuss Voigt Hill
#
# Bulk Modulus (GPa) = 20.17636 25.50542 22.84089
# Shear Modulus (GPa) = 22.41399 28.22572 25.31985
#
# Velocity S-wave (km/s) = 3.09894 3.47757 3.29370
# Velocity P-wave (km/s) = 4.63133 5.20121 4.92452
#
# Compressibility (1/GPa) = 0.04956295
#
# Stress axis : x y z
#
# Youngs Moduli (GPa) = 62.93507 122.60049 33.76687
#
# Poissons Ratio (x) = -0.01568 0.05783
# Poissons Ratio (y) = -0.00805 0.01568
# Poissons Ratio (z) = 0.10778 0.05693
#
# Static dielectric constant tensor:
#      x y z
#    x 1.793590 0.000000 0.000000 
#    y 0.000000 1.964280 0.000000 
#    z 0.000000 0.000000 1.985850 
# 
# From -- ./inp_files/23891.got.cif
#   From: 2010.05.17/outbox.cif.g08.bks.cpg/sg53_12_cif.got.tgz:23891.got - 2010.06.03 12:45:16.
