data_PCOD9419578
_publ_section_title
;
Structure prediction by ZEFSAII (Michael W. Deem and Ramdas Pophale) SiO2 
 PCOD9419578
Probable space group: P M N A
;
_chemical_formula_sum "Si O2"
_cell_formula_units_Z 60
_cell_length_a 21.271732
_cell_length_b 12.025048
_cell_length_c 11.418464
_cell_angle_alpha 90.000000
_cell_angle_beta 90.000000
_cell_angle_gamma 90.000000
_cell_volume 2920.769994
_symmetry_space_group_name_H-M "P M N A"
_symmetry_group_IT_number 53
_symmetry_cell_setting 'orthorhombic'
loop_
_space_group_symop_operation_xyz
x,y,z
1/2-x,-y,1/2+z
x,-y,-z
1/2-x,y,1/2-z
-x,-y,-z
1/2+x,y,1/2-z
-x,y,z
1/2+x,-y,1/2+z
loop_
_atom_site_type_symbol
_atom_site_label
_atom_site_fract_x
_atom_site_fract_y
_atom_site_fract_z
Si Si1 0.073446 0.282212 0.689135
Si Si2 0.250000 0.972017 0.750000
Si Si3 0.423740 0.124684 0.027896
Si Si4 0.188602 0.817313 0.192437
Si Si5 0.194798 0.206287 0.083167
Si Si6 0.427970 0.758635 0.734857
Si Si7 0.907463 0.468153 0.371257
Si Si8 0.239479 0.559304 0.618764
O O1 0.092325 0.220663 0.566728
O O2 0.121840 0.233704 0.780878
O O3 0.083866 0.414066 0.691075
O O4 0.000000 0.258212 0.709032
O O5 0.266859 0.892671 0.643871
O O6 0.306883 0.060974 0.752645
O O7 0.500000 0.121244 0.027430
O O8 0.405857 0.164185 0.156972
O O9 0.401075 0.000000 0.000000
O O10 0.250000 0.758057 0.250000
O O11 0.196488 0.817864 0.054112
O O12 0.124327 0.223437 0.135106
O O13 0.230319 0.319638 0.114962
O O14 0.500000 0.786713 0.700105
O O15 0.430829 0.634829 0.793072
O O16 0.934080 0.500000 0.500000
O O17 0.835242 0.436880 0.392123
O O18 0.263801 0.500000 0.500000
O O19 0.250000 0.511123 0.750000
#
# Coordination Sequence:
#
# PCOD9419578 Si02
#       8
#     8   4   8   8   8   8   8   8
#     4  11  24  43  68 100 140 183 230 290 354 416
#     4  10  24  48  72  98 132 178 232 288 346 406
#     4   9  20  38  61  96 137 176 224 280 342 415
#     4  10  28  44  70  99 135 184 229 286 344 426
#     4  12  24  47  69 100 140 179 233 291 352 425
#     4  11  23  40  67 102 138 185 231 284 353 419
#     4  11  22  38  66  97 137 179 238 293 354 414
#     4  11  25  41  68  98 133 184 231 295 355 421
#
# _framework density 20.542528000000001
#
# number of rings (size 3 to 8) (size 9 to 14) (size 15 to 20)
#    0.400    0.933    3.333    0.800    7.467    2.133 
#    0.000    0.000    0.000    3.600    0.000    0.000 
#    0.000    0.000    0.000    0.000    0.000    0.000 
#
# Total GULP energy -334626.868016 kJ/mol
# GULP energy per Si atom -5577.114467 kJ/mol
# Density = 2.049577 g / cm^3
# Si number density = 20.542528 Si / 1000 Ang^3
#
#
#
# Elastic Constant Matrix: (Units=GPa)
#
#
# Indices 1 2 3 4 5 6 
#
# 1 112.3393 39.2484 62.0387 0.0000 0.0000 0.0000
# 2 39.2484 122.2380 35.4597 0.0000 0.0000 0.0000
# 3 62.0387 35.4597 119.4424 0.0000 0.0000 0.0000
# 4 0.0000 0.0000 0.0000 31.8635 0.0000 0.0000
# 5 0.0000 0.0000 0.0000 0.0000 33.4188 0.0000
# 6 0.0000 0.0000 0.0000 0.0000 0.0000 -85.8197
#
#
#
# Elastic Compliance Matrix: (Units=1/GPa)
#
#
# Indices 1 2 3 4 5 6 
#
# 1 0.013118 -0.002446 -0.006087 0.000000 0.000000 0.000000
# 2 -0.002446 0.009408 -0.001522 0.000000 0.000000 0.000000
# 3 -0.006087 -0.001522 0.011986 0.000000 0.000000 0.000000
# 4 0.000000 0.000000 0.000000 0.031384 0.000000 0.000000
# 5 0.000000 0.000000 0.000000 0.000000 0.029923 0.000000
# 6 0.000000 0.000000 0.000000 0.000000 0.000000 -0.011652
#
#
# Mechanical properties :
#
#
# Convention : Reuss Voigt Hill
#
# Bulk Modulus (GPa) = 69.44435 69.72369 69.58402
# Shear Modulus (GPa) = 45.83871 10.37736 28.10804
#
# Velocity S-wave (km/s) = 4.72890 2.25003 3.70305
# Velocity P-wave (km/s) = 7.98093 6.38475 7.22704
#
# Compressibility (1/GPa) = 0.01440002
#
# Stress axis : x y z
#
# Youngs Moduli (GPa) = 76.23198 106.29478 83.43093
#
# Poissons Ratio (x) = 0.26000 0.50787
# Poissons Ratio (y) = 0.18647 0.12702
# Poissons Ratio (z) = 0.46404 0.16183
#
# Static dielectric constant tensor:
#      x y z
#    x 1.717270 0.000000 0.000000 
#    y 0.000000 1.807650 0.000000 
#    z 0.000000 0.000000 1.763530 
# 
# From -- ./inp_files/17907.got.cif
#   From: 2010.05.17/outbox.cif.g08.bks.cpg/sg53_9_cif.got.tgz:17907.got - 2010.06.03 12:45:16.
