data_PCOD9419977
_publ_section_title
;
Structure prediction by ZEFSAII (Michael W. Deem and Ramdas Pophale) SiO2 
 PCOD9419977
Probable space group: P M N A
;
_chemical_formula_sum "Si O2"
_cell_formula_units_Z 48
_cell_length_a 14.535171
_cell_length_b 10.479626
_cell_length_c 17.074407
_cell_angle_alpha 90.000000
_cell_angle_beta 90.000000
_cell_angle_gamma 90.000000
_cell_volume 2600.827560
_symmetry_space_group_name_H-M "P M N A"
_symmetry_group_IT_number 53
_symmetry_cell_setting 'orthorhombic'
loop_
_space_group_symop_operation_xyz
x,y,z
1/2-x,-y,1/2+z
x,-y,-z
1/2-x,y,1/2-z
-x,-y,-z
1/2+x,y,1/2-z
-x,y,z
1/2+x,-y,1/2+z
loop_
_atom_site_type_symbol
_atom_site_label
_atom_site_fract_x
_atom_site_fract_y
_atom_site_fract_z
Si Si1 0.110410 0.272853 0.806854
Si Si2 0.711669 0.879249 0.552229
Si Si3 0.106526 0.024191 0.379609
Si Si4 0.607402 0.281576 0.875219
Si Si5 0.109419 0.978219 0.803665
Si Si6 0.715409 0.371807 0.547097
O O1 0.129196 0.307289 0.716485
O O2 0.158859 0.356986 0.872330
O O3 0.000000 0.275864 0.816366
O O4 0.140957 0.124921 0.816706
O O5 0.819850 0.900423 0.569610
O O6 0.661179 0.889794 0.635332
O O7 0.692566 0.750059 0.506708
O O8 0.680692 0.000000 0.500000
O O9 0.123275 0.052657 0.287651
O O10 0.000000 0.052278 0.398648
O O11 0.120083 0.871217 0.387222
O O12 0.500000 0.309563 0.888568
O O13 0.677817 0.357259 0.928763
O O14 0.000000 0.974419 0.817541
O O15 0.697166 0.500000 0.500000
#
# Coordination Sequence:
#
# PCOD9419977 Si02
#       6
#     8   8   8   8   8   8
#     4   9  18  36  61  82 103 141 189 227 264 322
#     4  12  21  33  55  83 110 143 174 221 278 329
#     4   9  18  34  58  85 109 137 181 232 273 318
#     4   9  18  36  61  82 103 141 189 227 264 322
#     4   9  18  34  58  85 109 137 181 232 273 318
#     4  12  25  37  51  81 120 148 178 223 275 319
#
# _framework density 18.455665
#
# number of rings (size 3 to 8) (size 9 to 14) (size 15 to 20)
#    0.000    2.000    3.333    3.000    0.000    5.333 
#    0.000    3.333    0.000    4.000    0.000    0.000 
#    0.000    0.000    0.000    0.000    0.000    0.000 
#
# Total GULP energy -268114.812667 kJ/mol
# GULP energy per Si atom -5585.725264 kJ/mol
# Density = 1.841366 g / cm^3
# Si number density = 18.455665 Si / 1000 Ang^3
#
#
#
# Elastic Constant Matrix: (Units=GPa)
#
#
# Indices 1 2 3 4 5 6 
#
# 1 26.9197 7.5060 17.3774 0.0000 0.0000 0.0000
# 2 7.5060 70.1828 25.5058 0.0000 0.0000 0.0000
# 3 17.3774 25.5058 64.4250 0.0000 0.0000 0.0000
# 4 0.0000 0.0000 0.0000 13.2643 0.0000 0.0000
# 5 0.0000 0.0000 0.0000 0.0000 15.8042 0.0000
# 6 0.0000 0.0000 0.0000 0.0000 0.0000 10.8739
#
#
#
# Elastic Compliance Matrix: (Units=1/GPa)
#
#
# Indices 1 2 3 4 5 6 
#
# 1 0.044993 -0.000469 -0.011950 0.000000 0.000000 0.000000
# 2 -0.000469 0.016648 -0.006464 0.000000 0.000000 0.000000
# 3 -0.011950 -0.006464 0.021305 0.000000 0.000000 0.000000
# 4 0.000000 0.000000 0.000000 0.075390 0.000000 0.000000
# 5 0.000000 0.000000 0.000000 0.000000 0.063274 0.000000
# 6 0.000000 0.000000 0.000000 0.000000 0.000000 0.091963
#
#
# Mechanical properties :
#
#
# Convention : Reuss Voigt Hill
#
# Bulk Modulus (GPa) = 22.13476 29.14508 25.63992
# Shear Modulus (GPa) = 13.64631 15.39770 14.52200
#
# Velocity S-wave (km/s) = 2.72216 2.89157 2.80814
# Velocity P-wave (km/s) = 4.67971 5.19370 4.94339
#
# Compressibility (1/GPa) = 0.04517782
#
# Stress axis : x y z
#
# Youngs Moduli (GPa) = 22.22592 60.06745 46.93839
#
# Poissons Ratio (x) = 0.02817 0.56092
# Poissons Ratio (y) = 0.01042 0.30343
# Poissons Ratio (z) = 0.26560 0.38830
#
# Static dielectric constant tensor:
#      x y z
#    x 1.666360 0.000000 0.000000 
#    y 0.000000 1.591120 0.000000 
#    z 0.000000 0.000000 1.644550 
# 
# From -- ./inp_files/22645.got.cif
#   From: 2010.05.17/outbox.cif.g08.bks.cpg/sg53_12_cif.got.tgz:22645.got - 2010.06.03 12:45:16.
