data_PCOD9419098
_publ_section_title
;
Structure prediction by ZEFSAII (Michael W. Deem and Ramdas Pophale) SiO2 
 PCOD9419098
Probable space group: P M N A
;
_chemical_formula_sum "Si O2"
_cell_formula_units_Z 18
_cell_length_a 26.965031
_cell_length_b 4.517207
_cell_length_c 5.273213
_cell_angle_alpha 90.000000
_cell_angle_beta 90.000000
_cell_angle_gamma 90.000000
_cell_volume 642.312288
_symmetry_space_group_name_H-M "P M N A"
_symmetry_group_IT_number 53
_symmetry_cell_setting 'orthorhombic'
loop_
_space_group_symop_operation_xyz
x,y,z
1/2-x,-y,1/2+z
x,-y,-z
1/2-x,y,1/2-z
-x,-y,-z
1/2+x,y,1/2-z
-x,y,z
1/2+x,-y,1/2+z
loop_
_atom_site_type_symbol
_atom_site_label
_atom_site_fract_x
_atom_site_fract_y
_atom_site_fract_z
Si Si1 0.089596 0.204738 0.251388
Si Si2 0.500000 0.500000 0.500000
Si Si3 0.697148 0.203022 0.249812
O O1 0.143780 0.358797 0.253728
O O2 0.084910 0.000000 0.500000
O O3 0.043586 0.416766 0.207317
O O4 0.087605 0.000000 0.000000
O O5 0.750000 0.370102 0.250000
O O6 0.697090 0.000000 0.500000
O O7 0.697120 0.000000 0.000000
#
# Coordination Sequence:
#
# PCOD9419098 Si02
#       3
#     8   2   8
#     4  10  22  38  57  84 115 152 200 247 296 360
#     4  12  24  38  60  84 120 162 196 240 300 356
#     4   8  14  28  52  77 103 140 185 235 292 348
#
# _framework density 28.023755000000001
#
# number of rings (size 3 to 8) (size 9 to 14) (size 15 to 20)
#    0.000    2.667    0.000    1.333    0.000    3.556 
#    0.000    0.000    0.000   26.667    0.000    0.000 
#    0.000    0.000    0.000    0.000    0.000    0.000 
#
# Total GULP energy -100297.829634 kJ/mol
# GULP energy per Si atom -5572.101646 kJ/mol
# Density = 2.795997 g / cm^3
# Si number density = 28.023755 Si / 1000 Ang^3
#
#
#
# Elastic Constant Matrix: (Units=GPa)
#
#
# Indices 1 2 3 4 5 6 
#
# 1 406.2572 51.7277 26.5527 0.0000 0.0000 0.0000
# 2 51.7277 55.9950 69.3825 0.0000 0.0000 0.0000
# 3 26.5527 69.3825 294.9958 0.0000 0.0000 0.0000
# 4 0.0000 0.0000 0.0000 91.3945 0.0000 0.0000
# 5 0.0000 0.0000 0.0000 0.0000 37.8242 0.0000
# 6 0.0000 0.0000 0.0000 0.0000 0.0000 -28.5167
#
#
#
# Elastic Compliance Matrix: (Units=1/GPa)
#
#
# Indices 1 2 3 4 5 6 
#
# 1 0.002843 -0.003259 0.000511 0.000000 0.000000 0.000000
# 2 -0.003259 0.028940 -0.006513 0.000000 0.000000 0.000000
# 3 0.000511 -0.006513 0.004876 0.000000 0.000000 0.000000
# 4 0.000000 0.000000 0.000000 0.010942 0.000000 0.000000
# 5 0.000000 0.000000 0.000000 0.000000 0.026438 0.000000
# 6 0.000000 0.000000 0.000000 0.000000 0.000000 -0.035067
#
#
# Mechanical properties :
#
#
# Convention : Reuss Voigt Hill
#
# Bulk Modulus (GPa) = 55.14093 116.95265 86.04679
# Shear Modulus (GPa) = 78.69040 60.77941 69.73491
#
# Velocity S-wave (km/s) = 5.30480 4.66215 4.99382
# Velocity P-wave (km/s) = 7.56574 8.41456 8.00141
#
# Compressibility (1/GPa) = 0.01813535
#
# Stress axis : x y z
#
# Youngs Moduli (GPa) = 351.72870 34.55423 205.09339
#
# Poissons Ratio (x) = 0.11262 -0.10473
# Poissons Ratio (y) = 1.14634 1.33583
# Poissons Ratio (z) = -0.17961 0.22506
#
# Static dielectric constant tensor:
#      x y z
#    x 2.165290 0.000000 0.000000 
#    y 0.000000 2.151400 0.000000 
#    z 0.000000 0.000000 2.152110 
# 
# From -- ./inp_files/3896.got.cif
#   From: 2010.05.17/outbox.cif.g08.bks.cpg/sg53_2_cif.got.tgz:3896.got - 2010.06.03 12:45:16.
