data_PCOD9419974
_publ_section_title
;
Structure prediction by ZEFSAII (Michael W. Deem and Ramdas Pophale) SiO2 
 PCOD9419974
Probable space group: P M N A
;
_chemical_formula_sum "Si O2"
_cell_formula_units_Z 48
_cell_length_a 29.252076
_cell_length_b 8.451834
_cell_length_c 8.794750
_cell_angle_alpha 90.000000
_cell_angle_beta 90.000000
_cell_angle_gamma 90.000000
_cell_volume 2174.358500
_symmetry_space_group_name_H-M "P M N A"
_symmetry_group_IT_number 53
_symmetry_cell_setting 'orthorhombic'
loop_
_space_group_symop_operation_xyz
x,y,z
1/2-x,-y,1/2+z
x,-y,-z
1/2-x,y,1/2-z
-x,-y,-z
1/2+x,y,1/2-z
-x,y,z
1/2+x,-y,1/2+z
loop_
_atom_site_type_symbol
_atom_site_label
_atom_site_fract_x
_atom_site_fract_y
_atom_site_fract_z
Si Si1 0.873106 0.629126 0.606386
Si Si2 0.948146 0.321208 0.177127
Si Si3 0.797216 0.569637 0.830235
Si Si4 0.797841 0.049179 0.173971
Si Si5 0.873252 0.122521 0.621765
Si Si6 0.552559 0.705593 0.329856
O O1 0.897458 0.500000 0.500000
O O2 0.909538 0.724784 0.704959
O O3 0.839689 0.535234 0.719421
O O4 0.848795 0.748521 0.489518
O O5 0.945773 0.513763 0.177515
O O6 0.000000 0.276564 0.216982
O O7 0.938025 0.259803 0.007923
O O8 0.750000 0.518334 0.750000
O O9 0.799098 0.760363 0.829427
O O10 0.801565 0.500000 0.000000
O O11 0.750000 0.000848 0.250000
O O12 0.837696 0.966783 0.270318
O O13 0.800322 0.000000 0.000000
O O14 0.911610 0.209392 0.721409
O O15 0.893468 0.000000 0.500000
O O16 0.500000 0.751190 0.296383
#
# Coordination Sequence:
#
# PCOD9419974 Si02
#       6
#     8   8   8   8   8   8
#     4  12  25  40  69 104 137 180 231 291 340 399
#     4   9  20  40  66  99 135 181 239 290 342 403
#     4  11  27  48  72 104 135 175 228 288 345 399
#     4  11  27  47  73  98 136 186 227 274 342 420
#     4  12  25  44  66 103 146 180 228 280 343 416
#     4   9  20  40  68  98 137 186 234 286 344 405
#
# _framework density 22.075476999999999
#
# number of rings (size 3 to 8) (size 9 to 14) (size 15 to 20)
#    0.000    1.333    3.333    2.000    9.333    2.000 
#    0.000    0.000    0.000    2.500    0.000    0.000 
#    0.000    0.000    0.000    0.000    0.000    0.000 
#
# Total GULP energy -268251.168028 kJ/mol
# GULP energy per Si atom -5588.566001 kJ/mol
# Density = 2.202523 g / cm^3
# Si number density = 22.075477 Si / 1000 Ang^3
#
#
#
# Elastic Constant Matrix: (Units=GPa)
#
#
# Indices 1 2 3 4 5 6 
#
# 1 128.3367 36.4417 107.6448 0.0000 0.0000 0.0000
# 2 36.4417 51.2880 54.1939 0.0000 0.0000 0.0000
# 3 107.6448 54.1939 187.9129 0.0000 0.0000 0.0000
# 4 0.0000 0.0000 0.0000 43.5577 0.0000 0.0000
# 5 0.0000 0.0000 0.0000 0.0000 38.5628 0.0000
# 6 0.0000 0.0000 0.0000 0.0000 0.0000 24.3970
#
#
#
# Elastic Compliance Matrix: (Units=1/GPa)
#
#
# Indices 1 2 3 4 5 6 
#
# 1 0.015185 -0.002298 -0.008036 0.000000 0.000000 0.000000
# 2 -0.002298 0.028392 -0.006872 0.000000 0.000000 0.000000
# 3 -0.008036 -0.006872 0.011907 0.000000 0.000000 0.000000
# 4 0.000000 0.000000 0.000000 0.022958 0.000000 0.000000
# 5 0.000000 0.000000 0.000000 0.000000 0.025932 0.000000
# 6 0.000000 0.000000 0.000000 0.000000 0.000000 0.040989
#
#
# Mechanical properties :
#
#
# Convention : Reuss Voigt Hill
#
# Bulk Modulus (GPa) = 47.45655 84.89980 66.17818
# Shear Modulus (GPa) = 26.76717 32.58731 29.67724
#
# Velocity S-wave (km/s) = 3.48592 3.84627 3.67052
# Velocity P-wave (km/s) = 6.14380 7.63331 6.92870
#
# Compressibility (1/GPa) = 0.02107191
#
# Stress axis : x y z
#
# Youngs Moduli (GPa) = 65.85618 35.22166 83.98762
#
# Poissons Ratio (x) = 0.08095 0.67489
# Poissons Ratio (y) = 0.15135 0.57713
# Poissons Ratio (z) = 0.52919 0.24203
#
# Static dielectric constant tensor:
#      x y z
#    x 1.800000 0.000000 0.000000 
#    y 0.000000 1.896720 0.000000 
#    z 0.000000 0.000000 1.805080 
# 
# From -- ./inp_files/13005.got.cif
#   From: 2010.05.17/outbox.cif.g08.bks.cpg/sg53_7_cif.got.tgz:13005.got - 2010.06.03 12:45:16.
