data_PCOD9419001
_publ_section_title
;
Structure prediction by ZEFSAII (Michael W. Deem and Ramdas Pophale) SiO2 
 PCOD9419001
Probable space group: P M N A
;
_chemical_formula_sum "Si O2"
_cell_formula_units_Z 64
_cell_length_a 30.257860
_cell_length_b 17.461885
_cell_length_c 5.596922
_cell_angle_alpha 90.000000
_cell_angle_beta 90.000000
_cell_angle_gamma 90.000000
_cell_volume 2957.185631
_symmetry_space_group_name_H-M "P M N A"
_symmetry_group_IT_number 53
_symmetry_cell_setting 'orthorhombic'
loop_
_space_group_symop_operation_xyz
x,y,z
1/2-x,-y,1/2+z
x,-y,-z
1/2-x,y,1/2-z
-x,-y,-z
1/2+x,y,1/2-z
-x,y,z
1/2+x,-y,1/2+z
loop_
_atom_site_type_symbol
_atom_site_label
_atom_site_fract_x
_atom_site_fract_y
_atom_site_fract_z
Si Si1 0.668091 0.192030 0.723386
Si Si2 0.201647 0.921226 0.857387
Si Si3 0.551068 0.687299 0.373197
Si Si4 0.141345 0.648140 0.993311
Si Si5 0.202810 0.446772 0.696133
Si Si6 0.449467 0.218867 0.126598
Si Si7 0.883778 0.085694 0.477237
Si Si8 0.205470 0.704135 0.599811
O O1 0.697902 0.152927 0.525359
O O2 0.648413 0.272239 0.636962
O O3 0.631629 0.127857 0.780243
O O4 0.694425 0.218892 0.957549
O O5 0.250000 0.923439 0.750000
O O6 0.161186 0.920840 0.673392
O O7 0.196400 0.000000 0.000000
O O8 0.500000 0.659271 0.361910
O O9 0.590698 0.629154 0.442343
O O10 0.559377 0.728341 0.112556
O O11 0.553427 0.740384 0.613764
O O12 0.172822 0.580323 0.085309
O O13 0.161428 0.675424 0.740347
O O14 0.179365 0.500000 0.500000
O O15 0.250000 0.485620 0.750000
O O16 0.214913 0.366180 0.574910
O O17 0.500000 0.193406 0.095099
O O18 0.417028 0.146930 0.132985
O O19 0.901944 0.000000 0.500000
O O20 0.250000 0.712754 0.750000
#
# Coordination Sequence:
#
# PCOD9419001 Si02
#       8
#     8   8   8   8   8   8   8   8
#     4  11  24  41  58  84 119 162 218 282 334 397
#     4  12  27  45  57  80 117 172 231 281 343 414
#     4  10  21  41  68  98 135 176 223 286 349 408
#     4  11  23  40  66  98 130 171 228 271 329 397
#     4  11  24  42  66  97 145 183 219 263 321 401
#     4  10  22  41  67  98 129 169 220 285 361 425
#     4  12  24  41  63  83 121 168 218 281 352 417
#     4  11  23  41  62  94 127 169 217 276 336 394
#
# _framework density 21.642201
#
# number of rings (size 3 to 8) (size 9 to 14) (size 15 to 20)
#    0.000    1.000    3.750    3.000    1.750    3.250 
#    0.000    0.000    0.000    3.000    0.000    0.875 
#    0.000    0.000    0.000    0.000    0.000    0.000 
#
# Total GULP energy -357367.776688 kJ/mol
# GULP energy per Si atom -5583.871511 kJ/mol
# Density = 2.159294 g / cm^3
# Si number density = 21.642201 Si / 1000 Ang^3
#
#
#
# Elastic Constant Matrix: (Units=GPa)
#
#
# Indices 1 2 3 4 5 6 
#
# 1 95.2476 6.5687 7.5009 0.0000 0.0000 0.0000
# 2 6.5687 54.3441 4.6550 0.0000 0.0000 0.0000
# 3 7.5009 4.6550 71.5606 0.0000 0.0000 0.0000
# 4 0.0000 0.0000 0.0000 41.7638 0.0000 0.0000
# 5 0.0000 0.0000 0.0000 0.0000 30.0343 0.0000
# 6 0.0000 0.0000 0.0000 0.0000 0.0000 21.0754
#
#
#
# Elastic Compliance Matrix: (Units=1/GPa)
#
#
# Indices 1 2 3 4 5 6 
#
# 1 0.010664 -0.001200 -0.001040 0.000000 0.000000 0.000000
# 2 -0.001200 0.018639 -0.001087 0.000000 0.000000 0.000000
# 3 -0.001040 -0.001087 0.014154 0.000000 0.000000 0.000000
# 4 0.000000 0.000000 0.000000 0.023944 0.000000 0.000000
# 5 0.000000 0.000000 0.000000 0.000000 0.033295 0.000000
# 6 0.000000 0.000000 0.000000 0.000000 0.000000 0.047449
#
#
# Mechanical properties :
#
#
# Convention : Reuss Voigt Hill
#
# Bulk Modulus (GPa) = 27.17078 28.73349 27.95214
# Shear Modulus (GPa) = 29.92836 32.06987 30.99911
#
# Velocity S-wave (km/s) = 3.72273 3.85362 3.78874
# Velocity P-wave (km/s) = 5.57316 5.75378 5.66419
#
# Compressibility (1/GPa) = 0.03680424
#
# Stress axis : x y z
#
# Youngs Moduli (GPa) = 93.77714 53.64982 70.65221
#
# Poissons Ratio (x) = 0.06437 0.07346
# Poissons Ratio (y) = 0.11252 0.07678
# Poissons Ratio (z) = 0.09750 0.05830
#
# Static dielectric constant tensor:
#      x y z
#    x 1.839000 0.000000 0.000000 
#    y 0.000000 1.755460 0.000000 
#    z 0.000000 0.000000 1.911630 
# 
# From -- ./inp_files/5454.got.cif
#   From: 2010.05.17/outbox.cif.g08.bks.cpg/sg53_3_cif.got.tgz:5454.got - 2010.06.03 12:45:16.
