data_PCOD9419139
_publ_section_title
;
Structure prediction by ZEFSAII (Michael W. Deem and Ramdas Pophale) SiO2 
 PCOD9419139
Probable space group: P M N A
;
_chemical_formula_sum "Si O2"
_cell_formula_units_Z 48
_cell_length_a 8.716838
_cell_length_b 8.041280
_cell_length_c 33.900627
_cell_angle_alpha 90.000000
_cell_angle_beta 90.000000
_cell_angle_gamma 90.000000
_cell_volume 2376.248688
_symmetry_space_group_name_H-M "P M N A"
_symmetry_group_IT_number 53
_symmetry_cell_setting 'orthorhombic'
loop_
_space_group_symop_operation_xyz
x,y,z
1/2-x,-y,1/2+z
x,-y,-z
1/2-x,y,1/2-z
-x,-y,-z
1/2+x,y,1/2-z
-x,y,z
1/2+x,-y,1/2+z
loop_
_atom_site_type_symbol
_atom_site_label
_atom_site_fract_x
_atom_site_fract_y
_atom_site_fract_z
Si Si1 0.177631 0.801864 0.995206
Si Si2 0.316432 0.333574 0.581705
Si Si3 0.683529 0.823324 0.156713
Si Si4 0.684074 0.507421 0.793827
Si Si5 0.181541 0.169402 0.162670
Si Si6 0.679579 0.304603 0.085618
O O1 0.280765 0.745425 0.958957
O O2 0.000000 0.755425 0.986306
O O3 0.219129 0.720849 0.037032
O O4 0.184854 0.000000 0.000000
O O5 0.500000 0.354318 0.584873
O O6 0.259354 0.201870 0.613820
O O7 0.231011 0.505114 0.590793
O O8 0.500000 0.830369 0.152867
O O9 0.724915 0.659800 0.182027
O O10 0.744541 0.994365 0.175113
O O11 0.750000 0.495906 0.750000
O O12 0.500000 0.519234 0.793021
O O13 0.750226 0.671817 0.814652
O O14 0.225060 0.197570 0.116852
O O15 0.000000 0.164194 0.167762
O O16 0.500000 0.285490 0.093960
#
# Coordination Sequence:
#
# PCOD9419139 Si02
#       6
#     8   8   8   8   8   8
#     4  10  22  39  58  86 123 166 219 275 328 389
#     4  11  22  38  63  92 127 172 223 270 326 392
#     4  11  24  43  69 100 137 175 220 273 330 393
#     4  11  25  46  72 102 136 173 215 268 329 395
#     4  12  25  43  70  99 134 177 224 273 329 395
#     4  12  24  39  61  90 127 171 221 274 332 390
#
# _framework density 20.199907
#
# number of rings (size 3 to 8) (size 9 to 14) (size 15 to 20)
#    0.000    0.833    1.667    6.000    0.000    7.667 
#    0.000    1.667    0.000    0.000    0.000    0.000 
#    0.000    0.000    0.000    0.000    0.000    0.000 
#
# Total GULP energy -268681.627763 kJ/mol
# GULP energy per Si atom -5597.533912 kJ/mol
# Density = 2.015393 g / cm^3
# Si number density = 20.199907 Si / 1000 Ang^3
#
#
#
# Elastic Constant Matrix: (Units=GPa)
#
#
# Indices 1 2 3 4 5 6 
#
# 1 59.5944 23.8043 23.3330 0.0000 0.0000 0.0000
# 2 23.8043 118.4987 25.6296 0.0000 0.0000 0.0000
# 3 23.3330 25.6296 90.1579 0.0000 0.0000 0.0000
# 4 0.0000 0.0000 0.0000 9.2730 0.0000 0.0000
# 5 0.0000 0.0000 0.0000 0.0000 11.8617 0.0000
# 6 0.0000 0.0000 0.0000 0.0000 0.0000 59.8519
#
#
#
# Elastic Compliance Matrix: (Units=1/GPa)
#
#
# Indices 1 2 3 4 5 6 
#
# 1 0.019645 -0.003033 -0.004222 0.000000 0.000000 0.000000
# 2 -0.003033 0.009460 -0.001904 0.000000 0.000000 0.000000
# 3 -0.004222 -0.001904 0.012726 0.000000 0.000000 0.000000
# 4 0.000000 0.000000 0.000000 0.107839 0.000000 0.000000
# 5 0.000000 0.000000 0.000000 0.000000 0.084305 0.000000
# 6 0.000000 0.000000 0.000000 0.000000 0.000000 0.016708
#
#
# Mechanical properties :
#
#
# Convention : Reuss Voigt Hill
#
# Bulk Modulus (GPa) = 42.53175 45.97607 44.25391
# Shear Modulus (GPa) = 18.06107 29.22959 23.64533
#
# Velocity S-wave (km/s) = 2.99342 3.80809 3.42507
# Velocity P-wave (km/s) = 5.74879 6.49195 6.13164
#
# Compressibility (1/GPa) = 0.02351184
#
# Stress axis : x y z
#
# Youngs Moduli (GPa) = 50.90459 105.70728 78.58172
#
# Poissons Ratio (x) = 0.32062 0.33176
# Poissons Ratio (y) = 0.15440 0.14964
# Poissons Ratio (z) = 0.21491 0.20130
#
# Static dielectric constant tensor:
#      x y z
#    x 1.676280 0.000000 0.000000 
#    y 0.000000 1.721400 0.000000 
#    z 0.000000 0.000000 1.704420 
# 
# From -- ./inp_files/37771.got.cif
#   From: 2010.05.17/outbox.cif.g08.bks.cpg/sg53_19_cif.got.tgz:37771.got - 2010.06.03 12:45:16.
