data_PCOD9420828
_publ_section_title
;
Structure prediction by ZEFSAII (Michael W. Deem and Ramdas Pophale) SiO2 
 PCOD9420828
Probable space group: P C C A
;
_chemical_formula_sum "Si O2"
_cell_formula_units_Z 48
_cell_length_a 5.117448
_cell_length_b 13.489789
_cell_length_c 31.000925
_cell_angle_alpha 90.000000
_cell_angle_beta 90.000000
_cell_angle_gamma 90.000000
_cell_volume 2140.095962
_symmetry_space_group_name_H-M "P C C A"
_symmetry_group_IT_number 54
_symmetry_cell_setting 'orthorhombic'
loop_
_space_group_symop_operation_xyz
x,y,z
1/2-x,-y,z
1/2+x,-y,1/2-z
-x,y,1/2-z
-x,-y,-z
1/2+x,y,-z
1/2-x,y,1/2+z
x,-y,1/2+z
loop_
_atom_site_type_symbol
_atom_site_label
_atom_site_fract_x
_atom_site_fract_y
_atom_site_fract_z
Si Si1 0.992706 0.349587 0.614462
Si Si2 0.424860 0.220398 0.794528
Si Si3 0.978991 0.390923 0.980597
Si Si4 0.003429 0.782857 0.612249
Si Si5 0.221174 0.118845 0.474077
Si Si6 0.923576 0.358430 0.793946
O O1 0.045149 0.403552 0.569935
O O2 0.200395 0.258131 0.611926
O O3 0.036959 0.406369 0.659287
O O4 0.696375 0.310532 0.613727
O O5 0.500000 0.165551 0.750000
O O6 0.463687 0.167592 0.840527
O O7 0.634697 0.311770 0.793798
O O8 0.134858 0.267270 0.793617
O O9 0.743503 0.339474 0.005023
O O10 0.000000 0.500000 0.000000
O O11 0.903837 0.842141 0.570675
O O12 0.516101 0.145927 0.487898
O O13 0.250000 0.000000 0.470256
O O14 0.000000 0.414910 0.750000
#
# Coordination Sequence:
#
# PCOD9420828 Si02
#       6
#     8   8   8   8   8   8
#     4  10  19  30  48  73  95 118 156 197 236 281
#     4   8  14  25  41  64  93 119 143 180 235 284
#     4  10  21  35  48  65  92 128 158 185 231 287
#     4  10  19  30  48  73  95 121 157 200 239 277
#     4  10  21  35  48  65  93 129 163 196 239 284
#     4   8  14  25  41  64  93 117 141 182 234 278
#
# _framework density 22.428899999999999
#
# number of rings (size 3 to 8) (size 9 to 14) (size 15 to 20)
#    0.000    2.667    0.000    2.000    0.000    4.000 
#    0.000    0.000    0.000    0.000    0.000   19.833 
#    0.000    0.000    0.000    0.000    0.000    0.000 
#
# Total GULP energy -267560.248131 kJ/mol
# GULP energy per Si atom -5574.171836 kJ/mol
# Density = 2.237785 g / cm^3
# Si number density = 22.428900 Si / 1000 Ang^3
#
#
#
# Elastic Constant Matrix: (Units=GPa)
#
#
# Indices 1 2 3 4 5 6 
#
# 1 128.5553 4.8294 9.2828 0.0000 0.0000 0.0000
# 2 4.8294 34.5099 13.5200 0.0000 0.0000 0.0000
# 3 9.2828 13.5200 237.4904 0.0000 0.0000 0.0000
# 4 0.0000 0.0000 0.0000 48.4542 0.0000 0.0000
# 5 0.0000 0.0000 0.0000 0.0000 34.0046 0.0000
# 6 0.0000 0.0000 0.0000 0.0000 0.0000 12.2845
#
#
#
# Elastic Compliance Matrix: (Units=1/GPa)
#
#
# Indices 1 2 3 4 5 6 
#
# 1 0.007834 -0.000999 -0.000249 0.000000 0.000000 0.000000
# 2 -0.000999 0.029766 -0.001655 0.000000 0.000000 0.000000
# 3 -0.000249 -0.001655 0.004315 0.000000 0.000000 0.000000
# 4 0.000000 0.000000 0.000000 0.020638 0.000000 0.000000
# 5 0.000000 0.000000 0.000000 0.000000 0.029408 0.000000
# 6 0.000000 0.000000 0.000000 0.000000 0.000000 0.081403
#
#
# Mechanical properties :
#
#
# Convention : Reuss Voigt Hill
#
# Bulk Modulus (GPa) = 27.69508 50.64666 39.17087
# Shear Modulus (GPa) = 26.14976 43.81023 34.98000
#
# Velocity S-wave (km/s) = 3.41823 4.42440 3.95346
# Velocity P-wave (km/s) = 5.28713 6.98072 6.19210
#
# Compressibility (1/GPa) = 0.03610749
#
# Stress axis : x y z
#
# Youngs Moduli (GPa) = 127.64421 33.59591 231.76645
#
# Poissons Ratio (x) = 0.03355 0.05779
# Poissons Ratio (y) = 0.12747 0.38368
# Poissons Ratio (z) = 0.03183 0.05562
#
# Static dielectric constant tensor:
#      x y z
#    x 1.817410 0.000000 0.000000 
#    y 0.000000 1.594230 0.000000 
#    z 0.000000 0.000000 1.935150 
# 
# From -- ./inp_files/27162.got.cif
#   From: 2010.05.17/outbox.cif.g08.bks.cpg/sg54_14_cif.got.tgz:27162.got - 2010.06.03 13:09:01.
