data_PCOD9420301
_publ_section_title
;
Structure prediction by ZEFSAII (Michael W. Deem and Ramdas Pophale) SiO2 
 PCOD9420301
Probable space group: P C C A
;
_chemical_formula_sum "Si O2"
_cell_formula_units_Z 48
_cell_length_a 13.132058
_cell_length_b 27.823754
_cell_length_c 5.489928
_cell_angle_alpha 90.000000
_cell_angle_beta 90.000000
_cell_angle_gamma 90.000000
_cell_volume 2005.927193
_symmetry_space_group_name_H-M "P C C A"
_symmetry_group_IT_number 54
_symmetry_cell_setting 'orthorhombic'
loop_
_space_group_symop_operation_xyz
x,y,z
1/2-x,-y,z
1/2+x,-y,1/2-z
-x,y,1/2-z
-x,-y,-z
1/2+x,y,-z
1/2-x,y,1/2+z
x,-y,1/2+z
loop_
_atom_site_type_symbol
_atom_site_label
_atom_site_fract_x
_atom_site_fract_y
_atom_site_fract_z
Si Si1 0.884308 0.519278 0.994448
Si Si2 0.863518 0.630874 0.877367
Si Si3 0.631114 0.981520 0.887635
Si Si4 0.628209 0.668504 0.879234
Si Si5 0.314717 0.123108 0.996531
Si Si6 0.184001 0.772955 0.057819
O O1 0.844861 0.511279 0.266320
O O2 0.869035 0.574841 0.935670
O O3 0.000000 0.500000 0.000000
O O4 0.910019 0.658705 0.108017
O O5 0.748352 0.652363 0.857004
O O6 0.907742 0.637803 0.608688
O O7 0.625732 0.926245 0.968912
O O8 0.750000 0.000000 0.863638
O O9 0.591113 0.987588 0.614372
O O10 0.619934 0.724380 0.947732
O O11 0.234790 0.122000 0.225583
O O12 0.368235 0.174826 0.031614
O O13 0.241594 0.771108 0.320359
#
# Coordination Sequence:
#
# PCOD9420301 Si02
#       6
#     8   8   8   8   8   8
#     4  10  21  37  52  66  85 109 136 162 188 227
#     4  10  18  30  48  65  84 108 131 156 195 239
#     4  10  14  20  26  35  53  77 112 157 196 232
#     4  10  17  30  43  65  88 106 128 162 203 249
#     4  10  16  20  29  42  57  86 118 149 193 241
#     4  10  16  25  36  51  75  98 123 154 194 250
#
# _framework density 23.929082999999999
#
# number of rings (size 3 to 8) (size 9 to 14) (size 15 to 20)
#    0.000    2.000    6.667    1.000    0.000    0.000 
#    0.000   10.000    0.000    0.000    0.000    0.000 
#    0.000    0.000    0.000    0.000    0.000    0.000 
#
# Total GULP energy -267897.149652 kJ/mol
# GULP energy per Si atom -5581.190618 kJ/mol
# Density = 2.387462 g / cm^3
# Si number density = 23.929083 Si / 1000 Ang^3
#
#
#
# Elastic Constant Matrix: (Units=GPa)
#
#
# Indices 1 2 3 4 5 6 
#
# 1 58.3409 -16.8172 10.9100 0.0000 0.0000 0.0000
# 2 -16.8172 169.4435 -19.1739 0.0000 0.0000 0.0000
# 3 10.9100 -19.1739 156.4315 0.0000 0.0000 0.0000
# 4 0.0000 0.0000 0.0000 46.2809 0.0000 0.0000
# 5 0.0000 0.0000 0.0000 0.0000 12.0433 0.0000
# 6 0.0000 0.0000 0.0000 0.0000 0.0000 10.4899
#
#
#
# Elastic Compliance Matrix: (Units=1/GPa)
#
#
# Indices 1 2 3 4 5 6 
#
# 1 0.017811 0.001650 -0.001040 0.000000 0.000000 0.000000
# 2 0.001650 0.006138 0.000637 0.000000 0.000000 0.000000
# 3 -0.001040 0.000637 0.006543 0.000000 0.000000 0.000000
# 4 0.000000 0.000000 0.000000 0.021607 0.000000 0.000000
# 5 0.000000 0.000000 0.000000 0.000000 0.083033 0.000000
# 6 0.000000 0.000000 0.000000 0.000000 0.000000 0.095329
#
#
# Mechanical properties :
#
#
# Convention : Reuss Voigt Hill
#
# Bulk Modulus (GPa) = 30.31579 37.11708 33.71644
# Shear Modulus (GPa) = 20.92381 41.04931 30.98656
#
# Velocity S-wave (km/s) = 2.96025 4.14630 3.60242
# Velocity P-wave (km/s) = 4.93767 6.20221 5.60571
#
# Compressibility (1/GPa) = 0.03298611
#
# Stress axis : x y z
#
# Youngs Moduli (GPa) = 56.14587 162.93170 152.83035
#
# Poissons Ratio (x) = -0.26884 0.15893
# Poissons Ratio (y) = -0.09264 -0.09738
# Poissons Ratio (z) = 0.05839 -0.10382
#
# Static dielectric constant tensor:
#      x y z
#    x 2.009160 0.000000 0.000000 
#    y 0.000000 1.857560 0.000000 
#    z 0.000000 0.000000 1.935080 
# 
# From -- ./inp_files/1044.got.cif
#   From: 2010.05.17/outbox.cif.g08.bks.cpg/sg54_1_cif.got.tgz:1044.got - 2010.06.03 13:09:01.
