data_PCOD9420739
_publ_section_title
;
Structure prediction by ZEFSAII (Michael W. Deem and Ramdas Pophale) SiO2 
 PCOD9420739
Probable space group: P C C A
;
_chemical_formula_sum "Si O2"
_cell_formula_units_Z 56
_cell_length_a 9.086955
_cell_length_b 22.361371
_cell_length_c 13.077474
_cell_angle_alpha 90.000000
_cell_angle_beta 90.000000
_cell_angle_gamma 90.000000
_cell_volume 2657.300503
_symmetry_space_group_name_H-M "P C C A"
_symmetry_group_IT_number 54
_symmetry_cell_setting 'orthorhombic'
loop_
_space_group_symop_operation_xyz
x,y,z
1/2-x,-y,z
1/2+x,-y,1/2-z
-x,y,1/2-z
-x,-y,-z
1/2+x,y,-z
1/2-x,y,1/2+z
x,-y,1/2+z
loop_
_atom_site_type_symbol
_atom_site_label
_atom_site_fract_x
_atom_site_fract_y
_atom_site_fract_z
Si Si1 0.813314 0.175966 0.567855
Si Si2 0.869975 0.542211 0.455928
Si Si3 0.131426 0.380785 0.924713
Si Si4 0.415304 0.278872 0.587797
Si Si5 0.092632 0.008942 0.658823
Si Si6 0.548292 0.908420 0.025118
Si Si7 0.769035 0.275698 0.194617
O O1 0.851327 0.225484 0.481374
O O2 0.656821 0.143224 0.561663
O O3 0.820550 0.215219 0.670546
O O4 0.924454 0.123046 0.543264
O O5 0.750000 0.500000 0.399369
O O6 0.766320 0.575180 0.541092
O O7 0.000000 0.500000 0.500000
O O8 0.974533 0.589054 0.397961
O O9 0.183872 0.334791 0.839205
O O10 0.100680 0.339909 0.024598
O O11 0.321470 0.280316 0.690495
O O12 0.584905 0.271623 0.622303
O O13 0.000000 0.037533 0.750000
O O14 0.015659 0.948251 0.617573
O O15 0.250000 0.000000 0.708075
O O16 0.121228 0.047046 0.556574
#
# Coordination Sequence:
#
# PCOD9420739 Si02
#       7
#     8   8   8   8   8   8   8
#     4  11  22  40  62  89 120 160 197 256 301 360
#     4   9  18  32  58  87 115 157 204 239 291 352
#     4  10  18  36  58  85 120 159 194 247 300 353
#     4  10  21  36  59  90 119 156 203 243 304 369
#     4  11  26  42  64  92 119 160 207 248 307 373
#     4  11  24  43  62  84 125 158 202 252 306 362
#     4  10  21  36  60  88 119 160 200 245 302 369
#
# _framework density 21.074019
#
# number of rings (size 3 to 8) (size 9 to 14) (size 15 to 20)
#    0.000    1.714    4.286    0.000    2.000    2.286 
#    0.000    2.143    0.000   12.857    0.000    0.000 
#    0.000    0.000    0.000    0.000    0.000    0.000 
#
# Total GULP energy -312282.620490 kJ/mol
# GULP energy per Si atom -5576.475366 kJ/mol
# Density = 2.102605 g / cm^3
# Si number density = 21.074019 Si / 1000 Ang^3
#
#
#
# Elastic Constant Matrix: (Units=GPa)
#
#
# Indices 1 2 3 4 5 6 
#
# 1 71.2471 25.3277 11.0158 0.0000 0.0000 0.0000
# 2 25.3277 89.9470 15.9808 0.0000 0.0000 0.0000
# 3 11.0158 15.9808 37.5613 0.0000 0.0000 0.0000
# 4 0.0000 0.0000 0.0000 -3.0134 0.0000 0.0000
# 5 0.0000 0.0000 0.0000 0.0000 18.4108 0.0000
# 6 0.0000 0.0000 0.0000 0.0000 0.0000 51.8577
#
#
#
# Elastic Compliance Matrix: (Units=1/GPa)
#
#
# Indices 1 2 3 4 5 6 
#
# 1 0.015900 -0.003947 -0.002984 0.000000 0.000000 0.000000
# 2 -0.003947 0.013007 -0.004376 0.000000 0.000000 0.000000
# 3 -0.002984 -0.004376 0.029360 0.000000 0.000000 0.000000
# 4 0.000000 0.000000 0.000000 -0.331848 0.000000 0.000000
# 5 0.000000 0.000000 0.000000 0.000000 0.054316 0.000000
# 6 0.000000 0.000000 0.000000 0.000000 0.000000 0.019284
#
#
# Mechanical properties :
#
#
# Convention : Reuss Voigt Hill
#
# Bulk Modulus (GPa) = 28.04839 33.71158 30.87998
# Shear Modulus (GPa) = -30.21457 23.21308 -3.50074
#
# Velocity S-wave (km/s) = -3.79058 3.32249 -1.29026
# Velocity P-wave (km/s) = 2.41239 5.54527 3.53061
#
# Compressibility (1/GPa) = 0.03565267
#
# Stress axis : x y z
#
# Youngs Moduli (GPa) = 62.89246 76.88389 34.05981
#
# Poissons Ratio (x) = 0.30347 0.10163
# Poissons Ratio (y) = 0.24824 0.14905
# Poissons Ratio (z) = 0.18766 0.33646
#
# Static dielectric constant tensor:
#      x y z
#    x 1.793780 0.000000 0.000000 
#    y 0.000000 1.810000 0.000000 
#    z 0.000000 0.000000 1.704530 
# 
# From -- ./inp_files/11869.got.cif
#   From: 2010.05.17/outbox.cif.g08.bks.cpg/sg54_6_cif.got.tgz:11869.got - 2010.06.03 13:09:01.
