data_PCOD9420924
_publ_section_title
;
Structure prediction by ZEFSAII (Michael W. Deem and Ramdas Pophale) SiO2 
 PCOD9420924
Probable space group: P C C A
;
_chemical_formula_sum "Si O2"
_cell_formula_units_Z 56
_cell_length_a 15.256443
_cell_length_b 5.176720
_cell_length_c 32.294279
_cell_angle_alpha 90.000000
_cell_angle_beta 90.000000
_cell_angle_gamma 90.000000
_cell_volume 2550.548340
_symmetry_space_group_name_H-M "P C C A"
_symmetry_group_IT_number 54
_symmetry_cell_setting 'orthorhombic'
loop_
_space_group_symop_operation_xyz
x,y,z
1/2-x,-y,z
1/2+x,-y,1/2-z
-x,y,1/2-z
-x,-y,-z
1/2+x,y,-z
1/2-x,y,1/2+z
x,-y,1/2+z
loop_
_atom_site_type_symbol
_atom_site_label
_atom_site_fract_x
_atom_site_fract_y
_atom_site_fract_z
Si Si1 0.996338 0.751537 0.970338
Si Si2 0.394261 0.908889 0.641832
Si Si3 0.595619 0.416276 0.229625
Si Si4 0.897736 0.923099 0.763563
Si Si5 0.151521 0.473108 0.356979
Si Si6 0.087264 0.020587 0.895613
Si Si7 0.842059 0.607178 0.906129
O O1 0.069131 0.856576 0.937585
O O2 0.911932 0.680377 0.941797
O O3 0.000000 0.500000 0.000000
O O4 0.000000 0.000000 0.000000
O O5 0.372942 0.623542 0.624632
O O6 0.390087 0.963042 0.690583
O O7 0.492889 0.960730 0.626234
O O8 0.336086 0.130698 0.620136
O O9 0.500000 0.377255 0.250000
O O10 0.641418 0.642463 0.255453
O O11 0.587356 0.487522 0.181804
O O12 0.640468 0.139661 0.233463
O O13 0.000000 0.881899 0.750000
O O14 0.250000 0.500000 0.341741
O O15 0.145141 0.179762 0.370859
O O16 0.127263 0.690292 0.391808
O O17 0.750000 0.500000 0.923374
#
# Coordination Sequence:
#
# PCOD9420924 Si02
#       7
#     8   8   8   8   8   8   8
#     4  11  23  43  70  99 128 163 210 258 316 402
#     4  11  21  39  67  91 120 169 221 261 307 392
#     4  10  19  34  56  82 117 163 216 265 318 375
#     4  10  19  32  55  85 114 153 213 265 304 356
#     4  12  24  40  60  90 131 173 219 276 325 371
#     4  11  22  41  66  90 121 166 215 257 312 392
#     4  11  24  43  66  97 132 167 207 266 330 378
#
# _framework density 21.956061999999999
#
# number of rings (size 3 to 8) (size 9 to 14) (size 15 to 20)
#    0.000    1.143    0.000   10.286    0.000    0.000 
#    0.000    8.571    0.000    0.000    0.000    0.000 
#    0.000    0.000    0.000    0.000    0.000    0.000 
#
# Total GULP energy -312166.525124 kJ/mol
# GULP energy per Si atom -5574.402234 kJ/mol
# Density = 2.190609 g / cm^3
# Si number density = 21.956062 Si / 1000 Ang^3
#
#
#
# Elastic Constant Matrix: (Units=GPa)
#
#
# Indices 1 2 3 4 5 6 
#
# 1 54.2216 16.9771 12.8863 0.0000 0.0000 0.0000
# 2 16.9771 169.8158 25.5194 0.0000 0.0000 0.0000
# 3 12.8863 25.5194 95.7598 0.0000 0.0000 0.0000
# 4 0.0000 0.0000 0.0000 59.1397 0.0000 0.0000
# 5 0.0000 0.0000 0.0000 0.0000 -9.8421 0.0000
# 6 0.0000 0.0000 0.0000 0.0000 0.0000 32.0923
#
#
#
# Elastic Compliance Matrix: (Units=1/GPa)
#
#
# Indices 1 2 3 4 5 6 
#
# 1 0.019469 -0.001617 -0.002189 0.000000 0.000000 0.000000
# 2 -0.001617 0.006269 -0.001453 0.000000 0.000000 0.000000
# 3 -0.002189 -0.001453 0.011125 0.000000 0.000000 0.000000
# 4 0.000000 0.000000 0.000000 0.016909 0.000000 0.000000
# 5 0.000000 0.000000 0.000000 0.000000 -0.101605 0.000000
# 6 0.000000 0.000000 0.000000 0.000000 0.000000 0.031160
#
#
# Mechanical properties :
#
#
# Convention : Reuss Voigt Hill
#
# Bulk Modulus (GPa) = 37.95913 47.84030 42.89972
# Shear Modulus (GPa) = 1902.92598 33.90562 968.41580
#
# Velocity S-wave (km/s) = 29.47166 3.93396 21.02445
# Velocity P-wave (km/s) = 34.28456 6.51698 24.67694
#
# Compressibility (1/GPa) = 0.02634412
#
# Stress axis : x y z
#
# Youngs Moduli (GPa) = 51.36241 159.52064 89.89128
#
# Poissons Ratio (x) = 0.25802 0.19677
# Poissons Ratio (y) = 0.08308 0.13061
# Poissons Ratio (z) = 0.11243 0.23177
#
# Static dielectric constant tensor:
#      x y z
#    x 1.973490 0.000000 0.000000 
#    y 0.000000 1.869240 0.000000 
#    z 0.000000 0.000000 1.851640 
# 
# From -- ./inp_files/28251.got.cif
#   From: 2010.05.17/outbox.cif.g08.bks.cpg/sg54_15_cif.got.tgz:28251.got - 2010.06.03 13:09:01.
