data_PCOD9420146
_publ_section_title
;
Structure prediction by ZEFSAII (Michael W. Deem and Ramdas Pophale) SiO2 
 PCOD9420146
Probable space group: P M N A
;
_chemical_formula_sum "Si O2"
_cell_formula_units_Z 52
_cell_length_a 9.000000
_cell_length_b 12.000000
_cell_length_c 27.000000
_cell_angle_alpha 90.000000
_cell_angle_beta 90.000000
_cell_angle_gamma 90.000000
_cell_volume 2916.000000
_symmetry_space_group_name_H-M "P M N A"
_symmetry_group_IT_number 53
_symmetry_cell_setting 'orthorhombic'
loop_
_space_group_symop_operation_xyz
x,y,z
1/2-x,-y,1/2+z
x,-y,-z
1/2-x,y,1/2-z
-x,-y,-z
1/2+x,y,1/2-z
-x,y,z
1/2+x,-y,1/2+z
loop_
_atom_site_type_symbol
_atom_site_label
_atom_site_fract_x
_atom_site_fract_y
_atom_site_fract_z
Si Si1 0.250000 0.196160 0.250000
Si Si2 0.170944 0.631273 0.664257
Si Si3 0.820353 0.871630 0.486304
Si Si4 0.177425 0.221725 0.083000
Si Si5 0.821781 0.179574 0.627049
Si Si6 0.679908 0.617186 0.196698
Si Si7 0.168578 0.033543 0.162439
O O1 0.324014 0.281751 0.210563
O O2 0.172348 0.110377 0.211633
O O3 0.263513 0.679092 0.618072
O O4 0.222730 0.509373 0.681891
O O5 0.000000 0.622030 0.648414
O O6 0.751922 0.794492 0.529517
O O7 0.771752 0.839248 0.430227
O O8 0.000000 0.864015 0.488297
O O9 0.780094 0.000000 0.500000
O O10 0.000000 0.228973 0.078095
O O11 0.213037 0.112621 0.116461
O O12 0.774979 0.293368 0.654628
O O13 0.770386 0.074778 0.660209
O O14 0.000000 0.180161 0.625280
O O15 0.750000 0.644565 0.250000
O O16 0.500000 0.619836 0.200948
O O17 0.000000 0.996243 0.154720
#
# Coordination Sequence:
#
# PCOD9420146 Si02
#       7
#     4   8   8   8   8   8   8
#     4  10  20  34  54  82 110 142 186 232 276 328
#     4  10  20  37  60  82 109 147 189 230 278 332
#     4  10  19  35  58  82 110 151 191 229 281 340
#     4  10  21  35  56  86 115 142 182 235 284 332
#     4  10  22  38  56  81 114 148 188 228 272 337
#     4  10  22  40  60  83 111 149 189 229 273 328
#     4  10  21  34  51  80 113 143 178 224 279 329
#
# _framework density 17.832647000000001
#
# number of rings (size 3 to 8) (size 9 to 14) (size 15 to 20)
#    0.000    2.000    2.308    0.923    1.077    5.846 
#    0.000    0.769    0.000    4.615    0.000    0.000 
#    0.000    0.000    0.000    0.000    0.000    0.000 
#
# Total GULP energy -289817.122914 kJ/mol
# GULP energy per Si atom -5573.406210 kJ/mol
# Density = 1.779206 g / cm^3
# Si number density = 17.832647 Si / 1000 Ang^3
#
#
#
# Elastic Constant Matrix: (Units=GPa)
#
#
# Indices 1 2 3 4 5 6 
#
# 1 15.6968 30.8578 25.9955 0.0000 0.0000 0.0000
# 2 30.8578 103.9733 74.4112 0.0000 0.0000 0.0000
# 3 25.9955 74.4112 136.3299 0.0000 0.0000 0.0000
# 4 0.0000 0.0000 0.0000 31.2790 0.0000 0.0000
# 5 0.0000 0.0000 0.0000 0.0000 26.1356 0.0000
# 6 0.0000 0.0000 0.0000 0.0000 0.0000 19.8582
#
#
#
# Elastic Compliance Matrix: (Units=1/GPa)
#
#
# Indices 1 2 3 4 5 6 
#
# 1 0.157369 -0.041402 -0.007409 0.000000 0.000000 0.000000
# 2 -0.041402 0.026676 -0.006665 0.000000 0.000000 0.000000
# 3 -0.007409 -0.006665 0.012386 0.000000 0.000000 0.000000
# 4 0.000000 0.000000 0.000000 0.031970 0.000000 0.000000
# 5 0.000000 0.000000 0.000000 0.000000 0.038262 0.000000
# 6 0.000000 0.000000 0.000000 0.000000 0.000000 0.050357
#
#
# Mechanical properties :
#
#
# Convention : Reuss Voigt Hill
#
# Bulk Modulus (GPa) = 11.69909 57.61433 34.65671
# Shear Modulus (GPa) = 10.95372 23.77026 17.36199
#
# Velocity S-wave (km/s) = 2.48110 3.65494 3.12365
# Velocity P-wave (km/s) = 3.84481 7.08448 5.69967
#
# Compressibility (1/GPa) = 0.08547673
#
# Stress axis : x y z
#
# Youngs Moduli (GPa) = 6.35451 37.48715 80.73599
#
# Poissons Ratio (x) = 1.55205 0.59818
# Poissons Ratio (y) = 0.26309 0.53815
# Poissons Ratio (z) = 0.04708 0.24987
#
# Static dielectric constant tensor:
#      x y z
#    x 1.617440 0.000000 0.000000 
#    y 0.000000 1.611720 0.000000 
#    z 0.000000 0.000000 1.597130 
# 
# From -- ./inp_files/36244.got.cif
#   From: 2010.05.17/outbox.ucp.g08.bks.cvg/sg53_19_cif.got.tgz:36244.got - 2010.06.11 16:32:34.
