data_PCOD9420405
_publ_section_title
;
Structure prediction by ZEFSAII (Michael W. Deem and Ramdas Pophale) SiO2 
 PCOD9420405
Probable space group: P C C A
;
_chemical_formula_sum "Si O2"
_cell_formula_units_Z 32
_cell_length_a 41.244118
_cell_length_b 6.864658
_cell_length_c 5.166967
_cell_angle_alpha 90.000000
_cell_angle_beta 90.000000
_cell_angle_gamma 90.000000
_cell_volume 1462.906649
_symmetry_space_group_name_H-M "P C C A"
_symmetry_group_IT_number 54
_symmetry_cell_setting 'orthorhombic'
loop_
_space_group_symop_operation_xyz
x,y,z
1/2-x,-y,z
1/2+x,-y,1/2-z
-x,y,1/2-z
-x,-y,-z
1/2+x,y,-z
1/2-x,y,1/2+z
x,-y,1/2+z
loop_
_atom_site_type_symbol
_atom_site_label
_atom_site_fract_x
_atom_site_fract_y
_atom_site_fract_z
Si Si1 0.397524 0.372906 0.191452
Si Si2 0.736846 0.777222 0.610859
Si Si3 0.534007 0.633936 0.691945
Si Si4 0.665394 0.875273 0.681229
O O1 0.397628 0.551296 0.397498
O O2 0.431622 0.264638 0.252433
O O3 0.365447 0.253949 0.252528
O O4 0.739230 0.692676 0.324998
O O5 0.700412 0.775978 0.713935
O O6 0.750000 0.000000 0.568984
O O7 0.500000 0.740206 0.750000
O O8 0.533856 0.543715 0.403752
O O9 0.664511 0.948564 0.386460
#
# Coordination Sequence:
#
# PCOD9420405 Si02
#       4
#     8   8   8   8
#     4  10  21  36  52  77 112 138 162 212 269 306
#     4  10  16  30  49  75  91 121 172 225 235 278
#     4   8  14  27  49  72  94 130 176 206 232 291
#     4  12  21  33  56  81 100 134 177 217 251 306
#
# _framework density 21.87426
#
# number of rings (size 3 to 8) (size 9 to 14) (size 15 to 20)
#    0.000    2.000    5.000    1.500    0.000    0.000 
#    0.000    0.000    0.000    6.000    0.000    0.000 
#    0.000    0.000    0.000    0.000    0.000    0.000 
#
# Total GULP energy -178397.691097 kJ/mol
# GULP energy per Si atom -5574.927847 kJ/mol
# Density = 2.182447 g / cm^3
# Si number density = 21.874260 Si / 1000 Ang^3
#
#
#
# Elastic Constant Matrix: (Units=GPa)
#
#
# Indices 1 2 3 4 5 6 
#
# 1 183.8426 7.6468 -12.2665 0.0000 0.0000 0.0000
# 2 7.6468 17.3543 -10.0573 0.0000 0.0000 0.0000
# 3 -12.2665 -10.0573 105.7103 0.0000 0.0000 0.0000
# 4 0.0000 0.0000 0.0000 -17.1416 0.0000 0.0000
# 5 0.0000 0.0000 0.0000 0.0000 32.8642 0.0000
# 6 0.0000 0.0000 0.0000 0.0000 0.0000 144.2116
#
#
#
# Elastic Compliance Matrix: (Units=1/GPa)
#
#
# Indices 1 2 3 4 5 6 
#
# 1 0.005560 -0.002197 0.000436 0.000000 0.000000 0.000000
# 2 -0.002197 0.061853 0.005630 0.000000 0.000000 0.000000
# 3 0.000436 0.005630 0.010046 0.000000 0.000000 0.000000
# 4 0.000000 0.000000 0.000000 -0.058338 0.000000 0.000000
# 5 0.000000 0.000000 0.000000 0.000000 0.030428 0.000000
# 6 0.000000 0.000000 0.000000 0.000000 0.000000 0.006934
#
#
# Mechanical properties :
#
#
# Convention : Reuss Voigt Hill
#
# Bulk Modulus (GPa) = 11.73751 30.83924 21.28838
# Shear Modulus (GPa) = 64.81254 53.42578 59.11916
#
# Velocity S-wave (km/s) = 5.44921 4.94743 5.20437
# Velocity P-wave (km/s) = 6.70593 6.83850 6.77254
#
# Compressibility (1/GPa) = 0.08519693
#
# Stress axis : x y z
#
# Youngs Moduli (GPa) = 179.85861 16.16727 99.54166
#
# Poissons Ratio (x) = 0.03552 -0.04341
# Poissons Ratio (y) = 0.39517 -0.56040
# Poissons Ratio (z) = -0.07844 -0.09102
#
# Static dielectric constant tensor:
#      x y z
#    x 1.900270 0.000000 0.000000 
#    y 0.000000 2.190590 0.000000 
#    z 0.000000 0.000000 1.828560 
# 
# From -- ./inp_files/2077.got.cif
#   From: 2010.05.17/outbox.cif.g08.bks.cpg/sg54_2_cif.got.tgz:2077.got - 2010.06.03 13:09:01.
