data_PCOD9420887
_publ_section_title
;
Structure prediction by ZEFSAII (Michael W. Deem and Ramdas Pophale) SiO2 
 PCOD9420887
Probable space group: P C C A
;
_chemical_formula_sum "Si O2"
_cell_formula_units_Z 48
_cell_length_a 16.344431
_cell_length_b 5.233046
_cell_length_c 24.429280
_cell_angle_alpha 90.000000
_cell_angle_beta 90.000000
_cell_angle_gamma 90.000000
_cell_volume 2089.464638
_symmetry_space_group_name_H-M "P C C A"
_symmetry_group_IT_number 54
_symmetry_cell_setting 'orthorhombic'
loop_
_space_group_symop_operation_xyz
x,y,z
1/2-x,-y,z
1/2+x,-y,1/2-z
-x,y,1/2-z
-x,-y,-z
1/2+x,y,-z
1/2-x,y,1/2+z
x,-y,1/2+z
loop_
_atom_site_type_symbol
_atom_site_label
_atom_site_fract_x
_atom_site_fract_y
_atom_site_fract_z
Si Si1 0.799210 0.752246 0.539862
Si Si2 0.592254 0.655408 0.947651
Si Si3 0.729784 0.248557 0.157465
Si Si4 0.480207 0.871691 0.186635
Si Si5 0.162877 0.146947 0.111243
Si Si6 0.547011 0.374212 0.130140
O O1 0.750000 0.500000 0.524783
O O2 0.884893 0.707589 0.510689
O O3 0.792099 0.767690 0.605450
O O4 0.750000 0.000000 0.518745
O O5 0.646332 0.419648 0.920835
O O6 0.499460 0.619471 0.927951
O O7 0.615437 0.928546 0.921981
O O8 0.750000 0.500000 0.190287
O O9 0.640588 0.282975 0.131444
O O10 0.750000 0.000000 0.191043
O O11 0.500000 0.850125 0.250000
O O12 0.386698 0.820994 0.168073
O O13 0.532821 0.652478 0.156074
O O14 0.503216 0.156266 0.166690
O O15 0.250000 0.000000 0.118236
#
# Coordination Sequence:
#
# PCOD9420887 Si02
#       6
#     8   8   8   8   8   8
#     4  10  19  32  51  77 109 145 186 232 274 324
#     4  10  19  32  54  81 109 146 186 229 285 331
#     4  10  21  38  56  79 112 152 194 235 279 336
#     4  10  21  38  60  86 114 146 187 239 291 346
#     4  10  19  32  54  82 112 142 181 230 284 344
#     4  10  21  38  59  81 112 153 190 231 290 349
#
# _framework density 22.972391999999999
#
# number of rings (size 3 to 8) (size 9 to 14) (size 15 to 20)
#    0.000    2.000    0.000    4.500    0.000    0.000 
#    0.000    9.167    0.000    2.000    0.000    2.333 
#    0.000    0.000    0.000    0.000    0.000    0.000 
#
# Total GULP energy -267486.609783 kJ/mol
# GULP energy per Si atom -5572.637704 kJ/mol
# Density = 2.292011 g / cm^3
# Si number density = 22.972392 Si / 1000 Ang^3
#
#
#
# Elastic Constant Matrix: (Units=GPa)
#
#
# Indices 1 2 3 4 5 6 
#
# 1 61.2707 -3.5153 -5.5177 0.0000 0.0000 0.0000
# 2 -3.5153 134.6967 -13.0088 0.0000 0.0000 0.0000
# 3 -5.5177 -13.0088 21.7387 0.0000 0.0000 0.0000
# 4 0.0000 0.0000 0.0000 38.8268 0.0000 0.0000
# 5 0.0000 0.0000 0.0000 0.0000 26.7681 0.0000
# 6 0.0000 0.0000 0.0000 0.0000 0.0000 11.6918
#
#
#
# Elastic Compliance Matrix: (Units=1/GPa)
#
#
# Indices 1 2 3 4 5 6 
#
# 1 0.016806 0.000903 0.004806 0.000000 0.000000 0.000000
# 2 0.000903 0.007928 0.004973 0.000000 0.000000 0.000000
# 3 0.004806 0.004973 0.050197 0.000000 0.000000 0.000000
# 4 0.000000 0.000000 0.000000 0.025755 0.000000 0.000000
# 5 0.000000 0.000000 0.000000 0.000000 0.037358 0.000000
# 6 0.000000 0.000000 0.000000 0.000000 0.000000 0.085530
#
#
# Mechanical properties :
#
#
# Convention : Reuss Voigt Hill
#
# Bulk Modulus (GPa) = 10.38488 19.29142 14.83815
# Shear Modulus (GPa) = 21.33947 31.44056 26.39002
#
# Velocity S-wave (km/s) = 3.05112 3.70350 3.39303
# Velocity P-wave (km/s) = 4.11617 5.16757 4.67155
#
# Compressibility (1/GPa) = 0.09629385
#
# Stress axis : x y z
#
# Youngs Moduli (GPa) = 59.50406 126.13583 19.92162
#
# Poissons Ratio (x) = -0.11386 -0.09574
# Poissons Ratio (y) = -0.05372 -0.09908
# Poissons Ratio (z) = -0.28596 -0.62732
#
# Static dielectric constant tensor:
#      x y z
#    x 1.828540 0.000000 0.000000 
#    y 0.000000 1.964220 0.000000 
#    z 0.000000 0.000000 1.845560 
# 
# From -- ./inp_files/26435.got.cif
#   From: 2010.05.17/outbox.cif.g08.bks.cpg/sg54_14_cif.got.tgz:26435.got - 2010.06.03 13:09:01.
