data_PCOD9420171
_publ_section_title
;
Structure prediction by ZEFSAII (Michael W. Deem and Ramdas Pophale) SiO2 
 PCOD9420171
Probable space group: P M N A
;
_chemical_formula_sum "Si O2"
_cell_formula_units_Z 64
_cell_length_a 9.000000
_cell_length_b 12.000000
_cell_length_c 30.000000
_cell_angle_alpha 90.000000
_cell_angle_beta 90.000000
_cell_angle_gamma 90.000000
_cell_volume 3240.000000
_symmetry_space_group_name_H-M "P M N A"
_symmetry_group_IT_number 53
_symmetry_cell_setting 'orthorhombic'
loop_
_space_group_symop_operation_xyz
x,y,z
1/2-x,-y,1/2+z
x,-y,-z
1/2-x,y,1/2-z
-x,-y,-z
1/2+x,y,1/2-z
-x,y,z
1/2+x,-y,1/2+z
loop_
_atom_site_type_symbol
_atom_site_label
_atom_site_fract_x
_atom_site_fract_y
_atom_site_fract_z
Si Si1 0.178659 0.810558 0.297983
Si Si2 0.668119 0.003611 0.451646
Si Si3 0.324329 0.238930 0.142787
Si Si4 0.333223 0.268613 0.445735
Si Si5 0.320227 0.998370 0.354615
Si Si6 0.820413 0.619966 0.370449
Si Si7 0.823523 0.617826 0.474064
Si Si8 0.176602 0.555880 0.702411
O O1 0.250000 0.779259 0.250000
O O2 0.212135 0.726158 0.339006
O O3 0.000000 0.816350 0.293071
O O4 0.248781 0.925299 0.315762
O O5 0.500000 0.956123 0.457070
O O6 0.745456 0.000000 0.500000
O O7 0.656184 0.135246 0.443259
O O8 0.729172 0.957609 0.404760
O O9 0.500000 0.217538 0.137408
O O10 0.266548 0.298075 0.097216
O O11 0.236869 0.124445 0.149670
O O12 0.301770 0.318988 0.184874
O O13 0.500000 0.315366 0.442081
O O14 0.262403 0.299024 0.493130
O O15 0.500000 0.994001 0.353655
O O16 0.770068 0.618751 0.422319
O O17 0.767220 0.519770 0.338637
O O18 0.000000 0.610460 0.373677
O O19 0.805756 0.500000 0.500000
O O20 0.000000 0.643578 0.473891
O O21 0.250000 0.534064 0.750000
O O22 0.000000 0.535085 0.706895
#
# Coordination Sequence:
#
# PCOD9420171 Si02
#       8
#     8   8   8   8   8   8   8   8
#     4  11  23  40  61  84 116 155 201 251 297 350
#     4   8  16  31  51  76 109 147 180 219 273 333
#     4  10  20  37  60  85 118 158 196 236 289 353
#     4  10  20  33  53  82 115 149 187 235 283 332
#     4  10  21  37  59  86 119 155 195 242 294 346
#     4   9  20  38  59  85 117 152 194 240 289 351
#     4  10  20  36  58  82 114 157 195 231 285 354
#     4  10  21  38  61  86 111 145 187 237 294 350
#
# _framework density 19.753086
#
# number of rings (size 3 to 8) (size 9 to 14) (size 15 to 20)
#    0.000    2.250    0.000    3.375    1.750    3.750 
#    0.000    3.125    0.000    2.250    0.000    0.000 
#    0.000    0.000    0.000    0.000    0.000    0.000 
#
# Total GULP energy -356693.020798 kJ/mol
# GULP energy per Si atom -5573.328450 kJ/mol
# Density = 1.970813 g / cm^3
# Si number density = 19.753086 Si / 1000 Ang^3
#
#
#
# Elastic Constant Matrix: (Units=GPa)
#
#
# Indices 1 2 3 4 5 6 
#
# 1 54.6304 30.5061 41.1708 0.0000 0.0000 0.0000
# 2 30.5061 51.4454 37.1348 0.0000 0.0000 0.0000
# 3 41.1708 37.1348 156.0827 0.0000 0.0000 0.0000
# 4 0.0000 0.0000 0.0000 25.5349 0.0000 0.0000
# 5 0.0000 0.0000 0.0000 0.0000 35.5004 0.0000
# 6 0.0000 0.0000 0.0000 0.0000 0.0000 8.8622
#
#
#
# Elastic Compliance Matrix: (Units=1/GPa)
#
#
# Indices 1 2 3 4 5 6 
#
# 1 0.029670 -0.014421 -0.004395 0.000000 0.000000 0.000000
# 2 -0.014421 0.030478 -0.003447 0.000000 0.000000 0.000000
# 3 -0.004395 -0.003447 0.008386 0.000000 0.000000 0.000000
# 4 0.000000 0.000000 0.000000 0.039162 0.000000 0.000000
# 5 0.000000 0.000000 0.000000 0.000000 0.028169 0.000000
# 6 0.000000 0.000000 0.000000 0.000000 0.000000 0.112838
#
#
# Mechanical properties :
#
#
# Convention : Reuss Voigt Hill
#
# Bulk Modulus (GPa) = 41.65443 53.30911 47.48177
# Shear Modulus (GPa) = 16.59845 24.20262 20.40053
#
# Velocity S-wave (km/s) = 2.90193 3.50417 3.21717
# Velocity P-wave (km/s) = 5.68873 6.58928 6.15549
#
# Compressibility (1/GPa) = 0.02400705
#
# Stress axis : x y z
#
# Youngs Moduli (GPa) = 33.70404 32.81072 119.24113
#
# Poissons Ratio (x) = 0.47317 0.52409
# Poissons Ratio (y) = 0.48605 0.41106
# Poissons Ratio (z) = 0.14814 0.11311
#
# Static dielectric constant tensor:
#      x y z
#    x 1.677390 0.000000 0.000000 
#    y 0.000000 1.754730 0.000000 
#    z 0.000000 0.000000 1.717470 
# 
# From -- ./inp_files/38143.got.cif
#   From: 2010.05.17/outbox.ucp.g08.bks.cvg/sg53_20_cif.got.tgz:38143.got - 2010.06.11 16:32:34.
