data_PCOD9420725
_publ_section_title
;
Structure prediction by ZEFSAII (Michael W. Deem and Ramdas Pophale) SiO2 
 PCOD9420725
Probable space group: P C C A
;
_chemical_formula_sum "Si O2"
_cell_formula_units_Z 40
_cell_length_a 8.680704
_cell_length_b 15.068406
_cell_length_c 14.255491
_cell_angle_alpha 90.000000
_cell_angle_beta 90.000000
_cell_angle_gamma 90.000000
_cell_volume 1864.680551
_symmetry_space_group_name_H-M "P C C A"
_symmetry_group_IT_number 54
_symmetry_cell_setting 'orthorhombic'
loop_
_space_group_symop_operation_xyz
x,y,z
1/2-x,-y,z
1/2+x,-y,1/2-z
-x,y,1/2-z
-x,-y,-z
1/2+x,y,-z
1/2-x,y,1/2+z
x,-y,1/2+z
loop_
_atom_site_type_symbol
_atom_site_label
_atom_site_fract_x
_atom_site_fract_y
_atom_site_fract_z
Si Si1 0.629940 0.063927 0.544850
Si Si2 0.177179 0.659273 0.441906
Si Si3 0.629018 0.421266 0.402751
Si Si4 0.171679 0.262036 0.743326
Si Si5 0.361125 0.819803 0.083663
O O1 0.735370 0.117212 0.469542
O O2 0.524912 0.133989 0.597691
O O3 0.750000 0.000000 0.597938
O O4 0.500000 0.000000 0.500000
O O5 0.315813 0.617413 0.498145
O O6 0.219642 0.709029 0.346566
O O7 0.115404 0.735063 0.514235
O O8 0.055615 0.580799 0.416121
O O9 0.750000 0.500000 0.382918
O O10 0.651219 0.350099 0.320114
O O11 0.288177 0.205264 0.682695
O O12 0.000000 0.220546 0.750000
#
# Coordination Sequence:
#
# PCOD9420725 Si02
#       5
#     8   8   8   8   8
#     4   9  18  32  57  87 117 155 193 237 297 351
#     4  10  20  36  57  81 110 150 195 237 286 344
#     4  10  20  35  54  81 113 147 188 238 290 341
#     4   9  19  34  55  81 111 154 199 238 289 349
#     4  10  18  35  59  84 116 158 201 242 290 355
#
# _framework density 21.451395999999999
#
# number of rings (size 3 to 8) (size 9 to 14) (size 15 to 20)
#    0.000    2.400    0.000    4.200    0.000    0.800 
#    0.000   11.000    0.000   25.200    0.000    0.000 
#    0.000    0.000    0.000    0.000    0.000    0.000 
#
# Total GULP energy -222942.052721 kJ/mol
# GULP energy per Si atom -5573.551318 kJ/mol
# Density = 2.140257 g / cm^3
# Si number density = 21.451396 Si / 1000 Ang^3
#
#
#
# Elastic Constant Matrix: (Units=GPa)
#
#
# Indices 1 2 3 4 5 6 
#
# 1 127.8917 51.2723 49.3479 0.0000 0.0000 0.0000
# 2 51.2723 53.4909 14.6345 0.0000 0.0000 0.0000
# 3 49.3479 14.6345 107.4118 0.0000 0.0000 0.0000
# 4 0.0000 0.0000 0.0000 33.8246 0.0000 0.0000
# 5 0.0000 0.0000 0.0000 0.0000 22.4296 0.0000
# 6 0.0000 0.0000 0.0000 0.0000 0.0000 51.8030
#
#
#
# Elastic Compliance Matrix: (Units=1/GPa)
#
#
# Indices 1 2 3 4 5 6 
#
# 1 0.014997 -0.012973 -0.005122 0.000000 0.000000 0.000000
# 2 -0.012973 0.030641 0.001785 0.000000 0.000000 0.000000
# 3 -0.005122 0.001785 0.011420 0.000000 0.000000 0.000000
# 4 0.000000 0.000000 0.000000 0.029564 0.000000 0.000000
# 5 0.000000 0.000000 0.000000 0.000000 0.044584 0.000000
# 6 0.000000 0.000000 0.000000 0.000000 0.000000 0.019304
#
#
# Mechanical properties :
#
#
# Convention : Reuss Voigt Hill
#
# Bulk Modulus (GPa) = 40.91997 57.70040 49.31018
# Shear Modulus (GPa) = 26.14023 33.18076 29.66049
#
# Velocity S-wave (km/s) = 3.49460 3.93719 3.72248
# Velocity P-wave (km/s) = 5.94980 6.90110 6.44303
#
# Compressibility (1/GPa) = 0.02443794
#
# Stress axis : x y z
#
# Youngs Moduli (GPa) = 66.68190 32.63564 87.56550
#
# Poissons Ratio (x) = 0.42339 0.44854
# Poissons Ratio (y) = 0.86507 -0.15634
# Poissons Ratio (z) = 0.34156 -0.05827
#
# Static dielectric constant tensor:
#      x y z
#    x 1.875360 0.000000 0.000000 
#    y 0.000000 1.861990 0.000000 
#    z 0.000000 0.000000 1.746910 
# 
# From -- ./inp_files/11460.got.cif
#   From: 2010.05.17/outbox.cif.g08.bks.cpg/sg54_6_cif.got.tgz:11460.got - 2010.06.03 13:09:01.
