data_PCOD9420555
_publ_section_title
;
Structure prediction by ZEFSAII (Michael W. Deem and Ramdas Pophale) SiO2 
 PCOD9420555
Probable space group: P C C A
;
_chemical_formula_sum "Si O2"
_cell_formula_units_Z 48
_cell_length_a 8.503197
_cell_length_b 14.630584
_cell_length_c 13.972396
_cell_angle_alpha 90.000000
_cell_angle_beta 90.000000
_cell_angle_gamma 90.000000
_cell_volume 1738.260208
_symmetry_space_group_name_H-M "P C C A"
_symmetry_group_IT_number 54
_symmetry_cell_setting 'orthorhombic'
loop_
_space_group_symop_operation_xyz
x,y,z
1/2-x,-y,z
1/2+x,-y,1/2-z
-x,y,1/2-z
-x,-y,-z
1/2+x,y,-z
1/2-x,y,1/2+z
x,-y,1/2+z
loop_
_atom_site_type_symbol
_atom_site_label
_atom_site_fract_x
_atom_site_fract_y
_atom_site_fract_z
Si Si1 0.722876 0.219441 0.164404
Si Si2 0.446854 0.398797 0.974726
Si Si3 0.078671 0.110244 0.609166
Si Si4 0.318373 0.593797 0.277476
Si Si5 0.087131 0.060824 0.387568
Si Si6 0.234268 0.728555 0.560658
O O1 0.559225 0.166476 0.159949
O O2 0.737381 0.307237 0.233082
O O3 0.861953 0.145863 0.176720
O O4 0.738109 0.246001 0.052125
O O5 0.318771 0.413585 0.892449
O O6 0.578115 0.331266 0.929448
O O7 0.500000 0.500000 0.000000
O O8 0.377173 0.344550 0.065283
O O9 0.048110 0.097878 0.494564
O O10 0.230107 0.176013 0.613387
O O11 0.054268 0.006339 0.643681
O O12 0.250000 0.500000 0.235468
O O13 0.500000 0.596790 0.250000
O O14 0.250000 0.000000 0.396858
#
# Coordination Sequence:
#
# PCOD9420555 Si02
#       6
#     8   8   8   8   8   8
#     4   9  17  34  55  85 122 162 200 254 305 376
#     4  11  21  36  57  89 122 158 201 260 314 372
#     4   9  15  27  50  88 129 165 195 245 303 378
#     4  11  26  46  64  85 119 164 212 261 315 387
#     4   8  15  26  50  87 133 167 197 239 314 380
#     4  10  18  29  52  85 125 152 196 245 308 366
#
# _framework density 27.613816
#
# number of rings (size 3 to 8) (size 9 to 14) (size 15 to 20)
#    0.000    2.333    1.667    2.500    0.000    1.333 
#    0.000    0.000    0.000    0.000   13.000    0.000 
#    0.000    0.000    0.000    0.000    0.000    0.000 
#
# Total GULP energy -268311.461554 kJ/mol
# GULP energy per Si atom -5589.822116 kJ/mol
# Density = 2.755097 g / cm^3
# Si number density = 27.613816 Si / 1000 Ang^3
#
#
#
# Elastic Constant Matrix: (Units=GPa)
#
#
# Indices 1 2 3 4 5 6 
#
# 1 98.9665 81.4751 23.0128 0.0000 0.0000 0.0000
# 2 81.4751 240.9299 65.9970 0.0000 0.0000 0.0000
# 3 23.0128 65.9970 70.0855 0.0000 0.0000 0.0000
# 4 0.0000 0.0000 0.0000 28.8252 0.0000 0.0000
# 5 0.0000 0.0000 0.0000 0.0000 23.7051 0.0000
# 6 0.0000 0.0000 0.0000 0.0000 0.0000 65.4450
#
#
#
# Elastic Compliance Matrix: (Units=1/GPa)
#
#
# Indices 1 2 3 4 5 6 
#
# 1 0.014005 -0.004685 -0.000187 0.000000 0.000000 0.000000
# 2 -0.004685 0.007160 -0.005205 0.000000 0.000000 0.000000
# 3 -0.000187 -0.005205 0.019231 0.000000 0.000000 0.000000
# 4 0.000000 0.000000 0.000000 0.034692 0.000000 0.000000
# 5 0.000000 0.000000 0.000000 0.000000 0.042185 0.000000
# 6 0.000000 0.000000 0.000000 0.000000 0.000000 0.015280
#
#
# Mechanical properties :
#
#
# Convention : Reuss Voigt Hill
#
# Bulk Modulus (GPa) = 49.39939 83.43908 66.41924
# Shear Modulus (GPa) = 31.35724 39.56152 35.45938
#
# Velocity S-wave (km/s) = 3.37347 3.78917 3.58735
# Velocity P-wave (km/s) = 5.75343 7.03035 6.42369
#
# Compressibility (1/GPa) = 0.02024317
#
# Stress axis : x y z
#
# Youngs Moduli (GPa) = 71.40487 139.65587 52.00047
#
# Poissons Ratio (x) = 0.65425 0.00973
# Poissons Ratio (y) = 0.33451 0.27064
# Poissons Ratio (z) = 0.01336 0.72684
#
# Static dielectric constant tensor:
#      x y z
#    x 2.241250 0.000000 0.000000 
#    y 0.000000 2.284780 0.000000 
#    z 0.000000 0.000000 2.163680 
# 
# From -- ./inp_files/20411.got.cif
#   From: 2010.05.17/outbox.cif.g08.bks.cpg/sg54_11_cif.got.tgz:20411.got - 2010.06.03 13:09:01.
