data_PCOD9420974
_publ_section_title
;
Structure prediction by ZEFSAII (Michael W. Deem and Ramdas Pophale) SiO2 
 PCOD9420974
Probable space group: P C C A
;
_chemical_formula_sum "Si O2"
_cell_formula_units_Z 40
_cell_length_a 16.923314
_cell_length_b 4.922741
_cell_length_c 23.484273
_cell_angle_alpha 90.000000
_cell_angle_beta 90.000000
_cell_angle_gamma 90.000000
_cell_volume 1956.453452
_symmetry_space_group_name_H-M "P C C A"
_symmetry_group_IT_number 54
_symmetry_cell_setting 'orthorhombic'
loop_
_space_group_symop_operation_xyz
x,y,z
1/2-x,-y,z
1/2+x,-y,1/2-z
-x,y,1/2-z
-x,-y,-z
1/2+x,y,-z
1/2-x,y,1/2+z
x,-y,1/2+z
loop_
_atom_site_type_symbol
_atom_site_label
_atom_site_fract_x
_atom_site_fract_y
_atom_site_fract_z
Si Si1 0.808822 0.257158 0.295807
Si Si2 0.550463 0.355522 0.875299
Si Si3 0.838798 0.928715 0.119120
Si Si4 0.008776 0.155085 0.940826
Si Si5 0.396109 0.433866 0.814413
O O1 0.750000 0.500000 0.285607
O O2 0.861945 0.321604 0.351005
O O3 0.870345 0.283751 0.243259
O O4 0.750000 0.000000 0.298805
O O5 0.536269 0.563226 0.927901
O O6 0.489675 0.467075 0.826466
O O7 0.524719 0.055398 0.894071
O O8 0.898031 0.809687 0.072011
O O9 0.849689 0.713790 0.171383
O O10 0.750000 0.000000 0.102485
O O11 0.870637 0.220774 0.137593
O O12 0.000000 0.000000 0.000000
#
# Coordination Sequence:
#
# PCOD9420974 Si02
#       5
#     8   8   8   8   8
#     4  12  23  36  56  85 121 158 189 229 285 353
#     4  10  22  39  58  82 113 150 196 241 286 352
#     4  10  19  33  55  85 112 140 189 248 291 335
#     4  10  21  39  61  81 108 151 195 242 299 349
#     4  10  20  35  57  81 114 153 189 230 285 349
#
# _framework density 20.445156999999998
#
# number of rings (size 3 to 8) (size 9 to 14) (size 15 to 20)
#    0.000    1.600    0.000    6.000    0.000    0.000 
#    0.000   11.000    0.000    2.400    0.000    0.000 
#    0.000    0.000    0.000    0.000    0.000    0.000 
#
# Total GULP energy -222871.695999 kJ/mol
# GULP energy per Si atom -5571.792400 kJ/mol
# Density = 2.039862 g / cm^3
# Si number density = 20.445157 Si / 1000 Ang^3
#
#
#
# Elastic Constant Matrix: (Units=GPa)
#
#
# Indices 1 2 3 4 5 6 
#
# 1 68.6126 9.8472 36.5785 0.0000 0.0000 0.0000
# 2 9.8472 117.7156 2.5344 0.0000 0.0000 0.0000
# 3 36.5785 2.5344 46.2425 0.0000 0.0000 0.0000
# 4 0.0000 0.0000 0.0000 28.4763 0.0000 0.0000
# 5 0.0000 0.0000 0.0000 0.0000 14.9110 0.0000
# 6 0.0000 0.0000 0.0000 0.0000 0.0000 22.6656
#
#
#
# Elastic Compliance Matrix: (Units=1/GPa)
#
#
# Indices 1 2 3 4 5 6 
#
# 1 0.025539 -0.001703 -0.020109 0.000000 0.000000 0.000000
# 2 -0.001703 0.008619 0.000875 0.000000 0.000000 0.000000
# 3 -0.020109 0.000875 0.037483 0.000000 0.000000 0.000000
# 4 0.000000 0.000000 0.000000 0.035117 0.000000 0.000000
# 5 0.000000 0.000000 0.000000 0.000000 0.067065 0.000000
# 6 0.000000 0.000000 0.000000 0.000000 0.000000 0.044120
#
#
# Mechanical properties :
#
#
# Convention : Reuss Voigt Hill
#
# Bulk Modulus (GPa) = 33.59376 36.72121 35.15748
# Shear Modulus (GPa) = 18.53643 25.45128 21.99385
#
# Velocity S-wave (km/s) = 3.01432 3.53208 3.28342
# Velocity P-wave (km/s) = 5.34618 5.88506 5.62208
#
# Compressibility (1/GPa) = 0.02976744
#
# Stress axis : x y z
#
# Youngs Moduli (GPa) = 39.15537 116.02662 26.67851
#
# Poissons Ratio (x) = 0.19765 0.53647
# Poissons Ratio (y) = 0.06670 -0.02335
# Poissons Ratio (z) = 0.78736 -0.10154
#
# Static dielectric constant tensor:
#      x y z
#    x 1.751030 0.000000 0.000000 
#    y 0.000000 1.698480 0.000000 
#    z 0.000000 0.000000 1.799460 
# 
# From -- ./inp_files/24313.got.cif
#   From: 2010.05.17/outbox.cif.g08.bks.cpg/sg54_13_cif.got.tgz:24313.got - 2010.06.03 13:09:01.
