data_PCOD9420015
_publ_section_title
;
Structure prediction by ZEFSAII (Michael W. Deem and Ramdas Pophale) SiO2 
 PCOD9420015
Probable space group: P M N A
;
_chemical_formula_sum "Si O2"
_cell_formula_units_Z 30
_cell_length_a 14.873247
_cell_length_b 5.548895
_cell_length_c 14.336984
_cell_angle_alpha 90.000000
_cell_angle_beta 90.000000
_cell_angle_gamma 90.000000
_cell_volume 1183.232521
_symmetry_space_group_name_H-M "P M N A"
_symmetry_group_IT_number 53
_symmetry_cell_setting 'orthorhombic'
loop_
_space_group_symop_operation_xyz
x,y,z
1/2-x,-y,1/2+z
x,-y,-z
1/2-x,y,1/2-z
-x,-y,-z
1/2+x,y,1/2-z
-x,y,z
1/2+x,-y,1/2+z
loop_
_atom_site_type_symbol
_atom_site_label
_atom_site_fract_x
_atom_site_fract_y
_atom_site_fract_z
Si Si1 0.500000 0.000000 0.500000
Si Si2 0.250000 0.133427 0.250000
Si Si3 0.835446 0.233642 0.894278
Si Si4 0.863251 0.747505 0.453553
Si Si5 0.602163 0.479838 0.223412
O O1 0.579109 0.833174 0.453599
O O2 0.177467 0.290192 0.307634
O O3 0.192939 0.976146 0.178098
O O4 0.745170 0.264868 0.953254
O O5 0.863937 0.451096 0.826382
O O6 0.897920 0.500000 0.500000
O O7 0.891574 0.709229 0.345513
O O8 0.891502 0.000000 0.500000
O O9 0.500000 0.391189 0.225174
#
# Coordination Sequence:
#
# PCOD9420015 Si02
#       5
#     2   4   8   8   8
#     4  12  28  44  78 128 148 210 278 352 398 496
#     4  12  24  50  76 110 160 218 254 324 426 500
#     4  12  25  47  75 114 157 204 261 330 415 487
#     4  12  26  49  78 109 157 209 259 331 402 475
#     4  12  27  46  76 112 151 210 268 328 407 498
#
# _framework density 25.354274
#
# number of rings (size 3 to 8) (size 9 to 14) (size 15 to 20)
#    0.000    0.000    8.000    1.600    1.867    1.067 
#    0.000    2.000    0.000    0.000    0.000    0.000 
#    0.000    0.000    0.000    0.000    0.000    0.000 
#
# Total GULP energy -167578.252498 kJ/mol
# GULP energy per Si atom -5585.941750 kJ/mol
# Density = 2.529657 g / cm^3
# Si number density = 25.354274 Si / 1000 Ang^3
#
#
#
# Elastic Constant Matrix: (Units=GPa)
#
#
# Indices 1 2 3 4 5 6 
#
# 1 216.0113 25.0424 -3.8542 0.0000 0.0000 0.0000
# 2 25.0424 105.9806 31.6519 0.0000 0.0000 0.0000
# 3 -3.8542 31.6519 43.9992 0.0000 0.0000 0.0000
# 4 0.0000 0.0000 0.0000 28.4398 0.0000 0.0000
# 5 0.0000 0.0000 0.0000 0.0000 -58.7107 0.0000
# 6 0.0000 0.0000 0.0000 0.0000 0.0000 -10.2671
#
#
#
# Elastic Compliance Matrix: (Units=1/GPa)
#
#
# Indices 1 2 3 4 5 6 
#
# 1 0.004846 -0.001620 0.001590 0.000000 0.000000 0.000000
# 2 -0.001620 0.012559 -0.009177 0.000000 0.000000 0.000000
# 3 0.001590 -0.009177 0.029468 0.000000 0.000000 0.000000
# 4 0.000000 0.000000 0.000000 0.035162 0.000000 0.000000
# 5 0.000000 0.000000 0.000000 0.000000 -0.017033 0.000000
# 6 0.000000 0.000000 0.000000 0.000000 0.000000 -0.097399
#
#
# Mechanical properties :
#
#
# Convention : Reuss Voigt Hill
#
# Bulk Modulus (GPa) = 35.13748 52.40792 43.77270
# Shear Modulus (GPa) = -1111.89389 12.76916 -549.56236
#
# Velocity S-wave (km/s) = -20.96414 2.24660 -14.73852
# Velocity P-wave (km/s) = 23.91871 5.23877 16.50242
#
# Compressibility (1/GPa) = 0.02845964
#
# Stress axis : x y z
#
# Youngs Moduli (GPa) = 206.37598 79.62389 33.93478
#
# Poissons Ratio (x) = 0.12897 -0.05394
# Poissons Ratio (y) = 0.33427 0.31140
# Poissons Ratio (z) = -0.32806 0.73067
#
# Static dielectric constant tensor:
#      x y z
#    x 1.894820 0.000000 0.000000 
#    y 0.000000 2.111110 0.000000 
#    z 0.000000 0.000000 2.033730 
# 
# From -- ./inp_files/27846.got.cif
#   From: 2010.05.17/outbox.cif.g08.bks.cpg/sg53_14_cif.got.tgz:27846.got - 2010.06.03 12:45:16.
