data_PCOD9420391
_publ_section_title
;
Structure prediction by ZEFSAII (Michael W. Deem and Ramdas Pophale) SiO2 
 PCOD9420391
Probable space group: P C C A
;
_chemical_formula_sum "Si O2"
_cell_formula_units_Z 56
_cell_length_a 14.935638
_cell_length_b 32.448537
_cell_length_c 5.452697
_cell_angle_alpha 90.000000
_cell_angle_beta 90.000000
_cell_angle_gamma 90.000000
_cell_volume 2642.592905
_symmetry_space_group_name_H-M "P C C A"
_symmetry_group_IT_number 54
_symmetry_cell_setting 'orthorhombic'
loop_
_space_group_symop_operation_xyz
x,y,z
1/2-x,-y,z
1/2+x,-y,1/2-z
-x,y,1/2-z
-x,-y,-z
1/2+x,y,-z
1/2-x,y,1/2+z
x,-y,1/2+z
loop_
_atom_site_type_symbol
_atom_site_label
_atom_site_fract_x
_atom_site_fract_y
_atom_site_fract_z
Si Si1 0.800929 0.409856 0.427005
Si Si2 0.965982 0.546887 0.999856
Si Si3 0.350421 0.803914 0.494422
Si Si4 0.058697 0.887418 0.000143
Si Si5 0.397221 0.017276 0.000493
Si Si6 0.193083 0.322240 0.968178
Si Si7 0.643941 0.230406 0.005435
O O1 0.725929 0.409800 0.641333
O O2 0.860318 0.449319 0.486368
O O3 0.851652 0.366714 0.487030
O O4 0.000000 0.566465 0.250000
O O5 0.000000 0.567027 0.750000
O O6 0.000000 0.500000 0.000000
O O7 0.363984 0.852821 0.498894
O O8 0.248235 0.786318 0.492539
O O9 0.393683 0.787404 0.245166
O O10 0.393704 0.786260 0.740891
O O11 0.097270 0.933569 0.001446
O O12 0.000000 0.883000 0.750000
O O13 0.000000 0.882596 0.250000
O O14 0.356325 0.000133 0.750164
O O15 0.500000 0.000000 0.000000
O O16 0.265442 0.321425 0.193229
O O17 0.141286 0.279692 0.997836
#
# Coordination Sequence:
#
# PCOD9420391 Si02
#       7
#     8   8   8   8   8   8   8
#     4  10  21  35  60  95 116 142 209 268 281 326
#     4  10  21  40  60  82 123 172 190 229 313 381
#     4  10  20  30  52  74 103 136 167 214 252 324
#     4  12  21  32  48  75 106 133 164 210 270 315
#     4  10  16  30  48  65  93 121 168 217 246 318
#     4  10  16  30  56  84 102 131 174 248 278 292
#     4  10  17  35  52  77  96 133 183 208 258 308
#
# _framework density 21.191306999999998
#
# number of rings (size 3 to 8) (size 9 to 14) (size 15 to 20)
#    0.000    1.714    5.714    1.714    0.000    0.000 
#    0.000    8.571    0.000    5.143    0.000   12.000 
#    0.000    0.000    0.000    0.000    0.000    0.000 
#
# Total GULP energy -311989.850332 kJ/mol
# GULP energy per Si atom -5571.247327 kJ/mol
# Density = 2.114307 g / cm^3
# Si number density = 21.191307 Si / 1000 Ang^3
#
#
#
# Elastic Constant Matrix: (Units=GPa)
#
#
# Indices 1 2 3 4 5 6 
#
# 1 33.6748 23.2392 8.4935 0.0000 0.0000 0.0000
# 2 23.2392 128.3155 10.8027 0.0000 0.0000 0.0000
# 3 8.4935 10.8027 204.9076 0.0000 0.0000 0.0000
# 4 0.0000 0.0000 0.0000 1089.0056 0.0000 0.0000
# 5 0.0000 0.0000 0.0000 0.0000 1.4805 0.0000
# 6 0.0000 0.0000 0.0000 0.0000 0.0000 4.0821
#
#
#
# Elastic Compliance Matrix: (Units=1/GPa)
#
#
# Indices 1 2 3 4 5 6 
#
# 1 0.034180 -0.006098 -0.001095 0.000000 0.000000 0.000000
# 2 -0.006098 0.008916 -0.000217 0.000000 0.000000 0.000000
# 3 -0.001095 -0.000217 0.004937 0.000000 0.000000 0.000000
# 4 0.000000 0.000000 0.000000 0.000918 0.000000 0.000000
# 5 0.000000 0.000000 0.000000 0.000000 0.675443 0.000000
# 6 0.000000 0.000000 0.000000 0.000000 0.000000 0.244972
#
#
# Mechanical properties :
#
#
# Convention : Reuss Voigt Hill
#
# Bulk Modulus (GPa) = 30.10960 50.21877 40.16418
# Shear Modulus (GPa) = 5.02382 240.53782 122.78082
#
# Velocity S-wave (km/s) = 1.54138 10.66556 7.62004
# Velocity P-wave (km/s) = 4.17218 13.24468 9.81908
#
# Compressibility (1/GPa) = 0.03321200
#
# Stress axis : x y z
#
# Youngs Moduli (GPa) = 29.25650 112.15756 202.54791
#
# Poissons Ratio (x) = 0.68396 0.22185
# Poissons Ratio (y) = 0.17841 0.04401
# Poissons Ratio (z) = 0.03204 0.02437
#
# Static dielectric constant tensor:
#      x y z
#    x 1.774950 0.000000 0.000000 
#    y 0.000000 1.769430 0.000000 
#    z 0.000000 0.000000 1.802940 
# 
# From -- ./inp_files/713.got.cif
#   From: 2010.05.17/outbox.cif.g08.bks.cpg/sg54_1_cif.got.tgz:713.got - 2010.06.03 13:09:01.
