data_PCOD9420564
_publ_section_title
;
Structure prediction by ZEFSAII (Michael W. Deem and Ramdas Pophale) SiO2 
 PCOD9420564
Probable space group: P C C A
;
_chemical_formula_sum "Si O2"
_cell_formula_units_Z 52
_cell_length_a 29.206630
_cell_length_b 7.965043
_cell_length_c 8.990340
_cell_angle_alpha 90.000000
_cell_angle_beta 90.000000
_cell_angle_gamma 90.000000
_cell_volume 2091.441349
_symmetry_space_group_name_H-M "P C C A"
_symmetry_group_IT_number 54
_symmetry_cell_setting 'orthorhombic'
loop_
_space_group_symop_operation_xyz
x,y,z
1/2-x,-y,z
1/2+x,-y,1/2-z
-x,y,1/2-z
-x,-y,-z
1/2+x,y,-z
1/2-x,y,1/2+z
x,-y,1/2+z
loop_
_atom_site_type_symbol
_atom_site_label
_atom_site_fract_x
_atom_site_fract_y
_atom_site_fract_z
Si Si1 0.500000 0.290312 0.750000
Si Si2 0.601844 0.720397 0.763132
Si Si3 0.804648 0.602037 0.343031
Si Si4 0.061666 0.887596 0.991064
Si Si5 0.857783 0.091708 0.216022
Si Si6 0.077535 0.730054 0.557639
Si Si7 0.772634 0.280209 0.168942
O O1 0.469556 0.177517 0.859599
O O2 0.460440 0.373647 0.649210
O O3 0.640648 0.609577 0.839000
O O4 0.589964 0.652565 0.600392
O O5 0.626634 0.902047 0.742932
O O6 0.558757 0.773211 0.863212
O O7 0.791491 0.417967 0.285938
O O8 0.780380 0.720211 0.216378
O O9 0.784498 0.654510 0.503341
O O10 0.113800 0.862384 0.932002
O O11 0.055750 0.084893 0.020115
O O12 0.879213 0.210970 0.343951
O O13 0.804160 0.119316 0.195557
#
# Coordination Sequence:
#
# PCOD9420564 Si02
#       7
#     4   8   8   8   8   8   8
#     4  10  18  30  50  82 120 160 180 236 290 350
#     4  10  20  36  56  87 119 153 192 242 286 345
#     4  11  24  39  61  85 117 147 200 241 285 336
#     4   9  17  33  49  82 114 154 187 235 282 341
#     4   9  19  36  56  79 122 152 187 233 291 338
#     4   9  19  29  53  80 118 152 187 228 288 340
#     4  11  23  41  58  86 113 154 195 244 279 343
#
# _framework density 24.863236000000001
#
# number of rings (size 3 to 8) (size 9 to 14) (size 15 to 20)
#    0.000    2.154    1.538    3.231    4.308    1.231 
#    0.000    1.538    0.000    0.000    0.000   17.231 
#    0.000    0.000    0.000    0.000    0.000    0.000 
#
# Total GULP energy -290445.344235 kJ/mol
# GULP energy per Si atom -5585.487389 kJ/mol
# Density = 2.480665 g / cm^3
# Si number density = 24.863236 Si / 1000 Ang^3
#
#
#
# Elastic Constant Matrix: (Units=GPa)
#
#
# Indices 1 2 3 4 5 6 
#
# 1 65.0135 0.2133 12.7955 0.0000 0.0000 0.0000
# 2 0.2133 57.0348 9.5550 0.0000 0.0000 0.0000
# 3 12.7955 9.5550 138.7354 0.0000 0.0000 0.0000
# 4 0.0000 0.0000 0.0000 6.9510 0.0000 0.0000
# 5 0.0000 0.0000 0.0000 0.0000 26.2692 0.0000
# 6 0.0000 0.0000 0.0000 0.0000 0.0000 0.6441
#
#
#
# Elastic Compliance Matrix: (Units=1/GPa)
#
#
# Indices 1 2 3 4 5 6 
#
# 1 0.015668 0.000186 -0.001458 0.000000 0.000000 0.000000
# 2 0.000186 0.017740 -0.001239 0.000000 0.000000 0.000000
# 3 -0.001458 -0.001239 0.007428 0.000000 0.000000 0.000000
# 4 0.000000 0.000000 0.000000 0.143864 0.000000 0.000000
# 5 0.000000 0.000000 0.000000 0.000000 0.038067 0.000000
# 6 0.000000 0.000000 0.000000 0.000000 0.000000 1.552524
#
#
# Mechanical properties :
#
#
# Convention : Reuss Voigt Hill
#
# Bulk Modulus (GPa) = 27.92260 33.99016 30.95638
# Shear Modulus (GPa) = 2.78979 22.65418 12.72198
#
# Velocity S-wave (km/s) = 1.06042 3.02180 2.26449
# Velocity P-wave (km/s) = 3.57130 5.08681 4.39487
#
# Compressibility (1/GPa) = 0.03581329
#
# Stress axis : x y z
#
# Youngs Moduli (GPa) = 63.82543 56.36969 134.63035
#
# Poissons Ratio (x) = -0.01046 0.19627
# Poissons Ratio (y) = -0.01185 0.16680
# Poissons Ratio (z) = 0.09305 0.06984
#
# Static dielectric constant tensor:
#      x y z
#    x 2.035730 0.000000 0.000000 
#    y 0.000000 1.994360 0.000000 
#    z 0.000000 0.000000 2.000540 
# 
# From -- ./inp_files/5551.got.cif
#   From: 2010.05.17/outbox.cif.g08.bks.cpg/sg54_3_cif.got.tgz:5551.got - 2010.06.03 13:09:01.
