data_PCOD9421678
_publ_section_title
;
Structure prediction by ZEFSAII (Michael W. Deem and Ramdas Pophale) SiO2 
 PCOD9421678
Probable space group: P C C A
;
_chemical_formula_sum "Si O2"
_cell_formula_units_Z 56
_cell_length_a 14.907271
_cell_length_b 9.741624
_cell_length_c 21.002192
_cell_angle_alpha 90.000000
_cell_angle_beta 90.000000
_cell_angle_gamma 90.000000
_cell_volume 3049.959932
_symmetry_space_group_name_H-M "P C C A"
_symmetry_group_IT_number 54
_symmetry_cell_setting 'orthorhombic'
loop_
_space_group_symop_operation_xyz
x,y,z
1/2-x,-y,z
1/2+x,-y,1/2-z
-x,y,1/2-z
-x,-y,-z
1/2+x,y,-z
1/2-x,y,1/2+z
x,-y,1/2+z
loop_
_atom_site_type_symbol
_atom_site_label
_atom_site_fract_x
_atom_site_fract_y
_atom_site_fract_z
Si Si1 0.146235 0.020512 0.620642
Si Si2 0.928947 0.230451 0.979908
Si Si3 0.737946 0.663781 0.519696
Si Si4 0.174510 0.385550 0.842449
Si Si5 0.471968 0.548650 0.627436
Si Si6 0.084953 0.254503 0.079185
Si Si7 0.099902 0.763892 0.225866
O O1 0.091421 0.102571 0.566204
O O2 0.139114 0.115307 0.682809
O O3 0.250000 0.000000 0.602399
O O4 0.105649 0.869278 0.626736
O O5 0.960683 0.357835 0.935633
O O6 0.834807 0.270102 0.011429
O O7 0.003431 0.211356 0.033278
O O8 0.750000 0.500000 0.511231
O O9 0.699964 0.684505 0.590559
O O10 0.670233 0.719577 0.466659
O O11 0.250000 0.500000 0.829298
O O12 0.161059 0.279750 0.784983
O O13 0.076304 0.452550 0.852945
O O14 0.437923 0.397021 0.613305
O O15 0.416320 0.629813 0.681369
O O16 0.000000 0.802345 0.250000
#
# Coordination Sequence:
#
# PCOD9421678 Si02
#       7
#     8   8   8   8   8   8   8
#     4  11  24  40  60  86 122 163 211 242 296 368
#     4  11  21  38  57  92 131 158 189 249 312 367
#     4  11  20  33  62  98 124 149 195 254 314 361
#     4  10  20  37  61  94 123 153 202 257 303 361
#     4  10  20  37  65  90 119 161 199 247 306 360
#     4  12  21  36  61  95 124 153 198 253 302 363
#     4   9  22  44  62  80 117 169 207 246 302 353
#
# _framework density 18.360897000000001
#
# number of rings (size 3 to 8) (size 9 to 14) (size 15 to 20)
#    0.000    1.429    4.286    2.571    0.000    1.143 
#    0.000    5.000    0.000    0.000    0.000    0.000 
#    0.000    0.000    0.000    0.000    0.000    0.000 
#
# Total GULP energy -312785.120924 kJ/mol
# GULP energy per Si atom -5585.448588 kJ/mol
# Density = 1.831911 g / cm^3
# Si number density = 18.360897 Si / 1000 Ang^3
#
#
#
# Elastic Constant Matrix: (Units=GPa)
#
#
# Indices 1 2 3 4 5 6 
#
# 1 89.0956 47.6971 28.0144 0.0000 0.0000 0.0000
# 2 47.6971 120.9006 51.5159 0.0000 0.0000 0.0000
# 3 28.0144 51.5159 79.5713 0.0000 0.0000 0.0000
# 4 0.0000 0.0000 0.0000 19.1291 0.0000 0.0000
# 5 0.0000 0.0000 0.0000 0.0000 18.6443 0.0000
# 6 0.0000 0.0000 0.0000 0.0000 0.0000 20.4499
#
#
#
# Elastic Compliance Matrix: (Units=1/GPa)
#
#
# Indices 1 2 3 4 5 6 
#
# 1 0.014440 -0.004876 -0.001927 0.000000 0.000000 0.000000
# 2 -0.004876 0.013068 -0.006744 0.000000 0.000000 0.000000
# 3 -0.001927 -0.006744 0.017612 0.000000 0.000000 0.000000
# 4 0.000000 0.000000 0.000000 0.052276 0.000000 0.000000
# 5 0.000000 0.000000 0.000000 0.000000 0.053636 0.000000
# 6 0.000000 0.000000 0.000000 0.000000 0.000000 0.048900
#
#
# Mechanical properties :
#
#
# Convention : Reuss Voigt Hill
#
# Bulk Modulus (GPa) = 55.47395 60.44692 57.96044
# Shear Modulus (GPa) = 21.45592 22.46734 21.96163
#
# Velocity S-wave (km/s) = 3.42214 3.50187 3.46223
# Velocity P-wave (km/s) = 6.77447 7.02451 6.90062
#
# Compressibility (1/GPa) = 0.01802648
#
# Stress axis : x y z
#
# Youngs Moduli (GPa) = 69.25199 76.52003 56.77866
#
# Poissons Ratio (x) = 0.37308 0.10943
# Poissons Ratio (y) = 0.33764 0.38293
# Poissons Ratio (z) = 0.13347 0.51607
#
# Static dielectric constant tensor:
#      x y z
#    x 1.619620 0.000000 0.000000 
#    y 0.000000 1.628160 0.000000 
#    z 0.000000 0.000000 1.631900 
# 
# From -- ./inp_files/21609.got.cif
#   From: 2010.05.17/outbox.cif.g08.bks.cpg/sg54_11_cif.got.tgz:21609.got - 2010.06.03 13:09:01.
