data_PCOD9421268
_publ_section_title
;
Structure prediction by ZEFSAII (Michael W. Deem and Ramdas Pophale) SiO2 
 PCOD9421268
Probable space group: P C C A
;
_chemical_formula_sum "Si O2"
_cell_formula_units_Z 44
_cell_length_a 8.237649
_cell_length_b 9.347329
_cell_length_c 26.753937
_cell_angle_alpha 90.000000
_cell_angle_beta 90.000000
_cell_angle_gamma 90.000000
_cell_volume 2060.053561
_symmetry_space_group_name_H-M "P C C A"
_symmetry_group_IT_number 54
_symmetry_cell_setting 'orthorhombic'
loop_
_space_group_symop_operation_xyz
x,y,z
1/2-x,-y,z
1/2+x,-y,1/2-z
-x,y,1/2-z
-x,-y,-z
1/2+x,y,-z
1/2-x,y,1/2+z
x,-y,1/2+z
loop_
_atom_site_type_symbol
_atom_site_label
_atom_site_fract_x
_atom_site_fract_y
_atom_site_fract_z
Si Si1 0.896050 0.290970 0.968887
Si Si2 0.921226 0.088707 0.803271
Si Si3 0.520901 0.865466 0.123516
Si Si4 0.255983 0.339546 0.139249
Si Si5 0.254105 0.344507 0.930864
Si Si6 0.250000 0.000000 0.049254
O O1 0.796748 0.341543 0.920123
O O2 0.832117 0.130191 0.979585
O O3 0.080287 0.299746 0.951934
O O4 0.868300 0.371122 0.020686
O O5 0.881711 0.233128 0.833778
O O6 0.000000 0.117187 0.750000
O O7 0.750000 0.000000 0.799408
O O8 0.039972 0.987451 0.835447
O O9 0.417243 0.734632 0.146086
O O10 0.674052 0.788301 0.099631
O O11 0.394703 0.935718 0.083547
O O12 0.250000 0.500000 0.158204
O O13 0.250000 0.500000 0.904218
#
# Coordination Sequence:
#
# PCOD9421268 Si02
#       6
#     8   8   8   8   8   4
#     4  11  22  38  61  88 130 168 214 259 311 380
#     4  10  21  41  65  92 119 159 207 262 322 380
#     4  10  20  41  62  85 127 159 214 259 312 377
#     4  10  19  39  65  89 124 168 206 259 319 376
#     4  12  25  38  59  94 129 172 214 261 319 381
#     4  10  20  42  60  90 116 168 216 256 312 360
#
# _framework density 21.358667000000001
#
# number of rings (size 3 to 8) (size 9 to 14) (size 15 to 20)
#    0.000    1.455    4.545    4.364    0.000    5.091 
#    0.000    3.636    0.000    2.182    0.000    0.000 
#    0.000    0.000    0.000    0.000    0.000    0.000 
#
# Total GULP energy -245897.757414 kJ/mol
# GULP energy per Si atom -5588.585396 kJ/mol
# Density = 2.131005 g / cm^3
# Si number density = 21.358667 Si / 1000 Ang^3
#
#
#
# Elastic Constant Matrix: (Units=GPa)
#
#
# Indices 1 2 3 4 5 6 
#
# 1 55.5593 25.4002 -0.7211 0.0000 0.0000 0.0000
# 2 25.4002 147.8799 31.8450 0.0000 0.0000 0.0000
# 3 -0.7211 31.8450 71.2485 0.0000 0.0000 0.0000
# 4 0.0000 0.0000 0.0000 5.1901 0.0000 0.0000
# 5 0.0000 0.0000 0.0000 0.0000 21.5257 0.0000
# 6 0.0000 0.0000 0.0000 0.0000 0.0000 16.9087
#
#
#
# Elastic Compliance Matrix: (Units=1/GPa)
#
#
# Indices 1 2 3 4 5 6 
#
# 1 0.019762 -0.003804 0.001900 0.000000 0.000000 0.000000
# 2 -0.003804 0.008214 -0.003710 0.000000 0.000000 0.000000
# 3 0.001900 -0.003710 0.015713 0.000000 0.000000 0.000000
# 4 0.000000 0.000000 0.000000 0.192675 0.000000 0.000000
# 5 0.000000 0.000000 0.000000 0.000000 0.046456 0.000000
# 6 0.000000 0.000000 0.000000 0.000000 0.000000 0.059141
#
#
# Mechanical properties :
#
#
# Convention : Reuss Voigt Hill
#
# Bulk Modulus (GPa) = 30.80471 43.08176 36.94323
# Shear Modulus (GPa) = 13.73589 23.26915 18.50252
#
# Velocity S-wave (km/s) = 2.53871 3.30426 2.94645
# Velocity P-wave (km/s) = 4.80076 5.89677 5.37676
#
# Compressibility (1/GPa) = 0.03246257
#
# Stress axis : x y z
#
# Youngs Moduli (GPa) = 50.60126 121.73617 63.64222
#
# Poissons Ratio (x) = 0.46303 -0.12092
# Poissons Ratio (y) = 0.19247 0.23611
# Poissons Ratio (z) = -0.09615 0.45164
#
# Static dielectric constant tensor:
#      x y z
#    x 1.824720 0.000000 0.000000 
#    y 0.000000 1.826370 0.000000 
#    z 0.000000 0.000000 1.769610 
# 
# From -- ./inp_files/27622.got.cif
#   From: 2010.05.17/outbox.cif.g08.bks.cpg/sg54_14_cif.got.tgz:27622.got - 2010.06.03 13:09:01.
