data_PCOD9421599
_publ_section_title
;
Structure prediction by ZEFSAII (Michael W. Deem and Ramdas Pophale) SiO2 
 PCOD9421599
Probable space group: P C C A
;
_chemical_formula_sum "Si O2"
_cell_formula_units_Z 60
_cell_length_a 19.438859
_cell_length_b 17.103969
_cell_length_c 9.061131
_cell_angle_alpha 90.000000
_cell_angle_beta 90.000000
_cell_angle_gamma 90.000000
_cell_volume 3012.659711
_symmetry_space_group_name_H-M "P C C A"
_symmetry_group_IT_number 54
_symmetry_cell_setting 'orthorhombic'
loop_
_space_group_symop_operation_xyz
x,y,z
1/2-x,-y,z
1/2+x,-y,1/2-z
-x,y,1/2-z
-x,-y,-z
1/2+x,y,-z
1/2-x,y,1/2+z
x,-y,1/2+z
loop_
_atom_site_type_symbol
_atom_site_label
_atom_site_fract_x
_atom_site_fract_y
_atom_site_fract_z
Si Si1 0.038432 0.613851 0.596141
Si Si2 0.819129 0.330405 0.300285
Si Si3 0.942130 0.435529 0.879330
Si Si4 0.303719 0.070550 0.968660
Si Si5 0.500000 0.992625 0.750000
Si Si6 0.203184 0.152291 0.158403
Si Si7 0.589564 0.057246 0.998394
Si Si8 0.792605 0.582179 0.489851
O O1 0.107651 0.660967 0.617458
O O2 0.060084 0.524585 0.558896
O O3 0.000000 0.614313 0.750000
O O4 0.978321 0.630128 0.480220
O O5 0.806107 0.238928 0.280271
O O6 0.761491 0.361877 0.410836
O O7 0.815853 0.382500 0.149526
O O8 0.000000 0.439903 0.750000
O O9 0.859996 0.420495 0.881425
O O10 0.302640 0.096411 0.799703
O O11 0.250000 0.000000 0.987493
O O12 0.275658 0.137659 0.076165
O O13 0.374309 0.028314 0.005922
O O14 0.553404 0.939892 0.657081
O O15 0.534825 0.049711 0.868677
O O16 0.144398 0.124236 0.042418
O O17 0.750000 0.500000 0.507668
#
# Coordination Sequence:
#
# PCOD9421599 Si02
#       8
#     8   8   8   8   4   8   8   8
#     4  10  20  39  61  88 120 161 208 257 319 386
#     4  12  26  41  63  96 134 170 208 278 337 385
#     4  10  22  39  68  92 116 160 221 272 310 381
#     4  10  20  38  66  91 116 163 211 258 300 378
#     4  10  20  36  62  98 124 164 212 264 298 366
#     4  11  23  40  61  94 129 165 206 265 325 377
#     4  10  20  38  65  94 124 163 220 253 307 377
#     4  12  25  42  66  98 126 169 225 274 327 393
#
# _framework density 19.915956999999999
#
# number of rings (size 3 to 8) (size 9 to 14) (size 15 to 20)
#    0.000    1.333    4.000    2.400    3.733    0.000 
#    1.200    0.000    1.467    0.000    0.000    0.000 
#    0.000    0.000    0.000    0.000    0.000    0.000 
#
# Total GULP energy -334048.054688 kJ/mol
# GULP energy per Si atom -5567.467578 kJ/mol
# Density = 1.987063 g / cm^3
# Si number density = 19.915957 Si / 1000 Ang^3
#
#
#
# Elastic Constant Matrix: (Units=GPa)
#
#
# Indices 1 2 3 4 5 6 
#
# 1 113.9256 21.3631 17.0309 0.0000 0.0000 0.0000
# 2 21.3631 47.8202 16.4220 0.0000 0.0000 0.0000
# 3 17.0309 16.4220 59.9945 0.0000 0.0000 0.0000
# 4 0.0000 0.0000 0.0000 15.5514 0.0000 0.0000
# 5 0.0000 0.0000 0.0000 0.0000 29.2340 0.0000
# 6 0.0000 0.0000 0.0000 0.0000 0.0000 11.6193
#
#
#
# Elastic Compliance Matrix: (Units=1/GPa)
#
#
# Indices 1 2 3 4 5 6 
#
# 1 0.009742 -0.003755 -0.001737 0.000000 0.000000 0.000000
# 2 -0.003755 0.024529 -0.005648 0.000000 0.000000 0.000000
# 3 -0.001737 -0.005648 0.018707 0.000000 0.000000 0.000000
# 4 0.000000 0.000000 0.000000 0.064303 0.000000 0.000000
# 5 0.000000 0.000000 0.000000 0.000000 0.034207 0.000000
# 6 0.000000 0.000000 0.000000 0.000000 0.000000 0.086064
#
#
# Mechanical properties :
#
#
# Convention : Reuss Voigt Hill
#
# Bulk Modulus (GPa) = 32.57738 36.81917 34.69827
# Shear Modulus (GPa) = 18.51405 22.40923 20.46164
#
# Velocity S-wave (km/s) = 3.05226 3.35802 3.20878
# Velocity P-wave (km/s) = 5.36793 5.79332 5.58467
#
# Compressibility (1/GPa) = 0.03069615
#
# Stress axis : x y z
#
# Youngs Moduli (GPa) = 102.65282 40.76822 53.45455
#
# Poissons Ratio (x) = 0.15310 0.09288
# Poissons Ratio (y) = 0.38549 0.30192
# Poissons Ratio (z) = 0.17836 0.23027
#
# Static dielectric constant tensor:
#      x y z
#    x 1.769510 0.000000 0.000000 
#    y 0.000000 1.694430 0.000000 
#    z 0.000000 0.000000 1.757720 
# 
# From -- ./inp_files/4354.got.cif
#   From: 2010.05.17/outbox.cif.g08.bks.cpg/sg54_3_cif.got.tgz:4354.got - 2010.06.03 13:09:01.
