data_PCOD9421880
_publ_section_title
;
Structure prediction by ZEFSAII (Michael W. Deem and Ramdas Pophale) SiO2 
 PCOD9421880
Probable space group: P C C A
;
_chemical_formula_sum "Si O2"
_cell_formula_units_Z 56
_cell_length_a 21.154511
_cell_length_b 10.080326
_cell_length_c 13.056851
_cell_angle_alpha 90.000000
_cell_angle_beta 90.000000
_cell_angle_gamma 90.000000
_cell_volume 2784.299930
_symmetry_space_group_name_H-M "P C C A"
_symmetry_group_IT_number 54
_symmetry_cell_setting 'orthorhombic'
loop_
_space_group_symop_operation_xyz
x,y,z
1/2-x,-y,z
1/2+x,-y,1/2-z
-x,y,1/2-z
-x,-y,-z
1/2+x,y,-z
1/2-x,y,1/2+z
x,-y,1/2+z
loop_
_atom_site_type_symbol
_atom_site_label
_atom_site_fract_x
_atom_site_fract_y
_atom_site_fract_z
Si Si1 0.723807 0.650023 0.799184
Si Si2 0.877991 0.513136 0.173240
Si Si3 0.000307 0.608433 0.089894
Si Si4 0.076364 0.100069 0.398931
Si Si5 0.356347 0.233886 0.718560
Si Si6 0.938920 0.846664 0.966270
Si Si7 0.630771 0.346549 0.473281
O O1 0.750000 0.500000 0.811197
O O2 0.670896 0.624573 0.711856
O O3 0.780359 0.751622 0.775756
O O4 0.691481 0.684254 0.906598
O O5 0.949858 0.560434 0.170942
O O6 0.876520 0.379557 0.240988
O O7 0.860514 0.462668 0.057528
O O8 0.074589 0.623426 0.107529
O O9 0.969432 0.740302 0.042857
O O10 0.000000 0.500000 0.000000
O O11 0.111900 0.121910 0.291214
O O12 0.104741 0.221760 0.464183
O O13 0.999783 0.113495 0.395626
O O14 0.085941 0.967400 0.464685
O O15 0.384607 0.211632 0.606006
#
# Coordination Sequence:
#
# PCOD9421880 Si02
#       7
#     8   8   8   8   8   8   8
#     4  10  22  36  56  88 122 165 200 240 312 380
#     4   9  20  36  57  91 123 154 199 259 309 369
#     4   9  19  34  59  94 117 148 197 253 316 361
#     4   9  20  40  64  86 118 157 207 258 302 355
#     4  10  21  39  61  91 117 163 207 242 306 380
#     4  10  20  39  65  90 118 158 201 253 315 362
#     4   9  19  38  58  85 123 156 203 254 305 362
#
# _framework density 20.112774999999999
#
# number of rings (size 3 to 8) (size 9 to 14) (size 15 to 20)
#    0.000    2.571    0.000    1.286    8.000    3.429 
#    7.714    0.714    0.000    0.000    0.000    0.000 
#    0.000    0.000    0.000    0.000    0.000    0.000 
#
# Total GULP energy -312086.163174 kJ/mol
# GULP energy per Si atom -5572.967200 kJ/mol
# Density = 2.006700 g / cm^3
# Si number density = 20.112775 Si / 1000 Ang^3
#
#
#
# Elastic Constant Matrix: (Units=GPa)
#
#
# Indices 1 2 3 4 5 6 
#
# 1 100.6084 23.4935 39.8889 0.0000 0.0000 0.0000
# 2 23.4935 31.1368 18.3445 0.0000 0.0000 0.0000
# 3 39.8889 18.3445 68.6293 0.0000 0.0000 0.0000
# 4 0.0000 0.0000 0.0000 22.5544 0.0000 0.0000
# 5 0.0000 0.0000 0.0000 0.0000 36.0435 0.0000
# 6 0.0000 0.0000 0.0000 0.0000 0.0000 22.2793
#
#
#
# Elastic Compliance Matrix: (Units=1/GPa)
#
#
# Indices 1 2 3 4 5 6 
#
# 1 0.014055 -0.006875 -0.006332 0.000000 0.000000 0.000000
# 2 -0.006875 0.041482 -0.007092 0.000000 0.000000 0.000000
# 3 -0.006332 -0.007092 0.020147 0.000000 0.000000 0.000000
# 4 0.000000 0.000000 0.000000 0.044337 0.000000 0.000000
# 5 0.000000 0.000000 0.000000 0.000000 0.027744 0.000000
# 6 0.000000 0.000000 0.000000 0.000000 0.000000 0.044885
#
#
# Mechanical properties :
#
#
# Convention : Reuss Voigt Hill
#
# Bulk Modulus (GPa) = 28.50078 40.42538 34.46308
# Shear Modulus (GPa) = 20.41289 24.08527 22.24908
#
# Velocity S-wave (km/s) = 3.18924 3.46426 3.32959
# Velocity P-wave (km/s) = 5.26905 6.01203 5.65276
#
# Compressibility (1/GPa) = 0.03508676
#
# Stress axis : x y z
#
# Youngs Moduli (GPa) = 71.14794 24.10686 49.63545
#
# Poissons Ratio (x) = 0.16573 0.31427
# Poissons Ratio (y) = 0.48912 0.35203
# Poissons Ratio (z) = 0.45048 0.17097
#
# Static dielectric constant tensor:
#      x y z
#    x 1.753310 0.000000 0.000000 
#    y 0.000000 1.683340 0.000000 
#    z 0.000000 0.000000 1.757600 
# 
# From -- ./inp_files/14667.got.cif
#   From: 2010.05.17/outbox.cif.g08.bks.cpg/sg54_8_cif.got.tgz:14667.got - 2010.06.03 13:09:01.
