data_PCOD9421347
_publ_section_title
;
Structure prediction by ZEFSAII (Michael W. Deem and Ramdas Pophale) SiO2 
 PCOD9421347
Probable space group: P C C A
;
_chemical_formula_sum "Si O2"
_cell_formula_units_Z 44
_cell_length_a 16.719297
_cell_length_b 9.009637
_cell_length_c 14.864180
_cell_angle_alpha 90.000000
_cell_angle_beta 90.000000
_cell_angle_gamma 90.000000
_cell_volume 2239.062735
_symmetry_space_group_name_H-M "P C C A"
_symmetry_group_IT_number 54
_symmetry_cell_setting 'orthorhombic'
loop_
_space_group_symop_operation_xyz
x,y,z
1/2-x,-y,z
1/2+x,-y,1/2-z
-x,y,1/2-z
-x,-y,-z
1/2+x,y,-z
1/2-x,y,1/2+z
x,-y,1/2+z
loop_
_atom_site_type_symbol
_atom_site_label
_atom_site_fract_x
_atom_site_fract_y
_atom_site_fract_z
Si Si1 0.500000 0.320519 0.750000
Si Si2 0.657067 0.690151 0.338438
Si Si3 0.567362 0.434921 0.116360
Si Si4 0.772793 0.328478 0.673533
Si Si5 0.758629 0.824920 0.488803
Si Si6 0.607916 0.397951 0.432127
O O1 0.427062 0.244442 0.697367
O O2 0.454588 0.425667 0.820983
O O3 0.726142 0.711660 0.264324
O O4 0.685328 0.758653 0.431677
O O5 0.642983 0.514609 0.359070
O O6 0.631066 0.332342 0.167176
O O7 0.482784 0.359123 0.094171
O O8 0.601717 0.505710 0.024311
O O9 0.750000 0.500000 0.654270
O O10 0.744172 0.226672 0.591856
O O11 0.836318 0.743320 0.447111
O O12 0.750000 0.000000 0.481616
#
# Coordination Sequence:
#
# PCOD9421347 Si02
#       6
#     4   8   8   8   8   8
#     4  10  20  32  62 102 118 150 198 266 322 354
#     4  11  22  38  68  92 122 156 211 265 313 366
#     4  10  20  34  64  97 122 146 208 269 316 355
#     4  12  20  39  65  93 116 161 210 267 306 365
#     4  12  25  40  60  89 131 172 207 248 315 391
#     4  10  20  39  63  93 122 158 204 268 314 369
#
# _framework density 19.651078999999999
#
# number of rings (size 3 to 8) (size 9 to 14) (size 15 to 20)
#    0.000    1.091    5.455    1.636    2.545    0.727 
#    0.000    0.909    4.000    0.000    0.000    0.000 
#    0.000    0.000    0.000    0.000    0.000    0.000 
#
# Total GULP energy -245629.547368 kJ/mol
# GULP energy per Si atom -5582.489713 kJ/mol
# Density = 1.960635 g / cm^3
# Si number density = 19.651079 Si / 1000 Ang^3
#
#
#
# Elastic Constant Matrix: (Units=GPa)
#
#
# Indices 1 2 3 4 5 6 
#
# 1 87.3888 20.2670 35.8224 0.0000 0.0000 0.0000
# 2 20.2670 79.0239 12.7159 0.0000 0.0000 0.0000
# 3 35.8224 12.7159 104.3384 0.0000 0.0000 0.0000
# 4 0.0000 0.0000 0.0000 5.3835 0.0000 0.0000
# 5 0.0000 0.0000 0.0000 0.0000 39.7856 0.0000
# 6 0.0000 0.0000 0.0000 0.0000 0.0000 5.2222
#
#
#
# Elastic Compliance Matrix: (Units=1/GPa)
#
#
# Indices 1 2 3 4 5 6 
#
# 1 0.013922 -0.002858 -0.004432 0.000000 0.000000 0.000000
# 2 -0.002858 0.013494 -0.000663 0.000000 0.000000 0.000000
# 3 -0.004432 -0.000663 0.011187 0.000000 0.000000 0.000000
# 4 0.000000 0.000000 0.000000 0.185754 0.000000 0.000000
# 5 0.000000 0.000000 0.000000 0.000000 0.025135 0.000000
# 6 0.000000 0.000000 0.000000 0.000000 0.000000 0.191490
#
#
# Mechanical properties :
#
#
# Convention : Reuss Voigt Hill
#
# Bulk Modulus (GPa) = 44.05746 45.37352 44.71549
# Shear Modulus (GPa) = 10.76535 23.54131 17.15333
#
# Velocity S-wave (km/s) = 2.34311 3.46492 2.95769
# Velocity P-wave (km/s) = 5.45791 6.25678 5.87094
#
# Compressibility (1/GPa) = 0.02269763
#
# Stress axis : x y z
#
# Youngs Moduli (GPa) = 71.82626 74.10686 89.39273
#
# Poissons Ratio (x) = 0.21176 0.39616
# Poissons Ratio (y) = 0.20525 0.05931
# Poissons Ratio (z) = 0.31831 0.04917
#
# Static dielectric constant tensor:
#      x y z
#    x 1.771200 0.000000 0.000000 
#    y 0.000000 1.637140 0.000000 
#    z 0.000000 0.000000 1.732960 
# 
# From -- ./inp_files/14029.got.cif
#   From: 2010.05.17/outbox.cif.g08.bks.cpg/sg54_8_cif.got.tgz:14029.got - 2010.06.03 13:09:01.
