data_PCOD9421929
_publ_section_title
;
Structure prediction by ZEFSAII (Michael W. Deem and Ramdas Pophale) SiO2 
 PCOD9421929
Probable space group: P C C A
;
_chemical_formula_sum "Si O2"
_cell_formula_units_Z 44
_cell_length_a 16.270036
_cell_length_b 13.949197
_cell_length_c 9.109927
_cell_angle_alpha 90.000000
_cell_angle_beta 90.000000
_cell_angle_gamma 90.000000
_cell_volume 2067.533802
_symmetry_space_group_name_H-M "P C C A"
_symmetry_group_IT_number 54
_symmetry_cell_setting 'orthorhombic'
loop_
_space_group_symop_operation_xyz
x,y,z
1/2-x,-y,z
1/2+x,-y,1/2-z
-x,y,1/2-z
-x,-y,-z
1/2+x,y,-z
1/2-x,y,1/2+z
x,-y,1/2+z
loop_
_atom_site_type_symbol
_atom_site_label
_atom_site_fract_x
_atom_site_fract_y
_atom_site_fract_z
Si Si1 0.500000 0.990276 0.250000
Si Si2 0.093395 0.384035 0.771055
Si Si3 0.885084 0.033317 0.004921
Si Si4 0.782198 0.147782 0.480338
Si Si5 0.335226 0.554525 0.087418
Si Si6 0.748571 0.277487 0.738578
O O1 0.559767 0.045936 0.360687
O O2 0.560455 0.934559 0.141689
O O3 0.108680 0.478671 0.673452
O O4 0.159373 0.306656 0.713089
O O5 0.000000 0.352852 0.750000
O O6 0.119904 0.407895 0.939957
O O7 0.858335 0.920546 0.022415
O O8 0.800243 0.086969 0.992045
O O9 0.764426 0.244158 0.572510
O O10 0.787864 0.183555 0.314838
O O11 0.250000 0.500000 0.043332
O O12 0.308012 0.634821 0.207738
#
# Coordination Sequence:
#
# PCOD9421929 Si02
#       6
#     4   8   8   8   8   8
#     4  10  20  40  62  92 118 154 210 260 312 364
#     4  11  23  41  63  92 125 160 201 256 320 370
#     4  10  22  40  65  88 124 170 208 248 315 362
#     4  11  22  41  63  89 122 170 215 252 292 381
#     4  10  21  40  66  88 120 165 206 247 309 382
#     4  11  22  39  64  92 124 161 215 256 298 364
#
# _framework density 21.281393999999999
#
# number of rings (size 3 to 8) (size 9 to 14) (size 15 to 20)
#    0.000    1.455    1.818    4.364    2.545    2.909 
#    9.818    0.000    2.000    0.000    0.000    0.000 
#    0.000    0.000    0.000    0.000    0.000    0.000 
#
# Total GULP energy -245351.603464 kJ/mol
# GULP energy per Si atom -5576.172806 kJ/mol
# Density = 2.123296 g / cm^3
# Si number density = 21.281394 Si / 1000 Ang^3
#
#
#
# Elastic Constant Matrix: (Units=GPa)
#
#
# Indices 1 2 3 4 5 6 
#
# 1 99.7544 21.0204 16.7704 0.0000 0.0000 0.0000
# 2 21.0204 49.0529 9.1227 0.0000 0.0000 0.0000
# 3 16.7704 9.1227 95.4488 0.0000 0.0000 0.0000
# 4 0.0000 0.0000 0.0000 7.6210 0.0000 0.0000
# 5 0.0000 0.0000 0.0000 0.0000 28.3353 0.0000
# 6 0.0000 0.0000 0.0000 0.0000 0.0000 13.4830
#
#
#
# Elastic Compliance Matrix: (Units=1/GPa)
#
#
# Indices 1 2 3 4 5 6 
#
# 1 0.011238 -0.004529 -0.001542 0.000000 0.000000 0.000000
# 2 -0.004529 0.022580 -0.001362 0.000000 0.000000 0.000000
# 3 -0.001542 -0.001362 0.010878 0.000000 0.000000 0.000000
# 4 0.000000 0.000000 0.000000 0.131217 0.000000 0.000000
# 5 0.000000 0.000000 0.000000 0.000000 0.035292 0.000000
# 6 0.000000 0.000000 0.000000 0.000000 0.000000 0.074168
#
#
# Mechanical properties :
#
#
# Convention : Reuss Voigt Hill
#
# Bulk Modulus (GPa) = 33.52322 37.56480 35.54401
# Shear Modulus (GPa) = 16.11957 23.04403 19.58180
#
# Velocity S-wave (km/s) = 2.75516 3.29420 3.03667
# Velocity P-wave (km/s) = 5.08997 5.67087 5.38826
#
# Compressibility (1/GPa) = 0.02983007
#
# Stress axis : x y z
#
# Youngs Moduli (GPa) = 88.98233 44.28624 91.92944
#
# Poissons Ratio (x) = 0.20058 0.14173
# Poissons Ratio (y) = 0.40301 0.12524
# Poissons Ratio (z) = 0.13718 0.06034
#
# Static dielectric constant tensor:
#      x y z
#    x 1.709650 0.000000 0.000000 
#    y 0.000000 1.806860 0.000000 
#    z 0.000000 0.000000 1.798720 
# 
# From -- ./inp_files/4131.got.cif
#   From: 2010.05.17/outbox.cif.g08.bks.cpg/sg54_3_cif.got.tgz:4131.got - 2010.06.03 13:09:01.
