data_PCOD9421101
_publ_section_title
;
Structure prediction by ZEFSAII (Michael W. Deem and Ramdas Pophale) SiO2 
 PCOD9421101
Probable space group: P C C A
;
_chemical_formula_sum "Si O2"
_cell_formula_units_Z 64
_cell_length_a 27.125463
_cell_length_b 20.232599
_cell_length_c 5.526466
_cell_angle_alpha 90.000000
_cell_angle_beta 90.000000
_cell_angle_gamma 90.000000
_cell_volume 3033.027419
_symmetry_space_group_name_H-M "P C C A"
_symmetry_group_IT_number 54
_symmetry_cell_setting 'orthorhombic'
loop_
_space_group_symop_operation_xyz
x,y,z
1/2-x,-y,z
1/2+x,-y,1/2-z
-x,y,1/2-z
-x,-y,-z
1/2+x,y,-z
1/2-x,y,1/2+z
x,-y,1/2+z
loop_
_atom_site_type_symbol
_atom_site_label
_atom_site_fract_x
_atom_site_fract_y
_atom_site_fract_z
Si Si1 0.943732 0.526013 0.034350
Si Si2 0.725673 0.749817 0.883059
Si Si3 0.869976 0.865474 0.913457
Si Si4 0.762587 0.901647 0.924893
Si Si5 0.553345 0.198345 0.237660
Si Si6 0.449850 0.329009 0.594646
Si Si7 0.876674 0.740879 0.606513
Si Si8 0.553623 0.958971 0.201601
O O1 0.921252 0.507044 0.773232
O O2 0.945390 0.604852 0.061561
O O3 0.000000 0.500000 0.000000
O O4 0.746897 0.725078 0.627164
O O5 0.736603 0.829225 0.887370
O O6 0.667801 0.733418 0.917621
O O7 0.819543 0.896507 0.996559
O O8 0.856586 0.794641 0.796840
O O9 0.900622 0.909872 0.728508
O O10 0.907230 0.851002 0.128591
O O11 0.763540 0.931763 0.657202
O O12 0.500000 0.166646 0.250000
O O13 0.575641 0.225647 0.484074
O O14 0.547907 0.262531 0.064280
O O15 0.500000 0.334821 0.750000
O O16 0.400847 0.321104 0.759488
O O17 0.500000 0.925664 0.250000
O O18 0.555890 0.008050 0.436014
#
# Coordination Sequence:
#
# PCOD9421101 Si02
#       8
#     8   8   8   8   8   8   8   8
#     4  10  21  34  58  75 104 167 220 240 281 334
#     4  10  19  36  56  80 116 151 194 233 293 363
#     4  11  24  37  62  88 112 156 203 239 308 370
#     4  10  19  35  59  86 113 147 189 237 292 366
#     4  11  24  33  54  82 127 161 190 245 302 364
#     4  11  22  36  49  83 126 165 201 247 294 348
#     4  11  23  35  56  88 121 161 192 243 304 371
#     4  10  25  45  64  85 114 155 201 254 289 343
#
# _framework density 21.101030000000002
#
# number of rings (size 3 to 8) (size 9 to 14) (size 15 to 20)
#    0.000    1.500    5.000    1.500    8.750    0.500 
#    0.000    0.000    0.000    2.250    0.000    0.000 
#    0.000    3.000    0.000    0.000    0.000    0.000 
#
# Total GULP energy -357376.554899 kJ/mol
# GULP energy per Si atom -5584.008670 kJ/mol
# Density = 2.105300 g / cm^3
# Si number density = 21.101030 Si / 1000 Ang^3
#
#
#
# Elastic Constant Matrix: (Units=GPa)
#
#
# Indices 1 2 3 4 5 6 
#
# 1 85.9534 9.9397 -1.8885 0.0000 0.0000 0.0000
# 2 9.9397 33.4897 -0.8808 0.0000 0.0000 0.0000
# 3 -1.8885 -0.8808 109.5350 0.0000 0.0000 0.0000
# 4 0.0000 0.0000 0.0000 27.0789 0.0000 0.0000
# 5 0.0000 0.0000 0.0000 0.0000 33.7763 0.0000
# 6 0.0000 0.0000 0.0000 0.0000 0.0000 6.3070
#
#
#
# Elastic Compliance Matrix: (Units=1/GPa)
#
#
# Indices 1 2 3 4 5 6 
#
# 1 0.012051 -0.003572 0.000179 0.000000 0.000000 0.000000
# 2 -0.003572 0.030925 0.000187 0.000000 0.000000 0.000000
# 3 0.000179 0.000187 0.009134 0.000000 0.000000 0.000000
# 4 0.000000 0.000000 0.000000 0.036929 0.000000 0.000000
# 5 0.000000 0.000000 0.000000 0.000000 0.029607 0.000000
# 6 0.000000 0.000000 0.000000 0.000000 0.000000 0.158555
#
#
# Mechanical properties :
#
#
# Convention : Reuss Voigt Hill
#
# Bulk Modulus (GPa) = 21.88257 27.03542 24.45900
# Shear Modulus (GPa) = 16.73106 28.21961 22.47533
#
# Velocity S-wave (km/s) = 2.81891 3.66096 3.26717
# Velocity P-wave (km/s) = 4.58125 5.54169 5.08420
#
# Compressibility (1/GPa) = 0.04569848
#
# Stress axis : x y z
#
# Youngs Moduli (GPa) = 82.97918 32.33630 109.47993
#
# Poissons Ratio (x) = 0.11551 -0.01960
# Poissons Ratio (y) = 0.29641 -0.02048
# Poissons Ratio (z) = -0.01486 -0.00605
#
# Static dielectric constant tensor:
#      x y z
#    x 1.750710 0.000000 0.000000 
#    y 0.000000 1.689880 0.000000 
#    z 0.000000 0.000000 1.909720 
# 
# From -- ./inp_files/2019.got.cif
#   From: 2010.05.17/outbox.cif.g08.bks.cpg/sg54_2_cif.got.tgz:2019.got - 2010.06.03 13:09:01.
