data_PCOD9421441
_publ_section_title
;
Structure prediction by ZEFSAII (Michael W. Deem and Ramdas Pophale) SiO2 
 PCOD9421441
Probable space group: P C C A
;
_chemical_formula_sum "Si O2"
_cell_formula_units_Z 44
_cell_length_a 26.568603
_cell_length_b 5.969828
_cell_length_c 13.370116
_cell_angle_alpha 90.000000
_cell_angle_beta 90.000000
_cell_angle_gamma 90.000000
_cell_volume 2120.633967
_symmetry_space_group_name_H-M "P C C A"
_symmetry_group_IT_number 54
_symmetry_cell_setting 'orthorhombic'
loop_
_space_group_symop_operation_xyz
x,y,z
1/2-x,-y,z
1/2+x,-y,1/2-z
-x,y,1/2-z
-x,-y,-z
1/2+x,y,-z
1/2-x,y,1/2+z
x,-y,1/2+z
loop_
_atom_site_type_symbol
_atom_site_label
_atom_site_fract_x
_atom_site_fract_y
_atom_site_fract_z
Si Si1 0.466175 0.301899 0.043316
Si Si2 0.298020 0.607855 0.652188
Si Si3 0.935522 0.945682 0.105587
Si Si4 0.650847 0.212183 0.974526
Si Si5 0.250000 0.000000 0.517083
Si Si6 0.889029 0.146924 0.810877
O O1 0.507786 0.139575 0.092903
O O2 0.424899 0.322490 0.130155
O O3 0.500000 0.500000 0.000000
O O4 0.436725 0.180461 0.953002
O O5 0.250000 0.500000 0.705890
O O6 0.327084 0.432403 0.579578
O O7 0.272547 0.800113 0.584562
O O8 0.339531 0.718906 0.721775
O O9 0.918253 0.958597 0.218866
O O10 0.896719 0.778858 0.048382
O O11 0.699196 0.100576 0.030777
O O12 0.630404 0.044238 0.887390
#
# Coordination Sequence:
#
# PCOD9421441 Si02
#       6
#     8   8   8   8   4   8
#     4  10  21  38  58  80 112 151 190 234 290 356
#     4   9  17  33  55  78 109 151 190 229 283 338
#     4  10  21  36  55  83 112 142 189 241 289 346
#     4   9  18  34  54  77 110 147 183 232 287 341
#     4   8  16  32  54  76 106 148 188 228 276 338
#     4  10  20  35  55  82 112 145 189 239 288 344
#
# _framework density 20.74851
#
# number of rings (size 3 to 8) (size 9 to 14) (size 15 to 20)
#    0.000    2.545    0.000    1.636    0.000    1.455 
#    0.000   13.636    0.000    0.000    0.000    0.000 
#    0.000    0.000    0.000    0.000    0.000    0.000 
#
# Total GULP energy -244955.057707 kJ/mol
# GULP energy per Si atom -5567.160402 kJ/mol
# Density = 2.070129 g / cm^3
# Si number density = 20.748510 Si / 1000 Ang^3
#
#
#
# Elastic Constant Matrix: (Units=GPa)
#
#
# Indices 1 2 3 4 5 6 
#
# 1 129.9058 21.7453 42.3947 0.0000 0.0000 0.0000
# 2 21.7453 60.3134 13.9742 0.0000 0.0000 0.0000
# 3 42.3947 13.9742 66.2333 0.0000 0.0000 0.0000
# 4 0.0000 0.0000 0.0000 9.6262 0.0000 0.0000
# 5 0.0000 0.0000 0.0000 0.0000 18.8138 0.0000
# 6 0.0000 0.0000 0.0000 0.0000 0.0000 50.8426
#
#
#
# Elastic Compliance Matrix: (Units=1/GPa)
#
#
# Indices 1 2 3 4 5 6 
#
# 1 0.010009 -0.002233 -0.005935 0.000000 0.000000 0.000000
# 2 -0.002233 0.017931 -0.002354 0.000000 0.000000 0.000000
# 3 -0.005935 -0.002354 0.019394 0.000000 0.000000 0.000000
# 4 0.000000 0.000000 0.000000 0.103883 0.000000 0.000000
# 5 0.000000 0.000000 0.000000 0.000000 0.053152 0.000000
# 6 0.000000 0.000000 0.000000 0.000000 0.000000 0.019669
#
#
# Mechanical properties :
#
#
# Convention : Reuss Voigt Hill
#
# Bulk Modulus (GPa) = 38.03902 45.85346 41.94624
# Shear Modulus (GPa) = 19.69713 27.74574 23.72144
#
# Velocity S-wave (km/s) = 3.08446 3.66080 3.38492
# Velocity P-wave (km/s) = 5.57300 6.32584 5.96131
#
# Compressibility (1/GPa) = 0.02628879
#
# Stress axis : x y z
#
# Youngs Moduli (GPa) = 99.91339 55.77059 51.56321
#
# Poissons Ratio (x) = 0.12456 0.30604
# Poissons Ratio (y) = 0.22314 0.12136
# Poissons Ratio (z) = 0.59300 0.13126
#
# Static dielectric constant tensor:
#      x y z
#    x 1.772290 0.000000 0.000000 
#    y 0.000000 1.805400 0.000000 
#    z 0.000000 0.000000 1.697170 
# 
# From -- ./inp_files/15096.got.cif
#   From: 2010.05.17/outbox.cif.g08.bks.cpg/sg54_8_cif.got.tgz:15096.got - 2010.06.03 13:09:01.
