data_PCOD9421288
_publ_section_title
;
Structure prediction by ZEFSAII (Michael W. Deem and Ramdas Pophale) SiO2 
 PCOD9421288
Probable space group: P C C A
;
_chemical_formula_sum "Si O2"
_cell_formula_units_Z 60
_cell_length_a 14.307251
_cell_length_b 12.179691
_cell_length_c 17.706822
_cell_angle_alpha 90.000000
_cell_angle_beta 90.000000
_cell_angle_gamma 90.000000
_cell_volume 3085.553551
_symmetry_space_group_name_H-M "P C C A"
_symmetry_group_IT_number 54
_symmetry_cell_setting 'orthorhombic'
loop_
_space_group_symop_operation_xyz
x,y,z
1/2-x,-y,z
1/2+x,-y,1/2-z
-x,y,1/2-z
-x,-y,-z
1/2+x,y,-z
1/2-x,y,1/2+z
x,-y,1/2+z
loop_
_atom_site_type_symbol
_atom_site_label
_atom_site_fract_x
_atom_site_fract_y
_atom_site_fract_z
Si Si1 0.822001 0.904681 0.571792
Si Si2 0.036237 0.344072 0.427803
Si Si3 0.447368 0.930851 0.564667
Si Si4 0.498882 0.886858 0.339801
Si Si5 0.552008 0.519957 0.823977
Si Si6 0.459918 0.294728 0.408174
Si Si7 0.250000 0.500000 0.246130
Si Si8 0.743898 0.672961 0.120206
O O1 0.865019 0.878725 0.488068
O O2 0.902489 0.939666 0.630213
O O3 0.774650 0.802482 0.613659
O O4 0.750000 0.000000 0.559020
O O5 0.006805 0.232214 0.381750
O O6 0.147936 0.367382 0.421145
O O7 0.979439 0.442762 0.391498
O O8 0.004944 0.329478 0.512813
O O9 0.513000 0.833919 0.596270
O O10 0.500000 0.000000 0.500000
O O11 0.425855 0.025140 0.627143
O O12 0.500000 0.874218 0.250000
O O13 0.500000 0.475393 0.750000
O O14 0.512130 0.639708 0.842197
O O15 0.660089 0.516227 0.805373
O O16 0.351262 0.332288 0.407982
O O17 0.241052 0.394115 0.301365
#
# Coordination Sequence:
#
# PCOD9421288 Si02
#       8
#     8   8   8   8   8   8   4   8
#     4  10  21  39  67  92 129 175 225 267 328 395
#     4  11  23  42  70  96 132 174 228 276 335 404
#     4  10  19  41  63  93 135 169 217 274 332 377
#     4  10  21  38  66  96 126 180 217 263 341 400
#     4  12  25  44  66  95 134 174 217 278 334 400
#     4  12  23  41  70 101 130 174 228 278 331 397
#     4  12  26  46  66  98 136 182 216 280 348 398
#     4  11  21  39  70  94 129 177 221 261 345 402
#
# _framework density 19.445457999999999
#
# number of rings (size 3 to 8) (size 9 to 14) (size 15 to 20)
#    0.000    1.067    6.667    2.400    1.867    1.600 
#    2.400    0.667    0.000    0.000    0.000    0.000 
#    0.000    0.000    0.000    0.000    0.000    0.000 
#
# Total GULP energy -334029.209760 kJ/mol
# GULP energy per Si atom -5567.153496 kJ/mol
# Density = 1.940120 g / cm^3
# Si number density = 19.445458 Si / 1000 Ang^3
#
#
#
# Elastic Constant Matrix: (Units=GPa)
#
#
# Indices 1 2 3 4 5 6 
#
# 1 145.4623 31.9157 34.2657 0.0000 0.0000 0.0000
# 2 31.9157 102.9600 19.6525 0.0000 0.0000 0.0000
# 3 34.2657 19.6525 68.1792 0.0000 0.0000 0.0000
# 4 0.0000 0.0000 0.0000 -49.2363 0.0000 0.0000
# 5 0.0000 0.0000 0.0000 0.0000 24.9884 0.0000
# 6 0.0000 0.0000 0.0000 0.0000 0.0000 25.8133
#
#
#
# Elastic Compliance Matrix: (Units=1/GPa)
#
#
# Indices 1 2 3 4 5 6 
#
# 1 0.008114 -0.001838 -0.003548 0.000000 0.000000 0.000000
# 2 -0.001838 0.010694 -0.002159 0.000000 0.000000 0.000000
# 3 -0.003548 -0.002159 0.017073 0.000000 0.000000 0.000000
# 4 0.000000 0.000000 0.000000 -0.020310 0.000000 0.000000
# 5 0.000000 0.000000 0.000000 0.000000 0.040019 0.000000
# 6 0.000000 0.000000 0.000000 0.000000 0.000000 0.038740
#
#
# Mechanical properties :
#
#
# Convention : Reuss Voigt Hill
#
# Bulk Modulus (GPa) = 48.09763 54.25214 51.17489
# Shear Modulus (GPa) = 42.97422 15.69756 29.33589
#
# Velocity S-wave (km/s) = 4.70615 2.84432 3.88832
# Velocity P-wave (km/s) = 7.37013 6.22471 6.82151
#
# Compressibility (1/GPa) = 0.02079104
#
# Stress axis : x y z
#
# Youngs Moduli (GPa) = 123.24883 93.50776 58.57302
#
# Poissons Ratio (x) = 0.17185 0.20782
# Poissons Ratio (y) = 0.22651 0.12645
# Poissons Ratio (z) = 0.43729 0.20188
#
# Static dielectric constant tensor:
#      x y z
#    x 1.742010 0.000000 0.000000 
#    y 0.000000 1.749940 0.000000 
#    z 0.000000 0.000000 1.770170 
# 
# From -- ./inp_files/18184.got.cif
#   From: 2010.05.17/outbox.cif.g08.bks.cpg/sg54_10_cif.got.tgz:18184.got - 2010.06.03 13:09:01.
