data_PCOD9421357
_publ_section_title
;
Structure prediction by ZEFSAII (Michael W. Deem and Ramdas Pophale) SiO2 
 PCOD9421357
Probable space group: P C C A
;
_chemical_formula_sum "Si O2"
_cell_formula_units_Z 64
_cell_length_a 7.515853
_cell_length_b 11.545998
_cell_length_c 29.354937
_cell_angle_alpha 90.000000
_cell_angle_beta 90.000000
_cell_angle_gamma 90.000000
_cell_volume 2547.363419
_symmetry_space_group_name_H-M "P C C A"
_symmetry_group_IT_number 54
_symmetry_cell_setting 'orthorhombic'
loop_
_space_group_symop_operation_xyz
x,y,z
1/2-x,-y,z
1/2+x,-y,1/2-z
-x,y,1/2-z
-x,-y,-z
1/2+x,y,-z
1/2-x,y,1/2+z
x,-y,1/2+z
loop_
_atom_site_type_symbol
_atom_site_label
_atom_site_fract_x
_atom_site_fract_y
_atom_site_fract_z
Si Si1 0.047984 0.365486 0.891811
Si Si2 0.968472 0.003620 0.180501
Si Si3 0.536943 0.253285 0.701278
Si Si4 0.250240 0.368438 0.031437
Si Si5 0.962546 0.249441 0.700767
Si Si6 0.144012 0.874447 0.002639
Si Si7 0.952120 0.364183 0.107736
Si Si8 0.540466 0.996748 0.078121
O O1 0.972925 0.304397 0.846576
O O2 0.059961 0.500712 0.880280
O O3 0.249549 0.322105 0.900888
O O4 0.921286 0.361541 0.935436
O O5 0.030528 0.121533 0.203206
O O6 0.034541 0.011071 0.128191
O O7 0.750000 0.000000 0.182324
O O8 0.029790 0.882653 0.200964
O O9 0.500000 0.311672 0.750000
O O10 0.749621 0.251216 0.696444
O O11 0.472588 0.304578 0.653292
O O12 0.250000 0.500000 0.010180
O O13 0.265045 0.250416 0.002524
O O14 0.079008 0.358983 0.064055
O O15 0.000000 0.304517 0.750000
O O16 0.250000 0.000000 0.001018
O O17 0.025417 0.889444 0.956861
O O18 0.036774 0.895046 0.049794
O O19 0.750000 0.000000 0.087220
#
# Coordination Sequence:
#
# PCOD9421357 Si02
#       8
#     8   8   8   8   8   8   8   8
#     4   9  19  38  58  86 124 173 214 254 321 386
#     4   9  18  34  54  80 109 159 201 244 317 387
#     4  10  21  34  51  81 118 158 203 262 317 367
#     4  10  21  39  65  96 134 172 212 267 333 393
#     4  10  20  33  53  81 118 154 207 264 310 383
#     4  10  21  37  61 100 129 156 214 276 320 390
#     4   9  20  37  59  87 124 168 218 262 306 393
#     4   9  19  38  63  87 122 169 210 263 326 395
#
# _framework density 25.124016000000001
#
# number of rings (size 3 to 8) (size 9 to 14) (size 15 to 20)
#    0.000    2.500    0.000    1.125    3.500    1.500 
#    0.000    0.000    0.000    6.750   16.250    0.000 
#    0.000    0.000    0.000    0.000    0.000    0.000 
#
# Total GULP energy -357388.379044 kJ/mol
# GULP energy per Si atom -5584.193423 kJ/mol
# Density = 2.506683 g / cm^3
# Si number density = 25.124016 Si / 1000 Ang^3
#
#
#
# Elastic Constant Matrix: (Units=GPa)
#
#
# Indices 1 2 3 4 5 6 
#
# 1 78.9875 17.0984 1.5666 0.0000 0.0000 0.0000
# 2 17.0984 139.3605 47.1812 0.0000 0.0000 0.0000
# 3 1.5666 47.1812 119.8704 0.0000 0.0000 0.0000
# 4 0.0000 0.0000 0.0000 4.4952 0.0000 0.0000
# 5 0.0000 0.0000 0.0000 0.0000 23.7751 0.0000
# 6 0.0000 0.0000 0.0000 0.0000 0.0000 24.2989
#
#
#
# Elastic Compliance Matrix: (Units=1/GPa)
#
#
# Indices 1 2 3 4 5 6 
#
# 1 0.013035 -0.001779 0.000530 0.000000 0.000000 0.000000
# 2 -0.001779 0.008522 -0.003331 0.000000 0.000000 0.000000
# 3 0.000530 -0.003331 0.009646 0.000000 0.000000 0.000000
# 4 0.000000 0.000000 0.000000 0.222461 0.000000 0.000000
# 5 0.000000 0.000000 0.000000 0.000000 0.042061 0.000000
# 6 0.000000 0.000000 0.000000 0.000000 0.000000 0.041154
#
#
# Mechanical properties :
#
#
# Convention : Reuss Voigt Hill
#
# Bulk Modulus (GPa) = 45.36535 52.21231 48.78883
# Shear Modulus (GPa) = 14.14882 28.67197 21.41039
#
# Velocity S-wave (km/s) = 2.37567 3.38186 2.92239
# Velocity P-wave (km/s) = 5.06170 6.00635 5.55415
#
# Compressibility (1/GPa) = 0.02204326
#
# Stress axis : x y z
#
# Youngs Moduli (GPa) = 76.71805 117.34980 103.66509
#
# Poissons Ratio (x) = 0.20872 -0.05491
# Poissons Ratio (y) = 0.13645 0.34529
# Poissons Ratio (z) = -0.04064 0.39087
#
# Static dielectric constant tensor:
#      x y z
#    x 1.990440 0.000000 0.000000 
#    y 0.000000 1.979950 0.000000 
#    z 0.000000 0.000000 2.047970 
# 
# From -- ./inp_files/27960.got.cif
#   From: 2010.05.17/outbox.cif.g08.bks.cpg/sg54_14_cif.got.tgz:27960.got - 2010.06.03 13:09:01.
