data_PCOD9421888
_publ_section_title
;
Structure prediction by ZEFSAII (Michael W. Deem and Ramdas Pophale) SiO2 
 PCOD9421888
Probable space group: P C C A
;
_chemical_formula_sum "Si O2"
_cell_formula_units_Z 60
_cell_length_a 22.715381
_cell_length_b 9.021547
_cell_length_c 11.749623
_cell_angle_alpha 90.000000
_cell_angle_beta 90.000000
_cell_angle_gamma 90.000000
_cell_volume 2407.825301
_symmetry_space_group_name_H-M "P C C A"
_symmetry_group_IT_number 54
_symmetry_cell_setting 'orthorhombic'
loop_
_space_group_symop_operation_xyz
x,y,z
1/2-x,-y,z
1/2+x,-y,1/2-z
-x,y,1/2-z
-x,-y,-z
1/2+x,y,-z
1/2-x,y,1/2+z
x,-y,1/2+z
loop_
_atom_site_type_symbol
_atom_site_label
_atom_site_fract_x
_atom_site_fract_y
_atom_site_fract_z
Si Si1 0.327658 0.121516 0.295121
Si Si2 0.406158 0.384435 0.211528
Si Si3 0.903218 0.667570 0.665890
Si Si4 0.814542 0.578239 0.481406
Si Si5 0.260633 0.833148 0.993253
Si Si6 0.500000 0.156418 0.250000
Si Si7 0.630244 0.878499 0.373384
Si Si8 0.924434 0.031569 0.070122
O O1 0.363129 0.273898 0.281086
O O2 0.267130 0.170827 0.355440
O O3 0.358505 0.013037 0.388654
O O4 0.336759 0.015525 0.188014
O O5 0.432301 0.517633 0.287396
O O6 0.365625 0.453149 0.110807
O O7 0.457201 0.267862 0.181066
O O8 0.846023 0.599238 0.602694
O O9 0.891807 0.769234 0.775898
O O10 0.931172 0.791220 0.580919
O O11 0.750000 0.500000 0.486423
O O12 0.791610 0.741940 0.453265
O O13 0.322761 0.788344 0.050029
O O14 0.250000 0.000000 0.021101
O O15 0.535709 0.054496 0.161748
O O16 0.577479 0.951505 0.447604
#
# Coordination Sequence:
#
# PCOD9421888 Si02
#       8
#     8   8   8   8   8   4   8   8
#     4   9  19  36  57  88 133 176 229 298 358 428
#     4  11  24  44  68 100 142 193 245 302 381 459
#     4  11  24  43  68  99 138 187 241 299 375 457
#     4  12  26  42  63 101 148 192 245 308 377 462
#     4  11  21  33  58  92 128 181 240 292 358 436
#     4  10  24  48  78 106 146 196 252 330 390 442
#     4  10  20  39  65  97 138 185 240 306 370 439
#     4   9  20  42  68  99 134 182 248 309 370 436
#
# _framework density 24.918752000000001
#
# number of rings (size 3 to 8) (size 9 to 14) (size 15 to 20)
#    0.000    1.600    0.000    5.600    0.000    9.067 
#    0.000   13.333    0.000    0.000    0.000    0.000 
#    0.000    0.000    0.000    0.000    0.000    0.000 
#
# Total GULP energy -334605.277932 kJ/mol
# GULP energy per Si atom -5576.754632 kJ/mol
# Density = 2.486204 g / cm^3
# Si number density = 24.918752 Si / 1000 Ang^3
#
#
#
# Elastic Constant Matrix: (Units=GPa)
#
#
# Indices 1 2 3 4 5 6 
#
# 1 82.0561 29.3720 23.9995 0.0000 0.0000 0.0000
# 2 29.3720 118.3020 28.1694 0.0000 0.0000 0.0000
# 3 23.9995 28.1694 82.3806 0.0000 0.0000 0.0000
# 4 0.0000 0.0000 0.0000 34.3518 0.0000 0.0000
# 5 0.0000 0.0000 0.0000 0.0000 38.9664 0.0000
# 6 0.0000 0.0000 0.0000 0.0000 0.0000 46.6649
#
#
#
# Elastic Compliance Matrix: (Units=1/GPa)
#
#
# Indices 1 2 3 4 5 6 
#
# 1 0.014096 -0.002745 -0.003168 0.000000 0.000000 0.000000
# 2 -0.002745 0.009737 -0.002530 0.000000 0.000000 0.000000
# 3 -0.003168 -0.002530 0.013927 0.000000 0.000000 0.000000
# 4 0.000000 0.000000 0.000000 0.029111 0.000000 0.000000
# 5 0.000000 0.000000 0.000000 0.000000 0.025663 0.000000
# 6 0.000000 0.000000 0.000000 0.000000 0.000000 0.021429
#
#
# Mechanical properties :
#
#
# Convention : Reuss Voigt Hill
#
# Bulk Modulus (GPa) = 47.90678 49.53560 48.72119
# Shear Modulus (GPa) = 36.28282 37.40981 36.84632
#
# Velocity S-wave (km/s) = 3.81996 3.87883 3.84950
# Velocity P-wave (km/s) = 6.22278 6.32316 6.27317
#
# Compressibility (1/GPa) = 0.02087387
#
# Stress axis : x y z
#
# Youngs Moduli (GPa) = 70.94198 102.70175 71.80495
#
# Poissons Ratio (x) = 0.28197 0.22746
# Poissons Ratio (y) = 0.19477 0.18164
# Poissons Ratio (z) = 0.22473 0.25980
#
# Static dielectric constant tensor:
#      x y z
#    x 2.044720 0.000000 0.000000 
#    y 0.000000 2.011320 0.000000 
#    z 0.000000 0.000000 2.121200 
# 
# From -- ./inp_files/10516.got.cif
#   From: 2010.05.17/outbox.cif.g08.bks.cpg/sg54_6_cif.got.tgz:10516.got - 2010.06.03 13:09:01.
