data_PCOD9421355
_publ_section_title
;
Structure prediction by ZEFSAII (Michael W. Deem and Ramdas Pophale) SiO2 
 PCOD9421355
Probable space group: P C C A
;
_chemical_formula_sum "Si O2"
_cell_formula_units_Z 48
_cell_length_a 19.303750
_cell_length_b 10.651798
_cell_length_c 10.532863
_cell_angle_alpha 90.000000
_cell_angle_beta 90.000000
_cell_angle_gamma 90.000000
_cell_volume 2165.763558
_symmetry_space_group_name_H-M "P C C A"
_symmetry_group_IT_number 54
_symmetry_cell_setting 'orthorhombic'
loop_
_space_group_symop_operation_xyz
x,y,z
1/2-x,-y,z
1/2+x,-y,1/2-z
-x,y,1/2-z
-x,-y,-z
1/2+x,y,-z
1/2-x,y,1/2+z
x,-y,1/2+z
loop_
_atom_site_type_symbol
_atom_site_label
_atom_site_fract_x
_atom_site_fract_y
_atom_site_fract_z
Si Si1 0.833974 0.998366 0.410968
Si Si2 0.179532 0.915855 0.840883
Si Si3 0.314840 0.346777 0.693918
Si Si4 0.982130 0.395095 0.895849
Si Si5 0.662337 0.378103 0.291018
Si Si6 0.611792 0.749341 0.542127
O O1 0.861848 0.004868 0.267577
O O2 0.863619 0.118158 0.487214
O O3 0.750000 0.000000 0.391881
O O4 0.848308 0.895244 0.517094
O O5 0.184111 0.779169 0.777178
O O6 0.250000 0.000000 0.858247
O O7 0.333077 0.478069 0.760222
O O8 0.235922 0.352836 0.645656
O O9 0.365259 0.339197 0.574074
O O10 0.901430 0.365593 0.885670
O O11 0.000000 0.435833 0.750000
O O12 0.031599 0.276838 0.927560
O O13 0.000000 0.500000 0.000000
O O14 0.651581 0.288749 0.170166
#
# Coordination Sequence:
#
# PCOD9421355 Si02
#       6
#     8   8   8   8   8   8
#     4   9  17  31  54  80 112 146 192 244 293 341
#     4   9  17  31  51  76 111 148 184 237 294 348
#     4  10  20  33  52  83 120 144 194 246 305 349
#     4  10  20  38  60  79 116 163 199 230 291 364
#     4  10  20  33  53  85 117 152 191 243 298 362
#     4  10  20  36  56  85 118 156 200 243 298 366
#
# _framework density 22.163084000000001
#
# number of rings (size 3 to 8) (size 9 to 14) (size 15 to 20)
#    0.000    2.333    1.667    2.000    0.000    2.667 
#    0.000    1.667    0.000    0.000    0.000  143.500 
#    0.000    0.000    0.000    0.000    0.000    0.000 
#
# Total GULP energy -267338.084690 kJ/mol
# GULP energy per Si atom -5569.543431 kJ/mol
# Density = 2.211264 g / cm^3
# Si number density = 22.163084 Si / 1000 Ang^3
#
#
#
# Elastic Constant Matrix: (Units=GPa)
#
#
# Indices 1 2 3 4 5 6 
#
# 1 67.7134 12.7342 -11.7016 0.0000 0.0000 0.0000
# 2 12.7342 74.9666 2.8335 0.0000 0.0000 0.0000
# 3 -11.7016 2.8335 61.3291 0.0000 0.0000 0.0000
# 4 0.0000 0.0000 0.0000 9.2235 0.0000 0.0000
# 5 0.0000 0.0000 0.0000 0.0000 12.4916 0.0000
# 6 0.0000 0.0000 0.0000 0.0000 0.0000 23.0879
#
#
#
# Elastic Compliance Matrix: (Units=1/GPa)
#
#
# Indices 1 2 3 4 5 6 
#
# 1 0.015841 -0.002810 0.003152 0.000000 0.000000 0.000000
# 2 -0.002810 0.013861 -0.001177 0.000000 0.000000 0.000000
# 3 0.003152 -0.001177 0.016961 0.000000 0.000000 0.000000
# 4 0.000000 0.000000 0.000000 0.108419 0.000000 0.000000
# 5 0.000000 0.000000 0.000000 0.000000 0.080054 0.000000
# 6 0.000000 0.000000 0.000000 0.000000 0.000000 0.043313
#
#
# Mechanical properties :
#
#
# Convention : Reuss Voigt Hill
#
# Bulk Modulus (GPa) = 22.22457 23.52680 22.87568
# Shear Modulus (GPa) = 16.94248 22.30346 19.62297
#
# Velocity S-wave (km/s) = 2.76786 3.17572 2.97878
# Velocity P-wave (km/s) = 4.50158 4.90767 4.70901
#
# Compressibility (1/GPa) = 0.04499525
#
# Stress axis : x y z
#
# Youngs Moduli (GPa) = 63.12597 72.14449 58.95776
#
# Poissons Ratio (x) = 0.20273 -0.18586
# Poissons Ratio (y) = 0.17739 0.06937
# Poissons Ratio (z) = -0.19900 0.08488
#
# Static dielectric constant tensor:
#      x y z
#    x 1.825080 0.000000 0.000000 
#    y 0.000000 1.925330 0.000000 
#    z 0.000000 0.000000 1.877900 
# 
# From -- ./inp_files/8952.got.cif
#   From: 2010.05.17/outbox.cif.g08.bks.cpg/sg54_5_cif.got.tgz:8952.got - 2010.06.03 13:09:01.
