data_PCOD9421743
_publ_section_title
;
Structure prediction by ZEFSAII (Michael W. Deem and Ramdas Pophale) SiO2 
 PCOD9421743
Probable space group: P C C A
;
_chemical_formula_sum "Si O2"
_cell_formula_units_Z 56
_cell_length_a 16.132599
_cell_length_b 5.464307
_cell_length_c 28.757569
_cell_angle_alpha 90.000000
_cell_angle_beta 90.000000
_cell_angle_gamma 90.000000
_cell_volume 2535.079601
_symmetry_space_group_name_H-M "P C C A"
_symmetry_group_IT_number 54
_symmetry_cell_setting 'orthorhombic'
loop_
_space_group_symop_operation_xyz
x,y,z
1/2-x,-y,z
1/2+x,-y,1/2-z
-x,y,1/2-z
-x,-y,-z
1/2+x,y,-z
1/2-x,y,1/2+z
x,-y,1/2+z
loop_
_atom_site_type_symbol
_atom_site_label
_atom_site_fract_x
_atom_site_fract_y
_atom_site_fract_z
Si Si1 0.660266 0.915298 0.338056
Si Si2 0.100618 0.674711 0.749286
Si Si3 0.580261 0.188885 0.215436
Si Si4 0.474315 0.223587 0.128909
Si Si5 0.057226 0.968167 0.953991
Si Si6 0.153873 0.539038 0.470748
Si Si7 0.844404 0.582213 0.918115
O O1 0.630006 0.707887 0.303451
O O2 0.657281 0.839886 0.391980
O O3 0.750000 0.000000 0.324604
O O4 0.594043 0.126681 0.335149
O O5 0.133678 0.418934 0.768035
O O6 0.000000 0.659607 0.750000
O O7 0.120458 0.920920 0.778459
O O8 0.500000 0.173424 0.250000
O O9 0.550947 0.263550 0.163515
O O10 0.503557 0.019393 0.091936
O O11 0.423529 0.432922 0.101674
O O12 0.119533 0.200992 0.953128
O O13 0.100846 0.701812 0.956234
O O14 0.000000 0.000000 0.000000
O O15 0.250000 0.500000 0.458252
O O16 0.148861 0.566787 0.526755
O O17 0.750000 0.500000 0.905886
#
# Coordination Sequence:
#
# PCOD9421743 Si02
#       7
#     8   8   8   8   8   8   8
#     4  12  24  38  62 101 141 180 218 282 360 432
#     4  10  20  38  60  84 128 166 217 258 317 398
#     4  10  20  38  61  89 120 164 218 266 319 393
#     4  12  24  39  66  98 135 175 229 286 342 413
#     4  12  25  44  68 106 138 177 239 294 343 427
#     4  11  26  47  69  94 140 190 231 289 358 415
#     4  11  23  37  61  94 139 181 216 275 355 427
#
# _framework density 22.090036999999999
#
# number of rings (size 3 to 8) (size 9 to 14) (size 15 to 20)
#    0.000    0.857    5.714    3.429    2.000    0.000 
#    0.000    0.000    0.000    3.429    0.000    1.000 
#    0.000    0.000    0.000    0.000    0.000    0.000 
#
# Total GULP energy -312425.750233 kJ/mol
# GULP energy per Si atom -5579.031254 kJ/mol
# Density = 2.203976 g / cm^3
# Si number density = 22.090037 Si / 1000 Ang^3
#
#
#
# Elastic Constant Matrix: (Units=GPa)
#
#
# Indices 1 2 3 4 5 6 
#
# 1 69.2004 22.2744 27.7074 0.0000 0.0000 0.0000
# 2 22.2744 107.0763 0.6616 0.0000 0.0000 0.0000
# 3 27.7074 0.6616 59.3856 0.0000 0.0000 0.0000
# 4 0.0000 0.0000 0.0000 35.4882 0.0000 0.0000
# 5 0.0000 0.0000 0.0000 0.0000 7.1378 0.0000
# 6 0.0000 0.0000 0.0000 0.0000 0.0000 -134.9987
#
#
#
# Elastic Compliance Matrix: (Units=1/GPa)
#
#
# Indices 1 2 3 4 5 6 
#
# 1 0.019317 -0.003963 -0.008969 0.000000 0.000000 0.000000
# 2 -0.003963 0.010153 0.001736 0.000000 0.000000 0.000000
# 3 -0.008969 0.001736 0.021004 0.000000 0.000000 0.000000
# 4 0.000000 0.000000 0.000000 0.028178 0.000000 0.000000
# 5 0.000000 0.000000 0.000000 0.000000 0.140099 0.000000
# 6 0.000000 0.000000 0.000000 0.000000 0.000000 -0.007407
#
#
# Mechanical properties :
#
#
# Convention : Reuss Voigt Hill
#
# Bulk Modulus (GPa) = 35.60903 37.43882 36.52393
# Shear Modulus (GPa) = 20.56788 -6.13995 7.21397
#
# Velocity S-wave (km/s) = 3.05469 -1.66900 1.80909
# Velocity P-wave (km/s) = 5.34757 3.64294 4.57534
#
# Compressibility (1/GPa) = 0.02808276
#
# Stress axis : x y z
#
# Youngs Moduli (GPa) = 51.76665 98.49479 47.60934
#
# Poissons Ratio (x) = 0.39034 0.42700
# Poissons Ratio (y) = 0.20516 -0.08265
# Poissons Ratio (z) = 0.46428 -0.17098
#
# Static dielectric constant tensor:
#      x y z
#    x 1.851040 0.000000 0.000000 
#    y 0.000000 1.921770 0.000000 
#    z 0.000000 0.000000 1.771640 
# 
# From -- ./inp_files/28211.got.cif
#   From: 2010.05.17/outbox.cif.g08.bks.cpg/sg54_15_cif.got.tgz:28211.got - 2010.06.03 13:09:01.
