data_PCOD9421186
_publ_section_title
;
Structure prediction by ZEFSAII (Michael W. Deem and Ramdas Pophale) SiO2 
 PCOD9421186
Probable space group: P C C A
;
_chemical_formula_sum "Si O2"
_cell_formula_units_Z 64
_cell_length_a 21.546798
_cell_length_b 12.778243
_cell_length_c 11.363475
_cell_angle_alpha 90.000000
_cell_angle_beta 90.000000
_cell_angle_gamma 90.000000
_cell_volume 3128.708080
_symmetry_space_group_name_H-M "P C C A"
_symmetry_group_IT_number 54
_symmetry_cell_setting 'orthorhombic'
loop_
_space_group_symop_operation_xyz
x,y,z
1/2-x,-y,z
1/2+x,-y,1/2-z
-x,y,1/2-z
-x,-y,-z
1/2+x,y,-z
1/2-x,y,1/2+z
x,-y,1/2+z
loop_
_atom_site_type_symbol
_atom_site_label
_atom_site_fract_x
_atom_site_fract_y
_atom_site_fract_z
Si Si1 0.433676 0.899656 0.686242
Si Si2 0.586094 0.225495 0.537932
Si Si3 0.702293 0.645293 0.951311
Si Si4 0.574071 0.131242 0.777096
Si Si5 0.071560 0.311964 0.794050
Si Si6 0.955513 0.678094 0.936262
Si Si7 0.874808 0.514516 0.827747
Si Si8 0.229008 0.620326 0.787511
O O1 0.500000 0.908943 0.750000
O O2 0.441136 0.859826 0.553010
O O3 0.402902 0.801508 0.754163
O O4 0.404704 0.014970 0.688437
O O5 0.642289 0.282955 0.474374
O O6 0.605729 0.169003 0.657230
O O7 0.529442 0.303941 0.565664
O O8 0.673628 0.528104 0.927326
O O9 0.738877 0.670397 0.829217
O O10 0.737555 0.656334 0.077349
O O11 0.500000 0.125551 0.750000
O O12 0.576363 0.222857 0.872397
O O13 0.108051 0.410065 0.742151
O O14 0.000000 0.317020 0.750000
O O15 0.068664 0.320896 0.932223
O O16 0.935192 0.569131 0.879754
O O17 0.843005 0.602731 0.746397
O O18 0.250000 0.500000 0.788679
#
# Coordination Sequence:
#
# PCOD9421186 Si02
#       8
#     8   8   8   8   8   8   8   8
#     4  10  19  37  55  84 122 164 206 240 288 363
#     4  11  21  39  59  90 124 159 197 248 310 365
#     4  11  22  40  60  86 119 155 206 256 309 362
#     4   9  22  33  58  86 122 168 204 248 288 353
#     4  11  21  35  52  83 121 171 202 239 296 362
#     4  11  22  37  56  91 129 164 202 237 301 374
#     4  11  22  36  58  89 125 164 199 252 297 366
#     4  10  22  39  58  81 115 157 207 253 296 358
#
# _framework density 20.455727
#
# number of rings (size 3 to 8) (size 9 to 14) (size 15 to 20)
#    0.000    1.500    3.750    2.625    1.750    7.000 
#    0.000    0.000    0.000    0.000    0.000    7.000 
#    0.000    0.000    0.000    0.000    0.000    0.000 
#
# Total GULP energy -356912.000129 kJ/mol
# GULP energy per Si atom -5576.750002 kJ/mol
# Density = 2.040917 g / cm^3
# Si number density = 20.455727 Si / 1000 Ang^3
#
#
#
# Elastic Constant Matrix: (Units=GPa)
#
#
# Indices 1 2 3 4 5 6 
#
# 1 42.6397 25.6261 34.0515 0.0000 0.0000 0.0000
# 2 25.6261 98.8397 46.2541 0.0000 0.0000 0.0000
# 3 34.0515 46.2541 154.0257 0.0000 0.0000 0.0000
# 4 0.0000 0.0000 0.0000 16.2630 0.0000 0.0000
# 5 0.0000 0.0000 0.0000 0.0000 25.2930 0.0000
# 6 0.0000 0.0000 0.0000 0.0000 0.0000 8.0720
#
#
#
# Elastic Compliance Matrix: (Units=1/GPa)
#
#
# Indices 1 2 3 4 5 6 
#
# 1 0.030941 -0.005609 -0.005156 0.000000 0.000000 0.000000
# 2 -0.005609 0.012789 -0.002600 0.000000 0.000000 0.000000
# 3 -0.005156 -0.002600 0.008413 0.000000 0.000000 0.000000
# 4 0.000000 0.000000 0.000000 0.061489 0.000000 0.000000
# 5 0.000000 0.000000 0.000000 0.000000 0.039537 0.000000
# 6 0.000000 0.000000 0.000000 0.000000 0.000000 0.123885
#
#
# Mechanical properties :
#
#
# Convention : Reuss Voigt Hill
#
# Bulk Modulus (GPa) = 39.35192 56.37428 47.86310
# Shear Modulus (GPa) = 16.01257 22.56382 19.28820
#
# Velocity S-wave (km/s) = 2.80088 3.32483 3.07404
# Velocity P-wave (km/s) = 5.45337 6.50833 6.00407
#
# Compressibility (1/GPa) = 0.02541172
#
# Stress axis : x y z
#
# Youngs Moduli (GPa) = 32.31974 78.19468 118.86149
#
# Poissons Ratio (x) = 0.43861 0.61283
# Poissons Ratio (y) = 0.18129 0.30908
# Poissons Ratio (z) = 0.16664 0.20333
#
# Static dielectric constant tensor:
#      x y z
#    x 1.831360 0.000000 0.000000 
#    y 0.000000 1.731980 0.000000 
#    z 0.000000 0.000000 1.804060 
# 
# From -- ./inp_files/10085.got.cif
#   From: 2010.05.17/outbox.cif.g08.bks.cpg/sg54_6_cif.got.tgz:10085.got - 2010.06.03 13:09:01.
