data_PCOD9421850
_publ_section_title
;
Structure prediction by ZEFSAII (Michael W. Deem and Ramdas Pophale) SiO2 
 PCOD9421850
Probable space group: P C C A
;
_chemical_formula_sum "Si O2"
_cell_formula_units_Z 60
_cell_length_a 18.009856
_cell_length_b 18.170786
_cell_length_c 8.965434
_cell_angle_alpha 90.000000
_cell_angle_beta 90.000000
_cell_angle_gamma 90.000000
_cell_volume 2933.967318
_symmetry_space_group_name_H-M "P C C A"
_symmetry_group_IT_number 54
_symmetry_cell_setting 'orthorhombic'
loop_
_space_group_symop_operation_xyz
x,y,z
1/2-x,-y,z
1/2+x,-y,1/2-z
-x,y,1/2-z
-x,-y,-z
1/2+x,y,-z
1/2-x,y,1/2+z
x,-y,1/2+z
loop_
_atom_site_type_symbol
_atom_site_label
_atom_site_fract_x
_atom_site_fract_y
_atom_site_fract_z
Si Si1 0.192523 0.226069 0.734309
Si Si2 0.335862 0.274082 0.575432
Si Si3 0.539119 0.263107 0.410042
Si Si4 0.414087 0.984278 0.958767
Si Si5 0.446443 0.602908 0.008993
Si Si6 0.000000 0.488008 0.750000
Si Si7 0.549698 0.843639 0.385943
Si Si8 0.820035 0.054849 0.818112
O O1 0.263326 0.269505 0.674300
O O2 0.124216 0.251545 0.630197
O O3 0.202577 0.138477 0.713131
O O4 0.176792 0.241705 0.908563
O O5 0.372813 0.352638 0.548137
O O6 0.396881 0.223113 0.657535
O O7 0.500000 0.269253 0.250000
O O8 0.512725 0.335601 0.500498
O O9 0.504933 0.191659 0.491096
O O10 0.400821 0.908092 0.046973
O O11 0.357780 0.045162 0.020679
O O12 0.388021 0.967703 0.791869
O O13 0.500000 0.000000 0.000000
O O14 0.446576 0.563968 0.847759
O O15 0.460740 0.541027 0.131615
O O16 0.500000 0.870822 0.250000
O O17 0.750000 0.000000 0.802801
#
# Coordination Sequence:
#
# PCOD9421850 Si02
#       8
#     8   8   8   8   8   4   8   8
#     4  12  25  42  65  92 130 177 219 284 338 388
#     4  11  25  42  64  95 133 167 225 266 328 397
#     4  11  20  41  67  94 135 169 220 273 327 389
#     4  12  24  42  62  91 124 165 225 289 344 405
#     4  10  21  40  68 106 131 172 210 258 308 396
#     4  10  20  38  74 102 140 168 210 248 324 386
#     4  11  23  40  62  92 125 165 225 284 333 399
#     4  12  26  42  64  87 128 177 226 276 353 420
#
# _framework density 20.450125
#
# number of rings (size 3 to 8) (size 9 to 14) (size 15 to 20)
#    0.000    0.800    4.667    3.200    7.467    0.000 
#    0.000    0.000    0.000   13.600    0.000    0.000 
#    0.000    0.000    0.000    0.000    0.000    0.000 
#
# Total GULP energy -335323.993671 kJ/mol
# GULP energy per Si atom -5588.733228 kJ/mol
# Density = 2.040358 g / cm^3
# Si number density = 20.450125 Si / 1000 Ang^3
#
#
#
# Elastic Constant Matrix: (Units=GPa)
#
#
# Indices 1 2 3 4 5 6 
#
# 1 102.3955 16.6503 4.0557 0.0000 0.0000 0.0000
# 2 16.6503 93.9293 13.7711 0.0000 0.0000 0.0000
# 3 4.0557 13.7711 42.1362 0.0000 0.0000 0.0000
# 4 0.0000 0.0000 0.0000 22.2744 0.0000 0.0000
# 5 0.0000 0.0000 0.0000 0.0000 30.0010 0.0000
# 6 0.0000 0.0000 0.0000 0.0000 0.0000 25.0811
#
#
#
# Elastic Compliance Matrix: (Units=1/GPa)
#
#
# Indices 1 2 3 4 5 6 
#
# 1 0.010062 -0.001724 -0.000405 0.000000 0.000000 0.000000
# 2 -0.001724 0.011478 -0.003585 0.000000 0.000000 0.000000
# 3 -0.000405 -0.003585 0.024943 0.000000 0.000000 0.000000
# 4 0.000000 0.000000 0.000000 0.044895 0.000000 0.000000
# 5 0.000000 0.000000 0.000000 0.000000 0.033332 0.000000
# 6 0.000000 0.000000 0.000000 0.000000 0.000000 0.039871
#
#
# Mechanical properties :
#
#
# Convention : Reuss Voigt Hill
#
# Bulk Modulus (GPa) = 28.52714 34.15725 31.34219
# Shear Modulus (GPa) = 26.63903 29.07023 27.85463
#
# Velocity S-wave (km/s) = 3.61312 3.77439 3.69464
# Velocity P-wave (km/s) = 5.60233 5.97777 5.79309
#
# Compressibility (1/GPa) = 0.03505434
#
# Stress axis : x y z
#
# Youngs Moduli (GPa) = 99.37904 87.12626 40.09097
#
# Poissons Ratio (x) = 0.15024 0.01624
# Poissons Ratio (y) = 0.17136 0.14373
# Poissons Ratio (z) = 0.04025 0.31236
#
# Static dielectric constant tensor:
#      x y z
#    x 1.834480 0.000000 0.000000 
#    y 0.000000 1.741470 0.000000 
#    z 0.000000 0.000000 1.753070 
# 
# From -- ./inp_files/4362.got.cif
#   From: 2010.05.17/outbox.cif.g08.bks.cpg/sg54_3_cif.got.tgz:4362.got - 2010.06.03 13:09:01.
