data_PCOD9421632
_publ_section_title
;
Structure prediction by ZEFSAII (Michael W. Deem and Ramdas Pophale) SiO2 
 PCOD9421632
Probable space group: P C C A
;
_chemical_formula_sum "Si O2"
_cell_formula_units_Z 40
_cell_length_a 9.287142
_cell_length_b 12.711031
_cell_length_c 14.054847
_cell_angle_alpha 90.000000
_cell_angle_beta 90.000000
_cell_angle_gamma 90.000000
_cell_volume 1659.162740
_symmetry_space_group_name_H-M "P C C A"
_symmetry_group_IT_number 54
_symmetry_cell_setting 'orthorhombic'
loop_
_space_group_symop_operation_xyz
x,y,z
1/2-x,-y,z
1/2+x,-y,1/2-z
-x,y,1/2-z
-x,-y,-z
1/2+x,y,-z
1/2-x,y,1/2+z
x,-y,1/2+z
loop_
_atom_site_type_symbol
_atom_site_label
_atom_site_fract_x
_atom_site_fract_y
_atom_site_fract_z
Si Si1 0.035270 0.238153 0.346064
Si Si2 0.256658 0.622617 0.123299
Si Si3 0.314967 0.655464 0.903483
Si Si4 0.250000 0.000000 0.029684
Si Si5 0.501161 0.861089 0.546813
Si Si6 0.500000 0.385361 0.250000
O O1 0.094721 0.320373 0.143970
O O2 0.180259 0.303885 0.344680
O O3 0.041619 0.167737 0.438808
O O4 0.000000 0.176329 0.250000
O O5 0.250000 0.500000 0.148053
O O6 0.128940 0.668449 0.188906
O O7 0.250964 0.628423 0.007618
O O8 0.406868 0.570912 0.841215
O O9 0.423258 0.754904 0.915670
O O10 0.134314 0.059852 0.964709
O O11 0.354313 0.083689 0.085871
#
# Coordination Sequence:
#
# PCOD9421632 Si02
#       6
#     8   8   8   4   8   4
#     4  11  22  42  65  91 135 176 221 284 346 415
#     4  11  26  43  68  99 137 179 234 292 347 413
#     4  11  24  44  68  98 135 182 233 282 348 422
#     4  10  20  36  68  94 130 170 224 278 344 412
#     4  10  21  39  65  98 129 178 221 277 345 420
#     4  12  26  42  72 100 130 184 230 282 342 418
#
# _framework density 24.108544999999999
#
# number of rings (size 3 to 8) (size 9 to 14) (size 15 to 20)
#    0.000    1.200    4.000    2.400    4.200    4.000 
#    0.000    1.000    8.800    0.000    0.000    0.000 
#    0.000    0.000    0.000    0.000    0.000    0.000 
#
# Total GULP energy -222704.020707 kJ/mol
# GULP energy per Si atom -5567.600518 kJ/mol
# Density = 2.405367 g / cm^3
# Si number density = 24.108545 Si / 1000 Ang^3
#
#
#
# Elastic Constant Matrix: (Units=GPa)
#
#
# Indices 1 2 3 4 5 6 
#
# 1 157.0919 19.7638 49.9046 0.0000 0.0000 0.0000
# 2 19.7638 80.4807 -8.1382 0.0000 0.0000 0.0000
# 3 49.9046 -8.1382 104.8185 0.0000 0.0000 0.0000
# 4 0.0000 0.0000 0.0000 18.5480 0.0000 0.0000
# 5 0.0000 0.0000 0.0000 0.0000 33.5344 0.0000
# 6 0.0000 0.0000 0.0000 0.0000 0.0000 20.6257
#
#
#
# Elastic Compliance Matrix: (Units=1/GPa)
#
#
# Indices 1 2 3 4 5 6 
#
# 1 0.007916 -0.002343 -0.003951 0.000000 0.000000 0.000000
# 2 -0.002343 0.013217 0.002142 0.000000 0.000000 0.000000
# 3 -0.003951 0.002142 0.011587 0.000000 0.000000 0.000000
# 4 0.000000 0.000000 0.000000 0.053914 0.000000 0.000000
# 5 0.000000 0.000000 0.000000 0.000000 0.029820 0.000000
# 6 0.000000 0.000000 0.000000 0.000000 0.000000 0.048483
#
#
# Mechanical properties :
#
#
# Convention : Reuss Voigt Hill
#
# Bulk Modulus (GPa) = 40.95614 51.71685 46.33649
# Shear Modulus (GPa) = 27.56635 33.26568 30.41602
#
# Velocity S-wave (km/s) = 3.38513 3.71864 3.55579
# Velocity P-wave (km/s) = 5.68365 6.31949 6.00998
#
# Compressibility (1/GPa) = 0.02441636
#
# Stress axis : x y z
#
# Youngs Moduli (GPa) = 126.33413 75.65804 86.30010
#
# Poissons Ratio (x) = 0.17729 0.34093
# Poissons Ratio (y) = 0.29604 -0.18484
# Poissons Ratio (z) = 0.49909 -0.16205
#
# Static dielectric constant tensor:
#      x y z
#    x 1.885510 0.000000 0.000000 
#    y 0.000000 2.034790 0.000000 
#    z 0.000000 0.000000 2.023770 
# 
# From -- ./inp_files/11528.got.cif
#   From: 2010.05.17/outbox.cif.g08.bks.cpg/sg54_6_cif.got.tgz:11528.got - 2010.06.03 13:09:01.
