data_PCOD9421124
_publ_section_title
;
Structure prediction by ZEFSAII (Michael W. Deem and Ramdas Pophale) SiO2 
 PCOD9421124
Probable space group: P C C A
;
_chemical_formula_sum "Si O2"
_cell_formula_units_Z 48
_cell_length_a 12.164134
_cell_length_b 8.472425
_cell_length_c 20.681337
_cell_angle_alpha 90.000000
_cell_angle_beta 90.000000
_cell_angle_gamma 90.000000
_cell_volume 2131.412656
_symmetry_space_group_name_H-M "P C C A"
_symmetry_group_IT_number 54
_symmetry_cell_setting 'orthorhombic'
loop_
_space_group_symop_operation_xyz
x,y,z
1/2-x,-y,z
1/2+x,-y,1/2-z
-x,y,1/2-z
-x,-y,-z
1/2+x,y,-z
1/2-x,y,1/2+z
x,-y,1/2+z
loop_
_atom_site_type_symbol
_atom_site_label
_atom_site_fract_x
_atom_site_fract_y
_atom_site_fract_z
Si Si1 0.873903 0.538599 0.018937
Si Si2 0.825985 0.874605 0.045307
Si Si3 0.492961 0.029894 0.627950
Si Si4 0.651009 0.693264 0.137177
Si Si5 0.233739 0.670082 0.225777
Si Si6 0.250000 0.000000 0.147701
Si Si7 0.000000 0.799452 0.250000
O O1 0.750000 0.500000 0.990536
O O2 0.870458 0.724781 0.009636
O O3 0.865662 0.458052 0.090724
O O4 0.000000 0.500000 0.000000
O O5 0.745174 0.801037 0.101515
O O6 0.750000 0.000000 0.010483
O O7 0.930104 0.963117 0.072780
O O8 0.539174 0.204647 0.641057
O O9 0.366163 0.006183 0.612544
O O10 0.513630 0.917040 0.689613
O O11 0.694035 0.661721 0.208953
O O12 0.250000 0.500000 0.191266
O O13 0.256633 0.836660 0.189635
O O14 0.106187 0.691154 0.243366
#
# Coordination Sequence:
#
# PCOD9421124 Si02
#       7
#     8   8   8   8   8   4   4
#     4  10  22  43  65  96 124 159 213 277 340 404
#     4   9  18  35  64  91 111 159 206 254 315 389
#     4  10  19  36  56  84 123 163 207 252 309 370
#     4  10  19  35  63  87 115 159 211 252 314 385
#     4  11  21  35  55  86 120 166 213 253 308 364
#     4  10  24  38  50  88 134 170 204 260 308 356
#     4  10  20  32  58  86 124 156 210 266 290 364
#
# _framework density 22.520275000000002
#
# number of rings (size 3 to 8) (size 9 to 14) (size 15 to 20)
#    0.000    2.000    1.667    3.500    1.167    1.333 
#    6.000    7.500    0.000    0.000    0.000    0.000 
#    0.000    0.000    0.000    0.000    0.000    0.000 
#
# Total GULP energy -267569.730385 kJ/mol
# GULP energy per Si atom -5574.369383 kJ/mol
# Density = 2.246902 g / cm^3
# Si number density = 22.520275 Si / 1000 Ang^3
#
#
#
# Elastic Constant Matrix: (Units=GPa)
#
#
# Indices 1 2 3 4 5 6 
#
# 1 189.2097 61.4491 43.0729 0.0000 0.0000 0.0000
# 2 61.4491 162.5207 29.9955 0.0000 0.0000 0.0000
# 3 43.0729 29.9955 44.4584 0.0000 0.0000 0.0000
# 4 0.0000 0.0000 0.0000 31.9473 0.0000 0.0000
# 5 0.0000 0.0000 0.0000 0.0000 118.2487 0.0000
# 6 0.0000 0.0000 0.0000 0.0000 0.0000 32.1793
#
#
#
# Elastic Compliance Matrix: (Units=1/GPa)
#
#
# Indices 1 2 3 4 5 6 
#
# 1 0.007137 -0.001625 -0.005819 0.000000 0.000000 0.000000
# 2 -0.001625 0.007398 -0.003417 0.000000 0.000000 0.000000
# 3 -0.005819 -0.003417 0.030436 0.000000 0.000000 0.000000
# 4 0.000000 0.000000 0.000000 0.031302 0.000000 0.000000
# 5 0.000000 0.000000 0.000000 0.000000 0.008457 0.000000
# 6 0.000000 0.000000 0.000000 0.000000 0.000000 0.031076
#
#
# Mechanical properties :
#
#
# Convention : Reuss Voigt Hill
#
# Bulk Modulus (GPa) = 43.01105 73.91376 58.46241
# Shear Modulus (GPa) = 34.41695 53.91983 44.16839
#
# Velocity S-wave (km/s) = 3.91354 4.89845 4.43343
# Velocity P-wave (km/s) = 6.28978 8.05514 7.22657
#
# Compressibility (1/GPa) = 0.02324984
#
# Stress axis : x y z
#
# Youngs Moduli (GPa) = 140.10651 135.17026 32.85583
#
# Poissons Ratio (x) = 0.21961 0.19118
# Poissons Ratio (y) = 0.22763 0.11228
# Poissons Ratio (z) = 0.81525 0.46192
#
# Static dielectric constant tensor:
#      x y z
#    x 1.773510 0.000000 0.000000 
#    y 0.000000 1.975200 0.000000 
#    z 0.000000 0.000000 1.688800 
# 
# From -- ./inp_files/26200.got.cif
#   From: 2010.05.17/outbox.cif.g08.bks.cpg/sg54_14_cif.got.tgz:26200.got - 2010.06.03 13:09:01.
