data_PCOD9421070
_publ_section_title
;
Structure prediction by ZEFSAII (Michael W. Deem and Ramdas Pophale) SiO2 
 PCOD9421070
Probable space group: P C C A
;
_chemical_formula_sum "Si O2"
_cell_formula_units_Z 64
_cell_length_a 10.866505
_cell_length_b 12.610363
_cell_length_c 22.622692
_cell_angle_alpha 90.000000
_cell_angle_beta 90.000000
_cell_angle_gamma 90.000000
_cell_volume 3100.000438
_symmetry_space_group_name_H-M "P C C A"
_symmetry_group_IT_number 54
_symmetry_cell_setting 'orthorhombic'
loop_
_space_group_symop_operation_xyz
x,y,z
1/2-x,-y,z
1/2+x,-y,1/2-z
-x,y,1/2-z
-x,-y,-z
1/2+x,y,-z
1/2-x,y,1/2+z
x,-y,1/2+z
loop_
_atom_site_type_symbol
_atom_site_label
_atom_site_fract_x
_atom_site_fract_y
_atom_site_fract_z
Si Si1 0.551159 0.344277 0.161816
Si Si2 0.847455 0.374206 0.428300
Si Si3 0.439132 0.299066 0.690426
Si Si4 0.573160 0.591957 0.949667
Si Si5 0.199047 0.616677 0.230600
Si Si6 0.523663 0.796572 0.491735
Si Si7 0.407723 0.117768 0.874439
Si Si8 0.113643 0.123358 0.882959
O O1 0.536547 0.396809 0.097569
O O2 0.429643 0.372415 0.197809
O O3 0.669493 0.375093 0.199810
O O4 0.552675 0.218354 0.152801
O O5 0.929000 0.369396 0.368906
O O6 0.900941 0.470161 0.468194
O O7 0.704314 0.389920 0.415952
O O8 0.861711 0.262832 0.461142
O O9 0.500000 0.345265 0.750000
O O10 0.295951 0.293852 0.709696
O O11 0.515944 0.195518 0.669530
O O12 0.560369 0.694100 0.991484
O O13 0.250000 0.500000 0.217951
O O14 0.458865 0.862800 0.440614
O O15 0.567300 0.859121 0.549480
O O16 0.261138 0.138626 0.876964
O O17 0.421228 0.993347 0.860927
#
# Coordination Sequence:
#
# PCOD9421070 Si02
#       8
#     8   8   8   8   8   8   8   8
#     4  10  22  39  61  90 123 169 205 257 315 373
#     4  10  20  34  55  85 125 164 206 253 307 378
#     4  11  23  38  61  90 124 163 215 258 309 380
#     4  10  19  35  55  85 125 166 199 254 313 372
#     4  11  23  39  63  91 127 166 207 259 313 380
#     4  10  20  35  63  90 125 160 210 261 317 383
#     4  10  22  41  65  93 122 171 213 269 321 375
#     4  10  21  42  64  89 129 163 211 268 322 376
#
# _framework density 20.645160000000001
#
# number of rings (size 3 to 8) (size 9 to 14) (size 15 to 20)
#    0.000    1.750    1.250    3.000    3.500    0.000 
#    2.250    0.625    5.500    0.000    0.000    0.000 
#    0.000    0.000    0.000    0.000    0.000    0.000 
#
# Total GULP energy -356740.855326 kJ/mol
# GULP energy per Si atom -5574.075864 kJ/mol
# Density = 2.059817 g / cm^3
# Si number density = 20.645160 Si / 1000 Ang^3
#
#
#
# Elastic Constant Matrix: (Units=GPa)
#
#
# Indices 1 2 3 4 5 6 
#
# 1 65.0295 35.3800 12.6797 0.0000 0.0000 0.0000
# 2 35.3800 98.2502 11.8948 0.0000 0.0000 0.0000
# 3 12.6797 11.8948 53.9832 0.0000 0.0000 0.0000
# 4 0.0000 0.0000 0.0000 16.6259 0.0000 0.0000
# 5 0.0000 0.0000 0.0000 0.0000 36.2335 0.0000
# 6 0.0000 0.0000 0.0000 0.0000 0.0000 33.2174
#
#
#
# Elastic Compliance Matrix: (Units=1/GPa)
#
#
# Indices 1 2 3 4 5 6 
#
# 1 0.019628 -0.006688 -0.003137 0.000000 0.000000 0.000000
# 2 -0.006688 0.012736 -0.001235 0.000000 0.000000 0.000000
# 3 -0.003137 -0.001235 0.019533 0.000000 0.000000 0.000000
# 4 0.000000 0.000000 0.000000 0.060147 0.000000 0.000000
# 5 0.000000 0.000000 0.000000 0.000000 0.027599 0.000000
# 6 0.000000 0.000000 0.000000 0.000000 0.000000 0.030105
#
#
# Mechanical properties :
#
#
# Convention : Reuss Voigt Hill
#
# Bulk Modulus (GPa) = 33.58308 37.46355 35.52332
# Shear Modulus (GPa) = 24.77772 27.70259 26.24016
#
# Velocity S-wave (km/s) = 3.46811 3.66709 3.56899
# Velocity P-wave (km/s) = 5.68675 6.00965 5.85043
#
# Compressibility (1/GPa) = 0.02977690
#
# Stress axis : x y z
#
# Youngs Moduli (GPa) = 50.94739 78.51675 51.19488
#
# Poissons Ratio (x) = 0.52515 0.16058
# Poissons Ratio (y) = 0.34075 0.06324
# Poissons Ratio (z) = 0.15980 0.09699
#
# Static dielectric constant tensor:
#      x y z
#    x 1.762670 0.000000 0.000000 
#    y 0.000000 1.725620 0.000000 
#    z 0.000000 0.000000 1.844020 
# 
# From -- ./inp_files/24263.got.cif
#   From: 2010.05.17/outbox.cif.g08.bks.cpg/sg54_13_cif.got.tgz:24263.got - 2010.06.03 13:09:01.
