data_PCOD9421581
_publ_section_title
;
Structure prediction by ZEFSAII (Michael W. Deem and Ramdas Pophale) SiO2 
 PCOD9421581
Probable space group: P C C A
;
_chemical_formula_sum "Si O2"
_cell_formula_units_Z 28
_cell_length_a 12.050825
_cell_length_b 7.686791
_cell_length_c 12.872020
_cell_angle_alpha 90.000000
_cell_angle_beta 90.000000
_cell_angle_gamma 90.000000
_cell_volume 1192.363185
_symmetry_space_group_name_H-M "P C C A"
_symmetry_group_IT_number 54
_symmetry_cell_setting 'orthorhombic'
loop_
_space_group_symop_operation_xyz
x,y,z
1/2-x,-y,z
1/2+x,-y,1/2-z
-x,y,1/2-z
-x,-y,-z
1/2+x,y,-z
1/2-x,y,1/2+z
x,-y,1/2+z
loop_
_atom_site_type_symbol
_atom_site_label
_atom_site_fract_x
_atom_site_fract_y
_atom_site_fract_z
Si Si1 0.836759 0.247807 0.280328
Si Si2 0.825581 0.177071 0.043780
Si Si3 0.250000 0.500000 0.582075
Si Si4 0.411581 0.117596 0.164885
O O1 0.845901 0.432475 0.338017
O O2 0.707390 0.192159 0.297699
O O3 0.903399 0.090854 0.331144
O O4 0.858599 0.234562 0.158427
O O5 0.758830 0.336680 0.993971
O O6 0.922035 0.160512 0.956713
O O7 0.750000 0.000000 0.047144
O O8 0.500000 0.174754 0.250000
#
# Coordination Sequence:
#
# PCOD9421581 Si02
#       4
#     8   8   4   8
#     4  10  20  38  58  87 118 152 198 240 294 349
#     4  11  19  38  62  84 114 157 194 237 293 347
#     4  10  20  36  62  86 116 156 192 246 292 348
#     4  10  20  36  61  87 119 152 197 242 289 346
#
# _framework density 23.482779000000001
#
# number of rings (size 3 to 8) (size 9 to 14) (size 15 to 20)
#    0.000    1.714    8.571    0.857    0.000    1.143 
#    0.000    5.714    0.000   15.429    0.000    0.000 
#    0.000    0.000    0.000    0.000    0.000    0.000 
#
# Total GULP energy -156052.131612 kJ/mol
# GULP energy per Si atom -5573.290415 kJ/mol
# Density = 2.342933 g / cm^3
# Si number density = 23.482779 Si / 1000 Ang^3
#
#
#
# Elastic Constant Matrix: (Units=GPa)
#
#
# Indices 1 2 3 4 5 6 
#
# 1 47.5566 -12.9467 -16.5770 0.0000 0.0000 0.0000
# 2 -12.9467 117.5397 26.5534 0.0000 0.0000 0.0000
# 3 -16.5770 26.5534 160.7827 0.0000 0.0000 0.0000
# 4 0.0000 0.0000 0.0000 22.6351 0.0000 0.0000
# 5 0.0000 0.0000 0.0000 0.0000 16.7910 0.0000
# 6 0.0000 0.0000 0.0000 0.0000 0.0000 14.7180
#
#
#
# Elastic Compliance Matrix: (Units=1/GPa)
#
#
# Indices 1 2 3 4 5 6 
#
# 1 0.022259 0.002008 0.001963 0.000000 0.000000 0.000000
# 2 0.002008 0.009019 -0.001282 0.000000 0.000000 0.000000
# 3 0.001963 -0.001282 0.006634 0.000000 0.000000 0.000000
# 4 0.000000 0.000000 0.000000 0.044179 0.000000 0.000000
# 5 0.000000 0.000000 0.000000 0.000000 0.059556 0.000000
# 6 0.000000 0.000000 0.000000 0.000000 0.000000 0.067944
#
#
# Mechanical properties :
#
#
# Convention : Reuss Voigt Hill
#
# Bulk Modulus (GPa) = 23.10043 35.54869 29.32456
# Shear Modulus (GPa) = 22.86846 32.75210 27.81028
#
# Velocity S-wave (km/s) = 3.12403 3.73866 3.44508
# Velocity P-wave (km/s) = 4.78239 5.81445 5.32349
#
# Compressibility (1/GPa) = 0.04328923
#
# Stress axis : x y z
#
# Youngs Moduli (GPa) = 44.92640 110.88111 150.74367
#
# Poissons Ratio (x) = -0.22267 -0.29595
# Poissons Ratio (y) = -0.09022 0.19331
# Poissons Ratio (z) = -0.08820 0.14219
#
# Static dielectric constant tensor:
#      x y z
#    x 1.991050 0.000000 0.000000 
#    y 0.000000 1.983650 0.000000 
#    z 0.000000 0.000000 1.917330 
# 
# From -- ./inp_files/7859.got.cif
#   From: 2010.05.17/outbox.cif.g08.bks.cpg/sg54_4_cif.got.tgz:7859.got - 2010.06.03 13:09:01.
