data_PCOD9421670
_publ_section_title
;
Structure prediction by ZEFSAII (Michael W. Deem and Ramdas Pophale) SiO2 
 PCOD9421670
Probable space group: P C C A
;
_chemical_formula_sum "Si O2"
_cell_formula_units_Z 40
_cell_length_a 10.054207
_cell_length_b 8.266707
_cell_length_c 24.169626
_cell_angle_alpha 90.000000
_cell_angle_beta 90.000000
_cell_angle_gamma 90.000000
_cell_volume 2008.862897
_symmetry_space_group_name_H-M "P C C A"
_symmetry_group_IT_number 54
_symmetry_cell_setting 'orthorhombic'
loop_
_space_group_symop_operation_xyz
x,y,z
1/2-x,-y,z
1/2+x,-y,1/2-z
-x,y,1/2-z
-x,-y,-z
1/2+x,y,-z
1/2-x,y,1/2+z
x,-y,1/2+z
loop_
_atom_site_type_symbol
_atom_site_label
_atom_site_fract_x
_atom_site_fract_y
_atom_site_fract_z
Si Si1 0.290145 0.685561 0.731103
Si Si2 0.871861 0.611869 0.064419
Si Si3 0.871440 0.615400 0.938346
Si Si4 0.877381 0.886671 0.847242
Si Si5 0.454519 0.808112 0.832311
O O1 0.250000 0.500000 0.739225
O O2 0.166733 0.781938 0.705494
O O3 0.343658 0.768689 0.786737
O O4 0.414315 0.707362 0.688168
O O5 0.750000 0.500000 0.083369
O O6 0.904919 0.749734 0.108229
O O7 0.999257 0.496080 0.061683
O O8 0.843124 0.668836 0.001669
O O9 0.750000 0.500000 0.919888
O O10 0.894477 0.764270 0.897759
O O11 0.750000 0.000000 0.860113
O O12 0.998341 0.006681 0.834843
#
# Coordination Sequence:
#
# PCOD9421670 Si02
#       5
#     8   8   8   8   8
#     4  10  20  38  61  81 111 161 210 245 293 368
#     4  10  21  38  60  90 123 154 199 252 296 349
#     4  10  20  38  65  89 117 162 204 237 290 366
#     4  10  20  37  61  86 117 154 201 251 300 363
#     4  10  21  37  56  86 119 149 196 254 308 353
#
# _framework density 19.911762
#
# number of rings (size 3 to 8) (size 9 to 14) (size 15 to 20)
#    0.000    2.000    0.000    4.800    0.000    0.800 
#    0.000   35.000    0.000    0.000    0.000    0.000 
#    0.000    0.000    0.000    0.000    0.000    0.000 
#
# Total GULP energy -223496.167674 kJ/mol
# GULP energy per Si atom -5587.404192 kJ/mol
# Density = 1.986644 g / cm^3
# Si number density = 19.911762 Si / 1000 Ang^3
#
#
#
# Elastic Constant Matrix: (Units=GPa)
#
#
# Indices 1 2 3 4 5 6 
#
# 1 65.2254 50.8929 27.5276 0.0000 0.0000 0.0000
# 2 50.8929 154.6697 89.1704 0.0000 0.0000 0.0000
# 3 27.5276 89.1704 119.0453 0.0000 0.0000 0.0000
# 4 0.0000 0.0000 0.0000 -4.3785 0.0000 0.0000
# 5 0.0000 0.0000 0.0000 0.0000 26.9298 0.0000
# 6 0.0000 0.0000 0.0000 0.0000 0.0000 27.2241
#
#
#
# Elastic Compliance Matrix: (Units=1/GPa)
#
#
# Indices 1 2 3 4 5 6 
#
# 1 0.020648 -0.007113 0.000554 0.000000 0.000000 0.000000
# 2 -0.007113 0.013830 -0.008714 0.000000 0.000000 0.000000
# 3 0.000554 -0.008714 0.014800 0.000000 0.000000 0.000000
# 4 0.000000 0.000000 0.000000 -0.228391 0.000000 0.000000
# 5 0.000000 0.000000 0.000000 0.000000 0.037134 0.000000
# 6 0.000000 0.000000 0.000000 0.000000 0.000000 0.036732
#
#
# Mechanical properties :
#
#
# Convention : Reuss Voigt Hill
#
# Bulk Modulus (GPa) = 53.39187 74.90245 64.14716
# Shear Modulus (GPa) = -73.03928 21.37841 -25.83044
#
# Velocity S-wave (km/s) = -6.06309 3.28023 -3.60564
# Velocity P-wave (km/s) = 4.70557 7.21425 3.86672
#
# Compressibility (1/GPa) = 0.01872944
#
# Stress axis : x y z
#
# Youngs Moduli (GPa) = 48.43088 72.30650 67.56885
#
# Poissons Ratio (x) = 0.51433 -0.03740
# Poissons Ratio (y) = 0.34450 0.58883
# Poissons Ratio (z) = -0.02681 0.63011
#
# Static dielectric constant tensor:
#      x y z
#    x 1.663080 0.000000 0.000000 
#    y 0.000000 1.665240 0.000000 
#    z 0.000000 0.000000 1.725150 
# 
# From -- ./inp_files/23261.got.cif
#   From: 2010.05.17/outbox.cif.g08.bks.cpg/sg54_12_cif.got.tgz:23261.got - 2010.06.03 13:09:01.
