data_PCOD9421814
_publ_section_title
;
Structure prediction by ZEFSAII (Michael W. Deem and Ramdas Pophale) SiO2 
 PCOD9421814
Probable space group: P C C A
;
_chemical_formula_sum "Si O2"
_cell_formula_units_Z 56
_cell_length_a 20.768482
_cell_length_b 13.687508
_cell_length_c 8.995814
_cell_angle_alpha 90.000000
_cell_angle_beta 90.000000
_cell_angle_gamma 90.000000
_cell_volume 2557.228923
_symmetry_space_group_name_H-M "P C C A"
_symmetry_group_IT_number 54
_symmetry_cell_setting 'orthorhombic'
loop_
_space_group_symop_operation_xyz
x,y,z
1/2-x,-y,z
1/2+x,-y,1/2-z
-x,y,1/2-z
-x,-y,-z
1/2+x,y,-z
1/2-x,y,1/2+z
x,-y,1/2+z
loop_
_atom_site_type_symbol
_atom_site_label
_atom_site_fract_x
_atom_site_fract_y
_atom_site_fract_z
Si Si1 0.548759 0.001818 0.134897
Si Si2 0.114508 0.193785 0.388622
Si Si3 0.839652 0.153288 0.625498
Si Si4 0.430458 0.710621 0.684463
Si Si5 0.302130 0.371511 0.790644
Si Si6 0.680257 0.575812 0.867116
Si Si7 0.265534 0.886505 0.576951
O O1 0.500000 0.051622 0.250000
O O2 0.574341 0.894514 0.185368
O O3 0.612485 0.062449 0.101213
O O4 0.500000 0.000000 0.000000
O O5 0.071379 0.234527 0.525205
O O6 0.146671 0.282360 0.294731
O O7 0.175114 0.146671 0.475301
O O8 0.887046 0.232910 0.694290
O O9 0.788108 0.127771 0.754574
O O10 0.797240 0.171944 0.479415
O O11 0.500000 0.696891 0.750000
O O12 0.391763 0.612323 0.653141
O O13 0.229020 0.356529 0.731631
O O14 0.318557 0.464658 0.687866
O O15 0.300363 0.407629 0.961792
O O16 0.250000 0.000000 0.554189
#
# Coordination Sequence:
#
# PCOD9421814 Si02
#       7
#     8   8   8   8   8   8   8
#     4  12  25  43  62  85 124 176 215 255 310 381
#     4  10  22  39  59  90 123 157 210 260 306 373
#     4  11  23  38  61  88 122 160 205 260 312 376
#     4  10  21  41  61  86 121 167 210 246 305 382
#     4  10  20  39  63  95 123 155 204 259 324 379
#     4  10  20  38  66  91 124 158 197 256 321 373
#     4  11  21  37  58  88 120 155 199 261 319 362
#
# _framework density 21.898705
#
# number of rings (size 3 to 8) (size 9 to 14) (size 15 to 20)
#    0.000    1.429    1.429    6.000    0.000    0.000 
#    0.000   10.714    0.000    0.000    0.000    0.000 
#    0.000    0.000    0.000    0.000    0.000    0.000 
#
# Total GULP energy -312794.836302 kJ/mol
# GULP energy per Si atom -5585.622077 kJ/mol
# Density = 2.184886 g / cm^3
# Si number density = 21.898705 Si / 1000 Ang^3
#
#
#
# Elastic Constant Matrix: (Units=GPa)
#
#
# Indices 1 2 3 4 5 6 
#
# 1 111.7031 3.4454 35.9654 0.0000 0.0000 0.0000
# 2 3.4454 56.4425 -6.8582 0.0000 0.0000 0.0000
# 3 35.9654 -6.8582 74.5773 0.0000 0.0000 0.0000
# 4 0.0000 0.0000 0.0000 21.9495 0.0000 0.0000
# 5 0.0000 0.0000 0.0000 0.0000 28.6013 0.0000
# 6 0.0000 0.0000 0.0000 0.0000 0.0000 31.7578
#
#
#
# Elastic Compliance Matrix: (Units=1/GPa)
#
#
# Indices 1 2 3 4 5 6 
#
# 1 0.010690 -0.001293 -0.005274 0.000000 0.000000 0.000000
# 2 -0.001293 0.018074 0.002286 0.000000 0.000000 0.000000
# 3 -0.005274 0.002286 0.016163 0.000000 0.000000 0.000000
# 4 0.000000 0.000000 0.000000 0.045559 0.000000 0.000000
# 5 0.000000 0.000000 0.000000 0.000000 0.034963 0.000000
# 6 0.000000 0.000000 0.000000 0.000000 0.000000 0.031488
#
#
# Mechanical properties :
#
#
# Convention : Reuss Voigt Hill
#
# Bulk Modulus (GPa) = 27.50056 34.20313 30.85185
# Shear Modulus (GPa) = 28.14950 30.47308 29.31129
#
# Velocity S-wave (km/s) = 3.58919 3.73439 3.66251
# Velocity P-wave (km/s) = 5.45543 5.85209 5.65724
#
# Compressibility (1/GPa) = 0.03636290
#
# Stress axis : x y z
#
# Youngs Moduli (GPa) = 93.54158 55.32854 61.87060
#
# Poissons Ratio (x) = 0.07157 0.32633
# Poissons Ratio (y) = 0.12099 -0.14143
# Poissons Ratio (z) = 0.49338 -0.12647
#
# Static dielectric constant tensor:
#      x y z
#    x 1.781250 0.000000 0.000000 
#    y 0.000000 1.861160 0.000000 
#    z 0.000000 0.000000 1.781660 
# 
# From -- ./inp_files/4817.got.cif
#   From: 2010.05.17/outbox.cif.g08.bks.cpg/sg54_3_cif.got.tgz:4817.got - 2010.06.03 13:09:01.
