data_PCOD9421663
_publ_section_title
;
Structure prediction by ZEFSAII (Michael W. Deem and Ramdas Pophale) SiO2 
 PCOD9421663
Probable space group: P C C A
;
_chemical_formula_sum "Si O2"
_cell_formula_units_Z 60
_cell_length_a 28.324206
_cell_length_b 6.933388
_cell_length_c 16.520247
_cell_angle_alpha 90.000000
_cell_angle_beta 90.000000
_cell_angle_gamma 90.000000
_cell_volume 3244.290876
_symmetry_space_group_name_H-M "P C C A"
_symmetry_group_IT_number 54
_symmetry_cell_setting 'orthorhombic'
loop_
_space_group_symop_operation_xyz
x,y,z
1/2-x,-y,z
1/2+x,-y,1/2-z
-x,y,1/2-z
-x,-y,-z
1/2+x,y,-z
1/2-x,y,1/2+z
x,-y,1/2+z
loop_
_atom_site_type_symbol
_atom_site_label
_atom_site_fract_x
_atom_site_fract_y
_atom_site_fract_z
Si Si1 0.750000 0.000000 0.763589
Si Si2 0.662575 0.866311 0.168555
Si Si3 0.148838 0.399275 0.488075
Si Si4 0.619117 0.742221 0.612706
Si Si5 0.946061 0.465507 0.913829
Si Si6 0.522738 0.803110 0.528872
Si Si7 0.884734 0.536385 0.757997
Si Si8 0.705288 0.359933 0.348343
O O1 0.714343 0.123426 0.707924
O O2 0.779682 0.148459 0.818351
O O3 0.658837 0.748774 0.084545
O O4 0.627940 0.751972 0.229605
O O5 0.647367 0.084922 0.152898
O O6 0.149890 0.614671 0.449899
O O7 0.096150 0.389080 0.527102
O O8 0.184948 0.364557 0.560799
O O9 0.573643 0.830021 0.568895
O O10 0.601963 0.588919 0.679715
O O11 0.922782 0.518322 0.828665
O O12 0.986479 0.305012 0.911394
O O13 0.968387 0.654682 0.955094
O O14 0.500000 0.000000 0.500000
O O15 0.836404 0.443599 0.792319
O O16 0.750000 0.500000 0.342688
#
# Coordination Sequence:
#
# PCOD9421663 Si02
#       8
#     4   8   8   8   8   8   8   8
#     4  12  24  36  62  90 120 156 202 252 302 362
#     4  11  22  39  60  90 121 158 199 253 306 359
#     4   9  22  39  60  84 116 159 200 242 300 362
#     4  10  21  38  60  87 118 158 197 247 308 361
#     4   9  20  39  60  85 116 158 201 245 297 362
#     4  10  20  37  60  88 120 154 199 251 299 358
#     4  10  21  40  61  82 120 161 197 246 306 359
#     4  11  22  41  59  86 117 158 199 247 299 363
#
# _framework density 18.494026000000002
#
# number of rings (size 3 to 8) (size 9 to 14) (size 15 to 20)
#    0.000    1.867    2.667    0.800    0.000    5.333 
#    2.400    0.000    0.000    0.000    0.000    0.000 
#    0.000    0.000    0.000    0.000    0.000    0.000 
#
# Total GULP energy -334900.792434 kJ/mol
# GULP energy per Si atom -5581.679874 kJ/mol
# Density = 1.845193 g / cm^3
# Si number density = 18.494026 Si / 1000 Ang^3
#
#
#
# Elastic Constant Matrix: (Units=GPa)
#
#
# Indices 1 2 3 4 5 6 
#
# 1 47.6612 29.9028 21.1246 0.0000 0.0000 0.0000
# 2 29.9028 70.9608 31.4703 0.0000 0.0000 0.0000
# 3 21.1246 31.4703 85.4585 0.0000 0.0000 0.0000
# 4 0.0000 0.0000 0.0000 25.3152 0.0000 0.0000
# 5 0.0000 0.0000 0.0000 0.0000 20.4551 0.0000
# 6 0.0000 0.0000 0.0000 0.0000 0.0000 33.2481
#
#
#
# Elastic Compliance Matrix: (Units=1/GPa)
#
#
# Indices 1 2 3 4 5 6 
#
# 1 0.029244 -0.010897 -0.003216 0.000000 0.000000 0.000000
# 2 -0.010897 0.020904 -0.005004 0.000000 0.000000 0.000000
# 3 -0.003216 -0.005004 0.014339 0.000000 0.000000 0.000000
# 4 0.000000 0.000000 0.000000 0.039502 0.000000 0.000000
# 5 0.000000 0.000000 0.000000 0.000000 0.048888 0.000000
# 6 0.000000 0.000000 0.000000 0.000000 0.000000 0.030077
#
#
# Mechanical properties :
#
#
# Convention : Reuss Voigt Hill
#
# Bulk Modulus (GPa) = 38.09183 41.00845 39.55014
# Shear Modulus (GPa) = 21.74501 23.90921 22.82711
#
# Velocity S-wave (km/s) = 3.43269 3.59946 3.51707
# Velocity P-wave (km/s) = 6.02932 6.28465 6.15831
#
# Compressibility (1/GPa) = 0.02625235
#
# Stress axis : x y z
#
# Youngs Moduli (GPa) = 34.19551 47.83873 69.73835
#
# Poissons Ratio (x) = 0.52130 0.22427
# Poissons Ratio (y) = 0.37263 0.34898
# Poissons Ratio (z) = 0.10997 0.23939
#
# Static dielectric constant tensor:
#      x y z
#    x 1.625380 0.000000 0.000000 
#    y 0.000000 1.617570 0.000000 
#    z 0.000000 0.000000 1.634330 
# 
# From -- ./inp_files/19265.got.cif
#   From: 2010.05.17/outbox.cif.g08.bks.cpg/sg54_10_cif.got.tgz:19265.got - 2010.06.03 13:09:01.
