data_PCOD9421490
_publ_section_title
;
Structure prediction by ZEFSAII (Michael W. Deem and Ramdas Pophale) SiO2 
 PCOD9421490
Probable space group: P C C A
;
_chemical_formula_sum "Si O2"
_cell_formula_units_Z 32
_cell_length_a 8.460587
_cell_length_b 12.732063
_cell_length_c 13.453867
_cell_angle_alpha 90.000000
_cell_angle_beta 90.000000
_cell_angle_gamma 90.000000
_cell_volume 1449.260330
_symmetry_space_group_name_H-M "P C C A"
_symmetry_group_IT_number 54
_symmetry_cell_setting 'orthorhombic'
loop_
_space_group_symop_operation_xyz
x,y,z
1/2-x,-y,z
1/2+x,-y,1/2-z
-x,y,1/2-z
-x,-y,-z
1/2+x,y,-z
1/2-x,y,1/2+z
x,-y,1/2+z
loop_
_atom_site_type_symbol
_atom_site_label
_atom_site_fract_x
_atom_site_fract_y
_atom_site_fract_z
Si Si1 0.500000 0.019729 0.750000
Si Si2 0.681741 0.816595 0.112099
Si Si3 0.508478 0.399927 0.638635
Si Si4 0.250000 0.500000 0.517225
Si Si5 0.025715 0.101773 0.572299
O O1 0.390531 0.091255 0.819464
O O2 0.631332 0.835828 0.605164
O O3 0.595088 0.712409 0.150211
O O4 0.407179 0.055095 0.173507
O O5 0.631563 0.826399 0.996578
O O6 0.500000 0.446710 0.750000
O O7 0.335717 0.413407 0.587762
O O8 0.621272 0.455276 0.558755
O O9 0.000000 0.000000 0.500000
#
# Coordination Sequence:
#
# PCOD9421490 Si02
#       5
#     4   8   8   4   8
#     4  10  20  36  54  86 120 166 208 254 314 376
#     4  11  22  39  62  90 124 168 218 270 322 391
#     4  11  22  44  69  99 133 172 219 282 346 418
#     4  10  24  42  70 100 132 170 218 280 358 420
#     4  10  22  37  58  86 124 169 213 267 317 382
#
# _framework density 22.080228000000002
#
# number of rings (size 3 to 8) (size 9 to 14) (size 15 to 20)
#    0.000    1.500    1.250    5.250    0.000    8.000 
#    4.500    0.000    5.500    0.000    0.000    0.000 
#    0.000    0.000    0.000    0.000    0.000    0.000 
#
# Total GULP energy -178342.520044 kJ/mol
# GULP energy per Si atom -5573.203751 kJ/mol
# Density = 2.202997 g / cm^3
# Si number density = 22.080228 Si / 1000 Ang^3
#
#
#
# Elastic Constant Matrix: (Units=GPa)
#
#
# Indices 1 2 3 4 5 6 
#
# 1 113.8619 34.1613 48.1339 0.0000 0.0000 0.0000
# 2 34.1613 42.0156 18.5259 0.0000 0.0000 0.0000
# 3 48.1339 18.5259 166.4413 0.0000 0.0000 0.0000
# 4 0.0000 0.0000 0.0000 28.0931 0.0000 0.0000
# 5 0.0000 0.0000 0.0000 0.0000 32.3194 0.0000
# 6 0.0000 0.0000 0.0000 0.0000 0.0000 -19.6157
#
#
#
# Elastic Compliance Matrix: (Units=1/GPa)
#
#
# Indices 1 2 3 4 5 6 
#
# 1 0.012630 -0.009105 -0.002639 0.000000 0.000000 0.000000
# 2 -0.009105 0.031593 -0.000883 0.000000 0.000000 0.000000
# 3 -0.002639 -0.000883 0.006870 0.000000 0.000000 0.000000
# 4 0.000000 0.000000 0.000000 0.035596 0.000000 0.000000
# 5 0.000000 0.000000 0.000000 0.000000 0.030941 0.000000
# 6 0.000000 0.000000 0.000000 0.000000 0.000000 -0.050979
#
#
# Mechanical properties :
#
#
# Convention : Reuss Voigt Hill
#
# Bulk Modulus (GPa) = 38.70326 58.21789 48.46058
# Shear Modulus (GPa) = 49.74200 22.92587 36.33393
#
# Velocity S-wave (km/s) = 4.75150 3.22576 4.06093
# Velocity P-wave (km/s) = 6.90426 6.34805 6.63199
#
# Compressibility (1/GPa) = 0.02583761
#
# Stress axis : x y z
#
# Youngs Moduli (GPa) = 79.17635 31.65218 145.56802
#
# Poissons Ratio (x) = 0.28820 0.38416
# Poissons Ratio (y) = 0.72093 0.12858
# Poissons Ratio (z) = 0.20895 0.02796
#
# Static dielectric constant tensor:
#      x y z
#    x 1.845450 0.000000 0.000000 
#    y 0.000000 1.884050 0.000000 
#    z 0.000000 0.000000 1.806250 
# 
# From -- ./inp_files/11279.got.cif
#   From: 2010.05.17/outbox.cif.g08.bks.cpg/sg54_6_cif.got.tgz:11279.got - 2010.06.03 13:09:01.
