data_PCOD9421680
_publ_section_title
;
Structure prediction by ZEFSAII (Michael W. Deem and Ramdas Pophale) SiO2 
 PCOD9421680
Probable space group: P C C A
;
_chemical_formula_sum "Si O2"
_cell_formula_units_Z 32
_cell_length_a 11.423586
_cell_length_b 7.903985
_cell_length_c 14.251843
_cell_angle_alpha 90.000000
_cell_angle_beta 90.000000
_cell_angle_gamma 90.000000
_cell_volume 1286.825304
_symmetry_space_group_name_H-M "P C C A"
_symmetry_group_IT_number 54
_symmetry_cell_setting 'orthorhombic'
loop_
_space_group_symop_operation_xyz
x,y,z
1/2-x,-y,z
1/2+x,-y,1/2-z
-x,y,1/2-z
-x,-y,-z
1/2+x,y,-z
1/2-x,y,1/2+z
x,-y,1/2+z
loop_
_atom_site_type_symbol
_atom_site_label
_atom_site_fract_x
_atom_site_fract_y
_atom_site_fract_z
Si Si1 0.871679 0.098336 0.617248
Si Si2 0.374513 0.999033 0.587212
Si Si3 0.145491 0.376390 0.513875
Si Si4 0.060202 0.465844 0.844384
O O1 0.879919 0.281393 0.667136
O O2 0.998241 0.006090 0.635828
O O3 0.750000 0.000000 0.635997
O O4 0.878638 0.126068 0.502458
O O5 0.356565 0.820214 0.535321
O O6 0.250000 0.000000 0.642657
O O7 0.250000 0.500000 0.542778
O O8 0.135968 0.400946 0.401935
O O9 0.041609 0.435484 0.580754
O O10 0.000000 0.525467 0.750000
#
# Coordination Sequence:
#
# PCOD9421680 Si02
#       4
#     8   8   8   8
#     4   9  17  33  57  82 116 157 196 243 300 359
#     4   9  17  31  56  89 119 153 202 250 299 363
#     4  10  20  37  62  84 115 164 205 248 308 367
#     4  10  22  39  58  88 123 156 205 258 304 364
#
# _framework density 24.867401999999998
#
# number of rings (size 3 to 8) (size 9 to 14) (size 15 to 20)
#    0.000    2.500    0.000    3.000    0.000    3.000 
#    0.000    6.250    0.000    0.000    0.000    7.000 
#    0.000    0.000    0.000    0.000    0.000    0.000 
#
# Total GULP energy -178298.593801 kJ/mol
# GULP energy per Si atom -5571.831056 kJ/mol
# Density = 2.481080 g / cm^3
# Si number density = 24.867402 Si / 1000 Ang^3
#
#
#
# Elastic Constant Matrix: (Units=GPa)
#
#
# Indices 1 2 3 4 5 6 
#
# 1 211.0174 24.4681 12.3787 0.0000 0.0000 0.0000
# 2 24.4681 58.3759 3.9931 0.0000 0.0000 0.0000
# 3 12.3787 3.9931 80.9820 0.0000 0.0000 0.0000
# 4 0.0000 0.0000 0.0000 95.8331 0.0000 0.0000
# 5 0.0000 0.0000 0.0000 0.0000 16.3716 0.0000
# 6 0.0000 0.0000 0.0000 0.0000 0.0000 22.0732
#
#
#
# Elastic Compliance Matrix: (Units=1/GPa)
#
#
# Indices 1 2 3 4 5 6 
#
# 1 0.005017 -0.002057 -0.000665 0.000000 0.000000 0.000000
# 2 -0.002057 0.018032 -0.000575 0.000000 0.000000 0.000000
# 3 -0.000665 -0.000575 0.012478 0.000000 0.000000 0.000000
# 4 0.000000 0.000000 0.000000 0.010435 0.000000 0.000000
# 5 0.000000 0.000000 0.000000 0.000000 0.061082 0.000000
# 6 0.000000 0.000000 0.000000 0.000000 0.000000 0.045304
#
#
# Mechanical properties :
#
#
# Convention : Reuss Voigt Hill
#
# Bulk Modulus (GPa) = 34.56321 48.00612 41.28466
# Shear Modulus (GPa) = 29.65853 47.49127 38.57490
#
# Velocity S-wave (km/s) = 3.45725 4.37484 3.94283
# Velocity P-wave (km/s) = 5.46497 6.69819 6.11276
#
# Compressibility (1/GPa) = 0.02893250
#
# Stress axis : x y z
#
# Youngs Moduli (GPa) = 199.34183 55.45721 80.13801
#
# Poissons Ratio (x) = 0.11408 0.05332
# Poissons Ratio (y) = 0.41007 0.04605
# Poissons Ratio (z) = 0.13264 0.03187
#
# Static dielectric constant tensor:
#      x y z
#    x 2.497690 0.000000 0.000000 
#    y 0.000000 2.150510 0.000000 
#    z 0.000000 0.000000 1.995450 
# 
# From -- ./inp_files/12303.got.cif
#   From: 2010.05.17/outbox.cif.g08.bks.cpg/sg54_7_cif.got.tgz:12303.got - 2010.06.03 13:09:01.
