data_PCOD9422896
_publ_section_title
;
Structure prediction by ZEFSAII (Michael W. Deem and Ramdas Pophale) SiO2 
 PCOD9422896
Probable space group: P C C A
;
_chemical_formula_sum "Si O2"
_cell_formula_units_Z 40
_cell_length_a 13.558840
_cell_length_b 6.668285
_cell_length_c 21.398982
_cell_angle_alpha 90.000000
_cell_angle_beta 90.000000
_cell_angle_gamma 90.000000
_cell_volume 1934.772039
_symmetry_space_group_name_H-M "P C C A"
_symmetry_group_IT_number 54
_symmetry_cell_setting 'orthorhombic'
loop_
_space_group_symop_operation_xyz
x,y,z
1/2-x,-y,z
1/2+x,-y,1/2-z
-x,y,1/2-z
-x,-y,-z
1/2+x,y,-z
1/2-x,y,1/2+z
x,-y,1/2+z
loop_
_atom_site_type_symbol
_atom_site_label
_atom_site_fract_x
_atom_site_fract_y
_atom_site_fract_z
Si Si1 0.680401 0.689834 0.319857
Si Si2 0.889424 0.147884 0.608719
Si Si3 0.250000 0.000000 0.283596
Si Si4 0.395663 0.960906 0.596118
Si Si5 0.250000 0.000000 0.990812
Si Si6 0.971398 0.633447 0.317690
O O1 0.750000 0.500000 0.333557
O O2 0.656957 0.843898 0.375564
O O3 0.780285 0.184923 0.260777
O O4 0.576184 0.580743 0.307540
O O5 0.936481 0.354535 0.634678
O O6 0.839482 0.050653 0.669590
O O7 0.808634 0.151662 0.554611
O O8 0.986209 0.023197 0.586078
O O9 0.396185 0.210364 0.149387
O O10 0.333962 0.905382 0.535017
O O11 0.000000 0.715115 0.250000
#
# Coordination Sequence:
#
# PCOD9422896 Si02
#       6
#     8   8   4   8   4   8
#     4  12  23  37  65  97 133 169 214 267 335 398
#     4   9  23  41  67  95 131 175 228 264 329 395
#     4  11  23  42  60 102 137 177 212 270 332 403
#     4  10  23  40  68  93 128 180 219 271 332 382
#     4  11  19  44  72  88 131 183 230 272 320 383
#     4  10  22  39  65 100 131 163 216 266 335 399
#
# _framework density 20.67427
#
# number of rings (size 3 to 8) (size 9 to 14) (size 15 to 20)
#    1.200    0.400    0.000    6.000    2.800    0.000 
#    0.000    1.000    4.400    0.000    0.000    0.000 
#    0.000    0.000    0.000    0.000    0.000    0.000 
#
# Total GULP energy -222740.205065 kJ/mol
# GULP energy per Si atom -5568.505127 kJ/mol
# Density = 2.062721 g / cm^3
# Si number density = 20.674270 Si / 1000 Ang^3
#
#
#
# Elastic Constant Matrix: (Units=GPa)
#
#
# Indices 1 2 3 4 5 6 
#
# 1 135.2676 42.8591 74.1194 0.0000 0.0000 0.0000
# 2 42.8591 78.5993 43.0730 0.0000 0.0000 0.0000
# 3 74.1194 43.0730 131.0009 0.0000 0.0000 0.0000
# 4 0.0000 0.0000 0.0000 2.9696 0.0000 0.0000
# 5 0.0000 0.0000 0.0000 0.0000 59.4673 0.0000
# 6 0.0000 0.0000 0.0000 0.0000 0.0000 21.4121
#
#
#
# Elastic Compliance Matrix: (Units=1/GPa)
#
#
# Indices 1 2 3 4 5 6 
#
# 1 0.011360 -0.003260 -0.005356 0.000000 0.000000 0.000000
# 2 -0.003260 0.016454 -0.003566 0.000000 0.000000 0.000000
# 3 -0.005356 -0.003566 0.011836 0.000000 0.000000 0.000000
# 4 0.000000 0.000000 0.000000 0.336751 0.000000 0.000000
# 5 0.000000 0.000000 0.000000 0.000000 0.016816 0.000000
# 6 0.000000 0.000000 0.000000 0.000000 0.000000 0.046702
#
#
# Mechanical properties :
#
#
# Convention : Reuss Voigt Hill
#
# Bulk Modulus (GPa) = 65.40973 73.88564 69.64769
# Shear Modulus (GPa) = 10.65238 29.09090 19.87164
#
# Velocity S-wave (km/s) = 2.27237 3.75521 3.10365
# Velocity P-wave (km/s) = 6.21223 7.39038 6.82677
#
# Compressibility (1/GPa) = 0.01528825
#
# Stress axis : x y z
#
# Youngs Moduli (GPa) = 88.02644 60.77442 84.48601
#
# Poissons Ratio (x) = 0.19810 0.45249
# Poissons Ratio (y) = 0.28693 0.30127
# Poissons Ratio (z) = 0.47145 0.21672
#
# Static dielectric constant tensor:
#      x y z
#    x 1.893570 0.000000 0.000000 
#    y 0.000000 1.728490 0.000000 
#    z 0.000000 0.000000 1.738590 
# 
# From -- ./inp_files/21052.got.cif
#   From: 2010.05.17/outbox.cif.g08.bks.cpg/sg54_11_cif.got.tgz:21052.got - 2010.06.03 13:09:01.
