data_PCOD9422138
_publ_section_title
;
Structure prediction by ZEFSAII (Michael W. Deem and Ramdas Pophale) SiO2 
 PCOD9422138
Probable space group: P C C A
;
_chemical_formula_sum "Si O2"
_cell_formula_units_Z 56
_cell_length_a 13.662433
_cell_length_b 10.070134
_cell_length_c 20.809467
_cell_angle_alpha 90.000000
_cell_angle_beta 90.000000
_cell_angle_gamma 90.000000
_cell_volume 2863.019140
_symmetry_space_group_name_H-M "P C C A"
_symmetry_group_IT_number 54
_symmetry_cell_setting 'orthorhombic'
loop_
_space_group_symop_operation_xyz
x,y,z
1/2-x,-y,z
1/2+x,-y,1/2-z
-x,y,1/2-z
-x,-y,-z
1/2+x,y,-z
1/2-x,y,1/2+z
x,-y,1/2+z
loop_
_atom_site_type_symbol
_atom_site_label
_atom_site_fract_x
_atom_site_fract_y
_atom_site_fract_z
Si Si1 0.750000 0.000000 0.535197
Si Si2 0.576786 0.061568 0.948943
Si Si3 0.165021 0.884157 0.292307
Si Si4 0.250000 0.500000 0.487589
Si Si5 0.926535 0.392446 0.931047
Si Si6 0.770206 0.272936 0.105231
Si Si7 0.553200 0.142457 0.341898
Si Si8 0.013264 0.666697 0.926581
O O1 0.672512 0.926074 0.491084
O O2 0.787189 0.875886 0.576595
O O3 0.540924 0.195848 0.916313
O O4 0.596475 0.957535 0.893514
O O5 0.500000 0.000000 0.000000
O O6 0.216106 0.758913 0.328111
O O7 0.119310 0.860688 0.221917
O O8 0.061179 0.902460 0.331309
O O9 0.250000 0.000000 0.291024
O O10 0.323001 0.576276 0.535317
O O11 0.213706 0.619679 0.440111
O O12 0.939049 0.284466 0.876253
O O13 0.961780 0.533365 0.905053
O O14 0.983666 0.344741 0.995241
O O15 0.879575 0.330420 0.104607
#
# Coordination Sequence:
#
# PCOD9422138 Si02
#       8
#     4   8   8   4   8   8   8   8
#     4  12  22  32  64  96 130 164 216 276 350 396
#     4  12  20  37  60 101 128 160 213 281 339 402
#     4  11  25  45  68  90 129 184 232 275 311 403
#     4  10  22  38  66 102 136 170 214 282 356 408
#     4  10  21  40  63  99 139 166 210 273 353 404
#     4  11  21  38  62  97 126 174 226 268 326 402
#     4  11  25  43  69  93 131 179 224 273 343 395
#     4  10  21  35  64  98 132 164 203 285 338 396
#
# _framework density 19.559771000000001
#
# number of rings (size 3 to 8) (size 9 to 14) (size 15 to 20)
#    0.000    1.143    3.571    3.429    7.000    0.000 
#    0.000    0.714    0.000    1.714    0.000    0.000 
#    0.000    0.000    0.000    0.000    0.000    0.000 
#
# Total GULP energy -312001.423090 kJ/mol
# GULP energy per Si atom -5571.453984 kJ/mol
# Density = 1.951525 g / cm^3
# Si number density = 19.559771 Si / 1000 Ang^3
#
#
#
# Elastic Constant Matrix: (Units=GPa)
#
#
# Indices 1 2 3 4 5 6 
#
# 1 72.0777 29.0780 29.7167 0.0000 0.0000 0.0000
# 2 29.0780 117.2695 33.1646 0.0000 0.0000 0.0000
# 3 29.7167 33.1646 82.8526 0.0000 0.0000 0.0000
# 4 0.0000 0.0000 0.0000 20.3686 0.0000 0.0000
# 5 0.0000 0.0000 0.0000 0.0000 20.0506 0.0000
# 6 0.0000 0.0000 0.0000 0.0000 0.0000 25.5327
#
#
#
# Elastic Compliance Matrix: (Units=1/GPa)
#
#
# Indices 1 2 3 4 5 6 
#
# 1 0.017071 -0.002821 -0.004994 0.000000 0.000000 0.000000
# 2 -0.002821 0.010082 -0.003024 0.000000 0.000000 0.000000
# 3 -0.004994 -0.003024 0.015071 0.000000 0.000000 0.000000
# 4 0.000000 0.000000 0.000000 0.049095 0.000000 0.000000
# 5 0.000000 0.000000 0.000000 0.000000 0.049874 0.000000
# 6 0.000000 0.000000 0.000000 0.000000 0.000000 0.039165
#
#
# Mechanical properties :
#
#
# Convention : Reuss Voigt Hill
#
# Bulk Modulus (GPa) = 48.66829 50.67982 49.67405
# Shear Modulus (GPa) = 23.93676 25.20642 24.57159
#
# Velocity S-wave (km/s) = 3.50204 3.59372 3.54818
# Velocity P-wave (km/s) = 6.42559 6.57163 6.49902
#
# Compressibility (1/GPa) = 0.02054726
#
# Stress axis : x y z
#
# Youngs Moduli (GPa) = 58.58005 99.18711 66.35177
#
# Poissons Ratio (x) = 0.27976 0.33134
# Poissons Ratio (y) = 0.16523 0.20065
# Poissons Ratio (z) = 0.29253 0.29994
#
# Static dielectric constant tensor:
#      x y z
#    x 1.726370 0.000000 0.000000 
#    y 0.000000 1.686560 0.000000 
#    z 0.000000 0.000000 1.632680 
# 
# From -- ./inp_files/21655.got.cif
#   From: 2010.05.17/outbox.cif.g08.bks.cpg/sg54_11_cif.got.tgz:21655.got - 2010.06.03 13:09:01.
