data_PCOD9422647
_publ_section_title
;
Structure prediction by ZEFSAII (Michael W. Deem and Ramdas Pophale) SiO2 
 PCOD9422647
Probable space group: P C C A
;
_chemical_formula_sum "Si O2"
_cell_formula_units_Z 56
_cell_length_a 19.740953
_cell_length_b 9.035633
_cell_length_c 13.674157
_cell_angle_alpha 90.000000
_cell_angle_beta 90.000000
_cell_angle_gamma 90.000000
_cell_volume 2439.086820
_symmetry_space_group_name_H-M "P C C A"
_symmetry_group_IT_number 54
_symmetry_cell_setting 'orthorhombic'
loop_
_space_group_symop_operation_xyz
x,y,z
1/2-x,-y,z
1/2+x,-y,1/2-z
-x,y,1/2-z
-x,-y,-z
1/2+x,y,-z
1/2-x,y,1/2+z
x,-y,1/2+z
loop_
_atom_site_type_symbol
_atom_site_label
_atom_site_fract_x
_atom_site_fract_y
_atom_site_fract_z
Si Si1 0.991370 0.747425 0.133854
Si Si2 0.878822 0.508265 0.142647
Si Si3 0.131500 0.739090 0.021649
Si Si4 0.234302 0.169398 0.071616
Si Si5 0.639098 0.751612 0.271796
Si Si6 0.605747 0.010633 0.637942
Si Si7 0.781860 0.777881 0.158221
O O1 0.942545 0.608478 0.114488
O O2 0.952730 0.898742 0.106133
O O3 0.000000 0.754639 0.250000
O O4 0.062401 0.731047 0.080892
O O5 0.888745 0.406361 0.238505
O O6 0.818093 0.620372 0.164108
O O7 0.862947 0.395982 0.054436
O O8 0.196220 0.742569 0.093459
O O9 0.127497 0.888912 0.954855
O O10 0.164440 0.225439 0.118595
O O11 0.250000 0.000000 0.098072
O O12 0.229920 0.189248 0.955780
O O13 0.711878 0.775672 0.216385
O O14 0.590204 0.874800 0.225453
O O15 0.665120 0.907252 0.682927
#
# Coordination Sequence:
#
# PCOD9422647 Si02
#       7
#     8   8   8   8   8   8   8
#     4  11  26  42  66  93 126 176 232 271 320 384
#     4  10  24  44  64  88 136 177 214 269 326 397
#     4  11  23  43  64  95 127 179 218 262 336 396
#     4  12  23  37  70 104 133 165 220 278 336 411
#     4  11  23  39  65  99 132 166 214 270 337 385
#     4  10  21  42  68  89 134 171 213 277 324 393
#     4  11  20  41  62  97 133 169 207 265 341 395
#
# _framework density 22.959412
#
# number of rings (size 3 to 8) (size 9 to 14) (size 15 to 20)
#    0.000    1.143    4.286    2.571    6.000    1.143 
#    2.571    2.857    0.000    0.000    0.000    0.000 
#    0.000    0.000    0.000    0.000    0.000    0.000 
#
# Total GULP energy -313278.116546 kJ/mol
# GULP energy per Si atom -5594.252081 kJ/mol
# Density = 2.290716 g / cm^3
# Si number density = 22.959412 Si / 1000 Ang^3
#
#
#
# Elastic Constant Matrix: (Units=GPa)
#
#
# Indices 1 2 3 4 5 6 
#
# 1 37.2354 22.6000 -14.2673 0.0000 0.0000 0.0000
# 2 22.6000 140.2251 5.9091 0.0000 0.0000 0.0000
# 3 -14.2673 5.9091 44.3496 0.0000 0.0000 0.0000
# 4 0.0000 0.0000 0.0000 7.9374 0.0000 0.0000
# 5 0.0000 0.0000 0.0000 0.0000 30.7051 0.0000
# 6 0.0000 0.0000 0.0000 0.0000 0.0000 15.2386
#
#
#
# Elastic Compliance Matrix: (Units=1/GPa)
#
#
# Indices 1 2 3 4 5 6 
#
# 1 0.035285 -0.006200 0.012177 0.000000 0.000000 0.000000
# 2 -0.006200 0.008261 -0.003095 0.000000 0.000000 0.000000
# 3 0.012177 -0.003095 0.026878 0.000000 0.000000 0.000000
# 4 0.000000 0.000000 0.000000 0.125985 0.000000 0.000000
# 5 0.000000 0.000000 0.000000 0.000000 0.032568 0.000000
# 6 0.000000 0.000000 0.000000 0.000000 0.000000 0.065623
#
#
# Mechanical properties :
#
#
# Convention : Reuss Voigt Hill
#
# Bulk Modulus (GPa) = 13.12534 27.81042 20.46788
# Shear Modulus (GPa) = 15.91180 24.61411 20.26296
#
# Velocity S-wave (km/s) = 2.63542 3.27780 2.97401
# Velocity P-wave (km/s) = 3.87166 5.14436 4.55270
#
# Compressibility (1/GPa) = 0.07618853
#
# Stress axis : x y z
#
# Youngs Moduli (GPa) = 28.34044 121.04939 37.20510
#
# Poissons Ratio (x) = 0.75052 -0.45306
# Poissons Ratio (y) = 0.17571 0.11516
# Poissons Ratio (z) = -0.34511 0.37468
#
# Static dielectric constant tensor:
#      x y z
#    x 1.903970 0.000000 0.000000 
#    y 0.000000 1.871220 0.000000 
#    z 0.000000 0.000000 1.898190 
# 
# From -- ./inp_files/14661.got.cif
#   From: 2010.05.17/outbox.cif.g08.bks.cpg/sg54_8_cif.got.tgz:14661.got - 2010.06.03 13:09:01.
