data_PCOD9422514
_publ_section_title
;
Structure prediction by ZEFSAII (Michael W. Deem and Ramdas Pophale) SiO2 
 PCOD9422514
Probable space group: P C C A
;
_chemical_formula_sum "Si O2"
_cell_formula_units_Z 60
_cell_length_a 23.096057
_cell_length_b 8.843066
_cell_length_c 12.756765
_cell_angle_alpha 90.000000
_cell_angle_beta 90.000000
_cell_angle_gamma 90.000000
_cell_volume 2605.441127
_symmetry_space_group_name_H-M "P C C A"
_symmetry_group_IT_number 54
_symmetry_cell_setting 'orthorhombic'
loop_
_space_group_symop_operation_xyz
x,y,z
1/2-x,-y,z
1/2+x,-y,1/2-z
-x,y,1/2-z
-x,-y,-z
1/2+x,y,-z
1/2-x,y,1/2+z
x,-y,1/2+z
loop_
_atom_site_type_symbol
_atom_site_label
_atom_site_fract_x
_atom_site_fract_y
_atom_site_fract_z
Si Si1 0.623718 0.546658 0.982394
Si Si2 0.484678 0.735798 0.447432
Si Si3 0.000000 0.468452 0.250000
Si Si4 0.109321 0.984626 0.889139
Si Si5 0.804079 0.405350 0.329384
Si Si6 0.703199 0.251572 0.617591
Si Si7 0.703165 0.118369 0.972014
Si Si8 0.421963 0.699676 0.874657
O O1 0.562009 0.623232 0.999337
O O2 0.670212 0.668150 0.021807
O O3 0.623911 0.401077 0.059843
O O4 0.639564 0.495783 0.866132
O O5 0.510554 0.646237 0.347476
O O6 0.447661 0.883004 0.411449
O O7 0.532833 0.756847 0.535747
O O8 0.951927 0.584009 0.205026
O O9 0.158270 0.875470 0.841072
O O10 0.098936 0.141140 0.827486
O O11 0.143375 0.040216 0.993963
O O12 0.750000 0.500000 0.370733
O O13 0.793781 0.372634 0.208942
O O14 0.806194 0.248230 0.389484
O O15 0.762910 0.183585 0.575046
O O16 0.750000 0.000000 0.928765
#
# Coordination Sequence:
#
# PCOD9422514 Si02
#       8
#     8   8   4   8   8   8   8   8
#     4  10  21  40  63  95 132 168 215 274 325 386
#     4  10  23  42  66  92 133 175 217 277 339 386
#     4  10  22  40  62  94 126 166 214 276 320 390
#     4  10  22  43  66  90 128 177 211 276 329 389
#     4  12  24  39  71 100 126 174 221 263 329 406
#     4  10  24  42  64  96 136 173 210 272 335 393
#     4  10  22  44  64  90 139 165 215 273 329 396
#     4  11  22  41  67  93 129 171 221 277 327 391
#
# _framework density 23.028728999999998
#
# number of rings (size 3 to 8) (size 9 to 14) (size 15 to 20)
#    0.000    1.600    2.667    2.000    1.867    8.533 
#    2.400    0.000    0.000    0.000    0.000    0.000 
#    0.000    0.000    0.000    0.000    0.000    0.000 
#
# Total GULP energy -335165.646496 kJ/mol
# GULP energy per Si atom -5586.094108 kJ/mol
# Density = 2.297631 g / cm^3
# Si number density = 23.028729 Si / 1000 Ang^3
#
#
#
# Elastic Constant Matrix: (Units=GPa)
#
#
# Indices 1 2 3 4 5 6 
#
# 1 71.2630 31.4633 20.1821 0.0000 0.0000 0.0000
# 2 31.4633 119.5968 14.4636 0.0000 0.0000 0.0000
# 3 20.1821 14.4636 56.8999 0.0000 0.0000 0.0000
# 4 0.0000 0.0000 0.0000 31.9636 0.0000 0.0000
# 5 0.0000 0.0000 0.0000 0.0000 19.9280 0.0000
# 6 0.0000 0.0000 0.0000 0.0000 0.0000 44.7941
#
#
#
# Elastic Compliance Matrix: (Units=1/GPa)
#
#
# Indices 1 2 3 4 5 6 
#
# 1 0.017205 -0.003908 -0.005109 0.000000 0.000000 0.000000
# 2 -0.003908 0.009514 -0.001032 0.000000 0.000000 0.000000
# 3 -0.005109 -0.001032 0.019649 0.000000 0.000000 0.000000
# 4 0.000000 0.000000 0.000000 0.031286 0.000000 0.000000
# 5 0.000000 0.000000 0.000000 0.000000 0.050181 0.000000
# 6 0.000000 0.000000 0.000000 0.000000 0.000000 0.022324
#
#
# Mechanical properties :
#
#
# Convention : Reuss Voigt Hill
#
# Bulk Modulus (GPa) = 38.06707 42.21973 40.14340
# Shear Modulus (GPa) = 27.93057 31.44718 29.68887
#
# Velocity S-wave (km/s) = 3.48639 3.69936 3.59445
# Velocity P-wave (km/s) = 5.72474 6.05147 5.89037
#
# Compressibility (1/GPa) = 0.02626943
#
# Stress axis : x y z
#
# Youngs Moduli (GPa) = 58.12243 105.10296 50.89244
#
# Poissons Ratio (x) = 0.41079 0.26001
# Poissons Ratio (y) = 0.22717 0.05253
# Poissons Ratio (z) = 0.29695 0.10849
#
# Static dielectric constant tensor:
#      x y z
#    x 1.881290 0.000000 0.000000 
#    y 0.000000 1.937270 0.000000 
#    z 0.000000 0.000000 1.837210 
# 
# From -- ./inp_files/10344.got.cif
#   From: 2010.05.17/outbox.cif.g08.bks.cpg/sg54_6_cif.got.tgz:10344.got - 2010.06.03 13:09:01.
