data_PCOD9422318
_publ_section_title
;
Structure prediction by ZEFSAII (Michael W. Deem and Ramdas Pophale) SiO2 
 PCOD9422318
Probable space group: P C C A
;
_chemical_formula_sum "Si O2"
_cell_formula_units_Z 40
_cell_length_a 13.365184
_cell_length_b 12.506635
_cell_length_c 11.674338
_cell_angle_alpha 90.000000
_cell_angle_beta 90.000000
_cell_angle_gamma 90.000000
_cell_volume 1951.406200
_symmetry_space_group_name_H-M "P C C A"
_symmetry_group_IT_number 54
_symmetry_cell_setting 'orthorhombic'
loop_
_space_group_symop_operation_xyz
x,y,z
1/2-x,-y,z
1/2+x,-y,1/2-z
-x,y,1/2-z
-x,-y,-z
1/2+x,y,-z
1/2-x,y,1/2+z
x,-y,1/2+z
loop_
_atom_site_type_symbol
_atom_site_label
_atom_site_fract_x
_atom_site_fract_y
_atom_site_fract_z
Si Si1 0.060122 0.108709 0.491234
Si Si2 0.895578 0.747724 0.294028
Si Si3 0.752806 0.624688 0.462695
Si Si4 0.719391 0.803437 0.149478
Si Si5 0.926373 0.729310 0.842488
O O1 0.079739 0.161238 0.613688
O O2 0.167424 0.105337 0.426425
O O3 0.993344 0.191283 0.417243
O O4 0.000000 0.000000 0.500000
O O5 0.826917 0.659783 0.358747
O O6 0.832783 0.803518 0.192418
O O7 0.000000 0.701575 0.250000
O O8 0.750000 0.500000 0.487550
O O9 0.786363 0.696944 0.570239
O O10 0.641192 0.657142 0.423446
O O11 0.653047 0.793204 0.263967
O O12 0.000000 0.673985 0.750000
#
# Coordination Sequence:
#
# PCOD9422318 Si02
#       5
#     8   8   8   8   8
#     4  10  21  40  64  89 118 156 200 247 300 361
#     4  10  21  39  60  88 124 157 198 252 301 360
#     4  10  21  38  60  86 118 158 202 247 299 360
#     4   9  20  39  59  86 123 154 192 246 297 355
#     4   9  19  38  59  83 117 151 191 246 299 352
#
# _framework density 20.49804
#
# number of rings (size 3 to 8) (size 9 to 14) (size 15 to 20)
#    0.000    2.400    0.000    1.200    0.000    6.400 
#    0.000   36.000    0.000    0.000    0.000    0.000 
#    0.000    0.000    0.000    0.000    0.000    0.000 
#
# Total GULP energy -223137.992266 kJ/mol
# GULP energy per Si atom -5578.449807 kJ/mol
# Density = 2.045139 g / cm^3
# Si number density = 20.498040 Si / 1000 Ang^3
#
#
#
# Elastic Constant Matrix: (Units=GPa)
#
#
# Indices 1 2 3 4 5 6 
#
# 1 128.4773 38.4134 39.7403 0.0000 0.0000 0.0000
# 2 38.4134 97.2035 38.1487 0.0000 0.0000 0.0000
# 3 39.7403 38.1487 80.3508 0.0000 0.0000 0.0000
# 4 0.0000 0.0000 0.0000 3.0768 0.0000 0.0000
# 5 0.0000 0.0000 0.0000 0.0000 51.1707 0.0000
# 6 0.0000 0.0000 0.0000 0.0000 0.0000 23.5489
#
#
#
# Elastic Compliance Matrix: (Units=1/GPa)
#
#
# Indices 1 2 3 4 5 6 
#
# 1 0.009616 -0.002376 -0.003628 0.000000 0.000000 0.000000
# 2 -0.002376 0.013231 -0.005106 0.000000 0.000000 0.000000
# 3 -0.003628 -0.005106 0.016664 0.000000 0.000000 0.000000
# 4 0.000000 0.000000 0.000000 0.325012 0.000000 0.000000
# 5 0.000000 0.000000 0.000000 0.000000 0.019542 0.000000
# 6 0.000000 0.000000 0.000000 0.000000 0.000000 0.042465
#
#
# Mechanical properties :
#
#
# Convention : Reuss Voigt Hill
#
# Bulk Modulus (GPa) = 57.83687 59.84850 58.84268
# Shear Modulus (GPa) = 11.00075 28.20790 19.60432
#
# Velocity S-wave (km/s) = 2.31913 3.71364 3.09593
# Velocity P-wave (km/s) = 5.95384 6.90281 6.44581
#
# Compressibility (1/GPa) = 0.01729001
#
# Stress axis : x y z
#
# Youngs Moduli (GPa) = 103.99211 75.58079 60.00945
#
# Poissons Ratio (x) = 0.17961 0.21770
# Poissons Ratio (y) = 0.24713 0.30643
# Poissons Ratio (z) = 0.37726 0.38594
#
# Static dielectric constant tensor:
#      x y z
#    x 1.793400 0.000000 0.000000 
#    y 0.000000 1.681110 0.000000 
#    z 0.000000 0.000000 1.744800 
# 
# From -- ./inp_files/8242.got.cif
#   From: 2010.05.17/outbox.cif.g08.bks.cpg/sg54_5_cif.got.tgz:8242.got - 2010.06.03 13:09:01.
