data_PCOD9422846
_publ_section_title
;
Structure prediction by ZEFSAII (Michael W. Deem and Ramdas Pophale) SiO2 
 PCOD9422846
Probable space group: P C C A
;
_chemical_formula_sum "Si O2"
_cell_formula_units_Z 56
_cell_length_a 11.772110
_cell_length_b 16.573903
_cell_length_c 13.675620
_cell_angle_alpha 90.000000
_cell_angle_beta 90.000000
_cell_angle_gamma 90.000000
_cell_volume 2668.247610
_symmetry_space_group_name_H-M "P C C A"
_symmetry_group_IT_number 54
_symmetry_cell_setting 'orthorhombic'
loop_
_space_group_symop_operation_xyz
x,y,z
1/2-x,-y,z
1/2+x,-y,1/2-z
-x,y,1/2-z
-x,-y,-z
1/2+x,y,-z
1/2-x,y,1/2+z
x,-y,1/2+z
loop_
_atom_site_type_symbol
_atom_site_label
_atom_site_fract_x
_atom_site_fract_y
_atom_site_fract_z
Si Si1 0.159654 0.391604 0.340027
Si Si2 0.958611 0.971979 0.352489
Si Si3 0.337520 0.071118 0.482812
Si Si4 0.075993 0.570187 0.344725
Si Si5 0.964820 0.306533 0.994652
Si Si6 0.400853 0.260039 0.685551
Si Si7 0.189199 0.822791 0.107025
O O1 0.087846 0.473487 0.355877
O O2 0.293161 0.405612 0.330230
O O3 0.135966 0.339909 0.436866
O O4 0.120624 0.343428 0.243850
O O5 0.863296 0.903142 0.346100
O O6 0.000000 0.004505 0.250000
O O7 0.066034 0.926903 0.401716
O O8 0.907736 0.041303 0.421512
O O9 0.260713 0.146834 0.512011
O O10 0.250000 0.000000 0.456792
O O11 0.000000 0.586983 0.250000
O O12 0.021849 0.621636 0.432686
O O13 0.052696 0.273274 0.075952
O O14 0.909288 0.238660 0.925620
O O15 0.500000 0.218603 0.750000
O O16 0.281095 0.216070 0.678580
#
# Coordination Sequence:
#
# PCOD9422846 Si02
#       7
#     8   8   8   8   8   8   8
#     4  10  23  40  59  85 118 158 202 254 312 371
#     4  10  22  39  63  90 121 161 203 247 296 361
#     4   9  21  41  60  87 124 158 199 247 301 366
#     4  11  22  38  61  86 115 156 206 256 309 371
#     4  11  22  38  60  86 120 159 202 252 309 366
#     4  10  22  39  57  84 122 158 198 251 310 366
#     4  11  22  37  60  90 122 159 202 251 307 362
#
# _framework density 20.987558
#
# number of rings (size 3 to 8) (size 9 to 14) (size 15 to 20)
#    0.000    1.714    0.000    4.286    0.000    6.286 
#    0.000    4.286    0.000    0.000    0.000    0.000 
#    0.000    0.000    0.000    0.000    0.000    0.000 
#
# Total GULP energy -312715.141916 kJ/mol
# GULP energy per Si atom -5584.198963 kJ/mol
# Density = 2.093979 g / cm^3
# Si number density = 20.987558 Si / 1000 Ang^3
#
#
#
# Elastic Constant Matrix: (Units=GPa)
#
#
# Indices 1 2 3 4 5 6 
#
# 1 73.7718 16.9261 32.6630 0.0000 0.0000 0.0000
# 2 16.9261 50.3247 13.4114 0.0000 0.0000 0.0000
# 3 32.6630 13.4114 66.5724 0.0000 0.0000 0.0000
# 4 0.0000 0.0000 0.0000 5.0694 0.0000 0.0000
# 5 0.0000 0.0000 0.0000 0.0000 15.7224 0.0000
# 6 0.0000 0.0000 0.0000 0.0000 0.0000 26.0287
#
#
#
# Elastic Compliance Matrix: (Units=1/GPa)
#
#
# Indices 1 2 3 4 5 6 
#
# 1 0.018019 -0.003914 -0.008052 0.000000 0.000000 0.000000
# 2 -0.003914 0.021849 -0.002481 0.000000 0.000000 0.000000
# 3 -0.008052 -0.002481 0.019472 0.000000 0.000000 0.000000
# 4 0.000000 0.000000 0.000000 0.197262 0.000000 0.000000
# 5 0.000000 0.000000 0.000000 0.000000 0.063604 0.000000
# 6 0.000000 0.000000 0.000000 0.000000 0.000000 0.038419
#
#
# Mechanical properties :
#
#
# Convention : Reuss Voigt Hill
#
# Bulk Modulus (GPa) = 32.84715 35.18555 34.01635
# Shear Modulus (GPa) = 12.57334 17.87532 15.22433
#
# Velocity S-wave (km/s) = 2.45028 2.92157 2.69624
# Velocity P-wave (km/s) = 4.86723 5.30869 5.09274
#
# Compressibility (1/GPa) = 0.03044404
#
# Stress axis : x y z
#
# Youngs Moduli (GPa) = 55.49845 45.76933 51.35664
#
# Poissons Ratio (x) = 0.17916 0.41352
# Poissons Ratio (y) = 0.21725 0.12741
# Poissons Ratio (z) = 0.44687 0.11355
#
# Static dielectric constant tensor:
#      x y z
#    x 1.758380 0.000000 0.000000 
#    y 0.000000 1.774280 0.000000 
#    z 0.000000 0.000000 1.734130 
# 
# From -- ./inp_files/12697.got.cif
#   From: 2010.05.17/outbox.cif.g08.bks.cpg/sg54_7_cif.got.tgz:12697.got - 2010.06.03 13:09:01.
