data_PCOD9422421
_publ_section_title
;
Structure prediction by ZEFSAII (Michael W. Deem and Ramdas Pophale) SiO2 
 PCOD9422421
Probable space group: P C C A
;
_chemical_formula_sum "Si O2"
_cell_formula_units_Z 28
_cell_length_a 5.111214
_cell_length_b 10.461291
_cell_length_c 22.787296
_cell_angle_alpha 90.000000
_cell_angle_beta 90.000000
_cell_angle_gamma 90.000000
_cell_volume 1218.434370
_symmetry_space_group_name_H-M "P C C A"
_symmetry_group_IT_number 54
_symmetry_cell_setting 'orthorhombic'
loop_
_space_group_symop_operation_xyz
x,y,z
1/2-x,-y,z
1/2+x,-y,1/2-z
-x,y,1/2-z
-x,-y,-z
1/2+x,y,-z
1/2-x,y,1/2+z
x,-y,1/2+z
loop_
_atom_site_type_symbol
_atom_site_label
_atom_site_fract_x
_atom_site_fract_y
_atom_site_fract_z
Si Si1 0.802784 0.766504 0.633259
Si Si2 0.027151 0.357545 0.474202
Si Si3 0.250000 0.000000 0.957801
Si Si4 0.808424 0.853508 0.307185
O O1 0.505857 0.766514 0.655068
O O2 0.887803 0.648409 0.592800
O O3 0.019195 0.791772 0.683995
O O4 0.800608 0.882961 0.587015
O O5 0.749144 0.294000 0.485623
O O6 0.000000 0.500000 0.500000
O O7 0.500000 0.000000 0.000000
O O8 0.000000 0.870426 0.250000
O O9 0.750000 0.000000 0.326322
#
# Coordination Sequence:
#
# PCOD9422421 Si02
#       4
#     8   8   4   8
#     4  12  22  38  59  90 126 171 215 259 328 383
#     4  10  21  39  62  91 122 161 215 263 322 397
#     4  12  22  34  52  84 130 166 200 254 310 394
#     4  12  23  40  59  88 126 174 222 268 316 384
#
# _framework density 22.980312000000001
#
# number of rings (size 3 to 8) (size 9 to 14) (size 15 to 20)
#    0.000    0.571    2.857    7.714    0.000    0.000 
#    0.000    0.000    0.000    0.000    0.000   80.000 
#    0.000    0.000    0.000    0.000    0.000    0.000 
#
# Total GULP energy -156013.937448 kJ/mol
# GULP energy per Si atom -5571.926337 kJ/mol
# Density = 2.292801 g / cm^3
# Si number density = 22.980312 Si / 1000 Ang^3
#
#
#
# Elastic Constant Matrix: (Units=GPa)
#
#
# Indices 1 2 3 4 5 6 
#
# 1 201.7094 8.8199 31.7545 0.0000 0.0000 0.0000
# 2 8.8199 63.2397 22.1145 0.0000 0.0000 0.0000
# 3 31.7545 22.1145 63.0347 0.0000 0.0000 0.0000
# 4 0.0000 0.0000 0.0000 20.3100 0.0000 0.0000
# 5 0.0000 0.0000 0.0000 0.0000 44.8774 0.0000
# 6 0.0000 0.0000 0.0000 0.0000 0.0000 16.2300
#
#
#
# Elastic Compliance Matrix: (Units=1/GPa)
#
#
# Indices 1 2 3 4 5 6 
#
# 1 0.005387 0.000225 -0.002793 0.000000 0.000000 0.000000
# 2 0.000225 0.018034 -0.006440 0.000000 0.000000 0.000000
# 3 -0.002793 -0.006440 0.019531 0.000000 0.000000 0.000000
# 4 0.000000 0.000000 0.000000 0.049237 0.000000 0.000000
# 5 0.000000 0.000000 0.000000 0.000000 0.022283 0.000000
# 6 0.000000 0.000000 0.000000 0.000000 0.000000 0.061614
#
#
# Mechanical properties :
#
#
# Convention : Reuss Voigt Hill
#
# Bulk Modulus (GPa) = 40.10289 50.37350 45.23820
# Shear Modulus (GPa) = 24.70188 33.96981 29.33585
#
# Velocity S-wave (km/s) = 3.28215 3.84893 3.57678
# Velocity P-wave (km/s) = 5.64377 6.45912 6.06516
#
# Compressibility (1/GPa) = 0.02493586
#
# Stress axis : x y z
#
# Youngs Moduli (GPa) = 185.61559 55.45224 51.20127
#
# Poissons Ratio (x) = -0.01250 0.14301
# Poissons Ratio (y) = -0.04183 0.32975
# Poissons Ratio (z) = 0.51844 0.35713
#
# Static dielectric constant tensor:
#      x y z
#    x 1.851130 0.000000 0.000000 
#    y 0.000000 1.596040 0.000000 
#    z 0.000000 0.000000 1.968430 
# 
# From -- ./inp_files/19465.got.cif
#   From: 2010.05.17/outbox.cif.g08.bks.cpg/sg54_10_cif.got.tgz:19465.got - 2010.06.03 13:09:01.
