data_PCOD9422181
_publ_section_title
;
Structure prediction by ZEFSAII (Michael W. Deem and Ramdas Pophale) SiO2 
 PCOD9422181
Probable space group: P C C A
;
_chemical_formula_sum "Si O2"
_cell_formula_units_Z 60
_cell_length_a 24.083315
_cell_length_b 12.276732
_cell_length_c 8.729413
_cell_angle_alpha 90.000000
_cell_angle_beta 90.000000
_cell_angle_gamma 90.000000
_cell_volume 2580.976691
_symmetry_space_group_name_H-M "P C C A"
_symmetry_group_IT_number 54
_symmetry_cell_setting 'orthorhombic'
loop_
_space_group_symop_operation_xyz
x,y,z
1/2-x,-y,z
1/2+x,-y,1/2-z
-x,y,1/2-z
-x,-y,-z
1/2+x,y,-z
1/2-x,y,1/2+z
x,-y,1/2+z
loop_
_atom_site_type_symbol
_atom_site_label
_atom_site_fract_x
_atom_site_fract_y
_atom_site_fract_z
Si Si1 0.024367 0.670978 0.414275
Si Si2 0.148187 0.401004 0.864560
Si Si3 0.415842 0.117216 0.759562
Si Si4 0.317805 0.169262 0.337458
Si Si5 0.500000 0.687773 0.250000
Si Si6 0.802848 0.424921 0.309584
Si Si7 0.065079 0.910852 0.411286
Si Si8 0.296584 0.826489 0.205312
O O1 0.088055 0.635010 0.419427
O O2 0.025810 0.804632 0.405545
O O3 0.000000 0.633626 0.250000
O O4 0.000243 0.634674 0.579832
O O5 0.172614 0.294019 0.782673
O O6 0.146645 0.509225 0.765337
O O7 0.186407 0.422037 0.010578
O O8 0.445802 0.233891 0.758616
O O9 0.418134 0.078257 0.586096
O O10 0.350153 0.126078 0.793843
O O11 0.450551 0.031019 0.857931
O O12 0.378058 0.115126 0.317425
O O13 0.263185 0.126919 0.252658
O O14 0.305627 0.167606 0.521149
O O15 0.750000 0.500000 0.276240
O O16 0.797051 0.302176 0.253996
#
# Coordination Sequence:
#
# PCOD9422181 Si02
#       8
#     8   8   8   8   4   8   8   8
#     4  10  23  45  67  91 127 166 214 262 323 379
#     4  10  22  40  59  95 125 155 209 265 310 383
#     4  10  22  38  59  89 121 161 209 253 313 365
#     4   9  19  37  54  82 125 156 196 253 307 368
#     4  10  22  42  66  92 126 166 206 272 314 360
#     4  11  20  36  65  92 122 162 205 258 318 376
#     4   9  21  37  59  88 122 157 202 261 303 372
#     4  10  21  36  57  86 122 161 198 250 312 368
#
# _framework density 23.247014
#
# number of rings (size 3 to 8) (size 9 to 14) (size 15 to 20)
#    0.000    2.133    1.333    2.800    4.667    2.667 
#    7.200    3.333    1.467    0.000    0.000    0.000 
#    0.000    0.000    0.000    0.000    0.000    0.000 
#
# Total GULP energy -334933.570594 kJ/mol
# GULP energy per Si atom -5582.226177 kJ/mol
# Density = 2.319410 g / cm^3
# Si number density = 23.247014 Si / 1000 Ang^3
#
#
#
# Elastic Constant Matrix: (Units=GPa)
#
#
# Indices 1 2 3 4 5 6 
#
# 1 62.6022 -16.1136 16.5563 0.0000 0.0000 0.0000
# 2 -16.1136 55.8289 15.5141 0.0000 0.0000 0.0000
# 3 16.5563 15.5141 70.5702 0.0000 0.0000 0.0000
# 4 0.0000 0.0000 0.0000 4.3379 0.0000 0.0000
# 5 0.0000 0.0000 0.0000 0.0000 35.4985 0.0000
# 6 0.0000 0.0000 0.0000 0.0000 0.0000 100.6606
#
#
#
# Elastic Compliance Matrix: (Units=1/GPa)
#
#
# Indices 1 2 3 4 5 6 
#
# 1 0.019503 0.007350 -0.006191 0.000000 0.000000 0.000000
# 2 0.007350 0.021847 -0.006527 0.000000 0.000000 0.000000
# 3 -0.006191 -0.006527 0.017058 0.000000 0.000000 0.000000
# 4 0.000000 0.000000 0.000000 0.230527 0.000000 0.000000
# 5 0.000000 0.000000 0.000000 0.000000 0.028170 0.000000
# 6 0.000000 0.000000 0.000000 0.000000 0.000000 0.009934
#
#
# Mechanical properties :
#
#
# Convention : Reuss Voigt Hill
#
# Bulk Modulus (GPa) = 20.97756 24.54610 22.76183
# Shear Modulus (GPa) = 14.13759 39.63570 26.88664
#
# Velocity S-wave (km/s) = 2.46874 4.13362 3.40452
# Velocity P-wave (km/s) = 4.14362 5.77617 5.02662
#
# Compressibility (1/GPa) = 0.04766999
#
# Stress axis : x y z
#
# Youngs Moduli (GPa) = 51.27417 45.77311 58.62450
#
# Poissons Ratio (x) = -0.33641 0.36296
# Poissons Ratio (y) = -0.37684 0.38265
# Poissons Ratio (z) = 0.31745 0.29876
#
# Static dielectric constant tensor:
#      x y z
#    x 1.914520 0.000000 0.000000 
#    y 0.000000 1.930660 0.000000 
#    z 0.000000 0.000000 1.847600 
# 
# From -- ./inp_files/5274.got.cif
#   From: 2010.05.17/outbox.cif.g08.bks.cpg/sg54_3_cif.got.tgz:5274.got - 2010.06.03 13:09:01.
