data_PCOD9422198
_publ_section_title
;
Structure prediction by ZEFSAII (Michael W. Deem and Ramdas Pophale) SiO2 
 PCOD9422198
Probable space group: P C C A
;
_chemical_formula_sum "Si O2"
_cell_formula_units_Z 60
_cell_length_a 10.063830
_cell_length_b 15.500086
_cell_length_c 16.758962
_cell_angle_alpha 90.000000
_cell_angle_beta 90.000000
_cell_angle_gamma 90.000000
_cell_volume 2614.234345
_symmetry_space_group_name_H-M "P C C A"
_symmetry_group_IT_number 54
_symmetry_cell_setting 'orthorhombic'
loop_
_space_group_symop_operation_xyz
x,y,z
1/2-x,-y,z
1/2+x,-y,1/2-z
-x,y,1/2-z
-x,-y,-z
1/2+x,y,-z
1/2-x,y,1/2+z
x,-y,1/2+z
loop_
_atom_site_type_symbol
_atom_site_label
_atom_site_fract_x
_atom_site_fract_y
_atom_site_fract_z
Si Si1 0.955977 0.508571 0.339567
Si Si2 0.614009 0.155537 0.634851
Si Si3 0.717399 0.643719 0.346751
Si Si4 0.892791 0.351929 0.580389
Si Si5 0.153778 0.279121 0.506906
Si Si6 0.592552 0.018093 0.073978
Si Si7 0.500000 0.718635 0.250000
Si Si8 0.900391 0.181260 0.677879
O O1 0.844036 0.582997 0.331474
O O2 0.891176 0.424941 0.380703
O O3 0.000000 0.487324 0.250000
O O4 0.071399 0.553765 0.389243
O O5 0.649028 0.191642 0.545721
O O6 0.560236 0.059175 0.635045
O O7 0.514933 0.223903 0.671632
O O8 0.745780 0.158587 0.689444
O O9 0.771164 0.717330 0.406879
O O10 0.640764 0.672942 0.267167
O O11 0.747265 0.342339 0.544347
O O12 0.904385 0.280239 0.650360
O O13 0.007838 0.316921 0.521036
O O14 0.750000 0.000000 0.057911
O O15 0.565842 0.113206 0.107584
O O16 0.500000 0.000000 0.000000
O O17 0.000000 0.167994 0.750000
#
# Coordination Sequence:
#
# PCOD9422198 Si02
#       8
#     8   8   8   8   8   8   4   8
#     4  10  21  40  62  88 126 166 216 265 332 392
#     4  10  24  41  65  92 133 169 214 276 323 394
#     4  10  23  39  63  90 127 170 213 272 328 394
#     4  10  21  36  64  88 124 167 210 261 320 387
#     4  10  21  40  59  92 127 164 216 259 320 393
#     4  10  22  44  66  96 133 168 213 262 327 393
#     4  12  24  40  62 100 130 164 224 276 328 386
#     4  10  22  40  65  93 126 167 215 260 323 388
#
# _framework density 22.951270000000001
#
# number of rings (size 3 to 8) (size 9 to 14) (size 15 to 20)
#    0.000    1.867    0.667    2.000    8.400    2.667 
#    2.400    2.667    0.000    0.000    0.000    0.000 
#    0.000    0.000    0.000    0.000    0.000    0.000 
#
# Total GULP energy -334863.980605 kJ/mol
# GULP energy per Si atom -5581.066343 kJ/mol
# Density = 2.289903 g / cm^3
# Si number density = 22.951270 Si / 1000 Ang^3
#
#
#
# Elastic Constant Matrix: (Units=GPa)
#
#
# Indices 1 2 3 4 5 6 
#
# 1 45.1382 -4.0147 17.6632 0.0000 0.0000 0.0000
# 2 -4.0147 56.2210 3.9838 0.0000 0.0000 0.0000
# 3 17.6632 3.9838 48.8468 0.0000 0.0000 0.0000
# 4 0.0000 0.0000 0.0000 25.3834 0.0000 0.0000
# 5 0.0000 0.0000 0.0000 0.0000 37.2375 0.0000
# 6 0.0000 0.0000 0.0000 0.0000 0.0000 -71.7593
#
#
#
# Elastic Compliance Matrix: (Units=1/GPa)
#
#
# Indices 1 2 3 4 5 6 
#
# 1 0.026165 0.002554 -0.009670 0.000000 0.000000 0.000000
# 2 0.002554 0.018140 -0.002403 0.000000 0.000000 0.000000
# 3 -0.009670 -0.002403 0.024165 0.000000 0.000000 0.000000
# 4 0.000000 0.000000 0.000000 0.039396 0.000000 0.000000
# 5 0.000000 0.000000 0.000000 0.000000 0.026855 0.000000
# 6 0.000000 0.000000 0.000000 0.000000 0.000000 -0.013935
#
#
# Mechanical properties :
#
#
# Convention : Reuss Voigt Hill
#
# Bulk Modulus (GPa) = 20.22993 20.60785 20.41889
# Shear Modulus (GPa) = 31.98989 7.01057 19.50023
#
# Velocity S-wave (km/s) = 3.73744 1.74962 2.91801
# Velocity P-wave (km/s) = 5.24004 3.61663 4.50211
#
# Compressibility (1/GPa) = 0.04943171
#
# Stress axis : x y z
#
# Youngs Moduli (GPa) = 38.21874 55.12817 41.38267
#
# Poissons Ratio (x) = -0.14078 0.40016
# Poissons Ratio (y) = -0.09760 0.09943
# Poissons Ratio (z) = 0.36956 0.13246
#
# Static dielectric constant tensor:
#      x y z
#    x 1.867120 0.000000 0.000000 
#    y 0.000000 1.911050 0.000000 
#    z 0.000000 0.000000 1.970590 
# 
# From -- ./inp_files/12816.got.cif
#   From: 2010.05.17/outbox.cif.g08.bks.cpg/sg54_7_cif.got.tgz:12816.got - 2010.06.03 13:09:01.
