data_PCOD9422503
_publ_section_title
;
Structure prediction by ZEFSAII (Michael W. Deem and Ramdas Pophale) SiO2 
 PCOD9422503
Probable space group: P C C A
;
_chemical_formula_sum "Si O2"
_cell_formula_units_Z 36
_cell_length_a 17.382609
_cell_length_b 6.418543
_cell_length_c 13.620809
_cell_angle_alpha 90.000000
_cell_angle_beta 90.000000
_cell_angle_gamma 90.000000
_cell_volume 1519.687599
_symmetry_space_group_name_H-M "P C C A"
_symmetry_group_IT_number 54
_symmetry_cell_setting 'orthorhombic'
loop_
_space_group_symop_operation_xyz
x,y,z
1/2-x,-y,z
1/2+x,-y,1/2-z
-x,y,1/2-z
-x,-y,-z
1/2+x,y,-z
1/2-x,y,1/2+z
x,-y,1/2+z
loop_
_atom_site_type_symbol
_atom_site_label
_atom_site_fract_x
_atom_site_fract_y
_atom_site_fract_z
Si Si1 0.677672 0.391532 0.062093
Si Si2 0.000000 0.504552 0.250000
Si Si3 0.869042 0.150000 0.734812
Si Si4 0.570700 0.774355 0.103741
Si Si5 0.658946 0.987191 0.447217
O O1 0.750000 0.500000 0.013286
O O2 0.692370 0.247341 0.158024
O O3 0.630944 0.585796 0.102044
O O4 0.637792 0.244782 0.982658
O O5 0.928267 0.662614 0.256011
O O6 0.998909 0.351352 0.154925
O O7 0.839570 0.051445 0.834693
O O8 0.910920 0.966240 0.675147
O O9 0.591095 0.873960 0.997600
O O10 0.750000 0.000000 0.481286
#
# Coordination Sequence:
#
# PCOD9422503 Si02
#       5
#     8   4   8   8   8
#     4  10  21  40  62  92 137 173 207 269 334 391
#     4  10  22  46  66  90 130 182 234 258 332 392
#     4  10  24  40  67  96 127 180 221 275 326 388
#     4  10  22  43  65  92 134 174 215 282 325 389
#     4  11  23  39  64 103 137 167 218 275 335 398
#
# _framework density 23.689080000000001
#
# number of rings (size 3 to 8) (size 9 to 14) (size 15 to 20)
#    0.000    1.778    2.222    0.667    3.111    4.444 
#    0.000   15.556    0.000    0.000    0.000    0.000 
#    0.000    0.000    0.000    0.000    0.000    0.000 
#
# Total GULP energy -200424.422726 kJ/mol
# GULP energy per Si atom -5567.345076 kJ/mol
# Density = 2.363516 g / cm^3
# Si number density = 23.689080 Si / 1000 Ang^3
#
#
#
# Elastic Constant Matrix: (Units=GPa)
#
#
# Indices 1 2 3 4 5 6 
#
# 1 30.6693 8.9881 15.3802 0.0000 0.0000 0.0000
# 2 8.9881 146.5312 46.5983 0.0000 0.0000 0.0000
# 3 15.3802 46.5983 121.0146 0.0000 0.0000 0.0000
# 4 0.0000 0.0000 0.0000 -2.5314 0.0000 0.0000
# 5 0.0000 0.0000 0.0000 0.0000 19.3436 0.0000
# 6 0.0000 0.0000 0.0000 0.0000 0.0000 36.4322
#
#
#
# Elastic Compliance Matrix: (Units=1/GPa)
#
#
# Indices 1 2 3 4 5 6 
#
# 1 0.034914 -0.000832 -0.004117 0.000000 0.000000 0.000000
# 2 -0.000832 0.007797 -0.002896 0.000000 0.000000 0.000000
# 3 -0.004117 -0.002896 0.009902 0.000000 0.000000 0.000000
# 4 0.000000 0.000000 0.000000 -0.395040 0.000000 0.000000
# 5 0.000000 0.000000 0.000000 0.000000 0.051697 0.000000
# 6 0.000000 0.000000 0.000000 0.000000 0.000000 0.027448
#
#
# Mechanical properties :
#
#
# Convention : Reuss Voigt Hill
#
# Bulk Modulus (GPa) = 27.08441 48.90536 37.99489
# Shear Modulus (GPa) = -21.25096 25.79878 2.27391
#
# Velocity S-wave (km/s) = -2.99838 3.30367 0.98081
# Velocity P-wave (km/s) = 0.72726 5.93648 4.16611
#
# Compressibility (1/GPa) = 0.03692161
#
# Stress axis : x y z
#
# Youngs Moduli (GPa) = 28.64152 128.26058 100.98977
#
# Poissons Ratio (x) = 0.10677 0.41576
# Poissons Ratio (y) = 0.02384 0.29251
# Poissons Ratio (z) = 0.11791 0.37149
#
# Static dielectric constant tensor:
#      x y z
#    x 2.047980 0.000000 0.000000 
#    y 0.000000 1.892880 0.000000 
#    z 0.000000 0.000000 1.914040 
# 
# From -- ./inp_files/9752.got.cif
#   From: 2010.05.17/outbox.cif.g08.bks.cpg/sg54_5_cif.got.tgz:9752.got - 2010.06.03 13:09:01.
