data_PCOD9422827
_publ_section_title
;
Structure prediction by ZEFSAII (Michael W. Deem and Ramdas Pophale) SiO2 
 PCOD9422827
Probable space group: P C C A
;
_chemical_formula_sum "Si O2"
_cell_formula_units_Z 24
_cell_length_a 8.549288
_cell_length_b 7.789243
_cell_length_c 16.318349
_cell_angle_alpha 90.000000
_cell_angle_beta 90.000000
_cell_angle_gamma 90.000000
_cell_volume 1086.679357
_symmetry_space_group_name_H-M "P C C A"
_symmetry_group_IT_number 54
_symmetry_cell_setting 'orthorhombic'
loop_
_space_group_symop_operation_xyz
x,y,z
1/2-x,-y,z
1/2+x,-y,1/2-z
-x,y,1/2-z
-x,-y,-z
1/2+x,y,-z
1/2-x,y,1/2+z
x,-y,1/2+z
loop_
_atom_site_type_symbol
_atom_site_label
_atom_site_fract_x
_atom_site_fract_y
_atom_site_fract_z
Si Si1 0.000000 0.913027 0.250000
Si Si2 0.806814 0.313936 0.622034
Si Si3 0.250000 0.000000 0.631706
Si Si4 0.571159 0.191388 0.491278
O O1 0.882165 0.797419 0.195132
O O2 0.898279 0.025363 0.311069
O O3 0.750000 0.500000 0.649875
O O4 0.656066 0.237118 0.575302
O O5 0.943115 0.312819 0.551571
O O6 0.208217 0.162135 0.575796
O O7 0.500000 0.000000 0.500000
#
# Coordination Sequence:
#
# PCOD9422827 Si02
#       4
#     4   8   4   8
#     4  10  26  40  62 102 136 176 214 272 342 394
#     4  11  24  44  64  99 136 173 216 271 340 391
#     4  10  22  38  64  98 126 166 228 274 324 374
#     4  11  21  41  70  97 120 173 230 274 314 386
#
# _framework density 22.085629999999998
#
# number of rings (size 3 to 8) (size 9 to 14) (size 15 to 20)
#    0.000    1.333    3.333    1.000    9.333    0.000 
#    6.000    3.333    0.000    0.000    0.000    0.000 
#    0.000    0.000    0.000    0.000    0.000    0.000 
#
# Total GULP energy -134002.479218 kJ/mol
# GULP energy per Si atom -5583.436634 kJ/mol
# Density = 2.203536 g / cm^3
# Si number density = 22.085630 Si / 1000 Ang^3
#
#
#
# Elastic Constant Matrix: (Units=GPa)
#
#
# Indices 1 2 3 4 5 6 
#
# 1 89.9990 42.6296 39.8815 0.0000 0.0000 0.0000
# 2 42.6296 46.2410 14.5570 0.0000 0.0000 0.0000
# 3 39.8815 14.5570 98.3173 0.0000 0.0000 0.0000
# 4 0.0000 0.0000 0.0000 17.5413 0.0000 0.0000
# 5 0.0000 0.0000 0.0000 0.0000 72.1012 0.0000
# 6 0.0000 0.0000 0.0000 0.0000 0.0000 38.9012
#
#
#
# Elastic Compliance Matrix: (Units=1/GPa)
#
#
# Indices 1 2 3 4 5 6 
#
# 1 0.023133 -0.019270 -0.006530 0.000000 0.000000 0.000000
# 2 -0.019270 0.038736 0.002082 0.000000 0.000000 0.000000
# 3 -0.006530 0.002082 0.012512 0.000000 0.000000 0.000000
# 4 0.000000 0.000000 0.000000 0.057008 0.000000 0.000000
# 5 0.000000 0.000000 0.000000 0.000000 0.013869 0.000000
# 6 0.000000 0.000000 0.000000 0.000000 0.000000 0.025706
#
#
# Mechanical properties :
#
#
# Convention : Reuss Voigt Hill
#
# Bulk Modulus (GPa) = 37.11648 47.63262 42.37455
# Shear Modulus (GPa) = 21.98930 34.87469 28.43200
#
# Velocity S-wave (km/s) = 3.15880 3.97806 3.59186
# Velocity P-wave (km/s) = 5.49056 6.53559 6.03574
#
# Compressibility (1/GPa) = 0.02694221
#
# Stress axis : x y z
#
# Youngs Moduli (GPa) = 43.22877 25.81593 79.92360
#
# Poissons Ratio (x) = 0.49748 0.52193
# Poissons Ratio (y) = 0.83303 -0.16636
# Poissons Ratio (z) = 0.28230 -0.05374
#
# Static dielectric constant tensor:
#      x y z
#    x 1.924060 0.000000 0.000000 
#    y 0.000000 1.780290 0.000000 
#    z 0.000000 0.000000 1.869870 
# 
# From -- ./inp_files/16105.got.cif
#   From: 2010.05.17/outbox.cif.g08.bks.cpg/sg54_9_cif.got.tgz:16105.got - 2010.06.03 13:09:01.
