data_PCOD9422762
_publ_section_title
;
Structure prediction by ZEFSAII (Michael W. Deem and Ramdas Pophale) SiO2 
 PCOD9422762
Probable space group: P C C A
;
_chemical_formula_sum "Si O2"
_cell_formula_units_Z 40
_cell_length_a 7.457073
_cell_length_b 14.378710
_cell_length_c 14.935513
_cell_angle_alpha 90.000000
_cell_angle_beta 90.000000
_cell_angle_gamma 90.000000
_cell_volume 1601.431856
_symmetry_space_group_name_H-M "P C C A"
_symmetry_group_IT_number 54
_symmetry_cell_setting 'orthorhombic'
loop_
_space_group_symop_operation_xyz
x,y,z
1/2-x,-y,z
1/2+x,-y,1/2-z
-x,y,1/2-z
-x,-y,-z
1/2+x,y,-z
1/2-x,y,1/2+z
x,-y,1/2+z
loop_
_atom_site_type_symbol
_atom_site_label
_atom_site_fract_x
_atom_site_fract_y
_atom_site_fract_z
Si Si1 0.750000 0.500000 0.611363
Si Si2 0.242817 0.298116 0.945814
Si Si3 0.135542 0.740687 0.637667
Si Si4 0.110613 0.112143 0.907471
Si Si5 0.000000 0.407832 0.250000
Si Si6 0.472050 0.069918 0.616355
O O1 0.697238 0.593344 0.559090
O O2 0.915812 0.529365 0.673590
O O3 0.435906 0.281475 0.901317
O O4 0.109429 0.223540 0.899344
O O5 0.253311 0.271276 0.049863
O O6 0.153997 0.661981 0.712285
O O7 0.127401 0.847631 0.669154
O O8 0.314994 0.089072 0.881512
O O9 0.968627 0.040410 0.863192
O O10 0.089647 0.087984 0.013559
#
# Coordination Sequence:
#
# PCOD9422762 Si02
#       6
#     4   8   8   8   4   8
#     4  10  22  36  50  70  96 132 172 210 250 294
#     4   9  18  31  49  73  96 124 168 206 240 288
#     4   9  18  32  50  74  98 125 161 203 247 296
#     4   8  13  23  41  67  93 117 149 193 236 277
#     4  10  22  36  50  70 100 132 162 202 258 304
#     4   8  13  23  42  67  93 118 147 188 239 283
#
# _framework density 24.977647999999999
#
# number of rings (size 3 to 8) (size 9 to 14) (size 15 to 20)
#    0.000    3.200    0.000    0.000    0.000    5.600 
#    0.000    0.000    0.000    1.200    0.000  126.000 
#    0.000    0.000    0.000    0.000    0.000    0.000 
#
# Total GULP energy -223125.205689 kJ/mol
# GULP energy per Si atom -5578.130142 kJ/mol
# Density = 2.492080 g / cm^3
# Si number density = 24.977648 Si / 1000 Ang^3
#
#
#
# Elastic Constant Matrix: (Units=GPa)
#
#
# Indices 1 2 3 4 5 6 
#
# 1 47.0510 60.6263 10.7652 0.0000 0.0000 0.0000
# 2 60.6263 202.3907 2.4208 0.0000 0.0000 0.0000
# 3 10.7652 2.4208 48.8348 0.0000 0.0000 0.0000
# 4 0.0000 0.0000 0.0000 -91.3916 0.0000 0.0000
# 5 0.0000 0.0000 0.0000 0.0000 15.8091 0.0000
# 6 0.0000 0.0000 0.0000 0.0000 0.0000 13.6793
#
#
#
# Elastic Compliance Matrix: (Units=1/GPa)
#
#
# Indices 1 2 3 4 5 6 
#
# 1 0.037279 -0.011075 -0.007669 0.000000 0.000000 0.000000
# 2 -0.011075 0.008234 0.002033 0.000000 0.000000 0.000000
# 3 -0.007669 0.002033 0.022067 0.000000 0.000000 0.000000
# 4 0.000000 0.000000 0.000000 -0.010942 0.000000 0.000000
# 5 0.000000 0.000000 0.000000 0.000000 0.063255 0.000000
# 6 0.000000 0.000000 0.000000 0.000000 0.000000 0.073103
#
#
# Mechanical properties :
#
#
# Convention : Reuss Voigt Hill
#
# Bulk Modulus (GPa) = 29.27528 49.54456 39.40992
# Shear Modulus (GPa) = 21.02575 2.58362 11.80468
#
# Velocity S-wave (km/s) = 2.90450 1.01814 2.17632
# Velocity P-wave (km/s) = 4.79522 4.61094 4.70398
#
# Compressibility (1/GPa) = 0.03415851
#
# Stress axis : x y z
#
# Youngs Moduli (GPa) = 26.82491 121.44474 45.31672
#
# Poissons Ratio (x) = 1.34502 0.34752
# Poissons Ratio (y) = 0.29709 -0.09214
# Poissons Ratio (z) = 0.20571 -0.24693
#
# Static dielectric constant tensor:
#      x y z
#    x 1.996260 0.000000 0.000000 
#    y 0.000000 2.102040 0.000000 
#    z 0.000000 0.000000 2.051270 
# 
# From -- ./inp_files/11561.got.cif
#   From: 2010.05.17/outbox.cif.g08.bks.cpg/sg54_6_cif.got.tgz:11561.got - 2010.06.03 13:09:01.
