data_PCOD9422768
_publ_section_title
;
Structure prediction by ZEFSAII (Michael W. Deem and Ramdas Pophale) SiO2 
 PCOD9422768
Probable space group: P C C A
;
_chemical_formula_sum "Si O2"
_cell_formula_units_Z 28
_cell_length_a 5.184057
_cell_length_b 14.384377
_cell_length_c 17.999660
_cell_angle_alpha 90.000000
_cell_angle_beta 90.000000
_cell_angle_gamma 90.000000
_cell_volume 1342.224391
_symmetry_space_group_name_H-M "P C C A"
_symmetry_group_IT_number 54
_symmetry_cell_setting 'orthorhombic'
loop_
_space_group_symop_operation_xyz
x,y,z
1/2-x,-y,z
1/2+x,-y,1/2-z
-x,y,1/2-z
-x,-y,-z
1/2+x,y,-z
1/2-x,y,1/2+z
x,-y,1/2+z
loop_
_atom_site_type_symbol
_atom_site_label
_atom_site_fract_x
_atom_site_fract_y
_atom_site_fract_z
Si Si1 0.697539 0.715895 0.191783
Si Si2 0.250000 0.000000 0.874300
Si Si3 0.000000 0.436777 0.750000
Si Si4 0.033542 0.180254 0.453109
Si Si5 0.500000 0.114340 0.250000
O O1 0.500000 0.673084 0.250000
O O2 0.920958 0.638318 0.185875
O O3 0.593270 0.747901 0.112886
O O4 0.776855 0.810810 0.235161
O O5 0.395672 0.078035 0.921607
O O6 0.037324 0.048576 0.820887
O O7 0.250000 0.500000 0.734246
O O8 0.242129 0.191371 0.519117
#
# Coordination Sequence:
#
# PCOD9422768 Si02
#       5
#     8   4   4   8   4
#     4  10  23  42  68  93 132 167 217 263 332 387
#     4  10  22  36  60  86 132 170 236 274 314 354
#     4  11  22  40  73 110 122 150 205 276 324 391
#     4  11  26  41  61  90 132 179 217 266 319 375
#     4   9  22  34  57  94 120 176 221 280 306 371
#
# _framework density 20.860893999999998
#
# number of rings (size 3 to 8) (size 9 to 14) (size 15 to 20)
#    0.000    1.714    1.429    0.857   20.000    0.000 
#    0.000    0.000    0.000    5.143    0.000    0.000 
#    0.000    0.000    0.000    0.000    0.000    0.000 
#
# Total GULP energy -156048.248003 kJ/mol
# GULP energy per Si atom -5573.151714 kJ/mol
# Density = 2.081341 g / cm^3
# Si number density = 20.860894 Si / 1000 Ang^3
#
#
#
# Elastic Constant Matrix: (Units=GPa)
#
#
# Indices 1 2 3 4 5 6 
#
# 1 55.9361 24.5562 5.1933 0.0000 0.0000 0.0000
# 2 24.5562 121.2147 32.8774 0.0000 0.0000 0.0000
# 3 5.1933 32.8774 56.5156 0.0000 0.0000 0.0000
# 4 0.0000 0.0000 0.0000 -155.2267 0.0000 0.0000
# 5 0.0000 0.0000 0.0000 0.0000 38.6197 0.0000
# 6 0.0000 0.0000 0.0000 0.0000 0.0000 -3.2061
#
#
#
# Elastic Compliance Matrix: (Units=1/GPa)
#
#
# Indices 1 2 3 4 5 6 
#
# 1 0.019640 -0.004143 0.000605 0.000000 0.000000 0.000000
# 2 -0.004143 0.010669 -0.005826 0.000000 0.000000 0.000000
# 3 0.000605 -0.005826 0.021028 0.000000 0.000000 0.000000
# 4 0.000000 0.000000 0.000000 -0.006442 0.000000 0.000000
# 5 0.000000 0.000000 0.000000 0.000000 0.025894 0.000000
# 6 0.000000 0.000000 0.000000 0.000000 0.000000 -0.311910
#
#
# Mechanical properties :
#
#
# Convention : Reuss Voigt Hill
#
# Bulk Modulus (GPa) = 30.66546 39.88002 35.27274
# Shear Modulus (GPa) = -23.63804 -12.55997 -18.09901
#
# Velocity S-wave (km/s) = -3.36985 -2.45640 -2.94871
# Velocity P-wave (km/s) = 0.63974 3.33368 2.31346
#
# Compressibility (1/GPa) = 0.03260998
#
# Stress axis : x y z
#
# Youngs Moduli (GPa) = 50.91621 93.72635 47.55589
#
# Poissons Ratio (x) = 0.38831 -0.02879
# Poissons Ratio (y) = 0.21094 0.27707
# Poissons Ratio (z) = -0.03082 0.54606
#
# Static dielectric constant tensor:
#      x y z
#    x 1.892210 0.000000 0.000000 
#    y 0.000000 1.808630 0.000000 
#    z 0.000000 0.000000 1.742340 
# 
# From -- ./inp_files/15651.got.cif
#   From: 2010.05.17/outbox.cif.g08.bks.cpg/sg54_8_cif.got.tgz:15651.got - 2010.06.03 13:09:01.
