data_PCOD9422910
_publ_section_title
;
Structure prediction by ZEFSAII (Michael W. Deem and Ramdas Pophale) SiO2 
 PCOD9422910
Probable space group: P C C A
;
_chemical_formula_sum "Si O2"
_cell_formula_units_Z 60
_cell_length_a 5.426210
_cell_length_b 27.614156
_cell_length_c 16.692198
_cell_angle_alpha 90.000000
_cell_angle_beta 90.000000
_cell_angle_gamma 90.000000
_cell_volume 2501.162444
_symmetry_space_group_name_H-M "P C C A"
_symmetry_group_IT_number 54
_symmetry_cell_setting 'orthorhombic'
loop_
_space_group_symop_operation_xyz
x,y,z
1/2-x,-y,z
1/2+x,-y,1/2-z
-x,y,1/2-z
-x,-y,-z
1/2+x,y,-z
1/2-x,y,1/2+z
x,-y,1/2+z
loop_
_atom_site_type_symbol
_atom_site_label
_atom_site_fract_x
_atom_site_fract_y
_atom_site_fract_z
Si Si1 0.898075 0.766888 0.160583
Si Si2 0.396544 0.738113 0.084218
Si Si3 0.750000 0.500000 0.198898
Si Si4 0.002052 0.979845 0.407232
Si Si5 0.923492 0.406821 0.601856
Si Si6 0.411596 0.154146 0.540643
Si Si7 0.447049 0.874496 0.657110
Si Si8 0.071060 0.369836 0.075137
O O1 0.627090 0.745619 0.145218
O O2 0.000000 0.765998 0.250000
O O3 0.118374 0.739314 0.116204
O O4 0.910682 0.824043 0.137510
O O5 0.415648 0.787563 0.034431
O O6 0.419929 0.685467 0.046067
O O7 0.500000 0.514210 0.250000
O O8 0.641704 0.457663 0.141978
O O9 0.008319 0.923014 0.390872
O O10 0.750000 0.000000 0.371253
O O11 0.250000 0.000000 0.369865
O O12 0.000000 0.000000 0.500000
O O13 0.936786 0.403687 0.504296
O O14 0.683514 0.375235 0.622078
O O15 0.189105 0.385402 0.625198
O O16 0.668959 0.136223 0.506985
O O17 0.334914 0.139242 0.631101
O O18 0.500000 0.883531 0.750000
#
# Coordination Sequence:
#
# PCOD9422910 Si02
#       8
#     8   8   4   8   8   8   8   8
#     4  10  22  42  65  95 139 190 236 279 338 415
#     4  11  22  40  64 104 141 184 234 283 341 414
#     4  12  26  48  74  96 136 180 236 294 350 430
#     4  10  24  43  69  97 134 175 223 294 372 444
#     4  10  23  42  67 101 130 179 225 287 354 402
#     4  11  25  39  68 103 139 188 240 292 359 416
#     4  10  24  46  71 100 139 184 239 298 356 443
#     4  10  22  39  69 101 142 171 222 285 348 411
#
# _framework density 23.988847
#
# number of rings (size 3 to 8) (size 9 to 14) (size 15 to 20)
#    0.000    1.600    0.000    3.600    7.467    4.800 
#    0.000   12.667    0.000    0.000    0.000    0.000 
#    0.000    0.000    0.000    0.000    0.000    0.000 
#
# Total GULP energy -334732.137988 kJ/mol
# GULP energy per Si atom -5578.868966 kJ/mol
# Density = 2.393425 g / cm^3
# Si number density = 23.988847 Si / 1000 Ang^3
#
#
#
# Elastic Constant Matrix: (Units=GPa)
#
#
# Indices 1 2 3 4 5 6 
#
# 1 156.4818 6.9391 21.7177 0.0000 0.0000 0.0000
# 2 6.9391 108.5999 34.1315 0.0000 0.0000 0.0000
# 3 21.7177 34.1315 85.5467 0.0000 0.0000 0.0000
# 4 0.0000 0.0000 0.0000 -6.1514 0.0000 0.0000
# 5 0.0000 0.0000 0.0000 0.0000 44.9573 0.0000
# 6 0.0000 0.0000 0.0000 0.0000 0.0000 21.8273
#
#
#
# Elastic Compliance Matrix: (Units=1/GPa)
#
#
# Indices 1 2 3 4 5 6 
#
# 1 0.006625 0.000120 -0.001730 0.000000 0.000000 0.000000
# 2 0.000120 0.010530 -0.004232 0.000000 0.000000 0.000000
# 3 -0.001730 -0.004232 0.013817 0.000000 0.000000 0.000000
# 4 0.000000 0.000000 0.000000 -0.162565 0.000000 0.000000
# 5 0.000000 0.000000 0.000000 0.000000 0.022243 0.000000
# 6 0.000000 0.000000 0.000000 0.000000 0.000000 0.045814
#
#
# Mechanical properties :
#
#
# Convention : Reuss Voigt Hill
#
# Bulk Modulus (GPa) = 51.84108 52.91166 52.37637
# Shear Modulus (GPa) = -110.08136 31.31598 -39.38269
#
# Velocity S-wave (km/s) = -6.78146 3.61701 -4.05620
# Velocity P-wave (km/s) = 6.29763 6.28874 0.23649
#
# Compressibility (1/GPa) = 0.01928972
#
# Stress axis : x y z
#
# Youngs Moduli (GPa) = 150.93697 94.96241 72.37356
#
# Poissons Ratio (x) = -0.01143 0.12521
# Poissons Ratio (y) = -0.01817 0.30629
# Poissons Ratio (z) = 0.26112 0.40188
#
# Static dielectric constant tensor:
#      x y z
#    x 2.003800 0.000000 0.000000 
#    y 0.000000 1.892360 0.000000 
#    z 0.000000 0.000000 2.043960 
# 
# From -- ./inp_files/15974.got.cif
#   From: 2010.05.17/outbox.cif.g08.bks.cpg/sg54_8_cif.got.tgz:15974.got - 2010.06.03 13:09:01.
