data_PCOD9422146
_publ_section_title
;
Structure prediction by ZEFSAII (Michael W. Deem and Ramdas Pophale) SiO2 
 PCOD9422146
Probable space group: P C C A
;
_chemical_formula_sum "Si O2"
_cell_formula_units_Z 56
_cell_length_a 14.694331
_cell_length_b 35.384843
_cell_length_c 5.261190
_cell_angle_alpha 90.000000
_cell_angle_beta 90.000000
_cell_angle_gamma 90.000000
_cell_volume 2735.590440
_symmetry_space_group_name_H-M "P C C A"
_symmetry_group_IT_number 54
_symmetry_cell_setting 'orthorhombic'
loop_
_space_group_symop_operation_xyz
x,y,z
1/2-x,-y,z
1/2+x,-y,1/2-z
-x,y,1/2-z
-x,-y,-z
1/2+x,y,-z
1/2-x,y,1/2+z
x,-y,1/2+z
loop_
_atom_site_type_symbol
_atom_site_label
_atom_site_fract_x
_atom_site_fract_y
_atom_site_fract_z
Si Si1 0.191044 0.322497 0.990301
Si Si2 0.061537 0.251485 0.999295
Si Si3 0.937482 0.834095 0.001288
Si Si4 0.397064 0.983335 0.003235
Si Si5 0.311234 0.094367 0.546979
Si Si6 0.312221 0.597745 0.107950
Si Si7 0.892048 0.481314 0.285868
O O1 0.270688 0.322866 0.203235
O O2 0.133916 0.284688 0.020952
O O3 0.139637 0.361815 0.057723
O O4 0.099868 0.208785 0.979822
O O5 0.000000 0.252412 0.250000
O O6 0.000000 0.257650 0.750000
O O7 0.860115 0.865388 0.978938
O O8 0.000000 0.836420 0.750000
O O9 0.000000 0.840753 0.250000
O O10 0.353283 0.996483 0.742861
O O11 0.386988 0.938676 0.029924
O O12 0.500000 0.000000 0.000000
O O13 0.241392 0.090371 0.312970
O O14 0.260201 0.596722 0.377525
O O15 0.373469 0.560623 0.112725
O O16 0.855302 0.509564 0.503929
O O17 0.000000 0.486499 0.250000
#
# Coordination Sequence:
#
# PCOD9422146 Si02
#       7
#     8   8   8   8   8   8   8
#     4  10  21  37  58  85 119 156 188 241 300 352
#     4  10  21  39  61  92 118 154 202 240 281 349
#     4  10  23  41  66  88 123 164 197 235 291 360
#     4  10  23  40  63  88 116 163 203 232 292 361
#     4  12  26  41  64  97 125 152 200 257 296 338
#     4  10  21  36  54  80 110 144 191 230 283 349
#     4  10  21  36  53  76 107 143 186 237 289 339
#
# _framework density 20.470901000000001
#
# number of rings (size 3 to 8) (size 9 to 14) (size 15 to 20)
#    0.000    1.714    0.000    3.429    4.000    5.143 
#    0.000    2.143    0.000    0.000    0.000    0.000 
#    0.000    0.000    0.000    0.000    0.000    0.000 
#
# Total GULP energy -312593.404129 kJ/mol
# GULP energy per Si atom -5582.025074 kJ/mol
# Density = 2.042431 g / cm^3
# Si number density = 20.470901 Si / 1000 Ang^3
#
#
#
# Elastic Constant Matrix: (Units=GPa)
#
#
# Indices 1 2 3 4 5 6 
#
# 1 39.3796 27.2532 3.3553 0.0000 0.0000 0.0000
# 2 27.2532 125.3667 16.4576 0.0000 0.0000 0.0000
# 3 3.3553 16.4576 109.3549 0.0000 0.0000 0.0000
# 4 0.0000 0.0000 0.0000 29.4530 0.0000 0.0000
# 5 0.0000 0.0000 0.0000 0.0000 7.3369 0.0000
# 6 0.0000 0.0000 0.0000 0.0000 0.0000 43.3533
#
#
#
# Elastic Compliance Matrix: (Units=1/GPa)
#
#
# Indices 1 2 3 4 5 6 
#
# 1 0.029891 -0.006506 0.000062 0.000000 0.000000 0.000000
# 2 -0.006506 0.009553 -0.001238 0.000000 0.000000 0.000000
# 3 0.000062 -0.001238 0.009329 0.000000 0.000000 0.000000
# 4 0.000000 0.000000 0.000000 0.033952 0.000000 0.000000
# 5 0.000000 0.000000 0.000000 0.000000 0.136298 0.000000
# 6 0.000000 0.000000 0.000000 0.000000 0.000000 0.023066
#
#
# Mechanical properties :
#
#
# Convention : Reuss Voigt Hill
#
# Bulk Modulus (GPa) = 29.93190 40.91482 35.42336
# Shear Modulus (GPa) = 18.61566 31.16431 24.88999
#
# Velocity S-wave (km/s) = 3.01885 3.90599 3.49072
# Velocity P-wave (km/s) = 5.17733 6.35394 5.79557
#
# Compressibility (1/GPa) = 0.03340917
#
# Stress axis : x y z
#
# Youngs Moduli (GPa) = 33.45458 104.67373 107.19292
#
# Poissons Ratio (x) = 0.68102 -0.00665
# Poissons Ratio (y) = 0.21766 0.13272
# Poissons Ratio (z) = -0.00207 0.12960
#
# Static dielectric constant tensor:
#      x y z
#    x 1.699460 0.000000 0.000000 
#    y 0.000000 1.755760 0.000000 
#    z 0.000000 0.000000 1.743620 
# 
# From -- ./inp_files/763.got.cif
#   From: 2010.05.17/outbox.cif.g08.bks.cpg/sg54_1_cif.got.tgz:763.got - 2010.06.03 13:09:01.
