data_PCOD9422126
_publ_section_title
;
Structure prediction by ZEFSAII (Michael W. Deem and Ramdas Pophale) SiO2 
 PCOD9422126
Probable space group: P C C A
;
_chemical_formula_sum "Si O2"
_cell_formula_units_Z 60
_cell_length_a 19.629772
_cell_length_b 5.601462
_cell_length_c 27.861839
_cell_angle_alpha 90.000000
_cell_angle_beta 90.000000
_cell_angle_gamma 90.000000
_cell_volume 3063.560263
_symmetry_space_group_name_H-M "P C C A"
_symmetry_group_IT_number 54
_symmetry_cell_setting 'orthorhombic'
loop_
_space_group_symop_operation_xyz
x,y,z
1/2-x,-y,z
1/2+x,-y,1/2-z
-x,y,1/2-z
-x,-y,-z
1/2+x,y,-z
1/2-x,y,1/2+z
x,-y,1/2+z
loop_
_atom_site_type_symbol
_atom_site_label
_atom_site_fract_x
_atom_site_fract_y
_atom_site_fract_z
Si Si1 0.809055 0.306027 0.133566
Si Si2 0.250000 0.000000 0.452048
Si Si3 0.021131 0.152868 0.693735
Si Si4 0.106168 0.084468 0.978331
Si Si5 0.938884 0.610528 0.113963
Si Si6 0.002251 0.310398 0.042612
Si Si7 0.065392 0.656581 0.713496
Si Si8 0.788930 0.761342 0.739263
O O1 0.750000 0.500000 0.135872
O O2 0.881111 0.434769 0.132372
O O3 0.804128 0.171187 0.183685
O O4 0.791370 0.165807 0.085310
O O5 0.312623 0.093192 0.483553
O O6 0.067754 0.390854 0.691202
O O7 0.000000 0.137239 0.750000
O O8 0.961264 0.214789 0.656359
O O9 0.050281 0.892176 0.681874
O O10 0.090425 0.253460 0.932510
O O11 0.067411 0.155458 0.027492
O O12 0.066640 0.843745 0.962836
O O13 0.999977 0.450852 0.092345
O O14 0.000000 0.500000 0.000000
O O15 0.137079 0.714592 0.738165
O O16 0.000000 0.641233 0.750000
O O17 0.750000 0.500000 0.741988
O O18 0.750000 0.000000 0.758939
#
# Coordination Sequence:
#
# PCOD9422126 Si02
#       8
#     8   4   8   8   8   8   8   8
#     4  11  21  32  48  85 127 161 194 230 307 394
#     4  12  20  32  54  86 122 160 188 240 304 384
#     4  10  22  36  57  88 121 163 209 261 307 357
#     4  10  21  35  58  85 121 158 198 243 306 383
#     4  11  21  35  59  82 126 162 196 260 304 369
#     4   9  20  38  55  83 115 156 198 244 301 366
#     4  10  21  38  56  83 120 160 215 260 296 359
#     4  11  23  38  58  84 125 170 207 254 320 385
#
# _framework density 19.585055000000001
#
# number of rings (size 3 to 8) (size 9 to 14) (size 15 to 20)
#    0.000    1.600    3.333    2.400    1.867    5.333 
#    0.000    0.000    0.000    0.000    1.733    5.600 
#    0.000    0.000    0.000    0.000    0.000    0.000 
#
# Total GULP energy -334074.160556 kJ/mol
# GULP energy per Si atom -5567.902676 kJ/mol
# Density = 1.954048 g / cm^3
# Si number density = 19.585055 Si / 1000 Ang^3
#
#
#
# Elastic Constant Matrix: (Units=GPa)
#
#
# Indices 1 2 3 4 5 6 
#
# 1 115.8353 18.9313 29.5244 0.0000 0.0000 0.0000
# 2 18.9313 91.3235 3.7338 0.0000 0.0000 0.0000
# 3 29.5244 3.7338 42.4344 0.0000 0.0000 0.0000
# 4 0.0000 0.0000 0.0000 29.6085 0.0000 0.0000
# 5 0.0000 0.0000 0.0000 0.0000 15.6085 0.0000
# 6 0.0000 0.0000 0.0000 0.0000 0.0000 31.8464
#
#
#
# Elastic Compliance Matrix: (Units=1/GPa)
#
#
# Indices 1 2 3 4 5 6 
#
# 1 0.010827 -0.001943 -0.007362 0.000000 0.000000 0.000000
# 2 -0.001943 0.011338 0.000354 0.000000 0.000000 0.000000
# 3 -0.007362 0.000354 0.028657 0.000000 0.000000 0.000000
# 4 0.000000 0.000000 0.000000 0.033774 0.000000 0.000000
# 5 0.000000 0.000000 0.000000 0.000000 0.064068 0.000000
# 6 0.000000 0.000000 0.000000 0.000000 0.000000 0.031401
#
#
# Mechanical properties :
#
#
# Convention : Reuss Voigt Hill
#
# Bulk Modulus (GPa) = 30.37635 39.33026 34.85330
# Shear Modulus (GPa) = 23.93025 28.57291 26.25158
#
# Velocity S-wave (km/s) = 3.49931 3.82372 3.66510
# Velocity P-wave (km/s) = 5.64540 6.29442 5.97872
#
# Compressibility (1/GPa) = 0.03292035
#
# Stress axis : x y z
#
# Youngs Moduli (GPa) = 92.36141 88.19539 34.89560
#
# Poissons Ratio (x) = 0.17140 0.25690
# Poissons Ratio (y) = 0.17950 -0.01237
# Poissons Ratio (z) = 0.67997 -0.03126
#
# Static dielectric constant tensor:
#      x y z
#    x 1.633660 0.000000 0.000000 
#    y 0.000000 1.759020 0.000000 
#    z 0.000000 0.000000 1.732390 
# 
# From -- ./inp_files/26639.got.cif
#   From: 2010.05.17/outbox.cif.g08.bks.cpg/sg54_14_cif.got.tgz:26639.got - 2010.06.03 13:09:01.
