data_PCOD9422743
_publ_section_title
;
Structure prediction by ZEFSAII (Michael W. Deem and Ramdas Pophale) SiO2 
 PCOD9422743
Probable space group: P C C A
;
_chemical_formula_sum "Si O2"
_cell_formula_units_Z 52
_cell_length_a 11.314282
_cell_length_b 8.362297
_cell_length_c 23.120310
_cell_angle_alpha 90.000000
_cell_angle_beta 90.000000
_cell_angle_gamma 90.000000
_cell_volume 2187.490824
_symmetry_space_group_name_H-M "P C C A"
_symmetry_group_IT_number 54
_symmetry_cell_setting 'orthorhombic'
loop_
_space_group_symop_operation_xyz
x,y,z
1/2-x,-y,z
1/2+x,-y,1/2-z
-x,y,1/2-z
-x,-y,-z
1/2+x,y,-z
1/2-x,y,1/2+z
x,-y,1/2+z
loop_
_atom_site_type_symbol
_atom_site_label
_atom_site_fract_x
_atom_site_fract_y
_atom_site_fract_z
Si Si1 0.798836 0.765858 0.286885
Si Si2 0.788884 0.177127 0.654343
Si Si3 0.873161 0.959418 0.971851
Si Si4 0.500000 0.476746 0.250000
Si Si5 0.663392 0.643223 0.402203
Si Si6 0.570686 0.677928 0.143387
Si Si7 0.965235 0.960520 0.353881
O O1 0.755938 0.795988 0.221830
O O2 0.897430 0.627510 0.279524
O O3 0.712740 0.714975 0.339850
O O4 0.875254 0.922805 0.302940
O O5 0.704702 0.302284 0.622134
O O6 0.929165 0.169192 0.647120
O O7 0.750000 0.000000 0.637590
O O8 0.851291 0.779129 0.950542
O O9 0.750000 0.000000 0.003319
O O10 0.887422 0.055440 0.911543
O O11 0.000000 0.000000 0.000000
O O12 0.563744 0.586101 0.203321
O O13 0.750000 0.500000 0.417449
O O14 0.527949 0.588881 0.393894
O O15 0.520675 0.861649 0.148375
#
# Coordination Sequence:
#
# PCOD9422743 Si02
#       7
#     8   8   8   4   8   8   8
#     4  12  22  36  59  88 135 181 224 259 315 407
#     4  10  22  34  56  90 131 179 222 266 312 388
#     4  11  25  46  77 101 125 168 236 304 362 421
#     4  12  22  34  52  94 138 186 226 260 318 400
#     4  11  23  42  65  96 136 175 217 281 354 424
#     4  10  23  34  54  88 131 178 224 262 316 395
#     4  10  22  42  62  90 128 173 226 279 338 402
#
# _framework density 23.771526999999999
#
# number of rings (size 3 to 8) (size 9 to 14) (size 15 to 20)
#    0.000    1.231    4.615    0.923    8.615    3.077 
#    0.000    0.769    0.000    0.000    0.000    0.000 
#    0.000    0.000    0.000    0.000    0.000    0.000 
#
# Total GULP energy -290270.875232 kJ/mol
# GULP energy per Si atom -5582.132216 kJ/mol
# Density = 2.371742 g / cm^3
# Si number density = 23.771527 Si / 1000 Ang^3
#
#
#
# Elastic Constant Matrix: (Units=GPa)
#
#
# Indices 1 2 3 4 5 6 
#
# 1 170.2358 48.9730 30.8531 0.0000 0.0000 0.0000
# 2 48.9730 67.9716 24.9394 0.0000 0.0000 0.0000
# 3 30.8531 24.9394 47.7428 0.0000 0.0000 0.0000
# 4 0.0000 0.0000 0.0000 8.8894 0.0000 0.0000
# 5 0.0000 0.0000 0.0000 0.0000 9.3721 0.0000
# 6 0.0000 0.0000 0.0000 0.0000 0.0000 52.0245
#
#
#
# Elastic Compliance Matrix: (Units=1/GPa)
#
#
# Indices 1 2 3 4 5 6 
#
# 1 0.007654 -0.004577 -0.002555 0.000000 0.000000 0.000000
# 2 -0.004577 0.020937 -0.007979 0.000000 0.000000 0.000000
# 3 -0.002555 -0.007979 0.026765 0.000000 0.000000 0.000000
# 4 0.000000 0.000000 0.000000 0.112493 0.000000 0.000000
# 5 0.000000 0.000000 0.000000 0.000000 0.106700 0.000000
# 6 0.000000 0.000000 0.000000 0.000000 0.000000 0.019222
#
#
# Mechanical properties :
#
#
# Convention : Reuss Voigt Hill
#
# Bulk Modulus (GPa) = 39.78809 55.05348 47.42079
# Shear Modulus (GPa) = 15.04337 26.13618 20.58978
#
# Velocity S-wave (km/s) = 2.51834 3.31943 2.94624
# Velocity P-wave (km/s) = 5.02296 6.15639 5.61833
#
# Compressibility (1/GPa) = 0.02513315
#
# Stress axis : x y z
#
# Youngs Moduli (GPa) = 130.64951 47.76128 37.36218
#
# Poissons Ratio (x) = 0.21861 0.09547
# Poissons Ratio (y) = 0.59800 0.29812
# Poissons Ratio (z) = 0.33386 0.38110
#
# Static dielectric constant tensor:
#      x y z
#    x 2.010450 0.000000 0.000000 
#    y 0.000000 1.945880 0.000000 
#    z 0.000000 0.000000 1.929450 
# 
# From -- ./inp_files/26230.got.cif
#   From: 2010.05.17/outbox.cif.g08.bks.cpg/sg54_14_cif.got.tgz:26230.got - 2010.06.03 13:09:01.
