data_PCOD9422839
_publ_section_title
;
Structure prediction by ZEFSAII (Michael W. Deem and Ramdas Pophale) SiO2 
 PCOD9422839
Probable space group: P C C A
;
_chemical_formula_sum "Si O2"
_cell_formula_units_Z 40
_cell_length_a 24.269615
_cell_length_b 5.381433
_cell_length_c 12.693968
_cell_angle_alpha 90.000000
_cell_angle_beta 90.000000
_cell_angle_gamma 90.000000
_cell_volume 1657.899588
_symmetry_space_group_name_H-M "P C C A"
_symmetry_group_IT_number 54
_symmetry_cell_setting 'orthorhombic'
loop_
_space_group_symop_operation_xyz
x,y,z
1/2-x,-y,z
1/2+x,-y,1/2-z
-x,y,1/2-z
-x,-y,-z
1/2+x,y,-z
1/2-x,y,1/2+z
x,-y,1/2+z
loop_
_atom_site_type_symbol
_atom_site_label
_atom_site_fract_x
_atom_site_fract_y
_atom_site_fract_z
Si Si1 0.976808 0.703326 0.415105
Si Si2 0.217660 0.737961 0.738330
Si Si3 0.871141 0.512635 0.894891
Si Si4 0.194100 0.152897 0.461054
Si Si5 0.914840 0.888114 0.059907
O O1 0.928265 0.584710 0.345120
O O2 0.000000 0.500000 0.500000
O O3 0.033093 0.816473 0.367928
O O4 0.943709 0.917841 0.478815
O O5 0.250000 0.500000 0.695454
O O6 0.160844 0.714243 0.674439
O O7 0.208958 0.680691 0.861467
O O8 0.250000 0.000000 0.731576
O O9 0.831588 0.295360 0.939554
O O10 0.892849 0.648119 0.998970
O O11 0.250000 0.000000 0.487712
O O12 0.143406 0.001478 0.407251
#
# Coordination Sequence:
#
# PCOD9422839 Si02
#       5
#     8   8   8   8   8
#     4   8  16  35  60  95 122 163 218 277 326 394
#     4  11  28  44  62 100 141 175 223 284 336 408
#     4  10  22  38  69  93 128 175 226 274 340 401
#     4  10  24  41  63  97 136 180 223 276 344 409
#     4   9  18  34  65  91 125 167 220 271 333 398
#
# _framework density 24.126911
#
# number of rings (size 3 to 8) (size 9 to 14) (size 15 to 20)
#    0.000    2.400    0.000    0.000   14.000    0.000 
#    0.000    0.000    0.000   55.200    0.000    0.000 
#    0.000    0.000    0.000    0.000    0.000    0.000 
#
# Total GULP energy -222701.562359 kJ/mol
# GULP energy per Si atom -5567.539059 kJ/mol
# Density = 2.407200 g / cm^3
# Si number density = 24.126911 Si / 1000 Ang^3
#
#
#
# Elastic Constant Matrix: (Units=GPa)
#
#
# Indices 1 2 3 4 5 6 
#
# 1 208.4273 61.5601 30.3534 0.0000 0.0000 0.0000
# 2 61.5601 74.0738 -1.0559 0.0000 0.0000 0.0000
# 3 30.3534 -1.0559 36.8315 0.0000 0.0000 0.0000
# 4 0.0000 0.0000 0.0000 15.2528 0.0000 0.0000
# 5 0.0000 0.0000 0.0000 0.0000 -3.9122 0.0000
# 6 0.0000 0.0000 0.0000 0.0000 0.0000 54.3430
#
#
#
# Elastic Compliance Matrix: (Units=1/GPa)
#
#
# Indices 1 2 3 4 5 6 
#
# 1 0.007647 -0.006447 -0.006487 0.000000 0.000000 0.000000
# 2 -0.006447 0.018942 0.005856 0.000000 0.000000 0.000000
# 3 -0.006487 0.005856 0.032664 0.000000 0.000000 0.000000
# 4 0.000000 0.000000 0.000000 0.065562 0.000000 0.000000
# 5 0.000000 0.000000 0.000000 0.000000 -0.255613 0.000000
# 6 0.000000 0.000000 0.000000 0.000000 0.000000 0.018402
#
#
# Mechanical properties :
#
#
# Convention : Reuss Voigt Hill
#
# Bulk Modulus (GPa) = 22.17415 55.67198 38.92307
# Shear Modulus (GPa) = -60.08983 28.36840 -15.86071
#
# Velocity S-wave (km/s) = -4.99598 3.43271 -2.56674
# Velocity P-wave (km/s) = 4.90603 6.23186 2.71725
#
# Compressibility (1/GPa) = 0.04509755
#
# Stress axis : x y z
#
# Youngs Moduli (GPa) = 130.77427 52.79347 30.61446
#
# Poissons Ratio (x) = 0.34038 0.19859
# Poissons Ratio (y) = 0.84316 -0.17929
# Poissons Ratio (z) = 0.84829 -0.30918
#
# Static dielectric constant tensor:
#      x y z
#    x 2.124870 0.000000 0.000000 
#    y 0.000000 2.050500 0.000000 
#    z 0.000000 0.000000 1.896450 
# 
# From -- ./inp_files/14813.got.cif
#   From: 2010.05.17/outbox.cif.g08.bks.cpg/sg54_8_cif.got.tgz:14813.got - 2010.06.03 13:09:01.
