data_PCOD9422208
_publ_section_title
;
Structure prediction by ZEFSAII (Michael W. Deem and Ramdas Pophale) SiO2 
 PCOD9422208
Probable space group: P C C A
;
_chemical_formula_sum "Si O2"
_cell_formula_units_Z 40
_cell_length_a 14.173357
_cell_length_b 8.204832
_cell_length_c 16.433312
_cell_angle_alpha 90.000000
_cell_angle_beta 90.000000
_cell_angle_gamma 90.000000
_cell_volume 1911.030067
_symmetry_space_group_name_H-M "P C C A"
_symmetry_group_IT_number 54
_symmetry_cell_setting 'orthorhombic'
loop_
_space_group_symop_operation_xyz
x,y,z
1/2-x,-y,z
1/2+x,-y,1/2-z
-x,y,1/2-z
-x,-y,-z
1/2+x,y,-z
1/2-x,y,1/2+z
x,-y,1/2+z
loop_
_atom_site_type_symbol
_atom_site_label
_atom_site_fract_x
_atom_site_fract_y
_atom_site_fract_z
Si Si1 0.433526 0.665042 0.176364
Si Si2 0.072379 0.141565 0.823170
Si Si3 0.404458 0.671503 0.588401
Si Si4 0.736199 0.305413 0.275554
Si Si5 0.556967 0.121659 0.559138
O O1 0.500000 0.602360 0.250000
O O2 0.405944 0.517967 0.114846
O O3 0.343482 0.750684 0.217963
O O4 0.486457 0.791130 0.120375
O O5 0.161749 0.237633 0.788365
O O6 0.000000 0.088637 0.750000
O O7 0.002543 0.256949 0.875942
O O8 0.111975 0.998528 0.880560
O O9 0.315107 0.734859 0.639261
O O10 0.396836 0.738405 0.496863
O O11 0.750000 0.500000 0.263804
O O12 0.500000 0.000000 0.500000
#
# Coordination Sequence:
#
# PCOD9422208 Si02
#       5
#     8   8   8   8   8
#     4  11  21  37  60  87 116 156 208 254 299 363
#     4   9  17  35  59  87 119 152 196 247 301 361
#     4   9  18  36  62  86 116 154 199 252 299 353
#     4   9  18  35  62  89 112 152 204 250 296 354
#     4  10  21  37  55  81 119 158 191 241 309 361
#
# _framework density 20.93112
#
# number of rings (size 3 to 8) (size 9 to 14) (size 15 to 20)
#    0.000    2.400    0.000    4.200    0.000    0.000 
#    0.000   22.000    0.000   10.800    0.000    0.000 
#    0.000    0.000    0.000    0.000    0.000    0.000 
#
# Total GULP energy -222828.881335 kJ/mol
# GULP energy per Si atom -5570.722033 kJ/mol
# Density = 2.088348 g / cm^3
# Si number density = 20.931120 Si / 1000 Ang^3
#
#
#
# Elastic Constant Matrix: (Units=GPa)
#
#
# Indices 1 2 3 4 5 6 
#
# 1 105.5392 28.8733 43.1150 0.0000 0.0000 0.0000
# 2 28.8733 62.1462 54.2307 0.0000 0.0000 0.0000
# 3 43.1150 54.2307 97.1598 0.0000 0.0000 0.0000
# 4 0.0000 0.0000 0.0000 46.9211 0.0000 0.0000
# 5 0.0000 0.0000 0.0000 0.0000 10.1841 0.0000
# 6 0.0000 0.0000 0.0000 0.0000 0.0000 17.5559
#
#
#
# Elastic Compliance Matrix: (Units=1/GPa)
#
#
# Indices 1 2 3 4 5 6 
#
# 1 0.011671 -0.001760 -0.004196 0.000000 0.000000 0.000000
# 2 -0.001760 0.031636 -0.016877 0.000000 0.000000 0.000000
# 3 -0.004196 -0.016877 0.021575 0.000000 0.000000 0.000000
# 4 0.000000 0.000000 0.000000 0.021312 0.000000 0.000000
# 5 0.000000 0.000000 0.000000 0.000000 0.098192 0.000000
# 6 0.000000 0.000000 0.000000 0.000000 0.000000 0.056961
#
#
# Mechanical properties :
#
#
# Convention : Reuss Voigt Hill
#
# Bulk Modulus (GPa) = 52.04462 57.47590 54.76026
# Shear Modulus (GPa) = 17.04042 24.17396 20.60719
#
# Velocity S-wave (km/s) = 2.85637 3.40211 3.14112
# Velocity P-wave (km/s) = 5.98307 6.55375 6.27490
#
# Compressibility (1/GPa) = 0.01921428
#
# Stress axis : x y z
#
# Youngs Moduli (GPa) = 85.68148 31.60923 46.35096
#
# Poissons Ratio (x) = 0.05565 0.19451
# Poissons Ratio (y) = 0.15084 0.78226
# Poissons Ratio (z) = 0.35956 0.53347
#
# Static dielectric constant tensor:
#      x y z
#    x -11.124050 0.000000 0.000000 
#    y 0.000000 1.824830 0.000000 
#    z 0.000000 0.000000 1.887380 
# 
# From -- ./inp_files/13180.got.cif
#   From: 2010.05.17/outbox.cif.g08.bks.cpg/sg54_7_cif.got.tgz:13180.got - 2010.06.03 13:09:01.
