data_PCOD9422577
_publ_section_title
;
Structure prediction by ZEFSAII (Michael W. Deem and Ramdas Pophale) SiO2 
 PCOD9422577
Probable space group: P C C A
;
_chemical_formula_sum "Si O2"
_cell_formula_units_Z 40
_cell_length_a 5.037188
_cell_length_b 27.955595
_cell_length_c 13.343126
_cell_angle_alpha 90.000000
_cell_angle_beta 90.000000
_cell_angle_gamma 90.000000
_cell_volume 1878.946815
_symmetry_space_group_name_H-M "P C C A"
_symmetry_group_IT_number 54
_symmetry_cell_setting 'orthorhombic'
loop_
_space_group_symop_operation_xyz
x,y,z
1/2-x,-y,z
1/2+x,-y,1/2-z
-x,y,1/2-z
-x,-y,-z
1/2+x,y,-z
1/2-x,y,1/2+z
x,-y,1/2+z
loop_
_atom_site_type_symbol
_atom_site_label
_atom_site_fract_x
_atom_site_fract_y
_atom_site_fract_z
Si Si1 0.790941 0.405811 0.935220
Si Si2 0.000000 0.770479 0.250000
Si Si3 0.377274 0.301231 0.073051
Si Si4 0.180267 0.901576 0.567643
Si Si5 0.500000 0.834547 0.250000
Si Si6 0.250000 0.000000 0.179692
Si Si7 0.250000 0.500000 0.685586
O O1 0.859765 0.355411 0.883513
O O2 0.845496 0.454490 0.877476
O O3 0.484194 0.405824 0.968212
O O4 0.898012 0.737227 0.340004
O O5 0.750189 0.802514 0.216907
O O6 0.625831 0.296200 0.999167
O O7 0.471622 0.894466 0.522142
O O8 0.104897 0.866752 0.658494
O O9 0.167025 0.955218 0.611668
O O10 0.500000 0.013420 0.250000
O O11 0.500000 0.483410 0.750000
#
# Coordination Sequence:
#
# PCOD9422577 Si02
#       7
#     8   4   8   8   4   4   4
#     4  10  21  41  63  87 126 169 208 260 326 394
#     4  12  26  44  71  98 133 178 226 288 344 388
#     4  10  23  43  68  97 127 170 224 276 335 403
#     4  12  26  46  72 104 141 187 227 276 338 405
#     4  12  28  46  67 104 139 180 228 284 342 392
#     4  12  24  44  76 104 146 182 228 284 330 402
#     4  12  24  36  58  98 128 162 210 260 320 398
#
# _framework density 21.288522
#
# number of rings (size 3 to 8) (size 9 to 14) (size 15 to 20)
#    0.000    0.800    1.000    6.000    2.800    4.800 
#    1.800    0.000    0.000    0.000    0.000    0.000 
#    0.000    0.000    0.000    0.000    0.000    0.000 
#
# Total GULP energy -223823.635718 kJ/mol
# GULP energy per Si atom -5595.590893 kJ/mol
# Density = 2.124007 g / cm^3
# Si number density = 21.288522 Si / 1000 Ang^3
#
#
#
# Elastic Constant Matrix: (Units=GPa)
#
#
# Indices 1 2 3 4 5 6 
#
# 1 115.3168 24.9388 12.2758 0.0000 0.0000 0.0000
# 2 24.9388 144.4098 51.7301 0.0000 0.0000 0.0000
# 3 12.2758 51.7301 64.0709 0.0000 0.0000 0.0000
# 4 0.0000 0.0000 0.0000 -17.1125 0.0000 0.0000
# 5 0.0000 0.0000 0.0000 0.0000 48.5398 0.0000
# 6 0.0000 0.0000 0.0000 0.0000 0.0000 30.1442
#
#
#
# Elastic Compliance Matrix: (Units=1/GPa)
#
#
# Indices 1 2 3 4 5 6 
#
# 1 0.009028 -0.001322 -0.000663 0.000000 0.000000 0.000000
# 2 -0.001322 0.009936 -0.007769 0.000000 0.000000 0.000000
# 3 -0.000663 -0.007769 0.022007 0.000000 0.000000 0.000000
# 4 0.000000 0.000000 0.000000 -0.058437 0.000000 0.000000
# 5 0.000000 0.000000 0.000000 0.000000 0.020602 0.000000
# 6 0.000000 0.000000 0.000000 0.000000 0.000000 0.033174
#
#
# Mechanical properties :
#
#
# Convention : Reuss Voigt Hill
#
# Bulk Modulus (GPa) = 46.58803 55.74299 51.16551
# Shear Modulus (GPa) = 79.40099 27.97115 53.68607
#
# Velocity S-wave (km/s) = 6.11380 3.62872 5.02723
# Velocity P-wave (km/s) = 8.47170 6.61802 7.60157
#
# Compressibility (1/GPa) = 0.02146474
#
# Stress axis : x y z
#
# Youngs Moduli (GPa) = 110.76472 100.64440 45.43959
#
# Poissons Ratio (x) = 0.13303 0.03011
# Poissons Ratio (y) = 0.14640 0.35302
# Poissons Ratio (z) = 0.07339 0.78190
#
# Static dielectric constant tensor:
#      x y z
#    x 1.732180 0.000000 0.000000 
#    y 0.000000 1.793500 0.000000 
#    z 0.000000 0.000000 1.732700 
# 
# From -- ./inp_files/6510.got.cif
#   From: 2010.05.17/outbox.cif.g08.bks.cpg/sg54_4_cif.got.tgz:6510.got - 2010.06.03 13:09:01.
