data_PCOD9422837
_publ_section_title
;
Structure prediction by ZEFSAII (Michael W. Deem and Ramdas Pophale) SiO2 
 PCOD9422837
Probable space group: P C C A
;
_chemical_formula_sum "Si O2"
_cell_formula_units_Z 60
_cell_length_a 9.200923
_cell_length_b 11.115829
_cell_length_c 28.479235
_cell_angle_alpha 90.000000
_cell_angle_beta 90.000000
_cell_angle_gamma 90.000000
_cell_volume 2912.739012
_symmetry_space_group_name_H-M "P C C A"
_symmetry_group_IT_number 54
_symmetry_cell_setting 'orthorhombic'
loop_
_space_group_symop_operation_xyz
x,y,z
1/2-x,-y,z
1/2+x,-y,1/2-z
-x,y,1/2-z
-x,-y,-z
1/2+x,y,-z
1/2-x,y,1/2+z
x,-y,1/2+z
loop_
_atom_site_type_symbol
_atom_site_label
_atom_site_fract_x
_atom_site_fract_y
_atom_site_fract_z
Si Si1 0.953981 0.791330 0.298501
Si Si2 0.968767 0.167671 0.366798
Si Si3 0.369609 0.606774 0.530001
Si Si4 0.284524 0.139234 0.366649
Si Si5 0.750000 0.000000 0.808449
Si Si6 0.104833 0.077801 0.032282
Si Si7 0.764576 0.642820 0.371423
Si Si8 0.327216 0.291416 0.461163
O O1 0.847809 0.900968 0.283051
O O2 0.867084 0.701395 0.332299
O O3 0.000000 0.730866 0.250000
O O4 0.085800 0.844864 0.329624
O O5 0.971486 0.116103 0.419622
O O6 0.891352 0.295788 0.367594
O O7 0.128995 0.179116 0.346365
O O8 0.863138 0.076883 0.339372
O O9 0.250000 0.500000 0.534538
O O10 0.327289 0.680243 0.577320
O O11 0.327432 0.660018 0.479352
O O12 0.544816 0.607190 0.535265
O O13 0.319735 0.222269 0.411890
O O14 0.250000 0.000000 0.379568
O O15 0.250000 0.000000 0.042156
O O16 0.137518 0.194137 0.001145
O O17 0.000000 0.000000 0.000000
O O18 0.750000 0.500000 0.366942
#
# Coordination Sequence:
#
# PCOD9422837 Si02
#       8
#     8   8   8   8   4   8   8   8
#     4  11  25  46  72 100 133 173 220 282 343 407
#     4  11  21  39  62  96 134 176 216 270 331 404
#     4  11  23  41  63  87 129 173 226 274 321 384
#     4  12  24  41  62  99 140 167 215 275 339 404
#     4  10  22  38  68  94 130 174 210 258 346 410
#     4  12  23  33  54  88 132 175 217 259 320 392
#     4  10  23  47  70  93 131 182 232 277 330 395
#     4  12  23  38  57  93 127 175 218 264 322 394
#
# _framework density 20.599167000000001
#
# number of rings (size 3 to 8) (size 9 to 14) (size 15 to 20)
#    0.000    0.800    4.667    4.000    0.933    0.000 
#    0.000    4.000    0.000    0.000    0.000    0.000 
#    0.000    0.000    0.000    0.000    0.000    0.000 
#
# Total GULP energy -334878.777426 kJ/mol
# GULP energy per Si atom -5581.312957 kJ/mol
# Density = 2.055228 g / cm^3
# Si number density = 20.599167 Si / 1000 Ang^3
#
#
#
# Elastic Constant Matrix: (Units=GPa)
#
#
# Indices 1 2 3 4 5 6 
#
# 1 133.6965 37.5696 25.0089 0.0000 0.0000 0.0000
# 2 37.5696 84.8021 16.0721 0.0000 0.0000 0.0000
# 3 25.0089 16.0721 90.5253 0.0000 0.0000 0.0000
# 4 0.0000 0.0000 0.0000 2.2383 0.0000 0.0000
# 5 0.0000 0.0000 0.0000 0.0000 17.9575 0.0000
# 6 0.0000 0.0000 0.0000 0.0000 0.0000 29.3405
#
#
#
# Elastic Compliance Matrix: (Units=1/GPa)
#
#
# Indices 1 2 3 4 5 6 
#
# 1 0.008819 -0.003565 -0.001803 0.000000 0.000000 0.000000
# 2 -0.003565 0.013644 -0.001437 0.000000 0.000000 0.000000
# 3 -0.001803 -0.001437 0.011800 0.000000 0.000000 0.000000
# 4 0.000000 0.000000 0.000000 0.446760 0.000000 0.000000
# 5 0.000000 0.000000 0.000000 0.000000 0.055687 0.000000
# 6 0.000000 0.000000 0.000000 0.000000 0.000000 0.034083
#
#
# Mechanical properties :
#
#
# Convention : Reuss Voigt Hill
#
# Bulk Modulus (GPa) = 48.42401 51.81390 50.11895
# Shear Modulus (GPa) = 8.45612 25.26550 16.86081
#
# Velocity S-wave (km/s) = 2.02830 3.50598 2.86408
# Velocity P-wave (km/s) = 5.38926 6.44959 5.94312
#
# Compressibility (1/GPa) = 0.02065091
#
# Stress axis : x y z
#
# Youngs Moduli (GPa) = 113.39413 73.29192 84.74543
#
# Poissons Ratio (x) = 0.26130 0.15283
# Poissons Ratio (y) = 0.40427 0.12182
# Poissons Ratio (z) = 0.20449 0.10535
#
# Static dielectric constant tensor:
#      x y z
#    x 15.278920 0.000000 0.000000 
#    y 0.000000 1.931160 0.000000 
#    z 0.000000 0.000000 1.704830 
# 
# From -- ./inp_files/25947.got.cif
#   From: 2010.05.17/outbox.cif.g08.bks.cpg/sg54_13_cif.got.tgz:25947.got - 2010.06.03 13:09:01.
