data_PCOD9422642
_publ_section_title
;
Structure prediction by ZEFSAII (Michael W. Deem and Ramdas Pophale) SiO2 
 PCOD9422642
Probable space group: P C C A
;
_chemical_formula_sum "Si O2"
_cell_formula_units_Z 48
_cell_length_a 18.653449
_cell_length_b 8.039427
_cell_length_c 15.633050
_cell_angle_alpha 90.000000
_cell_angle_beta 90.000000
_cell_angle_gamma 90.000000
_cell_volume 2344.379726
_symmetry_space_group_name_H-M "P C C A"
_symmetry_group_IT_number 54
_symmetry_cell_setting 'orthorhombic'
loop_
_space_group_symop_operation_xyz
x,y,z
1/2-x,-y,z
1/2+x,-y,1/2-z
-x,y,1/2-z
-x,-y,-z
1/2+x,y,-z
1/2-x,y,1/2+z
x,-y,1/2+z
loop_
_atom_site_type_symbol
_atom_site_label
_atom_site_fract_x
_atom_site_fract_y
_atom_site_fract_z
Si Si1 0.530941 0.118189 0.618407
Si Si2 0.469821 0.482380 0.659840
Si Si3 0.689347 0.138819 0.663161
Si Si4 0.692430 0.362592 0.830489
Si Si5 0.278905 0.812193 0.526826
Si Si6 0.939074 0.179203 0.920359
O O1 0.508709 0.305388 0.644111
O O2 0.608131 0.071762 0.656660
O O3 0.544209 0.132746 0.517594
O O4 0.472055 0.974292 0.633957
O O5 0.500000 0.543085 0.750000
O O6 0.386329 0.437058 0.661798
O O7 0.475438 0.642754 0.598758
O O8 0.692806 0.236818 0.751521
O O9 0.704035 0.235676 0.572318
O O10 0.750000 0.000000 0.666531
O O11 0.750000 0.500000 0.806931
O O12 0.719304 0.289581 0.921272
O O13 0.352758 0.806255 0.581288
O O14 0.250000 0.000000 0.523625
#
# Coordination Sequence:
#
# PCOD9422642 Si02
#       6
#     8   8   8   8   8   8
#     4  10  22  43  67  96 129 174 221 279 331 403
#     4  12  24  42  65  98 134 174 219 277 339 407
#     4  10  23  43  66  96 130 174 226 276 339 402
#     4  12  24  42  63  96 136 173 220 275 336 400
#     4  10  21  42  67  94 128 173 224 276 335 404
#     4  10  22  42  68  94 129 173 225 270 340 402
#
# _framework density 20.474498000000001
#
# number of rings (size 3 to 8) (size 9 to 14) (size 15 to 20)
#    0.000    1.333    3.333    2.000    0.000    4.000 
#    3.000    0.000    0.000    0.000    0.000    0.000 
#    0.000    0.000    0.000    0.000    0.000    0.000 
#
# Total GULP energy -267789.297873 kJ/mol
# GULP energy per Si atom -5578.943706 kJ/mol
# Density = 2.042790 g / cm^3
# Si number density = 20.474498 Si / 1000 Ang^3
#
#
#
# Elastic Constant Matrix: (Units=GPa)
#
#
# Indices 1 2 3 4 5 6 
#
# 1 83.4266 8.7055 -1.1239 0.0000 0.0000 0.0000
# 2 8.7055 64.4950 -10.5516 0.0000 0.0000 0.0000
# 3 -1.1239 -10.5516 37.8815 0.0000 0.0000 0.0000
# 4 0.0000 0.0000 0.0000 998.4740 0.0000 0.0000
# 5 0.0000 0.0000 0.0000 0.0000 20.7940 0.0000
# 6 0.0000 0.0000 0.0000 0.0000 0.0000 25.6601
#
#
#
# Elastic Compliance Matrix: (Units=1/GPa)
#
#
# Indices 1 2 3 4 5 6 
#
# 1 0.012158 -0.001658 -0.000101 0.000000 0.000000 0.000000
# 2 -0.001658 0.016471 0.004539 0.000000 0.000000 0.000000
# 3 -0.000101 0.004539 0.027659 0.000000 0.000000 0.000000
# 4 0.000000 0.000000 0.000000 0.001002 0.000000 0.000000
# 5 0.000000 0.000000 0.000000 0.000000 0.048091 0.000000
# 6 0.000000 0.000000 0.000000 0.000000 0.000000 0.038971
#
#
# Mechanical properties :
#
#
# Convention : Reuss Voigt Hill
#
# Bulk Modulus (GPa) = 16.16834 19.98478 18.07656
# Shear Modulus (GPa) = 31.36598 221.57049 126.46824
#
# Velocity S-wave (km/s) = 3.91826 10.41406 7.86783
# Velocity P-wave (km/s) = 5.32770 12.42520 9.55955
#
# Compressibility (1/GPa) = 0.06184928
#
# Stress axis : x y z
#
# Youngs Moduli (GPa) = 82.24903 60.71131 36.15416
#
# Poissons Ratio (x) = 0.10064 0.00365
# Poissons Ratio (y) = 0.13634 -0.16410
# Poissons Ratio (z) = 0.00831 -0.27556
#
# Static dielectric constant tensor:
#      x y z
#    x 1.711480 0.000000 0.000000 
#    y 0.000000 1.802100 0.000000 
#    z 0.000000 0.000000 0.632710 
# 
# From -- ./inp_files/14151.got.cif
#   From: 2010.05.17/outbox.cif.g08.bks.cpg/sg54_8_cif.got.tgz:14151.got - 2010.06.03 13:09:01.
