data_PCOD9422580
_publ_section_title
;
Structure prediction by ZEFSAII (Michael W. Deem and Ramdas Pophale) SiO2 
 PCOD9422580
Probable space group: P C C A
;
_chemical_formula_sum "Si O2"
_cell_formula_units_Z 32
_cell_length_a 5.206934
_cell_length_b 20.270943
_cell_length_c 14.889082
_cell_angle_alpha 90.000000
_cell_angle_beta 90.000000
_cell_angle_gamma 90.000000
_cell_volume 1571.534600
_symmetry_space_group_name_H-M "P C C A"
_symmetry_group_IT_number 54
_symmetry_cell_setting 'orthorhombic'
loop_
_space_group_symop_operation_xyz
x,y,z
1/2-x,-y,z
1/2+x,-y,1/2-z
-x,y,1/2-z
-x,-y,-z
1/2+x,y,-z
1/2-x,y,1/2+z
x,-y,1/2+z
loop_
_atom_site_type_symbol
_atom_site_label
_atom_site_fract_x
_atom_site_fract_y
_atom_site_fract_z
Si Si1 0.088123 0.888598 0.557508
Si Si2 0.418059 0.730013 0.053083
Si Si3 0.755119 0.376057 0.308758
Si Si4 0.750000 0.500000 0.939099
Si Si5 0.000000 0.044229 0.250000
O O1 0.351128 0.908453 0.507226
O O2 0.090577 0.808817 0.564213
O O3 0.055126 0.915745 0.658127
O O4 0.328582 0.691241 0.140443
O O5 0.705932 0.712011 0.022680
O O6 0.500000 0.368851 0.250000
O O7 0.726657 0.434662 0.379512
O O8 0.000000 0.394858 0.250000
O O9 0.500000 0.500000 0.000000
O O10 0.250000 0.000000 0.267022
#
# Coordination Sequence:
#
# PCOD9422580 Si02
#       5
#     8   8   8   4   4
#     4  10  23  43  66  94 131 171 214 270 318 383
#     4  10  21  41  63  89 123 164 210 251 314 380
#     4  12  24  39  61  95 125 160 206 266 316 372
#     4  12  24  42  64  84 124 172 210 256 312 380
#     4  12  26  42  66 100 130 172 220 264 326 400
#
# _framework density 20.362259999999999
#
# number of rings (size 3 to 8) (size 9 to 14) (size 15 to 20)
#    0.000    1.000    0.000    6.750    1.750    3.000 
#    2.250    0.000    0.000    0.000    0.000    0.000 
#    0.000    0.000    0.000    0.000    0.000    0.000 
#
# Total GULP energy -179040.256926 kJ/mol
# GULP energy per Si atom -5595.008029 kJ/mol
# Density = 2.031591 g / cm^3
# Si number density = 20.362260 Si / 1000 Ang^3
#
#
#
# Elastic Constant Matrix: (Units=GPa)
#
#
# Indices 1 2 3 4 5 6 
#
# 1 165.3798 47.2044 79.0809 0.0000 0.0000 0.0000
# 2 47.2044 52.8167 59.3430 0.0000 0.0000 0.0000
# 3 79.0809 59.3430 161.1006 0.0000 0.0000 0.0000
# 4 0.0000 0.0000 0.0000 105.0417 0.0000 0.0000
# 5 0.0000 0.0000 0.0000 0.0000 -71.3387 0.0000
# 6 0.0000 0.0000 0.0000 0.0000 0.0000 25.4832
#
#
#
# Elastic Compliance Matrix: (Units=1/GPa)
#
#
# Indices 1 2 3 4 5 6 
#
# 1 0.008620 -0.005033 -0.002378 0.000000 0.000000 0.000000
# 2 -0.005033 0.035241 -0.010511 0.000000 0.000000 0.000000
# 3 -0.002378 -0.010511 0.011246 0.000000 0.000000 0.000000
# 4 0.000000 0.000000 0.000000 0.009520 0.000000 0.000000
# 5 0.000000 0.000000 0.000000 0.000000 -0.014018 0.000000
# 6 0.000000 0.000000 0.000000 0.000000 0.000000 0.039242
#
#
# Mechanical properties :
#
#
# Convention : Reuss Voigt Hill
#
# Bulk Modulus (GPa) = 51.90798 83.39486 67.65142
# Shear Modulus (GPa) = 37.84571 24.74849 31.29710
#
# Velocity S-wave (km/s) = 4.31585 3.49006 3.92473
# Velocity P-wave (km/s) = 7.09810 7.56870 7.33717
#
# Compressibility (1/GPa) = 0.01926486
#
# Stress axis : x y z
#
# Youngs Moduli (GPa) = 116.00811 28.37597 88.91907
#
# Poissons Ratio (x) = 0.14281 0.21141
# Poissons Ratio (y) = 0.58385 0.93462
# Poissons Ratio (z) = 0.27581 0.29826
#
# Static dielectric constant tensor:
#      x y z
#    x 1.674830 0.000000 0.000000 
#    y 0.000000 1.707690 0.000000 
#    z 0.000000 0.000000 1.704920 
# 
# From -- ./inp_files/6276.got.cif
#   From: 2010.05.17/outbox.cif.g08.bks.cpg/sg54_4_cif.got.tgz:6276.got - 2010.06.03 13:09:01.
