data_PCOD9422966
_publ_section_title
;
Structure prediction by ZEFSAII (Michael W. Deem and Ramdas Pophale) SiO2 
 PCOD9422966
Probable space group: P C C A
;
_chemical_formula_sum "Si O2"
_cell_formula_units_Z 48
_cell_length_a 12.111219
_cell_length_b 9.661839
_cell_length_c 21.468897
_cell_angle_alpha 90.000000
_cell_angle_beta 90.000000
_cell_angle_gamma 90.000000
_cell_volume 2512.218365
_symmetry_space_group_name_H-M "P C C A"
_symmetry_group_IT_number 54
_symmetry_cell_setting 'orthorhombic'
loop_
_space_group_symop_operation_xyz
x,y,z
1/2-x,-y,z
1/2+x,-y,1/2-z
-x,y,1/2-z
-x,-y,-z
1/2+x,y,-z
1/2-x,y,1/2+z
x,-y,1/2+z
loop_
_atom_site_type_symbol
_atom_site_label
_atom_site_fract_x
_atom_site_fract_y
_atom_site_fract_z
Si Si1 0.420119 0.333587 0.846062
Si Si2 0.750000 0.000000 0.830089
Si Si3 0.429025 0.126070 0.075142
Si Si4 0.839474 0.723019 0.785451
Si Si5 0.980307 0.553163 0.430128
Si Si6 0.864024 0.921464 0.565717
Si Si7 0.250000 0.500000 0.629757
O O1 0.541851 0.294684 0.819208
O O2 0.346564 0.334883 0.784218
O O3 0.435346 0.476114 0.883584
O O4 0.379317 0.215552 0.893116
O O5 0.840014 0.076825 0.873847
O O6 0.692597 0.117126 0.788647
O O7 0.476068 0.281947 0.078835
O O8 0.531871 0.021363 0.078065
O O9 0.371171 0.115269 0.007496
O O10 0.754697 0.633227 0.825948
O O11 0.858395 0.502278 0.411497
O O12 0.000000 0.500000 0.500000
O O13 0.750000 0.000000 0.578958
#
# Coordination Sequence:
#
# PCOD9422966 Si02
#       7
#     8   4   8   8   8   8   4
#     4  10  22  42  60  88 128 170 212 262 328 381
#     4  12  20  40  68  94 124 172 222 264 318 410
#     4  11  23  39  64  98 125 170 214 264 334 391
#     4  10  22  40  64  86 125 172 215 262 312 396
#     4  11  22  40  65  97 130 164 216 270 327 400
#     4  11  23  39  61  93 135 163 207 276 332 382
#     4  10  22  40  66  90 126 176 214 256 332 384
#
# _framework density 19.106618999999998
#
# number of rings (size 3 to 8) (size 9 to 14) (size 15 to 20)
#    0.000    1.333    5.833    0.000    1.167    1.333 
#    3.000    0.000    3.667    0.000    0.000    0.000 
#    0.000    0.000    0.000    0.000    0.000    0.000 
#
# Total GULP energy -268029.089719 kJ/mol
# GULP energy per Si atom -5583.939369 kJ/mol
# Density = 1.906313 g / cm^3
# Si number density = 19.106619 Si / 1000 Ang^3
#
#
#
# Elastic Constant Matrix: (Units=GPa)
#
#
# Indices 1 2 3 4 5 6 
#
# 1 47.7265 18.3266 41.7509 0.0000 0.0000 0.0000
# 2 18.3266 129.1909 40.9828 0.0000 0.0000 0.0000
# 3 41.7509 40.9828 104.6214 0.0000 0.0000 0.0000
# 4 0.0000 0.0000 0.0000 28.4790 0.0000 0.0000
# 5 0.0000 0.0000 0.0000 0.0000 11.8977 0.0000
# 6 0.0000 0.0000 0.0000 0.0000 0.0000 29.7701
#
#
#
# Elastic Compliance Matrix: (Units=1/GPa)
#
#
# Indices 1 2 3 4 5 6 
#
# 1 0.032226 -0.000562 -0.012640 0.000000 0.000000 0.000000
# 2 -0.000562 0.008849 -0.003242 0.000000 0.000000 0.000000
# 3 -0.012640 -0.003242 0.015873 0.000000 0.000000 0.000000
# 4 0.000000 0.000000 0.000000 0.035114 0.000000 0.000000
# 5 0.000000 0.000000 0.000000 0.000000 0.084050 0.000000
# 6 0.000000 0.000000 0.000000 0.000000 0.000000 0.033591
#
#
# Mechanical properties :
#
#
# Convention : Reuss Voigt Hill
#
# Bulk Modulus (GPa) = 41.56420 53.73994 47.65207
# Shear Modulus (GPa) = 19.95140 26.06127 23.00633
#
# Velocity S-wave (km/s) = 3.23494 3.69723 3.47378
# Velocity P-wave (km/s) = 5.97948 6.81274 6.40966
#
# Compressibility (1/GPa) = 0.02405917
#
# Stress axis : x y z
#
# Youngs Moduli (GPa) = 31.03079 113.01178 63.00159
#
# Poissons Ratio (x) = 0.06347 0.79636
# Poissons Ratio (y) = 0.01743 0.20426
# Poissons Ratio (z) = 0.39224 0.36639
#
# Static dielectric constant tensor:
#      x y z
#    x 1.649880 0.000000 0.000000 
#    y 0.000000 1.672890 0.000000 
#    z 0.000000 0.000000 1.647840 
# 
# From -- ./inp_files/24093.got.cif
#   From: 2010.05.17/outbox.cif.g08.bks.cpg/sg54_13_cif.got.tgz:24093.got - 2010.06.03 13:09:01.
