data_PCOD9422220
_publ_section_title
;
Structure prediction by ZEFSAII (Michael W. Deem and Ramdas Pophale) SiO2 
 PCOD9422220
Probable space group: P C C A
;
_chemical_formula_sum "Si O2"
_cell_formula_units_Z 32
_cell_length_a 17.777042
_cell_length_b 13.727733
_cell_length_c 5.417303
_cell_angle_alpha 90.000000
_cell_angle_beta 90.000000
_cell_angle_gamma 90.000000
_cell_volume 1322.030423
_symmetry_space_group_name_H-M "P C C A"
_symmetry_group_IT_number 54
_symmetry_cell_setting 'orthorhombic'
loop_
_space_group_symop_operation_xyz
x,y,z
1/2-x,-y,z
1/2+x,-y,1/2-z
-x,y,1/2-z
-x,-y,-z
1/2+x,y,-z
1/2-x,y,1/2+z
x,-y,1/2+z
loop_
_atom_site_type_symbol
_atom_site_label
_atom_site_fract_x
_atom_site_fract_y
_atom_site_fract_z
Si Si1 0.914161 0.060794 0.764805
Si Si2 0.711174 0.633062 0.062693
Si Si3 0.967007 0.388989 0.000791
Si Si4 0.271955 0.148948 0.383211
O O1 0.857964 0.148339 0.701966
O O2 0.000000 0.092284 0.750000
O O3 0.902892 0.983462 0.539116
O O4 0.737952 0.598468 0.332544
O O5 0.623552 0.612290 0.012872
O O6 0.730501 0.748356 0.077503
O O7 0.000000 0.342022 0.250000
O O8 0.000000 0.344517 0.750000
O O9 0.000000 0.500000 0.000000
O O10 0.268535 0.100688 0.650724
#
# Coordination Sequence:
#
# PCOD9422220 Si02
#       4
#     8   8   8   8
#     4  10  21  37  58  85 118 155 199 251 305 361
#     4  10  21  40  62  89 124 161 208 257 308 371
#     4  10  21  40  63  92 125 161 200 249 313 375
#     4  10  21  37  57  86 117 156 201 247 300 357
#
# _framework density 24.205192
#
# number of rings (size 3 to 8) (size 9 to 14) (size 15 to 20)
#    0.000    2.000    0.000    3.000    0.000    3.000 
#    0.000   30.000    0.000    0.000    0.000    0.000 
#    0.000    0.000    0.000    0.000    0.000    0.000 
#
# Total GULP energy -178635.585629 kJ/mol
# GULP energy per Si atom -5582.362051 kJ/mol
# Density = 2.415010 g / cm^3
# Si number density = 24.205192 Si / 1000 Ang^3
#
#
#
# Elastic Constant Matrix: (Units=GPa)
#
#
# Indices 1 2 3 4 5 6 
#
# 1 227.3832 39.6407 68.7486 0.0000 0.0000 0.0000
# 2 39.6407 103.0928 0.2397 0.0000 0.0000 0.0000
# 3 68.7486 0.2397 250.7456 0.0000 0.0000 0.0000
# 4 0.0000 0.0000 0.0000 -14.3277 0.0000 0.0000
# 5 0.0000 0.0000 0.0000 0.0000 50.4513 0.0000
# 6 0.0000 0.0000 0.0000 0.0000 0.0000 29.9647
#
#
#
# Elastic Compliance Matrix: (Units=1/GPa)
#
#
# Indices 1 2 3 4 5 6 
#
# 1 0.005172 -0.001985 -0.001416 0.000000 0.000000 0.000000
# 2 -0.001985 0.010462 0.000534 0.000000 0.000000 0.000000
# 3 -0.001416 0.000534 0.004376 0.000000 0.000000 0.000000
# 4 0.000000 0.000000 0.000000 -0.069795 0.000000 0.000000
# 5 0.000000 0.000000 0.000000 0.000000 0.019821 0.000000
# 6 0.000000 0.000000 0.000000 0.000000 0.000000 0.033373
#
#
# Mechanical properties :
#
#
# Convention : Reuss Voigt Hill
#
# Bulk Modulus (GPa) = 70.04933 88.71997 79.38465
# Shear Modulus (GPa) = 359.65647 44.72385 202.19016
#
# Velocity S-wave (km/s) = 12.20283 4.30315 9.14948
# Velocity P-wave (km/s) = 15.08470 7.83724 12.02020
#
# Compressibility (1/GPa) = 0.01427565
#
# Stress axis : x y z
#
# Youngs Moduli (GPa) = 193.34198 95.58210 228.52535
#
# Poissons Ratio (x) = 0.18978 0.32364
# Poissons Ratio (y) = 0.38388 -0.12212
# Poissons Ratio (z) = 0.27381 -0.05108
#
# Static dielectric constant tensor:
#      x y z
#    x 1.886970 0.000000 0.000000 
#    y 0.000000 2.102290 0.000000 
#    z 0.000000 0.000000 2.059620 
# 
# From -- ./inp_files/389.got.cif
#   From: 2010.05.17/outbox.cif.g08.bks.cpg/sg54_1_cif.got.tgz:389.got - 2010.06.03 13:09:01.
