data_PCOD9422147
_publ_section_title
;
Structure prediction by ZEFSAII (Michael W. Deem and Ramdas Pophale) SiO2 
 PCOD9422147
Probable space group: P C C A
;
_chemical_formula_sum "Si O2"
_cell_formula_units_Z 48
_cell_length_a 30.583469
_cell_length_b 5.135882
_cell_length_c 15.806870
_cell_angle_alpha 90.000000
_cell_angle_beta 90.000000
_cell_angle_gamma 90.000000
_cell_volume 2482.833881
_symmetry_space_group_name_H-M "P C C A"
_symmetry_group_IT_number 54
_symmetry_cell_setting 'orthorhombic'
loop_
_space_group_symop_operation_xyz
x,y,z
1/2-x,-y,z
1/2+x,-y,1/2-z
-x,y,1/2-z
-x,-y,-z
1/2+x,y,-z
1/2-x,y,1/2+z
x,-y,1/2+z
loop_
_atom_site_type_symbol
_atom_site_label
_atom_site_fract_x
_atom_site_fract_y
_atom_site_fract_z
Si Si1 0.539370 0.074380 0.314767
Si Si2 0.277917 0.252672 0.475600
Si Si3 0.629988 0.230273 0.319263
Si Si4 0.961703 0.571400 0.935216
Si Si5 0.277797 0.247526 0.271523
Si Si6 0.370099 0.267298 0.565950
O O1 0.500000 0.104227 0.250000
O O2 0.586798 0.122375 0.270823
O O3 0.541522 0.307526 0.381916
O O4 0.532425 0.807011 0.367323
O O5 0.250000 0.500000 0.502822
O O6 0.280744 0.248817 0.373564
O O7 0.326324 0.284670 0.512079
O O8 0.250000 0.000000 0.502291
O O9 0.674046 0.222693 0.265898
O O10 0.629023 0.522289 0.357351
O O11 0.630665 0.023489 0.396464
O O12 0.915931 0.658238 0.979251
O O13 0.000000 0.500000 0.000000
O O14 0.250000 0.500000 0.245232
O O15 0.250000 0.000000 0.243969
#
# Coordination Sequence:
#
# PCOD9422147 Si02
#       6
#     8   8   8   8   8   8
#     4  10  21  38  58  83 113 145 185 230 277 332
#     4  10  21  36  53  77 109 142 179 223 270 324
#     4  10  21  36  55  80 108 139 179 224 267 320
#     4  10  21  38  58  83 113 145 185 231 278 331
#     4  10  21  36  53  77 108 140 177 220 266 319
#     4  10  21  36  55  80 108 139 180 224 267 322
#
# _framework density 19.332746
#
# number of rings (size 3 to 8) (size 9 to 14) (size 15 to 20)
#    0.000    2.000    0.000    3.000    0.000    5.333 
#    0.000    5.000    0.000    0.000    0.000    0.000 
#    0.000    0.000    0.000    0.000    0.000    0.000 
#
# Total GULP energy -267498.702499 kJ/mol
# GULP energy per Si atom -5572.889635 kJ/mol
# Density = 1.928874 g / cm^3
# Si number density = 19.332746 Si / 1000 Ang^3
#
#
#
# Elastic Constant Matrix: (Units=GPa)
#
#
# Indices 1 2 3 4 5 6 
#
# 1 214.6442 44.9845 49.2811 0.0000 0.0000 0.0000
# 2 44.9845 135.2830 14.5238 0.0000 0.0000 0.0000
# 3 49.2811 14.5238 17.0003 0.0000 0.0000 0.0000
# 4 0.0000 0.0000 0.0000 -7.2118 0.0000 0.0000
# 5 0.0000 0.0000 0.0000 0.0000 67.4519 0.0000
# 6 0.0000 0.0000 0.0000 0.0000 0.0000 18.9060
#
#
#
# Elastic Compliance Matrix: (Units=1/GPa)
#
#
# Indices 1 2 3 4 5 6 
#
# 1 0.013943 -0.000327 -0.040140 0.000000 0.000000 0.000000
# 2 -0.000327 0.008146 -0.006011 0.000000 0.000000 0.000000
# 3 -0.040140 -0.006011 0.180318 0.000000 0.000000 0.000000
# 4 0.000000 0.000000 0.000000 -0.138661 0.000000 0.000000
# 5 0.000000 0.000000 0.000000 0.000000 0.014825 0.000000
# 6 0.000000 0.000000 0.000000 0.000000 0.000000 0.052893
#
#
# Mechanical properties :
#
#
# Convention : Reuss Voigt Hill
#
# Bulk Modulus (GPa) = 9.13658 64.94514 37.04086
# Shear Modulus (GPa) = 19.16408 33.03842 26.10125
#
# Velocity S-wave (km/s) = 3.15187 4.13841 3.67836
# Velocity P-wave (km/s) = 4.24051 7.51675 6.10260
#
# Compressibility (1/GPa) = 0.10945017
#
# Stress axis : x y z
#
# Youngs Moduli (GPa) = 71.71883 122.75912 5.54577
#
# Poissons Ratio (x) = 0.04015 0.22261
# Poissons Ratio (y) = 0.02346 0.03334
# Poissons Ratio (z) = 2.87880 0.73794
#
# Static dielectric constant tensor:
#      x y z
#    x 1.681640 0.000000 0.000000 
#    y 0.000000 1.657540 0.000000 
#    z 0.000000 0.000000 1.661020 
# 
# From -- ./inp_files/15120.got.cif
#   From: 2010.05.17/outbox.cif.g08.bks.cpg/sg54_8_cif.got.tgz:15120.got - 2010.06.03 13:09:01.
