data_PCOD9422712
_publ_section_title
;
Structure prediction by ZEFSAII (Michael W. Deem and Ramdas Pophale) SiO2 
 PCOD9422712
Probable space group: P C C A
;
_chemical_formula_sum "Si O2"
_cell_formula_units_Z 40
_cell_length_a 19.146156
_cell_length_b 15.779674
_cell_length_c 5.592066
_cell_angle_alpha 90.000000
_cell_angle_beta 90.000000
_cell_angle_gamma 90.000000
_cell_volume 1689.475539
_symmetry_space_group_name_H-M "P C C A"
_symmetry_group_IT_number 54
_symmetry_cell_setting 'orthorhombic'
loop_
_space_group_symop_operation_xyz
x,y,z
1/2-x,-y,z
1/2+x,-y,1/2-z
-x,y,1/2-z
-x,-y,-z
1/2+x,y,-z
1/2-x,y,1/2+z
x,-y,1/2+z
loop_
_atom_site_type_symbol
_atom_site_label
_atom_site_fract_x
_atom_site_fract_y
_atom_site_fract_z
Si Si1 0.578667 0.159984 0.644145
Si Si2 0.724259 0.401207 0.193186
Si Si3 0.721709 0.095547 0.730488
Si Si4 0.000000 0.546476 0.750000
Si Si5 0.098458 0.672067 0.590695
Si Si6 0.500000 0.766074 0.750000
O O1 0.500000 0.144504 0.750000
O O2 0.637990 0.092064 0.695483
O O3 0.615289 0.243767 0.759609
O O4 0.561253 0.178412 0.367392
O O5 0.750000 0.500000 0.213056
O O6 0.768059 0.367358 0.963158
O O7 0.649115 0.373726 0.095123
O O8 0.754739 0.134948 0.486409
O O9 0.750000 0.000000 0.742495
O O10 0.071128 0.600084 0.762932
O O11 0.000000 0.500000 0.500000
O O12 0.031318 0.705874 0.448760
#
# Coordination Sequence:
#
# PCOD9422712 Si02
#       6
#     8   8   8   4   8   4
#     4  10  23  43  74 106 144 192 245 302 359 437
#     4  10  25  42  60  84 127 175 223 287 348 424
#     4  10  24  47  74 109 155 194 233 289 361 443
#     4  12  27  38  66  92 129 184 226 304 353 408
#     4  11  24  43  66  97 135 179 245 295 364 421
#     4  10  21  44  68 100 137 178 246 306 355 428
#
# _framework density 23.675988
#
# number of rings (size 3 to 8) (size 9 to 14) (size 15 to 20)
#    0.000    1.600    3.000    0.600   14.000    1.600 
#    0.000    4.000    0.000    0.000    0.000    0.000 
#    0.000    0.000    0.000    0.000    0.000    0.000 
#
# Total GULP energy -222876.362589 kJ/mol
# GULP energy per Si atom -5571.909065 kJ/mol
# Density = 2.362210 g / cm^3
# Si number density = 23.675988 Si / 1000 Ang^3
#
#
#
# Elastic Constant Matrix: (Units=GPa)
#
#
# Indices 1 2 3 4 5 6 
#
# 1 92.1984 22.3925 7.2922 0.0000 0.0000 0.0000
# 2 22.3925 58.2929 2.2382 0.0000 0.0000 0.0000
# 3 7.2922 2.2382 113.2799 0.0000 0.0000 0.0000
# 4 0.0000 0.0000 0.0000 8.8996 0.0000 0.0000
# 5 0.0000 0.0000 0.0000 0.0000 38.9646 0.0000
# 6 0.0000 0.0000 0.0000 0.0000 0.0000 41.5402
#
#
#
# Elastic Compliance Matrix: (Units=1/GPa)
#
#
# Indices 1 2 3 4 5 6 
#
# 1 0.012015 -0.004589 -0.000683 0.000000 0.000000 0.000000
# 2 -0.004589 0.018921 -0.000078 0.000000 0.000000 0.000000
# 3 -0.000683 -0.000078 0.008873 0.000000 0.000000 0.000000
# 4 0.000000 0.000000 0.000000 0.112365 0.000000 0.000000
# 5 0.000000 0.000000 0.000000 0.000000 0.025664 0.000000
# 6 0.000000 0.000000 0.000000 0.000000 0.000000 0.024073
#
#
# Mechanical properties :
#
#
# Convention : Reuss Voigt Hill
#
# Bulk Modulus (GPa) = 34.35483 36.40189 35.37836
# Shear Modulus (GPa) = 22.49071 33.33743 27.91407
#
# Velocity S-wave (km/s) = 3.08545 3.75650 3.43739
# Velocity P-wave (km/s) = 5.21874 5.85008 5.54340
#
# Compressibility (1/GPa) = 0.02910799
#
# Stress axis : x y z
#
# Youngs Moduli (GPa) = 83.23110 52.85242 112.69903
#
# Poissons Ratio (x) = 0.24255 0.07695
# Poissons Ratio (y) = 0.38196 0.00884
# Poissons Ratio (z) = 0.05683 0.00414
#
# Static dielectric constant tensor:
#      x y z
#    x 1.843140 0.000000 0.000000 
#    y 0.000000 1.953240 0.000000 
#    z 0.000000 0.000000 2.042400 
# 
# From -- ./inp_files/946.got.cif
#   From: 2010.05.17/outbox.cif.g08.bks.cpg/sg54_1_cif.got.tgz:946.got - 2010.06.03 13:09:01.
