data_PCOD9422935
_publ_section_title
;
Structure prediction by ZEFSAII (Michael W. Deem and Ramdas Pophale) SiO2 
 PCOD9422935
Probable space group: P C C A
;
_chemical_formula_sum "Si O2"
_cell_formula_units_Z 48
_cell_length_a 13.671633
_cell_length_b 18.337270
_cell_length_c 9.221883
_cell_angle_alpha 90.000000
_cell_angle_beta 90.000000
_cell_angle_gamma 90.000000
_cell_volume 2311.929994
_symmetry_space_group_name_H-M "P C C A"
_symmetry_group_IT_number 54
_symmetry_cell_setting 'orthorhombic'
loop_
_space_group_symop_operation_xyz
x,y,z
1/2-x,-y,z
1/2+x,-y,1/2-z
-x,y,1/2-z
-x,-y,-z
1/2+x,y,-z
1/2-x,y,1/2+z
x,-y,1/2+z
loop_
_atom_site_type_symbol
_atom_site_label
_atom_site_fract_x
_atom_site_fract_y
_atom_site_fract_z
Si Si1 0.849080 0.423703 0.450396
Si Si2 0.107777 0.564142 0.221420
Si Si3 0.750000 0.000000 0.485884
Si Si4 0.162177 0.235427 0.352251
Si Si5 0.307492 0.299382 0.143653
Si Si6 0.882849 0.926934 0.736702
Si Si7 0.500000 0.348884 0.750000
O O1 0.845934 0.504851 0.384149
O O2 0.841102 0.431362 0.622593
O O3 0.771706 0.361587 0.403519
O O4 0.950902 0.393347 0.382217
O O5 0.102173 0.646951 0.165783
O O6 0.000000 0.537208 0.250000
O O7 0.673050 0.039505 0.595439
O O8 0.818977 0.047751 0.377034
O O9 0.265074 0.260262 0.283934
O O10 0.174716 0.238622 0.523880
O O11 0.127289 0.159837 0.285652
O O12 0.084659 0.297812 0.313090
O O13 0.000000 0.945318 0.750000
#
# Coordination Sequence:
#
# PCOD9422935 Si02
#       7
#     8   8   4   8   8   8   4
#     4  11  24  39  58  84 115 162 212 271 332 388
#     4  12  24  39  59  86 117 159 216 276 339 394
#     4  10  24  42  72 110 150 172 230 288 320 412
#     4  11  22  42  63  90 125 170 214 260 326 399
#     4  11  24  39  60  85 124 160 216 273 326 388
#     4  11  22  44  72 106 142 190 227 272 346 409
#     4  10  22  40  62  84 122 164 214 266 324 384
#
# _framework density 20.761875
#
# number of rings (size 3 to 8) (size 9 to 14) (size 15 to 20)
#    0.000    1.000    3.333    3.500    4.667    1.333 
#    0.000    0.000    0.000    4.000    0.000    0.000 
#    0.000    0.000    0.000    0.000    0.000    0.000 
#
# Total GULP energy -267763.486134 kJ/mol
# GULP energy per Si atom -5578.405961 kJ/mol
# Density = 2.071462 g / cm^3
# Si number density = 20.761875 Si / 1000 Ang^3
#
#
#
# Elastic Constant Matrix: (Units=GPa)
#
#
# Indices 1 2 3 4 5 6 
#
# 1 83.2490 25.4228 3.9600 0.0000 0.0000 0.0000
# 2 25.4228 77.7058 32.1376 0.0000 0.0000 0.0000
# 3 3.9600 32.1376 102.1738 0.0000 0.0000 0.0000
# 4 0.0000 0.0000 0.0000 29.0222 0.0000 0.0000
# 5 0.0000 0.0000 0.0000 0.0000 23.7378 0.0000
# 6 0.0000 0.0000 0.0000 0.0000 0.0000 32.1619
#
#
#
# Elastic Compliance Matrix: (Units=1/GPa)
#
#
# Indices 1 2 3 4 5 6 
#
# 1 0.013432 -0.004804 0.000991 0.000000 0.000000 0.000000
# 2 -0.004804 0.016512 -0.005007 0.000000 0.000000 0.000000
# 3 0.000991 -0.005007 0.011324 0.000000 0.000000 0.000000
# 4 0.000000 0.000000 0.000000 0.034456 0.000000 0.000000
# 5 0.000000 0.000000 0.000000 0.000000 0.042127 0.000000
# 6 0.000000 0.000000 0.000000 0.000000 0.000000 0.031093
#
#
# Mechanical properties :
#
#
# Convention : Reuss Voigt Hill
#
# Bulk Modulus (GPa) = 42.32692 42.90772 42.61732
# Shear Modulus (GPa) = 28.65964 30.42491 29.54228
#
# Velocity S-wave (km/s) = 3.71940 3.83224 3.77624
# Velocity P-wave (km/s) = 6.23509 6.34766 6.29163
#
# Compressibility (1/GPa) = 0.02362563
#
# Stress axis : x y z
#
# Youngs Moduli (GPa) = 74.44813 60.56271 88.30898
#
# Poissons Ratio (x) = 0.29096 -0.08747
# Poissons Ratio (y) = 0.35767 0.44220
# Poissons Ratio (z) = -0.07374 0.30326
#
# Static dielectric constant tensor:
#      x y z
#    x 1.975920 0.000000 0.000000 
#    y 0.000000 1.709740 0.000000 
#    z 0.000000 0.000000 1.836330 
# 
# From -- ./inp_files/3610.got.cif
#   From: 2010.05.17/outbox.cif.g08.bks.cpg/sg54_2_cif.got.tgz:3610.got - 2010.06.03 13:09:01.
