data_PCOD9422091
_publ_section_title
;
Structure prediction by ZEFSAII (Michael W. Deem and Ramdas Pophale) SiO2 
 PCOD9422091
Probable space group: P C C A
;
_chemical_formula_sum "Si O2"
_cell_formula_units_Z 56
_cell_length_a 22.422165
_cell_length_b 11.235093
_cell_length_c 10.944986
_cell_angle_alpha 90.000000
_cell_angle_beta 90.000000
_cell_angle_gamma 90.000000
_cell_volume 2757.207342
_symmetry_space_group_name_H-M "P C C A"
_symmetry_group_IT_number 54
_symmetry_cell_setting 'orthorhombic'
loop_
_space_group_symop_operation_xyz
x,y,z
1/2-x,-y,z
1/2+x,-y,1/2-z
-x,y,1/2-z
-x,-y,-z
1/2+x,y,-z
1/2-x,y,1/2+z
x,-y,1/2+z
loop_
_atom_site_type_symbol
_atom_site_label
_atom_site_fract_x
_atom_site_fract_y
_atom_site_fract_z
Si Si1 0.974690 0.832581 0.611055
Si Si2 0.137694 0.280577 0.775735
Si Si3 0.738097 0.639774 0.272662
Si Si4 0.042876 0.113965 0.865453
Si Si5 0.637441 0.337445 0.605084
Si Si6 0.148730 0.569116 0.518569
Si Si7 0.433618 0.497714 0.204625
O O1 0.914925 0.756778 0.580984
O O2 0.000000 0.801182 0.750000
O O3 0.020013 0.826743 0.493780
O O4 0.958052 0.972076 0.617295
O O5 0.201324 0.286955 0.710641
O O6 0.106757 0.160464 0.819154
O O7 0.089775 0.362661 0.704942
O O8 0.149473 0.353147 0.899578
O O9 0.750000 0.500000 0.233809
O O10 0.696373 0.706241 0.173955
O O11 0.697113 0.622600 0.390717
O O12 0.000000 0.140767 0.750000
O O13 0.661224 0.430026 0.504588
O O14 0.605697 0.428875 0.699356
O O15 0.082509 0.561480 0.577851
O O16 0.500000 0.501992 0.250000
#
# Coordination Sequence:
#
# PCOD9422091 Si02
#       7
#     8   8   8   8   8   8   8
#     4  10  23  44  69  92 126 169 218 268 329 388
#     4  11  23  36  59  88 122 166 212 263 318 386
#     4  11  21  38  52  86 123 161 209 243 314 379
#     4  10  24  44  66  95 127 167 215 274 332 387
#     4  10  22  35  59  87 118 166 207 255 312 382
#     4  10  22  35  56  83 126 164 201 258 312 393
#     4  10  21  32  51  88 124 153 198 253 317 384
#
# _framework density 20.310407000000001
#
# number of rings (size 3 to 8) (size 9 to 14) (size 15 to 20)
#    0.000    1.714    4.286    0.857   12.000    1.143 
#    0.000    0.714    0.000    0.000    3.714    0.000 
#    0.000    0.000    0.000    0.000    0.000    0.000 
#
# Total GULP energy -312074.096491 kJ/mol
# GULP energy per Si atom -5572.751723 kJ/mol
# Density = 2.026418 g / cm^3
# Si number density = 20.310407 Si / 1000 Ang^3
#
#
#
# Elastic Constant Matrix: (Units=GPa)
#
#
# Indices 1 2 3 4 5 6 
#
# 1 76.6711 15.3660 -2.5685 0.0000 0.0000 0.0000
# 2 15.3660 50.2041 7.0598 0.0000 0.0000 0.0000
# 3 -2.5685 7.0598 75.5234 0.0000 0.0000 0.0000
# 4 0.0000 0.0000 0.0000 16.4066 0.0000 0.0000
# 5 0.0000 0.0000 0.0000 0.0000 20.2072 0.0000
# 6 0.0000 0.0000 0.0000 0.0000 0.0000 30.5100
#
#
#
# Elastic Compliance Matrix: (Units=1/GPa)
#
#
# Indices 1 2 3 4 5 6 
#
# 1 0.013953 -0.004395 0.000885 0.000000 0.000000 0.000000
# 2 -0.004395 0.021568 -0.002166 0.000000 0.000000 0.000000
# 3 0.000885 -0.002166 0.013473 0.000000 0.000000 0.000000
# 4 0.000000 0.000000 0.000000 0.060951 0.000000 0.000000
# 5 0.000000 0.000000 0.000000 0.000000 0.049487 0.000000
# 6 0.000000 0.000000 0.000000 0.000000 0.000000 0.032776
#
#
# Mechanical properties :
#
#
# Convention : Reuss Voigt Hill
#
# Bulk Modulus (GPa) = 26.56445 26.90147 26.73296
# Shear Modulus (GPa) = 23.13651 25.59419 24.36535
#
# Velocity S-wave (km/s) = 3.37878 3.55371 3.46735
# Velocity P-wave (km/s) = 5.32252 5.48748 5.40563
#
# Compressibility (1/GPa) = 0.03764430
#
# Stress axis : x y z
#
# Youngs Moduli (GPa) = 71.66796 46.36394 74.21990
#
# Poissons Ratio (x) = 0.20378 -0.06571
# Poissons Ratio (y) = 0.31499 0.16074
# Poissons Ratio (z) = -0.06345 0.10041
#
# Static dielectric constant tensor:
#      x y z
#    x 1.771060 0.000000 0.000000 
#    y 0.000000 1.697420 0.000000 
#    z 0.000000 0.000000 1.863250 
# 
# From -- ./inp_files/9536.got.cif
#   From: 2010.05.17/outbox.cif.g08.bks.cpg/sg54_5_cif.got.tgz:9536.got - 2010.06.03 13:09:01.
