data_PCOD9423074
_publ_section_title
;
Structure prediction by ZEFSAII (Michael W. Deem and Ramdas Pophale) SiO2 
 PCOD9423074
Probable space group: P C C A
;
_chemical_formula_sum "Si O2"
_cell_formula_units_Z 32
_cell_length_a 10.398447
_cell_length_b 8.847391
_cell_length_c 17.433547
_cell_angle_alpha 90.000000
_cell_angle_beta 90.000000
_cell_angle_gamma 90.000000
_cell_volume 1603.871094
_symmetry_space_group_name_H-M "P C C A"
_symmetry_group_IT_number 54
_symmetry_cell_setting 'orthorhombic'
loop_
_space_group_symop_operation_xyz
x,y,z
1/2-x,-y,z
1/2+x,-y,1/2-z
-x,y,1/2-z
-x,-y,-z
1/2+x,y,-z
1/2-x,y,1/2+z
x,-y,1/2+z
loop_
_atom_site_type_symbol
_atom_site_label
_atom_site_fract_x
_atom_site_fract_y
_atom_site_fract_z
Si Si1 0.470222 0.592068 0.076297
Si Si2 0.250000 0.500000 0.187027
Si Si3 0.250000 0.000000 0.362222
Si Si4 0.630198 0.903462 0.491356
Si Si5 0.368667 0.720602 0.297002
O O1 0.373712 0.501737 0.131977
O O2 0.400966 0.749762 0.052432
O O3 0.598301 0.635509 0.123596
O O4 0.500000 0.500000 0.000000
O O5 0.261625 0.641971 0.244507
O O6 0.322515 0.114005 0.420625
O O7 0.159651 0.105662 0.313260
O O8 0.750000 0.000000 0.456319
O O9 0.500000 0.000000 0.500000
O O10 0.500000 0.707758 0.250000
#
# Coordination Sequence:
#
# PCOD9423074 Si02
#       5
#     8   4   4   8   8
#     4  11  24  43  69  99 133 178 236 287 341 417
#     4  10  26  42  64  94 136 184 208 286 354 412
#     4  10  22  42  70  92 134 178 222 286 340 408
#     4  10  22  41  67 102 136 171 233 291 343 398
#     4  10  23  47  58  98 138 168 227 275 345 420
#
# _framework density 19.951727999999999
#
# number of rings (size 3 to 8) (size 9 to 14) (size 15 to 20)
#    0.750    1.000    2.500    0.000   10.500    0.000 
#   13.500    0.000    0.000    0.000    0.000    0.000 
#    0.000    0.000    0.000    0.000    0.000    0.000 
#
# Total GULP energy -178353.952084 kJ/mol
# GULP energy per Si atom -5573.561003 kJ/mol
# Density = 1.990632 g / cm^3
# Si number density = 19.951728 Si / 1000 Ang^3
#
#
#
# Elastic Constant Matrix: (Units=GPa)
#
#
# Indices 1 2 3 4 5 6 
#
# 1 83.4266 41.2986 31.8517 0.0000 0.0000 0.0000
# 2 41.2986 76.3149 58.6028 0.0000 0.0000 0.0000
# 3 31.8517 58.6028 114.2231 0.0000 0.0000 0.0000
# 4 0.0000 0.0000 0.0000 33.7141 0.0000 0.0000
# 5 0.0000 0.0000 0.0000 0.0000 29.1699 0.0000
# 6 0.0000 0.0000 0.0000 0.0000 0.0000 40.8449
#
#
#
# Elastic Compliance Matrix: (Units=1/GPa)
#
#
# Indices 1 2 3 4 5 6 
#
# 1 0.016373 -0.008835 -0.000033 0.000000 0.000000 0.000000
# 2 -0.008835 0.026390 -0.011076 0.000000 0.000000 0.000000
# 3 -0.000033 -0.011076 0.014446 0.000000 0.000000 0.000000
# 4 0.000000 0.000000 0.000000 0.029661 0.000000 0.000000
# 5 0.000000 0.000000 0.000000 0.000000 0.034282 0.000000
# 6 0.000000 0.000000 0.000000 0.000000 0.000000 0.024483
#
#
# Mechanical properties :
#
#
# Convention : Reuss Voigt Hill
#
# Bulk Modulus (GPa) = 57.73059 59.71897 58.72478
# Shear Modulus (GPa) = 26.13743 30.22654 28.18199
#
# Velocity S-wave (km/s) = 3.62337 3.89650 3.76241
# Velocity P-wave (km/s) = 6.81931 7.08804 6.95497
#
# Compressibility (1/GPa) = 0.01732184
#
# Stress axis : x y z
#
# Youngs Moduli (GPa) = 61.07720 37.89305 69.22125
#
# Poissons Ratio (x) = 0.33479 0.00226
# Poissons Ratio (y) = 0.53963 0.76668
# Poissons Ratio (z) = 0.00200 0.41970
#
# Static dielectric constant tensor:
#      x y z
#    x 1.771310 0.000000 0.000000 
#    y 0.000000 1.633010 0.000000 
#    z 0.000000 0.000000 1.750970 
# 
# From -- ./inp_files/17040.got.cif
#   From: 2010.05.17/outbox.cif.g08.bks.cpg/sg54_9_cif.got.tgz:17040.got - 2010.06.03 13:09:01.
