data_PCOD9423674
_publ_section_title
;
Structure prediction by ZEFSAII (Michael W. Deem and Ramdas Pophale) SiO2 
 PCOD9423674
Probable space group: P C C A
;
_chemical_formula_sum "Si O2"
_cell_formula_units_Z 28
_cell_length_a 25.581364
_cell_length_b 4.764648
_cell_length_c 9.097272
_cell_angle_alpha 90.000000
_cell_angle_beta 90.000000
_cell_angle_gamma 90.000000
_cell_volume 1108.831867
_symmetry_space_group_name_H-M "P C C A"
_symmetry_group_IT_number 54
_symmetry_cell_setting 'orthorhombic'
loop_
_space_group_symop_operation_xyz
x,y,z
1/2-x,-y,z
1/2+x,-y,1/2-z
-x,y,1/2-z
-x,-y,-z
1/2+x,y,-z
1/2-x,y,1/2+z
x,-y,1/2+z
loop_
_atom_site_type_symbol
_atom_site_label
_atom_site_fract_x
_atom_site_fract_y
_atom_site_fract_z
Si Si1 0.546235 0.616143 0.102150
Si Si2 0.500000 0.840763 0.750000
Si Si3 0.657768 0.685993 0.959096
Si Si4 0.195253 0.843357 0.722223
O O1 0.472511 0.072350 0.855787
O O2 0.500000 0.500000 0.000000
O O3 0.545970 0.397877 0.237876
O O4 0.601797 0.609957 0.026034
O O5 0.686231 0.434854 0.873400
O O6 0.689223 0.780966 0.105325
O O7 0.653133 0.939083 0.842956
O O8 0.250000 0.000000 0.696581
#
# Coordination Sequence:
#
# PCOD9423674 Si02
#       4
#     8   4   8   8
#     4  11  25  43  74 108 157 206 262 316 391 467
#     4  10  24  42  68 100 154 194 254 308 376 444
#     4  12  28  49  84 115 157 209 264 325 403 476
#     4  12  28  52  80 114 154 201 267 332 401 470
#
# _framework density 25.251797
#
# number of rings (size 3 to 8) (size 9 to 14) (size 15 to 20)
#    0.000    0.571    0.000    6.000   12.000    2.286 
#    0.000    1.429    0.000    0.000    0.000    0.000 
#    0.000    0.000    0.000    0.000    0.000    0.000 
#
# Total GULP energy -156351.280371 kJ/mol
# GULP energy per Si atom -5583.974299 kJ/mol
# Density = 2.519432 g / cm^3
# Si number density = 25.251797 Si / 1000 Ang^3
#
#
#
# Elastic Constant Matrix: (Units=GPa)
#
#
# Indices 1 2 3 4 5 6 
#
# 1 72.6328 11.8389 29.2233 0.0000 0.0000 0.0000
# 2 11.8389 188.9687 62.7743 0.0000 0.0000 0.0000
# 3 29.2233 62.7743 136.9478 0.0000 0.0000 0.0000
# 4 0.0000 0.0000 0.0000 18.8241 0.0000 0.0000
# 5 0.0000 0.0000 0.0000 0.0000 32.0010 0.0000
# 6 0.0000 0.0000 0.0000 0.0000 0.0000 39.2867
#
#
#
# Elastic Compliance Matrix: (Units=1/GPa)
#
#
# Indices 1 2 3 4 5 6 
#
# 1 0.015064 0.000146 -0.003282 0.000000 0.000000 0.000000
# 2 0.000146 0.006244 -0.002893 0.000000 0.000000 0.000000
# 3 -0.003282 -0.002893 0.009329 0.000000 0.000000 0.000000
# 4 0.000000 0.000000 0.000000 0.053123 0.000000 0.000000
# 5 0.000000 0.000000 0.000000 0.000000 0.031249 0.000000
# 6 0.000000 0.000000 0.000000 0.000000 0.000000 0.025454
#
#
# Mechanical properties :
#
#
# Convention : Reuss Voigt Hill
#
# Bulk Modulus (GPa) = 53.82254 67.35805 60.59029
# Shear Modulus (GPa) = 31.50334 37.66991 34.58662
#
# Velocity S-wave (km/s) = 3.53593 3.86654 3.70492
# Velocity P-wave (km/s) = 6.16693 6.83125 6.50757
#
# Compressibility (1/GPa) = 0.01857958
#
# Stress axis : x y z
#
# Youngs Moduli (GPa) = 66.38175 160.15761 107.19769
#
# Poissons Ratio (x) = -0.02344 0.35179
# Poissons Ratio (y) = -0.00972 0.31015
# Poissons Ratio (z) = 0.21784 0.46338
#
# Static dielectric constant tensor:
#      x y z
#    x 2.054070 0.000000 0.000000 
#    y 0.000000 1.999410 0.000000 
#    z 0.000000 0.000000 2.623590 
# 
# From -- ./inp_files/5357.got.cif
#   From: 2010.05.17/outbox.cif.g08.bks.cpg/sg54_3_cif.got.tgz:5357.got - 2010.06.03 13:09:01.
