data_PCOD9423641
_publ_section_title
;
Structure prediction by ZEFSAII (Michael W. Deem and Ramdas Pophale) SiO2 
 PCOD9423641
Probable space group: P C C A
;
_chemical_formula_sum "Si O2"
_cell_formula_units_Z 28
_cell_length_a 5.099893
_cell_length_b 13.432583
_cell_length_c 17.955403
_cell_angle_alpha 90.000000
_cell_angle_beta 90.000000
_cell_angle_gamma 90.000000
_cell_volume 1230.030143
_symmetry_space_group_name_H-M "P C C A"
_symmetry_group_IT_number 54
_symmetry_cell_setting 'orthorhombic'
loop_
_space_group_symop_operation_xyz
x,y,z
1/2-x,-y,z
1/2+x,-y,1/2-z
-x,y,1/2-z
-x,-y,-z
1/2+x,y,-z
1/2-x,y,1/2+z
x,-y,1/2+z
loop_
_atom_site_type_symbol
_atom_site_label
_atom_site_fract_x
_atom_site_fract_y
_atom_site_fract_z
Si Si1 0.250000 0.500000 0.696256
Si Si2 0.266677 0.188635 0.446341
Si Si3 0.068675 0.908472 0.663224
Si Si4 0.414787 0.708110 0.663705
O O1 0.500000 0.488326 0.750000
O O2 0.281103 0.601897 0.650882
O O3 0.518661 0.184476 0.499205
O O4 0.339279 0.280003 0.391621
O O5 0.192184 0.105278 0.385516
O O6 0.228559 0.804411 0.654484
O O7 0.000000 0.921015 0.750000
O O8 0.250000 0.000000 0.638930
O O9 0.500000 0.709970 0.750000
#
# Coordination Sequence:
#
# PCOD9423641 Si02
#       4
#     4   8   8   8
#     4  10  24  40  76 112 140 188 250 318 370 420
#     4  12  27  47  72 107 152 196 239 300 375 440
#     4  12  26  44  76 109 143 194 250 311 362 438
#     4  11  23  47  75 106 145 189 254 308 362 441
#
# _framework density 22.763670000000001
#
# number of rings (size 3 to 8) (size 9 to 14) (size 15 to 20)
#    0.000    0.571    5.714    1.714    4.000    1.143 
#    0.000    1.429    0.000    0.000    0.000    0.000 
#    0.000    0.000    0.000    0.000    0.000    0.000 
#
# Total GULP energy -156497.122951 kJ/mol
# GULP energy per Si atom -5589.182963 kJ/mol
# Density = 2.271186 g / cm^3
# Si number density = 22.763670 Si / 1000 Ang^3
#
#
#
# Elastic Constant Matrix: (Units=GPa)
#
#
# Indices 1 2 3 4 5 6 
#
# 1 172.8699 64.8717 57.2533 0.0000 0.0000 0.0000
# 2 64.8717 202.9539 15.2995 0.0000 0.0000 0.0000
# 3 57.2533 15.2995 141.2207 0.0000 0.0000 0.0000
# 4 0.0000 0.0000 0.0000 -54.8760 0.0000 0.0000
# 5 0.0000 0.0000 0.0000 0.0000 30.0830 0.0000
# 6 0.0000 0.0000 0.0000 0.0000 0.0000 50.4851
#
#
#
# Elastic Compliance Matrix: (Units=1/GPa)
#
#
# Indices 1 2 3 4 5 6 
#
# 1 0.007544 -0.002199 -0.002820 0.000000 0.000000 0.000000
# 2 -0.002199 0.005609 0.000284 0.000000 0.000000 0.000000
# 3 -0.002820 0.000284 0.008194 0.000000 0.000000 0.000000
# 4 0.000000 0.000000 0.000000 -0.018223 0.000000 0.000000
# 5 0.000000 0.000000 0.000000 0.000000 0.033241 0.000000
# 6 0.000000 0.000000 0.000000 0.000000 0.000000 0.019808
#
#
# Mechanical properties :
#
#
# Convention : Reuss Voigt Hill
#
# Bulk Modulus (GPa) = 84.20396 87.98816 86.09606
# Shear Modulus (GPa) = 71.83772 30.44643 51.14208
#
# Velocity S-wave (km/s) = 5.62375 3.66115 4.74503
# Velocity P-wave (km/s) = 8.90166 7.52389 8.24161
#
# Compressibility (1/GPa) = 0.01187593
#
# Stress axis : x y z
#
# Youngs Moduli (GPa) = 132.55904 178.29704 122.04461
#
# Poissons Ratio (x) = 0.39202 0.34419
# Poissons Ratio (y) = 0.29146 -0.03463
# Poissons Ratio (z) = 0.37384 -0.05059
#
# Static dielectric constant tensor:
#      x y z
#    x 1.924520 0.000000 0.000000 
#    y 0.000000 1.879960 0.000000 
#    z 0.000000 0.000000 1.854280 
# 
# From -- ./inp_files/15635.got.cif
#   From: 2010.05.17/outbox.cif.g08.bks.cpg/sg54_8_cif.got.tgz:15635.got - 2010.06.03 13:09:01.
