data_PCOD9423624
_publ_section_title
;
Structure prediction by ZEFSAII (Michael W. Deem and Ramdas Pophale) SiO2 
 PCOD9423624
Probable space group: P C C A
;
_chemical_formula_sum "Si O2"
_cell_formula_units_Z 16
_cell_length_a 7.119511
_cell_length_b 5.654052
_cell_length_c 13.708985
_cell_angle_alpha 90.000000
_cell_angle_beta 90.000000
_cell_angle_gamma 90.000000
_cell_volume 551.842653
_symmetry_space_group_name_H-M "P C C A"
_symmetry_group_IT_number 54
_symmetry_cell_setting 'orthorhombic'
loop_
_space_group_symop_operation_xyz
x,y,z
1/2-x,-y,z
1/2+x,-y,1/2-z
-x,y,1/2-z
-x,-y,-z
1/2+x,y,-z
1/2-x,y,1/2+z
x,-y,1/2+z
loop_
_atom_site_type_symbol
_atom_site_label
_atom_site_fract_x
_atom_site_fract_y
_atom_site_fract_z
Si Si1 0.250000 0.500000 0.457223
Si Si2 0.418625 0.235143 0.622996
Si Si3 0.750000 0.000000 0.704952
O O1 0.288918 0.279401 0.529644
O O2 0.431189 0.555383 0.393056
O O3 0.289042 0.213042 0.718329
O O4 0.437149 0.984468 0.360218
#
# Coordination Sequence:
#
# PCOD9423624 Si02
#       3
#     4   8   4
#     4  10  24  46  72  98 136 182 228 274 340 410
#     4  10  24  43  68 100 138 179 224 280 340 405
#     4  10  24  40  64 100 140 172 220 280 340 392
#
# _framework density 28.993773999999998
#
# number of rings (size 3 to 8) (size 9 to 14) (size 15 to 20)
#    0.000    2.000    0.000    0.000    0.000   30.000 
#    0.000    0.000    0.000    0.000    0.000    0.000 
#    0.000    0.000    0.000    0.000    0.000    0.000 
#
# Total GULP energy -89205.718962 kJ/mol
# GULP energy per Si atom -5575.357435 kJ/mol
# Density = 2.892778 g / cm^3
# Si number density = 28.993774 Si / 1000 Ang^3
#
#
#
# Elastic Constant Matrix: (Units=GPa)
#
#
# Indices 1 2 3 4 5 6 
#
# 1 161.6283 75.1931 41.0576 0.0000 0.0000 0.0000
# 2 75.1931 114.4431 104.3972 0.0000 0.0000 0.0000
# 3 41.0576 104.3972 164.2205 0.0000 0.0000 0.0000
# 4 0.0000 0.0000 0.0000 70.5578 0.0000 0.0000
# 5 0.0000 0.0000 0.0000 0.0000 41.0554 0.0000
# 6 0.0000 0.0000 0.0000 0.0000 0.0000 65.6646
#
#
#
# Elastic Compliance Matrix: (Units=1/GPa)
#
#
# Indices 1 2 3 4 5 6 
#
# 1 0.009878 -0.010087 0.003943 0.000000 0.000000 0.000000
# 2 -0.010087 0.031100 -0.017249 0.000000 0.000000 0.000000
# 3 0.003943 -0.017249 0.016069 0.000000 0.000000 0.000000
# 4 0.000000 0.000000 0.000000 0.014173 0.000000 0.000000
# 5 0.000000 0.000000 0.000000 0.000000 0.024357 0.000000
# 6 0.000000 0.000000 0.000000 0.000000 0.000000 0.015229
#
#
# Mechanical properties :
#
#
# Convention : Reuss Voigt Hill
#
# Bulk Modulus (GPa) = 97.45547 97.95419 97.70483
# Shear Modulus (GPa) = 31.05336 50.09849 40.57592
#
# Velocity S-wave (km/s) = 3.27622 4.16132 3.74501
# Velocity P-wave (km/s) = 6.92799 7.54630 7.24374
#
# Compressibility (1/GPa) = 0.01026110
#
# Stress axis : x y z
#
# Youngs Moduli (GPa) = 101.23375 32.15408 62.23139
#
# Poissons Ratio (x) = 0.32433 -0.24536
# Poissons Ratio (y) = 1.02113 1.07343
# Poissons Ratio (z) = -0.39913 0.55463
#
# Static dielectric constant tensor:
#      x y z
#    x 2.294570 0.000000 0.000000 
#    y 0.000000 2.348620 0.000000 
#    z 0.000000 0.000000 2.283130 
# 
# From -- ./inp_files/2354.got.cif
#   From: 2010.05.17/outbox.cif.g08.bks.cpg/sg54_2_cif.got.tgz:2354.got - 2010.06.03 13:09:01.
