data_PCOD9423279
_publ_section_title
;
Structure prediction by ZEFSAII (Michael W. Deem and Ramdas Pophale) SiO2 
 PCOD9423279
Probable space group: P C C A
;
_chemical_formula_sum "Si O2"
_cell_formula_units_Z 40
_cell_length_a 22.808811
_cell_length_b 14.448337
_cell_length_c 5.270359
_cell_angle_alpha 90.000000
_cell_angle_beta 90.000000
_cell_angle_gamma 90.000000
_cell_volume 1736.843582
_symmetry_space_group_name_H-M "P C C A"
_symmetry_group_IT_number 54
_symmetry_cell_setting 'orthorhombic'
loop_
_space_group_symop_operation_xyz
x,y,z
1/2-x,-y,z
1/2+x,-y,1/2-z
-x,y,1/2-z
-x,-y,-z
1/2+x,y,-z
1/2-x,y,1/2+z
x,-y,1/2+z
loop_
_atom_site_type_symbol
_atom_site_label
_atom_site_fract_x
_atom_site_fract_y
_atom_site_fract_z
Si Si1 0.330030 0.943334 0.770495
Si Si2 0.315553 0.538467 0.630743
Si Si3 0.146126 0.734520 0.250546
Si Si4 0.932504 0.253310 0.254027
Si Si5 0.958823 0.085004 0.562775
O O1 0.318857 0.832475 0.770023
O O2 0.400799 0.942370 0.787928
O O3 0.312158 0.999188 0.519988
O O4 0.250000 0.500000 0.595327
O O5 0.344925 0.517825 0.360629
O O6 0.313806 0.645556 0.703470
O O7 0.107855 0.717121 0.505550
O O8 0.102809 0.737316 0.006910
O O9 0.939344 0.144408 0.323260
O O10 0.000000 0.289731 0.250000
O O11 0.000000 0.146099 0.750000
O O12 0.000000 0.000000 0.500000
#
# Coordination Sequence:
#
# PCOD9423279 Si02
#       5
#     8   8   8   8   8
#     4  11  21  31  45  77 122 175 212 239 301 352
#     4  10  22  44  76 106 117 137 195 286 367 407
#     4  11  23  38  59  89 131 165 213 278 317 373
#     4  11  22  35  50  81 127 185 223 254 302 355
#     4  11  19  26  45  68 113 173 242 276 269 303
#
# _framework density 23.030284999999999
#
# number of rings (size 3 to 8) (size 9 to 14) (size 15 to 20)
#    0.000    1.200    2.000    7.200    2.800    0.000 
#    0.000    0.000    0.000   12.000    0.000   16.800 
#    0.000    0.000    0.000    0.000    0.000    0.000 
#
# Total GULP energy -223398.779876 kJ/mol
# GULP energy per Si atom -5584.969497 kJ/mol
# Density = 2.297787 g / cm^3
# Si number density = 23.030285 Si / 1000 Ang^3
#
#
#
# Elastic Constant Matrix: (Units=GPa)
#
#
# Indices 1 2 3 4 5 6 
#
# 1 77.4787 25.0673 14.6551 0.0000 0.0000 0.0000
# 2 25.0673 122.0096 15.6829 0.0000 0.0000 0.0000
# 3 14.6551 15.6829 179.7088 0.0000 0.0000 0.0000
# 4 0.0000 0.0000 0.0000 31.6605 0.0000 0.0000
# 5 0.0000 0.0000 0.0000 0.0000 -80.1385 0.0000
# 6 0.0000 0.0000 0.0000 0.0000 0.0000 40.4820
#
#
#
# Elastic Compliance Matrix: (Units=1/GPa)
#
#
# Indices 1 2 3 4 5 6 
#
# 1 0.013968 -0.002754 -0.000899 0.000000 0.000000 0.000000
# 2 -0.002754 0.008832 -0.000546 0.000000 0.000000 0.000000
# 3 -0.000899 -0.000546 0.005686 0.000000 0.000000 0.000000
# 4 0.000000 0.000000 0.000000 0.031585 0.000000 0.000000
# 5 0.000000 0.000000 0.000000 0.000000 -0.012478 0.000000
# 6 0.000000 0.000000 0.000000 0.000000 0.000000 0.024702
#
#
# Mechanical properties :
#
#
# Convention : Reuss Voigt Hill
#
# Bulk Modulus (GPa) = 49.78266 54.44530 52.11398
# Shear Modulus (GPa) = 57.21576 19.98692 38.60134
#
# Velocity S-wave (km/s) = 4.98975 2.94913 4.09848
# Velocity P-wave (km/s) = 7.40675 5.94042 6.71374
#
# Compressibility (1/GPa) = 0.02008731
#
# Stress axis : x y z
#
# Youngs Moduli (GPa) = 71.59291 113.22273 175.88568
#
# Poissons Ratio (x) = 0.31184 0.15807
# Poissons Ratio (y) = 0.19718 0.09606
# Poissons Ratio (z) = 0.06434 0.06184
#
# Static dielectric constant tensor:
#      x y z
#    x 1.782410 0.000000 0.000000 
#    y 0.000000 1.904900 0.000000 
#    z 0.000000 0.000000 2.129510 
# 
# From -- ./inp_files/2107.got.cif
#   From: 2010.05.17/outbox.cif.g08.bks.cpg/sg54_2_cif.got.tgz:2107.got - 2010.06.03 13:09:01.
