data_PCOD9423586
_publ_section_title
;
Structure prediction by ZEFSAII (Michael W. Deem and Ramdas Pophale) SiO2 
 PCOD9423586
Probable space group: P C C A
;
_chemical_formula_sum "Si O2"
_cell_formula_units_Z 32
_cell_length_a 18.254839
_cell_length_b 4.985517
_cell_length_c 13.879664
_cell_angle_alpha 90.000000
_cell_angle_beta 90.000000
_cell_angle_gamma 90.000000
_cell_volume 1263.185586
_symmetry_space_group_name_H-M "P C C A"
_symmetry_group_IT_number 54
_symmetry_cell_setting 'orthorhombic'
loop_
_space_group_symop_operation_xyz
x,y,z
1/2-x,-y,z
1/2+x,-y,1/2-z
-x,y,1/2-z
-x,-y,-z
1/2+x,y,-z
1/2-x,y,1/2+z
x,-y,1/2+z
loop_
_atom_site_type_symbol
_atom_site_label
_atom_site_fract_x
_atom_site_fract_y
_atom_site_fract_z
Si Si1 0.134018 0.286936 0.704484
Si Si2 0.954627 0.336655 0.164511
Si Si3 0.396797 0.239737 0.578558
Si Si4 0.672268 0.932190 0.610487
O O1 0.071583 0.396293 0.779666
O O2 0.149104 0.545082 0.639824
O O3 0.190630 0.199233 0.786151
O O4 0.114582 0.047870 0.630817
O O5 0.000000 0.187267 0.250000
O O6 0.018479 0.333955 0.085800
O O7 0.882637 0.177453 0.133416
O O8 0.370857 0.237365 0.469277
O O9 0.750000 0.000000 0.564194
#
# Coordination Sequence:
#
# PCOD9423586 Si02
#       4
#     8   8   8   8
#     4  11  25  49  77 112 151 201 254 318 375 450
#     4  10  23  47  78 108 151 200 255 317 375 445
#     4  11  27  47  81 112 152 198 267 315 377 454
#     4  12  28  51  76 116 157 207 252 315 395 463
#
# _framework density 25.332778000000001
#
# number of rings (size 3 to 8) (size 9 to 14) (size 15 to 20)
#    0.000    1.000    5.000    0.750   14.000    3.000 
#    4.500    0.000    0.000    0.000    0.000    0.000 
#    0.000    0.000    0.000    0.000    0.000    0.000 
#
# Total GULP energy -178690.662758 kJ/mol
# GULP energy per Si atom -5584.083211 kJ/mol
# Density = 2.527512 g / cm^3
# Si number density = 25.332778 Si / 1000 Ang^3
#
#
#
# Elastic Constant Matrix: (Units=GPa)
#
#
# Indices 1 2 3 4 5 6 
#
# 1 73.2480 1.0748 23.9055 0.0000 0.0000 0.0000
# 2 1.0748 140.0049 59.1382 0.0000 0.0000 0.0000
# 3 23.9055 59.1382 153.2067 0.0000 0.0000 0.0000
# 4 0.0000 0.0000 0.0000 32.1032 0.0000 0.0000
# 5 0.0000 0.0000 0.0000 0.0000 44.8680 0.0000
# 6 0.0000 0.0000 0.0000 0.0000 0.0000 27.4284
#
#
#
# Elastic Compliance Matrix: (Units=1/GPa)
#
#
# Indices 1 2 3 4 5 6 
#
# 1 0.014503 0.001009 -0.002652 0.000000 0.000000 0.000000
# 2 0.001009 0.008604 -0.003479 0.000000 0.000000 0.000000
# 3 -0.002652 -0.003479 0.008284 0.000000 0.000000 0.000000
# 4 0.000000 0.000000 0.000000 0.031150 0.000000 0.000000
# 5 0.000000 0.000000 0.000000 0.000000 0.022288 0.000000
# 6 0.000000 0.000000 0.000000 0.000000 0.000000 0.036459
#
#
# Mechanical properties :
#
#
# Convention : Reuss Voigt Hill
#
# Bulk Modulus (GPa) = 47.28819 59.41073 53.34946
# Shear Modulus (GPa) = 36.08020 39.70266 37.89143
#
# Velocity S-wave (km/s) = 3.77802 3.96314 3.87168
# Velocity P-wave (km/s) = 6.14317 6.66671 6.41029
#
# Compressibility (1/GPa) = 0.02114693
#
# Stress axis : x y z
#
# Youngs Moduli (GPa) = 68.95064 116.22136 120.71751
#
# Poissons Ratio (x) = -0.11728 0.32020
# Poissons Ratio (y) = -0.06958 0.41994
# Poissons Ratio (z) = 0.18289 0.40430
#
# Static dielectric constant tensor:
#      x y z
#    x 2.272210 0.000000 0.000000 
#    y 0.000000 2.056900 0.000000 
#    z 0.000000 0.000000 2.051190 
# 
# From -- ./inp_files/13715.got.cif
#   From: 2010.05.17/outbox.cif.g08.bks.cpg/sg54_7_cif.got.tgz:13715.got - 2010.06.03 13:09:01.
