data_PCOD9423989
_publ_section_title
;
Structure prediction by ZEFSAII (Michael W. Deem and Ramdas Pophale) SiO2 
 PCOD9423989
Probable space group: P C C A
;
_chemical_formula_sum "Si O2"
_cell_formula_units_Z 48
_cell_length_a 15.771087
_cell_length_b 8.482858
_cell_length_c 14.260918
_cell_angle_alpha 90.000000
_cell_angle_beta 90.000000
_cell_angle_gamma 90.000000
_cell_volume 1907.881107
_symmetry_space_group_name_H-M "P C C A"
_symmetry_group_IT_number 54
_symmetry_cell_setting 'orthorhombic'
loop_
_space_group_symop_operation_xyz
x,y,z
1/2-x,-y,z
1/2+x,-y,1/2-z
-x,y,1/2-z
-x,-y,-z
1/2+x,y,-z
1/2-x,y,1/2+z
x,-y,1/2+z
loop_
_atom_site_type_symbol
_atom_site_label
_atom_site_fract_x
_atom_site_fract_y
_atom_site_fract_z
Si Si1 0.648513 0.996941 0.514061
Si Si2 0.654918 0.925824 0.712369
Si Si3 0.115621 0.645246 0.994807
Si Si4 0.769691 0.663816 0.332814
Si Si5 0.487881 0.504326 0.856232
Si Si6 0.087311 0.825135 0.658924
O O1 0.635480 0.889601 0.605142
O O2 0.589573 0.936026 0.431438
O O3 0.750000 0.000000 0.488456
O O4 0.622802 0.175008 0.538272
O O5 0.664848 0.776157 0.779107
O O6 0.750000 0.000000 0.709869
O O7 0.591233 0.056675 0.752900
O O8 0.102282 0.531414 0.905660
O O9 0.194128 0.626851 0.064667
O O10 0.039171 0.607083 0.067817
O O11 0.750000 0.500000 0.282369
O O12 0.681098 0.750208 0.341158
O O13 0.500000 0.564757 0.750000
O O14 0.527480 0.325970 0.849973
#
# Coordination Sequence:
#
# PCOD9423989 Si02
#       6
#     8   8   8   8   8   8
#     4  11  20  39  69  99 135 171 229 292 346 414
#     4   9  20  36  61  99 134 175 223 285 351 404
#     4  11  23  45  69  97 137 186 229 286 354 413
#     4  11  20  41  68  99 136 177 226 290 348 411
#     4  11  26  46  67  95 144 189 233 283 349 434
#     4  11  20  40  67  95 136 176 228 293 344 403
#
# _framework density 25.158799999999999
#
# number of rings (size 3 to 8) (size 9 to 14) (size 15 to 20)
#    0.000    1.333    5.000    1.500    0.000    0.667 
#    6.000    1.667    0.000    0.000    0.000    0.000 
#    0.000    0.000    0.000    0.000    0.000    0.000 
#
# Total GULP energy -268428.707593 kJ/mol
# GULP energy per Si atom -5592.264742 kJ/mol
# Density = 2.510154 g / cm^3
# Si number density = 25.158800 Si / 1000 Ang^3
#
#
#
# Elastic Constant Matrix: (Units=GPa)
#
#
# Indices 1 2 3 4 5 6 
#
# 1 46.6363 13.5534 2.5776 0.0000 0.0000 0.0000
# 2 13.5534 72.4996 -1.7960 0.0000 0.0000 0.0000
# 3 2.5776 -1.7960 118.1421 0.0000 0.0000 0.0000
# 4 0.0000 0.0000 0.0000 -1.6133 0.0000 0.0000
# 5 0.0000 0.0000 0.0000 0.0000 13.8657 0.0000
# 6 0.0000 0.0000 0.0000 0.0000 0.0000 29.1869
#
#
#
# Elastic Compliance Matrix: (Units=1/GPa)
#
#
# Indices 1 2 3 4 5 6 
#
# 1 0.022711 -0.004260 -0.000560 0.000000 0.000000 0.000000
# 2 -0.004260 0.014597 0.000315 0.000000 0.000000 0.000000
# 3 -0.000560 0.000315 0.008481 0.000000 0.000000 0.000000
# 4 0.000000 0.000000 0.000000 -0.619842 0.000000 0.000000
# 5 0.000000 0.000000 0.000000 0.000000 0.072120 0.000000
# 6 0.000000 0.000000 0.000000 0.000000 0.000000 0.034262
#
#
# Mechanical properties :
#
#
# Convention : Reuss Voigt Hill
#
# Bulk Modulus (GPa) = 27.18871 29.54977 28.36924
# Shear Modulus (GPa) = -11.20074 23.15072 5.97499
#
# Velocity S-wave (km/s) = -2.11227 3.03674 1.54275
# Velocity P-wave (km/s) = 2.20939 4.90577 3.80447
#
# Compressibility (1/GPa) = 0.03677998
#
# Stress axis : x y z
#
# Youngs Moduli (GPa) = 44.03068 68.50587 117.90517
#
# Poissons Ratio (x) = 0.29181 0.06606
# Poissons Ratio (y) = 0.18756 -0.03712
# Poissons Ratio (z) = 0.02467 -0.02157
#
# Static dielectric constant tensor:
#      x y z
#    x 2.105930 0.000000 0.000000 
#    y 0.000000 2.011800 0.000000 
#    z 0.000000 0.000000 2.055120 
# 
# From -- ./inp_files/14138.got.cif
#   From: 2010.05.17/outbox.cif.g08.bks.cpg/sg54_8_cif.got.tgz:14138.got - 2010.06.03 13:09:01.
