data_PCOD9423531
_publ_section_title
;
Structure prediction by ZEFSAII (Michael W. Deem and Ramdas Pophale) SiO2 
 PCOD9423531
Probable space group: P C C A
;
_chemical_formula_sum "Si O2"
_cell_formula_units_Z 48
_cell_length_a 26.085717
_cell_length_b 5.676536
_cell_length_c 13.915331
_cell_angle_alpha 90.000000
_cell_angle_beta 90.000000
_cell_angle_gamma 90.000000
_cell_volume 2060.533673
_symmetry_space_group_name_H-M "P C C A"
_symmetry_group_IT_number 54
_symmetry_cell_setting 'orthorhombic'
loop_
_space_group_symop_operation_xyz
x,y,z
1/2-x,-y,z
1/2+x,-y,1/2-z
-x,y,1/2-z
-x,-y,-z
1/2+x,y,-z
1/2-x,y,1/2+z
x,-y,1/2+z
loop_
_atom_site_type_symbol
_atom_site_label
_atom_site_fract_x
_atom_site_fract_y
_atom_site_fract_z
Si Si1 0.859402 0.033690 0.117697
Si Si2 0.533222 0.755769 0.101770
Si Si3 0.800347 0.653808 0.746506
Si Si4 0.876910 0.727749 0.305454
Si Si5 0.508239 0.739342 0.881506
Si Si6 0.693455 0.042790 0.936869
O O1 0.906491 0.200114 0.089034
O O2 0.811083 0.181942 0.155699
O O3 0.876448 0.896491 0.212874
O O4 0.842537 0.880674 0.025705
O O5 0.522063 0.499456 0.147838
O O6 0.512266 0.000906 0.147478
O O7 0.506742 0.745329 0.997337
O O8 0.750000 0.500000 0.731103
O O9 0.852077 0.508042 0.764807
O O10 0.795141 0.790315 0.846635
O O11 0.933278 0.710701 0.348323
O O12 0.837656 0.828798 0.386169
O O13 0.750000 0.000000 0.976680
#
# Coordination Sequence:
#
# PCOD9423531 Si02
#       6
#     8   8   8   8   8   8
#     4  11  27  44  72 107 144 188 248 300 365 446
#     4  10  23  45  72 108 140 192 251 297 367 450
#     4  11  26  47  71 103 144 184 242 303 367 438
#     4  11  25  46  69 104 145 188 237 306 360 434
#     4  10  23  44  74 101 147 193 241 305 369 439
#     4  11  24  46  72 100 143 192 236 297 371 438
#
# _framework density 23.294936
#
# number of rings (size 3 to 8) (size 9 to 14) (size 15 to 20)
#    0.000    1.333    3.333    0.000    9.333    3.333 
#    0.000    0.000    0.000    0.000    0.000    0.000 
#    0.000    0.000    0.000    0.000    0.000    0.000 
#
# Total GULP energy -268111.337950 kJ/mol
# GULP energy per Si atom -5585.652874 kJ/mol
# Density = 2.324192 g / cm^3
# Si number density = 23.294936 Si / 1000 Ang^3
#
#
#
# Elastic Constant Matrix: (Units=GPa)
#
#
# Indices 1 2 3 4 5 6 
#
# 1 106.3902 35.4354 8.1278 0.0000 0.0000 0.0000
# 2 35.4354 104.3895 14.3146 0.0000 0.0000 0.0000
# 3 8.1278 14.3146 65.6366 0.0000 0.0000 0.0000
# 4 0.0000 0.0000 0.0000 -8.3927 0.0000 0.0000
# 5 0.0000 0.0000 0.0000 0.0000 71.7097 0.0000
# 6 0.0000 0.0000 0.0000 0.0000 0.0000 38.7629
#
#
#
# Elastic Compliance Matrix: (Units=1/GPa)
#
#
# Indices 1 2 3 4 5 6 
#
# 1 0.010616 -0.003529 -0.000545 0.000000 0.000000 0.000000
# 2 -0.003529 0.011048 -0.001972 0.000000 0.000000 0.000000
# 3 -0.000545 -0.001972 0.015733 0.000000 0.000000 0.000000
# 4 0.000000 0.000000 0.000000 -0.119151 0.000000 0.000000
# 5 0.000000 0.000000 0.000000 0.000000 0.013945 0.000000
# 6 0.000000 0.000000 0.000000 0.000000 0.000000 0.025798
#
#
# Mechanical properties :
#
#
# Convention : Reuss Voigt Hill
#
# Bulk Modulus (GPa) = 39.51869 43.57464 41.54667
# Shear Modulus (GPa) = -232.74176 34.98521 -98.87828
#
# Velocity S-wave (km/s) = -10.00639 3.87956 -6.52215
# Velocity P-wave (km/s) = 10.79363 6.23011 6.23250
#
# Compressibility (1/GPa) = 0.02530448
#
# Stress axis : x y z
#
# Youngs Moduli (GPa) = 94.19373 90.51465 63.56044
#
# Poissons Ratio (x) = 0.31943 0.03464
# Poissons Ratio (y) = 0.33241 0.12537
# Poissons Ratio (z) = 0.05133 0.17853
#
# Static dielectric constant tensor:
#      x y z
#    x 1.838690 0.000000 0.000000 
#    y 0.000000 1.980300 0.000000 
#    z 0.000000 0.000000 1.847600 
# 
# From -- ./inp_files/15175.got.cif
#   From: 2010.05.17/outbox.cif.g08.bks.cpg/sg54_8_cif.got.tgz:15175.got - 2010.06.03 13:09:01.
