data_PCOD9423951
_publ_section_title
;
Structure prediction by ZEFSAII (Michael W. Deem and Ramdas Pophale) SiO2 
 PCOD9423951
Probable space group: P C C A
;
_chemical_formula_sum "Si O2"
_cell_formula_units_Z 32
_cell_length_a 12.513970
_cell_length_b 9.627723
_cell_length_c 9.728851
_cell_angle_alpha 90.000000
_cell_angle_beta 90.000000
_cell_angle_gamma 90.000000
_cell_volume 1172.142055
_symmetry_space_group_name_H-M "P C C A"
_symmetry_group_IT_number 54
_symmetry_cell_setting 'orthorhombic'
loop_
_space_group_symop_operation_xyz
x,y,z
1/2-x,-y,z
1/2+x,-y,1/2-z
-x,y,1/2-z
-x,-y,-z
1/2+x,y,-z
1/2-x,y,1/2+z
x,-y,1/2+z
loop_
_atom_site_type_symbol
_atom_site_label
_atom_site_fract_x
_atom_site_fract_y
_atom_site_fract_z
Si Si1 0.119337 0.390848 0.216482
Si Si2 0.750000 0.000000 0.225358
Si Si3 0.500000 0.337431 0.250000
Si Si4 0.753310 0.734361 0.039296
Si Si5 0.931678 0.093855 0.901963
O O1 0.094405 0.556459 0.214473
O O2 0.192762 0.360854 0.348502
O O3 0.168968 0.659008 0.571125
O O4 0.000000 0.330900 0.250000
O O5 0.721196 0.132021 0.133837
O O6 0.636754 0.985081 0.306403
O O7 0.487261 0.221184 0.365531
O O8 0.666160 0.811341 0.946219
O O9 0.000000 0.000000 0.000000
#
# Coordination Sequence:
#
# PCOD9423951 Si02
#       5
#     8   4   4   8   8
#     4  10  28  57  88 134 190 248 320 394 485 588
#     4  12  28  54  90 136 186 252 314 402 480 578
#     4  10  28  60  86 138 186 250 312 404 484 580
#     4  12  26  55  90 131 186 253 318 391 486 575
#     4  12  28  53  91 134 183 241 318 393 486 577
#
# _framework density 27.300445
#
# number of rings (size 3 to 8) (size 9 to 14) (size 15 to 20)
#    0.750    0.000    2.500    2.250    3.500    4.000 
#   13.500    0.000    0.000    0.000    0.000    0.000 
#    0.000    0.000    0.000    0.000    0.000    0.000 
#
# Total GULP energy -178461.135602 kJ/mol
# GULP energy per Si atom -5576.910488 kJ/mol
# Density = 2.723831 g / cm^3
# Si number density = 27.300445 Si / 1000 Ang^3
#
#
#
# Elastic Constant Matrix: (Units=GPa)
#
#
# Indices 1 2 3 4 5 6 
#
# 1 186.2759 129.4873 121.8133 0.0000 0.0000 0.0000
# 2 129.4873 191.8735 88.7174 0.0000 0.0000 0.0000
# 3 121.8133 88.7174 173.1284 0.0000 0.0000 0.0000
# 4 0.0000 0.0000 0.0000 70.3825 0.0000 0.0000
# 5 0.0000 0.0000 0.0000 0.0000 34.2774 0.0000
# 6 0.0000 0.0000 0.0000 0.0000 0.0000**********
#
#
#
# Elastic Compliance Matrix: (Units=1/GPa)
#
#
# Indices 1 2 3 4 5 6 
#
# 1 0.014317 -0.006558 -0.006713 0.000000 0.000000 0.000000
# 2 -0.006558 0.009834 -0.000425 0.000000 0.000000 0.000000
# 3 -0.006713 -0.000425 0.010717 0.000000 0.000000 0.000000
# 4 0.000000 0.000000 0.000000 0.014208 0.000000 0.000000
# 5 0.000000 0.000000 0.000000 0.000000 0.029174 0.000000
# 6 0.000000 0.000000 0.000000 0.000000 0.000000 -0.000043
#
#
# Mechanical properties :
#
#
# Convention : Reuss Voigt Hill
#
# Bulk Modulus (GPa) = 133.75926 136.81264 135.28595
# Shear Modulus (GPa) = 46.25761 -4578.68979 -2266.21609
#
# Velocity S-wave (km/s) = 4.12076 -40.99743 -28.84275
# Velocity P-wave (km/s) = 8.47010 46.80630 32.55063
#
# Compressibility (1/GPa) = 0.00747612
#
# Stress axis : x y z
#
# Youngs Moduli (GPa) = 69.84760 101.68736 93.30953
#
# Poissons Ratio (x) = 0.66687 0.62637
# Poissons Ratio (y) = 0.45806 0.03967
# Poissons Ratio (z) = 0.46887 0.04323
#
# Static dielectric constant tensor:
#      x y z
#    x 2.262800 0.000000 0.000000 
#    y 0.000000 2.115320 0.000000 
#    z 0.000000 0.000000 2.324040 
# 
# From -- ./inp_files/8013.got.cif
#   From: 2010.05.17/outbox.cif.g08.bks.cpg/sg54_5_cif.got.tgz:8013.got - 2010.06.03 13:09:01.
