data_PCOD9423456
_publ_section_title
;
Structure prediction by ZEFSAII (Michael W. Deem and Ramdas Pophale) SiO2 
 PCOD9423456
Probable space group: P C C A
;
_chemical_formula_sum "Si O2"
_cell_formula_units_Z 48
_cell_length_a 8.244074
_cell_length_b 8.442123
_cell_length_c 29.909664
_cell_angle_alpha 90.000000
_cell_angle_beta 90.000000
_cell_angle_gamma 90.000000
_cell_volume 2081.637443
_symmetry_space_group_name_H-M "P C C A"
_symmetry_group_IT_number 54
_symmetry_cell_setting 'orthorhombic'
loop_
_space_group_symop_operation_xyz
x,y,z
1/2-x,-y,z
1/2+x,-y,1/2-z
-x,y,1/2-z
-x,-y,-z
1/2+x,y,-z
1/2-x,y,1/2+z
x,-y,1/2+z
loop_
_atom_site_type_symbol
_atom_site_label
_atom_site_fract_x
_atom_site_fract_y
_atom_site_fract_z
Si Si1 0.435355 0.125921 0.036673
Si Si2 0.434018 0.557557 0.700987
Si Si3 0.647722 0.650841 0.488979
Si Si4 0.066669 0.585853 0.607929
Si Si5 0.431172 0.936243 0.702967
Si Si6 0.431423 0.054566 0.884364
O O1 0.262970 0.205239 0.027627
O O2 0.450100 0.047645 0.084346
O O3 0.554024 0.274048 0.030124
O O4 0.500000 0.000000 0.000000
O O5 0.250000 0.500000 0.700419
O O6 0.500000 0.503931 0.750000
O O7 0.506407 0.499961 0.652712
O O8 0.433205 0.746852 0.701225
O O9 0.750000 0.500000 0.502163
O O10 0.542232 0.595064 0.446207
O O11 0.250000 0.500000 0.607403
O O12 0.003116 0.767167 0.616154
O O13 0.500000 0.992264 0.750000
O O14 0.250000 0.000000 0.695264
O O15 0.551228 0.996680 0.665536
O O16 0.250000 0.000000 0.900441
#
# Coordination Sequence:
#
# PCOD9423456 Si02
#       6
#     8   8   8   8   8   8
#     4  12  25  44  71 104 144 188 243 306 372 437
#     4  10  23  42  68 100 137 183 236 292 362 430
#     4  11  25  45  72 101 144 191 249 299 372 450
#     4  10  23  43  72  99 140 190 246 287 374 445
#     4  11  25  44  73 106 145 190 243 303 372 449
#     4  12  27  44  70 106 147 189 247 308 370 446
#
# _framework density 23.058772000000001
#
# number of rings (size 3 to 8) (size 9 to 14) (size 15 to 20)
#    0.000    1.000    1.667    4.500    9.333    5.333 
#    0.000    0.000    0.000    0.000    0.000    0.000 
#    0.000    0.000    0.000    0.000    0.000    0.000 
#
# Total GULP energy -267371.833589 kJ/mol
# GULP energy per Si atom -5570.246533 kJ/mol
# Density = 2.300629 g / cm^3
# Si number density = 23.058772 Si / 1000 Ang^3
#
#
#
# Elastic Constant Matrix: (Units=GPa)
#
#
# Indices 1 2 3 4 5 6 
#
# 1 72.7819 34.4575 11.3729 0.0000 0.0000 0.0000
# 2 34.4575 127.3556 47.4857 0.0000 0.0000 0.0000
# 3 11.3729 47.4857 80.5223 0.0000 0.0000 0.0000
# 4 0.0000 0.0000 0.0000 50.4166 0.0000 0.0000
# 5 0.0000 0.0000 0.0000 0.0000 30.9937 0.0000
# 6 0.0000 0.0000 0.0000 0.0000 0.0000 6.1505
#
#
#
# Elastic Compliance Matrix: (Units=1/GPa)
#
#
# Indices 1 2 3 4 5 6 
#
# 1 0.015767 -0.004404 0.000370 0.000000 0.000000 0.000000
# 2 -0.004404 0.011295 -0.006039 0.000000 0.000000 0.000000
# 3 0.000370 -0.006039 0.015928 0.000000 0.000000 0.000000
# 4 0.000000 0.000000 0.000000 0.019835 0.000000 0.000000
# 5 0.000000 0.000000 0.000000 0.000000 0.032265 0.000000
# 6 0.000000 0.000000 0.000000 0.000000 0.000000 0.162589
#
#
# Mechanical properties :
#
#
# Convention : Reuss Voigt Hill
#
# Bulk Modulus (GPa) = 43.77418 51.92131 47.84774
# Shear Modulus (GPa) = 17.51689 30.00175 23.75932
#
# Velocity S-wave (km/s) = 2.75919 3.61099 3.21344
# Velocity P-wave (km/s) = 5.40146 6.32072 5.87908
#
# Compressibility (1/GPa) = 0.02284452
#
# Stress axis : x y z
#
# Youngs Moduli (GPa) = 63.42441 88.53259 62.78257
#
# Poissons Ratio (x) = 0.38989 -0.02324
# Poissons Ratio (y) = 0.27932 0.37915
# Poissons Ratio (z) = -0.02348 0.53465
#
# Static dielectric constant tensor:
#      x y z
#    x 1.945160 0.000000 0.000000 
#    y 0.000000 1.809730 0.000000 
#    z 0.000000 0.000000 1.867780 
# 
# From -- ./inp_files/27752.got.cif
#   From: 2010.05.17/outbox.cif.g08.bks.cpg/sg54_14_cif.got.tgz:27752.got - 2010.06.03 13:09:01.
