data_PCOD9423726
_publ_section_title
;
Structure prediction by ZEFSAII (Michael W. Deem and Ramdas Pophale) SiO2 
 PCOD9423726
Probable space group: P C C A
;
_chemical_formula_sum "Si O2"
_cell_formula_units_Z 48
_cell_length_a 7.358060
_cell_length_b 17.179775
_cell_length_c 14.686330
_cell_angle_alpha 90.000000
_cell_angle_beta 90.000000
_cell_angle_gamma 90.000000
_cell_volume 1856.496262
_symmetry_space_group_name_H-M "P C C A"
_symmetry_group_IT_number 54
_symmetry_cell_setting 'orthorhombic'
loop_
_space_group_symop_operation_xyz
x,y,z
1/2-x,-y,z
1/2+x,-y,1/2-z
-x,y,1/2-z
-x,-y,-z
1/2+x,y,-z
1/2-x,y,1/2+z
x,-y,1/2+z
loop_
_atom_site_type_symbol
_atom_site_label
_atom_site_fract_x
_atom_site_fract_y
_atom_site_fract_z
Si Si1 0.750000 0.000000 0.880885
Si Si2 0.420930 0.605262 0.423637
Si Si3 0.500000 0.774720 0.750000
Si Si4 0.112910 0.842925 0.080414
Si Si5 0.999588 0.223171 0.112178
Si Si6 0.481660 0.619588 0.867373
Si Si7 0.000000 0.102702 0.250000
Si Si8 0.750000 0.500000 0.355961
O O1 0.840355 0.067703 0.940425
O O2 0.616394 0.047967 0.815089
O O3 0.469238 0.686202 0.373996
O O4 0.424769 0.622746 0.531672
O O5 0.218445 0.585553 0.389865
O O6 0.364148 0.570544 0.688323
O O7 0.490774 0.839926 0.831264
O O8 0.455089 0.704503 0.825299
O O9 0.287426 0.795884 0.119365
O O10 0.050529 0.801564 0.989483
O O11 0.903835 0.165668 0.183215
O O12 0.421052 0.542734 0.095425
#
# Coordination Sequence:
#
# PCOD9423726 Si02
#       8
#     4   8   4   8   8   8   4   4
#     4  10  24  44  68 114 148 202 238 306 382 446
#     4  12  24  45  78 107 145 200 254 316 382 454
#     4  12  27  48  73 108 146 200 254 318 369 460
#     4  11  25  45  75 104 152 194 252 304 382 451
#     4  11  25  45  72 111 142 197 251 313 368 460
#     4  12  26  45  76 106 145 201 252 317 382 448
#     4  10  25  44  73 106 150 190 246 312 375 450
#     4  12  26  50  70 114 150 196 262 316 390 454
#
# _framework density 25.855156999999998
#
# number of rings (size 3 to 8) (size 9 to 14) (size 15 to 20)
#    0.000    0.667    3.333    3.500    4.667    4.667 
#    3.000    0.000    0.000    0.000    0.000    0.000 
#    0.000    0.000    0.000    0.000    0.000    0.000 
#
# Total GULP energy -267593.909935 kJ/mol
# GULP energy per Si atom -5574.873124 kJ/mol
# Density = 2.579631 g / cm^3
# Si number density = 25.855157 Si / 1000 Ang^3
#
#
#
# Elastic Constant Matrix: (Units=GPa)
#
#
# Indices 1 2 3 4 5 6 
#
# 1 95.5321 6.6129 32.0479 0.0000 0.0000 0.0000
# 2 6.6129 143.2952 0.8964 0.0000 0.0000 0.0000
# 3 32.0479 0.8964 90.9564 0.0000 0.0000 0.0000
# 4 0.0000 0.0000 0.0000 17.4679 0.0000 0.0000
# 5 0.0000 0.0000 0.0000 0.0000 1051.3220 0.0000
# 6 0.0000 0.0000 0.0000 0.0000 0.0000 -114.4447
#
#
#
# Elastic Compliance Matrix: (Units=1/GPa)
#
#
# Indices 1 2 3 4 5 6 
#
# 1 0.011910 -0.000523 -0.004191 0.000000 0.000000 0.000000
# 2 -0.000523 0.007002 0.000115 0.000000 0.000000 0.000000
# 3 -0.004191 0.000115 0.012470 0.000000 0.000000 0.000000
# 4 0.000000 0.000000 0.000000 0.057248 0.000000 0.000000
# 5 0.000000 0.000000 0.000000 0.000000 0.000951 0.000000
# 6 0.000000 0.000000 0.000000 0.000000 0.000000 -0.008738
#
#
# Mechanical properties :
#
#
# Convention : Reuss Voigt Hill
#
# Bulk Modulus (GPa) = 45.07874 45.43313 45.25594
# Shear Modulus (GPa) = 51.31579 210.21746 130.76663
#
# Velocity S-wave (km/s) = 4.45988 9.02676 7.11944
# Velocity P-wave (km/s) = 6.63277 11.23625 9.22624
#
# Compressibility (1/GPa) = 0.02218341
#
# Stress axis : x y z
#
# Youngs Moduli (GPa) = 83.96347 142.81560 80.19308
#
# Poissons Ratio (x) = 0.07475 0.33611
# Poissons Ratio (y) = 0.04395 -0.00926
# Poissons Ratio (z) = 0.35191 -0.01648
#
# Static dielectric constant tensor:
#      x y z
#    x 2.205840 0.000000 0.000000 
#    y 0.000000 1.972560 0.000000 
#    z 0.000000 0.000000 1.456150 
# 
# From -- ./inp_files/11801.got.cif
#   From: 2010.05.17/outbox.cif.g08.bks.cpg/sg54_6_cif.got.tgz:11801.got - 2010.06.03 13:09:01.
