data_PCOD9423822
_publ_section_title
;
Structure prediction by ZEFSAII (Michael W. Deem and Ramdas Pophale) SiO2 
 PCOD9423822
Probable space group: P C C A
;
_chemical_formula_sum "Si O2"
_cell_formula_units_Z 40
_cell_length_a 22.596760
_cell_length_b 4.958402
_cell_length_c 14.028225
_cell_angle_alpha 90.000000
_cell_angle_beta 90.000000
_cell_angle_gamma 90.000000
_cell_volume 1571.775917
_symmetry_space_group_name_H-M "P C C A"
_symmetry_group_IT_number 54
_symmetry_cell_setting 'orthorhombic'
loop_
_space_group_symop_operation_xyz
x,y,z
1/2-x,-y,z
1/2+x,-y,1/2-z
-x,y,1/2-z
-x,-y,-z
1/2+x,y,-z
1/2-x,y,1/2+z
x,-y,1/2+z
loop_
_atom_site_type_symbol
_atom_site_label
_atom_site_fract_x
_atom_site_fract_y
_atom_site_fract_z
Si Si1 0.550857 0.808745 0.044795
Si Si2 0.633528 0.987403 0.397361
Si Si3 0.289523 0.244996 0.436471
Si Si4 0.112961 0.819098 0.296405
Si Si5 0.034976 0.424997 0.169673
O O1 0.517267 0.552028 0.091100
O O2 0.585202 0.965158 0.129901
O O3 0.500000 0.000000 0.000000
O O4 0.598015 0.783993 0.958954
O O5 0.682395 0.873584 0.467261
O O6 0.585902 0.754757 0.374976
O O7 0.652130 0.072317 0.291971
O O8 0.250000 0.500000 0.458094
O O9 0.342201 0.337389 0.365581
O O10 0.250000 0.000000 0.394871
O O11 0.063568 0.658443 0.234757
O O12 0.000000 0.253588 0.250000
#
# Coordination Sequence:
#
# PCOD9423822 Si02
#       5
#     8   8   8   8   8
#     4   9  21  43  65 103 153 192 236 295 365 458
#     4  10  24  47  73 109 149 195 259 305 379 470
#     4  11  29  55  79 108 149 199 265 343 392 432
#     4  11  25  45  73 109 150 199 257 312 374 475
#     4  11  23  39  71 105 152 194 237 288 381 457
#
# _framework density 25.448917999999999
#
# number of rings (size 3 to 8) (size 9 to 14) (size 15 to 20)
#    0.000    1.600    2.000    0.000   11.200    1.600 
#    3.600    0.000    0.000    0.000    0.000    0.000 
#    0.000    0.000    0.000    0.000    0.000    0.000 
#
# Total GULP energy -223458.019401 kJ/mol
# GULP energy per Si atom -5586.450485 kJ/mol
# Density = 2.539100 g / cm^3
# Si number density = 25.448918 Si / 1000 Ang^3
#
#
#
# Elastic Constant Matrix: (Units=GPa)
#
#
# Indices 1 2 3 4 5 6 
#
# 1 101.9952 22.8610 50.1564 0.0000 0.0000 0.0000
# 2 22.8610 72.8081 23.4758 0.0000 0.0000 0.0000
# 3 50.1564 23.4758 205.4004 0.0000 0.0000 0.0000
# 4 0.0000 0.0000 0.0000 0.9937 0.0000 0.0000
# 5 0.0000 0.0000 0.0000 0.0000 21.8175 0.0000
# 6 0.0000 0.0000 0.0000 0.0000 0.0000 36.9308
#
#
#
# Elastic Compliance Matrix: (Units=1/GPa)
#
#
# Indices 1 2 3 4 5 6 
#
# 1 0.011687 -0.002855 -0.002528 0.000000 0.000000 0.000000
# 2 -0.002855 0.014958 -0.001012 0.000000 0.000000 0.000000
# 3 -0.002528 -0.001012 0.005601 0.000000 0.000000 0.000000
# 4 0.000000 0.000000 0.000000 1.006333 0.000000 0.000000
# 5 0.000000 0.000000 0.000000 0.000000 0.045835 0.000000
# 6 0.000000 0.000000 0.000000 0.000000 0.000000 0.027078
#
#
# Mechanical properties :
#
#
# Convention : Reuss Voigt Hill
#
# Bulk Modulus (GPa) = 51.39618 63.68779 57.54199
# Shear Modulus (GPa) = 4.42178 30.86245 17.64211
#
# Velocity S-wave (km/s) = 1.31958 3.48619 2.63579
# Velocity P-wave (km/s) = 4.74988 6.42532 5.65005
#
# Compressibility (1/GPa) = 0.01945670
#
# Stress axis : x y z
#
# Youngs Moduli (GPa) = 85.56388 66.85601 178.52459
#
# Poissons Ratio (x) = 0.19085 0.45124
# Poissons Ratio (y) = 0.24426 0.18075
# Poissons Ratio (z) = 0.21627 0.06769
#
# Static dielectric constant tensor:
#      x y z
#    x 2.036110 0.000000 0.000000 
#    y 0.000000 2.040680 0.000000 
#    z 0.000000 0.000000 2.065330 
# 
# From -- ./inp_files/14840.got.cif
#   From: 2010.05.17/outbox.cif.g08.bks.cpg/sg54_8_cif.got.tgz:14840.got - 2010.06.03 13:09:01.
