data_PCOD9423082
_publ_section_title
;
Structure prediction by ZEFSAII (Michael W. Deem and Ramdas Pophale) SiO2 
 PCOD9423082
Probable space group: P C C A
;
_chemical_formula_sum "Si O2"
_cell_formula_units_Z 64
_cell_length_a 23.901535
_cell_length_b 14.009348
_cell_length_c 8.341189
_cell_angle_alpha 90.000000
_cell_angle_beta 90.000000
_cell_angle_gamma 90.000000
_cell_volume 2793.004776
_symmetry_space_group_name_H-M "P C C A"
_symmetry_group_IT_number 54
_symmetry_cell_setting 'orthorhombic'
loop_
_space_group_symop_operation_xyz
x,y,z
1/2-x,-y,z
1/2+x,-y,1/2-z
-x,y,1/2-z
-x,-y,-z
1/2+x,y,-z
1/2-x,y,1/2+z
x,-y,1/2+z
loop_
_atom_site_type_symbol
_atom_site_label
_atom_site_fract_x
_atom_site_fract_y
_atom_site_fract_z
Si Si1 0.883803 0.500817 0.341324
Si Si2 0.982636 0.394435 0.435562
Si Si3 0.642569 0.129515 0.215938
Si Si4 0.575938 0.287806 0.404930
Si Si5 0.813978 0.039509 0.046207
Si Si6 0.208519 0.278943 0.992190
Si Si7 0.325260 0.755750 0.353041
Si Si8 0.811832 0.481215 0.593740
O O1 0.916809 0.414218 0.422406
O O2 0.910835 0.605285 0.338983
O O3 0.821347 0.510856 0.409662
O O4 0.867541 0.470346 0.162947
O O5 0.000000 0.386415 0.250000
O O6 0.000000 0.500000 0.500000
O O7 0.012061 0.309139 0.533809
O O8 0.593560 0.201569 0.282654
O O9 0.671985 0.084644 0.373075
O O10 0.684372 0.191798 0.108492
O O11 0.638530 0.036620 0.100326
O O12 0.616184 0.267341 0.559065
O O13 0.818724 0.130139 0.163297
O O14 0.750000 0.000000 0.048184
O O15 0.275601 0.278292 0.972478
O O16 0.184215 0.368775 0.899647
O O17 0.188716 0.282534 0.176083
O O18 0.750000 0.500000 0.641952
#
# Coordination Sequence:
#
# PCOD9423082 Si02
#       8
#     8   8   8   8   8   8   8   8
#     4  11  23  43  61  93 128 185 226 281 333 398
#     4  10  22  41  69  95 128 174 232 298 346 389
#     4  11  22  39  61  94 136 175 228 282 349 420
#     4  10  22  42  62  93 134 171 230 291 347 401
#     4  11  21  35  61  92 131 179 224 280 346 419
#     4  12  25  38  58  89 131 188 229 280 341 414
#     4  11  24  38  60  90 136 181 231 285 343 429
#     4  12  27  39  63  89 140 186 230 268 335 414
#
# _framework density 22.914389
#
# number of rings (size 3 to 8) (size 9 to 14) (size 15 to 20)
#    0.000    1.000    2.500    5.250    7.000    0.000 
#    0.000    0.000    0.000    0.000    0.000    3.500 
#    0.000    0.125    0.000    0.000    0.000    0.000 
#
# Total GULP energy -356679.844961 kJ/mol
# GULP energy per Si atom -5573.122578 kJ/mol
# Density = 2.286224 g / cm^3
# Si number density = 22.914389 Si / 1000 Ang^3
#
#
#
# Elastic Constant Matrix: (Units=GPa)
#
#
# Indices 1 2 3 4 5 6 
#
# 1 95.6764 27.3266 33.2357 0.0000 0.0000 0.0000
# 2 27.3266 104.7760 8.9218 0.0000 0.0000 0.0000
# 3 33.2357 8.9218 65.5480 0.0000 0.0000 0.0000
# 4 0.0000 0.0000 0.0000 32.6727 0.0000 0.0000
# 5 0.0000 0.0000 0.0000 0.0000 26.4482 0.0000
# 6 0.0000 0.0000 0.0000 0.0000 0.0000 40.0948
#
#
#
# Elastic Compliance Matrix: (Units=1/GPa)
#
#
# Indices 1 2 3 4 5 6 
#
# 1 0.013549 -0.002983 -0.006464 0.000000 0.000000 0.000000
# 2 -0.002983 0.010313 0.000109 0.000000 0.000000 0.000000
# 3 -0.006464 0.000109 0.018519 0.000000 0.000000 0.000000
# 4 0.000000 0.000000 0.000000 0.030607 0.000000 0.000000
# 5 0.000000 0.000000 0.000000 0.000000 0.037810 0.000000
# 6 0.000000 0.000000 0.000000 0.000000 0.000000 0.024941
#
#
# Mechanical properties :
#
#
# Convention : Reuss Voigt Hill
#
# Bulk Modulus (GPa) = 42.18658 44.99648 43.59153
# Shear Modulus (GPa) = 30.80393 32.94422 31.87407
#
# Velocity S-wave (km/s) = 3.67045 3.79583 3.73367
# Velocity P-wave (km/s) = 6.03436 6.23622 6.13612
#
# Compressibility (1/GPa) = 0.02370422
#
# Stress axis : x y z
#
# Youngs Moduli (GPa) = 73.80355 96.96506 53.99930
#
# Poissons Ratio (x) = 0.28929 0.34906
# Poissons Ratio (y) = 0.22019 -0.00589
# Poissons Ratio (z) = 0.47707 -0.01057
#
# Static dielectric constant tensor:
#      x y z
#    x 1.931250 0.000000 0.000000 
#    y 0.000000 1.960550 0.000000 
#    z 0.000000 0.000000 1.948990 
# 
# From -- ./inp_files/5289.got.cif
#   From: 2010.05.17/outbox.cif.g08.bks.cpg/sg54_3_cif.got.tgz:5289.got - 2010.06.03 13:09:01.
