data_PCOD9423847
_publ_section_title
;
Structure prediction by ZEFSAII (Michael W. Deem and Ramdas Pophale) SiO2 
 PCOD9423847
Probable space group: P C C A
;
_chemical_formula_sum "Si O2"
_cell_formula_units_Z 56
_cell_length_a 20.244937
_cell_length_b 5.404097
_cell_length_c 19.491687
_cell_angle_alpha 90.000000
_cell_angle_beta 90.000000
_cell_angle_gamma 90.000000
_cell_volume 2132.499776
_symmetry_space_group_name_H-M "P C C A"
_symmetry_group_IT_number 54
_symmetry_cell_setting 'orthorhombic'
loop_
_space_group_symop_operation_xyz
x,y,z
1/2-x,-y,z
1/2+x,-y,1/2-z
-x,y,1/2-z
-x,-y,-z
1/2+x,y,-z
1/2-x,y,1/2+z
x,-y,1/2+z
loop_
_atom_site_type_symbol
_atom_site_label
_atom_site_fract_x
_atom_site_fract_y
_atom_site_fract_z
Si Si1 0.205628 0.245943 0.370429
Si Si2 0.311860 0.323182 0.171450
Si Si3 0.598450 0.022491 0.853291
Si Si4 0.792947 0.747971 0.478922
Si Si5 0.554341 0.211239 0.984286
Si Si6 0.905573 0.375067 0.233621
Si Si7 0.486049 0.383248 0.385695
O O1 0.250000 0.500000 0.362653
O O2 0.173885 0.226682 0.446912
O O3 0.147525 0.245789 0.315690
O O4 0.250000 0.000000 0.362003
O O5 0.250000 0.500000 0.180504
O O6 0.330620 0.332387 0.090428
O O7 0.327146 0.031279 0.176467
O O8 0.365883 0.420832 0.223464
O O9 0.539920 0.822243 0.864970
O O10 0.569937 0.197266 0.794039
O O11 0.609107 0.119728 0.931178
O O12 0.750000 0.500000 0.489481
O O13 0.750000 0.000000 0.468057
O O14 0.571448 0.290800 0.061499
O O15 0.520997 0.418335 0.935695
O O16 0.500000 0.000000 0.000000
O O17 0.044178 0.504393 0.317693
#
# Coordination Sequence:
#
# PCOD9423847 Si02
#       7
#     8   8   8   8   8   8   8
#     4  10  24  49  75 109 154 200 264 317 390 463
#     4  11  27  45  72 107 149 196 255 320 388 469
#     4  11  26  45  75 108 151 203 253 323 392 478
#     4   9  21  45  75 105 142 199 257 321 367 456
#     4   9  21  46  78 105 145 191 254 325 376 467
#     4  12  28  43  74 110 155 205 242 325 391 486
#     4  10  24  50  73 111 151 195 261 315 392 462
#
# _framework density 26.260262000000001
#
# number of rings (size 3 to 8) (size 9 to 14) (size 15 to 20)
#    0.000    1.714    0.000    1.286    8.000   10.286 
#    5.143    0.000    0.000    0.000    0.000    0.000 
#    0.000    0.000    0.000    0.000    0.000    0.000 
#
# Total GULP energy -312473.828202 kJ/mol
# GULP energy per Si atom -5579.889789 kJ/mol
# Density = 2.620049 g / cm^3
# Si number density = 26.260262 Si / 1000 Ang^3
#
#
#
# Elastic Constant Matrix: (Units=GPa)
#
#
# Indices 1 2 3 4 5 6 
#
# 1 79.5762 10.3327 42.7545 0.0000 0.0000 0.0000
# 2 10.3327 29.8393 -21.1829 0.0000 0.0000 0.0000
# 3 42.7545 -21.1829 178.2596 0.0000 0.0000 0.0000
# 4 0.0000 0.0000 0.0000 49.7283 0.0000 0.0000
# 5 0.0000 0.0000 0.0000 0.0000 44.5491 0.0000
# 6 0.0000 0.0000 0.0000 0.0000 0.0000 16.3533
#
#
#
# Elastic Compliance Matrix: (Units=1/GPa)
#
#
# Indices 1 2 3 4 5 6 
#
# 1 0.016494 -0.009305 -0.005062 0.000000 0.000000 0.000000
# 2 -0.009305 0.041850 0.007205 0.000000 0.000000 0.000000
# 3 -0.005062 0.007205 0.007680 0.000000 0.000000 0.000000
# 4 0.000000 0.000000 0.000000 0.020109 0.000000 0.000000
# 5 0.000000 0.000000 0.000000 0.000000 0.022447 0.000000
# 6 0.000000 0.000000 0.000000 0.000000 0.000000 0.061150
#
#
# Mechanical properties :
#
#
# Convention : Reuss Voigt Hill
#
# Bulk Modulus (GPa) = 19.34234 39.05374 29.19804
# Shear Modulus (GPa) = 24.84010 39.17754 32.00882
#
# Velocity S-wave (km/s) = 3.07892 3.86670 3.49507
# Velocity P-wave (km/s) = 4.47451 5.90247 5.23739
#
# Compressibility (1/GPa) = 0.05170005
#
# Stress axis : x y z
#
# Youngs Moduli (GPa) = 60.62668 23.89505 130.20827
#
# Poissons Ratio (x) = 0.22234 0.65909
# Poissons Ratio (y) = 0.56413 -0.93813
# Poissons Ratio (z) = 0.30688 -0.17216
#
# Static dielectric constant tensor:
#      x y z
#    x 2.738680 0.000000 0.000000 
#    y 0.000000 2.331020 0.000000 
#    z 0.000000 0.000000 2.056440 
# 
# From -- ./inp_files/22368.got.cif
#   From: 2010.05.17/outbox.cif.g08.bks.cpg/sg54_12_cif.got.tgz:22368.got - 2010.06.03 13:09:01.
