data_PCOD9423101
_publ_section_title
;
Structure prediction by ZEFSAII (Michael W. Deem and Ramdas Pophale) SiO2 
 PCOD9423101
Probable space group: P C C A
;
_chemical_formula_sum "Si O2"
_cell_formula_units_Z 32
_cell_length_a 12.570305
_cell_length_b 6.880739
_cell_length_c 19.584597
_cell_angle_alpha 90.000000
_cell_angle_beta 90.000000
_cell_angle_gamma 90.000000
_cell_volume 1693.930310
_symmetry_space_group_name_H-M "P C C A"
_symmetry_group_IT_number 54
_symmetry_cell_setting 'orthorhombic'
loop_
_space_group_symop_operation_xyz
x,y,z
1/2-x,-y,z
1/2+x,-y,1/2-z
-x,y,1/2-z
-x,-y,-z
1/2+x,y,-z
1/2-x,y,1/2+z
x,-y,1/2+z
loop_
_atom_site_type_symbol
_atom_site_label
_atom_site_fract_x
_atom_site_fract_y
_atom_site_fract_z
Si Si1 0.165711 0.842413 0.172354
Si Si2 0.045330 0.001644 0.889049
Si Si3 0.750000 0.000000 0.196129
Si Si4 0.750000 0.500000 0.413608
Si Si5 0.564546 0.301938 0.990231
O O1 0.179285 0.639673 0.134053
O O2 0.048351 0.926530 0.161303
O O3 0.250000 0.000000 0.141632
O O4 0.296860 0.160801 0.251153
O O5 0.150712 0.937209 0.849443
O O6 0.072261 0.178550 0.940409
O O7 0.996883 0.831758 0.935618
O O8 0.822194 0.362980 0.460173
O O9 0.500000 0.500000 0.000000
#
# Coordination Sequence:
#
# PCOD9423101 Si02
#       5
#     8   8   4   4   8
#     4  10  22  42  63  86 128 169 205 260 315 377
#     4  11  23  43  62  95 130 167 210 262 322 376
#     4  10  24  42  66  90 128 170 210 258 314 386
#     4  12  22  42  64  96 124 170 216 256 330 372
#     4  11  24  38  66  94 129 164 211 266 314 379
#
# _framework density 18.890976999999999
#
# number of rings (size 3 to 8) (size 9 to 14) (size 15 to 20)
#    0.750    0.500    5.000    0.750    3.500    0.000 
#    4.500    0.000    0.000    0.000    0.000    0.000 
#    0.000    0.000    0.000    0.000    0.000    0.000 
#
# Total GULP energy -178508.538561 kJ/mol
# GULP energy per Si atom -5578.391830 kJ/mol
# Density = 1.884798 g / cm^3
# Si number density = 18.890977 Si / 1000 Ang^3
#
#
#
# Elastic Constant Matrix: (Units=GPa)
#
#
# Indices 1 2 3 4 5 6 
#
# 1 125.7274 19.3592 61.7842 0.0000 0.0000 0.0000
# 2 19.3592 75.3448 31.6394 0.0000 0.0000 0.0000
# 3 61.7842 31.6394 103.6152 0.0000 0.0000 0.0000
# 4 0.0000 0.0000 0.0000 19.5647 0.0000 0.0000
# 5 0.0000 0.0000 0.0000 0.0000 34.0840 0.0000
# 6 0.0000 0.0000 0.0000 0.0000 0.0000 23.5133
#
#
#
# Elastic Compliance Matrix: (Units=1/GPa)
#
#
# Indices 1 2 3 4 5 6 
#
# 1 0.011251 -0.000084 -0.006683 0.000000 0.000000 0.000000
# 2 -0.000084 0.015225 -0.004599 0.000000 0.000000 0.000000
# 3 -0.006683 -0.004599 0.015040 0.000000 0.000000 0.000000
# 4 0.000000 0.000000 0.000000 0.051112 0.000000 0.000000
# 5 0.000000 0.000000 0.000000 0.000000 0.029339 0.000000
# 6 0.000000 0.000000 0.000000 0.000000 0.000000 0.042529
#
#
# Mechanical properties :
#
#
# Convention : Reuss Voigt Hill
#
# Bulk Modulus (GPa) = 53.23665 58.91700 56.07683
# Shear Modulus (GPa) = 25.84108 28.22605 27.03356
#
# Velocity S-wave (km/s) = 3.70253 3.86962 3.78700
# Velocity P-wave (km/s) = 6.82059 7.15688 6.99076
#
# Compressibility (1/GPa) = 0.01878405
#
# Stress axis : x y z
#
# Youngs Moduli (GPa) = 88.88278 65.68084 66.48837
#
# Poissons Ratio (x) = 0.00555 0.44433
# Poissons Ratio (y) = 0.00751 0.30576
# Poissons Ratio (z) = 0.59399 0.30205
#
# Static dielectric constant tensor:
#      x y z
#    x 1.665990 0.000000 0.000000 
#    y 0.000000 1.628320 0.000000 
#    z 0.000000 0.000000 1.676400 
# 
# From -- ./inp_files/23780.got.cif
#   From: 2010.05.17/outbox.cif.g08.bks.cpg/sg54_12_cif.got.tgz:23780.got - 2010.06.03 13:09:01.
