data_PCOD9423303
_publ_section_title
;
Structure prediction by ZEFSAII (Michael W. Deem and Ramdas Pophale) SiO2 
 PCOD9423303
Probable space group: P C C A
;
_chemical_formula_sum "Si O2"
_cell_formula_units_Z 56
_cell_length_a 14.369745
_cell_length_b 17.533806
_cell_length_c 9.750692
_cell_angle_alpha 90.000000
_cell_angle_beta 90.000000
_cell_angle_gamma 90.000000
_cell_volume 2456.748484
_symmetry_space_group_name_H-M "P C C A"
_symmetry_group_IT_number 54
_symmetry_cell_setting 'orthorhombic'
loop_
_space_group_symop_operation_xyz
x,y,z
1/2-x,-y,z
1/2+x,-y,1/2-z
-x,y,1/2-z
-x,-y,-z
1/2+x,y,-z
1/2-x,y,1/2+z
x,-y,1/2+z
loop_
_atom_site_type_symbol
_atom_site_label
_atom_site_fract_x
_atom_site_fract_y
_atom_site_fract_z
Si Si1 0.686657 0.928705 0.833477
Si Si2 0.656418 0.130255 0.626717
Si Si3 0.500000 0.706669 0.750000
Si Si4 0.131920 0.574407 0.345334
Si Si5 0.256544 0.383070 0.613568
Si Si6 0.126951 0.730663 0.017601
Si Si7 0.000000 0.982088 0.750000
Si Si8 0.913468 0.405098 0.162415
O O1 0.751517 0.891969 0.713923
O O2 0.750000 0.000000 0.878275
O O3 0.583029 0.961978 0.803913
O O4 0.680676 0.877058 0.966224
O O5 0.629340 0.218706 0.619481
O O6 0.567733 0.075839 0.662516
O O7 0.569887 0.650204 0.669018
O O8 0.557450 0.755225 0.860929
O O9 0.204143 0.585421 0.470474
O O10 0.176848 0.569283 0.193271
O O11 0.081969 0.494594 0.370842
O O12 0.224262 0.295867 0.584670
O O13 0.330996 0.386570 0.733641
O O14 0.093329 0.647111 0.969417
O O15 0.000000 0.381845 0.250000
#
# Coordination Sequence:
#
# PCOD9423303 Si02
#       8
#     8   8   4   8   8   8   4   8
#     4  10  22  45  74 110 143 186 238 292 337 418
#     4  11  25  43  74 107 151 191 232 287 366 426
#     4  10  24  47  67  94 142 180 248 300 360 436
#     4  11  24  43  66  96 124 185 242 315 363 419
#     4  11  25  42  67  94 135 180 240 298 365 435
#     4  11  27  45  65 103 143 189 230 288 371 444
#     4  10  22  45  77 114 146 184 246 288 340 420
#     4  12  26  41  68  95 135 174 250 302 367 420
#
# _framework density 22.794356000000001
#
# number of rings (size 3 to 8) (size 9 to 14) (size 15 to 20)
#    0.000    1.143    2.143    3.000    9.000    2.857 
#    0.000    1.429    0.000    0.000    0.000    0.000 
#    0.000    0.000    0.000    0.000    0.000    0.000 
#
# Total GULP energy -312186.281161 kJ/mol
# GULP energy per Si atom -5574.755021 kJ/mol
# Density = 2.274248 g / cm^3
# Si number density = 22.794356 Si / 1000 Ang^3
#
#
#
# Elastic Constant Matrix: (Units=GPa)
#
#
# Indices 1 2 3 4 5 6 
#
# 1 101.8012 3.4114 37.9633 0.0000 0.0000 0.0000
# 2 3.4114 50.9769 16.2009 0.0000 0.0000 0.0000
# 3 37.9633 16.2009 113.0121 0.0000 0.0000 0.0000
# 4 0.0000 0.0000 0.0000 25.8509 0.0000 0.0000
# 5 0.0000 0.0000 0.0000 0.0000 37.4621 0.0000
# 6 0.0000 0.0000 0.0000 0.0000 0.0000 80.5459
#
#
#
# Elastic Compliance Matrix: (Units=1/GPa)
#
#
# Indices 1 2 3 4 5 6 
#
# 1 0.011241 0.000469 -0.003843 0.000000 0.000000 0.000000
# 2 0.000469 0.020573 -0.003107 0.000000 0.000000 0.000000
# 3 -0.003843 -0.003107 0.010585 0.000000 0.000000 0.000000
# 4 0.000000 0.000000 0.000000 0.038683 0.000000 0.000000
# 5 0.000000 0.000000 0.000000 0.000000 0.026694 0.000000
# 6 0.000000 0.000000 0.000000 0.000000 0.000000 0.012415
#
#
# Mechanical properties :
#
#
# Convention : Reuss Voigt Hill
#
# Bulk Modulus (GPa) = 33.97136 42.32681 38.14909
# Shear Modulus (GPa) = 34.97376 42.65276 38.81326
#
# Velocity S-wave (km/s) = 3.92128 4.33043 4.13092
# Velocity P-wave (km/s) = 5.95296 6.60400 6.28691
#
# Compressibility (1/GPa) = 0.02943656
#
# Stress axis : x y z
#
# Youngs Moduli (GPa) = 88.96375 48.60812 94.47325
#
# Poissons Ratio (x) = -0.02281 0.36308
# Poissons Ratio (y) = -0.04174 0.29351
# Poissons Ratio (z) = 0.34191 0.15102
#
# Static dielectric constant tensor:
#      x y z
#    x 1.983120 0.000000 0.000000 
#    y 0.000000 1.994960 0.000000 
#    z 0.000000 0.000000 1.857210 
# 
# From -- ./inp_files/3724.got.cif
#   From: 2010.05.17/outbox.cif.g08.bks.cpg/sg54_2_cif.got.tgz:3724.got - 2010.06.03 13:09:01.
