data_PCOD9423055
_publ_section_title
;
Structure prediction by ZEFSAII (Michael W. Deem and Ramdas Pophale) SiO2 
 PCOD9423055
Probable space group: P C C A
;
_chemical_formula_sum "Si O2"
_cell_formula_units_Z 36
_cell_length_a 10.729233
_cell_length_b 6.032587
_cell_length_c 24.320302
_cell_angle_alpha 90.000000
_cell_angle_beta 90.000000
_cell_angle_gamma 90.000000
_cell_volume 1574.132313
_symmetry_space_group_name_H-M "P C C A"
_symmetry_group_IT_number 54
_symmetry_cell_setting 'orthorhombic'
loop_
_space_group_symop_operation_xyz
x,y,z
1/2-x,-y,z
1/2+x,-y,1/2-z
-x,y,1/2-z
-x,-y,-z
1/2+x,y,-z
1/2-x,y,1/2+z
x,-y,1/2+z
loop_
_atom_site_type_symbol
_atom_site_label
_atom_site_fract_x
_atom_site_fract_y
_atom_site_fract_z
Si Si1 0.627363 0.138358 0.845794
Si Si2 0.626847 0.154460 0.501055
Si Si3 0.369014 0.157130 0.876984
Si Si4 0.623445 0.611728 0.237620
Si Si5 0.750000 0.500000 0.919417
O O1 0.501020 0.032084 0.868724
O O2 0.611083 0.188536 0.781307
O O3 0.657373 0.359023 0.880582
O O4 0.750000 0.000000 0.854118
O O5 0.628855 0.257876 0.562346
O O6 0.659738 0.344037 0.456720
O O7 0.750000 0.000000 0.497412
O O8 0.500000 0.000000 0.500000
O O9 0.368606 0.323816 0.825832
O O10 0.250000 0.000000 0.872008
O O11 0.750000 0.500000 0.254075
O O12 0.500000 0.470016 0.250000
#
# Coordination Sequence:
#
# PCOD9423055 Si02
#       5
#     8   8   8   8   4
#     4  11  23  43  69  96 131 175 226 273 336 419
#     4  11  25  45  66 100 138 181 233 284 343 415
#     4  10  23  42  63  96 134 172 217 283 339 394
#     4  10  22  41  64  98 131 169 222 274 342 407
#     4  12  24  42  72  98 132 188 226 284 340 416
#
# _framework density 22.86974
#
# number of rings (size 3 to 8) (size 9 to 14) (size 15 to 20)
#    0.000    1.333    1.111    4.000    1.556    5.333 
#   12.000    0.000    0.000    0.000    0.000    0.000 
#    0.000    0.000    0.000    0.000    0.000    0.000 
#
# Total GULP energy -200935.427400 kJ/mol
# GULP energy per Si atom -5581.539650 kJ/mol
# Density = 2.281769 g / cm^3
# Si number density = 22.869740 Si / 1000 Ang^3
#
#
#
# Elastic Constant Matrix: (Units=GPa)
#
#
# Indices 1 2 3 4 5 6 
#
# 1 216.5399 41.5595 33.1351 0.0000 0.0000 0.0000
# 2 41.5595 45.3070 46.3707 0.0000 0.0000 0.0000
# 3 33.1351 46.3707 180.8139 0.0000 0.0000 0.0000
# 4 0.0000 0.0000 0.0000 16.5870 0.0000 0.0000
# 5 0.0000 0.0000 0.0000 0.0000 27.3971 0.0000
# 6 0.0000 0.0000 0.0000 0.0000 0.0000 30.2688
#
#
#
# Elastic Compliance Matrix: (Units=1/GPa)
#
#
# Indices 1 2 3 4 5 6 
#
# 1 0.005626 -0.005566 0.000397 0.000000 0.000000 0.000000
# 2 -0.005566 0.035434 -0.008067 0.000000 0.000000 0.000000
# 3 0.000397 -0.008067 0.007527 0.000000 0.000000 0.000000
# 4 0.000000 0.000000 0.000000 0.060288 0.000000 0.000000
# 5 0.000000 0.000000 0.000000 0.000000 0.036500 0.000000
# 6 0.000000 0.000000 0.000000 0.000000 0.000000 0.033037
#
#
# Mechanical properties :
#
#
# Convention : Reuss Voigt Hill
#
# Bulk Modulus (GPa) = 45.22282 76.08795 60.65539
# Shear Modulus (GPa) = 23.55635 36.29028 29.92332
#
# Velocity S-wave (km/s) = 3.21288 3.98782 3.62114
# Velocity P-wave (km/s) = 5.79487 7.38552 6.63801
#
# Compressibility (1/GPa) = 0.02211273
#
# Stress axis : x y z
#
# Youngs Moduli (GPa) = 177.75535 28.22140 132.85922
#
# Poissons Ratio (x) = 0.15709 -0.05269
# Poissons Ratio (y) = 0.98943 1.07181
# Poissons Ratio (z) = -0.07049 0.22767
#
# Static dielectric constant tensor:
#      x y z
#    x 1.967590 0.000000 0.000000 
#    y 0.000000 -0.689240 0.000000 
#    z 0.000000 0.000000 1.862670 
# 
# From -- ./inp_files/23859.got.cif
#   From: 2010.05.17/outbox.cif.g08.bks.cpg/sg54_12_cif.got.tgz:23859.got - 2010.06.03 13:09:01.
