data_PCOD9423226
_publ_section_title
;
Structure prediction by ZEFSAII (Michael W. Deem and Ramdas Pophale) SiO2 
 PCOD9423226
Probable space group: P C C A
;
_chemical_formula_sum "Si O2"
_cell_formula_units_Z 52
_cell_length_a 9.189903
_cell_length_b 14.512728
_cell_length_c 18.564075
_cell_angle_alpha 90.000000
_cell_angle_beta 90.000000
_cell_angle_gamma 90.000000
_cell_volume 2475.901127
_symmetry_space_group_name_H-M "P C C A"
_symmetry_group_IT_number 54
_symmetry_cell_setting 'orthorhombic'
loop_
_space_group_symop_operation_xyz
x,y,z
1/2-x,-y,z
1/2+x,-y,1/2-z
-x,y,1/2-z
-x,-y,-z
1/2+x,y,-z
1/2-x,y,1/2+z
x,-y,1/2+z
loop_
_atom_site_type_symbol
_atom_site_label
_atom_site_fract_x
_atom_site_fract_y
_atom_site_fract_z
Si Si1 0.312854 0.280021 0.512428
Si Si2 0.000000 0.268022 0.250000
Si Si3 0.848433 0.074630 0.727530
Si Si4 0.557455 0.589262 0.044163
Si Si5 0.266532 0.405752 0.810979
Si Si6 0.452720 0.258479 0.356003
Si Si7 0.226962 0.811863 0.648193
O O1 0.171126 0.342324 0.496058
O O2 0.416935 0.348160 0.557526
O O3 0.394644 0.255952 0.438170
O O4 0.288227 0.190909 0.562086
O O5 0.132158 0.330722 0.275027
O O6 0.072463 0.213816 0.184104
O O7 0.884020 0.169007 0.684443
O O8 0.773787 0.103098 0.802683
O O9 0.000000 0.030531 0.750000
O O10 0.750000 0.000000 0.687909
O O11 0.642498 0.565677 0.117091
O O12 0.500000 0.500000 0.000000
O O13 0.250000 0.500000 0.767705
O O14 0.116810 0.353196 0.827297
O O15 0.626743 0.253264 0.344893
#
# Coordination Sequence:
#
# PCOD9423226 Si02
#       7
#     8   4   8   8   8   8   8
#     4  11  21  38  65  88 127 174 214 268 327 377
#     4  12  24  40  62  90 122 176 216 274 314 384
#     4  10  23  43  71  98 127 166 211 265 332 400
#     4  11  21  38  57  87 123 168 224 272 311 369
#     4  11  24  39  57  89 127 176 220 261 321 375
#     4  10  22  44  65  91 135 170 209 271 327 384
#     4  11  23  42  66  95 128 169 218 262 335 386
#
# _framework density 21.002452999999999
#
# number of rings (size 3 to 8) (size 9 to 14) (size 15 to 20)
#    0.000    1.231    4.615    2.308    1.077    1.231 
#    0.000    0.769    0.000    3.692    0.000    0.000 
#    0.000    0.000    0.000    0.000    0.000    0.000 
#
# Total GULP energy -289793.407885 kJ/mol
# GULP energy per Si atom -5572.950152 kJ/mol
# Density = 2.095465 g / cm^3
# Si number density = 21.002453 Si / 1000 Ang^3
#
#
#
# Elastic Constant Matrix: (Units=GPa)
#
#
# Indices 1 2 3 4 5 6 
#
# 1 83.8568 13.9915 -1.4803 0.0000 0.0000 0.0000
# 2 13.9915 39.8860 0.6482 0.0000 0.0000 0.0000
# 3 -1.4803 0.6482 59.5484 0.0000 0.0000 0.0000
# 4 0.0000 0.0000 0.0000 -142.4630 0.0000 0.0000
# 5 0.0000 0.0000 0.0000 0.0000 23.5692 0.0000
# 6 0.0000 0.0000 0.0000 0.0000 0.0000 27.0560
#
#
#
# Elastic Compliance Matrix: (Units=1/GPa)
#
#
# Indices 1 2 3 4 5 6 
#
# 1 0.012674 -0.004452 0.000364 0.000000 0.000000 0.000000
# 2 -0.004452 0.026640 -0.000401 0.000000 0.000000 0.000000
# 3 0.000364 -0.000401 0.016806 0.000000 0.000000 0.000000
# 4 0.000000 0.000000 0.000000 -0.007019 0.000000 0.000000
# 5 0.000000 0.000000 0.000000 0.000000 0.042428 0.000000
# 6 0.000000 0.000000 0.000000 0.000000 0.000000 0.036960
#
#
# Mechanical properties :
#
#
# Convention : Reuss Voigt Hill
#
# Bulk Modulus (GPa) = 21.21233 23.28999 22.25116
# Shear Modulus (GPa) = 32.64093 -7.02544 12.80774
#
# Velocity S-wave (km/s) = 3.94655 -1.83093 2.47214
# Velocity P-wave (km/s) = 5.55777 2.57750 4.33199
#
# Compressibility (1/GPa) = 0.04714239
#
# Stress axis : x y z
#
# Youngs Moduli (GPa) = 78.89972 37.53801 59.50093
#
# Poissons Ratio (x) = 0.16712 -0.02163
# Poissons Ratio (y) = 0.35125 0.02384
# Poissons Ratio (z) = -0.02868 0.01504
#
# Static dielectric constant tensor:
#      x y z
#    x 1.788040 0.000000 0.000000 
#    y 0.000000 1.777230 0.000000 
#    z 0.000000 0.000000 1.800320 
# 
# From -- ./inp_files/20450.got.cif
#   From: 2010.05.17/outbox.cif.g08.bks.cpg/sg54_11_cif.got.tgz:20450.got - 2010.06.03 13:09:01.
