data_PCOD9423428
_publ_section_title
;
Structure prediction by ZEFSAII (Michael W. Deem and Ramdas Pophale) SiO2 
 PCOD9423428
Probable space group: P C C A
;
_chemical_formula_sum "Si O2"
_cell_formula_units_Z 52
_cell_length_a 7.449923
_cell_length_b 11.549331
_cell_length_c 27.701579
_cell_angle_alpha 90.000000
_cell_angle_beta 90.000000
_cell_angle_gamma 90.000000
_cell_volume 2383.488918
_symmetry_space_group_name_H-M "P C C A"
_symmetry_group_IT_number 54
_symmetry_cell_setting 'orthorhombic'
loop_
_space_group_symop_operation_xyz
x,y,z
1/2-x,-y,z
1/2+x,-y,1/2-z
-x,y,1/2-z
-x,-y,-z
1/2+x,y,-z
1/2-x,y,1/2+z
x,-y,1/2+z
loop_
_atom_site_type_symbol
_atom_site_label
_atom_site_fract_x
_atom_site_fract_y
_atom_site_fract_z
Si Si1 0.250000 0.000000 0.700800
Si Si2 0.635379 0.745100 0.148306
Si Si3 0.250000 0.500000 0.356835
Si Si4 0.408746 0.408433 0.200994
Si Si5 0.000000 0.185979 0.250000
Si Si6 0.463256 0.863680 0.954954
Si Si7 0.954423 0.189240 0.854706
Si Si8 0.537332 0.127755 0.559456
O O1 0.387727 0.931170 0.666766
O O2 0.155969 0.902043 0.733167
O O3 0.684163 0.622986 0.122000
O O4 0.557139 0.740131 0.202770
O O5 0.507092 0.816459 0.111847
O O6 0.831586 0.802794 0.155235
O O7 0.425560 0.466186 0.326740
O O8 0.250000 0.500000 0.208435
O O9 0.500000 0.366521 0.250000
O O10 0.355608 0.295591 0.171042
O O11 0.563311 0.797724 0.912297
O O12 0.253219 0.870674 0.943493
O O13 0.529845 0.996409 0.948006
O O14 0.479690 0.815359 0.008855
#
# Coordination Sequence:
#
# PCOD9423428 Si02
#       8
#     4   8   4   8   4   8   8   8
#     4  12  26  38  56  88 128 164 196 250 318 392
#     4  10  23  42  61  88 123 168 209 261 312 377
#     4  10  24  40  66  86 120 168 218 262 316 362
#     4  11  24  41  66  89 124 166 220 266 315 373
#     4  12  26  36  58  86 126 162 204 244 320 380
#     4   9  18  36  61  90 118 162 203 253 316 380
#     4  10  24  41  60  88 129 159 205 259 313 377
#     4   9  18  35  61  86 123 159 202 254 315 375
#
# _framework density 21.816756999999999
#
# number of rings (size 3 to 8) (size 9 to 14) (size 15 to 20)
#    0.000    1.846    0.769    1.846    8.615    6.154 
#    0.000    0.000    1.692    2.769    0.000    0.000 
#    0.000    0.000    0.000    0.000    0.000    0.000 
#
# Total GULP energy -290158.764259 kJ/mol
# GULP energy per Si atom -5579.976236 kJ/mol
# Density = 2.176710 g / cm^3
# Si number density = 21.816757 Si / 1000 Ang^3
#
#
#
# Elastic Constant Matrix: (Units=GPa)
#
#
# Indices 1 2 3 4 5 6 
#
# 1 57.5018 14.6600 13.8567 0.0000 0.0000 0.0000
# 2 14.6600 87.9009 36.4224 0.0000 0.0000 0.0000
# 3 13.8567 36.4224 140.3910 0.0000 0.0000 0.0000
# 4 0.0000 0.0000 0.0000 43.4482 0.0000 0.0000
# 5 0.0000 0.0000 0.0000 0.0000 -21.3817 0.0000
# 6 0.0000 0.0000 0.0000 0.0000 0.0000 26.4288
#
#
#
# Elastic Compliance Matrix: (Units=1/GPa)
#
#
# Indices 1 2 3 4 5 6 
#
# 1 0.018324 -0.002584 -0.001138 0.000000 0.000000 0.000000
# 2 -0.002584 0.013111 -0.003146 0.000000 0.000000 0.000000
# 3 -0.001138 -0.003146 0.008052 0.000000 0.000000 0.000000
# 4 0.000000 0.000000 0.000000 0.023016 0.000000 0.000000
# 5 0.000000 0.000000 0.000000 0.000000 -0.046769 0.000000
# 6 0.000000 0.000000 0.000000 0.000000 0.000000 0.037838
#
#
# Mechanical properties :
#
#
# Convention : Reuss Voigt Hill
#
# Bulk Modulus (GPa) = 38.83678 46.18578 42.51128
# Shear Modulus (GPa) = 65.88298 24.42270 45.15284
#
# Velocity S-wave (km/s) = 5.50126 3.34944 4.55427
# Velocity P-wave (km/s) = 7.62836 6.01450 6.86899
#
# Compressibility (1/GPa) = 0.02574879
#
# Stress axis : x y z
#
# Youngs Moduli (GPa) = 54.57344 76.27053 124.19904
#
# Poissons Ratio (x) = 0.19712 0.14135
# Poissons Ratio (y) = 0.14104 0.39078
# Poissons Ratio (z) = 0.06211 0.23998
#
# Static dielectric constant tensor:
#      x y z
#    x 1.811650 0.000000 0.000000 
#    y 0.000000 1.842440 0.000000 
#    z 0.000000 0.000000 1.847570 
# 
# From -- ./inp_files/25915.got.cif
#   From: 2010.05.17/outbox.cif.g08.bks.cpg/sg54_13_cif.got.tgz:25915.got - 2010.06.03 13:09:01.
