data_PCOD9423665
_publ_section_title
;
Structure prediction by ZEFSAII (Michael W. Deem and Ramdas Pophale) SiO2 
 PCOD9423665
Probable space group: P C C A
;
_chemical_formula_sum "Si O2"
_cell_formula_units_Z 24
_cell_length_a 9.581748
_cell_length_b 10.639645
_cell_length_c 9.150437
_cell_angle_alpha 90.000000
_cell_angle_beta 90.000000
_cell_angle_gamma 90.000000
_cell_volume 932.854085
_symmetry_space_group_name_H-M "P C C A"
_symmetry_group_IT_number 54
_symmetry_cell_setting 'orthorhombic'
loop_
_space_group_symop_operation_xyz
x,y,z
1/2-x,-y,z
1/2+x,-y,1/2-z
-x,y,1/2-z
-x,-y,-z
1/2+x,y,-z
1/2-x,y,1/2+z
x,-y,1/2+z
loop_
_atom_site_type_symbol
_atom_site_label
_atom_site_fract_x
_atom_site_fract_y
_atom_site_fract_z
Si Si1 0.250000 0.500000 0.838546
Si Si2 0.250000 0.000000 0.989206
Si Si3 0.912317 0.387645 0.428514
Si Si4 0.008239 0.166855 0.593665
O O1 0.211308 0.388898 0.951160
O O2 0.143985 0.566980 0.726115
O O3 0.342108 0.099975 0.079832
O O4 0.123038 0.070579 0.906082
O O5 0.000000 0.500000 0.500000
O O6 0.985751 0.255780 0.453904
O O7 0.000000 0.237645 0.750000
#
# Coordination Sequence:
#
# PCOD9423665 Si02
#       4
#     4   4   8   8
#     4  10  24  42  66 108 146 176 240 274 380 418
#     4  10  26  46  66 102 134 188 240 286 354 410
#     4  11  24  43  69 107 137 188 225 298 354 430
#     4  11  24  45  72  97 143 180 241 289 352 422
#
# _framework density 25.727497
#
# number of rings (size 3 to 8) (size 9 to 14) (size 15 to 20)
#    0.000    1.333    0.000    4.000   14.000    0.000 
#    0.000    0.000    0.000    0.000    0.000    0.000 
#    0.000    0.000    0.000    0.000    0.000    0.000 
#
# Total GULP energy -134034.455616 kJ/mol
# GULP energy per Si atom -5584.768984 kJ/mol
# Density = 2.566894 g / cm^3
# Si number density = 25.727497 Si / 1000 Ang^3
#
#
#
# Elastic Constant Matrix: (Units=GPa)
#
#
# Indices 1 2 3 4 5 6 
#
# 1 150.9326 20.0370 12.0569 0.0000 0.0000 0.0000
# 2 20.0370 67.7848 -0.3686 0.0000 0.0000 0.0000
# 3 12.0569 -0.3686 107.7992 0.0000 0.0000 0.0000
# 4 0.0000 0.0000 0.0000 21.3340 0.0000 0.0000
# 5 0.0000 0.0000 0.0000 0.0000 24.4858 0.0000
# 6 0.0000 0.0000 0.0000 0.0000 0.0000 45.6861
#
#
#
# Elastic Compliance Matrix: (Units=1/GPa)
#
#
# Indices 1 2 3 4 5 6 
#
# 1 0.006962 -0.002062 -0.000786 0.000000 0.000000 0.000000
# 2 -0.002062 0.015364 0.000283 0.000000 0.000000 0.000000
# 3 -0.000786 0.000283 0.009365 0.000000 0.000000 0.000000
# 4 0.000000 0.000000 0.000000 0.046873 0.000000 0.000000
# 5 0.000000 0.000000 0.000000 0.000000 0.040840 0.000000
# 6 0.000000 0.000000 0.000000 0.000000 0.000000 0.021889
#
#
# Mechanical properties :
#
#
# Convention : Reuss Voigt Hill
#
# Bulk Modulus (GPa) = 37.64841 43.32967 40.48904
# Shear Modulus (GPa) = 32.20064 37.95393 35.07729
#
# Velocity S-wave (km/s) = 3.54164 3.84504 3.69645
# Velocity P-wave (km/s) = 5.60264 6.04903 5.83011
#
# Compressibility (1/GPa) = 0.02656155
#
# Stress axis : x y z
#
# Youngs Moduli (GPa) = 143.63670 65.08849 106.77650
#
# Poissons Ratio (x) = 0.13423 0.08390
# Poissons Ratio (y) = 0.29621 -0.03024
# Poissons Ratio (z) = 0.11286 -0.01843
#
# Static dielectric constant tensor:
#      x y z
#    x 2.817940 0.000000 0.000000 
#    y 0.000000 2.019200 0.000000 
#    z 0.000000 0.000000 2.019920 
# 
# From -- ./inp_files/11087.got.cif
#   From: 2010.05.17/outbox.cif.g08.bks.cpg/sg54_6_cif.got.tgz:11087.got - 2010.06.03 13:09:01.
