data_PCOD9423992
_publ_section_title
;
Structure prediction by ZEFSAII (Michael W. Deem and Ramdas Pophale) SiO2 
 PCOD9423992
Probable space group: P C C A
;
_chemical_formula_sum "Si O2"
_cell_formula_units_Z 56
_cell_length_a 16.017669
_cell_length_b 7.842433
_cell_length_c 21.247653
_cell_angle_alpha 90.000000
_cell_angle_beta 90.000000
_cell_angle_gamma 90.000000
_cell_volume 2669.076965
_symmetry_space_group_name_H-M "P C C A"
_symmetry_group_IT_number 54
_symmetry_cell_setting 'orthorhombic'
loop_
_space_group_symop_operation_xyz
x,y,z
1/2-x,-y,z
1/2+x,-y,1/2-z
-x,y,1/2-z
-x,-y,-z
1/2+x,y,-z
1/2-x,y,1/2+z
x,-y,1/2+z
loop_
_atom_site_type_symbol
_atom_site_label
_atom_site_fract_x
_atom_site_fract_y
_atom_site_fract_z
Si Si1 0.323740 0.860442 0.585203
Si Si2 0.957570 0.269696 0.318849
Si Si3 0.984342 0.053315 0.604996
Si Si4 0.168455 0.117151 0.449711
Si Si5 0.764534 0.298959 0.298423
Si Si6 0.310136 0.636689 0.335956
Si Si7 0.535214 0.395548 0.181787
O O1 0.419946 0.914982 0.586021
O O2 0.320140 0.778927 0.515021
O O3 0.301942 0.777202 0.652721
O O4 0.250000 0.000000 0.580576
O O5 0.858105 0.243966 0.318096
O O6 0.000000 0.275845 0.250000
O O7 0.973755 0.459202 0.347039
O O8 0.003079 0.112581 0.351333
O O9 0.955084 0.225998 0.640706
O O10 0.914705 0.001082 0.553752
O O11 0.162034 0.237383 0.389510
O O12 0.250000 0.000000 0.441505
O O13 0.750000 0.500000 0.303506
O O14 0.765747 0.267975 0.222912
O O15 0.250000 0.500000 0.367238
O O16 0.382201 0.511376 0.309547
O O17 0.500000 0.343602 0.250000
#
# Coordination Sequence:
#
# PCOD9423992 Si02
#       7
#     8   8   8   8   8   8   8
#     4  11  25  43  68  99 138 187 238 293 349 426
#     4  11  20  40  64 100 141 180 224 290 357 423
#     4  12  23  42  71  99 137 189 237 289 357 424
#     4  11  25  47  67  95 140 190 241 289 360 433
#     4  11  22  41  68 100 139 181 228 297 361 419
#     4  11  23  41  66  96 139 176 226 294 350 420
#     4  11  22  39  64 104 140 174 231 292 358 426
#
# _framework density 20.981036
#
# number of rings (size 3 to 8) (size 9 to 14) (size 15 to 20)
#    0.000    0.857    5.714    2.571    2.000    1.143 
#    2.571    0.714    0.000    0.000    0.000    0.000 
#    0.000    0.000    0.000    0.000    0.000    0.000 
#
# Total GULP energy -311831.373712 kJ/mol
# GULP energy per Si atom -5568.417388 kJ/mol
# Density = 2.093328 g / cm^3
# Si number density = 20.981036 Si / 1000 Ang^3
#
#
#
# Elastic Constant Matrix: (Units=GPa)
#
#
# Indices 1 2 3 4 5 6 
#
# 1 126.9885 11.0439 32.2527 0.0000 0.0000 0.0000
# 2 11.0439 68.7810 48.8139 0.0000 0.0000 0.0000
# 3 32.2527 48.8139 126.2924 0.0000 0.0000 0.0000
# 4 0.0000 0.0000 0.0000 -52.0855 0.0000 0.0000
# 5 0.0000 0.0000 0.0000 0.0000 -25.0928 0.0000
# 6 0.0000 0.0000 0.0000 0.0000 0.0000 27.5531
#
#
#
# Elastic Compliance Matrix: (Units=1/GPa)
#
#
# Indices 1 2 3 4 5 6 
#
# 1 0.008424 0.000240 -0.002244 0.000000 0.000000 0.000000
# 2 0.000240 0.020041 -0.007808 0.000000 0.000000 0.000000
# 3 -0.002244 -0.007808 0.011509 0.000000 0.000000 0.000000
# 4 0.000000 0.000000 0.000000 -0.019199 0.000000 0.000000
# 5 0.000000 0.000000 0.000000 0.000000 -0.039852 0.000000
# 6 0.000000 0.000000 0.000000 0.000000 0.000000 0.036294
#
#
# Mechanical properties :
#
#
# Convention : Reuss Voigt Hill
#
# Bulk Modulus (GPa) = 49.13778 56.25366 52.69572
# Shear Modulus (GPa) = 114.61710 5.40504 60.01107
#
# Velocity S-wave (km/s) = 7.39916 1.60678 5.35394
# Velocity P-wave (km/s) = 9.82179 5.50565 7.96178
#
# Compressibility (1/GPa) = 0.02035094
#
# Stress axis : x y z
#
# Youngs Moduli (GPa) = 118.71123 49.89661 86.88867
#
# Poissons Ratio (x) = -0.01198 0.19498
# Poissons Ratio (y) = -0.02849 0.67839
# Poissons Ratio (z) = 0.26639 0.38957
#
# Static dielectric constant tensor:
#      x y z
#    x 1.862900 0.000000 0.000000 
#    y 0.000000 1.764920 0.000000 
#    z 0.000000 0.000000 1.790720 
# 
# From -- ./inp_files/21633.got.cif
#   From: 2010.05.17/outbox.cif.g08.bks.cpg/sg54_11_cif.got.tgz:21633.got - 2010.06.03 13:09:01.
