data_PCOD9423420
_publ_section_title
;
Structure prediction by ZEFSAII (Michael W. Deem and Ramdas Pophale) SiO2 
 PCOD9423420
Probable space group: P C C A
;
_chemical_formula_sum "Si O2"
_cell_formula_units_Z 44
_cell_length_a 21.527979
_cell_length_b 8.947987
_cell_length_c 10.753147
_cell_angle_alpha 90.000000
_cell_angle_beta 90.000000
_cell_angle_gamma 90.000000
_cell_volume 2071.401033
_symmetry_space_group_name_H-M "P C C A"
_symmetry_group_IT_number 54
_symmetry_cell_setting 'orthorhombic'
loop_
_space_group_symop_operation_xyz
x,y,z
1/2-x,-y,z
1/2+x,-y,1/2-z
-x,y,1/2-z
-x,-y,-z
1/2+x,y,-z
1/2-x,y,1/2+z
x,-y,1/2+z
loop_
_atom_site_type_symbol
_atom_site_label
_atom_site_fract_x
_atom_site_fract_y
_atom_site_fract_z
Si Si1 0.393767 0.961479 0.134851
Si Si2 0.000000 0.152455 0.750000
Si Si3 0.187991 0.223804 0.679105
Si Si4 0.607430 0.278453 0.085689
Si Si5 0.181678 0.433510 0.476533
Si Si6 0.202395 0.864682 0.818756
O O1 0.364587 0.912902 0.267179
O O2 0.458090 0.045342 0.162856
O O3 0.345057 0.092980 0.100940
O O4 0.395374 0.829520 0.034638
O O5 0.955545 0.253103 0.663780
O O6 0.160162 0.225497 0.817343
O O7 0.173456 0.381120 0.618187
O O8 0.260366 0.192683 0.695171
O O9 0.628521 0.447437 0.055678
O O10 0.250000 0.500000 0.462286
O O11 0.189088 0.279353 0.401212
O O12 0.250000 0.000000 0.861224
#
# Coordination Sequence:
#
# PCOD9423420 Si02
#       6
#     8   4   8   8   8   8
#     4  10  23  44  74  93 132 180 240 287 332 402
#     4  10  24  48  70  98 130 184 246 282 336 400
#     4  10  24  40  65 101 138 176 221 276 346 421
#     4  11  24  44  69 100 138 179 227 289 340 405
#     4  12  25  38  69  99 149 176 216 277 360 411
#     4  10  23  41  67 104 137 176 226 275 344 417
#
# _framework density 21.241662000000002
#
# number of rings (size 3 to 8) (size 9 to 14) (size 15 to 20)
#    0.000    1.455    1.818    1.636   12.727    0.727 
#    0.000    4.545    0.000    0.000    0.000    0.000 
#    0.000    0.000    0.000    0.000    0.000    0.000 
#
# Total GULP energy -245311.436932 kJ/mol
# GULP energy per Si atom -5575.259930 kJ/mol
# Density = 2.119332 g / cm^3
# Si number density = 21.241662 Si / 1000 Ang^3
#
#
#
# Elastic Constant Matrix: (Units=GPa)
#
#
# Indices 1 2 3 4 5 6 
#
# 1 83.5532 40.1046 21.4684 0.0000 0.0000 0.0000
# 2 40.1046 146.5628 62.2353 0.0000 0.0000 0.0000
# 3 21.4684 62.2353 58.9679 0.0000 0.0000 0.0000
# 4 0.0000 0.0000 0.0000 30.2987 0.0000 0.0000
# 5 0.0000 0.0000 0.0000 0.0000 19.6981 0.0000
# 6 0.0000 0.0000 0.0000 0.0000 0.0000 39.3657
#
#
#
# Elastic Compliance Matrix: (Units=1/GPa)
#
#
# Indices 1 2 3 4 5 6 
#
# 1 0.013894 -0.002997 -0.001895 0.000000 0.000000 0.000000
# 2 -0.002997 0.013011 -0.012640 0.000000 0.000000 0.000000
# 3 -0.001895 -0.012640 0.030989 0.000000 0.000000 0.000000
# 4 0.000000 0.000000 0.000000 0.033005 0.000000 0.000000
# 5 0.000000 0.000000 0.000000 0.000000 0.050766 0.000000
# 6 0.000000 0.000000 0.000000 0.000000 0.000000 0.025403
#
#
# Mechanical properties :
#
#
# Convention : Reuss Voigt Hill
#
# Bulk Modulus (GPa) = 43.80518 59.63341 51.71930
# Shear Modulus (GPa) = 23.83875 28.89086 26.36480
#
# Velocity S-wave (km/s) = 3.35365 3.69196 3.52687
# Velocity P-wave (km/s) = 5.97186 6.80506 6.40203
#
# Compressibility (1/GPa) = 0.02282835
#
# Stress axis : x y z
#
# Youngs Moduli (GPa) = 71.97377 76.86007 32.26934
#
# Poissons Ratio (x) = 0.23036 0.06116
# Poissons Ratio (y) = 0.21571 0.40790
# Poissons Ratio (z) = 0.13640 0.97154
#
# Static dielectric constant tensor:
#      x y z
#    x 1.758430 0.000000 0.000000 
#    y 0.000000 1.842490 0.000000 
#    z 0.000000 0.000000 1.862020 
# 
# From -- ./inp_files/9847.got.cif
#   From: 2010.05.17/outbox.cif.g08.bks.cpg/sg54_5_cif.got.tgz:9847.got - 2010.06.03 13:09:01.
