data_PCOD9423934
_publ_section_title
;
Structure prediction by ZEFSAII (Michael W. Deem and Ramdas Pophale) SiO2 
 PCOD9423934
Probable space group: P C C A
;
_chemical_formula_sum "Si O2"
_cell_formula_units_Z 40
_cell_length_a 18.675419
_cell_length_b 10.771838
_cell_length_c 8.678069
_cell_angle_alpha 90.000000
_cell_angle_beta 90.000000
_cell_angle_gamma 90.000000
_cell_volume 1745.754888
_symmetry_space_group_name_H-M "P C C A"
_symmetry_group_IT_number 54
_symmetry_cell_setting 'orthorhombic'
loop_
_space_group_symop_operation_xyz
x,y,z
1/2-x,-y,z
1/2+x,-y,1/2-z
-x,y,1/2-z
-x,-y,-z
1/2+x,y,-z
1/2-x,y,1/2+z
x,-y,1/2+z
loop_
_atom_site_type_symbol
_atom_site_label
_atom_site_fract_x
_atom_site_fract_y
_atom_site_fract_z
Si Si1 0.030358 0.260244 0.416636
Si Si2 0.250000 0.000000 0.211610
Si Si3 0.199454 0.605270 0.558514
Si Si4 0.398552 0.515082 0.302162
Si Si5 0.308502 0.173360 0.971331
Si Si6 0.500000 0.699487 0.750000
O O1 0.040156 0.408355 0.390641
O O2 0.111374 0.217746 0.448226
O O3 0.990608 0.235786 0.581461
O O4 0.000000 0.212589 0.250000
O O5 0.216750 0.105475 0.317477
O O6 0.306410 0.068896 0.103220
O O7 0.250000 0.500000 0.628730
O O8 0.161459 0.538604 0.415302
O O9 0.136118 0.614030 0.683439
O O10 0.249371 0.721253 0.514674
O O11 0.432173 0.391743 0.229691
#
# Coordination Sequence:
#
# PCOD9423934 Si02
#       6
#     8   4   8   8   8   4
#     4  12  25  44  70 105 149 201 237 298 369 454
#     4  10  26  50  76  98 138 192 248 336 366 414
#     4  12  24  36  69 110 142 181 234 304 373 447
#     4  12  22  39  60 104 154 189 231 280 370 457
#     4  11  25  49  73 106 140 188 257 310 378 437
#     4  12  24  42  62 100 160 204 226 274 370 476
#
# _framework density 22.912724000000001
#
# number of rings (size 3 to 8) (size 9 to 14) (size 15 to 20)
#    0.000    0.400    5.000    3.600    5.600    0.000 
#    3.600    1.000    0.000    0.000    0.000    0.000 
#    0.000    0.000    0.000    0.000    0.000    0.000 
#
# Total GULP energy -223326.169381 kJ/mol
# GULP energy per Si atom -5583.154235 kJ/mol
# Density = 2.286057 g / cm^3
# Si number density = 22.912724 Si / 1000 Ang^3
#
#
#
# Elastic Constant Matrix: (Units=GPa)
#
#
# Indices 1 2 3 4 5 6 
#
# 1 81.7160 19.0653 51.0843 0.0000 0.0000 0.0000
# 2 19.0653 60.6911 38.4926 0.0000 0.0000 0.0000
# 3 51.0843 38.4926 195.6672 0.0000 0.0000 0.0000
# 4 0.0000 0.0000 0.0000 -43.4119 0.0000 0.0000
# 5 0.0000 0.0000 0.0000 0.0000 23.3724 0.0000
# 6 0.0000 0.0000 0.0000 0.0000 0.0000 16.1241
#
#
#
# Elastic Compliance Matrix: (Units=1/GPa)
#
#
# Indices 1 2 3 4 5 6 
#
# 1 0.014959 -0.002539 -0.003406 0.000000 0.000000 0.000000
# 2 -0.002539 0.019257 -0.003125 0.000000 0.000000 0.000000
# 3 -0.003406 -0.003125 0.006615 0.000000 0.000000 0.000000
# 4 0.000000 0.000000 0.000000 -0.023035 0.000000 0.000000
# 5 0.000000 0.000000 0.000000 0.000000 0.042786 0.000000
# 6 0.000000 0.000000 0.000000 0.000000 0.000000 0.062019
#
#
# Mechanical properties :
#
#
# Convention : Reuss Voigt Hill
#
# Bulk Modulus (GPa) = 44.07262 61.70653 52.88957
# Shear Modulus (GPa) = 33.71448 14.51237 24.11343
#
# Velocity S-wave (km/s) = 3.84008 2.51943 3.24760
# Velocity P-wave (km/s) = 6.24007 5.95424 6.09883
#
# Compressibility (1/GPa) = 0.02268983
#
# Stress axis : x y z
#
# Youngs Moduli (GPa) = 66.84879 51.92995 151.17631
#
# Poissons Ratio (x) = 0.13185 0.51491
# Poissons Ratio (y) = 0.16973 0.47249
# Poissons Ratio (z) = 0.22769 0.16230
#
# Static dielectric constant tensor:
#      x y z
#    x 2.046090 0.000000 0.000000 
#    y 0.000000 1.819580 0.000000 
#    z 0.000000 0.000000 1.997990 
# 
# From -- ./inp_files/4013.got.cif
#   From: 2010.05.17/outbox.cif.g08.bks.cpg/sg54_3_cif.got.tgz:4013.got - 2010.06.03 13:09:01.
