data_PCOD9423579
_publ_section_title
;
Structure prediction by ZEFSAII (Michael W. Deem and Ramdas Pophale) SiO2 
 PCOD9423579
Probable space group: P C C A
;
_chemical_formula_sum "Si O2"
_cell_formula_units_Z 36
_cell_length_a 12.775298
_cell_length_b 12.196879
_cell_length_c 10.925206
_cell_angle_alpha 90.000000
_cell_angle_beta 90.000000
_cell_angle_gamma 90.000000
_cell_volume 1702.352094
_symmetry_space_group_name_H-M "P C C A"
_symmetry_group_IT_number 54
_symmetry_cell_setting 'orthorhombic'
loop_
_space_group_symop_operation_xyz
x,y,z
1/2-x,-y,z
1/2+x,-y,1/2-z
-x,y,1/2-z
-x,-y,-z
1/2+x,y,-z
1/2-x,y,1/2+z
x,-y,1/2+z
loop_
_atom_site_type_symbol
_atom_site_label
_atom_site_fract_x
_atom_site_fract_y
_atom_site_fract_z
Si Si1 0.641158 0.723966 0.885941
Si Si2 0.000000 0.440265 0.750000
Si Si3 0.654886 0.417461 0.625169
Si Si4 0.026066 0.117961 0.446425
Si Si5 0.843678 0.196399 0.268884
O O1 0.592615 0.639227 0.791369
O O2 0.728679 0.802494 0.827126
O O3 0.677022 0.647161 0.999227
O O4 0.552254 0.800548 0.943540
O O5 0.952694 0.514629 0.641139
O O6 0.750000 0.500000 0.646770
O O7 0.644930 0.322250 0.726222
O O8 0.124591 0.125021 0.351084
O O9 0.928123 0.163347 0.370015
O O10 0.000000 0.000000 0.500000
#
# Coordination Sequence:
#
# PCOD9423579 Si02
#       5
#     8   4   8   8   8
#     4  11  25  40  68 100 135 181 239 289 341 430
#     4  12  24  40  62 102 138 190 236 286 340 426
#     4  11  23  40  66  99 141 192 224 279 356 421
#     4  10  24  47  72  95 134 184 227 302 367 404
#     4  10  23  47  67 101 142 172 240 289 343 441
#
# _framework density 21.147210999999999
#
# number of rings (size 3 to 8) (size 9 to 14) (size 15 to 20)
#    0.000    1.333    2.222    3.333    6.222    2.667 
#    0.000    6.667    0.000    0.000    0.000    0.000 
#    0.000    0.000    0.000    0.000    0.000    0.000 
#
# Total GULP energy -200960.399208 kJ/mol
# GULP energy per Si atom -5582.233311 kJ/mol
# Density = 2.109908 g / cm^3
# Si number density = 21.147211 Si / 1000 Ang^3
#
#
#
# Elastic Constant Matrix: (Units=GPa)
#
#
# Indices 1 2 3 4 5 6 
#
# 1 52.8182 30.0576 15.7773 0.0000 0.0000 0.0000
# 2 30.0576 126.9785 46.7342 0.0000 0.0000 0.0000
# 3 15.7773 46.7342 55.5616 0.0000 0.0000 0.0000
# 4 0.0000 0.0000 0.0000 15.9945 0.0000 0.0000
# 5 0.0000 0.0000 0.0000 0.0000 27.7089 0.0000
# 6 0.0000 0.0000 0.0000 0.0000 0.0000 34.5720
#
#
#
# Elastic Compliance Matrix: (Units=1/GPa)
#
#
# Indices 1 2 3 4 5 6 
#
# 1 0.022161 -0.004243 -0.002724 0.000000 0.000000 0.000000
# 2 -0.004243 0.012219 -0.009073 0.000000 0.000000 0.000000
# 3 -0.002724 -0.009073 0.026403 0.000000 0.000000 0.000000
# 4 0.000000 0.000000 0.000000 0.062521 0.000000 0.000000
# 5 0.000000 0.000000 0.000000 0.000000 0.036090 0.000000
# 6 0.000000 0.000000 0.000000 0.000000 0.000000 0.028925
#
#
# Mechanical properties :
#
#
# Convention : Reuss Voigt Hill
#
# Bulk Modulus (GPa) = 34.83909 46.72182 40.78046
# Shear Modulus (GPa) = 21.74226 25.17435 23.45831
#
# Velocity S-wave (km/s) = 3.20994 3.45401 3.33421
# Velocity P-wave (km/s) = 5.49987 6.16834 5.84367
#
# Compressibility (1/GPa) = 0.02870339
#
# Stress axis : x y z
#
# Youngs Moduli (GPa) = 45.12367 81.83939 37.87478
#
# Poissons Ratio (x) = 0.34728 0.10316
# Poissons Ratio (y) = 0.19148 0.34363
# Poissons Ratio (z) = 0.12290 0.74251
#
# Static dielectric constant tensor:
#      x y z
#    x 1.809310 0.000000 0.000000 
#    y 0.000000 1.730970 0.000000 
#    z 0.000000 0.000000 1.782800 
# 
# From -- ./inp_files/7375.got.cif
#   From: 2010.05.17/outbox.cif.g08.bks.cpg/sg54_4_cif.got.tgz:7375.got - 2010.06.03 13:09:01.
