data_PCOD9423351
_publ_section_title
;
Structure prediction by ZEFSAII (Michael W. Deem and Ramdas Pophale) SiO2 
 PCOD9423351
Probable space group: P C C A
;
_chemical_formula_sum "Si O2"
_cell_formula_units_Z 56
_cell_length_a 12.792923
_cell_length_b 14.138610
_cell_length_c 14.456574
_cell_angle_alpha 90.000000
_cell_angle_beta 90.000000
_cell_angle_gamma 90.000000
_cell_volume 2614.820521
_symmetry_space_group_name_H-M "P C C A"
_symmetry_group_IT_number 54
_symmetry_cell_setting 'orthorhombic'
loop_
_space_group_symop_operation_xyz
x,y,z
1/2-x,-y,z
1/2+x,-y,1/2-z
-x,y,1/2-z
-x,-y,-z
1/2+x,y,-z
1/2-x,y,1/2+z
x,-y,1/2+z
loop_
_atom_site_type_symbol
_atom_site_label
_atom_site_fract_x
_atom_site_fract_y
_atom_site_fract_z
Si Si1 0.500000 0.101073 0.250000
Si Si2 0.339066 0.266026 0.257666
Si Si3 0.954518 0.445288 0.655933
Si Si4 0.017493 0.059125 0.386443
Si Si5 0.858283 0.344358 0.944757
Si Si6 0.250000 0.500000 0.452572
Si Si7 0.824556 0.793993 0.606038
Si Si8 0.670130 0.071375 0.989554
O O1 0.402628 0.168641 0.270153
O O2 0.528226 0.027981 0.329881
O O3 0.407076 0.347419 0.305306
O O4 0.330218 0.288962 0.149319
O O5 0.232902 0.263914 0.314713
O O6 0.856122 0.495689 0.607806
O O7 0.000000 0.493286 0.750000
O O8 0.046384 0.414100 0.585179
O O9 0.095214 0.135368 0.344078
O O10 0.919257 0.115874 0.426995
O O11 0.098134 0.002511 0.452923
O O12 0.763801 0.408471 0.982740
O O13 0.879449 0.269770 0.027155
O O14 0.735279 0.854882 0.550843
O O15 0.750000 0.000000 0.939519
#
# Coordination Sequence:
#
# PCOD9423351 Si02
#       8
#     4   8   8   8   8   4   8   8
#     4  12  22  40  64  86 134 184 234 284 346 414
#     4  11  23  41  66  98 136 189 230 283 352 422
#     4  10  23  45  71 108 137 180 232 283 359 438
#     4  10  23  36  59  91 129 173 235 289 333 400
#     4  11  25  42  73 102 136 183 230 291 354 434
#     4  12  24  46  78 108 138 178 234 292 370 434
#     4  11  23  42  64  96 140 178 235 292 349 410
#     4   9  20  36  57  91 122 174 228 287 340 397
#
# _framework density 21.416383
#
# number of rings (size 3 to 8) (size 9 to 14) (size 15 to 20)
#    0.000    1.429    5.000    0.429    8.000    3.429 
#    0.000    0.000    1.571    0.000    0.000    0.000 
#    0.000    0.000    0.000    0.000    0.000    0.000 
#
# Total GULP energy -312105.914103 kJ/mol
# GULP energy per Si atom -5573.319895 kJ/mol
# Density = 2.136764 g / cm^3
# Si number density = 21.416383 Si / 1000 Ang^3
#
#
#
# Elastic Constant Matrix: (Units=GPa)
#
#
# Indices 1 2 3 4 5 6 
#
# 1 44.6664 -6.5304 16.1466 0.0000 0.0000 0.0000
# 2 -6.5304 37.8174 10.5139 0.0000 0.0000 0.0000
# 3 16.1466 10.5139 65.7207 0.0000 0.0000 0.0000
# 4 0.0000 0.0000 0.0000 16.1013 0.0000 0.0000
# 5 0.0000 0.0000 0.0000 0.0000 29.5288 0.0000
# 6 0.0000 0.0000 0.0000 0.0000 0.0000 17.5664
#
#
#
# Elastic Compliance Matrix: (Units=1/GPa)
#
#
# Indices 1 2 3 4 5 6 
#
# 1 0.026041 0.006568 -0.007449 0.000000 0.000000 0.000000
# 2 0.006568 0.029330 -0.006306 0.000000 0.000000 0.000000
# 3 -0.007449 -0.006306 0.018055 0.000000 0.000000 0.000000
# 4 0.000000 0.000000 0.000000 0.062107 0.000000 0.000000
# 5 0.000000 0.000000 0.000000 0.000000 0.033865 0.000000
# 6 0.000000 0.000000 0.000000 0.000000 0.000000 0.056927
#
#
# Mechanical properties :
#
#
# Convention : Reuss Voigt Hill
#
# Bulk Modulus (GPa) = 16.93410 20.94052 18.93731
# Shear Modulus (GPa) = 19.20253 21.17758 20.19006
#
# Velocity S-wave (km/s) = 2.99762 3.14801 3.07374
# Velocity P-wave (km/s) = 4.46153 4.79712 4.63236
#
# Compressibility (1/GPa) = 0.05905246
#
# Stress axis : x y z
#
# Youngs Moduli (GPa) = 38.40096 34.09463 55.38719
#
# Poissons Ratio (x) = -0.22392 0.41256
# Poissons Ratio (y) = -0.25220 0.34926
# Poissons Ratio (z) = 0.28603 0.21499
#
# Static dielectric constant tensor:
#      x y z
#    x 1.336530 0.000000 0.000000 
#    y 0.000000 1.802510 0.000000 
#    z 0.000000 0.000000 2.018190 
# 
# From -- ./inp_files/12771.got.cif
#   From: 2010.05.17/outbox.cif.g08.bks.cpg/sg54_7_cif.got.tgz:12771.got - 2010.06.03 13:09:01.
