data_PCOD9423700
_publ_section_title
;
Structure prediction by ZEFSAII (Michael W. Deem and Ramdas Pophale) SiO2 
 PCOD9423700
Probable space group: P C C A
;
_chemical_formula_sum "Si O2"
_cell_formula_units_Z 40
_cell_length_a 13.881687
_cell_length_b 11.535212
_cell_length_c 12.145692
_cell_angle_alpha 90.000000
_cell_angle_beta 90.000000
_cell_angle_gamma 90.000000
_cell_volume 1944.867828
_symmetry_space_group_name_H-M "P C C A"
_symmetry_group_IT_number 54
_symmetry_cell_setting 'orthorhombic'
loop_
_space_group_symop_operation_xyz
x,y,z
1/2-x,-y,z
1/2+x,-y,1/2-z
-x,y,1/2-z
-x,-y,-z
1/2+x,y,-z
1/2-x,y,1/2+z
x,-y,1/2+z
loop_
_atom_site_type_symbol
_atom_site_label
_atom_site_fract_x
_atom_site_fract_y
_atom_site_fract_z
Si Si1 0.107451 0.215655 0.744120
Si Si2 0.606340 0.206328 0.799292
Si Si3 0.254331 0.636686 0.099187
Si Si4 0.102122 0.018406 0.560211
Si Si5 0.737887 0.822108 0.087060
O O1 0.177455 0.309263 0.685915
O O2 0.096566 0.105021 0.664028
O O3 0.154807 0.171617 0.859144
O O4 0.000000 0.265302 0.750000
O O5 0.500000 0.203379 0.750000
O O6 0.640692 0.324035 0.856819
O O7 0.674507 0.185601 0.696244
O O8 0.627763 0.105941 0.888248
O O9 0.250000 0.500000 0.087997
O O10 0.235330 0.706282 0.986421
O O11 0.180422 0.080222 0.482129
O O12 0.000000 0.000000 0.500000
#
# Coordination Sequence:
#
# PCOD9423700 Si02
#       5
#     8   8   8   8   8
#     4  10  24  43  67 101 138 176 222 274 343 409
#     4  11  23  41  68 100 132 172 218 275 339 405
#     4  10  25  45  66  94 129 177 236 282 334 396
#     4  11  23  41  69 101 139 170 218 272 340 421
#     4  10  24  43  65  95 139 175 217 271 342 394
#
# _framework density 20.566951
#
# number of rings (size 3 to 8) (size 9 to 14) (size 15 to 20)
#    0.000    1.600    2.000    0.600    2.800   12.800 
#    0.000    2.000    0.000    0.000    0.000    0.000 
#    0.000    0.000    0.000    0.000    0.000    0.000 
#
# Total GULP energy -223377.659995 kJ/mol
# GULP energy per Si atom -5584.441500 kJ/mol
# Density = 2.052014 g / cm^3
# Si number density = 20.566951 Si / 1000 Ang^3
#
#
#
# Elastic Constant Matrix: (Units=GPa)
#
#
# Indices 1 2 3 4 5 6 
#
# 1 140.0427 61.1030 61.6617 0.0000 0.0000 0.0000
# 2 61.1030 170.3361 72.5132 0.0000 0.0000 0.0000
# 3 61.6617 72.5132 140.9379 0.0000 0.0000 0.0000
# 4 0.0000 0.0000 0.0000 5.4172 0.0000 0.0000
# 5 0.0000 0.0000 0.0000 0.0000 41.0972 0.0000
# 6 0.0000 0.0000 0.0000 0.0000 0.0000 22.1174
#
#
#
# Elastic Compliance Matrix: (Units=1/GPa)
#
#
# Indices 1 2 3 4 5 6 
#
# 1 0.009383 -0.002072 -0.003039 0.000000 0.000000 0.000000
# 2 -0.002072 0.007975 -0.003197 0.000000 0.000000 0.000000
# 3 -0.003039 -0.003197 0.010070 0.000000 0.000000 0.000000
# 4 0.000000 0.000000 0.000000 0.184597 0.000000 0.000000
# 5 0.000000 0.000000 0.000000 0.000000 0.024333 0.000000
# 6 0.000000 0.000000 0.000000 0.000000 0.000000 0.045213
#
#
# Mechanical properties :
#
#
# Convention : Reuss Voigt Hill
#
# Bulk Modulus (GPa) = 92.48979 93.54138 93.01559
# Shear Modulus (GPa) = 16.56785 30.79560 23.68172
#
# Velocity S-wave (km/s) = 2.84131 3.87374 3.39698
# Velocity P-wave (km/s) = 7.47207 8.09864 7.79165
#
# Compressibility (1/GPa) = 0.01081200
#
# Stress axis : x y z
#
# Youngs Moduli (GPa) = 106.57734 125.39448 99.30943
#
# Poissons Ratio (x) = 0.25983 0.30180
# Poissons Ratio (y) = 0.22084 0.31744
# Poissons Ratio (z) = 0.32389 0.40083
#
# Static dielectric constant tensor:
#      x y z
#    x 1.788630 0.000000 0.000000 
#    y 0.000000 1.724060 0.000000 
#    z 0.000000 0.000000 1.818260 
# 
# From -- ./inp_files/8233.got.cif
#   From: 2010.05.17/outbox.cif.g08.bks.cpg/sg54_5_cif.got.tgz:8233.got - 2010.06.03 13:09:01.
