data_PCOD9423287
_publ_section_title
;
Structure prediction by ZEFSAII (Michael W. Deem and Ramdas Pophale) SiO2 
 PCOD9423287
Probable space group: P C C A
;
_chemical_formula_sum "Si O2"
_cell_formula_units_Z 32
_cell_length_a 13.755724
_cell_length_b 7.606526
_cell_length_c 13.067334
_cell_angle_alpha 90.000000
_cell_angle_beta 90.000000
_cell_angle_gamma 90.000000
_cell_volume 1367.277916
_symmetry_space_group_name_H-M "P C C A"
_symmetry_group_IT_number 54
_symmetry_cell_setting 'orthorhombic'
loop_
_space_group_symop_operation_xyz
x,y,z
1/2-x,-y,z
1/2+x,-y,1/2-z
-x,y,1/2-z
-x,-y,-z
1/2+x,y,-z
1/2-x,y,1/2+z
x,-y,1/2+z
loop_
_atom_site_type_symbol
_atom_site_label
_atom_site_fract_x
_atom_site_fract_y
_atom_site_fract_z
Si Si1 0.863778 0.977340 0.688864
Si Si2 0.871794 0.686179 0.311429
Si Si3 0.477621 0.796347 0.483328
Si Si4 0.141773 0.303904 0.152658
O O1 0.902318 0.830635 0.609264
O O2 0.886200 0.878725 0.794804
O O3 0.750000 0.000000 0.666769
O O4 0.893385 0.178429 0.718632
O O5 0.932285 0.722581 0.413731
O O6 0.758849 0.705970 0.348639
O O7 0.883116 0.480870 0.285301
O O8 0.575725 0.696656 0.448787
O O9 0.500000 0.000000 0.500000
#
# Coordination Sequence:
#
# PCOD9423287 Si02
#       4
#     8   8   8   8
#     4  10  23  43  65  93 128 169 215 264 320 385
#     4  10  23  45  67  92 135 173 211 269 320 378
#     4  12  24  39  68  97 129 168 215 265 323 382
#     4  10  22  45  65  95 131 171 216 265 319 383
#
# _framework density 23.404167000000001
#
# number of rings (size 3 to 8) (size 9 to 14) (size 15 to 20)
#    0.000    1.500    2.500    1.500    3.500    0.000 
#   13.500    2.500    0.000    0.000    0.000    0.000 
#    0.000    0.000    0.000    0.000    0.000    0.000 
#
# Total GULP energy -178278.463412 kJ/mol
# GULP energy per Si atom -5571.201982 kJ/mol
# Density = 2.335090 g / cm^3
# Si number density = 23.404167 Si / 1000 Ang^3
#
#
#
# Elastic Constant Matrix: (Units=GPa)
#
#
# Indices 1 2 3 4 5 6 
#
# 1 106.4816 9.2979 31.6533 0.0000 0.0000 0.0000
# 2 9.2979 130.0724 -0.6508 0.0000 0.0000 0.0000
# 3 31.6533 -0.6508 52.6670 0.0000 0.0000 0.0000
# 4 0.0000 0.0000 0.0000 24.3713 0.0000 0.0000
# 5 0.0000 0.0000 0.0000 0.0000 19.0793 0.0000
# 6 0.0000 0.0000 0.0000 0.0000 0.0000 18.7748
#
#
#
# Elastic Compliance Matrix: (Units=1/GPa)
#
#
# Indices 1 2 3 4 5 6 
#
# 1 0.011529 -0.000859 -0.006940 0.000000 0.000000 0.000000
# 2 -0.000859 0.007752 0.000612 0.000000 0.000000 0.000000
# 3 -0.006940 0.000612 0.023166 0.000000 0.000000 0.000000
# 4 0.000000 0.000000 0.000000 0.041032 0.000000 0.000000
# 5 0.000000 0.000000 0.000000 0.000000 0.052413 0.000000
# 6 0.000000 0.000000 0.000000 0.000000 0.000000 0.053263
#
#
# Mechanical properties :
#
#
# Convention : Reuss Voigt Hill
#
# Bulk Modulus (GPa) = 35.62009 41.09131 38.35570
# Shear Modulus (GPa) = 23.48670 29.03977 26.26324
#
# Velocity S-wave (km/s) = 3.17129 3.52631 3.35350
# Velocity P-wave (km/s) = 5.35369 5.84596 5.60523
#
# Compressibility (1/GPa) = 0.02807405
#
# Stress axis : x y z
#
# Youngs Moduli (GPa) = 86.73589 128.99092 43.16731
#
# Poissons Ratio (x) = 0.11078 0.29957
# Poissons Ratio (y) = 0.07449 -0.02642
# Poissons Ratio (z) = 0.60193 -0.07894
#
# Static dielectric constant tensor:
#      x y z
#    x 1.908580 0.000000 0.000000 
#    y 0.000000 1.838440 0.000000 
#    z 0.000000 0.000000 1.572360 
# 
# From -- ./inp_files/7936.got.cif
#   From: 2010.05.17/outbox.cif.g08.bks.cpg/sg54_4_cif.got.tgz:7936.got - 2010.06.03 13:09:01.
