data_PCOD9423664
_publ_section_title
;
Structure prediction by ZEFSAII (Michael W. Deem and Ramdas Pophale) SiO2 
 PCOD9423664
Probable space group: P C C A
;
_chemical_formula_sum "Si O2"
_cell_formula_units_Z 32
_cell_length_a 16.180834
_cell_length_b 8.705832
_cell_length_c 9.800600
_cell_angle_alpha 90.000000
_cell_angle_beta 90.000000
_cell_angle_gamma 90.000000
_cell_volume 1380.587220
_symmetry_space_group_name_H-M "P C C A"
_symmetry_group_IT_number 54
_symmetry_cell_setting 'orthorhombic'
loop_
_space_group_symop_operation_xyz
x,y,z
1/2-x,-y,z
1/2+x,-y,1/2-z
-x,y,1/2-z
-x,-y,-z
1/2+x,y,-z
1/2-x,y,1/2+z
x,-y,1/2+z
loop_
_atom_site_type_symbol
_atom_site_label
_atom_site_fract_x
_atom_site_fract_y
_atom_site_fract_z
Si Si1 0.910884 0.894871 0.826795
Si Si2 0.943617 0.506964 0.128358
Si Si3 0.631682 0.834775 0.630154
Si Si4 0.708522 0.342095 0.694044
O O1 0.846637 0.755936 0.798014
O O2 0.000000 0.876123 0.750000
O O3 0.874744 0.045110 0.752593
O O4 0.906845 0.905457 0.991222
O O5 0.918463 0.680288 0.161806
O O6 0.861513 0.410898 0.095902
O O7 0.000000 0.446526 0.250000
O O8 0.000000 0.500000 0.000000
O O9 0.725482 0.769927 0.623724
O O10 0.750000 0.500000 0.751130
#
# Coordination Sequence:
#
# PCOD9423664 Si02
#       4
#     8   8   8   8
#     4  12  25  46  71 101 138 184 235 290 352 425
#     4  11  23  44  71 101 136 180 233 290 351 423
#     4  11  26  44  69 102 141 185 233 294 358 426
#     4  10  24  42  66 100 137 177 227 288 355 418
#
# _framework density 23.178542
#
# number of rings (size 3 to 8) (size 9 to 14) (size 15 to 20)
#    0.000    1.000    0.000    6.000    0.000   13.000 
#    0.000    0.000    0.000    0.000    0.000    0.000 
#    0.000    0.000    0.000    0.000    0.000    0.000 
#
# Total GULP energy -178763.611069 kJ/mol
# GULP energy per Si atom -5586.362846 kJ/mol
# Density = 2.312579 g / cm^3
# Si number density = 23.178542 Si / 1000 Ang^3
#
#
#
# Elastic Constant Matrix: (Units=GPa)
#
#
# Indices 1 2 3 4 5 6 
#
# 1 160.7200 52.7168 37.5559 0.0000 0.0000 0.0000
# 2 52.7168 123.0955 10.7413 0.0000 0.0000 0.0000
# 3 37.5559 10.7413 55.4711 0.0000 0.0000 0.0000
# 4 0.0000 0.0000 0.0000 -59.5910 0.0000 0.0000
# 5 0.0000 0.0000 0.0000 0.0000 23.4016 0.0000
# 6 0.0000 0.0000 0.0000 0.0000 0.0000 33.7311
#
#
#
# Elastic Compliance Matrix: (Units=1/GPa)
#
#
# Indices 1 2 3 4 5 6 
#
# 1 0.008458 -0.003176 -0.005111 0.000000 0.000000 0.000000
# 2 -0.003176 0.009456 0.000319 0.000000 0.000000 0.000000
# 3 -0.005111 0.000319 0.021426 0.000000 0.000000 0.000000
# 4 0.000000 0.000000 0.000000 -0.016781 0.000000 0.000000
# 5 0.000000 0.000000 0.000000 0.000000 0.042732 0.000000
# 6 0.000000 0.000000 0.000000 0.000000 0.000000 0.029646
#
#
# Mechanical properties :
#
#
# Convention : Reuss Voigt Hill
#
# Bulk Modulus (GPa) = 42.72798 60.14607 51.43702
# Shear Modulus (GPa) = 42.13150 15.39318 28.76234
#
# Velocity S-wave (km/s) = 4.26807 2.57984 3.52647
# Velocity P-wave (km/s) = 6.53933 5.90588 6.23066
#
# Compressibility (1/GPa) = 0.02340387
#
# Stress axis : x y z
#
# Youngs Moduli (GPa) = 118.22778 105.75095 46.67179
#
# Poissons Ratio (x) = 0.33590 0.23856
# Poissons Ratio (y) = 0.37553 -0.01491
# Poissons Ratio (z) = 0.60432 -0.03377
#
# Static dielectric constant tensor:
#      x y z
#    x 2.021910 0.000000 0.000000 
#    y 0.000000 1.777120 0.000000 
#    z 0.000000 0.000000 1.804580 
# 
# From -- ./inp_files/7947.got.cif
#   From: 2010.05.17/outbox.cif.g08.bks.cpg/sg54_4_cif.got.tgz:7947.got - 2010.06.03 13:09:01.
