data_PCOD9423375
_publ_section_title
;
Structure prediction by ZEFSAII (Michael W. Deem and Ramdas Pophale) SiO2 
 PCOD9423375
Probable space group: P C C A
;
_chemical_formula_sum "Si O2"
_cell_formula_units_Z 32
_cell_length_a 8.439103
_cell_length_b 8.283675
_cell_length_c 22.332595
_cell_angle_alpha 90.000000
_cell_angle_beta 90.000000
_cell_angle_gamma 90.000000
_cell_volume 1561.199952
_symmetry_space_group_name_H-M "P C C A"
_symmetry_group_IT_number 54
_symmetry_cell_setting 'orthorhombic'
loop_
_space_group_symop_operation_xyz
x,y,z
1/2-x,-y,z
1/2+x,-y,1/2-z
-x,y,1/2-z
-x,-y,-z
1/2+x,y,-z
1/2-x,y,1/2+z
x,-y,1/2+z
loop_
_atom_site_type_symbol
_atom_site_label
_atom_site_fract_x
_atom_site_fract_y
_atom_site_fract_z
Si Si1 0.070124 0.057878 0.687881
Si Si2 0.935384 0.065477 0.437551
Si Si3 0.571073 0.442977 0.312707
Si Si4 0.431847 0.565178 0.437514
O O1 0.064121 0.250134 0.689228
O O2 0.000000 0.993024 0.750000
O O3 0.250000 0.000000 0.687057
O O4 0.995545 0.003338 0.624937
O O5 0.995722 0.251570 0.436463
O O6 0.750000 0.000000 0.437356
O O7 0.000000 0.000000 0.500000
O O8 0.750000 0.500000 0.315850
O O9 0.500000 0.506381 0.250000
O O10 0.489686 0.496814 0.373874
O O11 0.250000 0.500000 0.439932
O O12 0.500000 0.500000 0.500000
#
# Coordination Sequence:
#
# PCOD9423375 Si02
#       4
#     8   8   8   8
#     4  10  23  40  62  90 123 164 211 264 320 384
#     4  11  23  41  64  91 126 168 214 266 326 395
#     4  11  23  41  64  94 131 171 218 270 332 399
#     4  12  25  42  66  97 132 171 218 274 336 404
#
# _framework density 20.497053999999999
#
# number of rings (size 3 to 8) (size 9 to 14) (size 15 to 20)
#    0.000    1.000    0.000    7.500    0.000    9.000 
#    0.000    0.000    0.000    0.000    0.000    0.000 
#    0.000    0.000    0.000    0.000    0.000    0.000 
#
# Total GULP energy -178185.379985 kJ/mol
# GULP energy per Si atom -5568.293125 kJ/mol
# Density = 2.045040 g / cm^3
# Si number density = 20.497054 Si / 1000 Ang^3
#
#
#
# Elastic Constant Matrix: (Units=GPa)
#
#
# Indices 1 2 3 4 5 6 
#
# 1 143.6898 41.6296 97.7090 0.0000 0.0000 0.0000
# 2 41.6296 128.0056 69.0776 0.0000 0.0000 0.0000
# 3 97.7090 69.0776 277.2017 0.0000 0.0000 0.0000
# 4 0.0000 0.0000 0.0000 50.0499 0.0000 0.0000
# 5 0.0000 0.0000 0.0000 0.0000 54.5031 0.0000
# 6 0.0000 0.0000 0.0000 0.0000 0.0000 31.4671
#
#
#
# Elastic Compliance Matrix: (Units=1/GPa)
#
#
# Indices 1 2 3 4 5 6 
#
# 1 0.009385 -0.001464 -0.002943 0.000000 0.000000 0.000000
# 2 -0.001464 0.009254 -0.001790 0.000000 0.000000 0.000000
# 3 -0.002943 -0.001790 0.005091 0.000000 0.000000 0.000000
# 4 0.000000 0.000000 0.000000 0.019980 0.000000 0.000000
# 5 0.000000 0.000000 0.000000 0.000000 0.018348 0.000000
# 6 0.000000 0.000000 0.000000 0.000000 0.000000 0.031779
#
#
# Mechanical properties :
#
#
# Convention : Reuss Voigt Hill
#
# Bulk Modulus (GPa) = 88.21637 107.30328 97.75982
# Shear Modulus (GPa) = 45.45035 49.90275 47.67655
#
# Velocity S-wave (km/s) = 4.71405 4.93955 4.82811
# Velocity P-wave (km/s) = 8.53004 9.21935 8.88139
#
# Compressibility (1/GPa) = 0.01133576
#
# Stress axis : x y z
#
# Youngs Moduli (GPa) = 106.55357 108.05822 196.42393
#
# Poissons Ratio (x) = 0.15818 0.57813
# Poissons Ratio (y) = 0.15598 0.35163
# Poissons Ratio (z) = 0.31361 0.19344
#
# Static dielectric constant tensor:
#      x y z
#    x 1.772880 0.000000 0.000000 
#    y 0.000000 1.798980 0.000000 
#    z 0.000000 0.000000 1.688550 
# 
# From -- ./inp_files/20027.got.cif
#   From: 2010.05.17/outbox.cif.g08.bks.cpg/sg54_11_cif.got.tgz:20027.got - 2010.06.03 13:09:01.
