data_PCOD9423930
_publ_section_title
;
Structure prediction by ZEFSAII (Michael W. Deem and Ramdas Pophale) SiO2 
 PCOD9423930
Probable space group: P C C A
;
_chemical_formula_sum "Si O2"
_cell_formula_units_Z 32
_cell_length_a 25.209605
_cell_length_b 6.378760
_cell_length_c 9.387829
_cell_angle_alpha 90.000000
_cell_angle_beta 90.000000
_cell_angle_gamma 90.000000
_cell_volume 1509.619418
_symmetry_space_group_name_H-M "P C C A"
_symmetry_group_IT_number 54
_symmetry_cell_setting 'orthorhombic'
loop_
_space_group_symop_operation_xyz
x,y,z
1/2-x,-y,z
1/2+x,-y,1/2-z
-x,y,1/2-z
-x,-y,-z
1/2+x,y,-z
1/2-x,y,1/2+z
x,-y,1/2+z
loop_
_atom_site_type_symbol
_atom_site_label
_atom_site_fract_x
_atom_site_fract_y
_atom_site_fract_z
Si Si1 0.750000 0.500000 0.978360
Si Si2 0.289616 0.202525 0.773159
Si Si3 0.409195 0.147441 0.694503
Si Si4 0.041820 0.143886 0.915647
Si Si5 0.500000 0.484710 0.750000
O O1 0.718348 0.651423 0.087421
O O2 0.778526 0.658266 0.868367
O O3 0.351205 0.146773 0.759993
O O4 0.250000 0.000000 0.777718
O O5 0.408788 0.146112 0.523781
O O6 0.448188 0.342194 0.727667
O O7 0.439171 0.953439 0.767671
O O8 0.015255 0.363344 0.879843
O O9 0.000000 0.000000 0.000000
#
# Coordination Sequence:
#
# PCOD9423930 Si02
#       5
#     4   8   8   8   4
#     4  10  26  50  70 106 136 186 252 286 364 428
#     4  11  27  48  74 103 144 187 240 305 353 422
#     4  12  28  42  74 101 141 189 231 285 358 419
#     4  12  24  46  65 108 145 182 230 281 352 427
#     4  12  24  44  70 102 146 178 234 284 346 430
#
# _framework density 21.197396000000001
#
# number of rings (size 3 to 8) (size 9 to 14) (size 15 to 20)
#    0.000    0.500    5.000    1.500   10.500    2.000 
#    0.000    0.000    0.000    0.000    0.000    0.000 
#    0.000    0.000    0.000    0.000    0.000    0.000 
#
# Total GULP energy -178633.636753 kJ/mol
# GULP energy per Si atom -5582.301149 kJ/mol
# Density = 2.114915 g / cm^3
# Si number density = 21.197396 Si / 1000 Ang^3
#
#
#
# Elastic Constant Matrix: (Units=GPa)
#
#
# Indices 1 2 3 4 5 6 
#
# 1 127.9641 52.8021 21.7059 0.0000 0.0000 0.0000
# 2 52.8021 121.8147 44.9678 0.0000 0.0000 0.0000
# 3 21.7059 44.9678 130.0099 0.0000 0.0000 0.0000
# 4 0.0000 0.0000 0.0000 38.8700 0.0000 0.0000
# 5 0.0000 0.0000 0.0000 0.0000 14.9627 0.0000
# 6 0.0000 0.0000 0.0000 0.0000 0.0000 20.3740
#
#
#
# Elastic Compliance Matrix: (Units=1/GPa)
#
#
# Indices 1 2 3 4 5 6 
#
# 1 0.009521 -0.004058 -0.000186 0.000000 0.000000 0.000000
# 2 -0.004058 0.011141 -0.003176 0.000000 0.000000 0.000000
# 3 -0.000186 -0.003176 0.008821 0.000000 0.000000 0.000000
# 4 0.000000 0.000000 0.000000 0.025727 0.000000 0.000000
# 5 0.000000 0.000000 0.000000 0.000000 0.066833 0.000000
# 6 0.000000 0.000000 0.000000 0.000000 0.000000 0.049082
#
#
# Mechanical properties :
#
#
# Convention : Reuss Voigt Hill
#
# Bulk Modulus (GPa) = 68.29309 68.74890 68.52099
# Shear Modulus (GPa) = 26.19924 32.19554 29.19739
#
# Velocity S-wave (km/s) = 3.51944 3.90146 3.71537
# Velocity P-wave (km/s) = 6.98591 7.26625 7.12746
#
# Compressibility (1/GPa) = 0.01464277
#
# Stress axis : x y z
#
# Youngs Moduli (GPa) = 105.03313 89.76144 113.36344
#
# Poissons Ratio (x) = 0.36428 0.02107
# Poissons Ratio (y) = 0.42626 0.36002
# Poissons Ratio (z) = 0.01952 0.28506
#
# Static dielectric constant tensor:
#      x y z
#    x 2.381000 0.000000 0.000000 
#    y 0.000000 1.765000 0.000000 
#    z 0.000000 0.000000 1.821630 
# 
# From -- ./inp_files/5675.got.cif
#   From: 2010.05.17/outbox.cif.g08.bks.cpg/sg54_3_cif.got.tgz:5675.got - 2010.06.03 13:09:01.
