data_PCOD9423322
_publ_section_title
;
Structure prediction by ZEFSAII (Michael W. Deem and Ramdas Pophale) SiO2 
 PCOD9423322
Probable space group: P C C A
;
_chemical_formula_sum "Si O2"
_cell_formula_units_Z 32
_cell_length_a 14.021937
_cell_length_b 5.601533
_cell_length_c 16.739763
_cell_angle_alpha 90.000000
_cell_angle_beta 90.000000
_cell_angle_gamma 90.000000
_cell_volume 1314.813684
_symmetry_space_group_name_H-M "P C C A"
_symmetry_group_IT_number 54
_symmetry_cell_setting 'orthorhombic'
loop_
_space_group_symop_operation_xyz
x,y,z
1/2-x,-y,z
1/2+x,-y,1/2-z
-x,y,1/2-z
-x,-y,-z
1/2+x,y,-z
1/2-x,y,1/2+z
x,-y,1/2+z
loop_
_atom_site_type_symbol
_atom_site_label
_atom_site_fract_x
_atom_site_fract_y
_atom_site_fract_z
Si Si1 0.689929 0.795650 0.221339
Si Si2 0.500000 0.085849 0.250000
Si Si3 0.433150 0.543751 0.879409
Si Si4 0.926488 0.186006 0.462973
Si Si5 0.250000 0.000000 0.632277
O O1 0.651858 0.574253 0.171641
O O2 0.750000 0.000000 0.173540
O O3 0.592638 0.921192 0.250944
O O4 0.751067 0.779917 0.303405
O O5 0.516163 0.255248 0.173843
O O6 0.512751 0.348081 0.902089
O O7 0.395337 0.648310 0.962823
O O8 0.840143 0.047275 0.422711
O O9 0.000000 0.000000 0.500000
#
# Coordination Sequence:
#
# PCOD9423322 Si02
#       5
#     8   4   8   8   4
#     4  10  24  44  73 105 149 189 255 324 380 463
#     4  12  22  46  76  98 142 190 256 318 380 462
#     4  11  24  45  75 107 144 203 253 314 404 466
#     4  11  24  48  74 104 154 197 250 319 390 476
#     4  10  22  46  72 102 148 196 242 322 384 450
#
# _framework density 24.338048000000001
#
# number of rings (size 3 to 8) (size 9 to 14) (size 15 to 20)
#    0.750    0.500    0.000    6.750    0.000    1.000 
#   13.500    8.750    0.000    0.000    0.000    0.000 
#    0.000    0.000    0.000    0.000    0.000    0.000 
#
# Total GULP energy -179029.683740 kJ/mol
# GULP energy per Si atom -5594.677617 kJ/mol
# Density = 2.428265 g / cm^3
# Si number density = 24.338048 Si / 1000 Ang^3
#
#
#
# Elastic Constant Matrix: (Units=GPa)
#
#
# Indices 1 2 3 4 5 6 
#
# 1 150.4399 48.6514 75.5026 0.0000 0.0000 0.0000
# 2 48.6514 88.8621 53.3277 0.0000 0.0000 0.0000
# 3 75.5026 53.3277 149.6907 0.0000 0.0000 0.0000
# 4 0.0000 0.0000 0.0000 65.1535 0.0000 0.0000
# 5 0.0000 0.0000 0.0000 0.0000 46.2644 0.0000
# 6 0.0000 0.0000 0.0000 0.0000 0.0000 36.7160
#
#
#
# Elastic Compliance Matrix: (Units=1/GPa)
#
#
# Indices 1 2 3 4 5 6 
#
# 1 0.009471 -0.002949 -0.003727 0.000000 0.000000 0.000000
# 2 -0.002949 0.015232 -0.003939 0.000000 0.000000 0.000000
# 3 -0.003727 -0.003939 0.009963 0.000000 0.000000 0.000000
# 4 0.000000 0.000000 0.000000 0.015348 0.000000 0.000000
# 5 0.000000 0.000000 0.000000 0.000000 0.021615 0.000000
# 6 0.000000 0.000000 0.000000 0.000000 0.000000 0.027236
#
#
# Mechanical properties :
#
#
# Convention : Reuss Voigt Hill
#
# Bulk Modulus (GPa) = 74.41982 82.66179 78.54081
# Shear Modulus (GPa) = 40.13691 43.72752 41.93221
#
# Velocity S-wave (km/s) = 4.06537 4.24332 4.15530
# Velocity P-wave (km/s) = 7.25812 7.61875 7.44062
#
# Compressibility (1/GPa) = 0.01343728
#
# Stress axis : x y z
#
# Youngs Moduli (GPa) = 105.58374 65.65230 100.36811
#
# Poissons Ratio (x) = 0.19361 0.37403
# Poissons Ratio (y) = 0.31137 0.39534
# Poissons Ratio (z) = 0.39346 0.25860
#
# Static dielectric constant tensor:
#      x y z
#    x 1.938900 0.000000 0.000000 
#    y 0.000000 2.011250 0.000000 
#    z 0.000000 0.000000 1.957580 
# 
# From -- ./inp_files/17609.got.cif
#   From: 2010.05.17/outbox.cif.g08.bks.cpg/sg54_9_cif.got.tgz:17609.got - 2010.06.03 13:09:01.
