data_PCOD9424311
_publ_section_title
;
Structure prediction by ZEFSAII (Michael W. Deem and Ramdas Pophale) SiO2 
 PCOD9424311
Probable space group: P C C A
;
_chemical_formula_sum "Si O2"
_cell_formula_units_Z 48
_cell_length_a 24.450797
_cell_length_b 9.078784
_cell_length_c 9.357461
_cell_angle_alpha 90.000000
_cell_angle_beta 90.000000
_cell_angle_gamma 90.000000
_cell_volume 2077.201987
_symmetry_space_group_name_H-M "P C C A"
_symmetry_group_IT_number 54
_symmetry_cell_setting 'orthorhombic'
loop_
_space_group_symop_operation_xyz
x,y,z
1/2-x,-y,z
1/2+x,-y,1/2-z
-x,y,1/2-z
-x,-y,-z
1/2+x,y,-z
1/2-x,y,1/2+z
x,-y,1/2+z
loop_
_atom_site_type_symbol
_atom_site_label
_atom_site_fract_x
_atom_site_fract_y
_atom_site_fract_z
Si Si1 0.864971 0.553589 0.263107
Si Si2 0.788207 0.787569 0.398352
Si Si3 0.185975 0.743431 0.792125
Si Si4 0.121241 0.015073 0.166853
Si Si5 0.031200 0.386968 0.102184
Si Si6 0.918768 0.174168 0.603248
O O1 0.825215 0.645224 0.365196
O O2 0.830143 0.425720 0.189616
O O3 0.913104 0.470669 0.349171
O O4 0.888406 0.675335 0.153236
O O5 0.786621 0.807256 0.566875
O O6 0.728917 0.762854 0.334751
O O7 0.822747 0.920415 0.328665
O O8 0.132066 0.835048 0.752229
O O9 0.075874 0.916273 0.248406
O O10 0.111524 0.061566 0.003788
O O11 0.000000 0.357221 0.250000
O O12 0.036466 0.240871 0.004548
O O13 0.000000 0.500000 0.000000
#
# Coordination Sequence:
#
# PCOD9424311 Si02
#       6
#     8   8   8   8   8   8
#     4  11  25  45  77 103 148 188 252 316 368 439
#     4  11  27  41  68 104 148 196 245 296 365 445
#     4  12  25  42  69 105 146 194 249 297 371 434
#     4  11  24  45  73 101 151 201 240 298 368 453
#     4  12  25  47  82 112 140 188 253 317 389 444
#     4  11  24  48  75 108 147 199 246 304 378 445
#
# _framework density 23.108008000000002
#
# number of rings (size 3 to 8) (size 9 to 14) (size 15 to 20)
#    0.000    0.667    5.000    2.000    4.667    2.667 
#    0.000    0.833    0.000    0.000    0.000    0.000 
#    0.000    0.000    0.000    0.000    0.000    0.000 
#
# Total GULP energy -268199.296322 kJ/mol
# GULP energy per Si atom -5587.485340 kJ/mol
# Density = 2.305541 g / cm^3
# Si number density = 23.108008 Si / 1000 Ang^3
#
#
#
# Elastic Constant Matrix: (Units=GPa)
#
#
# Indices 1 2 3 4 5 6 
#
# 1 43.3596 13.7111 6.3722 0.0000 0.0000 0.0000
# 2 13.7111 110.7903 21.3244 0.0000 0.0000 0.0000
# 3 6.3722 21.3244 117.9245 0.0000 0.0000 0.0000
# 4 0.0000 0.0000 0.0000 36.6869 0.0000 0.0000
# 5 0.0000 0.0000 0.0000 0.0000 29.8840 0.0000
# 6 0.0000 0.0000 0.0000 0.0000 0.0000 27.6383
#
#
#
# Elastic Compliance Matrix: (Units=1/GPa)
#
#
# Indices 1 2 3 4 5 6 
#
# 1 0.024073 -0.002827 -0.000790 0.000000 0.000000 0.000000
# 2 -0.002827 0.009684 -0.001598 0.000000 0.000000 0.000000
# 3 -0.000790 -0.001598 0.008812 0.000000 0.000000 0.000000
# 4 0.000000 0.000000 0.000000 0.027258 0.000000 0.000000
# 5 0.000000 0.000000 0.000000 0.000000 0.033463 0.000000
# 6 0.000000 0.000000 0.000000 0.000000 0.000000 0.036182
#
#
# Mechanical properties :
#
#
# Convention : Reuss Voigt Hill
#
# Bulk Modulus (GPa) = 31.11576 39.43221 35.27399
# Shear Modulus (GPa) = 31.13067 34.21963 32.67515
#
# Velocity S-wave (km/s) = 3.67438 3.85236 3.76442
# Velocity P-wave (km/s) = 5.61213 6.07363 5.84743
#
# Compressibility (1/GPa) = 0.03213805
#
# Stress axis : x y z
#
# Youngs Moduli (GPa) = 41.54026 103.26748 113.48563
#
# Poissons Ratio (x) = 0.29196 0.08960
# Poissons Ratio (y) = 0.11744 0.18139
# Poissons Ratio (z) = 0.03280 0.16505
#
# Static dielectric constant tensor:
#      x y z
#    x 1.888160 0.000000 0.000000 
#    y 0.000000 1.799250 0.000000 
#    z 0.000000 0.000000 1.868880 
# 
# From -- ./inp_files/5815.got.cif
#   From: 2010.05.17/outbox.cif.g08.bks.cpg/sg54_3_cif.got.tgz:5815.got - 2010.06.03 13:09:01.
