data_PCOD9424239
_publ_section_title
;
Structure prediction by ZEFSAII (Michael W. Deem and Ramdas Pophale) SiO2 
 PCOD9424239
Probable space group: P C C A
;
_chemical_formula_sum "Si O2"
_cell_formula_units_Z 36
_cell_length_a 8.126599
_cell_length_b 8.856489
_cell_length_c 21.720709
_cell_angle_alpha 90.000000
_cell_angle_beta 90.000000
_cell_angle_gamma 90.000000
_cell_volume 1563.307514
_symmetry_space_group_name_H-M "P C C A"
_symmetry_group_IT_number 54
_symmetry_cell_setting 'orthorhombic'
loop_
_space_group_symop_operation_xyz
x,y,z
1/2-x,-y,z
1/2+x,-y,1/2-z
-x,y,1/2-z
-x,-y,-z
1/2+x,y,-z
1/2-x,y,1/2+z
x,-y,1/2+z
loop_
_atom_site_type_symbol
_atom_site_label
_atom_site_fract_x
_atom_site_fract_y
_atom_site_fract_z
Si Si1 0.005036 0.099085 0.561429
Si Si2 0.436390 0.446050 0.066403
Si Si3 0.250000 0.000000 0.160491
Si Si4 0.250000 0.000000 0.358826
Si Si5 0.676509 0.232391 0.736956
Si Si6 0.250000 0.500000 0.345385
O O1 0.077606 0.264888 0.558507
O O2 0.100908 0.004739 0.612838
O O3 0.000000 0.000000 0.500000
O O4 0.828248 0.117270 0.593453
O O5 0.250000 0.500000 0.081547
O O6 0.582068 0.500108 0.113288
O O7 0.500000 0.500000 0.000000
O O8 0.252735 0.148778 0.203837
O O9 0.143863 0.095819 0.310663
O O10 0.500000 0.303406 0.750000
O O11 0.775257 0.357035 0.699965
#
# Coordination Sequence:
#
# PCOD9424239 Si02
#       6
#     8   8   4   4   8   4
#     4  12  28  47  81 113 153 207 270 333 412 485
#     4  12  30  50  78 118 169 212 269 338 417 490
#     4  11  27  48  76 112 149 195 264 330 398 469
#     4  11  23  48  72 110 149 195 270 328 394 483
#     4  11  25  47  75 105 154 205 255 331 398 476
#     4  12  28  52  78 114 162 214 272 326 412 492
#
# _framework density 23.028096999999999
#
# number of rings (size 3 to 8) (size 9 to 14) (size 15 to 20)
#    0.000    0.444    5.556    0.667   12.444    1.778 
#    0.000    0.000    0.000    0.000    0.000    0.000 
#    0.000    0.000    0.000    0.000    0.000    0.000 
#
# Total GULP energy -200813.054329 kJ/mol
# GULP energy per Si atom -5578.140398 kJ/mol
# Density = 2.297568 g / cm^3
# Si number density = 23.028097 Si / 1000 Ang^3
#
#
#
# Elastic Constant Matrix: (Units=GPa)
#
#
# Indices 1 2 3 4 5 6 
#
# 1 92.5185 17.1103 55.2937 0.0000 0.0000 0.0000
# 2 17.1103 104.0394 59.6470 0.0000 0.0000 0.0000
# 3 55.2937 59.6470 186.9531 0.0000 0.0000 0.0000
# 4 0.0000 0.0000 0.0000 25.9725 0.0000 0.0000
# 5 0.0000 0.0000 0.0000 0.0000 25.3023 0.0000
# 6 0.0000 0.0000 0.0000 0.0000 0.0000 31.5239
#
#
#
# Elastic Compliance Matrix: (Units=1/GPa)
#
#
# Indices 1 2 3 4 5 6 
#
# 1 0.013130 0.000082 -0.003910 0.000000 0.000000 0.000000
# 2 0.000082 0.011764 -0.003778 0.000000 0.000000 0.000000
# 3 -0.003910 -0.003778 0.007710 0.000000 0.000000 0.000000
# 4 0.000000 0.000000 0.000000 0.038502 0.000000 0.000000
# 5 0.000000 0.000000 0.000000 0.000000 0.039522 0.000000
# 6 0.000000 0.000000 0.000000 0.000000 0.000000 0.031722
#
#
# Mechanical properties :
#
#
# Convention : Reuss Voigt Hill
#
# Bulk Modulus (GPa) = 57.48995 71.95700 64.72347
# Shear Modulus (GPa) = 30.60745 33.32373 31.96559
#
# Velocity S-wave (km/s) = 3.64969 3.80819 3.72978
# Velocity P-wave (km/s) = 6.54061 7.11700 6.83489
#
# Compressibility (1/GPa) = 0.01739434
#
# Stress axis : x y z
#
# Youngs Moduli (GPa) = 76.16132 85.00543 129.69417
#
# Poissons Ratio (x) = -0.00697 0.50704
# Poissons Ratio (y) = -0.00625 0.48992
# Poissons Ratio (z) = 0.29776 0.32111
#
# Static dielectric constant tensor:
#      x y z
#    x 2.229600 0.000000 0.000000 
#    y 0.000000 1.862010 0.000000 
#    z 0.000000 0.000000 1.829730 
# 
# From -- ./inp_files/20164.got.cif
#   From: 2010.05.17/outbox.cif.g08.bks.cpg/sg54_11_cif.got.tgz:20164.got - 2010.06.03 13:09:01.
