data_PCOD9424147
_publ_section_title
;
Structure prediction by ZEFSAII (Michael W. Deem and Ramdas Pophale) SiO2 
 PCOD9424147
Probable space group: P C C A
;
_chemical_formula_sum "Si O2"
_cell_formula_units_Z 40
_cell_length_a 8.615649
_cell_length_b 8.263378
_cell_length_c 25.744097
_cell_angle_alpha 90.000000
_cell_angle_beta 90.000000
_cell_angle_gamma 90.000000
_cell_volume 1832.834623
_symmetry_space_group_name_H-M "P C C A"
_symmetry_group_IT_number 54
_symmetry_cell_setting 'orthorhombic'
loop_
_space_group_symop_operation_xyz
x,y,z
1/2-x,-y,z
1/2+x,-y,1/2-z
-x,y,1/2-z
-x,-y,-z
1/2+x,y,-z
1/2-x,y,1/2+z
x,-y,1/2+z
loop_
_atom_site_type_symbol
_atom_site_label
_atom_site_fract_x
_atom_site_fract_y
_atom_site_fract_z
Si Si1 0.566944 0.036493 0.344743
Si Si2 0.443906 0.366579 0.307005
Si Si3 0.903014 0.903943 0.457760
Si Si4 0.885285 0.382576 0.030990
Si Si5 0.094761 0.300477 0.352609
O O1 0.530371 0.195568 0.312198
O O2 0.514391 0.101051 0.402433
O O3 0.750000 0.000000 0.340789
O O4 0.478831 0.868136 0.332808
O O5 0.500000 0.422472 0.250000
O O6 0.265385 0.324025 0.325530
O O7 0.486305 0.525891 0.340961
O O8 0.845820 0.742694 0.485745
O O9 0.750000 0.000000 0.445796
O O10 0.000000 0.000000 0.500000
O O11 0.750000 0.500000 0.048667
O O12 0.921415 0.288845 0.084351
O O13 0.000000 0.500000 0.000000
#
# Coordination Sequence:
#
# PCOD9424147 Si02
#       5
#     8   8   8   8   8
#     4  11  26  44  68 108 148 188 242 296 362 442
#     4  11  26  48  75 102 136 187 251 309 370 428
#     4  11  23  38  63  97 142 189 228 277 344 424
#     4  12  24  41  69 105 148 192 239 288 357 443
#     4  11  25  48  74 105 143 195 241 301 374 437
#
# _framework density 21.824117000000001
#
# number of rings (size 3 to 8) (size 9 to 14) (size 15 to 20)
#    0.000    0.800    4.000    3.000    5.600    6.400 
#    0.000    0.000    0.000    0.000    0.000    0.000 
#    0.000    0.000    0.000    0.000    0.000    0.000 
#
# Total GULP energy -222696.317688 kJ/mol
# GULP energy per Si atom -5567.407942 kJ/mol
# Density = 2.177444 g / cm^3
# Si number density = 21.824117 Si / 1000 Ang^3
#
#
#
# Elastic Constant Matrix: (Units=GPa)
#
#
# Indices 1 2 3 4 5 6 
#
# 1 37.7356 9.5738 11.1980 0.0000 0.0000 0.0000
# 2 9.5738 149.9735 8.4895 0.0000 0.0000 0.0000
# 3 11.1980 8.4895 75.7659 0.0000 0.0000 0.0000
# 4 0.0000 0.0000 0.0000 27.0176 0.0000 0.0000
# 5 0.0000 0.0000 0.0000 0.0000 19.5717 0.0000
# 6 0.0000 0.0000 0.0000 0.0000 0.0000 31.5848
#
#
#
# Elastic Compliance Matrix: (Units=1/GPa)
#
#
# Indices 1 2 3 4 5 6 
#
# 1 0.028077 -0.001567 -0.003974 0.000000 0.000000 0.000000
# 2 -0.001567 0.006798 -0.000530 0.000000 0.000000 0.000000
# 3 -0.003974 -0.000530 0.013845 0.000000 0.000000 0.000000
# 4 0.000000 0.000000 0.000000 0.037013 0.000000 0.000000
# 5 0.000000 0.000000 0.000000 0.000000 0.051094 0.000000
# 6 0.000000 0.000000 0.000000 0.000000 0.000000 0.031661
#
#
# Mechanical properties :
#
#
# Convention : Reuss Voigt Hill
#
# Bulk Modulus (GPa) = 27.33935 35.77750 31.55843
# Shear Modulus (GPa) = 25.93042 31.24907 28.58975
#
# Velocity S-wave (km/s) = 3.45070 3.78810 3.62333
# Velocity P-wave (km/s) = 5.33205 5.96339 5.65654
#
# Compressibility (1/GPa) = 0.03657731
#
# Stress axis : x y z
#
# Youngs Moduli (GPa) = 35.61613 147.10413 72.22665
#
# Poissons Ratio (x) = 0.23057 0.28704
# Poissons Ratio (y) = 0.05582 0.03828
# Poissons Ratio (z) = 0.14154 0.07797
#
# Static dielectric constant tensor:
#      x y z
#    x 1.784130 0.000000 0.000000 
#    y 0.000000 1.616480 0.000000 
#    z 0.000000 0.000000 2.008870 
# 
# From -- ./inp_files/23267.got.cif
#   From: 2010.05.17/outbox.cif.g08.bks.cpg/sg54_12_cif.got.tgz:23267.got - 2010.06.03 13:09:01.
