data_PCOD9424057
_publ_section_title
;
Structure prediction by ZEFSAII (Michael W. Deem and Ramdas Pophale) SiO2 
 PCOD9424057
Probable space group: P C C A
;
_chemical_formula_sum "Si O2"
_cell_formula_units_Z 56
_cell_length_a 20.440117
_cell_length_b 8.181557
_cell_length_c 16.610657
_cell_angle_alpha 90.000000
_cell_angle_beta 90.000000
_cell_angle_gamma 90.000000
_cell_volume 2777.833098
_symmetry_space_group_name_H-M "P C C A"
_symmetry_group_IT_number 54
_symmetry_cell_setting 'orthorhombic'
loop_
_space_group_symop_operation_xyz
x,y,z
1/2-x,-y,z
1/2+x,-y,1/2-z
-x,y,1/2-z
-x,-y,-z
1/2+x,y,-z
1/2-x,y,1/2+z
x,-y,1/2+z
loop_
_atom_site_type_symbol
_atom_site_label
_atom_site_fract_x
_atom_site_fract_y
_atom_site_fract_z
Si Si1 0.139521 0.855754 0.371253
Si Si2 0.515923 0.357686 0.899147
Si Si3 0.291506 0.662184 0.570012
Si Si4 0.886225 0.196114 0.797966
Si Si5 0.388590 0.466792 0.467232
Si Si6 0.000000 0.414463 0.750000
Si Si7 0.250000 0.000000 0.986476
Si Si8 0.504139 0.009150 0.402827
O O1 0.154146 0.883743 0.275999
O O2 0.139338 0.668144 0.405509
O O3 0.188035 0.959204 0.428888
O O4 0.065161 0.914492 0.381928
O O5 0.449781 0.421876 0.940788
O O6 0.519488 0.476600 0.824728
O O7 0.507831 0.174159 0.871694
O O8 0.578641 0.370455 0.957362
O O9 0.250000 0.500000 0.592189
O O10 0.337907 0.705771 0.644685
O O11 0.333946 0.591597 0.496226
O O12 0.259831 0.834360 0.540197
O O13 0.936344 0.303492 0.744953
O O14 0.934892 0.100759 0.860139
O O15 0.500000 0.000000 0.500000
#
# Coordination Sequence:
#
# PCOD9424057 Si02
#       8
#     8   8   8   8   8   4   4   8
#     4  12  24  45  68 104 146 188 232 303 362 427
#     4  11  23  36  67 108 135 181 227 291 364 429
#     4  12  27  50  74 100 137 195 247 292 351 449
#     4  12  25  46  71 105 146 184 235 310 372 425
#     4  11  21  43  69  98 136 181 240 282 358 430
#     4  12  22  40  64 100 146 176 230 296 368 414
#     4  12  28  50  74 102 142 196 252 292 356 442
#     4  12  23  41  72 107 142 182 238 297 363 426
#
# _framework density 20.159599
#
# number of rings (size 3 to 8) (size 9 to 14) (size 15 to 20)
#    0.000    0.286    7.143    2.571    2.000    0.571 
#    2.571    0.000    0.000    0.000    0.000    0.000 
#    0.000    0.000    0.000    0.000    0.000    0.000 
#
# Total GULP energy -312177.339454 kJ/mol
# GULP energy per Si atom -5574.595347 kJ/mol
# Density = 2.011372 g / cm^3
# Si number density = 20.159599 Si / 1000 Ang^3
#
#
#
# Elastic Constant Matrix: (Units=GPa)
#
#
# Indices 1 2 3 4 5 6 
#
# 1 76.5413 49.9276 40.1842 0.0000 0.0000 0.0000
# 2 49.9276 124.4169 43.1724 0.0000 0.0000 0.0000
# 3 40.1842 43.1724 110.3191 0.0000 0.0000 0.0000
# 4 0.0000 0.0000 0.0000 26.8084 0.0000 0.0000
# 5 0.0000 0.0000 0.0000 0.0000 44.4318 0.0000
# 6 0.0000 0.0000 0.0000 0.0000 0.0000 32.5583
#
#
#
# Elastic Compliance Matrix: (Units=1/GPa)
#
#
# Indices 1 2 3 4 5 6 
#
# 1 0.019598 -0.006234 -0.004699 0.000000 0.000000 0.000000
# 2 -0.006234 0.011283 -0.002145 0.000000 0.000000 0.000000
# 3 -0.004699 -0.002145 0.011616 0.000000 0.000000 0.000000
# 4 0.000000 0.000000 0.000000 0.037302 0.000000 0.000000
# 5 0.000000 0.000000 0.000000 0.000000 0.022506 0.000000
# 6 0.000000 0.000000 0.000000 0.000000 0.000000 0.030714
#
#
# Mechanical properties :
#
#
# Convention : Reuss Voigt Hill
#
# Bulk Modulus (GPa) = 61.19472 64.20508 62.69990
# Shear Modulus (GPa) = 30.37242 32.62592 31.49917
#
# Velocity S-wave (km/s) = 3.88570 4.02728 3.95712
# Velocity P-wave (km/s) = 7.11004 7.31729 7.21441
#
# Compressibility (1/GPa) = 0.01634128
#
# Stress axis : x y z
#
# Youngs Moduli (GPa) = 51.02471 88.62530 86.09058
#
# Poissons Ratio (x) = 0.55250 0.40455
# Poissons Ratio (y) = 0.31809 0.18465
# Poissons Ratio (z) = 0.23977 0.19009
#
# Static dielectric constant tensor:
#      x y z
#    x 1.713330 0.000000 0.000000 
#    y 0.000000 1.759720 0.000000 
#    z 0.000000 0.000000 2.075200 
# 
# From -- ./inp_files/14734.got.cif
#   From: 2010.05.17/outbox.cif.g08.bks.cpg/sg54_8_cif.got.tgz:14734.got - 2010.06.03 13:09:01.
