data_PCOD9424351
_publ_section_title
;
Structure prediction by ZEFSAII (Michael W. Deem and Ramdas Pophale) SiO2 
 PCOD9424351
Probable space group: P C C A
;
_chemical_formula_sum "Si O2"
_cell_formula_units_Z 24
_cell_length_a 7.373113
_cell_length_b 7.312046
_cell_length_c 16.972640
_cell_angle_alpha 90.000000
_cell_angle_beta 90.000000
_cell_angle_gamma 90.000000
_cell_volume 915.038157
_symmetry_space_group_name_H-M "P C C A"
_symmetry_group_IT_number 54
_symmetry_cell_setting 'orthorhombic'
loop_
_space_group_symop_operation_xyz
x,y,z
1/2-x,-y,z
1/2+x,-y,1/2-z
-x,y,1/2-z
-x,-y,-z
1/2+x,y,-z
1/2-x,y,1/2+z
x,-y,1/2+z
loop_
_atom_site_type_symbol
_atom_site_label
_atom_site_fract_x
_atom_site_fract_y
_atom_site_fract_z
Si Si1 0.818843 0.306782 0.953847
Si Si2 0.402253 0.258122 0.330227
Si Si3 0.956936 0.840303 0.614622
O O1 0.750000 0.500000 0.984157
O O2 0.662621 0.222542 0.898034
O O3 0.993424 0.351667 0.901588
O O4 0.872515 0.177335 0.026341
O O5 0.500000 0.307533 0.250000
O O6 0.185081 0.275816 0.332768
O O7 0.445093 0.043427 0.350288
#
# Coordination Sequence:
#
# PCOD9424351 Si02
#       3
#     8   8   8
#     4  12  25  45  72 105 139 184 232 289 350 416
#     4  11  27  45  67 106 138 184 236 290 353 407
#     4  11  25  43  76  96 139 183 238 289 333 420
#
# _framework density 26.228414999999998
#
# number of rings (size 3 to 8) (size 9 to 14) (size 15 to 20)
#    0.000    0.667    3.333    3.000   14.000    0.000 
#    6.000    0.000    0.000    0.000    0.000    0.000 
#    0.000    0.000    0.000    0.000    0.000    0.000 
#
# Total GULP energy -134558.605461 kJ/mol
# GULP energy per Si atom -5606.608561 kJ/mol
# Density = 2.616872 g / cm^3
# Si number density = 26.228415 Si / 1000 Ang^3
#
#
#
# Elastic Constant Matrix: (Units=GPa)
#
#
# Indices 1 2 3 4 5 6 
#
# 1 153.6139 14.0298 17.8940 0.0000 0.0000 0.0000
# 2 14.0298 55.2797 -2.8945 0.0000 0.0000 0.0000
# 3 17.8940 -2.8945 105.5226 0.0000 0.0000 0.0000
# 4 0.0000 0.0000 0.0000 15.9175 0.0000 0.0000
# 5 0.0000 0.0000 0.0000 0.0000 39.3669 0.0000
# 6 0.0000 0.0000 0.0000 0.0000 0.0000 40.4274
#
#
#
# Elastic Compliance Matrix: (Units=1/GPa)
#
#
# Indices 1 2 3 4 5 6 
#
# 1 0.006814 -0.001792 -0.001205 0.000000 0.000000 0.000000
# 2 -0.001792 0.018587 0.000814 0.000000 0.000000 0.000000
# 3 -0.001205 0.000814 0.009703 0.000000 0.000000 0.000000
# 4 0.000000 0.000000 0.000000 0.062824 0.000000 0.000000
# 5 0.000000 0.000000 0.000000 0.000000 0.025402 0.000000
# 6 0.000000 0.000000 0.000000 0.000000 0.000000 0.024736
#
#
# Mechanical properties :
#
#
# Convention : Reuss Voigt Hill
#
# Bulk Modulus (GPa) = 32.53308 41.38610 36.95959
# Shear Modulus (GPa) = 30.73544 38.16815 34.45179
#
# Velocity S-wave (km/s) = 3.42692 3.81887 3.62820
# Velocity P-wave (km/s) = 5.29991 5.93788 5.62795
#
# Compressibility (1/GPa) = 0.03073795
#
# Stress axis : x y z
#
# Youngs Moduli (GPa) = 146.75979 53.80008 103.05837
#
# Poissons Ratio (x) = 0.09643 0.12415
# Poissons Ratio (y) = 0.26305 -0.08387
# Poissons Ratio (z) = 0.17679 -0.04378
#
# Static dielectric constant tensor:
#      x y z
#    x 2.078020 0.000000 0.000000 
#    y 0.000000 2.150550 0.000000 
#    z 0.000000 0.000000 1.975310 
# 
# From -- ./inp_files/11114.got.cif
#   From: 2010.05.17/outbox.cif.g08.bks.cpg/sg54_6_cif.got.tgz:11114.got - 2010.06.03 13:09:01.
