data_PCOD9424437
_publ_section_title
;
Structure prediction by ZEFSAII (Michael W. Deem and Ramdas Pophale) SiO2 
 PCOD9424437
Probable space group: P C C A
;
_chemical_formula_sum "Si O2"
_cell_formula_units_Z 40
_cell_length_a 9.767769
_cell_length_b 18.973806
_cell_length_c 8.792686
_cell_angle_alpha 90.000000
_cell_angle_beta 90.000000
_cell_angle_gamma 90.000000
_cell_volume 1629.563919
_symmetry_space_group_name_H-M "P C C A"
_symmetry_group_IT_number 54
_symmetry_cell_setting 'orthorhombic'
loop_
_space_group_symop_operation_xyz
x,y,z
1/2-x,-y,z
1/2+x,-y,1/2-z
-x,y,1/2-z
-x,-y,-z
1/2+x,y,-z
1/2-x,y,1/2+z
x,-y,1/2+z
loop_
_atom_site_type_symbol
_atom_site_label
_atom_site_fract_x
_atom_site_fract_y
_atom_site_fract_z
Si Si1 0.750000 0.000000 0.557539
Si Si2 0.080767 0.370392 0.915022
Si Si3 0.195766 0.125131 0.107770
Si Si4 0.500000 0.011223 0.750000
Si Si5 0.358023 0.779484 0.838954
Si Si6 0.750000 0.500000 0.162880
Si Si7 0.000000 0.403795 0.250000
O O1 0.802922 0.929134 0.473089
O O2 0.879739 0.026702 0.657012
O O3 0.173095 0.301051 0.884301
O O4 0.166390 0.441447 0.927801
O O5 0.000000 0.377629 0.750000
O O6 0.006837 0.364118 0.082528
O O7 0.090507 0.065376 0.154760
O O8 0.253981 0.175250 0.237894
O O9 0.126755 0.177787 0.992180
O O10 0.500000 0.777330 0.750000
O O11 0.865957 0.453605 0.245471
#
# Coordination Sequence:
#
# PCOD9424437 Si02
#       7
#     4   8   8   4   8   4   4
#     4  12  26  48  82 112 156 206 262 328 398 476
#     4  11  28  50  76 117 160 214 274 338 409 499
#     4  12  26  49  76 111 153 203 260 328 395 481
#     4  12  26  47  78 115 152 202 264 322 400 479
#     4  11  28  49  74 110 157 204 265 326 410 487
#     4  12  26  50  82 122 164 218 282 346 416 502
#     4  12  28  47  84 117 166 212 278 346 422 485
#
# _framework density 24.546447000000001
#
# number of rings (size 3 to 8) (size 9 to 14) (size 15 to 20)
#    0.000    0.400    3.000    3.600    7.000    2.400 
#    0.000    0.000    0.000    0.000    0.000    0.000 
#    0.000    0.000    0.000    0.000    0.000    0.000 
#
# Total GULP energy -223134.388315 kJ/mol
# GULP energy per Si atom -5578.359708 kJ/mol
# Density = 2.449058 g / cm^3
# Si number density = 24.546447 Si / 1000 Ang^3
#
#
#
# Elastic Constant Matrix: (Units=GPa)
#
#
# Indices 1 2 3 4 5 6 
#
# 1 66.8045 3.3734 34.2706 0.0000 0.0000 0.0000
# 2 3.3734 162.6040 59.8297 0.0000 0.0000 0.0000
# 3 34.2706 59.8297 160.2558 0.0000 0.0000 0.0000
# 4 0.0000 0.0000 0.0000 68.7973 0.0000 0.0000
# 5 0.0000 0.0000 0.0000 0.0000 15.4597 0.0000
# 6 0.0000 0.0000 0.0000 0.0000 0.0000 -62.1664
#
#
#
# Elastic Compliance Matrix: (Units=1/GPa)
#
#
# Indices 1 2 3 4 5 6 
#
# 1 0.016994 0.001141 -0.004060 0.000000 0.000000 0.000000
# 2 0.001141 0.007206 -0.002934 0.000000 0.000000 0.000000
# 3 -0.004060 -0.002934 0.008204 0.000000 0.000000 0.000000
# 4 0.000000 0.000000 0.000000 0.014535 0.000000 0.000000
# 5 0.000000 0.000000 0.000000 0.000000 0.064684 0.000000
# 6 0.000000 0.000000 0.000000 0.000000 0.000000 -0.016086
#
#
# Mechanical properties :
#
#
# Convention : Reuss Voigt Hill
#
# Bulk Modulus (GPa) = 48.31488 64.95686 56.63587
# Shear Modulus (GPa) = 43.80443 23.89750 33.85097
#
# Velocity S-wave (km/s) = 4.22898 3.12358 3.71760
# Velocity P-wave (km/s) = 6.60087 6.28723 6.44596
#
# Compressibility (1/GPa) = 0.02069756
#
# Stress axis : x y z
#
# Youngs Moduli (GPa) = 58.84301 138.77499 121.89427
#
# Poissons Ratio (x) = -0.15840 0.49494
# Poissons Ratio (y) = -0.06717 0.35768
# Poissons Ratio (z) = 0.23892 0.40721
#
# Static dielectric constant tensor:
#      x y z
#    x 2.180100 0.000000 0.000000 
#    y 0.000000 1.896510 0.000000 
#    z 0.000000 0.000000 2.396920 
# 
# From -- ./inp_files/2993.got.cif
#   From: 2010.05.17/outbox.cif.g08.bks.cpg/sg54_2_cif.got.tgz:2993.got - 2010.06.03 13:09:01.
