data_PCOD9424078
_publ_section_title
;
Structure prediction by ZEFSAII (Michael W. Deem and Ramdas Pophale) SiO2 
 PCOD9424078
Probable space group: P C C A
;
_chemical_formula_sum "Si O2"
_cell_formula_units_Z 32
_cell_length_a 16.301280
_cell_length_b 9.515643
_cell_length_c 10.228034
_cell_angle_alpha 90.000000
_cell_angle_beta 90.000000
_cell_angle_gamma 90.000000
_cell_volume 1586.543596
_symmetry_space_group_name_H-M "P C C A"
_symmetry_group_IT_number 54
_symmetry_cell_setting 'orthorhombic'
loop_
_space_group_symop_operation_xyz
x,y,z
1/2-x,-y,z
1/2+x,-y,1/2-z
-x,y,1/2-z
-x,-y,-z
1/2+x,y,-z
1/2-x,y,1/2+z
x,-y,1/2+z
loop_
_atom_site_type_symbol
_atom_site_label
_atom_site_fract_x
_atom_site_fract_y
_atom_site_fract_z
Si Si1 0.839349 0.063923 0.719250
Si Si2 0.424672 0.909111 0.053843
Si Si3 0.416912 0.581895 0.032250
Si Si4 0.601290 0.630919 0.750784
O O1 0.859462 0.071120 0.564795
O O2 0.856261 0.219921 0.776364
O O3 0.750000 0.000000 0.738202
O O4 0.898344 0.966524 0.805834
O O5 0.438303 0.742380 0.066350
O O6 0.500000 0.000000 0.000000
O O7 0.377996 0.491161 0.147444
O O8 0.500000 0.500000 0.000000
O O9 0.371230 0.586542 0.894163
O O10 0.500000 0.651709 0.750000
#
# Coordination Sequence:
#
# PCOD9424078 Si02
#       4
#     8   8   8   8
#     4  11  23  39  58  86 122 156 193 244 298 351
#     4  11  22  38  62  90 116 155 203 244 291 354
#     4   9  18  32  55  85 113 144 192 247 290 337
#     4   9  18  35  57  85 115 149 194 243 290 348
#
# _framework density 20.169632
#
# number of rings (size 3 to 8) (size 9 to 14) (size 15 to 20)
#    0.000    2.000    0.000    6.000    0.000    8.000 
#    0.000    1.250    0.000    9.000    0.000    0.000 
#    0.000    0.000    0.000    0.000    0.000    0.000 
#
# Total GULP energy -178444.594687 kJ/mol
# GULP energy per Si atom -5576.393584 kJ/mol
# Density = 2.012372 g / cm^3
# Si number density = 20.169632 Si / 1000 Ang^3
#
#
#
# Elastic Constant Matrix: (Units=GPa)
#
#
# Indices 1 2 3 4 5 6 
#
# 1 57.1517 35.1419 1.7714 0.0000 0.0000 0.0000
# 2 35.1419 197.4363 81.3027 0.0000 0.0000 0.0000
# 3 1.7714 81.3027 66.6640 0.0000 0.0000 0.0000
# 4 0.0000 0.0000 0.0000 44.2071 0.0000 0.0000
# 5 0.0000 0.0000 0.0000 0.0000 17.7882 0.0000
# 6 0.0000 0.0000 0.0000 0.0000 0.0000 13.2918
#
#
#
# Elastic Compliance Matrix: (Units=1/GPa)
#
#
# Indices 1 2 3 4 5 6 
#
# 1 0.021722 -0.007290 0.008313 0.000000 0.000000 0.000000
# 2 -0.007290 0.012621 -0.015199 0.000000 0.000000 0.000000
# 3 0.008313 -0.015199 0.033316 0.000000 0.000000 0.000000
# 4 0.000000 0.000000 0.000000 0.022621 0.000000 0.000000
# 5 0.000000 0.000000 0.000000 0.000000 0.056217 0.000000
# 6 0.000000 0.000000 0.000000 0.000000 0.000000 0.075234
#
#
# Mechanical properties :
#
#
# Convention : Reuss Voigt Hill
#
# Bulk Modulus (GPa) = 25.43985 61.96488 43.70237
# Shear Modulus (GPa) = 18.99803 28.59315 23.79559
#
# Velocity S-wave (km/s) = 3.07239 3.76923 3.43851
# Velocity P-wave (km/s) = 5.02259 7.05205 6.12200
#
# Compressibility (1/GPa) = 0.03930840
#
# Stress axis : x y z
#
# Youngs Moduli (GPa) = 46.03646 79.23148 30.01534
#
# Poissons Ratio (x) = 0.57756 -0.24952
# Poissons Ratio (y) = 0.33559 0.45620
# Poissons Ratio (z) = -0.38270 1.20424
#
# Static dielectric constant tensor:
#      x y z
#    x 1.716170 0.000000 0.000000 
#    y 0.000000 1.721400 0.000000 
#    z 0.000000 0.000000 1.773240 
# 
# From -- ./inp_files/7911.got.cif
#   From: 2010.05.17/outbox.cif.g08.bks.cpg/sg54_4_cif.got.tgz:7911.got - 2010.06.03 13:09:01.
