data_PCOD9424294
_publ_section_title
;
Structure prediction by ZEFSAII (Michael W. Deem and Ramdas Pophale) SiO2 
 PCOD9424294
Probable space group: P C C A
;
_chemical_formula_sum "Si O2"
_cell_formula_units_Z 40
_cell_length_a 9.124204
_cell_length_b 19.148035
_cell_length_c 9.640795
_cell_angle_alpha 90.000000
_cell_angle_beta 90.000000
_cell_angle_gamma 90.000000
_cell_volume 1684.348862
_symmetry_space_group_name_H-M "P C C A"
_symmetry_group_IT_number 54
_symmetry_cell_setting 'orthorhombic'
loop_
_space_group_symop_operation_xyz
x,y,z
1/2-x,-y,z
1/2+x,-y,1/2-z
-x,y,1/2-z
-x,-y,-z
1/2+x,y,-z
1/2-x,y,1/2+z
x,-y,1/2+z
loop_
_atom_site_type_symbol
_atom_site_label
_atom_site_fract_x
_atom_site_fract_y
_atom_site_fract_z
Si Si1 0.388055 0.872089 0.373672
Si Si2 0.039714 0.280085 0.391457
Si Si3 0.653680 0.430884 0.174509
Si Si4 0.437632 0.064153 0.403033
Si Si5 0.228225 0.343672 0.079333
O O1 0.500000 0.896315 0.250000
O O2 0.373135 0.789453 0.349943
O O3 0.236190 0.916098 0.389028
O O4 0.477670 0.874580 0.517475
O O5 0.123071 0.323262 0.503830
O O6 0.000000 0.320846 0.250000
O O7 0.871670 0.274155 0.439529
O O8 0.750000 0.500000 0.179543
O O9 0.500000 0.444808 0.250000
O O10 0.726487 0.370825 0.270124
O O11 0.653637 0.403455 0.016045
O O12 0.500000 0.054906 0.250000
O O13 0.500000 0.000000 0.500000
#
# Coordination Sequence:
#
# PCOD9424294 Si02
#       5
#     8   8   8   8   8
#     4  11  25  47  73 110 150 197 248 306 368 435
#     4  11  24  44  72 103 141 185 238 303 359 434
#     4  12  28  44  69 101 139 187 243 303 367 439
#     4  12  26  47  75 111 152 198 249 299 363 430
#     4  12  24  45  69 101 138 185 242 297 371 430
#
# _framework density 23.748049000000002
#
# number of rings (size 3 to 8) (size 9 to 14) (size 15 to 20)
#    0.000    0.400    4.000    4.200    2.800    4.800 
#    3.600    0.000    0.000    0.000    0.000    0.000 
#    0.000    0.000    0.000    0.000    0.000    0.000 
#
# Total GULP energy -222926.158514 kJ/mol
# GULP energy per Si atom -5573.153963 kJ/mol
# Density = 2.369400 g / cm^3
# Si number density = 23.748049 Si / 1000 Ang^3
#
#
#
# Elastic Constant Matrix: (Units=GPa)
#
#
# Indices 1 2 3 4 5 6 
#
# 1 170.5054 21.5918 7.1515 0.0000 0.0000 0.0000
# 2 21.5918 55.3454 -15.4729 0.0000 0.0000 0.0000
# 3 7.1515 -15.4729 102.8551 0.0000 0.0000 0.0000
# 4 0.0000 0.0000 0.0000 48.0277 0.0000 0.0000
# 5 0.0000 0.0000 0.0000 0.0000 31.1511 0.0000
# 6 0.0000 0.0000 0.0000 0.0000 0.0000 35.0059
#
#
#
# Elastic Compliance Matrix: (Units=1/GPa)
#
#
# Indices 1 2 3 4 5 6 
#
# 1 0.006238 -0.002667 -0.000835 0.000000 0.000000 0.000000
# 2 -0.002667 0.020002 0.003194 0.000000 0.000000 0.000000
# 3 -0.000835 0.003194 0.010261 0.000000 0.000000 0.000000
# 4 0.000000 0.000000 0.000000 0.020821 0.000000 0.000000
# 5 0.000000 0.000000 0.000000 0.000000 0.032102 0.000000
# 6 0.000000 0.000000 0.000000 0.000000 0.000000 0.028567
#
#
# Mechanical properties :
#
#
# Convention : Reuss Voigt Hill
#
# Bulk Modulus (GPa) = 27.86627 39.47185 33.66906
# Shear Modulus (GPa) = 38.29461 43.86599 41.08030
#
# Velocity S-wave (km/s) = 4.02000 4.30250 4.16365
# Velocity P-wave (km/s) = 5.77120 6.42956 6.10925
#
# Compressibility (1/GPa) = 0.03588568
#
# Stress axis : x y z
#
# Youngs Moduli (GPa) = 160.31671 49.99543 97.45634
#
# Poissons Ratio (x) = 0.13333 0.08137
# Poissons Ratio (y) = 0.42755 -0.31131
# Poissons Ratio (z) = 0.13385 -0.15970
#
# Static dielectric constant tensor:
#      x y z
#    x 2.248130 0.000000 0.000000 
#    y 0.000000 2.051800 0.000000 
#    z 0.000000 0.000000 2.066210 
# 
# From -- ./inp_files/2536.got.cif
#   From: 2010.05.17/outbox.cif.g08.bks.cpg/sg54_2_cif.got.tgz:2536.got - 2010.06.03 13:09:01.
