data_PCOD9424688
_publ_section_title
;
Structure prediction by ZEFSAII (Michael W. Deem and Ramdas Pophale) SiO2 
 PCOD9424688
Probable space group: P C C A
;
_chemical_formula_sum "Si O2"
_cell_formula_units_Z 40
_cell_length_a 15.000000
_cell_length_b 9.000000
_cell_length_c 15.000000
_cell_angle_alpha 90.000000
_cell_angle_beta 90.000000
_cell_angle_gamma 90.000000
_cell_volume 2025.000000
_symmetry_space_group_name_H-M "P C C A"
_symmetry_group_IT_number 54
_symmetry_cell_setting 'orthorhombic'
loop_
_space_group_symop_operation_xyz
x,y,z
1/2-x,-y,z
1/2+x,-y,1/2-z
-x,y,1/2-z
-x,-y,-z
1/2+x,y,-z
1/2-x,y,1/2+z
x,-y,1/2+z
loop_
_atom_site_type_symbol
_atom_site_label
_atom_site_fract_x
_atom_site_fract_y
_atom_site_fract_z
Si Si1 0.632050 0.324709 0.611455
Si Si2 0.570329 0.345040 0.170253
Si Si3 0.241210 0.820693 0.246049
Si Si4 0.769235 0.320223 0.446649
Si Si5 0.469978 0.821267 0.006866
O O1 0.611140 0.499193 0.631980
O O2 0.675504 0.251035 0.699479
O O3 0.705314 0.297564 0.532842
O O4 0.540648 0.250273 0.576061
O O5 0.500000 0.376010 0.250000
O O6 0.651612 0.243521 0.207140
O O7 0.521296 0.254572 0.090857
O O8 0.240583 0.762712 0.144154
O O9 0.250000 0.000000 0.249724
O O10 0.750000 0.500000 0.430233
O O11 0.868615 0.243835 0.466740
O O12 0.500000 0.000000 0.000000
#
# Coordination Sequence:
#
# PCOD9424688 Si02
#       5
#     8   8   8   8   8
#     4  12  26  50  76 106 149 200 256 314 386 469
#     4  12  26  49  76 111 148 199 262 318 386 475
#     4  12  28  46  74 108 152 197 251 327 387 453
#     4  12  26  48  76 107 151 202 256 307 392 470
#     4  12  28  46  76 111 154 201 255 324 396 464
#
# _framework density 19.753086
#
# number of rings (size 3 to 8) (size 9 to 14) (size 15 to 20)
#    0.000    0.000    4.000    4.800   11.200    0.000 
#    0.000    0.000    0.000    0.000    0.000    0.000 
#    0.000    0.000    0.000    0.000    0.000    0.000 
#
# Total GULP energy -223379.972766 kJ/mol
# GULP energy per Si atom -5584.499319 kJ/mol
# Density = 1.970813 g / cm^3
# Si number density = 19.753086 Si / 1000 Ang^3
#
#
#
# Elastic Constant Matrix: (Units=GPa)
#
#
# Indices 1 2 3 4 5 6 
#
# 1 137.0480 49.7538 35.0747 0.0000 0.0000 0.0000
# 2 49.7538 197.6895 50.4301 0.0000 0.0000 0.0000
# 3 35.0747 50.4301 133.3986 0.0000 0.0000 0.0000
# 4 0.0000 0.0000 0.0000 39.0632 0.0000 0.0000
# 5 0.0000 0.0000 0.0000 0.0000 57.0568 0.0000
# 6 0.0000 0.0000 0.0000 0.0000 0.0000 43.6280
#
#
#
# Elastic Compliance Matrix: (Units=1/GPa)
#
#
# Indices 1 2 3 4 5 6 
#
# 1 0.008308 -0.001697 -0.001543 0.000000 0.000000 0.000000
# 2 -0.001697 0.005945 -0.001801 0.000000 0.000000 0.000000
# 3 -0.001543 -0.001801 0.008583 0.000000 0.000000 0.000000
# 4 0.000000 0.000000 0.000000 0.025600 0.000000 0.000000
# 5 0.000000 0.000000 0.000000 0.000000 0.017526 0.000000
# 6 0.000000 0.000000 0.000000 0.000000 0.000000 0.022921
#
#
# Mechanical properties :
#
#
# Convention : Reuss Voigt Hill
#
# Bulk Modulus (GPa) = 78.41144 82.07258 80.24201
# Shear Modulus (GPa) = 48.44197 50.14142 49.29170
#
# Velocity S-wave (km/s) = 4.95752 5.04373 5.00081
# Velocity P-wave (km/s) = 8.51770 8.69243 8.60551
#
# Compressibility (1/GPa) = 0.01275324
#
# Stress axis : x y z
#
# Youngs Moduli (GPa) = 120.36983 168.20577 116.51087
#
# Poissons Ratio (x) = 0.28550 0.17974
# Poissons Ratio (y) = 0.20431 0.20986
# Poissons Ratio (z) = 0.18570 0.30297
#
# Static dielectric constant tensor:
#      x y z
#    x 1.725830 0.000000 0.000000 
#    y 0.000000 1.698100 0.000000 
#    z 0.000000 0.000000 1.699960 
# 
# From -- ./inp_files/13238.got.cif
#   From: 2010.05.17/outbox.ucp.g08.bks.cvg/sg54_7_cif.got.tgz:13238.got - 2010.06.11 16:34:40.
