data_PCOD9424027
_publ_section_title
;
Structure prediction by ZEFSAII (Michael W. Deem and Ramdas Pophale) SiO2 
 PCOD9424027
Probable space group: P C C A
;
_chemical_formula_sum "Si O2"
_cell_formula_units_Z 36
_cell_length_a 17.109190
_cell_length_b 6.815344
_cell_length_c 14.236366
_cell_angle_alpha 90.000000
_cell_angle_beta 90.000000
_cell_angle_gamma 90.000000
_cell_volume 1660.031677
_symmetry_space_group_name_H-M "P C C A"
_symmetry_group_IT_number 54
_symmetry_cell_setting 'orthorhombic'
loop_
_space_group_symop_operation_xyz
x,y,z
1/2-x,-y,z
1/2+x,-y,1/2-z
-x,y,1/2-z
-x,-y,-z
1/2+x,y,-z
1/2-x,y,1/2+z
x,-y,1/2+z
loop_
_atom_site_type_symbol
_atom_site_label
_atom_site_fract_x
_atom_site_fract_y
_atom_site_fract_z
Si Si1 0.469903 0.433201 0.646504
Si Si2 0.636226 0.546747 0.584570
Si Si3 0.086782 0.909532 0.521863
Si Si4 0.250000 0.500000 0.244210
Si Si5 0.834265 0.291140 0.907521
O O1 0.500000 0.397107 0.750000
O O2 0.547659 0.471027 0.587274
O O3 0.426148 0.247609 0.604185
O O4 0.412560 0.618547 0.640316
O O5 0.626082 0.777798 0.560775
O O6 0.678341 0.497106 0.682394
O O7 0.675391 0.425561 0.500106
O O8 0.145267 0.077012 0.556067
O O9 0.000000 0.000000 0.500000
O O10 0.232859 0.676423 0.170419
#
# Coordination Sequence:
#
# PCOD9424027 Si02
#       5
#     8   8   8   4   8
#     4  11  21  39  71 101 133 178 245 299 351 420
#     4  11  23  44  69 101 138 188 239 293 367 431
#     4  11  21  40  75 103 130 175 245 315 347 404
#     4  12  26  44  70  94 152 204 220 280 384 456
#     4  11  23  45  68 102 138 182 241 297 355 426
#
# _framework density 21.686332
#
# number of rings (size 3 to 8) (size 9 to 14) (size 15 to 20)
#    0.000    0.889    6.667    2.000    0.000    2.667 
#    0.000   14.444    0.000    0.000    0.000    0.000 
#    0.000    0.000    0.000    0.000    0.000    0.000 
#
# Total GULP energy -201036.629335 kJ/mol
# GULP energy per Si atom -5584.350815 kJ/mol
# Density = 2.163697 g / cm^3
# Si number density = 21.686332 Si / 1000 Ang^3
#
#
#
# Elastic Constant Matrix: (Units=GPa)
#
#
# Indices 1 2 3 4 5 6 
#
# 1 102.4230 53.1123 48.4255 0.0000 0.0000 0.0000
# 2 53.1123 128.5106 39.5739 0.0000 0.0000 0.0000
# 3 48.4255 39.5739 136.4049 0.0000 0.0000 0.0000
# 4 0.0000 0.0000 0.0000 13.3590 0.0000 0.0000
# 5 0.0000 0.0000 0.0000 0.0000 56.5455 0.0000
# 6 0.0000 0.0000 0.0000 0.0000 0.0000 21.0310
#
#
#
# Elastic Compliance Matrix: (Units=1/GPa)
#
#
# Indices 1 2 3 4 5 6 
#
# 1 0.013852 -0.004624 -0.003576 0.000000 0.000000 0.000000
# 2 -0.004624 0.010088 -0.001285 0.000000 0.000000 0.000000
# 3 -0.003576 -0.001285 0.008974 0.000000 0.000000 0.000000
# 4 0.000000 0.000000 0.000000 0.074856 0.000000 0.000000
# 5 0.000000 0.000000 0.000000 0.000000 0.017685 0.000000
# 6 0.000000 0.000000 0.000000 0.000000 0.000000 0.047549
#
#
# Mechanical properties :
#
#
# Convention : Reuss Voigt Hill
#
# Bulk Modulus (GPa) = 71.71863 72.17352 71.94608
# Shear Modulus (GPa) = 25.42956 33.26887 29.34921
#
# Velocity S-wave (km/s) = 3.42805 3.92100 3.68278
# Velocity P-wave (km/s) = 6.98652 7.33838 7.16461
#
# Compressibility (1/GPa) = 0.01394338
#
# Stress axis : x y z
#
# Youngs Moduli (GPa) = 72.19250 99.12608 111.43780
#
# Poissons Ratio (x) = 0.45832 0.39852
# Poissons Ratio (y) = 0.33379 0.14324
# Poissons Ratio (z) = 0.25817 0.12741
#
# Static dielectric constant tensor:
#      x y z
#    x 1.868650 0.000000 0.000000 
#    y 0.000000 1.783810 0.000000 
#    z 0.000000 0.000000 1.803530 
# 
# From -- ./inp_files/14466.got.cif
#   From: 2010.05.17/outbox.cif.g08.bks.cpg/sg54_8_cif.got.tgz:14466.got - 2010.06.03 13:09:01.
