data_PCOD9424574
_publ_section_title
;
Structure prediction by ZEFSAII (Michael W. Deem and Ramdas Pophale) SiO2 
 PCOD9424574
Probable space group: P C C A
;
_chemical_formula_sum "Si O2"
_cell_formula_units_Z 20
_cell_length_a 10.302153
_cell_length_b 5.173550
_cell_length_c 15.284335
_cell_angle_alpha 90.000000
_cell_angle_beta 90.000000
_cell_angle_gamma 90.000000
_cell_volume 814.635242
_symmetry_space_group_name_H-M "P C C A"
_symmetry_group_IT_number 54
_symmetry_cell_setting 'orthorhombic'
loop_
_space_group_symop_operation_xyz
x,y,z
1/2-x,-y,z
1/2+x,-y,1/2-z
-x,y,1/2-z
-x,-y,-z
1/2+x,y,-z
1/2-x,y,1/2+z
x,-y,1/2+z
loop_
_atom_site_type_symbol
_atom_site_label
_atom_site_fract_x
_atom_site_fract_y
_atom_site_fract_z
Si Si1 0.894055 0.642678 0.063155
Si Si2 0.750000 0.500000 0.838154
Si Si3 0.750000 0.000000 0.952222
Si Si4 0.500000 0.444102 0.250000
O O1 0.750000 0.500000 0.067853
O O2 0.946368 0.686939 0.161302
O O3 0.863644 0.909516 0.015451
O O4 0.000000 0.500000 0.000000
O O5 0.716764 0.751618 0.894354
O O6 0.626778 0.408702 0.782897
#
# Coordination Sequence:
#
# PCOD9424574 Si02
#       4
#     8   4   4   4
#     4  12  26  51  84 118 168 218 282 351 427 507
#     4  12  28  50  84 118 168 212 286 340 430 500
#     4  12  26  54  82 120 160 226 270 354 422 508
#     4  12  26  52  78 128 160 222 278 352 418 510
#
# _framework density 24.550867
#
# number of rings (size 3 to 8) (size 9 to 14) (size 15 to 20)
#    0.000    0.000    8.000    0.000    0.000    9.600 
#    0.000    0.000    0.000    0.000    0.000    0.000 
#    0.000    0.000    0.000    0.000    0.000    0.000 
#
# Total GULP energy -111647.482143 kJ/mol
# GULP energy per Si atom -5582.374107 kJ/mol
# Density = 2.449499 g / cm^3
# Si number density = 24.550867 Si / 1000 Ang^3
#
#
#
# Elastic Constant Matrix: (Units=GPa)
#
#
# Indices 1 2 3 4 5 6 
#
# 1 207.4199 55.2416 96.0896 0.0000 0.0000 0.0000
# 2 55.2416 122.8626 66.9706 0.0000 0.0000 0.0000
# 3 96.0896 66.9706 201.2018 0.0000 0.0000 0.0000
# 4 0.0000 0.0000 0.0000 24.4097 0.0000 0.0000
# 5 0.0000 0.0000 0.0000 0.0000 67.2034 0.0000
# 6 0.0000 0.0000 0.0000 0.0000 0.0000 44.9839
#
#
#
# Elastic Compliance Matrix: (Units=1/GPa)
#
#
# Indices 1 2 3 4 5 6 
#
# 1 0.006404 -0.001481 -0.002565 0.000000 0.000000 0.000000
# 2 -0.001481 0.010286 -0.002716 0.000000 0.000000 0.000000
# 3 -0.002565 -0.002716 0.007099 0.000000 0.000000 0.000000
# 4 0.000000 0.000000 0.000000 0.040967 0.000000 0.000000
# 5 0.000000 0.000000 0.000000 0.000000 0.014880 0.000000
# 6 0.000000 0.000000 0.000000 0.000000 0.000000 0.022230
#
#
# Mechanical properties :
#
#
# Convention : Reuss Voigt Hill
#
# Bulk Modulus (GPa) = 97.43147 107.56531 102.49839
# Shear Modulus (GPa) = 42.08268 48.19824 45.14046
#
# Velocity S-wave (km/s) = 4.14466 4.43561 4.29260
# Velocity P-wave (km/s) = 7.91682 8.37503 8.14915
#
# Compressibility (1/GPa) = 0.01026362
#
# Stress axis : x y z
#
# Youngs Moduli (GPa) = 156.15100 97.22240 140.85509
#
# Poissons Ratio (x) = 0.14399 0.36136
# Poissons Ratio (y) = 0.23126 0.38261
# Poissons Ratio (z) = 0.40060 0.26409
#
# Static dielectric constant tensor:
#      x y z
#    x 2.150690 0.000000 0.000000 
#    y 0.000000 2.018420 0.000000 
#    z 0.000000 0.000000 1.983710 
# 
# From -- ./inp_files/11962.got.cif
#   From: 2010.05.17/outbox.cif.g08.bks.cpg/sg54_6_cif.got.tgz:11962.got - 2010.06.03 13:09:01.
