data_PCOD9424448
_publ_section_title
;
Structure prediction by ZEFSAII (Michael W. Deem and Ramdas Pophale) SiO2 
 PCOD9424448
Probable space group: P C C A
;
_chemical_formula_sum "Si O2"
_cell_formula_units_Z 64
_cell_length_a 23.369845
_cell_length_b 8.827780
_cell_length_c 14.005886
_cell_angle_alpha 90.000000
_cell_angle_beta 90.000000
_cell_angle_gamma 90.000000
_cell_volume 2889.468209
_symmetry_space_group_name_H-M "P C C A"
_symmetry_group_IT_number 54
_symmetry_cell_setting 'orthorhombic'
loop_
_space_group_symop_operation_xyz
x,y,z
1/2-x,-y,z
1/2+x,-y,1/2-z
-x,y,1/2-z
-x,-y,-z
1/2+x,y,-z
1/2-x,y,1/2+z
x,-y,1/2+z
loop_
_atom_site_type_symbol
_atom_site_label
_atom_site_fract_x
_atom_site_fract_y
_atom_site_fract_z
Si Si1 0.485746 0.766392 0.640557
Si Si2 0.118824 0.549557 0.111057
Si Si3 0.903777 0.023059 0.307742
Si Si4 0.696666 0.887946 0.449530
Si Si5 0.593717 0.589692 0.583464
Si Si6 0.566345 0.653158 0.227437
Si Si7 0.236565 0.669334 0.175915
Si Si8 0.674266 0.819833 0.669180
O O1 0.500000 0.722949 0.750000
O O2 0.434037 0.664577 0.603978
O O3 0.459592 0.935481 0.650352
O O4 0.542171 0.713248 0.583744
O O5 0.105214 0.443338 0.200540
O O6 0.175533 0.648443 0.123999
O O7 0.117912 0.442510 0.019836
O O8 0.869554 0.917741 0.232516
O O9 0.860142 0.060121 0.393749
O O10 0.919532 0.172990 0.248487
O O11 0.718231 0.733202 0.399416
O O12 0.687135 0.880773 0.563467
O O13 0.750000 0.000000 0.431365
O O14 0.575131 0.427864 0.626081
O O15 0.642278 0.661798 0.649471
O O16 0.500000 0.631806 0.250000
O O17 0.250000 0.500000 0.209853
O O18 0.228849 0.783396 0.264671
#
# Coordination Sequence:
#
# PCOD9424448 Si02
#       8
#     8   8   8   8   8   8   8   8
#     4  12  20  45  72  99 146 197 227 287 371 429
#     4  12  23  46  70 105 144 182 239 300 352 435
#     4  12  26  47  71 101 151 191 240 296 360 441
#     4  12  28  50  72 106 143 191 249 304 363 434
#     4  12  24  43  74 106 143 187 239 295 364 432
#     4  12  24  42  68 109 142 184 238 289 348 433
#     4  12  25  48  77 102 140 188 241 311 364 418
#     4  12  26  48  72 103 143 191 236 295 373 436
#
# _framework density 22.149404000000001
#
# number of rings (size 3 to 8) (size 9 to 14) (size 15 to 20)
#    0.000    0.000    7.500    3.000    1.750    3.500 
#    0.000    1.250    0.000    0.000    0.000    0.000 
#    0.000    0.000    0.000    0.000    0.000    0.000 
#
# Total GULP energy -357954.150059 kJ/mol
# GULP energy per Si atom -5593.033595 kJ/mol
# Density = 2.209899 g / cm^3
# Si number density = 22.149404 Si / 1000 Ang^3
#
#
#
# Elastic Constant Matrix: (Units=GPa)
#
#
# Indices 1 2 3 4 5 6 
#
# 1 71.0674 22.0865 57.8198 0.0000 0.0000 0.0000
# 2 22.0865 99.4983 35.8435 0.0000 0.0000 0.0000
# 3 57.8198 35.8435 131.3488 0.0000 0.0000 0.0000
# 4 0.0000 0.0000 0.0000 93.2903 0.0000 0.0000
# 5 0.0000 0.0000 0.0000 0.0000 21.6883 0.0000
# 6 0.0000 0.0000 0.0000 0.0000 0.0000 27.3115
#
#
#
# Elastic Compliance Matrix: (Units=1/GPa)
#
#
# Indices 1 2 3 4 5 6 
#
# 1 0.022138 -0.001557 -0.009320 0.000000 0.000000 0.000000
# 2 -0.001557 0.011256 -0.002386 0.000000 0.000000 0.000000
# 3 -0.009320 -0.002386 0.012367 0.000000 0.000000 0.000000
# 4 0.000000 0.000000 0.000000 0.010719 0.000000 0.000000
# 5 0.000000 0.000000 0.000000 0.000000 0.046108 0.000000
# 6 0.000000 0.000000 0.000000 0.000000 0.000000 0.036615
#
#
# Mechanical properties :
#
#
# Convention : Reuss Voigt Hill
#
# Bulk Modulus (GPa) = 51.99028 59.26823 55.62926
# Shear Modulus (GPa) = 29.04608 40.86899 34.95754
#
# Velocity S-wave (km/s) = 3.62521 4.30018 3.97704
# Velocity P-wave (km/s) = 6.40675 7.17439 6.80141
#
# Compressibility (1/GPa) = 0.01923436
#
# Stress axis : x y z
#
# Youngs Moduli (GPa) = 45.17158 88.84472 80.85832
#
# Poissons Ratio (x) = 0.13829 0.75362
# Poissons Ratio (y) = 0.07031 0.19295
# Poissons Ratio (z) = 0.42101 0.21201
#
# Static dielectric constant tensor:
#      x y z
#    x 1.830590 0.000000 0.000000 
#    y 0.000000 1.861530 0.000000 
#    z 0.000000 0.000000 1.855430 
# 
# From -- ./inp_files/14989.got.cif
#   From: 2010.05.17/outbox.cif.g08.bks.cpg/sg54_8_cif.got.tgz:14989.got - 2010.06.03 13:09:01.
