data_PCOD9424240
_publ_section_title
;
Structure prediction by ZEFSAII (Michael W. Deem and Ramdas Pophale) SiO2 
 PCOD9424240
Probable space group: P C C A
;
_chemical_formula_sum "Si O2"
_cell_formula_units_Z 40
_cell_length_a 19.295401
_cell_length_b 7.262719
_cell_length_c 10.665027
_cell_angle_alpha 90.000000
_cell_angle_beta 90.000000
_cell_angle_gamma 90.000000
_cell_volume 1494.565693
_symmetry_space_group_name_H-M "P C C A"
_symmetry_group_IT_number 54
_symmetry_cell_setting 'orthorhombic'
loop_
_space_group_symop_operation_xyz
x,y,z
1/2-x,-y,z
1/2+x,-y,1/2-z
-x,y,1/2-z
-x,-y,-z
1/2+x,y,-z
1/2-x,y,1/2+z
x,-y,1/2+z
loop_
_atom_site_type_symbol
_atom_site_label
_atom_site_fract_x
_atom_site_fract_y
_atom_site_fract_z
Si Si1 0.122815 0.343238 0.604590
Si Si2 0.984623 0.784702 0.998045
Si Si3 0.238521 0.787993 0.509154
Si Si4 0.632743 0.899592 0.682032
Si Si5 0.379806 0.286335 0.712548
O O1 0.193306 0.337841 0.523231
O O2 0.123336 0.147446 0.673586
O O3 0.122529 0.491570 0.718222
O O4 0.051285 0.341229 0.527675
O O5 0.950499 0.744560 0.864624
O O6 0.926037 0.790646 0.105434
O O7 0.000000 0.000000 0.000000
O O8 0.203691 0.813819 0.372465
O O9 0.181764 0.733298 0.611157
O O10 0.250000 0.000000 0.543636
O O11 0.871964 0.875402 0.683084
#
# Coordination Sequence:
#
# PCOD9424240 Si02
#       5
#     8   8   8   8   8
#     4  12  24  48  74 112 145 185 255 300 357 439
#     4  11  23  49  75 103 150 192 233 300 369 434
#     4  11  24  48  73 100 150 193 234 299 368 427
#     4  11  25  48  73 104 147 193 237 295 372 433
#     4  11  25  48  75 108 144 194 241 304 363 432
#
# _framework density 26.763628000000001
#
# number of rings (size 3 to 8) (size 9 to 14) (size 15 to 20)
#    0.000    0.800    4.000    3.000    2.800    0.000 
#   25.200    0.000    0.000    0.000    0.000    0.000 
#    0.000    0.000    0.000    0.000    0.000    0.000 
#
# Total GULP energy -223436.350672 kJ/mol
# GULP energy per Si atom -5585.908767 kJ/mol
# Density = 2.670271 g / cm^3
# Si number density = 26.763628 Si / 1000 Ang^3
#
#
#
# Elastic Constant Matrix: (Units=GPa)
#
#
# Indices 1 2 3 4 5 6 
#
# 1 173.2669 36.6882 60.7704 0.0000 0.0000 0.0000
# 2 36.6882 115.8367 22.6806 0.0000 0.0000 0.0000
# 3 60.7704 22.6806 78.1939 0.0000 0.0000 0.0000
# 4 0.0000 0.0000 0.0000 51.0583 0.0000 0.0000
# 5 0.0000 0.0000 0.0000 0.0000 46.8678 0.0000
# 6 0.0000 0.0000 0.0000 0.0000 0.0000 45.7752
#
#
#
# Elastic Compliance Matrix: (Units=1/GPa)
#
#
# Indices 1 2 3 4 5 6 
#
# 1 0.008149 -0.001422 -0.005921 0.000000 0.000000 0.000000
# 2 -0.001422 0.009401 -0.001622 0.000000 0.000000 0.000000
# 3 -0.005921 -0.001622 0.017861 0.000000 0.000000 0.000000
# 4 0.000000 0.000000 0.000000 0.019585 0.000000 0.000000
# 5 0.000000 0.000000 0.000000 0.000000 0.021337 0.000000
# 6 0.000000 0.000000 0.000000 0.000000 0.000000 0.021846
#
#
# Mechanical properties :
#
#
# Convention : Reuss Voigt Hill
#
# Bulk Modulus (GPa) = 57.20282 67.50843 62.35562
# Shear Modulus (GPa) = 41.00557 45.21749 43.11153
#
# Velocity S-wave (km/s) = 3.91850 4.11483 4.01786
# Velocity P-wave (km/s) = 6.47245 6.91769 6.69877
#
# Compressibility (1/GPa) = 0.01748166
#
# Stress axis : x y z
#
# Youngs Moduli (GPa) = 122.71211 106.37528 55.98873
#
# Poissons Ratio (x) = 0.15124 0.33151
# Poissons Ratio (y) = 0.17446 0.09080
# Poissons Ratio (z) = 0.72657 0.17252
#
# Static dielectric constant tensor:
#      x y z
#    x 2.253960 0.000000 0.000000 
#    y 0.000000 2.093620 0.000000 
#    z 0.000000 0.000000 2.144050 
# 
# From -- ./inp_files/8728.got.cif
#   From: 2010.05.17/outbox.cif.g08.bks.cpg/sg54_5_cif.got.tgz:8728.got - 2010.06.03 13:09:01.
