data_PCOD9424546
_publ_section_title
;
Structure prediction by ZEFSAII (Michael W. Deem and Ramdas Pophale) SiO2 
 PCOD9424546
Probable space group: P C C A
;
_chemical_formula_sum "Si O2"
_cell_formula_units_Z 36
_cell_length_a 5.114641
_cell_length_b 13.293114
_cell_length_c 20.610374
_cell_angle_alpha 90.000000
_cell_angle_beta 90.000000
_cell_angle_gamma 90.000000
_cell_volume 1401.289144
_symmetry_space_group_name_H-M "P C C A"
_symmetry_group_IT_number 54
_symmetry_cell_setting 'orthorhombic'
loop_
_space_group_symop_operation_xyz
x,y,z
1/2-x,-y,z
1/2+x,-y,1/2-z
-x,y,1/2-z
-x,-y,-z
1/2+x,y,-z
1/2-x,y,1/2+z
x,-y,1/2+z
loop_
_atom_site_type_symbol
_atom_site_label
_atom_site_fract_x
_atom_site_fract_y
_atom_site_fract_z
Si Si1 0.747416 0.288573 0.472410
Si Si2 0.750000 0.500000 0.672117
Si Si3 0.000000 0.067121 0.750000
Si Si4 0.318207 0.813741 0.645788
Si Si5 0.750000 0.000000 0.951737
Si Si6 0.750000 0.500000 0.922093
Si Si7 0.500000 0.319478 0.750000
O O1 0.541713 0.248106 0.524189
O O2 0.598161 0.267885 0.405690
O O3 0.787286 0.406218 0.469283
O O4 0.497714 0.507685 0.625929
O O5 0.700699 0.399120 0.715704
O O6 0.043755 0.137366 0.811414
O O7 0.750000 0.000000 0.762839
O O8 0.129171 0.754801 0.695980
O O9 0.230410 0.904555 0.597513
O O10 0.500000 0.000000 0.000000
#
# Coordination Sequence:
#
# PCOD9424546 Si02
#       7
#     8   4   4   8   4   4   4
#     4  12  27  49  77 111 155 212 273 331 399 483
#     4  12  27  51  76 120 168 215 265 342 418 486
#     4  12  29  53  82 118 162 208 265 343 414 490
#     4  12  29  50  85 119 163 211 275 336 420 492
#     4  12  30  56  82 114 162 218 274 344 410 486
#     4  12  25  51  74 110 162 211 275 336 396 490
#     4  12  29  51  88 124 170 222 273 347 422 508
#
# _framework density 25.690628
#
# number of rings (size 3 to 8) (size 9 to 14) (size 15 to 20)
#    0.000    0.000    3.333    4.667    4.667    1.778 
#    0.000    0.000    0.000    0.000    0.000    0.000 
#    0.000    0.000    0.000    0.000    0.000    0.000 
#
# Total GULP energy -201212.871275 kJ/mol
# GULP energy per Si atom -5589.246424 kJ/mol
# Density = 2.563216 g / cm^3
# Si number density = 25.690628 Si / 1000 Ang^3
#
#
#
# Elastic Constant Matrix: (Units=GPa)
#
#
# Indices 1 2 3 4 5 6 
#
# 1 175.9048 15.5023 51.8118 0.0000 0.0000 0.0000
# 2 15.5023 122.4951 27.8294 0.0000 0.0000 0.0000
# 3 51.8118 27.8294 108.4201 0.0000 0.0000 0.0000
# 4 0.0000 0.0000 0.0000 60.4493 0.0000 0.0000
# 5 0.0000 0.0000 0.0000 0.0000 52.3098 0.0000
# 6 0.0000 0.0000 0.0000 0.0000 0.0000 7.5070
#
#
#
# Elastic Compliance Matrix: (Units=1/GPa)
#
#
# Indices 1 2 3 4 5 6 
#
# 1 0.006618 -0.000126 -0.003130 0.000000 0.000000 0.000000
# 2 -0.000126 0.008672 -0.002165 0.000000 0.000000 0.000000
# 3 -0.003130 -0.002165 0.011275 0.000000 0.000000 0.000000
# 4 0.000000 0.000000 0.000000 0.016543 0.000000 0.000000
# 5 0.000000 0.000000 0.000000 0.000000 0.019117 0.000000
# 6 0.000000 0.000000 0.000000 0.000000 0.000000 0.133209
#
#
# Mechanical properties :
#
#
# Convention : Reuss Voigt Hill
#
# Bulk Modulus (GPa) = 63.61070 66.34522 64.97796
# Shear Modulus (GPa) = 23.63866 44.83164 34.23515
#
# Velocity S-wave (km/s) = 3.03665 4.18192 3.65443
# Velocity P-wave (km/s) = 6.09172 7.01418 6.56916
#
# Compressibility (1/GPa) = 0.01572063
#
# Stress axis : x y z
#
# Youngs Moduli (GPa) = 151.10287 115.31966 88.69138
#
# Poissons Ratio (x) = 0.01458 0.27762
# Poissons Ratio (y) = 0.01910 0.19205
# Poissons Ratio (z) = 0.47298 0.24972
#
# Static dielectric constant tensor:
#      x y z
#    x 2.041700 0.000000 0.000000 
#    y 0.000000 2.185760 0.000000 
#    z 0.000000 0.000000 2.001970 
# 
# From -- ./inp_files/19644.got.cif
#   From: 2010.05.17/outbox.cif.g08.bks.cpg/sg54_10_cif.got.tgz:19644.got - 2010.06.03 13:09:01.
