data_PCOD9424355
_publ_section_title
;
Structure prediction by ZEFSAII (Michael W. Deem and Ramdas Pophale) SiO2 
 PCOD9424355
Probable space group: P C C A
;
_chemical_formula_sum "Si O2"
_cell_formula_units_Z 40
_cell_length_a 16.982476
_cell_length_b 6.925306
_cell_length_c 12.980892
_cell_angle_alpha 90.000000
_cell_angle_beta 90.000000
_cell_angle_gamma 90.000000
_cell_volume 1526.667688
_symmetry_space_group_name_H-M "P C C A"
_symmetry_group_IT_number 54
_symmetry_cell_setting 'orthorhombic'
loop_
_space_group_symop_operation_xyz
x,y,z
1/2-x,-y,z
1/2+x,-y,1/2-z
-x,y,1/2-z
-x,-y,-z
1/2+x,y,-z
1/2-x,y,1/2+z
x,-y,1/2+z
loop_
_atom_site_type_symbol
_atom_site_label
_atom_site_fract_x
_atom_site_fract_y
_atom_site_fract_z
Si Si1 0.750000 0.000000 0.865202
Si Si2 0.897062 0.121480 0.481139
Si Si3 0.000000 0.557948 0.750000
Si Si4 0.312422 0.211541 0.322062
Si Si5 0.144199 0.651977 0.866031
Si Si6 0.043668 0.708841 0.057306
O O1 0.804787 0.131244 0.792194
O O2 0.688537 0.134367 0.927455
O O3 0.872025 0.103310 0.601530
O O4 0.963008 0.287457 0.488510
O O5 0.939092 0.937258 0.430386
O O6 0.929560 0.692335 0.708275
O O7 0.970670 0.412326 0.840265
O O8 0.335679 0.434795 0.330944
O O9 0.220984 0.217227 0.356799
O O10 0.115327 0.649510 0.983372
#
# Coordination Sequence:
#
# PCOD9424355 Si02
#       6
#     4   8   4   8   8   8
#     4  12  24  42  72 102 142 190 236 284 360 426
#     4  11  25  46  71 101 142 186 236 305 347 421
#     4  12  24  44  74 106 142 188 238 296 346 436
#     4  11  25  46  67 106 142 185 241 288 353 433
#     4  11  25  44  72 101 146 184 235 297 352 422
#     4  11  25  47  71 105 140 187 239 297 358 420
#
# _framework density 26.200858
#
# number of rings (size 3 to 8) (size 9 to 14) (size 15 to 20)
#    0.000    0.800    2.000    4.800    2.800    0.000 
#    0.000    4.000    0.000    0.000    0.000    0.000 
#    0.000    0.000    0.000    0.000    0.000    0.000 
#
# Total GULP energy -223769.335990 kJ/mol
# GULP energy per Si atom -5594.233400 kJ/mol
# Density = 2.614122 g / cm^3
# Si number density = 26.200858 Si / 1000 Ang^3
#
#
#
# Elastic Constant Matrix: (Units=GPa)
#
#
# Indices 1 2 3 4 5 6 
#
# 1 148.4634 2.6072 57.5165 0.0000 0.0000 0.0000
# 2 2.6072 36.7584 19.8865 0.0000 0.0000 0.0000
# 3 57.5165 19.8865 128.5023 0.0000 0.0000 0.0000
# 4 0.0000 0.0000 0.0000 29.6858 0.0000 0.0000
# 5 0.0000 0.0000 0.0000 0.0000 57.5548 0.0000
# 6 0.0000 0.0000 0.0000 0.0000 0.0000 52.8480
#
#
#
# Elastic Compliance Matrix: (Units=1/GPa)
#
#
# Indices 1 2 3 4 5 6 
#
# 1 0.008228 0.001537 -0.003920 0.000000 0.000000 0.000000
# 2 0.001537 0.029978 -0.005327 0.000000 0.000000 0.000000
# 3 -0.003920 -0.005327 0.010361 0.000000 0.000000 0.000000
# 4 0.000000 0.000000 0.000000 0.033686 0.000000 0.000000
# 5 0.000000 0.000000 0.000000 0.000000 0.017375 0.000000
# 6 0.000000 0.000000 0.000000 0.000000 0.000000 0.018922
#
#
# Mechanical properties :
#
#
# Convention : Reuss Voigt Hill
#
# Bulk Modulus (GPa) = 30.16993 52.63830 41.40411
# Shear Modulus (GPa) = 34.47824 43.59863 39.03844
#
# Velocity S-wave (km/s) = 3.63150 4.08366 3.86420
# Velocity P-wave (km/s) = 5.39662 6.50914 5.97882
#
# Compressibility (1/GPa) = 0.03314558
#
# Stress axis : x y z
#
# Youngs Moduli (GPa) = 121.54341 33.35805 96.51406
#
# Poissons Ratio (x) = -0.05129 0.37838
# Poissons Ratio (y) = -0.18687 0.51417
# Poissons Ratio (z) = 0.47651 0.17771
#
# Static dielectric constant tensor:
#      x y z
#    x 2.142890 0.000000 0.000000 
#    y 0.000000 2.136020 0.000000 
#    z 0.000000 0.000000 2.062310 
# 
# From -- ./inp_files/8776.got.cif
#   From: 2010.05.17/outbox.cif.g08.bks.cpg/sg54_5_cif.got.tgz:8776.got - 2010.06.03 13:09:01.
