data_PCOD9424520
_publ_section_title
;
Structure prediction by ZEFSAII (Michael W. Deem and Ramdas Pophale) SiO2 
 PCOD9424520
Probable space group: P C C A
;
_chemical_formula_sum "Si O2"
_cell_formula_units_Z 20
_cell_length_a 7.277583
_cell_length_b 6.893335
_cell_length_c 17.529523
_cell_angle_alpha 90.000000
_cell_angle_beta 90.000000
_cell_angle_gamma 90.000000
_cell_volume 879.400383
_symmetry_space_group_name_H-M "P C C A"
_symmetry_group_IT_number 54
_symmetry_cell_setting 'orthorhombic'
loop_
_space_group_symop_operation_xyz
x,y,z
1/2-x,-y,z
1/2+x,-y,1/2-z
-x,y,1/2-z
-x,-y,-z
1/2+x,y,-z
1/2-x,y,1/2+z
x,-y,1/2+z
loop_
_atom_site_type_symbol
_atom_site_label
_atom_site_fract_x
_atom_site_fract_y
_atom_site_fract_z
Si Si1 0.075017 0.616760 0.426420
Si Si2 0.750000 0.500000 0.818911
Si Si3 0.750000 0.000000 0.120037
Si Si4 0.000000 0.820242 0.750000
O O1 0.250000 0.500000 0.395987
O O2 0.158302 0.832477 0.432140
O O3 0.000000 0.500000 0.500000
O O4 0.908911 0.598575 0.368564
O O5 0.837546 0.676524 0.773823
O O6 0.914880 0.065661 0.177705
#
# Coordination Sequence:
#
# PCOD9424520 Si02
#       4
#     8   4   4   4
#     4  12  26  50  73 108 153 199 250 311 371 443
#     4  12  24  48  78 104 156 194 240 314 380 436
#     4  12  26  46  76 114 144 198 252 302 378 450
#     4  12  24  46  78 114 150 192 248 304 376 454
#
# _framework density 22.74277
#
# number of rings (size 3 to 8) (size 9 to 14) (size 15 to 20)
#    0.000    0.000    6.000    4.800    0.000    1.600 
#    0.000    0.000    0.000    0.000    0.000    0.000 
#    0.000    0.000    0.000    0.000    0.000    0.000 
#
# Total GULP energy -111809.863311 kJ/mol
# GULP energy per Si atom -5590.493166 kJ/mol
# Density = 2.269101 g / cm^3
# Si number density = 22.742770 Si / 1000 Ang^3
#
#
#
# Elastic Constant Matrix: (Units=GPa)
#
#
# Indices 1 2 3 4 5 6 
#
# 1 149.3720 52.3170 38.5839 0.0000 0.0000 0.0000
# 2 52.3170 155.6847 49.3287 0.0000 0.0000 0.0000
# 3 38.5839 49.3287 81.3952 0.0000 0.0000 0.0000
# 4 0.0000 0.0000 0.0000 20.7676 0.0000 0.0000
# 5 0.0000 0.0000 0.0000 0.0000 3.6089 0.0000
# 6 0.0000 0.0000 0.0000 0.0000 0.0000 58.6906
#
#
#
# Elastic Compliance Matrix: (Units=1/GPa)
#
#
# Indices 1 2 3 4 5 6 
#
# 1 0.008037 -0.001849 -0.002689 0.000000 0.000000 0.000000
# 2 -0.001849 0.008375 -0.004199 0.000000 0.000000 0.000000
# 3 -0.002689 -0.004199 0.016106 0.000000 0.000000 0.000000
# 4 0.000000 0.000000 0.000000 0.048152 0.000000 0.000000
# 5 0.000000 0.000000 0.000000 0.000000 0.277092 0.000000
# 6 0.000000 0.000000 0.000000 0.000000 0.000000 0.017039
#
#
# Mechanical properties :
#
#
# Convention : Reuss Voigt Hill
#
# Bulk Modulus (GPa) = 66.47692 74.10122 70.28907
# Shear Modulus (GPa) = 12.58530 33.02825 22.80677
#
# Velocity S-wave (km/s) = 2.35495 3.81498 3.17016
# Velocity P-wave (km/s) = 6.05704 7.21515 6.66131
#
# Compressibility (1/GPa) = 0.01504282
#
# Stress axis : x y z
#
# Youngs Moduli (GPa) = 124.42681 119.40300 62.09047
#
# Poissons Ratio (x) = 0.22073 0.16699
# Poissons Ratio (y) = 0.23002 0.26074
# Poissons Ratio (z) = 0.33463 0.50141
#
# Static dielectric constant tensor:
#      x y z
#    x 1.859100 0.000000 0.000000 
#    y 0.000000 1.886880 0.000000 
#    z 0.000000 0.000000 1.948490 
# 
# From -- ./inp_files/16039.got.cif
#   From: 2010.05.17/outbox.cif.g08.bks.cpg/sg54_9_cif.got.tgz:16039.got - 2010.06.03 13:09:01.
