data_PCOD9424434
_publ_section_title
;
Structure prediction by ZEFSAII (Michael W. Deem and Ramdas Pophale) SiO2 
 PCOD9424434
Probable space group: P C C A
;
_chemical_formula_sum "Si O2"
_cell_formula_units_Z 32
_cell_length_a 14.399422
_cell_length_b 7.209299
_cell_length_c 12.125844
_cell_angle_alpha 90.000000
_cell_angle_beta 90.000000
_cell_angle_gamma 90.000000
_cell_volume 1258.780696
_symmetry_space_group_name_H-M "P C C A"
_symmetry_group_IT_number 54
_symmetry_cell_setting 'orthorhombic'
loop_
_space_group_symop_operation_xyz
x,y,z
1/2-x,-y,z
1/2+x,-y,1/2-z
-x,y,1/2-z
-x,-y,-z
1/2+x,y,-z
1/2-x,y,1/2+z
x,-y,1/2+z
loop_
_atom_site_type_symbol
_atom_site_label
_atom_site_fract_x
_atom_site_fract_y
_atom_site_fract_z
Si Si1 0.169975 0.239578 0.024627
Si Si2 0.006426 0.297094 0.366609
Si Si3 0.125731 0.182667 0.572449
Si Si4 0.849607 0.609008 0.209152
O O1 0.277264 0.281236 0.041251
O O2 0.094882 0.361127 0.090841
O O3 0.147619 0.036166 0.072654
O O4 0.159361 0.252152 0.894257
O O5 0.051222 0.208240 0.475615
O O6 0.076258 0.458782 0.331959
O O7 0.000000 0.186321 0.250000
O O8 0.109631 0.268927 0.691514
O O9 0.750000 0.500000 0.226672
#
# Coordination Sequence:
#
# PCOD9424434 Si02
#       4
#     8   8   8   8
#     4  11  27  50  79 112 161 205 268 327 406 467
#     4  12  28  47  78 115 157 202 266 322 395 473
#     4  11  28  50  79 115 157 210 265 333 400 478
#     4  12  27  48  82 114 159 208 267 331 396 470
#
# _framework density 25.421426
#
# number of rings (size 3 to 8) (size 9 to 14) (size 15 to 20)
#    0.000    0.500    2.500    3.000   14.000    2.000 
#    0.000    0.000    0.000    0.000    0.000    0.000 
#    0.000    0.000    0.000    0.000    0.000    0.000 
#
# Total GULP energy -179142.136768 kJ/mol
# GULP energy per Si atom -5598.191774 kJ/mol
# Density = 2.536357 g / cm^3
# Si number density = 25.421426 Si / 1000 Ang^3
#
#
#
# Elastic Constant Matrix: (Units=GPa)
#
#
# Indices 1 2 3 4 5 6 
#
# 1 159.5045 14.2127 38.5212 0.0000 0.0000 0.0000
# 2 14.2127 90.8477 38.0488 0.0000 0.0000 0.0000
# 3 38.5212 38.0488 197.2211 0.0000 0.0000 0.0000
# 4 0.0000 0.0000 0.0000 34.7800 0.0000 0.0000
# 5 0.0000 0.0000 0.0000 0.0000 47.4944 0.0000
# 6 0.0000 0.0000 0.0000 0.0000 0.0000 24.2394
#
#
#
# Elastic Compliance Matrix: (Units=1/GPa)
#
#
# Indices 1 2 3 4 5 6 
#
# 1 0.006604 -0.000536 -0.001186 0.000000 0.000000 0.000000
# 2 -0.000536 0.012019 -0.002214 0.000000 0.000000 0.000000
# 3 -0.001186 -0.002214 0.005729 0.000000 0.000000 0.000000
# 4 0.000000 0.000000 0.000000 0.028752 0.000000 0.000000
# 5 0.000000 0.000000 0.000000 0.000000 0.021055 0.000000
# 6 0.000000 0.000000 0.000000 0.000000 0.000000 0.041255
#
#
# Mechanical properties :
#
#
# Convention : Reuss Voigt Hill
#
# Bulk Modulus (GPa) = 60.68527 69.90428 65.29478
# Shear Modulus (GPa) = 38.82591 45.08880 41.95736
#
# Velocity S-wave (km/s) = 3.91230 4.21605 4.06701
# Velocity P-wave (km/s) = 6.65820 7.15946 6.91338
#
# Compressibility (1/GPa) = 0.01647846
#
# Stress axis : x y z
#
# Youngs Moduli (GPa) = 151.42996 83.20457 174.54145
#
# Poissons Ratio (x) = 0.04462 0.20707
# Poissons Ratio (y) = 0.08120 0.38642
# Poissons Ratio (z) = 0.17965 0.18421
#
# Static dielectric constant tensor:
#      x y z
#    x 2.044950 0.000000 0.000000 
#    y 0.000000 2.055340 0.000000 
#    z 0.000000 0.000000 2.056550 
# 
# From -- ./inp_files/7962.got.cif
#   From: 2010.05.17/outbox.cif.g08.bks.cpg/sg54_4_cif.got.tgz:7962.got - 2010.06.03 13:09:01.
