data_PCOD9424684
_publ_section_title
;
Structure prediction by ZEFSAII (Michael W. Deem and Ramdas Pophale) SiO2 
 PCOD9424684
Probable space group: P C C A
;
_chemical_formula_sum "Si O2"
_cell_formula_units_Z 60
_cell_length_a 18.000000
_cell_length_b 6.000000
_cell_length_c 27.000000
_cell_angle_alpha 90.000000
_cell_angle_beta 90.000000
_cell_angle_gamma 90.000000
_cell_volume 2916.000000
_symmetry_space_group_name_H-M "P C C A"
_symmetry_group_IT_number 54
_symmetry_cell_setting 'orthorhombic'
loop_
_space_group_symop_operation_xyz
x,y,z
1/2-x,-y,z
1/2+x,-y,1/2-z
-x,y,1/2-z
-x,-y,-z
1/2+x,y,-z
1/2-x,y,1/2+z
x,-y,1/2+z
loop_
_atom_site_type_symbol
_atom_site_label
_atom_site_fract_x
_atom_site_fract_y
_atom_site_fract_z
Si Si1 0.250000 0.500000 0.416605
Si Si2 0.837688 0.459774 0.356386
Si Si3 0.905106 0.342968 0.543542
Si Si4 0.943147 0.752946 0.289634
Si Si5 0.954495 0.663657 0.934881
Si Si6 0.670939 0.879369 0.273697
Si Si7 0.812839 0.190109 0.169467
Si Si8 0.540156 0.981650 0.627206
O O1 0.179429 0.575665 0.449107
O O2 0.283962 0.673422 0.377286
O O3 0.750000 0.500000 0.365392
O O4 0.877068 0.619237 0.316150
O O5 0.889474 0.463877 0.404931
O O6 0.842773 0.228303 0.326838
O O7 0.921612 0.264690 0.487782
O O8 0.918973 0.156892 0.584565
O O9 0.969912 0.524151 0.555025
O O10 0.000000 0.643434 0.250000
O O11 0.996550 0.831473 0.333837
O O12 0.898502 0.956341 0.264087
O O13 0.981083 0.862325 0.900023
O O14 0.679164 0.716784 0.225701
O O15 0.750000 0.000000 0.277777
O O16 0.750000 0.000000 0.174699
O O17 0.894909 0.112911 0.154894
#
# Coordination Sequence:
#
# PCOD9424684 Si02
#       8
#     4   8   8   8   8   8   8   8
#     4  12  24  42  70 100 132 172 220 280 330 388
#     4  12  26  43  68  97 134 175 226 273 329 390
#     4  11  25  43  67  99 131 167 226 278 331 393
#     4  12  25  41  67 100 135 171 218 270 328 399
#     4  11  25  44  67  95 132 176 218 277 336 391
#     4  11  24  42  64  96 132 174 212 263 322 396
#     4  11  24  39  66  98 136 171 212 269 330 390
#     4  12  22  43  68  94 129 176 216 270 330 396
#
# _framework density 20.576132000000001
#
# number of rings (size 3 to 8) (size 9 to 14) (size 15 to 20)
#    0.000    0.533    8.000    0.400    1.867    2.667 
#    0.000    0.000    5.867    0.000    0.000    0.000 
#    0.000    0.000    0.000    0.000    0.000    0.000 
#
# Total GULP energy -334674.357442 kJ/mol
# GULP energy per Si atom -5577.905957 kJ/mol
# Density = 2.052930 g / cm^3
# Si number density = 20.576132 Si / 1000 Ang^3
#
#
#
# Elastic Constant Matrix: (Units=GPa)
#
#
# Indices 1 2 3 4 5 6 
#
# 1 164.7544 19.8299 47.4444 0.0000 0.0000 0.0000
# 2 19.8299 13.2013 13.4018 0.0000 0.0000 0.0000
# 3 47.4444 13.4018 119.3996 0.0000 0.0000 0.0000
# 4 0.0000 0.0000 0.0000 11.1878 0.0000 0.0000
# 5 0.0000 0.0000 0.0000 0.0000 31.6503 0.0000
# 6 0.0000 0.0000 0.0000 0.0000 0.0000 26.9901
#
#
#
# Elastic Compliance Matrix: (Units=1/GPa)
#
#
# Indices 1 2 3 4 5 6 
#
# 1 0.007818 -0.009694 -0.002018 0.000000 0.000000 0.000000
# 2 -0.009694 0.097513 -0.007093 0.000000 0.000000 0.000000
# 3 -0.002018 -0.007093 0.009973 0.000000 0.000000 0.000000
# 4 0.000000 0.000000 0.000000 0.089383 0.000000 0.000000
# 5 0.000000 0.000000 0.000000 0.000000 0.031595 0.000000
# 6 0.000000 0.000000 0.000000 0.000000 0.000000 0.037051
#
#
# Mechanical properties :
#
#
# Convention : Reuss Voigt Hill
#
# Bulk Modulus (GPa) = 12.87121 50.96750 31.91935
# Shear Modulus (GPa) = 14.84379 28.41093 21.62736
#
# Velocity S-wave (km/s) = 2.68882 3.71990 3.24557
# Velocity P-wave (km/s) = 3.98856 6.57831 5.43980
#
# Compressibility (1/GPa) = 0.07769280
#
# Stress axis : x y z
#
# Youngs Moduli (GPa) = 127.91594 10.25507 100.26695
#
# Poissons Ratio (x) = 0.09941 0.20237
# Poissons Ratio (y) = 1.24002 0.71120
# Poissons Ratio (z) = 0.25817 0.07274
#
# Static dielectric constant tensor:
#      x y z
#    x 1.748110 0.000000 0.000000 
#    y 0.000000 1.860750 0.000000 
#    z 0.000000 0.000000 1.704330 
# 
# From -- ./inp_files/26637.got.cif
#   From: 2010.05.17/outbox.ucp.g08.bks.cvg/sg54_14_cif.got.tgz:26637.got - 2010.06.11 16:34:40.
