data_PCOD9424591
_publ_section_title
;
Structure prediction by ZEFSAII (Michael W. Deem and Ramdas Pophale) SiO2 
 PCOD9424591
Probable space group: P C C A
;
_chemical_formula_sum "Si O2"
_cell_formula_units_Z 32
_cell_length_a 9.411458
_cell_length_b 13.010571
_cell_length_c 9.621455
_cell_angle_alpha 90.000000
_cell_angle_beta 90.000000
_cell_angle_gamma 90.000000
_cell_volume 1178.132180
_symmetry_space_group_name_H-M "P C C A"
_symmetry_group_IT_number 54
_symmetry_cell_setting 'orthorhombic'
loop_
_space_group_symop_operation_xyz
x,y,z
1/2-x,-y,z
1/2+x,-y,1/2-z
-x,y,1/2-z
-x,-y,-z
1/2+x,y,-z
1/2-x,y,1/2+z
x,-y,1/2+z
loop_
_atom_site_type_symbol
_atom_site_label
_atom_site_fract_x
_atom_site_fract_y
_atom_site_fract_z
Si Si1 0.793449 0.322651 0.620536
Si Si2 0.500000 0.985204 0.250000
Si Si3 0.750000 0.500000 0.947270
Si Si4 0.793449 0.177349 0.379464
Si Si5 0.750000 0.000000 0.052730
Si Si6 0.500000 0.514796 0.750000
O O1 0.690200 0.403551 0.538165
O O2 0.847606 0.250000 0.500000
O O3 0.750000 0.250000 0.750000
O O4 0.909563 0.405077 0.660863
O O5 0.590437 0.905077 0.339137
O O6 0.378517 0.037266 0.345530
O O7 0.621483 0.462734 0.845530
O O8 0.690201 0.096449 0.461835
#
# Coordination Sequence:
#
# PCOD9424591 Si02
#       6
#     8   4   4   8   4   4
#     4  12  28  50  82 123 172 220 283 354 429 505
#     4  12  28  52  88 122 168 226 282 358 422 510
#     4  12  28  56  86 128 174 224 290 352 432 512
#     4  12  28  50  82 123 172 220 283 354 429 505
#     4  12  28  56  86 128 174 224 290 352 432 512
#     4  12  28  52  88 122 168 226 282 358 422 510
#
# _framework density 27.161639999999998
#
# number of rings (size 3 to 8) (size 9 to 14) (size 15 to 20)
#    0.000    0.000    5.000    3.000    7.000    2.000 
#    0.000    0.000    0.000    0.000    0.000    0.000 
#    0.000    0.000    0.000    0.000    0.000    0.000 
#
# Total GULP energy -178671.093222 kJ/mol
# GULP energy per Si atom -5583.471663 kJ/mol
# Density = 2.709982 g / cm^3
# Si number density = 27.161640 Si / 1000 Ang^3
#
#
#
# Elastic Constant Matrix: (Units=GPa)
#
#
# Indices 1 2 3 4 5 6 
#
# 1 117.1533 23.6084 37.6955 0.0000 0.0000 0.0000
# 2 23.6084 178.6850 72.8907 0.0000 0.0000 0.0000
# 3 37.6955 72.8907 187.5335 0.0000 0.0000 0.0000
# 4 0.0000 0.0000 0.0000 81.1706 0.0000 0.0000
# 5 0.0000 0.0000 0.0000 0.0000 40.4052 0.0000
# 6 0.0000 0.0000 0.0000 0.0000 0.0000 16.6002
#
#
#
# Elastic Compliance Matrix: (Units=1/GPa)
#
#
# Indices 1 2 3 4 5 6 
#
# 1 0.009171 -0.000546 -0.001631 0.000000 0.000000 0.000000
# 2 -0.000546 0.006684 -0.002488 0.000000 0.000000 0.000000
# 3 -0.001631 -0.002488 0.006627 0.000000 0.000000 0.000000
# 4 0.000000 0.000000 0.000000 0.012320 0.000000 0.000000
# 5 0.000000 0.000000 0.000000 0.000000 0.024749 0.000000
# 6 0.000000 0.000000 0.000000 0.000000 0.000000 0.060240
#
#
# Mechanical properties :
#
#
# Convention : Reuss Voigt Hill
#
# Bulk Modulus (GPa) = 76.04044 83.52901 79.78473
# Shear Modulus (GPa) = 37.45179 50.91368 44.18273
#
# Velocity S-wave (km/s) = 3.71731 4.33421 4.03756
# Velocity P-wave (km/s) = 6.81769 7.47439 7.15358
#
# Compressibility (1/GPa) = 0.01315090
#
# Stress axis : x y z
#
# Youngs Moduli (GPa) = 109.04262 149.62163 150.89219
#
# Poissons Ratio (x) = 0.08174 0.24611
# Poissons Ratio (y) = 0.05957 0.37541
# Poissons Ratio (z) = 0.17785 0.37225
#
# Static dielectric constant tensor:
#      x y z
#    x 2.317460 0.000000 0.000000 
#    y 0.000000 2.056610 0.000000 
#    z 0.000000 0.000000 2.731500 
# 
# From -- ./inp_files/2887.got.cif
#   From: 2010.05.17/outbox.cif.g08.bks.cpg/sg54_2_cif.got.tgz:2887.got - 2010.06.03 13:09:01.
