data_PCOD9424101
_publ_section_title
;
Structure prediction by ZEFSAII (Michael W. Deem and Ramdas Pophale) SiO2 
 PCOD9424101
Probable space group: P C C A
;
_chemical_formula_sum "Si O2"
_cell_formula_units_Z 48
_cell_length_a 8.091637
_cell_length_b 9.869762
_cell_length_c 28.708027
_cell_angle_alpha 90.000000
_cell_angle_beta 90.000000
_cell_angle_gamma 90.000000
_cell_volume 2292.695707
_symmetry_space_group_name_H-M "P C C A"
_symmetry_group_IT_number 54
_symmetry_cell_setting 'orthorhombic'
loop_
_space_group_symop_operation_xyz
x,y,z
1/2-x,-y,z
1/2+x,-y,1/2-z
-x,y,1/2-z
-x,-y,-z
1/2+x,y,-z
1/2-x,y,1/2+z
x,-y,1/2+z
loop_
_atom_site_type_symbol
_atom_site_label
_atom_site_fract_x
_atom_site_fract_y
_atom_site_fract_z
Si Si1 0.430266 0.933901 0.700135
Si Si2 0.524625 0.133009 0.555826
Si Si3 0.558210 0.293904 0.138172
Si Si4 0.066937 0.800588 0.842630
Si Si5 0.916359 0.172835 0.543360
Si Si6 0.442268 0.469069 0.698245
O O1 0.500000 0.889412 0.750000
O O2 0.435707 0.807998 0.665124
O O3 0.250000 0.000000 0.704450
O O4 0.546935 0.052655 0.680122
O O5 0.482903 0.190625 0.606340
O O6 0.721731 0.148939 0.550178
O O7 0.445695 0.202566 0.510781
O O8 0.492473 0.971004 0.553655
O O9 0.742110 0.239789 0.150102
O O10 0.531946 0.278988 0.082881
O O11 0.535497 0.441481 0.159593
O O12 0.982659 0.687175 0.811118
O O13 0.250000 0.500000 0.694129
O O14 0.500000 0.507562 0.750000
#
# Coordination Sequence:
#
# PCOD9424101 Si02
#       6
#     8   8   8   8   8   8
#     4  12  24  38  59  88 119 154 197 252 302 354
#     4   9  18  34  58  89 122 156 194 242 297 352
#     4  11  22  41  63  88 121 159 201 248 301 356
#     4  11  22  41  63  88 121 159 201 248 301 356
#     4   9  18  34  58  89 122 156 194 242 297 352
#     4  12  26  44  63  88 119 160 205 248 304 364
#
# _framework density 20.936053999999999
#
# number of rings (size 3 to 8) (size 9 to 14) (size 15 to 20)
#    0.000    1.333    1.667    5.000    0.000    2.667 
#    0.000    0.833    0.000    0.000    0.000    0.000 
#    0.000    0.000    0.000    0.000    0.000    0.000 
#
# Total GULP energy -268436.465598 kJ/mol
# GULP energy per Si atom -5592.426367 kJ/mol
# Density = 2.088840 g / cm^3
# Si number density = 20.936054 Si / 1000 Ang^3
#
#
#
# Elastic Constant Matrix: (Units=GPa)
#
#
# Indices 1 2 3 4 5 6 
#
# 1 45.4070 -13.4440 -2.2148 0.0000 0.0000 0.0000
# 2 -13.4440 51.9367 12.2782 0.0000 0.0000 0.0000
# 3 -2.2148 12.2782 126.5995 0.0000 0.0000 0.0000
# 4 0.0000 0.0000 0.0000 32.0417 0.0000 0.0000
# 5 0.0000 0.0000 0.0000 0.0000 19.7178 0.0000
# 6 0.0000 0.0000 0.0000 0.0000 0.0000 19.7747
#
#
#
# Elastic Compliance Matrix: (Units=1/GPa)
#
#
# Indices 1 2 3 4 5 6 
#
# 1 0.023855 0.006219 -0.000186 0.000000 0.000000 0.000000
# 2 0.006219 0.021327 -0.001960 0.000000 0.000000 0.000000
# 3 -0.000186 -0.001960 0.008086 0.000000 0.000000 0.000000
# 4 0.000000 0.000000 0.000000 0.031209 0.000000 0.000000
# 5 0.000000 0.000000 0.000000 0.000000 0.050715 0.000000
# 6 0.000000 0.000000 0.000000 0.000000 0.000000 0.050570
#
#
# Mechanical properties :
#
#
# Convention : Reuss Voigt Hill
#
# Bulk Modulus (GPa) = 16.28261 24.13134 20.20697
# Shear Modulus (GPa) = 25.24139 29.46177 27.35158
#
# Velocity S-wave (km/s) = 3.47600 3.75537 3.61838
# Velocity P-wave (km/s) = 4.88920 5.50954 5.20861
#
# Compressibility (1/GPa) = 0.06141522
#
# Stress axis : x y z
#
# Youngs Moduli (GPa) = 41.91952 46.88835 123.67470
#
# Poissons Ratio (x) = -0.29159 0.02298
# Poissons Ratio (y) = -0.26069 0.24235
# Poissons Ratio (z) = 0.00779 0.09188
#
# Static dielectric constant tensor:
#      x y z
#    x 1.763060 0.000000 0.000000 
#    y 0.000000 1.713150 0.000000 
#    z 0.000000 0.000000 1.748600 
# 
# From -- ./inp_files/27747.got.cif
#   From: 2010.05.17/outbox.cif.g08.bks.cpg/sg54_14_cif.got.tgz:27747.got - 2010.06.03 13:09:01.
