data_PCOD9424095
_publ_section_title
;
Structure prediction by ZEFSAII (Michael W. Deem and Ramdas Pophale) SiO2 
 PCOD9424095
Probable space group: P C C A
;
_chemical_formula_sum "Si O2"
_cell_formula_units_Z 40
_cell_length_a 8.501181
_cell_length_b 8.981546
_cell_length_c 22.414837
_cell_angle_alpha 90.000000
_cell_angle_beta 90.000000
_cell_angle_gamma 90.000000
_cell_volume 1711.456820
_symmetry_space_group_name_H-M "P C C A"
_symmetry_group_IT_number 54
_symmetry_cell_setting 'orthorhombic'
loop_
_space_group_symop_operation_xyz
x,y,z
1/2-x,-y,z
1/2+x,-y,1/2-z
-x,y,1/2-z
-x,-y,-z
1/2+x,y,-z
1/2-x,y,1/2+z
x,-y,1/2+z
loop_
_atom_site_type_symbol
_atom_site_label
_atom_site_fract_x
_atom_site_fract_y
_atom_site_fract_z
Si Si1 0.828548 0.348115 0.724184
Si Si2 0.896705 0.594555 0.087011
Si Si3 0.744478 0.822424 0.014358
Si Si4 0.626455 0.883054 0.294350
Si Si5 0.437889 0.707323 0.086284
O O1 0.750000 0.500000 0.746354
O O2 0.848191 0.362040 0.653599
O O3 0.719600 0.219049 0.747778
O O4 0.000000 0.332181 0.750000
O O5 0.750000 0.500000 0.060169
O O6 0.890636 0.747822 0.051152
O O7 0.034524 0.471757 0.087400
O O8 0.587681 0.776625 0.050662
O O9 0.750000 0.000000 0.011450
O O10 0.780036 0.753988 0.949002
O O11 0.500000 0.958216 0.250000
O O12 0.563077 0.779496 0.347822
O O13 0.750000 0.000000 0.320547
#
# Coordination Sequence:
#
# PCOD9424095 Si02
#       5
#     8   8   8   8   8
#     4  11  22  40  66  98 133 176 227 286 352 424
#     4   9  20  39  64  91 130 179 225 282 345 418
#     4  11  23  40  65  95 133 178 230 287 347 420
#     4  12  26  45  68  98 136 180 233 297 366 438
#     4  11  24  44  66  96 137 181 230 286 353 434
#
# _framework density 23.3719
#
# number of rings (size 3 to 8) (size 9 to 14) (size 15 to 20)
#    0.000    1.200    0.000    7.800    0.000    6.400 
#    0.000    5.000    0.000    0.000    0.000    0.000 
#    0.000    0.000    0.000    0.000    0.000    0.000 
#
# Total GULP energy -223514.854783 kJ/mol
# GULP energy per Si atom -5587.871370 kJ/mol
# Density = 2.331870 g / cm^3
# Si number density = 23.371900 Si / 1000 Ang^3
#
#
#
# Elastic Constant Matrix: (Units=GPa)
#
#
# Indices 1 2 3 4 5 6 
#
# 1 87.6638 33.9188 46.6985 0.0000 0.0000 0.0000
# 2 33.9188 142.9520 49.3567 0.0000 0.0000 0.0000
# 3 46.6985 49.3567 121.6945 0.0000 0.0000 0.0000
# 4 0.0000 0.0000 0.0000 32.6710 0.0000 0.0000
# 5 0.0000 0.0000 0.0000 0.0000 36.6648 0.0000
# 6 0.0000 0.0000 0.0000 0.0000 0.0000 38.3186
#
#
#
# Elastic Compliance Matrix: (Units=1/GPa)
#
#
# Indices 1 2 3 4 5 6 
#
# 1 0.014723 -0.001794 -0.004922 0.000000 0.000000 0.000000
# 2 -0.001794 0.008353 -0.002699 0.000000 0.000000 0.000000
# 3 -0.004922 -0.002699 0.011201 0.000000 0.000000 0.000000
# 4 0.000000 0.000000 0.000000 0.030608 0.000000 0.000000
# 5 0.000000 0.000000 0.000000 0.000000 0.027274 0.000000
# 6 0.000000 0.000000 0.000000 0.000000 0.000000 0.026097
#
#
# Mechanical properties :
#
#
# Convention : Reuss Voigt Hill
#
# Bulk Modulus (GPa) = 64.74128 68.02870 66.38499
# Shear Modulus (GPa) = 35.15264 36.35330 35.75297
#
# Velocity S-wave (km/s) = 3.88242 3.94817 3.91543
# Velocity P-wave (km/s) = 6.91796 7.06784 6.99330
#
# Compressibility (1/GPa) = 0.01544609
#
# Stress axis : x y z
#
# Youngs Moduli (GPa) = 67.91879 119.71702 89.27789
#
# Poissons Ratio (x) = 0.21477 0.43945
# Poissons Ratio (y) = 0.12184 0.24100
# Poissons Ratio (z) = 0.33432 0.32316
#
# Static dielectric constant tensor:
#      x y z
#    x 1.954500 0.000000 0.000000 
#    y 0.000000 1.878910 0.000000 
#    z 0.000000 0.000000 2.314740 
# 
# From -- ./inp_files/23240.got.cif
#   From: 2010.05.17/outbox.cif.g08.bks.cpg/sg54_12_cif.got.tgz:23240.got - 2010.06.03 13:09:01.
