data_PCOD9424773
_publ_section_title
;
Structure prediction by ZEFSAII (Michael W. Deem and Ramdas Pophale) SiO2 
 PCOD9424773
Probable space group: P B A M
;
_chemical_formula_sum "Si O2"
_cell_formula_units_Z 64
_cell_length_a 15.871182
_cell_length_b 24.949713
_cell_length_c 7.661829
_cell_angle_alpha 90.000000
_cell_angle_beta 90.000000
_cell_angle_gamma 90.000000
_cell_volume 3033.942049
_symmetry_space_group_name_H-M "P B A M"
_symmetry_group_IT_number 55
_symmetry_cell_setting 'orthorhombic'
loop_
_space_group_symop_operation_xyz
x,y,z
-x,-y,z
1/2+x,1/2-y,-z
1/2-x,1/2+y,-z
-x,-y,-z
x,y,-z
1/2-x,1/2+y,z
1/2+x,1/2-y,z
loop_
_atom_site_type_symbol
_atom_site_label
_atom_site_fract_x
_atom_site_fract_y
_atom_site_fract_z
Si Si1 0.872249 0.688789 0.296263
Si Si2 0.538173 0.392895 0.787560
Si Si3 0.116783 0.541067 0.290759
Si Si4 0.809430 0.191695 0.793674
Si Si5 0.487761 0.273877 0.210962
Si Si6 0.698209 0.458315 0.208447
Si Si7 0.064304 0.423555 0.286178
Si Si8 0.646502 0.573851 0.787259
O O1 0.858729 0.681483 0.500000
O O2 0.784519 0.712967 0.229671
O O3 0.891159 0.629902 0.219657
O O4 0.952875 0.726216 0.271386
O O5 0.526131 0.331307 0.733357
O O6 0.622592 0.421371 0.723685
O O7 0.452534 0.424200 0.740743
O O8 0.540206 0.392310 0.000000
O O9 0.112687 0.539489 0.500000
O O10 0.207986 0.562327 0.241346
O O11 0.106192 0.479413 0.228876
O O12 0.033924 0.573141 0.232551
O O13 0.890159 0.224961 0.727801
O O14 0.814717 0.130301 0.724901
O O15 0.823898 0.187250 0.000000
O O16 0.489103 0.271983 0.000000
O O17 0.688566 0.519223 0.276904
O O18 0.687077 0.461081 0.000000
O O19 0.066051 0.422892 0.500000
O O20 0.651749 0.573721 0.000000
#
# Coordination Sequence:
#
# PCOD9424773 Si02
#       8
#     8   8   8   8   8   8   8   8
#     4  11  21  34  55  80 102 128 170 220 263 299
#     4   8  15  29  48  69  99 134 164 198 244 299
#     4   9  17  33  52  68  96 135 166 192 239 307
#     4   9  18  34  55  77 101 133 172 210 254 306
#     4   9  19  37  55  72 100 139 176 210 250 304
#     4  10  17  26  46  78 105 125 158 203 247 291
#     4   8  17  34  53  70  93 131 169 200 242 303
#     4   8  14  26  48  75 100 129 165 203 243 292
#
# _framework density 21.094667000000001
#
# number of rings (size 3 to 8) (size 9 to 14) (size 15 to 20)
#    0.000    3.000    0.000    3.750    0.000    2.000 
#    2.250    3.750    0.000    3.000    0.000    0.000 
#    0.000    0.000    0.000    0.000    0.000    0.000 
#
# Total GULP energy -356963.878373 kJ/mol
# GULP energy per Si atom -5577.560600 kJ/mol
# Density = 2.104666 g / cm^3
# Si number density = 21.094667 Si / 1000 Ang^3
#
#
#
# Elastic Constant Matrix: (Units=GPa)
#
#
# Indices 1 2 3 4 5 6 
#
# 1 142.3541 33.0011 -5.5829 0.0000 0.0000 0.0000
# 2 33.0011 19.2666 -2.0053 0.0000 0.0000 0.0000
# 3 -5.5829 -2.0053 33.3109 0.0000 0.0000 0.0000
# 4 0.0000 0.0000 0.0000 -15.7285 0.0000 0.0000
# 5 0.0000 0.0000 0.0000 0.0000 30.8135 0.0000
# 6 0.0000 0.0000 0.0000 0.0000 0.0000 17.0291
#
#
#
# Elastic Compliance Matrix: (Units=1/GPa)
#
#
# Indices 1 2 3 4 5 6 
#
# 1 0.011670 -0.019911 0.000757 0.000000 0.000000 0.000000
# 2 -0.019911 0.086200 0.001852 0.000000 0.000000 0.000000
# 3 0.000757 0.001852 0.030259 0.000000 0.000000 0.000000
# 4 0.000000 0.000000 0.000000 -0.063579 0.000000 0.000000
# 5 0.000000 0.000000 0.000000 0.000000 0.032453 0.000000
# 6 0.000000 0.000000 0.000000 0.000000 0.000000 0.058723
#
#
# Mechanical properties :
#
#
# Convention : Reuss Voigt Hill
#
# Bulk Modulus (GPa) = 10.69212 27.30636 18.99924
# Shear Modulus (GPa) = 22.57295 17.72408 20.14851
#
# Velocity S-wave (km/s) = 3.27475 2.90179 3.09390
# Velocity P-wave (km/s) = 4.40208 4.91935 4.66789
#
# Compressibility (1/GPa) = 0.09352685
#
# Stress axis : x y z
#
# Youngs Moduli (GPa) = 85.68842 11.60090 33.04847
#
# Poissons Ratio (x) = 0.23098 -0.02503
# Poissons Ratio (y) = 1.70611 -0.06121
# Poissons Ratio (z) = -0.06489 -0.02149
#
# Static dielectric constant tensor:
#      x y z
#    x 1.778810 0.000000 0.000000 
#    y 0.000000 1.744150 0.000000 
#    z 0.000000 0.000000 1.802340 
# 
# From -- ./inp_files/6526.got.cif
#   From: 2010.05.17/outbox.cif.g08.bks.cpg/sg55_4_cif.got.tgz:6526.got - 2010.06.03 13:27:54.
