data_PCOD9425628
_publ_section_title
;
Structure prediction by ZEFSAII (Michael W. Deem and Ramdas Pophale) SiO2 
 PCOD9425628
Probable space group: P B A M
;
_chemical_formula_sum "Si O2"
_cell_formula_units_Z 48
_cell_length_a 5.078721
_cell_length_b 15.733233
_cell_length_c 30.230457
_cell_angle_alpha 90.000000
_cell_angle_beta 90.000000
_cell_angle_gamma 90.000000
_cell_volume 2415.555623
_symmetry_space_group_name_H-M "P B A M"
_symmetry_group_IT_number 55
_symmetry_cell_setting 'orthorhombic'
loop_
_space_group_symop_operation_xyz
x,y,z
-x,-y,z
1/2+x,1/2-y,-z
1/2-x,1/2+y,-z
-x,-y,-z
x,y,-z
1/2-x,1/2+y,z
1/2+x,1/2-y,z
loop_
_atom_site_type_symbol
_atom_site_label
_atom_site_fract_x
_atom_site_fract_y
_atom_site_fract_z
Si Si1 0.843064 0.807507 0.077593
Si Si2 0.838242 0.692117 0.405661
Si Si3 0.287025 0.694797 0.821596
Si Si4 0.955204 0.691862 0.500000
Si Si5 0.751057 0.939395 0.000000
Si Si6 0.509831 0.397801 0.736210
Si Si7 0.508467 0.102520 0.316000
O O1 0.634387 0.730633 0.071470
O O2 0.821754 0.838193 0.128377
O O3 0.768926 0.879059 0.042748
O O4 0.043919 0.771040 0.404429
O O5 0.893349 0.648227 0.453218
O O6 0.903206 0.635849 0.363407
O O7 0.486102 0.775105 0.817529
O O8 0.383706 0.633198 0.783150
O O9 0.751682 0.772281 0.500000
O O10 0.500000 0.000000 0.000000
O O11 0.000000 0.000000 0.000000
O O12 0.500000 0.500000 0.736565
O O13 0.222691 0.368610 0.720498
O O14 0.721395 0.368158 0.699566
O O15 0.500000 0.000000 0.316719
#
# Coordination Sequence:
#
# PCOD9425628 Si02
#       7
#     8   8   8   4   4   8   8
#     4  10  21  40  61  82 114 154 184 221 282 335
#     4  10  19  32  52  75  97 129 169 211 256 306
#     4  10  21  36  57  82 106 137 182 223 257 309
#     4   8  16  30  47  70  99 124 158 208 260 306
#     4  12  24  38  60  92 118 144 190 238 270 318
#     4  10  21  36  52  73 106 142 170 210 267 313
#     4  10  21  35  50  73 105 137 170 209 259 314
#
# _framework density 19.871205
#
# number of rings (size 3 to 8) (size 9 to 14) (size 15 to 20)
#    0.000    2.000    0.000    3.500    0.000    4.667 
#    0.000    2.917    0.000    0.000    0.000   10.500 
#    0.000    0.000    0.000    0.000    0.000    0.000 
#
# Total GULP energy -267996.293481 kJ/mol
# GULP energy per Si atom -5583.256114 kJ/mol
# Density = 1.982598 g / cm^3
# Si number density = 19.871205 Si / 1000 Ang^3
#
#
#
# Elastic Constant Matrix: (Units=GPa)
#
#
# Indices 1 2 3 4 5 6 
#
# 1 81.0209 3.4264 15.0129 0.0000 0.0000 0.0000
# 2 3.4264 15.2429 36.6111 0.0000 0.0000 0.0000
# 3 15.0129 36.6111 155.1487 0.0000 0.0000 0.0000
# 4 0.0000 0.0000 0.0000 -56.5457 0.0000 0.0000
# 5 0.0000 0.0000 0.0000 0.0000 25.6572 0.0000
# 6 0.0000 0.0000 0.0000 0.0000 0.0000 22.5036
#
#
#
# Elastic Compliance Matrix: (Units=1/GPa)
#
#
# Indices 1 2 3 4 5 6 
#
# 1 0.012568 0.000221 -0.001268 0.000000 0.000000 0.000000
# 2 0.000221 0.151436 -0.035756 0.000000 0.000000 0.000000
# 3 -0.001268 -0.035756 0.015006 0.000000 0.000000 0.000000
# 4 0.000000 0.000000 0.000000 -0.017685 0.000000 0.000000
# 5 0.000000 0.000000 0.000000 0.000000 0.038975 0.000000
# 6 0.000000 0.000000 0.000000 0.000000 0.000000 0.044437
#
#
# Mechanical properties :
#
#
# Convention : Reuss Voigt Hill
#
# Bulk Modulus (GPa) = 9.48740 40.16817 24.82779
# Shear Modulus (GPa) = 14.14509 11.41382 12.77945
#
# Velocity S-wave (km/s) = 2.67092 2.39924 2.53872
# Velocity P-wave (km/s) = 3.78108 5.28520 4.59510
#
# Compressibility (1/GPa) = 0.10540291
#
# Stress axis : x y z
#
# Youngs Moduli (GPa) = 79.56611 6.60344 66.64105
#
# Poissons Ratio (x) = -0.00146 0.08452
# Poissons Ratio (y) = -0.01760 2.38285
# Poissons Ratio (z) = 0.10092 0.23612
#
# Static dielectric constant tensor:
#      x y z
#    x 1.688550 0.000000 0.000000 
#    y 0.000000 1.661650 0.000000 
#    z 0.000000 0.000000 1.702900 
# 
# From -- ./inp_files/23819.got.cif
#   From: 2010.05.17/outbox.cif.g08.bks.cpg/sg55_12_cif.got.tgz:23819.got - 2010.06.03 13:27:54.
