data_PCOD9425988
_publ_section_title
;
Structure prediction by ZEFSAII (Michael W. Deem and Ramdas Pophale) SiO2 
 PCOD9425988
Probable space group: P B A M
;
_chemical_formula_sum "Si O2"
_cell_formula_units_Z 48
_cell_length_a 7.539070
_cell_length_b 17.707111
_cell_length_c 16.414212
_cell_angle_alpha 90.000000
_cell_angle_beta 90.000000
_cell_angle_gamma 90.000000
_cell_volume 2191.217682
_symmetry_space_group_name_H-M "P B A M"
_symmetry_group_IT_number 55
_symmetry_cell_setting 'orthorhombic'
loop_
_space_group_symop_operation_xyz
x,y,z
-x,-y,z
1/2+x,1/2-y,-z
1/2-x,1/2+y,-z
-x,-y,-z
x,y,-z
1/2-x,1/2+y,z
1/2+x,1/2-y,z
loop_
_atom_site_type_symbol
_atom_site_label
_atom_site_fract_x
_atom_site_fract_y
_atom_site_fract_z
Si Si1 0.789770 0.999959 0.237708
Si Si2 0.712825 0.485969 0.587592
Si Si3 0.387328 0.922169 0.089899
Si Si4 0.570434 0.327877 0.407692
Si Si5 0.902307 0.340695 0.789293
Si Si6 0.740571 0.203669 0.694208
O O1 0.716255 0.018255 0.328220
O O2 0.716199 0.915809 0.220323
O O3 0.741996 0.056212 0.164240
O O4 0.000000 0.000000 0.243419
O O5 0.500000 0.500000 0.583877
O O6 0.786421 0.511100 0.500000
O O7 0.712987 0.395336 0.595129
O O8 0.510390 0.853614 0.121662
O O9 0.500000 0.000000 0.084564
O O10 0.311643 0.907891 0.000000
O O11 0.500774 0.326035 0.500000
O O12 0.414444 0.337865 0.340821
O O13 0.669925 0.252436 0.381844
O O14 0.798980 0.264595 0.764150
O O15 0.070619 0.339008 0.728683
#
# Coordination Sequence:
#
# PCOD9425988 Si02
#       6
#     8   8   8   8   8   8
#     4  10  20  35  62  87 116 155 194 247 305 353
#     4   9  18  31  51  79 113 151 192 237 291 341
#     4   9  20  39  62  86 114 146 190 243 295 352
#     4  10  19  34  53  77 113 154 201 248 287 342
#     4  10  21  37  57  85 114 151 195 239 294 360
#     4  10  21  34  54  81 114 154 200 237 297 352
#
# _framework density 21.905629000000001
#
# number of rings (size 3 to 8) (size 9 to 14) (size 15 to 20)
#    0.000    2.333    1.667    0.500    4.667    0.333 
#    0.000    1.667    0.000    5.500    0.000    0.000 
#    0.000    0.000    0.000    0.000    0.000    0.000 
#
# Total GULP energy -267550.589016 kJ/mol
# GULP energy per Si atom -5573.970605 kJ/mol
# Density = 2.185577 g / cm^3
# Si number density = 21.905629 Si / 1000 Ang^3
#
#
#
# Elastic Constant Matrix: (Units=GPa)
#
#
# Indices 1 2 3 4 5 6 
#
# 1 76.9261 24.3941 34.8033 0.0000 0.0000 0.0000
# 2 24.3941 73.0372 24.3515 0.0000 0.0000 0.0000
# 3 34.8033 24.3515 162.0549 0.0000 0.0000 0.0000
# 4 0.0000 0.0000 0.0000 14.3471 0.0000 0.0000
# 5 0.0000 0.0000 0.0000 0.0000 21.5263 0.0000
# 6 0.0000 0.0000 0.0000 0.0000 0.0000 27.9879
#
#
#
# Elastic Compliance Matrix: (Units=1/GPa)
#
#
# Indices 1 2 3 4 5 6 
#
# 1 0.015587 -0.004305 -0.002700 0.000000 0.000000 0.000000
# 2 -0.004305 0.015603 -0.001420 0.000000 0.000000 0.000000
# 3 -0.002700 -0.001420 0.006964 0.000000 0.000000 0.000000
# 4 0.000000 0.000000 0.000000 0.069701 0.000000 0.000000
# 5 0.000000 0.000000 0.000000 0.000000 0.046455 0.000000
# 6 0.000000 0.000000 0.000000 0.000000 0.000000 0.035730
#
#
# Mechanical properties :
#
#
# Convention : Reuss Voigt Hill
#
# Bulk Modulus (GPa) = 46.94405 53.23510 50.08957
# Shear Modulus (GPa) = 23.36544 28.00355 25.68449
#
# Velocity S-wave (km/s) = 3.26949 3.57931 3.42790
# Velocity P-wave (km/s) = 5.97741 6.43714 6.21153
#
# Compressibility (1/GPa) = 0.02130196
#
# Stress axis : x y z
#
# Youngs Moduli (GPa) = 64.15795 64.08980 143.59402
#
# Poissons Ratio (x) = 0.27594 0.38777
# Poissons Ratio (y) = 0.27623 0.20390
# Poissons Ratio (z) = 0.17325 0.09101
#
# Static dielectric constant tensor:
#      x y z
#    x 1.828710 0.000000 0.000000 
#    y 0.000000 1.915690 0.000000 
#    z 0.000000 0.000000 1.849420 
# 
# From -- ./inp_files/17368.got.cif
#   From: 2010.05.17/outbox.cif.g08.bks.cpg/sg55_9_cif.got.tgz:17368.got - 2010.06.03 13:27:54.
