data_PCOD9425219
_publ_section_title
;
Structure prediction by ZEFSAII (Michael W. Deem and Ramdas Pophale) SiO2 
 PCOD9425219
Probable space group: P B A M
;
_chemical_formula_sum "Si O2"
_cell_formula_units_Z 64
_cell_length_a 29.570929
_cell_length_b 5.076831
_cell_length_c 17.071532
_cell_angle_alpha 90.000000
_cell_angle_beta 90.000000
_cell_angle_gamma 90.000000
_cell_volume 2562.891210
_symmetry_space_group_name_H-M "P B A M"
_symmetry_group_IT_number 55
_symmetry_cell_setting 'orthorhombic'
loop_
_space_group_symop_operation_xyz
x,y,z
-x,-y,z
1/2+x,1/2-y,-z
1/2-x,1/2+y,-z
-x,-y,-z
x,y,-z
1/2-x,1/2+y,z
1/2+x,1/2-y,z
loop_
_atom_site_type_symbol
_atom_site_label
_atom_site_fract_x
_atom_site_fract_y
_atom_site_fract_z
Si Si1 0.278782 0.943562 0.309736
Si Si2 0.723544 0.050127 0.879594
Si Si3 0.066048 0.193778 0.914808
Si Si4 0.394014 0.341087 0.271248
Si Si5 0.539700 0.212744 0.417766
Si Si6 0.869451 0.310103 0.888590
Si Si7 0.637686 0.940592 0.411177
Si Si8 0.447337 0.818339 0.247706
O O1 0.257403 0.222655 0.331690
O O2 0.282063 0.931927 0.215220
O O3 0.324619 0.914775 0.359278
O O4 0.764199 0.849390 0.900872
O O5 0.679063 0.914646 0.915009
O O6 0.096767 0.452756 0.907124
O O7 0.034319 0.234115 0.837550
O O8 0.101271 0.947642 0.912124
O O9 0.043223 0.190526 0.000000
O O10 0.361501 0.236884 0.204072
O O11 0.375818 0.310800 0.358230
O O12 0.402182 0.641922 0.249134
O O13 0.435953 0.128682 0.258893
O O14 0.540021 0.373865 0.500000
O O15 0.532057 0.296847 0.327941
O O16 0.500000 0.000000 0.425639
O O17 0.589826 0.091601 0.415162
O O18 0.652177 0.886314 0.500000
#
# Coordination Sequence:
#
# PCOD9425219 Si02
#       8
#     8   8   8   8   8   8   8   8
#     4  10  22  37  55  81 116 157 204 254 305 363
#     4  10  19  32  52  77 106 147 195 246 302 361
#     4  10  20  33  55  84 112 147 194 246 299 358
#     4   9  18  33  52  81 107 146 195 239 293 354
#     4   9  19  38  64  95 129 166 209 256 312 375
#     4  10  18  33  54  76 109 144 191 246 293 354
#     4  10  20  36  57  83 121 162 201 255 310 363
#     4   9  19  34  57  82 117 153 192 245 293 353
#
# _framework density 24.971796999999999
#
# number of rings (size 3 to 8) (size 9 to 14) (size 15 to 20)
#    0.000    2.375    1.250    1.125    0.000    3.000 
#    0.000    5.000    0.000   14.625    0.000    0.000 
#    0.000   12.000    0.000    0.000    0.000    1.875 
#
# Total GULP energy -356552.133580 kJ/mol
# GULP energy per Si atom -5571.127087 kJ/mol
# Density = 2.491496 g / cm^3
# Si number density = 24.971797 Si / 1000 Ang^3
#
#
#
# Elastic Constant Matrix: (Units=GPa)
#
#
# Indices 1 2 3 4 5 6 
#
# 1 77.6109 14.2376 22.6287 0.0000 0.0000 0.0000
# 2 14.2376 95.3829 16.6446 0.0000 0.0000 0.0000
# 3 22.6287 16.6446 217.4974 0.0000 0.0000 0.0000
# 4 0.0000 0.0000 0.0000 -225.3316 0.0000 0.0000
# 5 0.0000 0.0000 0.0000 0.0000 -19.6117 0.0000
# 6 0.0000 0.0000 0.0000 0.0000 0.0000 23.1888
#
#
#
# Elastic Compliance Matrix: (Units=1/GPa)
#
#
# Indices 1 2 3 4 5 6 
#
# 1 0.013588 -0.001806 -0.001276 0.000000 0.000000 0.000000
# 2 -0.001806 0.010866 -0.000644 0.000000 0.000000 0.000000
# 3 -0.001276 -0.000644 0.004780 0.000000 0.000000 0.000000
# 4 0.000000 0.000000 0.000000 -0.004438 0.000000 0.000000
# 5 0.000000 0.000000 0.000000 0.000000 -0.050990 0.000000
# 6 0.000000 0.000000 0.000000 0.000000 0.000000 0.043124
#
#
# Mechanical properties :
#
#
# Convention : Reuss Voigt Hill
#
# Bulk Modulus (GPa) = 45.90558 55.27922 50.59240
# Shear Modulus (GPa) = 158.02255 -21.88555 68.06850
#
# Velocity S-wave (km/s) = 7.96353 -2.96364 5.22660
# Velocity P-wave (km/s) = 10.14790 3.23634 7.53173
#
# Compressibility (1/GPa) = 0.02178384
#
# Stress axis : x y z
#
# Youngs Moduli (GPa) = 73.59473 92.03095 209.21719
#
# Poissons Ratio (x) = 0.16618 0.26686
# Poissons Ratio (y) = 0.13289 0.13467
# Poissons Ratio (z) = 0.09387 0.05924
#
# Static dielectric constant tensor:
#      x y z
#    x 1.991450 0.000000 0.000000 
#    y 0.000000 1.940970 0.000000 
#    z 0.000000 0.000000 2.349180 
# 
# From -- ./inp_files/22167.got.cif
#   From: 2010.05.17/outbox.cif.g08.bks.cpg/sg55_12_cif.got.tgz:22167.got - 2010.06.03 13:27:54.
