data_PCOD9425282
_publ_section_title
;
Structure prediction by ZEFSAII (Michael W. Deem and Ramdas Pophale) SiO2 
 PCOD9425282
Probable space group: P B A M
;
_chemical_formula_sum "Si O2"
_cell_formula_units_Z 64
_cell_length_a 24.243061
_cell_length_b 15.993682
_cell_length_c 7.712135
_cell_angle_alpha 90.000000
_cell_angle_beta 90.000000
_cell_angle_gamma 90.000000
_cell_volume 2990.270898
_symmetry_space_group_name_H-M "P B A M"
_symmetry_group_IT_number 55
_symmetry_cell_setting 'orthorhombic'
loop_
_space_group_symop_operation_xyz
x,y,z
-x,-y,z
1/2+x,1/2-y,-z
1/2-x,1/2+y,-z
-x,-y,-z
x,y,-z
1/2-x,1/2+y,z
1/2+x,1/2-y,z
loop_
_atom_site_type_symbol
_atom_site_label
_atom_site_fract_x
_atom_site_fract_y
_atom_site_fract_z
Si Si1 0.748322 0.902799 0.202863
Si Si2 0.628571 0.849678 0.701345
Si Si3 0.130768 0.327412 0.287976
Si Si4 0.636667 0.669653 0.704089
Si Si5 0.563349 0.010887 0.287678
Si Si6 0.560255 0.518190 0.200117
Si Si7 0.747658 0.098127 0.289034
Si Si8 0.371510 0.641789 0.702487
O O1 0.694213 0.863216 0.287748
O O2 0.805892 0.871801 0.280701
O O3 0.744948 0.002655 0.227741
O O4 0.747852 0.882837 0.000000
O O5 0.611080 0.848450 0.500000
O O6 0.616750 0.758313 0.778366
O O7 0.598780 0.931462 0.775810
O O8 0.130412 0.325231 0.500000
O O9 0.090605 0.401936 0.231317
O O10 0.193003 0.351980 0.236235
O O11 0.115351 0.234421 0.229226
O O12 0.646306 0.684792 0.500000
O O13 0.593585 0.594682 0.718804
O O14 0.695756 0.639729 0.775123
O O15 0.565588 0.012480 0.500000
O O16 0.500000 0.000000 0.237166
O O17 0.500000 0.500000 0.277142
O O18 0.596951 0.434691 0.209981
O O19 0.552301 0.541793 0.000000
O O20 0.748485 0.095298 0.500000
O O21 0.386392 0.637740 0.500000
#
# Coordination Sequence:
#
# PCOD9425282 Si02
#       8
#     8   8   8   8   8   8   8   8
#     4  12  23  35  56  87 120 155 192 235 294 357
#     4  10  20  37  61  87 118 154 194 240 290 349
#     4   9  18  33  57  88 118 149 186 234 292 345
#     4  10  21  36  61  91 113 148 198 247 295 343
#     4   9  17  31  55  87 118 147 185 237 288 332
#     4  11  25  43  60  82 118 161 199 241 296 354
#     4  10  18  34  58  84 116 150 187 238 295 349
#     4  11  22  38  62  88 115 151 197 248 294 345
#
# _framework density 21.402743000000001
#
# number of rings (size 3 to 8) (size 9 to 14) (size 15 to 20)
#    0.000    1.750    2.500    2.625    0.000    4.500 
#    0.000    5.000    0.000    0.375    0.000    0.000 
#    0.000    0.000    0.000    0.000    0.000    0.000 
#
# Total GULP energy -357629.351200 kJ/mol
# GULP energy per Si atom -5587.958613 kJ/mol
# Density = 2.135403 g / cm^3
# Si number density = 21.402743 Si / 1000 Ang^3
#
#
#
# Elastic Constant Matrix: (Units=GPa)
#
#
# Indices 1 2 3 4 5 6 
#
# 1 112.7446 51.3481 -17.9919 0.0000 0.0000 0.0000
# 2 51.3481 176.4100 -10.6838 0.0000 0.0000 0.0000
# 3 -17.9919 -10.6838 37.8009 0.0000 0.0000 0.0000
# 4 0.0000 0.0000 0.0000 293.4803 0.0000 0.0000
# 5 0.0000 0.0000 0.0000 0.0000 6524.4758 0.0000
# 6 0.0000 0.0000 0.0000 0.0000 0.0000 -1.8798
#
#
#
# Elastic Compliance Matrix: (Units=1/GPa)
#
#
# Indices 1 2 3 4 5 6 
#
# 1 0.010889 -0.002905 0.004362 0.000000 0.000000 0.000000
# 2 -0.002905 0.006543 0.000466 0.000000 0.000000 0.000000
# 3 0.004362 0.000466 0.028662 0.000000 0.000000 0.000000
# 4 0.000000 0.000000 0.000000 0.003407 0.000000 0.000000
# 5 0.000000 0.000000 0.000000 0.000000 0.000153 0.000000
# 6 0.000000 0.000000 0.000000 0.000000 0.000000 -0.531961
#
#
# Mechanical properties :
#
#
# Convention : Reuss Voigt Hill
#
# Bulk Modulus (GPa) = 20.02462 41.36672 30.69567
# Shear Modulus (GPa) = -10.64950 1383.50081 686.42565
#
# Velocity S-wave (km/s) = -2.23306 25.45223 17.92804
# Velocity P-wave (km/s) = 1.65156 29.71741 21.04581
#
# Compressibility (1/GPa) = 0.04993854
#
# Stress axis : x y z
#
# Youngs Moduli (GPa) = 91.83756 152.84670 34.88928
#
# Poissons Ratio (x) = 0.44406 -0.15217
# Poissons Ratio (y) = 0.26681 -0.01627
# Poissons Ratio (z) = -0.40055 -0.07127
#
# Static dielectric constant tensor:
#      x y z
#    x 1.741840 0.000000 0.000000 
#    y 0.000000 1.766060 0.000000 
#    z 0.000000 0.000000 1.790880 
# 
# From -- ./inp_files/9761.got.cif
#   From: 2010.05.17/outbox.cif.g08.bks.cpg/sg55_5_cif.got.tgz:9761.got - 2010.06.03 13:27:54.
