data_PCOD9425809
_publ_section_title
;
Structure prediction by ZEFSAII (Michael W. Deem and Ramdas Pophale) SiO2 
 PCOD9425809
Probable space group: P B A M
;
_chemical_formula_sum "Si O2"
_cell_formula_units_Z 56
_cell_length_a 7.004135
_cell_length_b 15.944884
_cell_length_c 20.491910
_cell_angle_alpha 90.000000
_cell_angle_beta 90.000000
_cell_angle_gamma 90.000000
_cell_volume 2288.538970
_symmetry_space_group_name_H-M "P B A M"
_symmetry_group_IT_number 55
_symmetry_cell_setting 'orthorhombic'
loop_
_space_group_symop_operation_xyz
x,y,z
-x,-y,z
1/2+x,1/2-y,-z
1/2-x,1/2+y,-z
-x,-y,-z
x,y,-z
1/2-x,1/2+y,z
1/2+x,1/2-y,z
loop_
_atom_site_type_symbol
_atom_site_label
_atom_site_fract_x
_atom_site_fract_y
_atom_site_fract_z
Si Si1 0.174961 0.626286 0.929190
Si Si2 0.371792 0.318126 0.343196
Si Si3 0.813610 0.366953 0.345980
Si Si4 0.726562 0.525880 0.575027
Si Si5 0.334620 0.379889 0.208841
Si Si6 0.279897 0.067923 0.210220
Si Si7 0.615520 0.678757 0.929401
O O1 0.131997 0.581706 0.861090
O O2 0.405614 0.638131 0.930067
O O3 0.096096 0.721036 0.926645
O O4 0.124843 0.588425 0.000000
O O5 0.585460 0.353083 0.341239
O O6 0.383847 0.223729 0.369186
O O7 0.257402 0.387657 0.384342
O O8 0.297207 0.317181 0.268517
O O9 0.833218 0.447049 0.392336
O O10 0.877184 0.388727 0.272296
O O11 0.500000 0.500000 0.575698
O O12 0.780423 0.538411 0.500000
O O13 0.243592 0.469682 0.223927
O O14 0.563518 0.395942 0.206585
O O15 0.282423 0.349311 0.136681
O O16 0.705409 0.658002 0.000000
#
# Coordination Sequence:
#
# PCOD9425809 Si02
#       7
#     8   8   8   8   8   8   8
#     4   9  17  28  43  64  90 120 155 197 242 286
#     4  10  19  33  54  77 101 132 168 205 246 292
#     4  10  19  33  54  77 101 132 168 205 246 292
#     4   9  18  34  55  77 102 134 170 201 237 297
#     4   9  16  28  47  69  93 123 162 203 240 284
#     4   9  16  28  47  69  93 123 162 203 240 284
#     4   9  17  28  43  64  90 120 155 197 242 286
#
# _framework density 24.469760999999998
#
# number of rings (size 3 to 8) (size 9 to 14) (size 15 to 20)
#    0.000    2.714    1.429    0.857    0.000    1.143 
#    0.000    3.571    0.000    3.429    0.000    4.000 
#    0.000    0.000    0.000    0.000    0.000    0.000 
#
# Total GULP energy -313172.917840 kJ/mol
# GULP energy per Si atom -5592.373533 kJ/mol
# Density = 2.441407 g / cm^3
# Si number density = 24.469761 Si / 1000 Ang^3
#
#
#
# Elastic Constant Matrix: (Units=GPa)
#
#
# Indices 1 2 3 4 5 6 
#
# 1 78.8501 11.2470 18.1132 0.0000 0.0000 0.0000
# 2 11.2470 123.6821 88.6405 0.0000 0.0000 0.0000
# 3 18.1132 88.6405 177.8730 0.0000 0.0000 0.0000
# 4 0.0000 0.0000 0.0000 18.6605 0.0000 0.0000
# 5 0.0000 0.0000 0.0000 0.0000 -4.3172 0.0000
# 6 0.0000 0.0000 0.0000 0.0000 0.0000 34.6716
#
#
#
# Elastic Compliance Matrix: (Units=1/GPa)
#
#
# Indices 1 2 3 4 5 6 
#
# 1 0.012997 -0.000363 -0.001143 0.000000 0.000000 0.000000
# 2 -0.000363 0.012587 -0.006236 0.000000 0.000000 0.000000
# 3 -0.001143 -0.006236 0.008846 0.000000 0.000000 0.000000
# 4 0.000000 0.000000 0.000000 0.053589 0.000000 0.000000
# 5 0.000000 0.000000 0.000000 0.000000 -0.231634 0.000000
# 6 0.000000 0.000000 0.000000 0.000000 0.000000 0.028842
#
#
# Mechanical properties :
#
#
# Convention : Reuss Voigt Hill
#
# Bulk Modulus (GPa) = 52.77857 68.48960 60.63408
# Shear Modulus (GPa) = -53.77816 27.29661 -13.24077
#
# Velocity S-wave (km/s) = -4.69309 3.34357 -2.32870
# Velocity P-wave (km/s) = 2.78408 6.55410 4.19554
#
# Compressibility (1/GPa) = 0.01894708
#
# Stress axis : x y z
#
# Youngs Moduli (GPa) = 76.94354 79.44528 113.04760
#
# Poissons Ratio (x) = 0.02884 0.12917
# Poissons Ratio (y) = 0.02793 0.70493
# Poissons Ratio (z) = 0.08791 0.49540
#
# Static dielectric constant tensor:
#      x y z
#    x 2.029410 0.000000 0.000000 
#    y 0.000000 1.875760 0.000000 
#    z 0.000000 0.000000 1.918570 
# 
# From -- ./inp_files/22639.got.cif
#   From: 2010.05.17/outbox.cif.g08.bks.cpg/sg55_12_cif.got.tgz:22639.got - 2010.06.03 13:27:54.
