data_PCOD9425395
_publ_section_title
;
Structure prediction by ZEFSAII (Michael W. Deem and Ramdas Pophale) SiO2 
 PCOD9425395
Probable space group: P B A M
;
_chemical_formula_sum "Si O2"
_cell_formula_units_Z 64
_cell_length_a 22.300313
_cell_length_b 19.495874
_cell_length_c 7.817456
_cell_angle_alpha 90.000000
_cell_angle_beta 90.000000
_cell_angle_gamma 90.000000
_cell_volume 3398.749163
_symmetry_space_group_name_H-M "P B A M"
_symmetry_group_IT_number 55
_symmetry_cell_setting 'orthorhombic'
loop_
_space_group_symop_operation_xyz
x,y,z
-x,-y,z
1/2+x,1/2-y,-z
1/2-x,1/2+y,-z
-x,-y,-z
x,y,-z
1/2-x,1/2+y,z
1/2+x,1/2-y,z
loop_
_atom_site_type_symbol
_atom_site_label
_atom_site_fract_x
_atom_site_fract_y
_atom_site_fract_z
Si Si1 0.414675 0.684678 0.700836
Si Si2 0.685142 0.415990 0.799385
Si Si3 0.232750 0.394849 0.797089
Si Si4 0.187023 0.541586 0.305225
Si Si5 0.932891 0.519545 0.709760
Si Si6 0.991688 0.075991 0.701071
Si Si7 0.359555 0.432789 0.205943
Si Si8 0.384480 0.832113 0.706485
O O1 0.428714 0.693052 0.500000
O O2 0.351077 0.645803 0.715255
O O3 0.464398 0.633232 0.776224
O O4 0.411834 0.761295 0.773357
O O5 0.757033 0.418221 0.775699
O O6 0.657695 0.489332 0.737634
O O7 0.672888 0.412292 0.000000
O O8 0.209177 0.462440 0.701134
O O9 0.302048 0.386337 0.750428
O O10 0.185382 0.336329 0.757453
O O11 0.230922 0.410768 0.000000
O O12 0.182195 0.565355 0.500000
O O13 0.119681 0.533098 0.231939
O O14 0.930923 0.518654 0.500000
O O15 0.915419 0.596909 0.765194
O O16 0.000000 0.500000 0.762013
O O17 0.007554 0.070691 0.500000
O O18 0.921754 0.091828 0.718132
O O19 0.000000 0.000000 0.777912
O O20 0.365572 0.434220 0.000000
O O21 0.387482 0.832365 0.500000
#
# Coordination Sequence:
#
# PCOD9425395 Si02
#       8
#     8   8   8   8   8   8   8   8
#     4  10  20  33  48  69  98 130 167 209 251 300
#     4  10  19  30  46  70  97 128 164 203 248 292
#     4   9  17  30  48  71  96 122 157 200 244 292
#     4   9  16  27  47  73  98 124 155 199 247 287
#     4   8  14  27  50  77  98 122 158 200 247 298
#     4  10  19  30  46  70  98 131 168 206 245 286
#     4   9  18  30  46  69  95 124 160 202 240 284
#     4   9  18  32  51  73  96 125 163 207 252 300
#
# _framework density 18.830455000000001
#
# number of rings (size 3 to 8) (size 9 to 14) (size 15 to 20)
#    0.000    2.750    1.250    2.625    0.000    3.750 
#    0.000    0.000    2.750    9.375    0.000    0.000 
#    0.000    0.000    0.000    0.000    0.000    0.000 
#
# Total GULP energy -356429.399472 kJ/mol
# GULP energy per Si atom -5569.209367 kJ/mol
# Density = 1.878760 g / cm^3
# Si number density = 18.830455 Si / 1000 Ang^3
#
#
#
# Elastic Constant Matrix: (Units=GPa)
#
#
# Indices 1 2 3 4 5 6 
#
# 1 136.1563 46.3245 -7.9568 0.0000 0.0000 0.0000
# 2 46.3245 75.6193 2.2531 0.0000 0.0000 0.0000
# 3 -7.9568 2.2531 22.6546 0.0000 0.0000 0.0000
# 4 0.0000 0.0000 0.0000 7.3215 0.0000 0.0000
# 5 0.0000 0.0000 0.0000 0.0000 48.5959 0.0000
# 6 0.0000 0.0000 0.0000 0.0000 0.0000 21.4945
#
#
#
# Elastic Compliance Matrix: (Units=1/GPa)
#
#
# Indices 1 2 3 4 5 6 
#
# 1 0.009623 -0.006014 0.003978 0.000000 0.000000 0.000000
# 2 -0.006014 0.017021 -0.003805 0.000000 0.000000 0.000000
# 3 0.003978 -0.003805 0.045917 0.000000 0.000000 0.000000
# 4 0.000000 0.000000 0.000000 0.136584 0.000000 0.000000
# 5 0.000000 0.000000 0.000000 0.000000 0.020578 0.000000
# 6 0.000000 0.000000 0.000000 0.000000 0.000000 0.046524
#
#
# Mechanical properties :
#
#
# Convention : Reuss Voigt Hill
#
# Bulk Modulus (GPa) = 16.42578 35.07461 25.75020
# Shear Modulus (GPa) = 16.22213 28.40300 22.31256
#
# Velocity S-wave (km/s) = 2.93829 3.88797 3.44600
# Velocity P-wave (km/s) = 4.50037 6.23073 5.43486
#
# Compressibility (1/GPa) = 0.06087991
#
# Stress axis : x y z
#
# Youngs Moduli (GPa) = 103.91818 58.74951 21.77854
#
# Poissons Ratio (x) = 0.35329 -0.08663
# Poissons Ratio (y) = 0.62492 0.08287
# Poissons Ratio (z) = -0.41338 0.22354
#
# Static dielectric constant tensor:
#      x y z
#    x 1.691780 0.000000 0.000000 
#    y 0.000000 1.653950 0.000000 
#    z 0.000000 0.000000 1.687820 
# 
# From -- ./inp_files/9157.got.cif
#   From: 2010.05.17/outbox.cif.g08.bks.cpg/sg55_5_cif.got.tgz:9157.got - 2010.06.03 13:27:54.
