data_PCOD9425571
_publ_section_title
;
Structure prediction by ZEFSAII (Michael W. Deem and Ramdas Pophale) SiO2 
 PCOD9425571
Probable space group: P B A M
;
_chemical_formula_sum "Si O2"
_cell_formula_units_Z 48
_cell_length_a 17.861392
_cell_length_b 12.536740
_cell_length_c 8.295307
_cell_angle_alpha 90.000000
_cell_angle_beta 90.000000
_cell_angle_gamma 90.000000
_cell_volume 1857.515235
_symmetry_space_group_name_H-M "P B A M"
_symmetry_group_IT_number 55
_symmetry_cell_setting 'orthorhombic'
loop_
_space_group_symop_operation_xyz
x,y,z
-x,-y,z
1/2+x,1/2-y,-z
1/2-x,1/2+y,-z
-x,-y,-z
x,y,-z
1/2-x,1/2+y,z
1/2+x,1/2-y,z
loop_
_atom_site_type_symbol
_atom_site_label
_atom_site_fract_x
_atom_site_fract_y
_atom_site_fract_z
Si Si1 0.775238 0.370531 0.818538
Si Si2 0.542857 0.673564 0.306702
Si Si3 0.071649 0.591739 0.683802
Si Si4 0.200171 0.883352 0.818357
Si Si5 0.866349 0.616949 0.808029
Si Si6 0.882806 0.854234 0.311776
O O1 0.838737 0.387941 0.686770
O O2 0.776582 0.241638 0.825548
O O3 0.689516 0.399855 0.778838
O O4 0.799233 0.405059 0.000000
O O5 0.535982 0.682094 0.500000
O O6 0.544544 0.795914 0.238841
O O7 0.621535 0.615873 0.274252
O O8 0.465992 0.618552 0.250777
O O9 0.045923 0.588490 0.500000
O O10 0.073026 0.473683 0.762963
O O11 0.282118 0.926817 0.768056
O O12 0.183631 0.916439 0.000000
O O13 0.878892 0.725410 0.710273
O O14 0.869155 0.638658 0.000000
O O15 0.875429 0.881185 0.500000
#
# Coordination Sequence:
#
# PCOD9425571 Si02
#       6
#     8   8   8   8   8   8
#     4   9  17  31  49  70  94 123 160 200 235 279
#     4   9  19  32  48  71  98 125 158 196 236 282
#     4  10  19  32  50  72  97 129 162 196 239 286
#     4   8  16  30  48  67  90 121 159 196 233 277
#     4  10  20  33  48  71  99 128 161 199 239 283
#     4  10  19  32  49  71  98 128 159 195 236 283
#
# _framework density 25.840975
#
# number of rings (size 3 to 8) (size 9 to 14) (size 15 to 20)
#    0.000    2.667    0.000    3.000    0.000    7.333 
#    0.000    3.333    0.000    1.000    0.000    7.000 
#    0.000    0.000    0.000    0.000    0.000    0.000 
#
# Total GULP energy -268043.221528 kJ/mol
# GULP energy per Si atom -5584.233782 kJ/mol
# Density = 2.578216 g / cm^3
# Si number density = 25.840975 Si / 1000 Ang^3
#
#
#
# Elastic Constant Matrix: (Units=GPa)
#
#
# Indices 1 2 3 4 5 6 
#
# 1 146.2135 -2.6169 5.6516 0.0000 0.0000 0.0000
# 2 -2.6169 46.0101 -0.5723 0.0000 0.0000 0.0000
# 3 5.6516 -0.5723 44.7918 0.0000 0.0000 0.0000
# 4 0.0000 0.0000 0.0000 30.3278 0.0000 0.0000
# 5 0.0000 0.0000 0.0000 0.0000 44.5681 0.0000
# 6 0.0000 0.0000 0.0000 0.0000 0.0000 47.3791
#
#
#
# Elastic Compliance Matrix: (Units=1/GPa)
#
#
# Indices 1 2 3 4 5 6 
#
# 1 0.006879 0.000381 -0.000863 0.000000 0.000000 0.000000
# 2 0.000381 0.021759 0.000230 0.000000 0.000000 0.000000
# 3 -0.000863 0.000230 0.022437 0.000000 0.000000 0.000000
# 4 0.000000 0.000000 0.000000 0.032973 0.000000 0.000000
# 5 0.000000 0.000000 0.000000 0.000000 0.022438 0.000000
# 6 0.000000 0.000000 0.000000 0.000000 0.000000 0.021106
#
#
# Mechanical properties :
#
#
# Convention : Reuss Voigt Hill
#
# Bulk Modulus (GPa) = 19.77438 26.88224 23.32831
# Shear Modulus (GPa) = 34.49352 40.09186 37.29269
#
# Velocity S-wave (km/s) = 3.65751 3.94316 3.80302
# Velocity P-wave (km/s) = 5.05029 5.58184 5.32270
#
# Compressibility (1/GPa) = 0.05057048
#
# Stress axis : x y z
#
# Youngs Moduli (GPa) = 145.35961 45.95829 44.56855
#
# Poissons Ratio (x) = -0.01749 0.03847
# Poissons Ratio (y) = -0.05532 -0.01025
# Poissons Ratio (z) = 0.12547 -0.01057
#
# Static dielectric constant tensor:
#      x y z
#    x 2.095970 0.000000 0.000000 
#    y 0.000000 2.234640 0.000000 
#    z 0.000000 0.000000 1.918570 
# 
# From -- ./inp_files/5687.got.cif
#   From: 2010.05.17/outbox.cif.g08.bks.cpg/sg55_3_cif.got.tgz:5687.got - 2010.06.03 13:27:54.
