data_PCOD9425581
_publ_section_title
;
Structure prediction by ZEFSAII (Michael W. Deem and Ramdas Pophale) SiO2 
 PCOD9425581
Probable space group: P B A M
;
_chemical_formula_sum "Si O2"
_cell_formula_units_Z 56
_cell_length_a 18.371957
_cell_length_b 19.278661
_cell_length_c 9.139727
_cell_angle_alpha 90.000000
_cell_angle_beta 90.000000
_cell_angle_gamma 90.000000
_cell_volume 3237.170028
_symmetry_space_group_name_H-M "P B A M"
_symmetry_group_IT_number 55
_symmetry_cell_setting 'orthorhombic'
loop_
_space_group_symop_operation_xyz
x,y,z
-x,-y,z
1/2+x,1/2-y,-z
1/2-x,1/2+y,-z
-x,-y,-z
x,y,-z
1/2-x,1/2+y,z
1/2+x,1/2-y,z
loop_
_atom_site_type_symbol
_atom_site_label
_atom_site_fract_x
_atom_site_fract_y
_atom_site_fract_z
Si Si1 0.514461 0.786784 0.831028
Si Si2 0.609402 0.398643 0.823705
Si Si3 0.658010 0.252069 0.832263
Si Si4 0.974368 0.577041 0.675891
Si Si5 0.960464 0.148569 0.673104
Si Si6 0.333422 0.463605 0.674025
Si Si7 0.190570 0.383673 0.675094
O O1 0.428250 0.766948 0.828365
O O2 0.518555 0.861480 0.754376
O O3 0.551980 0.724050 0.744126
O O4 0.537403 0.789045 0.000000
O O5 0.659305 0.331963 0.783529
O O6 0.530682 0.385186 0.751354
O O7 0.642237 0.469352 0.763292
O O8 0.602059 0.398946 0.000000
O O9 0.697342 0.193610 0.738783
O O10 0.682388 0.247548 0.000000
O O11 0.981128 0.585115 0.500000
O O12 0.889220 0.587343 0.714638
O O13 0.000000 0.500000 0.715372
O O14 0.975235 0.156245 0.500000
O O15 0.892683 0.097317 0.692196
O O16 0.330743 0.480302 0.500000
O O17 0.255560 0.433719 0.722320
O O18 0.193775 0.379144 0.500000
#
# Coordination Sequence:
#
# PCOD9425581 Si02
#       7
#     8   8   8   8   8   8   8
#     4   9  17  30  49  73  98 123 156 198 243 293
#     4  10  20  33  51  75 100 128 165 205 244 290
#     4   8  16  31  49  69  92 119 155 196 236 284
#     4   9  17  31  53  77  99 127 165 209 253 294
#     4  10  19  32  50  71  98 131 166 204 244 289
#     4  10  21  34  48  71 102 133 165 202 245 293
#     4   9  18  33  51  71  96 128 165 201 242 292
#
# _framework density 17.299060000000001
#
# number of rings (size 3 to 8) (size 9 to 14) (size 15 to 20)
#    0.000    2.714    0.000    2.571    0.000    7.714 
#    0.000    1.429    0.000    6.857    0.000    0.000 
#    0.000    0.000    0.000    0.000    0.000    0.000 
#
# Total GULP energy -312158.750290 kJ/mol
# GULP energy per Si atom -5574.263398 kJ/mol
# Density = 1.725969 g / cm^3
# Si number density = 17.299060 Si / 1000 Ang^3
#
#
#
# Elastic Constant Matrix: (Units=GPa)
#
#
# Indices 1 2 3 4 5 6 
#
# 1 44.1697 46.4380 32.7042 0.0000 0.0000 0.0000
# 2 46.4380 165.5485 72.7748 0.0000 0.0000 0.0000
# 3 32.7042 72.7748 63.2679 0.0000 0.0000 0.0000
# 4 0.0000 0.0000 0.0000 31.0825 0.0000 0.0000
# 5 0.0000 0.0000 0.0000 0.0000 8.5306 0.0000
# 6 0.0000 0.0000 0.0000 0.0000 0.0000 14.9117
#
#
#
# Elastic Compliance Matrix: (Units=1/GPa)
#
#
# Indices 1 2 3 4 5 6 
#
# 1 0.038003 -0.004095 -0.014933 0.000000 0.000000 0.000000
# 2 -0.004095 0.012661 -0.012446 0.000000 0.000000 0.000000
# 3 -0.014933 -0.012446 0.037841 0.000000 0.000000 0.000000
# 4 0.000000 0.000000 0.000000 0.032172 0.000000 0.000000
# 5 0.000000 0.000000 0.000000 0.000000 0.117225 0.000000
# 6 0.000000 0.000000 0.000000 0.000000 0.000000 0.067062
#
#
# Mechanical properties :
#
#
# Convention : Reuss Voigt Hill
#
# Bulk Modulus (GPa) = 39.13139 64.09113 51.61126
# Shear Modulus (GPa) = 13.28261 18.97622 16.12942
#
# Velocity S-wave (km/s) = 2.77397 3.31562 3.05681
# Velocity P-wave (km/s) = 5.73842 7.19633 6.50833
#
# Compressibility (1/GPa) = 0.02555493
#
# Stress axis : x y z
#
# Youngs Moduli (GPa) = 26.31396 78.98528 26.42614
#
# Poissons Ratio (x) = 0.32348 0.39463
# Poissons Ratio (y) = 0.10777 0.32890
# Poissons Ratio (z) = 0.39296 0.98305
#
# Static dielectric constant tensor:
#      x y z
#    x 1.576340 0.000000 0.000000 
#    y 0.000000 1.583930 0.000000 
#    z 0.000000 0.000000 1.582140 
# 
# From -- ./inp_files/8907.got.cif
#   From: 2010.05.17/outbox.cif.g08.bks.cpg/sg55_5_cif.got.tgz:8907.got - 2010.06.03 13:27:54.
