data_PCOD9425621
_publ_section_title
;
Structure prediction by ZEFSAII (Michael W. Deem and Ramdas Pophale) SiO2 
 PCOD9425621
Probable space group: P B A M
;
_chemical_formula_sum "Si O2"
_cell_formula_units_Z 64
_cell_length_a 11.428642
_cell_length_b 28.919919
_cell_length_c 9.143152
_cell_angle_alpha 90.000000
_cell_angle_beta 90.000000
_cell_angle_gamma 90.000000
_cell_volume 3021.952549
_symmetry_space_group_name_H-M "P B A M"
_symmetry_group_IT_number 55
_symmetry_cell_setting 'orthorhombic'
loop_
_space_group_symop_operation_xyz
x,y,z
-x,-y,z
1/2+x,1/2-y,-z
1/2-x,1/2+y,-z
-x,-y,-z
x,y,-z
1/2-x,1/2+y,z
1/2+x,1/2-y,z
loop_
_atom_site_type_symbol
_atom_site_label
_atom_site_fract_x
_atom_site_fract_y
_atom_site_fract_z
Si Si1 0.560368 0.929732 0.829870
Si Si2 0.306265 0.514838 0.831242
Si Si3 0.083653 0.098848 0.673479
Si Si4 0.673115 0.058956 0.671200
Si Si5 0.330629 0.830824 0.333868
Si Si6 0.177123 0.654621 0.326994
Si Si7 0.026299 0.724844 0.827619
Si Si8 0.061623 0.816427 0.670024
O O1 0.679034 0.959601 0.825449
O O2 0.445637 0.952142 0.759630
O O3 0.589770 0.884475 0.735037
O O4 0.537485 0.918467 0.000000
O O5 0.395435 0.551709 0.761315
O O6 0.282065 0.468766 0.738748
O O7 0.334233 0.505291 0.000000
O O8 0.080521 0.088073 0.500000
O O9 0.194998 0.133001 0.699761
O O10 0.975327 0.131608 0.713042
O O11 0.661072 0.046962 0.500000
O O12 0.683180 0.114152 0.684649
O O13 0.374530 0.822594 0.500000
O O14 0.417738 0.806659 0.222726
O O15 0.200516 0.811218 0.321757
O O16 0.163340 0.660282 0.500000
O O17 0.140615 0.701354 0.246205
O O18 0.007069 0.776133 0.766096
O O19 0.039446 0.724947 0.000000
O O20 0.024851 0.811017 0.500000
#
# Coordination Sequence:
#
# PCOD9425621 Si02
#       8
#     8   8   8   8   8   8   8   8
#     4  10  19  32  51  81 119 157 193 240 302 356
#     4  10  21  35  55  84 121 161 199 245 304 365
#     4   9  20  39  63  88 115 153 203 253 298 352
#     4  11  21  34  56  85 117 158 205 251 300 359
#     4  10  23  43  65  89 120 159 205 254 302 357
#     4  10  19  34  57  86 117 153 195 239 292 354
#     4  12  25  39  60  91 124 157 195 243 305 370
#     4  10  23  44  67  88 116 157 205 255 303 355
#
# _framework density 21.178359
#
# number of rings (size 3 to 8) (size 9 to 14) (size 15 to 20)
#    0.000    1.750    1.250    3.000    1.750    5.000 
#    0.000    0.625    0.000    3.750    0.000    0.000 
#    0.000    0.000    0.000    0.000    0.000    0.000 
#
# Total GULP energy -357710.858764 kJ/mol
# GULP energy per Si atom -5589.232168 kJ/mol
# Density = 2.113016 g / cm^3
# Si number density = 21.178359 Si / 1000 Ang^3
#
#
#
# Elastic Constant Matrix: (Units=GPa)
#
#
# Indices 1 2 3 4 5 6 
#
# 1 27.0485 -6.5712 6.4272 0.0000 0.0000 0.0000
# 2 -6.5712 50.2867 28.6160 0.0000 0.0000 0.0000
# 3 6.4272 28.6160 108.7419 0.0000 0.0000 0.0000
# 4 0.0000 0.0000 0.0000 -170.9525 0.0000 0.0000
# 5 0.0000 0.0000 0.0000 0.0000 7.9110 0.0000
# 6 0.0000 0.0000 0.0000 0.0000 0.0000 23.7017
#
#
#
# Elastic Compliance Matrix: (Units=1/GPa)
#
#
# Indices 1 2 3 4 5 6 
#
# 1 0.039885 0.007708 -0.004386 0.000000 0.000000 0.000000
# 2 0.007708 0.024878 -0.007002 0.000000 0.000000 0.000000
# 3 -0.004386 -0.007002 0.011298 0.000000 0.000000 0.000000
# 4 0.000000 0.000000 0.000000 -0.005850 0.000000 0.000000
# 5 0.000000 0.000000 0.000000 0.000000 0.126406 0.000000
# 6 0.000000 0.000000 0.000000 0.000000 0.000000 0.042191
#
#
# Mechanical properties :
#
#
# Convention : Reuss Voigt Hill
#
# Bulk Modulus (GPa) = 14.55590 27.00233 20.77912
# Shear Modulus (GPa) = 18.58252 -17.36096 0.61078
#
# Velocity S-wave (km/s) = 2.96536 -2.86623 0.53761
# Velocity P-wave (km/s) = 4.31421 1.35052 3.19658
#
# Compressibility (1/GPa) = 0.06870064
#
# Stress axis : x y z
#
# Youngs Moduli (GPa) = 25.07187 40.19626 88.51117
#
# Poissons Ratio (x) = -0.30982 0.38819
# Poissons Ratio (y) = -0.19325 0.61978
# Poissons Ratio (z) = 0.10996 0.28147
#
# Static dielectric constant tensor:
#      x y z
#    x 1.791370 0.000000 0.000000 
#    y 0.000000 1.779300 0.000000 
#    z 0.000000 0.000000 1.719460 
# 
# From -- ./inp_files/4682.got.cif
#   From: 2010.05.17/outbox.cif.g08.bks.cpg/sg55_3_cif.got.tgz:4682.got - 2010.06.03 13:27:54.
