data_PCOD9425612
_publ_section_title
;
Structure prediction by ZEFSAII (Michael W. Deem and Ramdas Pophale) SiO2 
 PCOD9425612
Probable space group: P B A M
;
_chemical_formula_sum "Si O2"
_cell_formula_units_Z 56
_cell_length_a 19.666120
_cell_length_b 19.857568
_cell_length_c 8.582804
_cell_angle_alpha 90.000000
_cell_angle_beta 90.000000
_cell_angle_gamma 90.000000
_cell_volume 3351.767906
_symmetry_space_group_name_H-M "P B A M"
_symmetry_group_IT_number 55
_symmetry_cell_setting 'orthorhombic'
loop_
_space_group_symop_operation_xyz
x,y,z
-x,-y,z
1/2+x,1/2-y,-z
1/2-x,1/2+y,-z
-x,-y,-z
x,y,-z
1/2-x,1/2+y,z
1/2+x,1/2-y,z
loop_
_atom_site_type_symbol
_atom_site_label
_atom_site_fract_x
_atom_site_fract_y
_atom_site_fract_z
Si Si1 0.371704 0.733139 0.813487
Si Si2 0.709524 0.521511 0.687827
Si Si3 0.056010 0.945772 0.689952
Si Si4 0.155479 0.737124 0.186620
Si Si5 0.732497 0.161983 0.686635
Si Si6 0.979368 0.206818 0.313373
Si Si7 0.759224 0.875863 0.187164
O O1 0.331032 0.799728 0.761939
O O2 0.445523 0.726785 0.739467
O O3 0.323722 0.670213 0.764166
O O4 0.376875 0.731892 0.000000
O O5 0.708167 0.521628 0.500000
O O6 0.631793 0.534272 0.741543
O O7 0.755152 0.585151 0.737074
O O8 0.735799 0.449806 0.744118
O O9 0.056111 0.946329 0.500000
O O10 0.036480 0.870146 0.737830
O O11 0.000000 0.000000 0.741893
O O12 0.200691 0.795824 0.264312
O O13 0.078693 0.746006 0.241355
O O14 0.192398 0.667185 0.230684
O O15 0.160399 0.743998 0.000000
O O16 0.726143 0.164229 0.500000
O O17 0.974548 0.209110 0.500000
O O18 0.760859 0.880413 0.000000
#
# Coordination Sequence:
#
# PCOD9425612 Si02
#       7
#     8   8   8   8   8   8   8
#     4  10  21  36  52  76 108 140 177 219 265 316
#     4  10  19  32  51  77 106 137 174 218 261 308
#     4   9  17  29  46  73 109 140 167 204 255 311
#     4  10  20  35  53  75 106 141 177 220 264 312
#     4  10  19  34  54  77 103 136 181 222 261 313
#     4  11  20  33  54  78 105 140 179 218 263 314
#     4   9  20  35  51  74 105 140 177 213 258 316
#
# _framework density 16.707601
#
# number of rings (size 3 to 8) (size 9 to 14) (size 15 to 20)
#    0.000    2.143    1.429    3.429    0.000    5.714 
#    0.000    0.000    0.000    3.857    0.000    6.000 
#    0.000    0.000    0.000    0.000    0.000    0.000 
#
# Total GULP energy -312515.779919 kJ/mol
# GULP energy per Si atom -5580.638927 kJ/mol
# Density = 1.666957 g / cm^3
# Si number density = 16.707601 Si / 1000 Ang^3
#
#
#
# Elastic Constant Matrix: (Units=GPa)
#
#
# Indices 1 2 3 4 5 6 
#
# 1 81.3787 66.9758 4.0848 0.0000 0.0000 0.0000
# 2 66.9758 132.3539 11.3275 0.0000 0.0000 0.0000
# 3 4.0848 11.3275 13.7975 0.0000 0.0000 0.0000
# 4 0.0000 0.0000 0.0000 0.7139 0.0000 0.0000
# 5 0.0000 0.0000 0.0000 0.0000 26.4555 0.0000
# 6 0.0000 0.0000 0.0000 0.0000 0.0000 20.1343
#
#
#
# Elastic Compliance Matrix: (Units=1/GPa)
#
#
# Indices 1 2 3 4 5 6 
#
# 1 0.021153 -0.010937 0.002716 0.000000 0.000000 0.000000
# 2 -0.010937 0.013781 -0.008076 0.000000 0.000000 0.000000
# 3 0.002716 -0.008076 0.078303 0.000000 0.000000 0.000000
# 4 0.000000 0.000000 0.000000 1.400737 0.000000 0.000000
# 5 0.000000 0.000000 0.000000 0.000000 0.037799 0.000000
# 6 0.000000 0.000000 0.000000 0.000000 0.000000 0.049666
#
#
# Mechanical properties :
#
#
# Convention : Reuss Voigt Hill
#
# Bulk Modulus (GPa) = 12.40017 43.58959 27.99488
# Shear Modulus (GPa) = 3.01039 19.13687 11.07363
#
# Velocity S-wave (km/s) = 1.34377 3.38805 2.57726
# Velocity P-wave (km/s) = 3.13777 6.43828 5.06444
#
# Compressibility (1/GPa) = 0.08064407
#
# Stress axis : x y z
#
# Youngs Moduli (GPa) = 47.27496 72.56369 12.77091
#
# Poissons Ratio (x) = 0.79360 -0.03469
# Poissons Ratio (y) = 0.51703 0.10314
# Poissons Ratio (z) = -0.12841 0.58603
#
# Static dielectric constant tensor:
#      x y z
#    x 1.547320 0.000000 0.000000 
#    y 0.000000 1.553180 0.000000 
#    z 0.000000 0.000000 1.568480 
# 
# From -- ./inp_files/7827.got.cif
#   From: 2010.05.17/outbox.cif.g08.bks.cpg/sg55_4_cif.got.tgz:7827.got - 2010.06.03 13:27:54.
