data_PCOD9425739
_publ_section_title
;
Structure prediction by ZEFSAII (Michael W. Deem and Ramdas Pophale) SiO2 
 PCOD9425739
Probable space group: P B A M
;
_chemical_formula_sum "Si O2"
_cell_formula_units_Z 64
_cell_length_a 15.545727
_cell_length_b 25.571406
_cell_length_c 8.434112
_cell_angle_alpha 90.000000
_cell_angle_beta 90.000000
_cell_angle_gamma 90.000000
_cell_volume 3352.779622
_symmetry_space_group_name_H-M "P B A M"
_symmetry_group_IT_number 55
_symmetry_cell_setting 'orthorhombic'
loop_
_space_group_symop_operation_xyz
x,y,z
-x,-y,z
1/2+x,1/2-y,-z
1/2-x,1/2+y,-z
-x,-y,-z
x,y,-z
1/2-x,1/2+y,z
1/2+x,1/2-y,z
loop_
_atom_site_type_symbol
_atom_site_label
_atom_site_fract_x
_atom_site_fract_y
_atom_site_fract_z
Si Si1 0.170495 0.143365 0.813563
Si Si2 0.813685 0.435168 0.307859
Si Si3 0.503171 0.886568 0.691582
Si Si4 0.203560 0.855245 0.692825
Si Si5 0.831823 0.554590 0.693641
Si Si6 0.775661 0.262382 0.688997
Si Si7 0.509128 0.661107 0.312180
Si Si8 0.465179 0.224929 0.813809
O O1 0.234084 0.097967 0.755798
O O2 0.201819 0.197037 0.731368
O O3 0.071667 0.133907 0.768811
O O4 0.179256 0.150040 0.000000
O O5 0.810871 0.433679 0.500000
O O6 0.813440 0.495511 0.255781
O O7 0.904040 0.408820 0.258983
O O8 0.502941 0.883570 0.500000
O O9 0.425981 0.924742 0.740313
O O10 0.491027 0.828369 0.757285
O O11 0.203180 0.856785 0.500000
O O12 0.261520 0.903154 0.748322
O O13 0.240199 0.797918 0.735857
O O14 0.103872 0.856729 0.744071
O O15 0.830644 0.554289 0.500000
O O16 0.791282 0.263767 0.500000
O O17 0.863661 0.280077 0.773533
O O18 0.504163 0.652937 0.500000
O O19 0.504745 0.723088 0.276193
O O20 0.477414 0.232706 0.000000
#
# Coordination Sequence:
#
# PCOD9425739 Si02
#       8
#     8   8   8   8   8   8   8   8
#     4  12  24  37  56  84 117 152 193 242 296 348
#     4  10  20  36  58  84 117 154 196 238 287 349
#     4  10  19  32  55  85 118 156 194 234 283 345
#     4   8  17  34  57  85 112 141 187 245 293 334
#     4   9  18  34  58  87 113 146 196 249 290 339
#     4  10  19  34  56  82 113 152 194 233 286 349
#     4  10  21  38  59  81 112 152 195 243 293 353
#     4  11  21  34  53  83 121 155 187 231 287 343
#
# _framework density 19.088640000000002
#
# number of rings (size 3 to 8) (size 9 to 14) (size 15 to 20)
#    0.000    2.000    1.250    4.125    1.750    1.500 
#    0.000    1.250    0.000   10.500    0.000    0.000 
#    0.000    0.000    0.000    0.000    0.000    0.000 
#
# Total GULP energy -357434.317164 kJ/mol
# GULP energy per Si atom -5584.911206 kJ/mol
# Density = 1.904519 g / cm^3
# Si number density = 19.088640 Si / 1000 Ang^3
#
#
#
# Elastic Constant Matrix: (Units=GPa)
#
#
# Indices 1 2 3 4 5 6 
#
# 1 57.1547 66.3136 5.4695 0.0000 0.0000 0.0000
# 2 66.3136 102.0585 4.8376 0.0000 0.0000 0.0000
# 3 5.4695 4.8376 16.6537 0.0000 0.0000 0.0000
# 4 0.0000 0.0000 0.0000 -12.5967 0.0000 0.0000
# 5 0.0000 0.0000 0.0000 0.0000 3.0519 0.0000
# 6 0.0000 0.0000 0.0000 0.0000 0.0000 25.6691
#
#
#
# Elastic Compliance Matrix: (Units=1/GPa)
#
#
# Indices 1 2 3 4 5 6 
#
# 1 0.072794 -0.046810 -0.010310 0.000000 0.000000 0.000000
# 2 -0.046810 0.040036 0.003744 0.000000 0.000000 0.000000
# 3 -0.010310 0.003744 0.062345 0.000000 0.000000 0.000000
# 4 0.000000 0.000000 0.000000 -0.079386 0.000000 0.000000
# 5 0.000000 0.000000 0.000000 0.000000 0.327661 0.000000
# 6 0.000000 0.000000 0.000000 0.000000 0.000000 0.038957
#
#
# Mechanical properties :
#
#
# Convention : Reuss Voigt Hill
#
# Bulk Modulus (GPa) = 14.61494 36.56759 25.59126
# Shear Modulus (GPa) = 8.44639 9.84129 9.14384
#
# Velocity S-wave (km/s) = 2.10581 2.27305 2.19103
# Velocity P-wave (km/s) = 3.68586 5.10758 4.45381
#
# Compressibility (1/GPa) = 0.06842314
#
# Stress axis : x y z
#
# Youngs Moduli (GPa) = 13.73733 24.97735 16.03976
#
# Poissons Ratio (x) = 1.16920 0.16537
# Poissons Ratio (y) = 0.64305 -0.06005
# Poissons Ratio (z) = 0.14163 -0.09351
#
# Static dielectric constant tensor:
#      x y z
#    x 1.666010 0.000000 0.000000 
#    y 0.000000 1.648170 0.000000 
#    z 0.000000 0.000000 1.643220 
# 
# From -- ./inp_files/6489.got.cif
#   From: 2010.05.17/outbox.cif.g08.bks.cpg/sg55_4_cif.got.tgz:6489.got - 2010.06.03 13:27:54.
