data_PCOD9425269
_publ_section_title
;
Structure prediction by ZEFSAII (Michael W. Deem and Ramdas Pophale) SiO2 
 PCOD9425269
Probable space group: P B A M
;
_chemical_formula_sum "Si O2"
_cell_formula_units_Z 64
_cell_length_a 21.192178
_cell_length_b 9.065179
_cell_length_c 17.816770
_cell_angle_alpha 90.000000
_cell_angle_beta 90.000000
_cell_angle_gamma 90.000000
_cell_volume 3422.795488
_symmetry_space_group_name_H-M "P B A M"
_symmetry_group_IT_number 55
_symmetry_cell_setting 'orthorhombic'
loop_
_space_group_symop_operation_xyz
x,y,z
-x,-y,z
1/2+x,1/2-y,-z
1/2-x,1/2+y,-z
-x,-y,-z
x,y,-z
1/2-x,1/2+y,z
1/2+x,1/2-y,z
loop_
_atom_site_type_symbol
_atom_site_label
_atom_site_fract_x
_atom_site_fract_y
_atom_site_fract_z
Si Si1 0.077410 0.803034 0.186836
Si Si2 0.175065 0.929218 0.585224
Si Si3 0.312589 0.077407 0.415055
Si Si4 0.148178 0.540089 0.742833
Si Si5 0.536623 0.143424 0.756834
Si Si6 0.190659 0.849355 0.912527
Si Si7 0.274210 0.622378 0.179297
Si Si8 0.606000 0.415292 0.719665
O O1 0.119166 0.701798 0.243099
O O2 0.119591 0.806236 0.112243
O O3 0.010517 0.720498 0.184140
O O4 0.075606 0.964243 0.223937
O O5 0.151377 0.947280 0.500000
O O6 0.241950 0.013586 0.590178
O O7 0.128882 0.999949 0.645969
O O8 0.187099 0.754454 0.596762
O O9 0.335489 0.047265 0.500000
O O10 0.350852 0.008414 0.345821
O O11 0.101199 0.430080 0.785730
O O12 0.218623 0.541806 0.773919
O O13 0.558850 0.279479 0.705618
O O14 0.500000 0.000000 0.724023
O O15 0.239603 0.756928 0.861589
O O16 0.200492 0.016344 0.885969
O O17 0.201338 0.827035 0.000000
O O18 0.331397 0.645383 0.237295
#
# Coordination Sequence:
#
# PCOD9425269 Si02
#       8
#     8   8   8   8   8   8   8   8
#     4   9  20  36  55  78 103 149 197 231 280 328
#     4  10  21  33  52  84 121 154 183 228 291 346
#     4  10  20  33  51  81 123 151 178 226 288 348
#     4  10  18  34  56  81 117 142 183 241 283 338
#     4  10  22  36  56  81 106 145 195 240 275 319
#     4  10  20  35  55  81 119 151 179 233 290 351
#     4  10  20  31  56  90 114 143 184 224 294 351
#     4  11  19  34  60  80 115 147 191 243 278 335
#
# _framework density 18.698166000000001
#
# number of rings (size 3 to 8) (size 9 to 14) (size 15 to 20)
#    0.000    2.000    2.500    1.500    1.750    0.000 
#    0.000    0.000    0.000   27.375    0.000    0.000 
#    0.000    0.000    0.000    0.000    0.000    0.000 
#
# Total GULP energy -356488.091991 kJ/mol
# GULP energy per Si atom -5570.126437 kJ/mol
# Density = 1.865561 g / cm^3
# Si number density = 18.698166 Si / 1000 Ang^3
#
#
#
# Elastic Constant Matrix: (Units=GPa)
#
#
# Indices 1 2 3 4 5 6 
#
# 1 73.0748 35.5457 13.3466 0.0000 0.0000 0.0000
# 2 35.5457 74.5633 15.3396 0.0000 0.0000 0.0000
# 3 13.3466 15.3396 69.9351 0.0000 0.0000 0.0000
# 4 0.0000 0.0000 0.0000 17.5157 0.0000 0.0000
# 5 0.0000 0.0000 0.0000 0.0000 13.5171 0.0000
# 6 0.0000 0.0000 0.0000 0.0000 0.0000 30.5670
#
#
#
# Elastic Compliance Matrix: (Units=1/GPa)
#
#
# Indices 1 2 3 4 5 6 
#
# 1 0.017991 -0.008242 -0.001626 0.000000 0.000000 0.000000
# 2 -0.008242 0.017821 -0.002336 0.000000 0.000000 0.000000
# 3 -0.001626 -0.002336 0.015122 0.000000 0.000000 0.000000
# 4 0.000000 0.000000 0.000000 0.057091 0.000000 0.000000
# 5 0.000000 0.000000 0.000000 0.000000 0.073980 0.000000
# 6 0.000000 0.000000 0.000000 0.000000 0.000000 0.032715
#
#
# Mechanical properties :
#
#
# Convention : Reuss Voigt Hill
#
# Bulk Modulus (GPa) = 37.69857 38.44854 38.07356
# Shear Modulus (GPa) = 20.16376 22.54272 21.35324
#
# Velocity S-wave (km/s) = 3.28744 3.47596 3.38301
# Velocity P-wave (km/s) = 5.88346 6.05946 5.97211
#
# Compressibility (1/GPa) = 0.02652621
#
# Stress axis : x y z
#
# Youngs Moduli (GPa) = 55.58425 56.11306 66.13069
#
# Poissons Ratio (x) = 0.46249 0.10750
# Poissons Ratio (y) = 0.45813 0.15448
# Poissons Ratio (z) = 0.09036 0.13108
#
# Static dielectric constant tensor:
#      x y z
#    x 1.665970 0.000000 0.000000 
#    y 0.000000 1.691470 0.000000 
#    z 0.000000 0.000000 1.618700 
# 
# From -- ./inp_files/21961.got.cif
#   From: 2010.05.17/outbox.cif.g08.bks.cpg/sg55_11_cif.got.tgz:21961.got - 2010.06.03 13:27:54.
