data_PCOD9425232
_publ_section_title
;
Structure prediction by ZEFSAII (Michael W. Deem and Ramdas Pophale) SiO2 
 PCOD9425232
Probable space group: P B A M
;
_chemical_formula_sum "Si O2"
_cell_formula_units_Z 48
_cell_length_a 22.363177
_cell_length_b 12.570717
_cell_length_c 7.568910
_cell_angle_alpha 90.000000
_cell_angle_beta 90.000000
_cell_angle_gamma 90.000000
_cell_volume 2127.780829
_symmetry_space_group_name_H-M "P B A M"
_symmetry_group_IT_number 55
_symmetry_cell_setting 'orthorhombic'
loop_
_space_group_symop_operation_xyz
x,y,z
-x,-y,z
1/2+x,1/2-y,-z
1/2-x,1/2+y,-z
-x,-y,-z
x,y,-z
1/2-x,1/2+y,z
1/2+x,1/2-y,z
loop_
_atom_site_type_symbol
_atom_site_label
_atom_site_fract_x
_atom_site_fract_y
_atom_site_fract_z
Si Si1 0.700237 0.563596 0.206797
Si Si2 0.566280 0.973063 0.291083
Si Si3 0.634119 0.354631 0.215742
Si Si4 0.827276 0.628738 0.785994
Si Si5 0.384263 0.246917 0.299366
Si Si6 0.999177 0.874636 0.787231
O O1 0.660924 0.466313 0.280198
O O2 0.766820 0.573867 0.281458
O O3 0.665029 0.675049 0.217698
O O4 0.707489 0.539089 0.000000
O O5 0.557872 0.951198 0.500000
O O6 0.598505 0.866978 0.216724
O O7 0.500000 0.000000 0.219362
O O8 0.612535 0.069128 0.269459
O O9 0.671763 0.252028 0.267969
O O10 0.565819 0.335957 0.271064
O O11 0.631732 0.359486 0.000000
O O12 0.826382 0.627165 0.000000
O O13 0.364215 0.228716 0.500000
O O14 0.445961 0.312963 0.295788
O O15 0.005312 0.862472 0.000000
O O16 0.000000 0.000000 0.749613
#
# Coordination Sequence:
#
# PCOD9425232 Si02
#       6
#     8   8   8   8   8   8
#     4  10  21  38  59  85 119 155 189 238 300 347
#     4  10  23  43  62  83 120 161 195 240 299 353
#     4   9  18  35  56  84 116 144 185 237 290 345
#     4  10  22  37  62  90 112 148 198 245 285 345
#     4  11  23  37  57  86 119 154 197 241 286 348
#     4  10  18  33  57  82 113 152 187 232 294 343
#
# _framework density 22.558713999999998
#
# number of rings (size 3 to 8) (size 9 to 14) (size 15 to 20)
#    0.000    2.000    1.667    1.500    2.333    2.667 
#    0.000    0.833    0.000    0.000    0.000    0.000 
#    0.000    0.000    0.000    0.000    0.000    0.000 
#
# Total GULP energy -268145.220358 kJ/mol
# GULP energy per Si atom -5586.358757 kJ/mol
# Density = 2.250737 g / cm^3
# Si number density = 22.558714 Si / 1000 Ang^3
#
#
#
# Elastic Constant Matrix: (Units=GPa)
#
#
# Indices 1 2 3 4 5 6 
#
# 1 132.0268 27.7422 -8.2541 0.0000 0.0000 0.0000
# 2 27.7422 98.9445 -4.5044 0.0000 0.0000 0.0000
# 3 -8.2541 -4.5044 43.2196 0.0000 0.0000 0.0000
# 4 0.0000 0.0000 0.0000 6.9761 0.0000 0.0000
# 5 0.0000 0.0000 0.0000 0.0000 -3.9317 0.0000
# 6 0.0000 0.0000 0.0000 0.0000 0.0000 23.5281
#
#
#
# Elastic Compliance Matrix: (Units=1/GPa)
#
#
# Indices 1 2 3 4 5 6 
#
# 1 0.008123 -0.002217 0.001320 0.000000 0.000000 0.000000
# 2 -0.002217 0.010760 0.000698 0.000000 0.000000 0.000000
# 3 0.001320 0.000698 0.023463 0.000000 0.000000 0.000000
# 4 0.000000 0.000000 0.000000 0.143346 0.000000 0.000000
# 5 0.000000 0.000000 0.000000 0.000000 -0.254342 0.000000
# 6 0.000000 0.000000 0.000000 0.000000 0.000000 0.042502
#
#
# Mechanical properties :
#
#
# Convention : Reuss Voigt Hill
#
# Bulk Modulus (GPa) = 23.83964 33.79537 28.81751
# Shear Modulus (GPa) = -424.91842 22.59498 -201.16172
#
# Velocity S-wave (km/s) = -13.73936 3.16825 -9.45336
# Velocity P-wave (km/s) = 15.52748 5.32892 10.31274
#
# Compressibility (1/GPa) = 0.04194694
#
# Stress axis : x y z
#
# Youngs Moduli (GPa) = 123.11217 92.93554 42.62116
#
# Poissons Ratio (x) = 0.20607 -0.05627
# Poissons Ratio (y) = 0.27298 -0.02975
# Poissons Ratio (z) = -0.16253 -0.06486
#
# Static dielectric constant tensor:
#      x y z
#    x 1.805970 0.000000 0.000000 
#    y 0.000000 1.824750 0.000000 
#    z 0.000000 0.000000 1.874770 
# 
# From -- ./inp_files/4070.got.cif
#   From: 2010.05.17/outbox.cif.g08.bks.cpg/sg55_3_cif.got.tgz:4070.got - 2010.06.03 13:27:54.
