data_PCOD9425414
_publ_section_title
;
Structure prediction by ZEFSAII (Michael W. Deem and Ramdas Pophale) SiO2 
 PCOD9425414
Probable space group: P B A M
;
_chemical_formula_sum "Si O2"
_cell_formula_units_Z 64
_cell_length_a 23.897384
_cell_length_b 19.744398
_cell_length_c 8.705343
_cell_angle_alpha 90.000000
_cell_angle_beta 90.000000
_cell_angle_gamma 90.000000
_cell_volume 4107.524348
_symmetry_space_group_name_H-M "P B A M"
_symmetry_group_IT_number 55
_symmetry_cell_setting 'orthorhombic'
loop_
_space_group_symop_operation_xyz
x,y,z
-x,-y,z
1/2+x,1/2-y,-z
1/2-x,1/2+y,-z
-x,-y,-z
x,y,-z
1/2-x,1/2+y,z
1/2+x,1/2-y,z
loop_
_atom_site_type_symbol
_atom_site_label
_atom_site_fract_x
_atom_site_fract_y
_atom_site_fract_z
Si Si1 0.563904 0.865929 0.185791
Si Si2 0.338696 0.774946 0.315816
Si Si3 0.619229 0.001920 0.315760
Si Si4 0.435044 0.861386 0.184294
Si Si5 0.268287 0.353141 0.816099
Si Si6 0.334407 0.223521 0.184892
Si Si7 0.751111 0.004005 0.315094
Si Si8 0.271845 0.645200 0.685182
O O1 0.588676 0.935415 0.252421
O O2 0.499732 0.855629 0.232536
O O3 0.605598 0.805325 0.233256
O O4 0.565029 0.870690 0.000000
O O5 0.340988 0.779486 0.500000
O O6 0.396266 0.801045 0.245671
O O7 0.288970 0.823935 0.256766
O O8 0.319678 0.699026 0.270908
O O9 0.615477 0.003122 0.500000
O O10 0.590615 0.068879 0.248505
O O11 0.685046 0.000901 0.274216
O O12 0.432529 0.862959 0.000000
O O13 0.316653 0.299640 0.770672
O O14 0.276771 0.429089 0.758864
O O15 0.262550 0.352244 0.000000
O O16 0.286170 0.174732 0.250195
O O17 0.331971 0.220310 0.000000
O O18 0.754546 0.009719 0.500000
O O19 0.778241 0.932620 0.266802
O O20 0.267842 0.645956 0.500000
#
# Coordination Sequence:
#
# PCOD9425414 Si02
#       8
#     8   8   8   8   8   8   8   8
#     4  10  21  35  49  66  93 129 163 197 233 270
#     4  10  19  32  49  68  91 121 155 196 235 272
#     4  11  21  32  47  68  96 129 163 196 226 267
#     4  11  22  34  48  66  93 129 164 195 231 274
#     4  10  19  30  48  71  94 121 152 190 233 280
#     4   9  18  32  48  68  92 119 155 194 232 272
#     4  10  19  31  47  70  98 127 154 186 231 280
#     4   9  18  32  49  68  92 120 153 190 234 279
#
# _framework density 15.581162000000001
#
# number of rings (size 3 to 8) (size 9 to 14) (size 15 to 20)
#    0.000    2.000    2.500    1.875    0.000    4.500 
#    0.000    0.000    0.000    0.000    0.000    0.875 
#    0.000    7.000    0.000    0.000    0.000    0.000 
#
# Total GULP energy -357040.060068 kJ/mol
# GULP energy per Si atom -5578.750939 kJ/mol
# Density = 1.554570 g / cm^3
# Si number density = 15.581162 Si / 1000 Ang^3
#
#
#
# Elastic Constant Matrix: (Units=GPa)
#
#
# Indices 1 2 3 4 5 6 
#
# 1 88.1113 66.1530 24.7204 0.0000 0.0000 0.0000
# 2 66.1530 147.4417 28.2272 0.0000 0.0000 0.0000
# 3 24.7204 28.2272 17.8732 0.0000 0.0000 0.0000
# 4 0.0000 0.0000 0.0000 22.8546 0.0000 0.0000
# 5 0.0000 0.0000 0.0000 0.0000 13.4742 0.0000
# 6 0.0000 0.0000 0.0000 0.0000 0.0000 19.9375
#
#
#
# Elastic Compliance Matrix: (Units=1/GPa)
#
#
# Indices 1 2 3 4 5 6 
#
# 1 0.021379 -0.005635 -0.020670 0.000000 0.000000 0.000000
# 2 -0.005635 0.011207 -0.009905 0.000000 0.000000 0.000000
# 3 -0.020670 -0.009905 0.100182 0.000000 0.000000 0.000000
# 4 0.000000 0.000000 0.000000 0.043755 0.000000 0.000000
# 5 0.000000 0.000000 0.000000 0.000000 0.074216 0.000000
# 6 0.000000 0.000000 0.000000 0.000000 0.000000 0.050157
#
#
# Mechanical properties :
#
#
# Convention : Reuss Voigt Hill
#
# Bulk Modulus (GPa) = 16.57081 54.62527 35.59804
# Shear Modulus (GPa) = 12.70866 20.20829 16.45848
#
# Velocity S-wave (km/s) = 2.85904 3.60525 3.25361
# Velocity P-wave (km/s) = 4.64296 7.24328 6.08367
#
# Compressibility (1/GPa) = 0.06034708
#
# Stress axis : x y z
#
# Youngs Moduli (GPa) = 46.77448 89.23016 9.98184
#
# Poissons Ratio (x) = 0.50281 0.20633
# Poissons Ratio (y) = 0.26358 0.09887
# Poissons Ratio (z) = 0.96683 0.88386
#
# Static dielectric constant tensor:
#      x y z
#    x 1.503980 0.000000 0.000000 
#    y 0.000000 1.527520 0.000000 
#    z 0.000000 0.000000 1.526960 
# 
# From -- ./inp_files/8163.got.cif
#   From: 2010.05.17/outbox.cif.g08.bks.cpg/sg55_5_cif.got.tgz:8163.got - 2010.06.03 13:27:54.
