data_PCOD9425336
_publ_section_title
;
Structure prediction by ZEFSAII (Michael W. Deem and Ramdas Pophale) SiO2 
 PCOD9425336
Probable space group: P B A M
;
_chemical_formula_sum "Si O2"
_cell_formula_units_Z 54
_cell_length_a 31.145290
_cell_length_b 5.553065
_cell_length_c 14.059646
_cell_angle_alpha 90.000000
_cell_angle_beta 90.000000
_cell_angle_gamma 90.000000
_cell_volume 2431.641362
_symmetry_space_group_name_H-M "P B A M"
_symmetry_group_IT_number 55
_symmetry_cell_setting 'orthorhombic'
loop_
_space_group_symop_operation_xyz
x,y,z
-x,-y,z
1/2+x,1/2-y,-z
1/2-x,1/2+y,-z
-x,-y,-z
x,y,-z
1/2-x,1/2+y,z
1/2+x,1/2-y,z
loop_
_atom_site_type_symbol
_atom_site_label
_atom_site_fract_x
_atom_site_fract_y
_atom_site_fract_z
Si Si1 0.000000 0.500000 0.317475
Si Si2 0.224540 0.546095 0.114680
Si Si3 0.576436 0.716234 0.672693
Si Si4 0.266696 0.275087 0.389128
Si Si5 0.150462 0.067863 0.396931
Si Si6 0.640524 0.083414 0.771546
Si Si7 0.500000 0.500000 0.000000
Si Si8 0.556184 0.330413 0.823048
O O1 0.034926 0.659415 0.372197
O O2 0.029605 0.337970 0.248900
O O3 0.248696 0.799501 0.137111
O O4 0.178603 0.530135 0.167299
O O5 0.218108 0.544355 0.000000
O O6 0.601851 0.523465 0.610575
O O7 0.561081 0.581997 0.767989
O O8 0.612459 0.900567 0.708683
O O9 0.252722 0.254294 0.500000
O O10 0.256162 0.013917 0.347469
O O11 0.316367 0.346635 0.390778
O O12 0.157013 0.187287 0.500000
O O13 0.158885 0.229879 0.305674
O O14 0.604068 0.220463 0.834137
O O15 0.470228 0.628327 0.082576
#
# Coordination Sequence:
#
# PCOD9425336 Si02
#       8
#     4   8   8   8   8   8   2   8
#     4  10  18  41  63  84 128 170 208 254 328 396
#     4  10  24  46  70  98 136 184 237 283 331 404
#     4  10  21  41  60  90 127 171 208 270 327 401
#     4   9  19  35  56  85 122 159 202 261 324 385
#     4  10  23  40  62  92 129 169 219 275 335 401
#     4  10  24  41  64  93 130 175 219 276 338 396
#     4  12  20  38  64 100 128 160 204 270 332 416
#     4  10  22  38  61  96 132 164 208 265 333 407
#
# _framework density 22.207222999999999
#
# number of rings (size 3 to 8) (size 9 to 14) (size 15 to 20)
#    0.000    2.074    1.481    0.000    7.259    2.074 
#    1.333    0.370    0.000   11.556    0.000    0.000 
#    0.000    0.000    0.000    0.000    0.000    0.000 
#
# Total GULP energy -301089.356485 kJ/mol
# GULP energy per Si atom -5575.728824 kJ/mol
# Density = 2.215668 g / cm^3
# Si number density = 22.207223 Si / 1000 Ang^3
#
#
#
# Elastic Constant Matrix: (Units=GPa)
#
#
# Indices 1 2 3 4 5 6 
#
# 1 108.5570 30.0314 19.4782 0.0000 0.0000 0.0000
# 2 30.0314 83.5800 13.5047 0.0000 0.0000 0.0000
# 3 19.4782 13.5047 70.2743 0.0000 0.0000 0.0000
# 4 0.0000 0.0000 0.0000 -5.5832 0.0000 0.0000
# 5 0.0000 0.0000 0.0000 0.0000 33.9604 0.0000
# 6 0.0000 0.0000 0.0000 0.0000 0.0000 49.5598
#
#
#
# Elastic Compliance Matrix: (Units=1/GPa)
#
#
# Indices 1 2 3 4 5 6 
#
# 1 0.010568 -0.003430 -0.002270 0.000000 0.000000 0.000000
# 2 -0.003430 0.013462 -0.001636 0.000000 0.000000 0.000000
# 3 -0.002270 -0.001636 0.015174 0.000000 0.000000 0.000000
# 4 0.000000 0.000000 0.000000 -0.179108 0.000000 0.000000
# 5 0.000000 0.000000 0.000000 0.000000 0.029446 0.000000
# 6 0.000000 0.000000 0.000000 0.000000 0.000000 0.020178
#
#
# Mechanical properties :
#
#
# Convention : Reuss Voigt Hill
#
# Bulk Modulus (GPa) = 40.76619 43.15998 41.96309
# Shear Modulus (GPa) = -74.14895 28.88053 -22.63421
#
# Velocity S-wave (km/s) = -5.78464 3.61016 -3.19600
# Velocity P-wave (km/s) = 5.12045 6.07083 2.30607
#
# Compressibility (1/GPa) = 0.02453013
#
# Stress axis : x y z
#
# Youngs Moduli (GPa) = 94.62479 74.28569 65.90427
#
# Poissons Ratio (x) = 0.25483 0.14960
# Poissons Ratio (y) = 0.32461 0.10782
# Poissons Ratio (z) = 0.21479 0.12154
#
# Static dielectric constant tensor:
#      x y z
#    x 1.892510 0.000000 0.000000 
#    y 0.000000 1.931850 0.000000 
#    z 0.000000 0.000000 1.783300 
# 
# From -- ./inp_files/20171.got.cif
#   From: 2010.05.17/outbox.cif.g08.bks.cpg/sg55_11_cif.got.tgz:20171.got - 2010.06.03 13:27:54.
