data_PCOD9425701
_publ_section_title
;
Structure prediction by ZEFSAII (Michael W. Deem and Ramdas Pophale) SiO2 
 PCOD9425701
Probable space group: P B A M
;
_chemical_formula_sum "Si O2"
_cell_formula_units_Z 56
_cell_length_a 20.372713
_cell_length_b 16.157427
_cell_length_c 8.559380
_cell_angle_alpha 90.000000
_cell_angle_beta 90.000000
_cell_angle_gamma 90.000000
_cell_volume 2817.496448
_symmetry_space_group_name_H-M "P B A M"
_symmetry_group_IT_number 55
_symmetry_cell_setting 'orthorhombic'
loop_
_space_group_symop_operation_xyz
x,y,z
-x,-y,z
1/2+x,1/2-y,-z
1/2-x,1/2+y,-z
-x,-y,-z
x,y,-z
1/2-x,1/2+y,z
1/2+x,1/2-y,z
loop_
_atom_site_type_symbol
_atom_site_label
_atom_site_fract_x
_atom_site_fract_y
_atom_site_fract_z
Si Si1 0.083098 0.801784 0.181788
Si Si2 0.783060 0.137266 0.809580
Si Si3 0.775165 0.459218 0.812904
Si Si4 0.380200 0.140249 0.328365
Si Si5 0.026290 0.416984 0.324819
Si Si6 0.298771 0.703798 0.313458
Si Si7 0.438304 0.750144 0.812987
O O1 0.140315 0.861368 0.245545
O O2 0.120914 0.714234 0.204850
O O3 0.008271 0.790373 0.242529
O O4 0.075130 0.820854 0.000000
O O5 0.741073 0.214612 0.744547
O O6 0.752264 0.048645 0.767030
O O7 0.782691 0.143751 0.000000
O O8 0.845365 0.441061 0.735102
O O9 0.733621 0.379989 0.754195
O O10 0.779550 0.456448 0.000000
O O11 0.353143 0.163508 0.500000
O O12 0.456510 0.126391 0.347345
O O13 0.053280 0.435939 0.500000
O O14 0.000000 0.500000 0.242768
O O15 0.066253 0.347352 0.235105
O O16 0.297948 0.702322 0.500000
O O17 0.373810 0.708419 0.255675
O O18 0.437949 0.745656 0.000000
#
# Coordination Sequence:
#
# PCOD9425701 Si02
#       7
#     8   8   8   8   8   8   8
#     4   9  18  37  62  85 113 153 199 245 295 351
#     4  10  22  40  64  91 119 156 201 252 303 358
#     4  11  23  39  60  87 120 155 198 249 301 358
#     4  10  19  32  53  81 115 154 192 234 290 349
#     4   9  19  34  51  78 117 157 194 239 294 356
#     4  12  25  41  62  89 123 161 199 249 306 362
#     4  10  21  37  59  85 114 155 201 249 304 360
#
# _framework density 19.875802
#
# number of rings (size 3 to 8) (size 9 to 14) (size 15 to 20)
#    0.000    1.857    1.429    2.571    2.000    2.571 
#    0.000    0.714    0.000    4.286    0.000    0.000 
#    0.000    0.000    0.000    0.000    0.000    0.000 
#
# Total GULP energy -311811.173957 kJ/mol
# GULP energy per Si atom -5568.056678 kJ/mol
# Density = 1.983056 g / cm^3
# Si number density = 19.875802 Si / 1000 Ang^3
#
#
#
# Elastic Constant Matrix: (Units=GPa)
#
#
# Indices 1 2 3 4 5 6 
#
# 1 83.8270 12.7109 17.2423 0.0000 0.0000 0.0000
# 2 12.7109 67.0416 7.6717 0.0000 0.0000 0.0000
# 3 17.2423 7.6717 41.9886 0.0000 0.0000 0.0000
# 4 0.0000 0.0000 0.0000 8.8910 0.0000 0.0000
# 5 0.0000 0.0000 0.0000 0.0000 -7.9407 0.0000
# 6 0.0000 0.0000 0.0000 0.0000 0.0000 18.2553
#
#
#
# Elastic Compliance Matrix: (Units=1/GPa)
#
#
# Indices 1 2 3 4 5 6 
#
# 1 0.013271 -0.001933 -0.005096 0.000000 0.000000 0.000000
# 2 -0.001933 0.015516 -0.002041 0.000000 0.000000 0.000000
# 3 -0.005096 -0.002041 0.026282 0.000000 0.000000 0.000000
# 4 0.000000 0.000000 0.000000 0.112473 0.000000 0.000000
# 5 0.000000 0.000000 0.000000 0.000000 -0.125933 0.000000
# 6 0.000000 0.000000 0.000000 0.000000 0.000000 0.054779
#
#
# Mechanical properties :
#
#
# Convention : Reuss Voigt Hill
#
# Bulk Modulus (GPa) = 27.07999 29.78967 28.43483
# Shear Modulus (GPa) = 39.42053 14.18993 26.80523
#
# Velocity S-wave (km/s) = 4.45831 2.67485 3.67636
# Velocity P-wave (km/s) = 6.33689 4.95582 5.68842
#
# Compressibility (1/GPa) = 0.03692764
#
# Stress axis : x y z
#
# Youngs Moduli (GPa) = 75.35405 64.44895 38.04925
#
# Poissons Ratio (x) = 0.12457 0.19391
# Poissons Ratio (y) = 0.14565 0.07767
# Poissons Ratio (z) = 0.38403 0.13155
#
# Static dielectric constant tensor:
#      x y z
#    x 1.760410 0.000000 0.000000 
#    y 0.000000 1.722720 0.000000 
#    z 0.000000 0.000000 1.726500 
# 
# From -- ./inp_files/5986.got.cif
#   From: 2010.05.17/outbox.cif.g08.bks.cpg/sg55_3_cif.got.tgz:5986.got - 2010.06.03 13:27:54.
