data_PCOD9425583
_publ_section_title
;
Structure prediction by ZEFSAII (Michael W. Deem and Ramdas Pophale) SiO2 
 PCOD9425583
Probable space group: P B A M
;
_chemical_formula_sum "Si O2"
_cell_formula_units_Z 64
_cell_length_a 17.601816
_cell_length_b 22.113412
_cell_length_c 9.176046
_cell_angle_alpha 90.000000
_cell_angle_beta 90.000000
_cell_angle_gamma 90.000000
_cell_volume 3571.649360
_symmetry_space_group_name_H-M "P B A M"
_symmetry_group_IT_number 55
_symmetry_cell_setting 'orthorhombic'
loop_
_space_group_symop_operation_xyz
x,y,z
-x,-y,z
1/2+x,1/2-y,-z
1/2-x,1/2+y,-z
-x,-y,-z
x,y,-z
1/2-x,1/2+y,z
1/2+x,1/2-y,z
loop_
_atom_site_type_symbol
_atom_site_label
_atom_site_fract_x
_atom_site_fract_y
_atom_site_fract_z
Si Si1 0.899277 0.876540 0.674827
Si Si2 0.754561 0.843183 0.826368
Si Si3 0.389163 0.237793 0.172808
Si Si4 0.512202 0.858073 0.334136
Si Si5 0.908866 0.011910 0.334359
Si Si6 0.161399 0.555883 0.666367
Si Si7 0.924710 0.543268 0.168244
Si Si8 0.937881 0.129121 0.172631
O O1 0.903559 0.871299 0.500000
O O2 0.834062 0.835588 0.744229
O O3 0.981223 0.865529 0.745761
O O4 0.877410 0.946624 0.709401
O O5 0.692235 0.791719 0.791752
O O6 0.716696 0.904849 0.766590
O O7 0.765330 0.845745 0.000000
O O8 0.454336 0.201761 0.259412
O O9 0.393146 0.308942 0.200730
O O10 0.401830 0.227504 0.000000
O O11 0.487483 0.847083 0.500000
O O12 0.584109 0.904121 0.339567
O O13 0.449537 0.893743 0.240937
O O14 0.885709 0.025873 0.500000
O O15 0.896664 0.069220 0.232402
O O16 0.000000 0.000000 0.335900
O O17 0.189507 0.549777 0.500000
O O18 0.137822 0.492594 0.738337
O O19 0.000000 0.500000 0.169088
O O20 0.902224 0.550499 0.000000
O O21 0.950894 0.123087 0.000000
#
# Coordination Sequence:
#
# PCOD9425583 Si02
#       8
#     8   8   8   8   8   8   8   8
#     4  10  20  34  52  76 105 133 164 207 256 303
#     4  10  19  32  50  72 100 134 170 208 255 308
#     4   9  19  33  48  71 103 135 168 209 254 300
#     4   9  16  25  40  62  87 119 159 200 240 285
#     4   8  16  31  50  74 103 129 154 194 248 297
#     4   9  16  26  40  61  89 119 156 201 245 290
#     4   9  15  23  37  57  83 116 153 196 245 290
#     4  10  19  32  53  79 104 132 167 206 249 301
#
# _framework density 17.918893000000001
#
# number of rings (size 3 to 8) (size 9 to 14) (size 15 to 20)
#    0.000    2.750    0.000    3.000    0.000    8.750 
#    0.000    0.000    0.000    1.500    0.000    1.750 
#    0.000    0.000    0.000    0.000    0.000    0.000 
#
# Total GULP energy -356691.764239 kJ/mol
# GULP energy per Si atom -5573.308816 kJ/mol
# Density = 1.787811 g / cm^3
# Si number density = 17.918893 Si / 1000 Ang^3
#
#
#
# Elastic Constant Matrix: (Units=GPa)
#
#
# Indices 1 2 3 4 5 6 
#
# 1 43.2451 24.0472 26.4823 0.0000 0.0000 0.0000
# 2 24.0472 77.8138 50.6706 0.0000 0.0000 0.0000
# 3 26.4823 50.6706 87.3588 0.0000 0.0000 0.0000
# 4 0.0000 0.0000 0.0000 19.9037 0.0000 0.0000
# 5 0.0000 0.0000 0.0000 0.0000 13.0841 0.0000
# 6 0.0000 0.0000 0.0000 0.0000 0.0000 13.6170
#
#
#
# Elastic Compliance Matrix: (Units=1/GPa)
#
#
# Indices 1 2 3 4 5 6 
#
# 1 0.029710 -0.005330 -0.005915 0.000000 0.000000 0.000000
# 2 -0.005330 0.021607 -0.010917 0.000000 0.000000 0.000000
# 3 -0.005915 -0.010917 0.019572 0.000000 0.000000 0.000000
# 4 0.000000 0.000000 0.000000 0.050242 0.000000 0.000000
# 5 0.000000 0.000000 0.000000 0.000000 0.076429 0.000000
# 6 0.000000 0.000000 0.000000 0.000000 0.000000 0.073438
#
#
# Mechanical properties :
#
#
# Convention : Reuss Voigt Hill
#
# Bulk Modulus (GPa) = 37.64231 45.64642 41.64437
# Shear Modulus (GPa) = 15.42368 16.46880 15.94624
#
# Velocity S-wave (km/s) = 2.93704 3.03491 2.98638
# Velocity P-wave (km/s) = 5.70563 6.14899 5.93146
#
# Compressibility (1/GPa) = 0.02656585
#
# Stress axis : x y z
#
# Youngs Moduli (GPa) = 33.65890 46.28070 51.09226
#
# Poissons Ratio (x) = 0.24666 0.30221
# Poissons Ratio (y) = 0.17939 0.55778
# Poissons Ratio (z) = 0.19909 0.50526
#
# Static dielectric constant tensor:
#      x y z
#    x 1.626480 0.000000 0.000000 
#    y 0.000000 1.611500 0.000000 
#    z 0.000000 0.000000 1.604990 
# 
# From -- ./inp_files/8091.got.cif
#   From: 2010.05.17/outbox.cif.g08.bks.cpg/sg55_5_cif.got.tgz:8091.got - 2010.06.03 13:27:54.
