data_PCOD9425176
_publ_section_title
;
Structure prediction by ZEFSAII (Michael W. Deem and Ramdas Pophale) SiO2 
 PCOD9425176
Probable space group: P B A M
;
_chemical_formula_sum "Si O2"
_cell_formula_units_Z 64
_cell_length_a 17.501435
_cell_length_b 20.872748
_cell_length_c 7.932271
_cell_angle_alpha 90.000000
_cell_angle_beta 90.000000
_cell_angle_gamma 90.000000
_cell_volume 2897.682729
_symmetry_space_group_name_H-M "P B A M"
_symmetry_group_IT_number 55
_symmetry_cell_setting 'orthorhombic'
loop_
_space_group_symop_operation_xyz
x,y,z
-x,-y,z
1/2+x,1/2-y,-z
1/2-x,1/2+y,-z
-x,-y,-z
x,y,-z
1/2-x,1/2+y,z
1/2+x,1/2-y,z
loop_
_atom_site_type_symbol
_atom_site_label
_atom_site_fract_x
_atom_site_fract_y
_atom_site_fract_z
Si Si1 0.436533 0.162761 0.298669
Si Si2 0.902362 0.192680 0.197773
Si Si3 0.841870 0.988204 0.196749
Si Si4 0.764341 0.116319 0.303544
Si Si5 0.843724 0.781418 0.802325
Si Si6 0.967423 0.895696 0.801343
Si Si7 0.603319 0.144400 0.304488
Si Si8 0.275158 0.119279 0.300213
O O1 0.438138 0.153053 0.500000
O O2 0.423807 0.238660 0.272060
O O3 0.518510 0.140522 0.228162
O O4 0.361398 0.126156 0.235096
O O5 0.815129 0.171560 0.220197
O O6 0.954810 0.134440 0.269104
O O7 0.919933 0.197399 0.000000
O O8 0.920102 0.956479 0.266538
O O9 0.776853 0.933677 0.211152
O O10 0.809630 0.050462 0.284919
O O11 0.853743 0.003991 0.000000
O O12 0.757538 0.132947 0.500000
O O13 0.678428 0.109850 0.231879
O O14 0.908217 0.836413 0.790168
O O15 0.872771 0.718926 0.707773
O O16 0.767642 0.813231 0.728738
O O17 0.833400 0.766532 0.000000
O O18 0.979901 0.910075 0.000000
O O19 0.596567 0.124429 0.500000
O O20 0.275399 0.105147 0.500000
#
# Coordination Sequence:
#
# PCOD9425176 Si02
#       8
#     8   8   8   8   8   8   8   8
#     4  10  21  37  57  85 116 147 185 230 281 337
#     4  11  21  36  58  86 118 149 183 228 285 339
#     4  10  21  40  61  81 109 147 195 238 278 331
#     4  11  24  40  56  80 113 151 193 235 282 335
#     4  10  18  32  54  82 113 145 183 224 277 337
#     4   8  17  33  54  81 111 144 178 222 273 326
#     4  10  21  37  56  78 111 151 188 231 281 335
#     4  10  20  35  57  83 111 144 184 231 281 333
#
# _framework density 22.086613
#
# number of rings (size 3 to 8) (size 9 to 14) (size 15 to 20)
#    0.000    2.000    1.250    3.375    0.000    5.500 
#    0.000    5.000    0.000    3.750    0.000    0.000 
#    0.000    0.000    0.000    0.000    0.000    0.000 
#
# Total GULP energy -357388.171984 kJ/mol
# GULP energy per Si atom -5584.190187 kJ/mol
# Density = 2.203634 g / cm^3
# Si number density = 22.086613 Si / 1000 Ang^3
#
#
#
# Elastic Constant Matrix: (Units=GPa)
#
#
# Indices 1 2 3 4 5 6 
#
# 1 122.7612 23.7712 8.7047 0.0000 0.0000 0.0000
# 2 23.7712 43.2640 -10.4947 0.0000 0.0000 0.0000
# 3 8.7047 -10.4947 26.7730 0.0000 0.0000 0.0000
# 4 0.0000 0.0000 0.0000 28.3727 0.0000 0.0000
# 5 0.0000 0.0000 0.0000 0.0000 27.0618 0.0000
# 6 0.0000 0.0000 0.0000 0.0000 0.0000 30.6967
#
#
#
# Elastic Compliance Matrix: (Units=1/GPa)
#
#
# Indices 1 2 3 4 5 6 
#
# 1 0.009895 -0.006871 -0.005911 0.000000 0.000000 0.000000
# 2 -0.006871 0.030313 0.014116 0.000000 0.000000 0.000000
# 3 -0.005911 0.014116 0.044806 0.000000 0.000000 0.000000
# 4 0.000000 0.000000 0.000000 0.035245 0.000000 0.000000
# 5 0.000000 0.000000 0.000000 0.000000 0.036952 0.000000
# 6 0.000000 0.000000 0.000000 0.000000 0.000000 0.032577
#
#
# Mechanical properties :
#
#
# Convention : Reuss Voigt Hill
#
# Bulk Modulus (GPa) = 11.40446 26.30675 18.85561
# Shear Modulus (GPa) = 23.11096 28.61404 25.86250
#
# Velocity S-wave (km/s) = 3.23829 3.60326 3.42564
# Velocity P-wave (km/s) = 4.37684 5.40813 4.91959
#
# Compressibility (1/GPa) = 0.08768496
#
# Stress axis : x y z
#
# Youngs Moduli (GPa) = 101.05664 32.98883 22.31834
#
# Poissons Ratio (x) = 0.22666 0.13191
# Poissons Ratio (y) = 0.69434 -0.31505
# Poissons Ratio (z) = 0.59730 -0.46568
#
# Static dielectric constant tensor:
#      x y z
#    x 1.889540 0.000000 0.000000 
#    y 0.000000 1.791380 0.000000 
#    z 0.000000 0.000000 1.788100 
# 
# From -- ./inp_files/7939.got.cif
#   From: 2010.05.17/outbox.cif.g08.bks.cpg/sg55_4_cif.got.tgz:7939.got - 2010.06.03 13:27:54.
