data_PCOD9425317
_publ_section_title
;
Structure prediction by ZEFSAII (Michael W. Deem and Ramdas Pophale) SiO2 
 PCOD9425317
Probable space group: P B A M
;
_chemical_formula_sum "Si O2"
_cell_formula_units_Z 64
_cell_length_a 31.456750
_cell_length_b 12.113941
_cell_length_c 8.847044
_cell_angle_alpha 90.000000
_cell_angle_beta 90.000000
_cell_angle_gamma 90.000000
_cell_volume 3371.300711
_symmetry_space_group_name_H-M "P B A M"
_symmetry_group_IT_number 55
_symmetry_cell_setting 'orthorhombic'
loop_
_space_group_symop_operation_xyz
x,y,z
-x,-y,z
1/2+x,1/2-y,-z
1/2-x,1/2+y,-z
-x,-y,-z
x,y,-z
1/2-x,1/2+y,z
1/2+x,1/2-y,z
loop_
_atom_site_type_symbol
_atom_site_label
_atom_site_fract_x
_atom_site_fract_y
_atom_site_fract_z
Si Si1 0.872374 0.850762 0.180022
Si Si2 0.197959 0.728539 0.319640
Si Si3 0.954708 0.734169 0.319306
Si Si4 0.669073 0.999135 0.821380
Si Si5 0.548785 0.751824 0.316233
Si Si6 0.704925 0.212291 0.319897
Si Si7 0.077487 0.503484 0.680611
Si Si8 0.873639 0.093839 0.682076
O O1 0.914949 0.790720 0.239383
O O2 0.831162 0.787826 0.244963
O O3 0.872557 0.976062 0.239050
O O4 0.871235 0.847003 0.000000
O O5 0.193354 0.707244 0.500000
O O6 0.181330 0.623086 0.230441
O O7 0.247296 0.749088 0.286293
O O8 0.168307 0.833660 0.285430
O O9 0.950477 0.752948 0.500000
O O10 0.952770 0.601632 0.296194
O O11 0.000892 0.776213 0.267939
O O12 0.698431 0.088716 0.739784
O O13 0.621198 0.020345 0.765731
O O14 0.672138 0.011760 0.000000
O O15 0.548441 0.752219 0.500000
O O16 0.585414 0.666680 0.270269
O O17 0.560193 0.877200 0.270844
O O18 0.698861 0.214756 0.500000
O O19 0.086078 0.509696 0.500000
O O20 0.875860 0.078244 0.500000
#
# Coordination Sequence:
#
# PCOD9425317 Si02
#       8
#     8   8   8   8   8   8   8   8
#     4  12  26  42  59  86 125 164 202 252 312 370
#     4  10  23  43  68  93 119 157 208 255 299 355
#     4  10  20  36  63  93 120 158 204 253 301 359
#     4  12  24  38  62  95 132 163 194 243 308 368
#     4   9  18  35  63  95 120 151 205 257 300 351
#     4  11  24  43  67  92 119 160 211 257 297 354
#     4  10  18  35  62  91 125 160 201 249 297 355
#     4  10  21  41  65  89 119 158 206 256 299 358
#
# _framework density 18.98377
#
# number of rings (size 3 to 8) (size 9 to 14) (size 15 to 20)
#    0.000    1.500    2.500    3.000    1.750    3.500 
#    0.000    3.750    0.000    1.500    0.000    0.000 
#    0.000    0.000    0.000    0.000    0.000    0.000 
#
# Total GULP energy -357657.759278 kJ/mol
# GULP energy per Si atom -5588.402489 kJ/mol
# Density = 1.894056 g / cm^3
# Si number density = 18.983770 Si / 1000 Ang^3
#
#
#
# Elastic Constant Matrix: (Units=GPa)
#
#
# Indices 1 2 3 4 5 6 
#
# 1 105.5872 28.8250 41.3085 0.0000 0.0000 0.0000
# 2 28.8250 96.2111 34.5332 0.0000 0.0000 0.0000
# 3 41.3085 34.5332 40.0419 0.0000 0.0000 0.0000
# 4 0.0000 0.0000 0.0000 -17.0591 0.0000 0.0000
# 5 0.0000 0.0000 0.0000 0.0000 -11.6969 0.0000
# 6 0.0000 0.0000 0.0000 0.0000 0.0000 10.9969
#
#
#
# Elastic Compliance Matrix: (Units=1/GPa)
#
#
# Indices 1 2 3 4 5 6 
#
# 1 0.016058 0.001644 -0.017983 0.000000 0.000000 0.000000
# 2 0.001644 0.015222 -0.014824 0.000000 0.000000 0.000000
# 3 -0.017983 -0.014824 0.056310 0.000000 0.000000 0.000000
# 4 0.000000 0.000000 0.000000 -0.058620 0.000000 0.000000
# 5 0.000000 0.000000 0.000000 0.000000 -0.085493 0.000000
# 6 0.000000 0.000000 0.000000 0.000000 0.000000 0.090934
#
#
# Mechanical properties :
#
#
# Convention : Reuss Voigt Hill
#
# Bulk Modulus (GPa) = 39.58251 50.13040 44.85645
# Shear Modulus (GPa) = 47.54728 5.59310 26.57019
#
# Velocity S-wave (km/s) = 5.01006 1.71833 3.74522
# Velocity P-wave (km/s) = 7.37316 5.51373 6.51017
#
# Compressibility (1/GPa) = 0.02526369
#
# Stress axis : x y z
#
# Youngs Moduli (GPa) = 62.27602 65.69446 17.75882
#
# Poissons Ratio (x) = -0.10799 0.31936
# Poissons Ratio (y) = -0.10237 0.26325
# Poissons Ratio (z) = 1.11992 0.97383
#
# Static dielectric constant tensor:
#      x y z
#    x 1.656150 0.000000 0.000000 
#    y 0.000000 1.639260 0.000000 
#    z 0.000000 0.000000 1.631640 
# 
# From -- ./inp_files/10812.got.cif
#   From: 2010.05.17/outbox.cif.g08.bks.cpg/sg55_6_cif.got.tgz:10812.got - 2010.06.03 13:27:54.
