data_PCOD9425465
_publ_section_title
;
Structure prediction by ZEFSAII (Michael W. Deem and Ramdas Pophale) SiO2 
 PCOD9425465
Probable space group: P B A M
;
_chemical_formula_sum "Si O2"
_cell_formula_units_Z 48
_cell_length_a 11.573950
_cell_length_b 18.112599
_cell_length_c 9.410865
_cell_angle_alpha 90.000000
_cell_angle_beta 90.000000
_cell_angle_gamma 90.000000
_cell_volume 1972.840240
_symmetry_space_group_name_H-M "P B A M"
_symmetry_group_IT_number 55
_symmetry_cell_setting 'orthorhombic'
loop_
_space_group_symop_operation_xyz
x,y,z
-x,-y,z
1/2+x,1/2-y,-z
1/2-x,1/2+y,-z
-x,-y,-z
x,y,-z
1/2-x,1/2+y,z
1/2+x,1/2-y,z
loop_
_atom_site_type_symbol
_atom_site_label
_atom_site_fract_x
_atom_site_fract_y
_atom_site_fract_z
Si Si1 0.869299 0.341067 0.158141
Si Si2 0.208858 0.306022 0.651260
Si Si3 0.711594 0.471626 0.166495
Si Si4 0.431678 0.411536 0.334097
Si Si5 0.042275 0.214299 0.829624
Si Si6 0.070774 0.435638 0.748247
O O1 0.769690 0.394666 0.219753
O O2 0.934108 0.268255 0.216908
O O3 0.978425 0.396936 0.150337
O O4 0.829718 0.321882 0.000000
O O5 0.213023 0.265696 0.500000
O O6 0.323366 0.354248 0.668328
O O7 0.160065 0.252113 0.772260
O O8 0.114291 0.370931 0.649194
O O9 0.618161 0.512925 0.265656
O O10 0.820193 0.528865 0.173084
O O11 0.676138 0.464794 0.000000
O O12 0.464924 0.419179 0.500000
O O13 0.521506 0.366130 0.237107
O O14 0.041428 0.211749 0.000000
O O15 0.000000 0.500000 0.672508
#
# Coordination Sequence:
#
# PCOD9425465 Si02
#       6
#     8   8   8   8   8   8
#     4   8  14  24  39  62  88 113 144 182 221 260
#     4   9  18  30  43  62  90 121 150 183 222 263
#     4   9  15  25  42  62  86 116 148 181 217 260
#     4  10  20  32  45  65  94 124 153 185 223 268
#     4  10  19  31  48  68  90 119 155 191 225 264
#     4   8  13  21  36  60  88 116 144 173 208 255
#
# _framework density 24.330404999999999
#
# number of rings (size 3 to 8) (size 9 to 14) (size 15 to 20)
#    0.000    3.000    0.000    1.500    0.000    7.000 
#    0.000    9.167    0.000    0.000    0.000    1.167 
#    0.000    9.333    0.000    0.000    0.000    0.000 
#
# Total GULP energy -267610.300705 kJ/mol
# GULP energy per Si atom -5575.214598 kJ/mol
# Density = 2.427503 g / cm^3
# Si number density = 24.330405 Si / 1000 Ang^3
#
#
#
# Elastic Constant Matrix: (Units=GPa)
#
#
# Indices 1 2 3 4 5 6 
#
# 1 86.9089 21.4278 24.6517 0.0000 0.0000 0.0000
# 2 21.4278 150.8870 40.6209 0.0000 0.0000 0.0000
# 3 24.6517 40.6209 98.4844 0.0000 0.0000 0.0000
# 4 0.0000 0.0000 0.0000 4.5870 0.0000 0.0000
# 5 0.0000 0.0000 0.0000 0.0000 14.0293 0.0000
# 6 0.0000 0.0000 0.0000 0.0000 0.0000 46.9459
#
#
#
# Elastic Compliance Matrix: (Units=1/GPa)
#
#
# Indices 1 2 3 4 5 6 
#
# 1 0.012532 -0.001052 -0.002703 0.000000 0.000000 0.000000
# 2 -0.001052 0.007544 -0.002848 0.000000 0.000000 0.000000
# 3 -0.002703 -0.002848 0.012005 0.000000 0.000000 0.000000
# 4 0.000000 0.000000 0.000000 0.218006 0.000000 0.000000
# 5 0.000000 0.000000 0.000000 0.000000 0.071280 0.000000
# 6 0.000000 0.000000 0.000000 0.000000 0.000000 0.021301
#
#
# Mechanical properties :
#
#
# Convention : Reuss Voigt Hill
#
# Bulk Modulus (GPa) = 52.98063 56.63122 54.80593
# Shear Modulus (GPa) = 13.80581 29.75109 21.77845
#
# Velocity S-wave (km/s) = 2.38466 3.50064 2.99509
# Velocity P-wave (km/s) = 5.42263 6.29808 5.87668
#
# Compressibility (1/GPa) = 0.01887482
#
# Stress axis : x y z
#
# Youngs Moduli (GPa) = 79.79307 132.56214 83.29697
#
# Poissons Ratio (x) = 0.13946 0.22516
# Poissons Ratio (y) = 0.08395 0.23724
# Poissons Ratio (z) = 0.21569 0.37755
#
# Static dielectric constant tensor:
#      x y z
#    x 2.024580 0.000000 0.000000 
#    y 0.000000 1.957560 0.000000 
#    z 0.000000 0.000000 1.916490 
# 
# From -- ./inp_files/7563.got.cif
#   From: 2010.05.17/outbox.cif.g08.bks.cpg/sg55_4_cif.got.tgz:7563.got - 2010.06.03 13:27:54.
