data_PCOD9425276
_publ_section_title
;
Structure prediction by ZEFSAII (Michael W. Deem and Ramdas Pophale) SiO2 
 PCOD9425276
Probable space group: P B A M
;
_chemical_formula_sum "Si O2"
_cell_formula_units_Z 48
_cell_length_a 17.124937
_cell_length_b 18.417977
_cell_length_c 8.179432
_cell_angle_alpha 90.000000
_cell_angle_beta 90.000000
_cell_angle_gamma 90.000000
_cell_volume 2579.847621
_symmetry_space_group_name_H-M "P B A M"
_symmetry_group_IT_number 55
_symmetry_cell_setting 'orthorhombic'
loop_
_space_group_symop_operation_xyz
x,y,z
-x,-y,z
1/2+x,1/2-y,-z
1/2-x,1/2+y,-z
-x,-y,-z
x,y,-z
1/2-x,1/2+y,z
1/2+x,1/2-y,z
loop_
_atom_site_type_symbol
_atom_site_label
_atom_site_fract_x
_atom_site_fract_y
_atom_site_fract_z
Si Si1 0.679982 0.898125 0.307672
Si Si2 0.507462 0.916218 0.300325
Si Si3 0.663868 0.327119 0.808020
Si Si4 0.647977 0.165247 0.307211
Si Si5 0.915208 0.975019 0.199329
Si Si6 0.245818 0.956835 0.193167
O O1 0.684486 0.881199 0.500000
O O2 0.591811 0.886389 0.248144
O O3 0.747243 0.853451 0.218091
O O4 0.701114 0.983077 0.282989
O O5 0.508323 0.916020 0.500000
O O6 0.433076 0.870025 0.245699
O O7 0.500000 0.000000 0.248392
O O8 0.649821 0.250629 0.723697
O O9 0.610604 0.394290 0.747131
O O10 0.649102 0.318048 0.000000
O O11 0.652744 0.151200 0.500000
O O12 0.719729 0.122113 0.226804
O O13 0.843633 0.028316 0.244690
O O14 0.917654 0.973738 0.000000
O O15 0.000000 0.000000 0.257874
O O16 0.250495 0.972535 0.000000
#
# Coordination Sequence:
#
# PCOD9425276 Si02
#       6
#     8   8   8   8   8   8
#     4  10  18  34  58  79 105 143 183 216 264 325
#     4   9  17  32  55  82 108 140 180 223 264 320
#     4  10  21  37  55  79 111 141 180 228 279 327
#     4  11  21  36  56  78 110 147 183 222 276 329
#     4   8  16  34  58  78 102 139 179 220 270 322
#     4  10  19  32  54  82 110 138 177 224 269 322
#
# _framework density 18.605748999999999
#
# number of rings (size 3 to 8) (size 9 to 14) (size 15 to 20)
#    0.000    2.333    1.667    3.000    0.000    0.000 
#    3.000    4.167    0.000   17.000    0.000    0.000 
#    0.000    0.000    0.000    0.000    0.000    0.000 
#
# Total GULP energy -267778.057014 kJ/mol
# GULP energy per Si atom -5578.709521 kJ/mol
# Density = 1.856340 g / cm^3
# Si number density = 18.605749 Si / 1000 Ang^3
#
#
#
# Elastic Constant Matrix: (Units=GPa)
#
#
# Indices 1 2 3 4 5 6 
#
# 1 144.0232 72.0377 3.0644 0.0000 0.0000 0.0000
# 2 72.0377 108.1120 -4.0800 0.0000 0.0000 0.0000
# 3 3.0644 -4.0800 18.2486 0.0000 0.0000 0.0000
# 4 0.0000 0.0000 0.0000 28.6467 0.0000 0.0000
# 5 0.0000 0.0000 0.0000 0.0000 16.9119 0.0000
# 6 0.0000 0.0000 0.0000 0.0000 0.0000 20.8762
#
#
#
# Elastic Compliance Matrix: (Units=1/GPa)
#
#
# Indices 1 2 3 4 5 6 
#
# 1 0.010619 -0.007204 -0.003394 0.000000 0.000000 0.000000
# 2 -0.007204 0.014215 0.004388 0.000000 0.000000 0.000000
# 3 -0.003394 0.004388 0.056350 0.000000 0.000000 0.000000
# 4 0.000000 0.000000 0.000000 0.034908 0.000000 0.000000
# 5 0.000000 0.000000 0.000000 0.000000 0.059130 0.000000
# 6 0.000000 0.000000 0.000000 0.000000 0.000000 0.047902
#
#
# Mechanical properties :
#
#
# Convention : Reuss Voigt Hill
#
# Bulk Modulus (GPa) = 14.54232 45.82533 30.18383
# Shear Modulus (GPa) = 19.34510 26.57773 22.96142
#
# Velocity S-wave (km/s) = 3.22799 3.78361 3.51679
# Velocity P-wave (km/s) = 4.66114 6.61595 5.72263
#
# Compressibility (1/GPa) = 0.06876483
#
# Stress axis : x y z
#
# Youngs Moduli (GPa) = 94.17446 70.34759 17.74631
#
# Poissons Ratio (x) = 0.50675 0.06023
# Poissons Ratio (y) = 0.67839 -0.07787
# Poissons Ratio (z) = 0.31960 -0.30868
#
# Static dielectric constant tensor:
#      x y z
#    x 1.650080 0.000000 0.000000 
#    y 0.000000 1.613060 0.000000 
#    z 0.000000 0.000000 1.647610 
# 
# From -- ./inp_files/7538.got.cif
#   From: 2010.05.17/outbox.cif.g08.bks.cpg/sg55_4_cif.got.tgz:7538.got - 2010.06.03 13:27:54.
