data_PCOD9425074
_publ_section_title
;
Structure prediction by ZEFSAII (Michael W. Deem and Ramdas Pophale) SiO2 
 PCOD9425074
Probable space group: P B A M
;
_chemical_formula_sum "Si O2"
_cell_formula_units_Z 64
_cell_length_a 17.444535
_cell_length_b 21.219448
_cell_length_c 7.720833
_cell_angle_alpha 90.000000
_cell_angle_beta 90.000000
_cell_angle_gamma 90.000000
_cell_volume 2857.969820
_symmetry_space_group_name_H-M "P B A M"
_symmetry_group_IT_number 55
_symmetry_cell_setting 'orthorhombic'
loop_
_space_group_symop_operation_xyz
x,y,z
-x,-y,z
1/2+x,1/2-y,-z
1/2-x,1/2+y,-z
-x,-y,-z
x,y,-z
1/2-x,1/2+y,z
1/2+x,1/2-y,z
loop_
_atom_site_type_symbol
_atom_site_label
_atom_site_fract_x
_atom_site_fract_y
_atom_site_fract_z
Si Si1 0.428617 0.326620 0.701781
Si Si2 0.110463 0.684456 0.794416
Si Si3 0.154324 0.274410 0.703524
Si Si4 0.345146 0.983050 0.199878
Si Si5 0.226886 0.876047 0.709468
Si Si6 0.255821 0.104337 0.786597
Si Si7 0.597291 0.358607 0.195274
Si Si8 0.536312 0.113953 0.210519
O O1 0.412432 0.321085 0.500000
O O2 0.419062 0.255219 0.767743
O O3 0.360529 0.371024 0.770748
O O4 0.513584 0.353341 0.723785
O O5 0.195136 0.665647 0.731255
O O6 0.047632 0.634078 0.727808
O O7 0.113098 0.675356 0.000000
O O8 0.154317 0.258690 0.500000
O O9 0.233368 0.308876 0.750212
O O10 0.131305 0.212319 0.804728
O O11 0.090733 0.327986 0.736814
O O12 0.278995 0.929803 0.207544
O O13 0.421014 0.949276 0.273984
O O14 0.306205 0.045239 0.273476
O O15 0.363654 0.998492 0.000000
O O16 0.232323 0.884947 0.500000
O O17 0.168227 0.103264 0.723675
O O18 0.250524 0.103252 0.000000
O O19 0.584918 0.380865 0.000000
O O20 0.535508 0.110735 0.000000
#
# Coordination Sequence:
#
# PCOD9425074 Si02
#       8
#     8   8   8   8   8   8   8   8
#     4  11  22  36  54  79 109 139 175 221 270 322
#     4  10  19  33  54  82 114 141 171 214 266 320
#     4  10  18  31  52  76 105 137 169 211 264 318
#     4   9  18  35  56  78 106 142 184 219 256 308
#     4   9  20  36  54  77 104 137 177 219 265 315
#     4   9  20  36  54  78 108 143 180 220 260 311
#     4  11  21  34  52  75 106 140 177 219 266 315
#     4   9  17  29  51  81 109 139 173 211 255 311
#
# _framework density 22.393519000000001
#
# number of rings (size 3 to 8) (size 9 to 14) (size 15 to 20)
#    0.000    2.250    1.250    1.875    0.000    2.000 
#    0.000    5.625    0.000    3.750    0.000    4.375 
#    0.000    0.000    0.000    0.000    0.000    0.000 
#
# Total GULP energy -357165.044493 kJ/mol
# GULP energy per Si atom -5580.703820 kJ/mol
# Density = 2.234255 g / cm^3
# Si number density = 22.393519 Si / 1000 Ang^3
#
#
#
# Elastic Constant Matrix: (Units=GPa)
#
#
# Indices 1 2 3 4 5 6 
#
# 1 116.5387 3.7669 1.7789 0.0000 0.0000 0.0000
# 2 3.7669 37.1141 -6.5123 0.0000 0.0000 0.0000
# 3 1.7789 -6.5123 36.5225 0.0000 0.0000 0.0000
# 4 0.0000 0.0000 0.0000 16.3107 0.0000 0.0000
# 5 0.0000 0.0000 0.0000 0.0000 8.9017 0.0000
# 6 0.0000 0.0000 0.0000 0.0000 0.0000 24.9138
#
#
#
# Elastic Compliance Matrix: (Units=1/GPa)
#
#
# Indices 1 2 3 4 5 6 
#
# 1 0.008622 -0.000979 -0.000595 0.000000 0.000000 0.000000
# 2 -0.000979 0.027925 0.005027 0.000000 0.000000 0.000000
# 3 -0.000595 0.005027 0.028306 0.000000 0.000000 0.000000
# 4 0.000000 0.000000 0.000000 0.061309 0.000000 0.000000
# 5 0.000000 0.000000 0.000000 0.000000 0.112338 0.000000
# 6 0.000000 0.000000 0.000000 0.000000 0.000000 0.040138
#
#
# Mechanical properties :
#
#
# Convention : Reuss Voigt Hill
#
# Bulk Modulus (GPa) = 13.93554 20.91580 17.42567
# Shear Modulus (GPa) = 16.91180 22.76803 19.83992
#
# Velocity S-wave (km/s) = 2.75109 3.19207 2.97975
# Velocity P-wave (km/s) = 4.04077 4.79021 4.43137
#
# Compressibility (1/GPa) = 0.07175898
#
# Stress axis : x y z
#
# Youngs Moduli (GPa) = 115.98811 35.80968 35.32859
#
# Poissons Ratio (x) = 0.03507 0.02100
# Poissons Ratio (y) = 0.11359 -0.17760
# Poissons Ratio (z) = 0.06896 -0.18002
#
# Static dielectric constant tensor:
#      x y z
#    x 1.867790 0.000000 0.000000 
#    y 0.000000 1.822160 0.000000 
#    z 0.000000 0.000000 1.812930 
# 
# From -- ./inp_files/8017.got.cif
#   From: 2010.05.17/outbox.cif.g08.bks.cpg/sg55_5_cif.got.tgz:8017.got - 2010.06.03 13:27:54.
