data_PCOD9425415
_publ_section_title
;
Structure prediction by ZEFSAII (Michael W. Deem and Ramdas Pophale) SiO2 
 PCOD9425415
Probable space group: P B A M
;
_chemical_formula_sum "Si O2"
_cell_formula_units_Z 64
_cell_length_a 20.912830
_cell_length_b 19.849788
_cell_length_c 9.077768
_cell_angle_alpha 90.000000
_cell_angle_beta 90.000000
_cell_angle_gamma 90.000000
_cell_volume 3768.319860
_symmetry_space_group_name_H-M "P B A M"
_symmetry_group_IT_number 55
_symmetry_cell_setting 'orthorhombic'
loop_
_space_group_symop_operation_xyz
x,y,z
-x,-y,z
1/2+x,1/2-y,-z
1/2-x,1/2+y,-z
-x,-y,-z
x,y,-z
1/2-x,1/2+y,z
1/2+x,1/2-y,z
loop_
_atom_site_type_symbol
_atom_site_label
_atom_site_fract_x
_atom_site_fract_y
_atom_site_fract_z
Si Si1 0.562011 0.543883 0.676351
Si Si2 0.352619 0.837941 0.174745
Si Si3 0.071033 0.810423 0.825166
Si Si4 0.517327 0.199921 0.676001
Si Si5 0.670725 0.003274 0.175288
Si Si6 0.449992 0.058741 0.323483
Si Si7 0.701580 0.522438 0.325870
Si Si8 0.288690 0.333332 0.174960
O O1 0.500000 0.500000 0.710735
O O2 0.562525 0.558126 0.500000
O O3 0.562061 0.614073 0.763373
O O4 0.628145 0.504146 0.708692
O O5 0.410907 0.805991 0.262424
O O6 0.345888 0.917992 0.211312
O O7 0.282460 0.805766 0.203347
O O8 0.365437 0.833283 0.000000
O O9 0.146308 0.792089 0.799232
O O10 0.022839 0.760375 0.745579
O O11 0.060345 0.809341 0.000000
O O12 0.518887 0.206026 0.500000
O O13 0.481138 0.130182 0.714464
O O14 0.740577 0.987614 0.240456
O O15 0.616257 0.956946 0.244158
O O16 0.671832 0.997839 0.000000
O O17 0.440738 0.055925 0.500000
O O18 0.500000 0.000000 0.282869
O O19 0.712081 0.516597 0.500000
O O20 0.705343 0.600255 0.274313
O O21 0.289122 0.352918 0.000000
#
# Coordination Sequence:
#
# PCOD9425415 Si02
#       8
#     8   8   8   8   8   8   8   8
#     4   9  18  34  57  83 108 134 169 213 260 310
#     4   9  17  30  49  74 100 129 168 211 254 300
#     4  10  20  35  55  78 106 137 171 212 259 313
#     4  11  22  34  51  75 105 138 174 216 260 310
#     4  10  19  30  48  73 103 135 172 215 254 300
#     4  10  20  34  50  72 103 138 177 217 257 303
#     4   9  16  27  48  76 103 132 164 205 254 301
#     4   8  16  31  50  73  99 128 165 210 252 298
#
# _framework density 16.983695000000001
#
# number of rings (size 3 to 8) (size 9 to 14) (size 15 to 20)
#    0.000    2.500    1.250    2.250    0.000    4.500 
#    0.000    0.000    2.750    0.000    0.000    0.000 
#    0.000    0.000    0.000    0.000    0.000    0.000 
#
# Total GULP energy -356614.274059 kJ/mol
# GULP energy per Si atom -5572.098032 kJ/mol
# Density = 1.694504 g / cm^3
# Si number density = 16.983695 Si / 1000 Ang^3
#
#
#
# Elastic Constant Matrix: (Units=GPa)
#
#
# Indices 1 2 3 4 5 6 
#
# 1 179.9251 48.5684 62.0639 0.0000 0.0000 0.0000
# 2 48.5684 41.2194 25.6566 0.0000 0.0000 0.0000
# 3 62.0639 25.6566 39.0590 0.0000 0.0000 0.0000
# 4 0.0000 0.0000 0.0000 13.8791 0.0000 0.0000
# 5 0.0000 0.0000 0.0000 0.0000 27.9537 0.0000
# 6 0.0000 0.0000 0.0000 0.0000 0.0000 24.6774
#
#
#
# Elastic Compliance Matrix: (Units=1/GPa)
#
#
# Indices 1 2 3 4 5 6 
#
# 1 0.012689 -0.004062 -0.017494 0.000000 0.000000 0.000000
# 2 -0.004062 0.042341 -0.021358 0.000000 0.000000 0.000000
# 3 -0.017494 -0.021358 0.067429 0.000000 0.000000 0.000000
# 4 0.000000 0.000000 0.000000 0.072051 0.000000 0.000000
# 5 0.000000 0.000000 0.000000 0.000000 0.035773 0.000000
# 6 0.000000 0.000000 0.000000 0.000000 0.000000 0.040523
#
#
# Mechanical properties :
#
#
# Convention : Reuss Voigt Hill
#
# Bulk Modulus (GPa) = 27.29929 59.19794 43.24861
# Shear Modulus (GPa) = 13.55591 21.56301 17.55946
#
# Velocity S-wave (km/s) = 2.82826 3.56705 3.21892
# Velocity P-wave (km/s) = 5.17437 7.20393 6.27179
#
# Compressibility (1/GPa) = 0.03663099
#
# Stress axis : x y z
#
# Youngs Moduli (GPa) = 78.80984 23.61796 14.83049
#
# Poissons Ratio (x) = 0.09594 0.25944
# Poissons Ratio (y) = 0.32014 0.31674
# Poissons Ratio (z) = 1.37869 0.50442
#
# Static dielectric constant tensor:
#      x y z
#    x 1.607210 0.000000 0.000000 
#    y 0.000000 1.542420 0.000000 
#    z 0.000000 0.000000 1.560770 
# 
# From -- ./inp_files/9024.got.cif
#   From: 2010.05.17/outbox.cif.g08.bks.cpg/sg55_5_cif.got.tgz:9024.got - 2010.06.03 13:27:54.
