data_PCOD9426921
_publ_section_title
;
Structure prediction by ZEFSAII (Michael W. Deem and Ramdas Pophale) SiO2 
 PCOD9426921
Probable space group: P B A M
;
_chemical_formula_sum "Si O2"
_cell_formula_units_Z 56
_cell_length_a 7.911613
_cell_length_b 14.803918
_cell_length_c 19.882487
_cell_angle_alpha 90.000000
_cell_angle_beta 90.000000
_cell_angle_gamma 90.000000
_cell_volume 2328.693942
_symmetry_space_group_name_H-M "P B A M"
_symmetry_group_IT_number 55
_symmetry_cell_setting 'orthorhombic'
loop_
_space_group_symop_operation_xyz
x,y,z
-x,-y,z
1/2+x,1/2-y,-z
1/2-x,1/2+y,-z
-x,-y,-z
x,y,-z
1/2-x,1/2+y,z
1/2+x,1/2-y,z
loop_
_atom_site_type_symbol
_atom_site_label
_atom_site_fract_x
_atom_site_fract_y
_atom_site_fract_z
Si Si1 0.913404 0.358928 0.789498
Si Si2 0.319624 0.053379 0.423020
Si Si3 0.346727 0.391412 0.652306
Si Si4 0.510290 0.785219 0.652787
Si Si5 0.126909 0.891632 0.926035
Si Si6 0.269175 0.463281 0.211370
Si Si7 0.241230 0.200208 0.925473
O O1 0.930417 0.285588 0.731051
O O2 0.779889 0.435649 0.768656
O O3 0.853374 0.327162 0.862087
O O4 0.093386 0.408249 0.791642
O O5 0.269722 0.068940 0.500000
O O6 0.364866 0.146621 0.386042
O O7 0.500000 0.000000 0.422497
O O8 0.191515 0.983739 0.387253
O O9 0.480894 0.317603 0.627490
O O10 0.376682 0.419170 0.729605
O O11 0.171954 0.332823 0.649432
O O12 0.158995 0.955446 0.863281
O O13 0.259528 0.808881 0.923277
O O14 0.943771 0.843783 0.920486
O O15 0.142559 0.934544 0.000000
O O16 0.309878 0.176005 0.000000
#
# Coordination Sequence:
#
# PCOD9426921 Si02
#       7
#     8   8   8   8   8   8   8
#     4  10  20  35  55  78 108 145 186 232 280 335
#     4   9  18  36  61  85 114 153 190 224 273 339
#     4  10  20  36  58  85 115 149 190 233 278 331
#     4  10  20  36  58  85 115 149 190 233 278 331
#     4  10  21  36  53  75 105 141 183 232 283 336
#     4  10  20  35  55  78 108 145 186 232 280 335
#     4  10  21  36  53  75 105 141 183 232 283 336
#
# _framework density 24.047815
#
# number of rings (size 3 to 8) (size 9 to 14) (size 15 to 20)
#    0.000    2.143    1.429    1.714    0.000    6.857 
#    0.000    3.571    0.000    0.857    0.000    0.000 
#    0.000    0.000    0.000    0.000    0.000    0.000 
#
# Total GULP energy -313308.432993 kJ/mol
# GULP energy per Si atom -5594.793446 kJ/mol
# Density = 2.399308 g / cm^3
# Si number density = 24.047815 Si / 1000 Ang^3
#
#
#
# Elastic Constant Matrix: (Units=GPa)
#
#
# Indices 1 2 3 4 5 6 
#
# 1 79.9011 11.0892 17.8053 0.0000 0.0000 0.0000
# 2 11.0892 76.2241 0.2291 0.0000 0.0000 0.0000
# 3 17.8053 0.2291 92.8804 0.0000 0.0000 0.0000
# 4 0.0000 0.0000 0.0000 11.2739 0.0000 0.0000
# 5 0.0000 0.0000 0.0000 0.0000 -4.2972 0.0000
# 6 0.0000 0.0000 0.0000 0.0000 0.0000 38.7501
#
#
#
# Elastic Compliance Matrix: (Units=1/GPa)
#
#
# Indices 1 2 3 4 5 6 
#
# 1 0.013353 -0.001935 -0.002555 0.000000 0.000000 0.000000
# 2 -0.001935 0.013400 0.000338 0.000000 0.000000 0.000000
# 3 -0.002555 0.000338 0.011256 0.000000 0.000000 0.000000
# 4 0.000000 0.000000 0.000000 0.088701 0.000000 0.000000
# 5 0.000000 0.000000 0.000000 0.000000 -0.232708 0.000000
# 6 0.000000 0.000000 0.000000 0.000000 0.000000 0.025806
#
#
# Mechanical properties :
#
#
# Convention : Reuss Voigt Hill
#
# Bulk Modulus (GPa) = 33.66523 34.13919 33.90221
# Shear Modulus (GPa) = -80.66305 23.80415 -28.42945
#
# Velocity S-wave (km/s) = -5.79790 3.14963 -3.44205
# Velocity P-wave (km/s) = 5.54897 5.23966 1.29171
#
# Compressibility (1/GPa) = 0.02970424
#
# Stress axis : x y z
#
# Youngs Moduli (GPa) = 74.88727 74.62848 88.84529
#
# Poissons Ratio (x) = 0.14441 0.22701
# Poissons Ratio (y) = 0.14491 -0.03002
# Poissons Ratio (z) = 0.19134 -0.02522
#
# Static dielectric constant tensor:
#      x y z
#    x 1.964610 0.000000 0.000000 
#    y 0.000000 1.912870 0.000000 
#    z 0.000000 0.000000 1.887770 
# 
# From -- ./inp_files/22629.got.cif
#   From: 2010.05.17/outbox.cif.g08.bks.cpg/sg55_12_cif.got.tgz:22629.got - 2010.06.03 13:27:54.
