data_PCOD9426481
_publ_section_title
;
Structure prediction by ZEFSAII (Michael W. Deem and Ramdas Pophale) SiO2 
 PCOD9426481
Probable space group: P B A M
;
_chemical_formula_sum "Si O2"
_cell_formula_units_Z 48
_cell_length_a 9.508935
_cell_length_b 28.687596
_cell_length_c 8.708412
_cell_angle_alpha 90.000000
_cell_angle_beta 90.000000
_cell_angle_gamma 90.000000
_cell_volume 2375.554522
_symmetry_space_group_name_H-M "P B A M"
_symmetry_group_IT_number 55
_symmetry_cell_setting 'orthorhombic'
loop_
_space_group_symop_operation_xyz
x,y,z
-x,-y,z
1/2+x,1/2-y,-z
1/2-x,1/2+y,-z
-x,-y,-z
x,y,-z
1/2-x,1/2+y,z
1/2+x,1/2-y,z
loop_
_atom_site_type_symbol
_atom_site_label
_atom_site_fract_x
_atom_site_fract_y
_atom_site_fract_z
Si Si1 0.384542 0.459170 0.322804
Si Si2 0.183534 0.777571 0.685007
Si Si3 0.979189 0.862442 0.686492
Si Si4 0.655476 0.979687 0.825330
Si Si5 0.010589 0.302321 0.817393
Si Si6 0.833957 0.379761 0.317726
O O1 0.500000 0.500000 0.323295
O O2 0.339084 0.451777 0.500000
O O3 0.453207 0.411477 0.264397
O O4 0.258301 0.479051 0.224367
O O5 0.188380 0.774159 0.500000
O O6 0.079460 0.819992 0.730011
O O7 0.110575 0.731700 0.752401
O O8 0.339851 0.787526 0.745873
O O9 0.974350 0.863589 0.500000
O O10 0.817156 0.859418 0.736229
O O11 0.670776 0.934647 0.717909
O O12 0.500000 0.000000 0.816689
O O13 0.685951 0.964941 0.000000
O O14 0.961400 0.353789 0.766109
O O15 0.018354 0.299044 0.000000
O O16 0.847757 0.372208 0.500000
#
# Coordination Sequence:
#
# PCOD9426481 Si02
#       6
#     8   8   8   8   8   8
#     4  10  19  38  64  91 121 161 213 262 308 368
#     4  11  23  43  69  97 126 168 217 260 310 385
#     4   9  20  38  64  95 123 155 209 269 311 361
#     4  11  25  41  57  88 131 170 209 260 320 379
#     4  12  26  44  65  96 134 167 205 264 329 381
#     4  11  22  42  68  93 122 166 216 265 316 379
#
# _framework density 20.205807
#
# number of rings (size 3 to 8) (size 9 to 14) (size 15 to 20)
#    0.000    1.333    1.667    4.000    2.333    3.000 
#    0.000    3.333    0.000    0.000    0.000    0.000 
#    0.000    0.000    0.000    0.000    0.000    0.000 
#
# Total GULP energy -268375.917252 kJ/mol
# GULP energy per Si atom -5591.164943 kJ/mol
# Density = 2.015982 g / cm^3
# Si number density = 20.205807 Si / 1000 Ang^3
#
#
#
# Elastic Constant Matrix: (Units=GPa)
#
#
# Indices 1 2 3 4 5 6 
#
# 1 91.1391 0.6081 34.0996 0.0000 0.0000 0.0000
# 2 0.6081 59.7336 7.2091 0.0000 0.0000 0.0000
# 3 34.0996 7.2091 78.7499 0.0000 0.0000 0.0000
# 4 0.0000 0.0000 0.0000 48.8208 0.0000 0.0000
# 5 0.0000 0.0000 0.0000 0.0000 33.2962 0.0000
# 6 0.0000 0.0000 0.0000 0.0000 0.0000 33.7478
#
#
#
# Elastic Compliance Matrix: (Units=1/GPa)
#
#
# Indices 1 2 3 4 5 6 
#
# 1 0.013112 0.000558 -0.005729 0.000000 0.000000 0.000000
# 2 0.000558 0.016952 -0.001793 0.000000 0.000000 0.000000
# 3 -0.005729 -0.001793 0.015343 0.000000 0.000000 0.000000
# 4 0.000000 0.000000 0.000000 0.020483 0.000000 0.000000
# 5 0.000000 0.000000 0.000000 0.000000 0.030033 0.000000
# 6 0.000000 0.000000 0.000000 0.000000 0.000000 0.029632
#
#
# Mechanical properties :
#
#
# Convention : Reuss Voigt Hill
#
# Bulk Modulus (GPa) = 31.76772 34.82844 33.29808
# Shear Modulus (GPa) = 33.33865 35.68670 34.51268
#
# Velocity S-wave (km/s) = 4.06637 4.20713 4.13735
# Velocity P-wave (km/s) = 6.14844 6.39329 6.27206
#
# Compressibility (1/GPa) = 0.03147849
#
# Stress axis : x y z
#
# Youngs Moduli (GPa) = 76.26668 58.99093 65.17551
#
# Poissons Ratio (x) = -0.03291 0.37337
# Poissons Ratio (y) = -0.04255 0.11689
# Poissons Ratio (z) = 0.43691 0.10579
#
# Static dielectric constant tensor:
#      x y z
#    x 1.764830 0.000000 0.000000 
#    y 0.000000 1.728840 0.000000 
#    z 0.000000 0.000000 1.691370 
# 
# From -- ./inp_files/2912.got.cif
#   From: 2010.05.17/outbox.cif.g08.bks.cpg/sg55_2_cif.got.tgz:2912.got - 2010.06.03 13:27:54.
