data_PCOD9426438
_publ_section_title
;
Structure prediction by ZEFSAII (Michael W. Deem and Ramdas Pophale) SiO2 
 PCOD9426438
Probable space group: P B A M
;
_chemical_formula_sum "Si O2"
_cell_formula_units_Z 48
_cell_length_a 28.950367
_cell_length_b 8.248256
_cell_length_c 8.025235
_cell_angle_alpha 90.000000
_cell_angle_beta 90.000000
_cell_angle_gamma 90.000000
_cell_volume 1916.346173
_symmetry_space_group_name_H-M "P B A M"
_symmetry_group_IT_number 55
_symmetry_cell_setting 'orthorhombic'
loop_
_space_group_symop_operation_xyz
x,y,z
-x,-y,z
1/2+x,1/2-y,-z
1/2-x,1/2+y,-z
-x,-y,-z
x,y,-z
1/2-x,1/2+y,z
1/2+x,1/2-y,z
loop_
_atom_site_type_symbol
_atom_site_label
_atom_site_fract_x
_atom_site_fract_y
_atom_site_fract_z
Si Si1 0.816462 0.721895 0.690402
Si Si2 0.011980 0.243859 0.308064
Si Si3 0.931647 0.453387 0.806607
Si Si4 0.599693 0.423578 0.704152
Si Si5 0.738994 0.916070 0.186839
Si Si6 0.651336 0.748329 0.302018
O O1 0.822625 0.669212 0.500000
O O2 0.865437 0.781186 0.759724
O O3 0.788723 0.581106 0.781720
O O4 0.782118 0.877205 0.695750
O O5 0.998761 0.211419 0.500000
O O6 0.045140 0.402859 0.298210
O O7 0.046843 0.105438 0.244530
O O8 0.966750 0.300788 0.211902
O O9 0.882547 0.397641 0.738773
O O10 0.929689 0.500075 0.000000
O O11 0.599279 0.420429 0.500000
O O12 0.623738 0.589788 0.755533
O O13 0.699959 0.779122 0.215508
O O14 0.756763 0.910795 0.000000
O O15 0.658729 0.738608 0.500000
#
# Coordination Sequence:
#
# PCOD9426438 Si02
#       6
#     8   8   8   8   8   8
#     4  11  22  41  66  91 119 160 204 244 294 362
#     4  10  19  37  62  87 113 152 200 247 296 355
#     4  11  22  37  56  86 121 155 194 244 300 357
#     4   9  21  38  61  88 114 147 199 251 290 340
#     4  12  25  41  61  92 126 157 195 250 307 355
#     4  11  22  40  62  86 116 157 202 246 294 357
#
# _framework density 25.047668000000002
#
# number of rings (size 3 to 8) (size 9 to 14) (size 15 to 20)
#    0.000    1.333    0.000    7.500    0.000    3.333 
#    0.000   11.667    0.000    0.000    0.000    0.000 
#    0.000    0.000    0.000    0.000    0.000    0.000 
#
# Total GULP energy -268887.005450 kJ/mol
# GULP energy per Si atom -5601.812614 kJ/mol
# Density = 2.499066 g / cm^3
# Si number density = 25.047668 Si / 1000 Ang^3
#
#
#
# Elastic Constant Matrix: (Units=GPa)
#
#
# Indices 1 2 3 4 5 6 
#
# 1 118.1087 1.1879 -5.2617 0.0000 0.0000 0.0000
# 2 1.1879 75.5524 -3.1607 0.0000 0.0000 0.0000
# 3 -5.2617 -3.1607 77.0411 0.0000 0.0000 0.0000
# 4 0.0000 0.0000 0.0000 -19.4882 0.0000 0.0000
# 5 0.0000 0.0000 0.0000 0.0000 88.9762 0.0000
# 6 0.0000 0.0000 0.0000 0.0000 0.0000 48.7775
#
#
#
# Elastic Compliance Matrix: (Units=1/GPa)
#
#
# Indices 1 2 3 4 5 6 
#
# 1 0.008494 -0.000109 0.000576 0.000000 0.000000 0.000000
# 2 -0.000109 0.013260 0.000537 0.000000 0.000000 0.000000
# 3 0.000576 0.000537 0.013041 0.000000 0.000000 0.000000
# 4 0.000000 0.000000 0.000000 -0.051313 0.000000 0.000000
# 5 0.000000 0.000000 0.000000 0.000000 0.011239 0.000000
# 6 0.000000 0.000000 0.000000 0.000000 0.000000 0.020501
#
#
# Mechanical properties :
#
#
# Convention : Reuss Voigt Hill
#
# Bulk Modulus (GPa) = 27.17373 28.47037 27.82205
# Shear Modulus (GPa) = 196.20454 42.18220 119.19337
#
# Velocity S-wave (km/s) = 8.86016 4.10820 6.90579
# Velocity P-wave (km/s) = 10.74906 5.82188 8.64398
#
# Compressibility (1/GPa) = 0.03680024
#
# Stress axis : x y z
#
# Youngs Moduli (GPa) = 117.73683 75.41472 76.67885
#
# Poissons Ratio (x) = 0.00826 -0.04414
# Poissons Ratio (y) = 0.01289 -0.04114
# Poissons Ratio (z) = -0.06777 -0.04046
#
# Static dielectric constant tensor:
#      x y z
#    x 1.937340 0.000000 0.000000 
#    y 0.000000 2.089730 0.000000 
#    z 0.000000 0.000000 1.862250 
# 
# From -- ./inp_files/10547.got.cif
#   From: 2010.05.17/outbox.cif.g08.bks.cpg/sg55_6_cif.got.tgz:10547.got - 2010.06.03 13:27:54.
