data_PCOD9426203
_publ_section_title
;
Structure prediction by ZEFSAII (Michael W. Deem and Ramdas Pophale) SiO2 
 PCOD9426203
Probable space group: P B A M
;
_chemical_formula_sum "Si O2"
_cell_formula_units_Z 40
_cell_length_a 15.808287
_cell_length_b 16.123435
_cell_length_c 8.797125
_cell_angle_alpha 90.000000
_cell_angle_beta 90.000000
_cell_angle_gamma 90.000000
_cell_volume 2242.245422
_symmetry_space_group_name_H-M "P B A M"
_symmetry_group_IT_number 55
_symmetry_cell_setting 'orthorhombic'
loop_
_space_group_symop_operation_xyz
x,y,z
-x,-y,z
1/2+x,1/2-y,-z
1/2-x,1/2+y,-z
-x,-y,-z
x,y,-z
1/2-x,1/2+y,z
1/2+x,1/2-y,z
loop_
_atom_site_type_symbol
_atom_site_label
_atom_site_fract_x
_atom_site_fract_y
_atom_site_fract_z
Si Si1 0.696154 0.559643 0.819121
Si Si2 0.423935 0.567647 0.674111
Si Si3 0.956441 0.381010 0.182358
Si Si4 0.123128 0.459843 0.680878
Si Si5 0.049512 0.810346 0.182146
O O1 0.650178 0.473970 0.771431
O O2 0.784388 0.567442 0.733344
O O3 0.630652 0.633244 0.777574
O O4 0.709475 0.561332 0.000000
O O5 0.500000 0.500000 0.676791
O O6 0.396947 0.578815 0.500000
O O7 0.466861 0.649818 0.740710
O O8 0.049979 0.405860 0.239167
O O9 0.894256 0.446404 0.261843
O O10 0.938529 0.285624 0.221136
O O11 0.951504 0.391229 0.000000
O O12 0.113592 0.455457 0.500000
O O13 0.038896 0.816982 0.000000
#
# Coordination Sequence:
#
# PCOD9426203 Si02
#       5
#     8   8   8   8   8
#     4  10  19  35  57  81 110 144 183 227 268 319
#     4   9  17  30  51  79 111 144 174 213 269 323
#     4  10  20  38  60  80 105 144 185 225 271 325
#     4  11  22  37  56  80 109 145 183 224 275 328
#     4   9  19  35  57  83 109 141 183 225 269 321
#
# _framework density 17.839259999999999
#
# number of rings (size 3 to 8) (size 9 to 14) (size 15 to 20)
#    0.000    2.200    0.000    4.800    0.000    4.800 
#    3.600    0.000    0.000    0.000    0.000    0.000 
#    0.000    0.000    0.000    0.000    0.000    0.000 
#
# Total GULP energy -223212.061242 kJ/mol
# GULP energy per Si atom -5580.301531 kJ/mol
# Density = 1.779866 g / cm^3
# Si number density = 17.839260 Si / 1000 Ang^3
#
#
#
# Elastic Constant Matrix: (Units=GPa)
#
#
# Indices 1 2 3 4 5 6 
#
# 1 58.7839 28.1810 20.6982 0.0000 0.0000 0.0000
# 2 28.1810 100.6483 27.2324 0.0000 0.0000 0.0000
# 3 20.6982 27.2324 57.5081 0.0000 0.0000 0.0000
# 4 0.0000 0.0000 0.0000 8.0488 0.0000 0.0000
# 5 0.0000 0.0000 0.0000 0.0000 24.9690 0.0000
# 6 0.0000 0.0000 0.0000 0.0000 0.0000 8.0089
#
#
#
# Elastic Compliance Matrix: (Units=1/GPa)
#
#
# Indices 1 2 3 4 5 6 
#
# 1 0.021059 -0.004411 -0.005491 0.000000 0.000000 0.000000
# 2 -0.004411 0.012320 -0.004246 0.000000 0.000000 0.000000
# 3 -0.005491 -0.004246 0.021376 0.000000 0.000000 0.000000
# 4 0.000000 0.000000 0.000000 0.124242 0.000000 0.000000
# 5 0.000000 0.000000 0.000000 0.000000 0.040050 0.000000
# 6 0.000000 0.000000 0.000000 0.000000 0.000000 0.124861
#
#
# Mechanical properties :
#
#
# Convention : Reuss Voigt Hill
#
# Bulk Modulus (GPa) = 37.79465 41.01818 39.40641
# Shear Modulus (GPa) = 13.12257 17.59393 15.35825
#
# Velocity S-wave (km/s) = 2.71514 3.14386 2.93733
# Velocity P-wave (km/s) = 5.57329 6.01844 5.80014
#
# Compressibility (1/GPa) = 0.02645877
#
# Stress axis : x y z
#
# Youngs Moduli (GPa) = 47.48468 81.17207 46.78160
#
# Poissons Ratio (x) = 0.35804 0.25688
# Poissons Ratio (y) = 0.20945 0.19865
# Poissons Ratio (z) = 0.26074 0.34468
#
# Static dielectric constant tensor:
#      x y z
#    x 1.592090 0.000000 0.000000 
#    y 0.000000 1.606120 0.000000 
#    z 0.000000 0.000000 1.597520 
# 
# From -- ./inp_files/5206.got.cif
#   From: 2010.05.17/outbox.cif.g08.bks.cpg/sg55_3_cif.got.tgz:5206.got - 2010.06.03 13:27:54.
