data_PCOD9426377
_publ_section_title
;
Structure prediction by ZEFSAII (Michael W. Deem and Ramdas Pophale) SiO2 
 PCOD9426377
Probable space group: P B A M
;
_chemical_formula_sum "Si O2"
_cell_formula_units_Z 58
_cell_length_a 26.220783
_cell_length_b 14.917711
_cell_length_c 7.763998
_cell_angle_alpha 90.000000
_cell_angle_beta 90.000000
_cell_angle_gamma 90.000000
_cell_volume 3036.919363
_symmetry_space_group_name_H-M "P B A M"
_symmetry_group_IT_number 55
_symmetry_cell_setting 'orthorhombic'
loop_
_space_group_symop_operation_xyz
x,y,z
-x,-y,z
1/2+x,1/2-y,-z
1/2-x,1/2+y,-z
-x,-y,-z
x,y,-z
1/2-x,1/2+y,z
1/2+x,1/2-y,z
loop_
_atom_site_type_symbol
_atom_site_label
_atom_site_fract_x
_atom_site_fract_y
_atom_site_fract_z
Si Si1 0.802483 0.153865 0.201095
Si Si2 0.392931 0.846512 0.289400
Si Si3 0.994970 0.353067 0.806329
Si Si4 0.233248 0.038610 0.707750
Si Si5 0.396085 0.225480 0.705790
Si Si6 0.150080 0.535906 0.710060
Si Si7 0.000000 0.500000 0.500000
Si Si8 0.796123 0.766659 0.297551
O O1 0.798196 0.049590 0.247567
O O2 0.856585 0.197006 0.247299
O O3 0.755796 0.209151 0.285220
O O4 0.794173 0.164003 0.000000
O O5 0.395638 0.846310 0.500000
O O6 0.447412 0.818365 0.218603
O O7 0.382507 0.949764 0.238111
O O8 0.344732 0.788058 0.229888
O O9 0.952634 0.276108 0.781139
O O10 0.987313 0.425264 0.653050
O O11 0.989462 0.389673 0.000000
O O12 0.235524 0.044582 0.500000
O O13 0.291572 0.025235 0.767046
O O14 0.212721 0.133800 0.774683
O O15 0.399354 0.223234 0.500000
O O16 0.371481 0.131029 0.766983
O O17 0.149606 0.536292 0.500000
O O18 0.806792 0.777645 0.500000
#
# Coordination Sequence:
#
# PCOD9426377 Si02
#       8
#     8   8   8   8   8   8   2   8
#     4  12  24  36  54  87 125 159 199 250 310 370
#     4  10  19  36  60  86 121 160 203 253 305 364
#     4  12  25  40  60  89 124 166 212 254 308 373
#     4  10  19  37  58  85 114 154 204 246 297 360
#     4  11  21  39  63  84 118 163 206 253 306 364
#     4   9  17  29  57  85 114 151 195 241 293 358
#     4  12  22  44  60  90 128 170 202 260 308 364
#     4  10  20  37  63  87 114 158 208 253 305 369
#
# _framework density 19.098300999999999
#
# number of rings (size 3 to 8) (size 9 to 14) (size 15 to 20)
#    0.000    1.379    4.138    2.690    1.931    1.103 
#    0.000    0.690    0.000    0.828    0.000    5.793 
#    0.000    0.000    0.000    0.000    0.000    0.000 
#
# Total GULP energy -323451.519601 kJ/mol
# GULP energy per Si atom -5576.750338 kJ/mol
# Density = 1.905483 g / cm^3
# Si number density = 19.098301 Si / 1000 Ang^3
#
#
#
# Elastic Constant Matrix: (Units=GPa)
#
#
# Indices 1 2 3 4 5 6 
#
# 1 63.1353 21.5972 13.0532 0.0000 0.0000 0.0000
# 2 21.5972 86.1311 9.8450 0.0000 0.0000 0.0000
# 3 13.0532 9.8450 61.1226 0.0000 0.0000 0.0000
# 4 0.0000 0.0000 0.0000 191.5709 0.0000 0.0000
# 5 0.0000 0.0000 0.0000 0.0000 -15.4237 0.0000
# 6 0.0000 0.0000 0.0000 0.0000 0.0000 14.8187
#
#
#
# Elastic Compliance Matrix: (Units=1/GPa)
#
#
# Indices 1 2 3 4 5 6 
#
# 1 0.017904 -0.004128 -0.003159 0.000000 0.000000 0.000000
# 2 -0.004128 0.012780 -0.001177 0.000000 0.000000 0.000000
# 3 -0.003159 -0.001177 0.017225 0.000000 0.000000 0.000000
# 4 0.000000 0.000000 0.000000 0.005220 0.000000 0.000000
# 5 0.000000 0.000000 0.000000 0.000000 -0.064835 0.000000
# 6 0.000000 0.000000 0.000000 0.000000 0.000000 0.067482
#
#
# Mechanical properties :
#
#
# Convention : Reuss Voigt Hill
#
# Bulk Modulus (GPa) = 32.27770 33.26442 32.77106
# Shear Modulus (GPa) = 60.21890 49.25277 54.73583
#
# Velocity S-wave (km/s) = 5.62134 5.08380 5.35932
# Velocity P-wave (km/s) = 7.68571 7.20523 7.44935
#
# Compressibility (1/GPa) = 0.03098114
#
# Stress axis : x y z
#
# Youngs Moduli (GPa) = 55.85255 78.24781 58.05627
#
# Poissons Ratio (x) = 0.32304 0.18338
# Poissons Ratio (y) = 0.23058 0.06832
# Poissons Ratio (z) = 0.17642 0.09208
#
# Static dielectric constant tensor:
#      x y z
#    x 1.698300 0.000000 0.000000 
#    y 0.000000 1.661990 0.000000 
#    z 0.000000 0.000000 1.741380 
# 
# From -- ./inp_files/6816.got.cif
#   From: 2010.05.17/outbox.cif.g08.bks.cpg/sg55_4_cif.got.tgz:6816.got - 2010.06.03 13:27:54.
