data_PCOD9426621
_publ_section_title
;
Structure prediction by ZEFSAII (Michael W. Deem and Ramdas Pophale) SiO2 
 PCOD9426621
Probable space group: P B A M
;
_chemical_formula_sum "Si O2"
_cell_formula_units_Z 58
_cell_length_a 14.732334
_cell_length_b 23.766896
_cell_length_c 7.423028
_cell_angle_alpha 90.000000
_cell_angle_beta 90.000000
_cell_angle_gamma 90.000000
_cell_volume 2599.112757
_symmetry_space_group_name_H-M "P B A M"
_symmetry_group_IT_number 55
_symmetry_cell_setting 'orthorhombic'
loop_
_space_group_symop_operation_xyz
x,y,z
-x,-y,z
1/2+x,1/2-y,-z
1/2-x,1/2+y,-z
-x,-y,-z
x,y,-z
1/2-x,1/2+y,z
1/2+x,1/2-y,z
loop_
_atom_site_type_symbol
_atom_site_label
_atom_site_fract_x
_atom_site_fract_y
_atom_site_fract_z
Si Si1 0.815830 0.807781 0.779743
Si Si2 0.787196 0.985656 0.707671
Si Si3 0.652871 0.606048 0.791843
Si Si4 0.049742 0.093433 0.218268
Si Si5 0.311787 0.819774 0.780859
Si Si6 0.500000 0.000000 0.500000
Si Si7 0.042795 0.415736 0.782346
Si Si8 0.157297 0.615031 0.205085
O O1 0.896652 0.849922 0.728478
O O2 0.827406 0.743884 0.720313
O O3 0.721876 0.836573 0.716243
O O4 0.813558 0.808557 0.000000
O O5 0.762868 0.989131 0.500000
O O6 0.887757 0.958352 0.722294
O O7 0.719435 0.940723 0.794924
O O8 0.791793 0.047729 0.787009
O O9 0.553143 0.595416 0.714163
O O10 0.716876 0.654306 0.714088
O O11 0.637210 0.621455 0.000000
O O12 0.048904 0.089858 0.000000
O O13 0.390654 0.864207 0.740205
O O14 0.307853 0.818090 0.000000
O O15 0.438171 0.969610 0.339558
O O16 0.940892 0.398626 0.717439
O O17 0.044485 0.426511 0.000000
O O18 0.137695 0.632029 0.000000
#
# Coordination Sequence:
#
# PCOD9426621 Si02
#       8
#     8   8   8   8   8   2   8   8
#     4   8  15  32  58  85 112 142 187 239 285 343
#     4  11  22  33  53  79 111 145 184 229 280 336
#     4  10  20  33  52  78 110 144 178 223 279 335
#     4   9  18  34  55  80 107 144 185 225 279 338
#     4   9  19  35  56  86 116 146 189 239 291 347
#     4  12  26  40  64  82 124 158 210 252 298 362
#     4  10  23  40  61  89 121 160 203 248 300 356
#     4   9  19  36  59  86 112 148 193 237 288 346
#
# _framework density 22.315308999999999
#
# number of rings (size 3 to 8) (size 9 to 14) (size 15 to 20)
#    0.000    2.483    0.000    2.690    2.897    3.310 
#    0.000    5.517    6.069    0.000    3.586    0.000 
#    0.000    0.000    0.000    0.000    0.000    0.000 
#
# Total GULP energy -323467.632905 kJ/mol
# GULP energy per Si atom -5577.028154 kJ/mol
# Density = 2.226452 g / cm^3
# Si number density = 22.315309 Si / 1000 Ang^3
#
#
#
# Elastic Constant Matrix: (Units=GPa)
#
#
# Indices 1 2 3 4 5 6 
#
# 1 97.0297 21.1134 4.0489 0.0000 0.0000 0.0000
# 2 21.1134 109.1226 1.9385 0.0000 0.0000 0.0000
# 3 4.0489 1.9385 94.5142 0.0000 0.0000 0.0000
# 4 0.0000 0.0000 0.0000 4525.7261 0.0000 0.0000
# 5 0.0000 0.0000 0.0000 0.0000 -14.9515 0.0000
# 6 0.0000 0.0000 0.0000 0.0000 0.0000 27.5436
#
#
#
# Elastic Compliance Matrix: (Units=1/GPa)
#
#
# Indices 1 2 3 4 5 6 
#
# 1 0.010776 -0.002077 -0.000419 0.000000 0.000000 0.000000
# 2 -0.002077 0.009568 -0.000107 0.000000 0.000000 0.000000
# 3 -0.000419 -0.000107 0.010601 0.000000 0.000000 0.000000
# 4 0.000000 0.000000 0.000000 0.000221 0.000000 0.000000
# 5 0.000000 0.000000 0.000000 0.000000 -0.066883 0.000000
# 6 0.000000 0.000000 0.000000 0.000000 0.000000 0.036306
#
#
# Mechanical properties :
#
#
# Convention : Reuss Voigt Hill
#
# Bulk Modulus (GPa) = 38.85508 39.42978 39.14243
# Shear Modulus (GPa) = 347.84293 925.90137 636.87215
#
# Velocity S-wave (km/s) = 12.49859 20.39162 16.91202
# Velocity P-wave (km/s) = 15.02451 23.91928 19.97333
#
# Compressibility (1/GPa) = 0.02573666
#
# Stress axis : x y z
#
# Youngs Moduli (GPa) = 92.80178 104.51652 94.33451
#
# Poissons Ratio (x) = 0.21713 0.03953
# Poissons Ratio (y) = 0.19279 0.01012
# Poissons Ratio (z) = 0.03888 0.01121
#
# Static dielectric constant tensor:
#      x y z
#    x 1.857950 0.000000 0.000000 
#    y 0.000000 1.804170 0.000000 
#    z 0.000000 0.000000 1.883650 
# 
# From -- ./inp_files/6463.got.cif
#   From: 2010.05.17/outbox.cif.g08.bks.cpg/sg55_4_cif.got.tgz:6463.got - 2010.06.03 13:27:54.
