data_PCOD9426859
_publ_section_title
;
Structure prediction by ZEFSAII (Michael W. Deem and Ramdas Pophale) SiO2 
 PCOD9426859
Probable space group: P B A M
;
_chemical_formula_sum "Si O2"
_cell_formula_units_Z 64
_cell_length_a 10.815728
_cell_length_b 33.537368
_cell_length_c 9.200287
_cell_angle_alpha 90.000000
_cell_angle_beta 90.000000
_cell_angle_gamma 90.000000
_cell_volume 3337.229765
_symmetry_space_group_name_H-M "P B A M"
_symmetry_group_IT_number 55
_symmetry_cell_setting 'orthorhombic'
loop_
_space_group_symop_operation_xyz
x,y,z
-x,-y,z
1/2+x,1/2-y,-z
1/2-x,1/2+y,-z
-x,-y,-z
x,y,-z
1/2-x,1/2+y,z
1/2+x,1/2-y,z
loop_
_atom_site_type_symbol
_atom_site_label
_atom_site_fract_x
_atom_site_fract_y
_atom_site_fract_z
Si Si1 0.606229 0.031061 0.323819
Si Si2 0.967510 0.699662 0.334199
Si Si3 0.170843 0.096785 0.169699
Si Si4 0.047618 0.217090 0.826247
Si Si5 0.405375 0.359497 0.169764
Si Si6 0.662076 0.118402 0.675567
Si Si7 0.140347 0.013373 0.325560
Si Si8 0.756022 0.331455 0.664377
O O1 0.596863 0.031288 0.500000
O O2 0.596704 0.077258 0.275401
O O3 0.500000 0.000000 0.272048
O O4 0.745872 0.016245 0.289575
O O5 0.923827 0.708155 0.500000
O O6 0.109967 0.687406 0.341588
O O7 0.958752 0.739040 0.238569
O O8 0.898116 0.660279 0.277061
O O9 0.166882 0.053800 0.240663
O O10 0.259727 0.125585 0.260362
O O11 0.034697 0.116884 0.182230
O O12 0.203067 0.095700 0.000000
O O13 0.167683 0.196096 0.759702
O O14 0.935529 0.186517 0.788434
O O15 0.055017 0.217877 0.000000
O O16 0.301764 0.379644 0.267288
O O17 0.368434 0.360283 0.000000
O O18 0.659383 0.118259 0.500000
O O19 0.144143 0.019796 0.500000
O O20 0.000000 0.000000 0.289857
O O21 0.706592 0.335216 0.500000
#
# Coordination Sequence:
#
# PCOD9426859 Si02
#       8
#     8   8   8   8   8   8   8   8
#     4   9  19  35  58  84 116 153 189 236 295 353
#     4  10  23  38  57  86 116 148 192 241 289 343
#     4  10  21  37  58  85 117 154 193 235 293 350
#     4  10  22  39  59  84 116 154 193 234 289 349
#     4   9  20  38  57  82 115 152 190 230 281 345
#     4  10  21  37  59  86 113 147 192 238 286 343
#     4  10  20  34  58  90 115 146 199 250 294 349
#     4  10  21  38  60  85 115 148 192 243 288 339
#
# _framework density 19.177582999999998
#
# number of rings (size 3 to 8) (size 9 to 14) (size 15 to 20)
#    0.000    2.250    0.000    2.625    3.500    5.750 
#    0.000    0.625    0.000    0.750    0.000    0.000 
#    0.000    0.000    0.000    0.000    0.000    0.000 
#
# Total GULP energy -357021.427547 kJ/mol
# GULP energy per Si atom -5578.459805 kJ/mol
# Density = 1.913393 g / cm^3
# Si number density = 19.177583 Si / 1000 Ang^3
#
#
#
# Elastic Constant Matrix: (Units=GPa)
#
#
# Indices 1 2 3 4 5 6 
#
# 1 33.7965 7.7187 1.5545 0.0000 0.0000 0.0000
# 2 7.7187 128.9408 36.1255 0.0000 0.0000 0.0000
# 3 1.5545 36.1255 31.2092 0.0000 0.0000 0.0000
# 4 0.0000 0.0000 0.0000 20.5374 0.0000 0.0000
# 5 0.0000 0.0000 0.0000 0.0000 169.7175 0.0000
# 6 0.0000 0.0000 0.0000 0.0000 0.0000 21.2996
#
#
#
# Elastic Compliance Matrix: (Units=1/GPa)
#
#
# Indices 1 2 3 4 5 6 
#
# 1 0.030015 -0.002039 0.000865 0.000000 0.000000 0.000000
# 2 -0.002039 0.011616 -0.013345 0.000000 0.000000 0.000000
# 3 0.000865 -0.013345 0.047445 0.000000 0.000000 0.000000
# 4 0.000000 0.000000 0.000000 0.048692 0.000000 0.000000
# 5 0.000000 0.000000 0.000000 0.000000 0.005892 0.000000
# 6 0.000000 0.000000 0.000000 0.000000 0.000000 0.046949
#
#
# Mechanical properties :
#
#
# Convention : Reuss Voigt Hill
#
# Bulk Modulus (GPa) = 16.65567 31.63822 24.14694
# Shear Modulus (GPa) = 20.86291 52.21410 36.53850
#
# Velocity S-wave (km/s) = 3.30188 5.22358 4.36968
# Velocity P-wave (km/s) = 4.82083 7.27422 6.17068
#
# Compressibility (1/GPa) = 0.06003962
#
# Stress axis : x y z
#
# Youngs Moduli (GPa) = 33.31695 86.08556 21.07684
#
# Poissons Ratio (x) = 0.17555 -0.01824
# Poissons Ratio (y) = 0.06794 0.28126
# Poissons Ratio (z) = -0.02883 1.14878
#
# Static dielectric constant tensor:
#      x y z
#    x 1.673560 0.000000 0.000000 
#    y 0.000000 1.689110 0.000000 
#    z 0.000000 0.000000 1.646860 
# 
# From -- ./inp_files/4706.got.cif
#   From: 2010.05.17/outbox.cif.g08.bks.cpg/sg55_3_cif.got.tgz:4706.got - 2010.06.03 13:27:54.
