data_PCOD9426174
_publ_section_title
;
Structure prediction by ZEFSAII (Michael W. Deem and Ramdas Pophale) SiO2 
 PCOD9426174
Probable space group: P B A M
;
_chemical_formula_sum "Si O2"
_cell_formula_units_Z 48
_cell_length_a 14.190836
_cell_length_b 8.136585
_cell_length_c 16.603608
_cell_angle_alpha 90.000000
_cell_angle_beta 90.000000
_cell_angle_gamma 90.000000
_cell_volume 1917.134657
_symmetry_space_group_name_H-M "P B A M"
_symmetry_group_IT_number 55
_symmetry_cell_setting 'orthorhombic'
loop_
_space_group_symop_operation_xyz
x,y,z
-x,-y,z
1/2+x,1/2-y,-z
1/2-x,1/2+y,-z
-x,-y,-z
x,y,-z
1/2-x,1/2+y,z
1/2+x,1/2-y,z
loop_
_atom_site_type_symbol
_atom_site_label
_atom_site_fract_x
_atom_site_fract_y
_atom_site_fract_z
Si Si1 0.152497 0.434948 0.171548
Si Si2 0.108257 0.337524 0.339921
Si Si3 0.655846 0.051863 0.000000
Si Si4 0.729306 0.461320 0.593058
Si Si5 0.563168 0.651877 0.357715
Si Si6 0.129455 0.827136 0.177323
Si Si7 0.626670 0.658916 0.000000
O O1 0.098670 0.352315 0.244284
O O2 0.119310 0.375869 0.083603
O O3 0.138556 0.629668 0.175752
O O4 0.263472 0.396824 0.181562
O O5 0.170554 0.489556 0.370008
O O6 0.004671 0.305597 0.374212
O O7 0.172314 0.178022 0.359289
O O8 0.637261 0.857400 0.000000
O O9 0.768011 0.081742 0.000000
O O10 0.735846 0.417686 0.500000
O O11 0.663514 0.624809 0.601552
O O12 0.500000 0.500000 0.387325
O O13 0.580102 0.632210 0.261600
O O14 0.088802 0.881174 0.089813
#
# Coordination Sequence:
#
# PCOD9426174 Si02
#       7
#     8   8   4   8   8   8   4
#     4  10  19  34  63  88 127 166 207 255 300 362
#     4  11  23  41  65  94 122 159 204 253 309 371
#     4   8  16  30  51  91 117 162 211 246 299 351
#     4  11  24  44  67  91 121 161 204 253 315 378
#     4  10  24  40  63  92 125 161 206 254 311 371
#     4  10  19  36  59  92 128 167 214 254 306 362
#     4   8  16  30  54  83 126 167 205 259 297 352
#
# _framework density 25.037367
#
# number of rings (size 3 to 8) (size 9 to 14) (size 15 to 20)
#    0.000    2.000    1.667    1.500    2.333    4.333 
#    0.000    1.250    0.000    5.000    0.000    0.000 
#    0.000    0.000    0.000    0.000    0.000    0.000 
#
# Total GULP energy -268443.515857 kJ/mol
# GULP energy per Si atom -5592.573247 kJ/mol
# Density = 2.498038 g / cm^3
# Si number density = 25.037367 Si / 1000 Ang^3
#
#
#
# Elastic Constant Matrix: (Units=GPa)
#
#
# Indices 1 2 3 4 5 6 
#
# 1 101.5561 29.4239 4.4228 0.0000 0.0000 0.0000
# 2 29.4239 54.6418 27.5082 0.0000 0.0000 0.0000
# 3 4.4228 27.5082 123.1111 0.0000 0.0000 0.0000
# 4 0.0000 0.0000 0.0000 29.8760 0.0000 0.0000
# 5 0.0000 0.0000 0.0000 0.0000 16.8770 0.0000
# 6 0.0000 0.0000 0.0000 0.0000 0.0000 41.5899
#
#
#
# Elastic Compliance Matrix: (Units=1/GPa)
#
#
# Indices 1 2 3 4 5 6 
#
# 1 0.011803 -0.006921 0.001122 0.000000 0.000000 0.000000
# 2 -0.006921 0.024679 -0.005266 0.000000 0.000000 0.000000
# 3 0.001122 -0.005266 0.009259 0.000000 0.000000 0.000000
# 4 0.000000 0.000000 0.000000 0.033472 0.000000 0.000000
# 5 0.000000 0.000000 0.000000 0.000000 0.059252 0.000000
# 6 0.000000 0.000000 0.000000 0.000000 0.000000 0.024044
#
#
# Mechanical properties :
#
#
# Convention : Reuss Voigt Hill
#
# Bulk Modulus (GPa) = 42.35036 44.66875 43.50956
# Shear Modulus (GPa) = 25.97296 32.19887 29.08592
#
# Velocity S-wave (km/s) = 3.22431 3.59002 3.41207
# Velocity P-wave (km/s) = 5.55096 5.92148 5.73921
#
# Compressibility (1/GPa) = 0.02361255
#
# Stress axis : x y z
#
# Youngs Moduli (GPa) = 84.72376 40.52090 108.00319
#
# Poissons Ratio (x) = 0.28044 -0.12122
# Poissons Ratio (y) = 0.58636 0.56870
# Poissons Ratio (z) = -0.09509 0.21337
#
# Static dielectric constant tensor:
#      x y z
#    x 1.946770 0.000000 0.000000 
#    y 0.000000 1.990360 0.000000 
#    z 0.000000 0.000000 1.973640 
# 
# From -- ./inp_files/20854.got.cif
#   From: 2010.05.17/outbox.cif.g08.bks.cpg/sg55_11_cif.got.tgz:20854.got - 2010.06.03 13:27:54.
