data_PCOD9426000
_publ_section_title
;
Structure prediction by ZEFSAII (Michael W. Deem and Ramdas Pophale) SiO2 
 PCOD9426000
Probable space group: P B A M
;
_chemical_formula_sum "Si O2"
_cell_formula_units_Z 48
_cell_length_a 24.151984
_cell_length_b 7.511872
_cell_length_c 12.767015
_cell_angle_alpha 90.000000
_cell_angle_beta 90.000000
_cell_angle_gamma 90.000000
_cell_volume 2316.276281
_symmetry_space_group_name_H-M "P B A M"
_symmetry_group_IT_number 55
_symmetry_cell_setting 'orthorhombic'
loop_
_space_group_symop_operation_xyz
x,y,z
-x,-y,z
1/2+x,1/2-y,-z
1/2-x,1/2+y,-z
-x,-y,-z
x,y,-z
1/2-x,1/2+y,z
1/2+x,1/2-y,z
loop_
_atom_site_type_symbol
_atom_site_label
_atom_site_fract_x
_atom_site_fract_y
_atom_site_fract_z
Si Si1 0.446762 0.247599 0.118721
Si Si2 0.938298 0.968861 0.692993
Si Si3 0.429306 0.839353 0.833486
Si Si4 0.678890 0.589389 0.381005
Si Si5 0.768362 0.396664 0.254630
Si Si6 0.689872 0.195721 0.115997
O O1 0.436371 0.405991 0.201375
O O2 0.513093 0.218348 0.114237
O O3 0.425566 0.053719 0.158911
O O4 0.426175 0.279908 0.000000
O O5 0.884013 0.024058 0.629830
O O6 0.933314 0.760277 0.722221
O O7 0.000000 0.000000 0.647997
O O8 0.374519 0.756978 0.884014
O O9 0.689343 0.644855 0.500000
O O10 0.723829 0.443156 0.344267
O O11 0.691823 0.745406 0.298274
O O12 0.731979 0.346530 0.152744
O O13 0.803579 0.560517 0.212913
O O14 0.703762 0.129678 0.000000
#
# Coordination Sequence:
#
# PCOD9426000 Si02
#       6
#     8   8   8   8   8   8
#     4  10  20  33  54  85 121 159 199 232 283 353
#     4  10  22  38  58  89 120 153 197 253 299 361
#     4  10  19  34  54  81 118 158 196 234 281 346
#     4  11  22  42  63  84 111 153 203 258 306 344
#     4  10  23  38  58  88 115 147 201 244 291 361
#     4  11  20  35  57  83 122 155 183 228 295 359
#
# _framework density 20.722916000000001
#
# number of rings (size 3 to 8) (size 9 to 14) (size 15 to 20)
#    0.000    1.667    1.667    4.000    0.000    4.667 
#    0.000    0.833    0.000    0.000    0.000    7.000 
#    0.000    0.000    0.000    0.000    0.000    0.000 
#
# Total GULP energy -267528.287552 kJ/mol
# GULP energy per Si atom -5573.505991 kJ/mol
# Density = 2.067575 g / cm^3
# Si number density = 20.722916 Si / 1000 Ang^3
#
#
#
# Elastic Constant Matrix: (Units=GPa)
#
#
# Indices 1 2 3 4 5 6 
#
# 1 96.6516 1.9516 25.7666 0.0000 0.0000 0.0000
# 2 1.9516 41.1352 2.7135 0.0000 0.0000 0.0000
# 3 25.7666 2.7135 57.5264 0.0000 0.0000 0.0000
# 4 0.0000 0.0000 0.0000 13.7214 0.0000 0.0000
# 5 0.0000 0.0000 0.0000 0.0000 -55.9488 0.0000
# 6 0.0000 0.0000 0.0000 0.0000 0.0000 20.9730
#
#
#
# Elastic Compliance Matrix: (Units=1/GPa)
#
#
# Indices 1 2 3 4 5 6 
#
# 1 0.011751 -0.000211 -0.005254 0.000000 0.000000 0.000000
# 2 -0.000211 0.024390 -0.001056 0.000000 0.000000 0.000000
# 3 -0.005254 -0.001056 0.019786 0.000000 0.000000 0.000000
# 4 0.000000 0.000000 0.000000 0.072879 0.000000 0.000000
# 5 0.000000 0.000000 0.000000 0.000000 -0.017873 0.000000
# 6 0.000000 0.000000 0.000000 0.000000 0.000000 0.047680
#
#
# Mechanical properties :
#
#
# Convention : Reuss Voigt Hill
#
# Bulk Modulus (GPa) = 23.31749 28.46408 25.89079
# Shear Modulus (GPa) = 26.88900 6.74121 16.81510
#
# Velocity S-wave (km/s) = 3.60606 1.80557 2.85164
# Velocity P-wave (km/s) = 5.34927 4.25584 4.83357
#
# Compressibility (1/GPa) = 0.04288626
#
# Stress axis : x y z
#
# Youngs Moduli (GPa) = 85.09726 41.00088 50.54013
#
# Poissons Ratio (x) = 0.00865 0.26552
# Poissons Ratio (y) = 0.01795 0.05337
# Poissons Ratio (z) = 0.44706 0.04330
#
# Static dielectric constant tensor:
#      x y z
#    x 1.751970 0.000000 0.000000 
#    y 0.000000 1.815680 0.000000 
#    z 0.000000 0.000000 1.716370 
# 
# From -- ./inp_files/15626.got.cif
#   From: 2010.05.17/outbox.cif.g08.bks.cpg/sg55_8_cif.got.tgz:15626.got - 2010.06.03 13:27:54.
