data_PCOD9426115
_publ_section_title
;
Structure prediction by ZEFSAII (Michael W. Deem and Ramdas Pophale) SiO2 
 PCOD9426115
Probable space group: P B A M
;
_chemical_formula_sum "Si O2"
_cell_formula_units_Z 52
_cell_length_a 18.657323
_cell_length_b 13.812392
_cell_length_c 7.806399
_cell_angle_alpha 90.000000
_cell_angle_beta 90.000000
_cell_angle_gamma 90.000000
_cell_volume 2011.726657
_symmetry_space_group_name_H-M "P B A M"
_symmetry_group_IT_number 55
_symmetry_cell_setting 'orthorhombic'
loop_
_space_group_symop_operation_xyz
x,y,z
-x,-y,z
1/2+x,1/2-y,-z
1/2-x,1/2+y,-z
-x,-y,-z
x,y,-z
1/2-x,1/2+y,z
1/2+x,1/2-y,z
loop_
_atom_site_type_symbol
_atom_site_label
_atom_site_fract_x
_atom_site_fract_y
_atom_site_fract_z
Si Si1 0.602079 0.949770 0.808802
Si Si2 0.012022 0.156201 0.696881
Si Si3 0.728269 0.834498 0.305145
Si Si4 0.856360 0.955658 0.699768
Si Si5 0.269716 0.365403 0.192988
Si Si6 0.052122 0.735901 0.000000
Si Si7 0.399045 0.840618 0.206678
O O1 0.668684 0.917173 0.696527
O O2 0.571194 0.052173 0.749445
O O3 0.631316 0.975522 0.000000
O O4 0.558105 0.853205 0.852361
O O5 0.985435 0.141936 0.500000
O O6 0.063719 0.067870 0.755444
O O7 0.957225 0.183376 0.846052
O O8 0.065709 0.250298 0.699075
O O9 0.739106 0.801184 0.500000
O O10 0.799189 0.879971 0.223140
O O11 0.700718 0.743586 0.199245
O O12 0.858234 0.930793 0.500000
O O13 0.819679 0.059772 0.710512
O O14 0.186193 0.351307 0.243458
O O15 0.270283 0.400947 0.000000
O O16 0.411324 0.820293 0.000000
#
# Coordination Sequence:
#
# PCOD9426115 Si02
#       7
#     8   8   8   8   8   4   8
#     4   9  21  39  59  81 119 158 204 246 297 343
#     4  11  23  39  62  90 121 164 208 250 305 362
#     4  11  21  36  59  88 124 157 192 244 304 368
#     4  10  22  37  57  89 125 155 195 248 304 368
#     4  11  22  33  59  91 124 158 190 236 308 377
#     4  10  24  43  64  79 126 162 212 267 292 343
#     4  10  19  34  57  87 123 164 192 246 297 360
#
# _framework density 25.848441999999999
#
# number of rings (size 3 to 8) (size 9 to 14) (size 15 to 20)
#    0.462    1.231    3.846    0.923    1.077    3.692 
#    0.000    0.769    0.000    1.846    0.000    3.231 
#    0.000    0.000    0.000    0.000    0.000    0.000 
#
# Total GULP energy -289550.670079 kJ/mol
# GULP energy per Si atom -5568.282117 kJ/mol
# Density = 2.578961 g / cm^3
# Si number density = 25.848442 Si / 1000 Ang^3
#
#
#
# Elastic Constant Matrix: (Units=GPa)
#
#
# Indices 1 2 3 4 5 6 
#
# 1 87.0843 31.4061 16.3314 0.0000 0.0000 0.0000
# 2 31.4061 87.7102 -6.4510 0.0000 0.0000 0.0000
# 3 16.3314 -6.4510 75.6117 0.0000 0.0000 0.0000
# 4 0.0000 0.0000 0.0000 117.0316 0.0000 0.0000
# 5 0.0000 0.0000 0.0000 0.0000 3.0142 0.0000
# 6 0.0000 0.0000 0.0000 0.0000 0.0000 58.5428
#
#
#
# Elastic Compliance Matrix: (Units=1/GPa)
#
#
# Indices 1 2 3 4 5 6 
#
# 1 0.014042 -0.005284 -0.003484 0.000000 0.000000 0.000000
# 2 -0.005284 0.013462 0.002290 0.000000 0.000000 0.000000
# 3 -0.003484 0.002290 0.014173 0.000000 0.000000 0.000000
# 4 0.000000 0.000000 0.000000 0.008545 0.000000 0.000000
# 5 0.000000 0.000000 0.000000 0.000000 0.331758 0.000000
# 6 0.000000 0.000000 0.000000 0.000000 0.000000 0.017082
#
#
# Mechanical properties :
#
#
# Convention : Reuss Voigt Hill
#
# Bulk Modulus (GPa) = 34.81801 36.99769 35.90785
# Shear Modulus (GPa) = 11.85983 49.65902 30.75943
#
# Velocity S-wave (km/s) = 2.14434 4.38786 3.45337
# Velocity P-wave (km/s) = 4.43060 6.32578 5.46103
#
# Compressibility (1/GPa) = 0.02872077
#
# Stress axis : x y z
#
# Youngs Moduli (GPa) = 71.21393 74.28464 70.55523
#
# Poissons Ratio (x) = 0.39254 0.24580
# Poissons Ratio (y) = 0.37631 -0.16156
# Poissons Ratio (z) = 0.24810 -0.17010
#
# Static dielectric constant tensor:
#      x y z
#    x 2.297390 0.000000 0.000000 
#    y 0.000000 2.048360 0.000000 
#    z 0.000000 0.000000 1.955400 
# 
# From -- ./inp_files/8613.got.cif
#   From: 2010.05.17/outbox.cif.g08.bks.cpg/sg55_5_cif.got.tgz:8613.got - 2010.06.03 13:27:54.
