data_PCOD9426695
_publ_section_title
;
Structure prediction by ZEFSAII (Michael W. Deem and Ramdas Pophale) SiO2 
 PCOD9426695
Probable space group: P B A M
;
_chemical_formula_sum "Si O2"
_cell_formula_units_Z 40
_cell_length_a 12.810732
_cell_length_b 21.279062
_cell_length_c 8.882815
_cell_angle_alpha 90.000000
_cell_angle_beta 90.000000
_cell_angle_gamma 90.000000
_cell_volume 2421.458571
_symmetry_space_group_name_H-M "P B A M"
_symmetry_group_IT_number 55
_symmetry_cell_setting 'orthorhombic'
loop_
_space_group_symop_operation_xyz
x,y,z
-x,-y,z
1/2+x,1/2-y,-z
1/2-x,1/2+y,-z
-x,-y,-z
x,y,-z
1/2-x,1/2+y,z
1/2+x,1/2-y,z
loop_
_atom_site_type_symbol
_atom_site_label
_atom_site_fract_x
_atom_site_fract_y
_atom_site_fract_z
Si Si1 0.330850 0.663959 0.180325
Si Si2 0.175400 0.840619 0.179675
Si Si3 0.498271 0.574038 0.320211
Si Si4 0.615409 0.200891 0.678930
Si Si5 0.900091 0.302321 0.821853
O O1 0.398129 0.607693 0.247084
O O2 0.370793 0.729106 0.252393
O O3 0.206989 0.660794 0.211267
O O4 0.344847 0.668074 0.000000
O O5 0.290405 0.839348 0.250888
O O6 0.126924 0.771094 0.208313
O O7 0.099343 0.891513 0.252039
O O8 0.181509 0.848379 0.000000
O O9 0.500000 0.500000 0.288287
O O10 0.496216 0.583256 0.500000
O O11 0.624941 0.203336 0.500000
O O12 0.501099 0.178427 0.728769
O O13 0.922467 0.307733 0.000000
#
# Coordination Sequence:
#
# PCOD9426695 Si02
#       5
#     8   8   8   8   8
#     4  10  20  34  52  75 105 141 180 217 259 314
#     4  10  20  34  53  75 105 141 179 217 259 316
#     4  11  23  37  54  78 109 141 177 222 267 314
#     4  11  20  30  51  79 110 139 169 216 270 318
#     4   9  18  32  51  76 106 137 172 216 264 314
#
# _framework density 16.518969999999999
#
# number of rings (size 3 to 8) (size 9 to 14) (size 15 to 20)
#    0.000    1.800    2.000    4.800    0.000    5.600 
#    0.000    0.000    0.000    1.200    0.000    8.400 
#    0.000    0.000    0.000    0.000    0.000    0.000 
#
# Total GULP energy -223319.544205 kJ/mol
# GULP energy per Si atom -5582.988605 kJ/mol
# Density = 1.648137 g / cm^3
# Si number density = 16.518970 Si / 1000 Ang^3
#
#
#
# Elastic Constant Matrix: (Units=GPa)
#
#
# Indices 1 2 3 4 5 6 
#
# 1 161.9897 68.5624 89.3551 0.0000 0.0000 0.0000
# 2 68.5624 81.7083 58.7725 0.0000 0.0000 0.0000
# 3 89.3551 58.7725 99.1047 0.0000 0.0000 0.0000
# 4 0.0000 0.0000 0.0000 16.3269 0.0000 0.0000
# 5 0.0000 0.0000 0.0000 0.0000 8.0181 0.0000
# 6 0.0000 0.0000 0.0000 0.0000 0.0000 19.2260
#
#
#
# Elastic Compliance Matrix: (Units=1/GPa)
#
#
# Indices 1 2 3 4 5 6 
#
# 1 0.013115 -0.004359 -0.009240 0.000000 0.000000 0.000000
# 2 -0.004359 0.022791 -0.009586 0.000000 0.000000 0.000000
# 3 -0.009240 -0.009586 0.024106 0.000000 0.000000 0.000000
# 4 0.000000 0.000000 0.000000 0.061249 0.000000 0.000000
# 5 0.000000 0.000000 0.000000 0.000000 0.124717 0.000000
# 6 0.000000 0.000000 0.000000 0.000000 0.000000 0.052013
#
#
# Mechanical properties :
#
#
# Convention : Reuss Voigt Hill
#
# Bulk Modulus (GPa) = 73.29769 86.24252 79.77011
# Shear Modulus (GPa) = 14.33042 17.12171 15.72607
#
# Velocity S-wave (km/s) = 2.94855 3.22295 3.08880
# Velocity P-wave (km/s) = 7.48733 8.13458 7.81765
#
# Compressibility (1/GPa) = 0.01364299
#
# Stress axis : x y z
#
# Youngs Moduli (GPa) = 76.24980 43.87619 41.48328
#
# Poissons Ratio (x) = 0.19124 0.38330
# Poissons Ratio (y) = 0.33235 0.39767
# Poissons Ratio (z) = 0.70453 0.42061
#
# Static dielectric constant tensor:
#      x y z
#    x 1.572680 0.000000 0.000000 
#    y 0.000000 1.519970 0.000000 
#    z 0.000000 0.000000 1.546430 
# 
# From -- ./inp_files/3629.got.cif
#   From: 2010.05.17/outbox.cif.g08.bks.cpg/sg55_2_cif.got.tgz:3629.got - 2010.06.03 13:27:54.
