data_PCOD9426006
_publ_section_title
;
Structure prediction by ZEFSAII (Michael W. Deem and Ramdas Pophale) SiO2 
 PCOD9426006
Probable space group: P B A M
;
_chemical_formula_sum "Si O2"
_cell_formula_units_Z 56
_cell_length_a 9.208754
_cell_length_b 18.817053
_cell_length_c 15.146575
_cell_angle_alpha 90.000000
_cell_angle_beta 90.000000
_cell_angle_gamma 90.000000
_cell_volume 2624.622934
_symmetry_space_group_name_H-M "P B A M"
_symmetry_group_IT_number 55
_symmetry_cell_setting 'orthorhombic'
loop_
_space_group_symop_operation_xyz
x,y,z
-x,-y,z
1/2+x,1/2-y,-z
1/2-x,1/2+y,-z
-x,-y,-z
x,y,-z
1/2-x,1/2+y,z
1/2+x,1/2-y,z
loop_
_atom_site_type_symbol
_atom_site_label
_atom_site_fract_x
_atom_site_fract_y
_atom_site_fract_z
Si Si1 0.272153 0.647686 0.769219
Si Si2 0.632495 0.896587 0.398275
Si Si3 0.436894 0.433390 0.274686
Si Si4 0.199855 0.437093 0.600875
Si Si5 0.038127 0.617988 0.099258
Si Si6 0.699028 0.586415 0.100900
Si Si7 0.028054 0.216349 0.098687
O O1 0.190997 0.656816 0.676138
O O2 0.423215 0.612104 0.743096
O O3 0.160514 0.601227 0.828775
O O4 0.339703 0.707810 0.832747
O O5 0.671496 0.879472 0.500000
O O6 0.459095 0.903479 0.392263
O O7 0.685423 0.978022 0.379807
O O8 0.500000 0.500000 0.327242
O O9 0.309063 0.400848 0.331537
O O10 0.367192 0.457413 0.181595
O O11 0.249079 0.430338 0.500000
O O12 0.872232 0.593240 0.114691
O O13 0.027486 0.703570 0.102024
O O14 0.079300 0.594866 0.000000
O O15 0.606336 0.660652 0.109071
O O16 0.675476 0.561402 0.000000
O O17 0.087552 0.202834 0.000000
#
# Coordination Sequence:
#
# PCOD9426006 Si02
#       7
#     8   8   8   8   8   8   8
#     4  11  20  31  53  82 107 136 174 218 267 318
#     4   9  18  33  54  79 106 138 176 217 259 309
#     4  11  21  33  48  73 107 141 171 211 261 312
#     4   9  18  34  54  75 103 139 178 220 261 299
#     4  10  19  34  55  77 100 131 176 226 265 307
#     4   9  19  33  48  69 100 136 171 207 256 316
#     4   9  18  33  54  79 104 130 168 221 271 306
#
# _framework density 21.336397000000002
#
# number of rings (size 3 to 8) (size 9 to 14) (size 15 to 20)
#    0.000    2.286    1.429    3.000    0.000    4.000 
#    0.000    0.000    0.000    2.571    0.000    4.000 
#    0.000    0.000    0.000    0.000    0.000    0.000 
#
# Total GULP energy -312083.288145 kJ/mol
# GULP energy per Si atom -5572.915860 kJ/mol
# Density = 2.128783 g / cm^3
# Si number density = 21.336397 Si / 1000 Ang^3
#
#
#
# Elastic Constant Matrix: (Units=GPa)
#
#
# Indices 1 2 3 4 5 6 
#
# 1 111.1774 3.4540 80.0619 0.0000 0.0000 0.0000
# 2 3.4540 14.2588 8.2236 0.0000 0.0000 0.0000
# 3 80.0619 8.2236 125.1747 0.0000 0.0000 0.0000
# 4 0.0000 0.0000 0.0000 14.7833 0.0000 0.0000
# 5 0.0000 0.0000 0.0000 0.0000 -84.2545 0.0000
# 6 0.0000 0.0000 0.0000 0.0000 0.0000 25.1480
#
#
#
# Elastic Compliance Matrix: (Units=1/GPa)
#
#
# Indices 1 2 3 4 5 6 
#
# 1 0.016741 0.002204 -0.010853 0.000000 0.000000 0.000000
# 2 0.002204 0.073184 -0.006218 0.000000 0.000000 0.000000
# 3 -0.010853 -0.006218 0.015339 0.000000 0.000000 0.000000
# 4 0.000000 0.000000 0.000000 0.067644 0.000000 0.000000
# 5 0.000000 0.000000 0.000000 0.000000 -0.011869 0.000000
# 6 0.000000 0.000000 0.000000 0.000000 0.000000 0.039765
#
#
# Mechanical properties :
#
#
# Convention : Reuss Voigt Hill
#
# Bulk Modulus (GPa) = 13.23951 48.23221 30.73586
# Shear Modulus (GPa) = 19.55311 1.72680 10.63996
#
# Velocity S-wave (km/s) = 3.03053 0.90060 2.23553
# Velocity P-wave (km/s) = 4.29698 4.87197 4.59348
#
# Compressibility (1/GPa) = 0.07553147
#
# Stress axis : x y z
#
# Youngs Moduli (GPa) = 59.73209 13.66417 65.19481
#
# Poissons Ratio (x) = -0.03011 0.70753
# Poissons Ratio (y) = -0.13164 0.40535
# Poissons Ratio (z) = 0.64825 0.08496
#
# Static dielectric constant tensor:
#      x y z
#    x 1.781350 0.000000 0.000000 
#    y 0.000000 1.795990 0.000000 
#    z 0.000000 0.000000 1.820810 
# 
# From -- ./inp_files/17649.got.cif
#   From: 2010.05.17/outbox.cif.g08.bks.cpg/sg55_9_cif.got.tgz:17649.got - 2010.06.03 13:27:54.
