data_PCOD9426579
_publ_section_title
;
Structure prediction by ZEFSAII (Michael W. Deem and Ramdas Pophale) SiO2 
 PCOD9426579
Probable space group: P B A M
;
_chemical_formula_sum "Si O2"
_cell_formula_units_Z 58
_cell_length_a 13.914417
_cell_length_b 7.580380
_cell_length_c 26.283476
_cell_angle_alpha 90.000000
_cell_angle_beta 90.000000
_cell_angle_gamma 90.000000
_cell_volume 2772.290852
_symmetry_space_group_name_H-M "P B A M"
_symmetry_group_IT_number 55
_symmetry_cell_setting 'orthorhombic'
loop_
_space_group_symop_operation_xyz
x,y,z
-x,-y,z
1/2+x,1/2-y,-z
1/2-x,1/2+y,-z
-x,-y,-z
x,y,-z
1/2-x,1/2+y,z
1/2+x,1/2-y,z
loop_
_atom_site_type_symbol
_atom_site_label
_atom_site_fract_x
_atom_site_fract_y
_atom_site_fract_z
Si Si1 0.458086 0.300174 0.755488
Si Si2 0.464806 0.294858 0.588582
Si Si3 0.893464 0.714998 0.320782
Si Si4 0.500000 0.000000 0.500000
Si Si5 0.406432 0.667948 0.057520
Si Si6 0.709897 0.966014 0.058020
Si Si7 0.682992 0.611600 0.669652
Si Si8 0.058706 0.683715 0.131033
O O1 0.500000 0.500000 0.756199
O O2 0.545837 0.189259 0.730604
O O3 0.368717 0.288184 0.716474
O O4 0.428950 0.249711 0.811933
O O5 0.500000 0.500000 0.576576
O O6 0.533019 0.215502 0.632627
O O7 0.472499 0.152340 0.543893
O O8 0.361142 0.317236 0.616430
O O9 0.797349 0.605441 0.328010
O O10 0.854696 0.914599 0.322827
O O11 0.323814 0.524639 0.066651
O O12 0.490546 0.690117 0.097588
O O13 0.342778 0.846653 0.059333
O O14 0.444438 0.657161 0.000000
O O15 0.656393 0.854766 0.100980
O O16 0.696294 0.896119 0.000000
O O17 0.000000 0.500000 0.133477
#
# Coordination Sequence:
#
# PCOD9426579 Si02
#       8
#     8   8   8   2   8   8   8   8
#     4   9  20  37  52  78 109 143 175 225 283 326
#     4   9  21  40  59  87 124 156 191 238 283 327
#     4   9  19  37  61  81 110 147 188 229 274 328
#     4  12  22  36  68  90 120 162 198 228 286 330
#     4   9  18  33  51  70  96 133 174 215 266 326
#     4   9  18  33  51  70  96 133 174 215 266 326
#     4   9  19  37  61  81 110 147 188 229 274 328
#     4  10  20  33  50  74 103 132 173 221 270 323
#
# _framework density 20.921325
#
# number of rings (size 3 to 8) (size 9 to 14) (size 15 to 20)
#    0.000    2.759    0.000    2.276    1.931    4.966 
#    2.483    6.207    0.000    4.138    0.000    0.000 
#    0.000    0.000    0.000    0.000    0.000    0.000 
#
# Total GULP energy -323144.573670 kJ/mol
# GULP energy per Si atom -5571.458167 kJ/mol
# Density = 2.087371 g / cm^3
# Si number density = 20.921325 Si / 1000 Ang^3
#
#
#
# Elastic Constant Matrix: (Units=GPa)
#
#
# Indices 1 2 3 4 5 6 
#
# 1 40.9189 9.9218 16.5918 0.0000 0.0000 0.0000
# 2 9.9218 86.9626 44.3035 0.0000 0.0000 0.0000
# 3 16.5918 44.3035 110.0267 0.0000 0.0000 0.0000
# 4 0.0000 0.0000 0.0000 189.1731 0.0000 0.0000
# 5 0.0000 0.0000 0.0000 0.0000 2.2707 0.0000
# 6 0.0000 0.0000 0.0000 0.0000 0.0000 33.2160
#
#
#
# Elastic Compliance Matrix: (Units=1/GPa)
#
#
# Indices 1 2 3 4 5 6 
#
# 1 0.026134 -0.001225 -0.003447 0.000000 0.000000 0.000000
# 2 -0.001225 0.014524 -0.005664 0.000000 0.000000 0.000000
# 3 -0.003447 -0.005664 0.011889 0.000000 0.000000 0.000000
# 4 0.000000 0.000000 0.000000 0.005286 0.000000 0.000000
# 5 0.000000 0.000000 0.000000 0.000000 0.440402 0.000000
# 6 0.000000 0.000000 0.000000 0.000000 0.000000 0.030106
#
#
# Mechanical properties :
#
#
# Convention : Reuss Voigt Hill
#
# Bulk Modulus (GPa) = 31.37337 42.17138 36.77237
# Shear Modulus (GPa) = 8.93434 56.07137 32.50285
#
# Velocity S-wave (km/s) = 2.06875 5.18259 3.94582
# Velocity P-wave (km/s) = 4.55354 7.48420 6.19467
#
# Compressibility (1/GPa) = 0.03187417
#
# Stress axis : x y z
#
# Youngs Moduli (GPa) = 38.26496 68.84987 84.11070
#
# Poissons Ratio (x) = 0.08436 0.28997
# Poissons Ratio (y) = 0.04689 0.47637
# Poissons Ratio (z) = 0.13192 0.38994
#
# Static dielectric constant tensor:
#      x y z
#    x 1.810410 0.000000 0.000000 
#    y 0.000000 1.869730 0.000000 
#    z 0.000000 0.000000 1.705390 
# 
# From -- ./inp_files/23598.got.cif
#   From: 2010.05.17/outbox.cif.g08.bks.cpg/sg55_12_cif.got.tgz:23598.got - 2010.06.03 13:27:54.
