data_PCOD9426903
_publ_section_title
;
Structure prediction by ZEFSAII (Michael W. Deem and Ramdas Pophale) SiO2 
 PCOD9426903
Probable space group: P B A M
;
_chemical_formula_sum "Si O2"
_cell_formula_units_Z 64
_cell_length_a 15.064616
_cell_length_b 24.762520
_cell_length_c 7.538555
_cell_angle_alpha 90.000000
_cell_angle_beta 90.000000
_cell_angle_gamma 90.000000
_cell_volume 2812.166387
_symmetry_space_group_name_H-M "P B A M"
_symmetry_group_IT_number 55
_symmetry_cell_setting 'orthorhombic'
loop_
_space_group_symop_operation_xyz
x,y,z
-x,-y,z
1/2+x,1/2-y,-z
1/2-x,1/2+y,-z
-x,-y,-z
x,y,-z
1/2-x,1/2+y,z
1/2+x,1/2-y,z
loop_
_atom_site_type_symbol
_atom_site_label
_atom_site_fract_x
_atom_site_fract_y
_atom_site_fract_z
Si Si1 0.495479 0.364424 0.285498
Si Si2 0.789969 0.252726 0.208247
Si Si3 0.296440 0.367550 0.206613
Si Si4 0.586935 0.257355 0.711394
Si Si5 0.447080 0.169042 0.211982
Si Si6 0.729328 0.022834 0.203717
Si Si7 0.089511 0.031357 0.713592
Si Si8 0.569291 0.953613 0.216725
O O1 0.488412 0.365088 0.500000
O O2 0.400250 0.382373 0.215176
O O3 0.521733 0.304897 0.224106
O O4 0.571710 0.406766 0.236444
O O5 0.792580 0.192194 0.288076
O O6 0.686437 0.267886 0.222044
O O7 0.863539 0.294618 0.280608
O O8 0.812152 0.247406 0.000000
O O9 0.240273 0.417256 0.284437
O O10 0.269896 0.362676 0.000000
O O11 0.591581 0.261115 0.500000
O O12 0.538967 0.201066 0.755977
O O13 0.447152 0.107485 0.280024
O O14 0.436061 0.165530 0.000000
O O15 0.825393 0.995884 0.204769
O O16 0.662286 0.978882 0.279002
O O17 0.700346 0.031540 0.000000
O O18 0.099310 0.027882 0.500000
O O19 0.000000 0.000000 0.761207
O O20 0.500000 0.000000 0.268057
O O21 0.567737 0.950465 0.000000
#
# Coordination Sequence:
#
# PCOD9426903 Si02
#       8
#     8   8   8   8   8   8   8   8
#     4  10  21  37  55  79 114 154 190 225 280 346
#     4  10  22  38  59  88 116 148 192 240 292 348
#     4  10  20  35  57  85 114 144 187 240 289 338
#     4  11  24  39  59  86 116 153 192 236 294 349
#     4  10  21  40  64  88 116 152 196 245 292 342
#     4  10  21  35  56  87 114 145 190 236 284 335
#     4  10  20  35  54  78 113 155 189 219 273 343
#     4   9  20  38  61  85 113 151 194 240 289 338
#
# _framework density 22.758255999999999
#
# number of rings (size 3 to 8) (size 9 to 14) (size 15 to 20)
#    0.000    2.000    2.500    0.375    3.500    2.250 
#    0.000    0.625    0.000    0.750    0.000    0.000 
#    0.000    0.000    0.000    0.000    0.000    0.000 
#
# Total GULP energy -357330.607661 kJ/mol
# GULP energy per Si atom -5583.290745 kJ/mol
# Density = 2.270646 g / cm^3
# Si number density = 22.758256 Si / 1000 Ang^3
#
#
#
# Elastic Constant Matrix: (Units=GPa)
#
#
# Indices 1 2 3 4 5 6 
#
# 1 61.1668 12.4786 -8.3172 0.0000 0.0000 0.0000
# 2 12.4786 140.2215 10.7050 0.0000 0.0000 0.0000
# 3 -8.3172 10.7050 55.2507 0.0000 0.0000 0.0000
# 4 0.0000 0.0000 0.0000 17.4777 0.0000 0.0000
# 5 0.0000 0.0000 0.0000 0.0000 37.7674 0.0000
# 6 0.0000 0.0000 0.0000 0.0000 0.0000 30.2611
#
#
#
# Elastic Compliance Matrix: (Units=1/GPa)
#
#
# Indices 1 2 3 4 5 6 
#
# 1 0.017101 -0.001744 0.002912 0.000000 0.000000 0.000000
# 2 -0.001744 0.007417 -0.001700 0.000000 0.000000 0.000000
# 3 0.002912 -0.001700 0.018867 0.000000 0.000000 0.000000
# 4 0.000000 0.000000 0.000000 0.057216 0.000000 0.000000
# 5 0.000000 0.000000 0.000000 0.000000 0.026478 0.000000
# 6 0.000000 0.000000 0.000000 0.000000 0.000000 0.033046
#
#
# Mechanical properties :
#
#
# Convention : Reuss Voigt Hill
#
# Bulk Modulus (GPa) = 23.62890 31.81909 27.72399
# Shear Modulus (GPa) = 28.52357 33.21940 30.87149
#
# Velocity S-wave (km/s) = 3.54408 3.82470 3.68706
# Velocity P-wave (km/s) = 5.21080 5.78931 5.50766
#
# Compressibility (1/GPa) = 0.04232106
#
# Stress axis : x y z
#
# Youngs Moduli (GPa) = 58.47764 134.83378 53.00263
#
# Poissons Ratio (x) = 0.23517 -0.15435
# Poissons Ratio (y) = 0.10199 0.09008
# Poissons Ratio (z) = -0.17030 0.22915
#
# Static dielectric constant tensor:
#      x y z
#    x 1.831780 0.000000 0.000000 
#    y 0.000000 1.885670 0.000000 
#    z 0.000000 0.000000 1.873990 
# 
# From -- ./inp_files/6486.got.cif
#   From: 2010.05.17/outbox.cif.g08.bks.cpg/sg55_4_cif.got.tgz:6486.got - 2010.06.03 13:27:54.
