data_PCOD9426545
_publ_section_title
;
Structure prediction by ZEFSAII (Michael W. Deem and Ramdas Pophale) SiO2 
 PCOD9426545
Probable space group: P B A M
;
_chemical_formula_sum "Si O2"
_cell_formula_units_Z 48
_cell_length_a 7.938259
_cell_length_b 29.010471
_cell_length_c 7.953948
_cell_angle_alpha 90.000000
_cell_angle_beta 90.000000
_cell_angle_gamma 90.000000
_cell_volume 1831.735624
_symmetry_space_group_name_H-M "P B A M"
_symmetry_group_IT_number 55
_symmetry_cell_setting 'orthorhombic'
loop_
_space_group_symop_operation_xyz
x,y,z
-x,-y,z
1/2+x,1/2-y,-z
1/2-x,1/2+y,-z
-x,-y,-z
x,y,-z
1/2-x,1/2+y,z
1/2+x,1/2-y,z
loop_
_atom_site_type_symbol
_atom_site_label
_atom_site_fract_x
_atom_site_fract_y
_atom_site_fract_z
Si Si1 0.342391 0.350002 0.204687
Si Si2 0.509882 0.259782 0.196422
Si Si3 0.489606 0.905560 0.696793
Si Si4 0.936823 0.929838 0.202063
Si Si5 0.681943 0.821200 0.695115
Si Si6 0.778180 0.509928 0.800749
O O1 0.368791 0.297191 0.250448
O O2 0.179443 0.375553 0.271723
O O3 0.504942 0.379868 0.263739
O O4 0.336301 0.352125 0.000000
O O5 0.480825 0.212607 0.293444
O O6 0.677395 0.290220 0.216403
O O7 0.492487 0.248525 0.000000
O O8 0.520058 0.908077 0.500000
O O9 0.631775 0.871103 0.771874
O O10 0.432924 0.956674 0.753264
O O11 0.108513 0.959655 0.229145
O O12 0.781471 0.960175 0.272294
O O13 0.915475 0.927051 0.000000
O O14 0.726433 0.826457 0.500000
O O15 0.793361 0.503836 0.000000
#
# Coordination Sequence:
#
# PCOD9426545 Si02
#       6
#     8   8   8   8   8   8
#     4   9  18  33  53  77 105 134 166 211 261 303
#     4  11  23  38  59  83 103 129 173 223 259 299
#     4  10  20  32  49  75 105 138 174 209 249 303
#     4   7  11  23  44  70  99 131 165 202 252 304
#     4  11  24  40  56  75 106 143 171 205 262 323
#     4   8  13  24  45  70  98 133 169 208 251 294
#
# _framework density 26.204657999999998
#
# number of rings (size 3 to 8) (size 9 to 14) (size 15 to 20)
#    0.000    2.667    0.000    4.500    0.000    6.667 
#    0.000    6.667    0.000    1.000    0.000    7.000 
#    0.000    0.000    0.000    0.000    0.000    0.000 
#
# Total GULP energy -268266.268413 kJ/mol
# GULP energy per Si atom -5588.880592 kJ/mol
# Density = 2.614502 g / cm^3
# Si number density = 26.204658 Si / 1000 Ang^3
#
#
#
# Elastic Constant Matrix: (Units=GPa)
#
#
# Indices 1 2 3 4 5 6 
#
# 1 91.2122 3.9689 -3.0088 0.0000 0.0000 0.0000
# 2 3.9689 192.6610 24.6687 0.0000 0.0000 0.0000
# 3 -3.0088 24.6687 35.5961 0.0000 0.0000 0.0000
# 4 0.0000 0.0000 0.0000 22.3754 0.0000 0.0000
# 5 0.0000 0.0000 0.0000 0.0000 34.5395 0.0000
# 6 0.0000 0.0000 0.0000 0.0000 0.0000 52.0828
#
#
#
# Elastic Compliance Matrix: (Units=1/GPa)
#
#
# Indices 1 2 3 4 5 6 
#
# 1 0.011019 -0.000380 0.001195 0.000000 0.000000 0.000000
# 2 -0.000380 0.005709 -0.003989 0.000000 0.000000 0.000000
# 3 0.001195 -0.003989 0.030958 0.000000 0.000000 0.000000
# 4 0.000000 0.000000 0.000000 0.044692 0.000000 0.000000
# 5 0.000000 0.000000 0.000000 0.000000 0.028952 0.000000
# 6 0.000000 0.000000 0.000000 0.000000 0.000000 0.019200
#
#
# Mechanical properties :
#
#
# Convention : Reuss Voigt Hill
#
# Bulk Modulus (GPa) = 24.19029 41.19188 32.69109
# Shear Modulus (GPa) = 31.12199 41.38892 36.25545
#
# Velocity S-wave (km/s) = 3.44997 3.97854 3.72365
# Velocity P-wave (km/s) = 5.01209 6.07112 5.56684
#
# Compressibility (1/GPa) = 0.04133889
#
# Stress axis : x y z
#
# Youngs Moduli (GPa) = 90.74916 175.16225 32.30178
#
# Poissons Ratio (x) = 0.06656 -0.03859
# Poissons Ratio (y) = 0.03448 0.12884
# Poissons Ratio (z) = -0.10842 0.69864
#
# Static dielectric constant tensor:
#      x y z
#    x 2.246380 0.000000 0.000000 
#    y 0.000000 2.121470 0.000000 
#    z 0.000000 0.000000 1.931250 
# 
# From -- ./inp_files/2887.got.cif
#   From: 2010.05.17/outbox.cif.g08.bks.cpg/sg55_2_cif.got.tgz:2887.got - 2010.06.03 13:27:54.
