data_PCOD9426982
_publ_section_title
;
Structure prediction by ZEFSAII (Michael W. Deem and Ramdas Pophale) SiO2 
 PCOD9426982
Probable space group: P B A M
;
_chemical_formula_sum "Si O2"
_cell_formula_units_Z 64
_cell_length_a 28.786755
_cell_length_b 9.570681
_cell_length_c 13.904179
_cell_angle_alpha 90.000000
_cell_angle_beta 90.000000
_cell_angle_gamma 90.000000
_cell_volume 3830.724354
_symmetry_space_group_name_H-M "P B A M"
_symmetry_group_IT_number 55
_symmetry_cell_setting 'orthorhombic'
loop_
_space_group_symop_operation_xyz
x,y,z
-x,-y,z
1/2+x,1/2-y,-z
1/2-x,1/2+y,-z
-x,-y,-z
x,y,-z
1/2-x,1/2+y,z
1/2+x,1/2-y,z
loop_
_atom_site_type_symbol
_atom_site_label
_atom_site_fract_x
_atom_site_fract_y
_atom_site_fract_z
Si Si1 0.068137 0.116324 0.387630
Si Si2 0.784464 0.315020 0.115966
Si Si3 0.541639 0.892212 0.216870
Si Si4 0.515278 0.347098 0.114645
Si Si5 0.961467 0.202480 0.387839
Si Si6 0.617445 0.314621 0.799755
Si Si7 0.868915 0.522255 0.883941
Si Si8 0.196006 0.002527 0.882969
O O1 0.079487 0.137147 0.500000
O O2 0.105189 0.175962 0.312844
O O3 0.017066 0.183868 0.370630
O O4 0.060959 0.950078 0.371250
O O5 0.828566 0.411632 0.139159
O O6 0.737462 0.392717 0.146475
O O7 0.791370 0.155298 0.147077
O O8 0.782027 0.309700 0.000000
O O9 0.519808 0.768118 0.153724
O O10 0.557061 0.819164 0.315851
O O11 0.500000 0.000000 0.236243
O O12 0.582916 0.966358 0.159783
O O13 0.500000 0.500000 0.149626
O O14 0.567193 0.318975 0.149611
O O15 0.514365 0.345427 0.000000
O O16 0.955208 0.237228 0.500000
O O17 0.640878 0.171652 0.835600
O O18 0.648823 0.442231 0.835839
O O19 0.871838 0.537664 0.000000
O O20 0.191482 0.005917 0.000000
#
# Coordination Sequence:
#
# PCOD9426982 Si02
#       8
#     8   8   8   8   8   8   8   8
#     4   9  18  34  55  78 103 136 182 235 281 318
#     4   9  20  37  55  79 109 143 179 224 270 313
#     4  12  22  34  50  75 109 152 185 220 268 323
#     4  11  23  34  47  71 108 147 186 221 255 315
#     4   9  18  34  54  74 102 140 185 236 278 314
#     4  12  21  34  55  80 104 144 184 225 270 328
#     4  11  23  36  51  75 115 154 184 221 265 321
#     4  10  20  35  57  82 108 138 178 224 268 321
#
# _framework density 16.707021999999998
#
# number of rings (size 3 to 8) (size 9 to 14) (size 15 to 20)
#    0.000    1.625    2.500    3.750    3.500    2.750 
#    0.000    0.625    0.000    0.000    0.000    4.375 
#    0.000    0.000    0.000    0.000    0.000    0.000 
#
# Total GULP energy -357322.021596 kJ/mol
# GULP energy per Si atom -5583.156587 kJ/mol
# Density = 1.666900 g / cm^3
# Si number density = 16.707022 Si / 1000 Ang^3
#
#
#
# Elastic Constant Matrix: (Units=GPa)
#
#
# Indices 1 2 3 4 5 6 
#
# 1 46.4021 15.8783 19.8006 0.0000 0.0000 0.0000
# 2 15.8783 90.8509 34.2615 0.0000 0.0000 0.0000
# 3 19.8006 34.2615 84.3149 0.0000 0.0000 0.0000
# 4 0.0000 0.0000 0.0000 17.3135 0.0000 0.0000
# 5 0.0000 0.0000 0.0000 0.0000 3.9251 0.0000
# 6 0.0000 0.0000 0.0000 0.0000 0.0000 28.5731
#
#
#
# Elastic Compliance Matrix: (Units=1/GPa)
#
#
# Indices 1 2 3 4 5 6 
#
# 1 0.024417 -0.002486 -0.004724 0.000000 0.000000 0.000000
# 2 -0.002486 0.013252 -0.004801 0.000000 0.000000 0.000000
# 3 -0.004724 -0.004801 0.014921 0.000000 0.000000 0.000000
# 4 0.000000 0.000000 0.000000 0.057758 0.000000 0.000000
# 5 0.000000 0.000000 0.000000 0.000000 0.254769 0.000000
# 6 0.000000 0.000000 0.000000 0.000000 0.000000 0.034998
#
#
# Mechanical properties :
#
#
# Convention : Reuss Voigt Hill
#
# Bulk Modulus (GPa) = 35.00459 40.16097 37.58278
# Shear Modulus (GPa) = 11.52976 20.07086 15.80031
#
# Velocity S-wave (km/s) = 2.62985 3.46980 3.07861
# Velocity P-wave (km/s) = 5.49718 6.33587 5.93137
#
# Compressibility (1/GPa) = 0.02856768
#
# Stress axis : x y z
#
# Youngs Moduli (GPa) = 40.95464 75.45946 67.02114
#
# Poissons Ratio (x) = 0.18759 0.31661
# Poissons Ratio (y) = 0.10181 0.32178
# Poissons Ratio (z) = 0.19347 0.36230
#
# Static dielectric constant tensor:
#      x y z
#    x 1.543700 0.000000 0.000000 
#    y 0.000000 1.587460 0.000000 
#    z 0.000000 0.000000 1.561960 
# 
# From -- ./inp_files/20220.got.cif
#   From: 2010.05.17/outbox.cif.g08.bks.cpg/sg55_11_cif.got.tgz:20220.got - 2010.06.03 13:27:54.
