data_PCOD9426165
_publ_section_title
;
Structure prediction by ZEFSAII (Michael W. Deem and Ramdas Pophale) SiO2 
 PCOD9426165
Probable space group: P B A M
;
_chemical_formula_sum "Si O2"
_cell_formula_units_Z 48
_cell_length_a 15.567530
_cell_length_b 19.507064
_cell_length_c 7.670171
_cell_angle_alpha 90.000000
_cell_angle_beta 90.000000
_cell_angle_gamma 90.000000
_cell_volume 2329.253016
_symmetry_space_group_name_H-M "P B A M"
_symmetry_group_IT_number 55
_symmetry_cell_setting 'orthorhombic'
loop_
_space_group_symop_operation_xyz
x,y,z
-x,-y,z
1/2+x,1/2-y,-z
1/2-x,1/2+y,-z
-x,-y,-z
x,y,-z
1/2-x,1/2+y,z
1/2+x,1/2-y,z
loop_
_atom_site_type_symbol
_atom_site_label
_atom_site_fract_x
_atom_site_fract_y
_atom_site_fract_z
Si Si1 0.271860 0.921369 0.788720
Si Si2 0.532615 0.075719 0.212811
Si Si3 0.622200 0.681554 0.704045
Si Si4 0.373172 0.161779 0.204263
Si Si5 0.981865 0.923748 0.293565
Si Si6 0.286680 0.573456 0.788827
O O1 0.369936 0.912755 0.728398
O O2 0.208679 0.862146 0.726573
O O3 0.236322 0.995877 0.733444
O O4 0.271305 0.920768 0.000000
O O5 0.461695 0.129946 0.275252
O O6 0.500000 0.000000 0.260894
O O7 0.535989 0.077555 0.000000
O O8 0.605723 0.692504 0.500000
O O9 0.629498 0.756861 0.781994
O O10 0.545447 0.634205 0.778747
O O11 0.288145 0.124322 0.275247
O O12 0.373654 0.143259 0.000000
O O13 0.001139 0.927402 0.500000
O O14 0.881968 0.907535 0.270512
O O15 0.000000 0.000000 0.220319
O O16 0.288068 0.574228 0.000000
#
# Coordination Sequence:
#
# PCOD9426165 Si02
#       6
#     8   8   8   8   8   8
#     4  10  19  34  60  90 114 142 185 234 280 333
#     4   9  16  32  60  88 113 143 180 226 280 335
#     4  11  24  40  56  79 115 155 191 231 282 333
#     4  10  21  38  59  86 118 148 182 229 285 339
#     4  10  21  38  58  80 111 153 194 232 278 331
#     4  10  20  34  59  90 114 142 186 235 282 334
#
# _framework density 20.607464
#
# number of rings (size 3 to 8) (size 9 to 14) (size 15 to 20)
#    0.000    2.000    3.333    0.500    0.000    3.667 
#    0.000    5.833    0.000    1.000    0.000    0.000 
#    0.000    0.000    0.000    0.000    0.000    0.000 
#
# Total GULP energy -268088.421320 kJ/mol
# GULP energy per Si atom -5585.175444 kJ/mol
# Density = 2.056056 g / cm^3
# Si number density = 20.607464 Si / 1000 Ang^3
#
#
#
# Elastic Constant Matrix: (Units=GPa)
#
#
# Indices 1 2 3 4 5 6 
#
# 1 166.3000 65.2725 -21.9386 0.0000 0.0000 0.0000
# 2 65.2725 123.1687 -19.6159 0.0000 0.0000 0.0000
# 3 -21.9386 -19.6159 27.5587 0.0000 0.0000 0.0000
# 4 0.0000 0.0000 0.0000 -9.5340 0.0000 0.0000
# 5 0.0000 0.0000 0.0000 0.0000 32.3935 0.0000
# 6 0.0000 0.0000 0.0000 0.0000 0.0000 34.9741
#
#
#
# Elastic Compliance Matrix: (Units=1/GPa)
#
#
# Indices 1 2 3 4 5 6 
#
# 1 0.007920 -0.003601 0.003742 0.000000 0.000000 0.000000
# 2 -0.003601 0.010795 0.004816 0.000000 0.000000 0.000000
# 3 0.003742 0.004816 0.042693 0.000000 0.000000 0.000000
# 4 0.000000 0.000000 0.000000 -0.104888 0.000000 0.000000
# 5 0.000000 0.000000 0.000000 0.000000 0.030870 0.000000
# 6 0.000000 0.000000 0.000000 0.000000 0.000000 0.028593
#
#
# Mechanical properties :
#
#
# Convention : Reuss Voigt Hill
#
# Bulk Modulus (GPa) = 14.02102 40.49592 27.25847
# Shear Modulus (GPa) = 167.54141 31.12069 99.33105
#
# Velocity S-wave (km/s) = 9.02651 3.89030 6.95026
# Velocity P-wave (km/s) = 10.74503 6.31451 8.81274
#
# Compressibility (1/GPa) = 0.07132148
#
# Stress axis : x y z
#
# Youngs Moduli (GPa) = 126.25607 92.63903 23.42297
#
# Poissons Ratio (x) = 0.33364 -0.08764
# Poissons Ratio (y) = 0.45471 -0.11282
# Poissons Ratio (z) = -0.47241 -0.44619
#
# Static dielectric constant tensor:
#      x y z
#    x 1.722940 0.000000 0.000000 
#    y 0.000000 1.695410 0.000000 
#    z 0.000000 0.000000 1.767380 
# 
# From -- ./inp_files/5673.got.cif
#   From: 2010.05.17/outbox.cif.g08.bks.cpg/sg55_3_cif.got.tgz:5673.got - 2010.06.03 13:27:54.
