data_PCOD9426405
_publ_section_title
;
Structure prediction by ZEFSAII (Michael W. Deem and Ramdas Pophale) SiO2 
 PCOD9426405
Probable space group: P B A M
;
_chemical_formula_sum "Si O2"
_cell_formula_units_Z 48
_cell_length_a 18.442544
_cell_length_b 14.546197
_cell_length_c 7.824861
_cell_angle_alpha 90.000000
_cell_angle_beta 90.000000
_cell_angle_gamma 90.000000
_cell_volume 2099.166683
_symmetry_space_group_name_H-M "P B A M"
_symmetry_group_IT_number 55
_symmetry_cell_setting 'orthorhombic'
loop_
_space_group_symop_operation_xyz
x,y,z
-x,-y,z
1/2+x,1/2-y,-z
1/2-x,1/2+y,-z
-x,-y,-z
x,y,-z
1/2-x,1/2+y,z
1/2+x,1/2-y,z
loop_
_atom_site_type_symbol
_atom_site_label
_atom_site_fract_x
_atom_site_fract_y
_atom_site_fract_z
Si Si1 0.043315 0.361756 0.294560
Si Si2 0.841784 0.124129 0.292868
Si Si3 0.852670 0.921974 0.802360
Si Si4 0.775775 0.310456 0.301078
Si Si5 0.112745 0.540827 0.705785
Si Si6 0.505921 0.338159 0.704869
O O1 0.054873 0.355640 0.500000
O O2 0.100707 0.437066 0.227801
O O3 0.038286 0.258378 0.227247
O O4 0.963636 0.406426 0.271135
O O5 0.840245 0.119487 0.500000
O O6 0.792789 0.209301 0.232439
O O7 0.924302 0.144865 0.234728
O O8 0.821572 0.022925 0.232337
O O9 0.805941 0.844765 0.708051
O O10 0.936047 0.916310 0.745847
O O11 0.848155 0.901386 0.000000
O O12 0.797616 0.304729 0.500000
O O13 0.825252 0.392130 0.224278
O O14 0.124117 0.531718 0.500000
O O15 0.500495 0.330410 0.500000
#
# Coordination Sequence:
#
# PCOD9426405 Si02
#       6
#     8   8   8   8   8   8
#     4   8  13  24  50  88 120 140 169 227 296 348
#     4  10  21  40  66  90 113 149 201 259 307 348
#     4  12  27  41  55  83 123 165 201 238 293 363
#     4  10  20  38  63  89 116 152 199 250 302 354
#     4   8  13  25  50  86 119 142 173 225 291 353
#     4  10  19  36  62  91 118 151 199 254 299 345
#
# _framework density 22.866218
#
# number of rings (size 3 to 8) (size 9 to 14) (size 15 to 20)
#    0.000    2.333    1.667    3.000    0.000    4.667 
#    0.000    3.333    0.000    0.000    0.000    2.333 
#    0.000    0.000    0.000    0.000    0.000    0.000 
#
# Total GULP energy -267987.434432 kJ/mol
# GULP energy per Si atom -5583.071551 kJ/mol
# Density = 2.281417 g / cm^3
# Si number density = 22.866218 Si / 1000 Ang^3
#
#
#
# Elastic Constant Matrix: (Units=GPa)
#
#
# Indices 1 2 3 4 5 6 
#
# 1 32.9658 27.5135 -7.8790 0.0000 0.0000 0.0000
# 2 27.5135 125.7764 -0.3310 0.0000 0.0000 0.0000
# 3 -7.8790 -0.3310 23.3429 0.0000 0.0000 0.0000
# 4 0.0000 0.0000 0.0000 -39.0850 0.0000 0.0000
# 5 0.0000 0.0000 0.0000 0.0000 -52.1221 0.0000
# 6 0.0000 0.0000 0.0000 0.0000 0.0000 17.2760
#
#
#
# Elastic Compliance Matrix: (Units=1/GPa)
#
#
# Indices 1 2 3 4 5 6 
#
# 1 0.041091 -0.008952 0.013743 0.000000 0.000000 0.000000
# 2 -0.008952 0.009901 -0.002881 0.000000 0.000000 0.000000
# 3 0.013743 -0.002881 0.047437 0.000000 0.000000 0.000000
# 4 0.000000 0.000000 0.000000 -0.025585 0.000000 0.000000
# 5 0.000000 0.000000 0.000000 0.000000 -0.019186 0.000000
# 6 0.000000 0.000000 0.000000 0.000000 0.000000 0.057884
#
#
# Mechanical properties :
#
#
# Convention : Reuss Voigt Hill
#
# Bulk Modulus (GPa) = 9.78024 24.52134 17.15079
# Shear Modulus (GPa) = 35.25918 -3.93412 15.66253
#
# Velocity S-wave (km/s) = 3.93106 -1.31310 2.62002
# Velocity P-wave (km/s) = 4.98907 2.90657 4.08282
#
# Compressibility (1/GPa) = 0.10224698
#
# Stress axis : x y z
#
# Youngs Moduli (GPa) = 24.33634 100.99607 21.08048
#
# Poissons Ratio (x) = 0.90416 -0.28970
# Poissons Ratio (y) = 0.21787 0.06074
# Poissons Ratio (z) = -0.33444 0.29100
#
# Static dielectric constant tensor:
#      x y z
#    x 1.859510 0.000000 0.000000 
#    y 0.000000 1.874880 0.000000 
#    z 0.000000 0.000000 1.860050 
# 
# From -- ./inp_files/7431.got.cif
#   From: 2010.05.17/outbox.cif.g08.bks.cpg/sg55_4_cif.got.tgz:7431.got - 2010.06.03 13:27:54.
