data_PCOD9426635
_publ_section_title
;
Structure prediction by ZEFSAII (Michael W. Deem and Ramdas Pophale) SiO2 
 PCOD9426635
Probable space group: P B A M
;
_chemical_formula_sum "Si O2"
_cell_formula_units_Z 56
_cell_length_a 21.742420
_cell_length_b 14.940370
_cell_length_c 8.605429
_cell_angle_alpha 90.000000
_cell_angle_beta 90.000000
_cell_angle_gamma 90.000000
_cell_volume 2795.385831
_symmetry_space_group_name_H-M "P B A M"
_symmetry_group_IT_number 55
_symmetry_cell_setting 'orthorhombic'
loop_
_space_group_symop_operation_xyz
x,y,z
-x,-y,z
1/2+x,1/2-y,-z
1/2-x,1/2+y,-z
-x,-y,-z
x,y,-z
1/2-x,1/2+y,z
1/2+x,1/2-y,z
loop_
_atom_site_type_symbol
_atom_site_label
_atom_site_fract_x
_atom_site_fract_y
_atom_site_fract_z
Si Si1 0.398334 0.289621 0.687024
Si Si2 0.588426 0.019504 0.816608
Si Si3 0.680957 0.393938 0.681936
Si Si4 0.731823 0.745456 0.817847
Si Si5 0.732213 0.040216 0.816852
Si Si6 0.929268 0.010531 0.690005
Si Si7 0.491039 0.140650 0.315627
O O1 0.398837 0.290562 0.500000
O O2 0.334829 0.244094 0.739361
O O3 0.403642 0.392487 0.741428
O O4 0.457170 0.231066 0.737068
O O5 0.660490 0.024409 0.786187
O O6 0.553180 0.110456 0.769412
O O7 0.556596 0.939729 0.721564
O O8 0.578882 0.003134 0.000000
O O9 0.675028 0.374536 0.500000
O O10 0.714894 0.310982 0.760259
O O11 0.726231 0.477541 0.711236
O O12 0.615093 0.429803 0.741624
O O13 0.751934 0.643441 0.790650
O O14 0.723166 0.760434 0.000000
O O15 0.743867 0.019662 0.000000
O O16 0.927704 0.010387 0.500000
O O17 0.000000 0.000000 0.737138
O O18 0.502171 0.145310 0.500000
#
# Coordination Sequence:
#
# PCOD9426635 Si02
#       7
#     8   8   8   8   8   8   8
#     4  10  20  37  59  85 114 150 199 244 290 355
#     4  10  20  35  54  77 110 149 189 232 284 345
#     4  11  22  37  62  90 118 154 197 248 296 352
#     4  11  23  38  59  85 118 156 194 242 297 352
#     4  10  22  39  58  82 115 154 191 237 291 344
#     4   9  19  37  60  86 118 153 191 242 301 352
#     4  10  20  33  53  81 112 145 185 236 288 339
#
# _framework density 20.033014000000001
#
# number of rings (size 3 to 8) (size 9 to 14) (size 15 to 20)
#    0.000    1.857    1.429    3.429    0.000    6.286 
#    0.000    1.429    0.000    3.857    0.000    0.000 
#    0.000    0.000    0.000    0.000    0.000    0.000 
#
# Total GULP energy -312764.571584 kJ/mol
# GULP energy per Si atom -5585.081635 kJ/mol
# Density = 1.998742 g / cm^3
# Si number density = 20.033014 Si / 1000 Ang^3
#
#
#
# Elastic Constant Matrix: (Units=GPa)
#
#
# Indices 1 2 3 4 5 6 
#
# 1 79.8845 -9.4359 -4.5530 0.0000 0.0000 0.0000
# 2 -9.4359 26.0421 5.2974 0.0000 0.0000 0.0000
# 3 -4.5530 5.2974 4.9035 0.0000 0.0000 0.0000
# 4 0.0000 0.0000 0.0000 17.8230 0.0000 0.0000
# 5 0.0000 0.0000 0.0000 0.0000 15.4800 0.0000
# 6 0.0000 0.0000 0.0000 0.0000 0.0000 22.9000
#
#
#
# Elastic Compliance Matrix: (Units=1/GPa)
#
#
# Indices 1 2 3 4 5 6 
#
# 1 0.013395 0.002978 0.009220 0.000000 0.000000 0.000000
# 2 0.002978 0.049877 -0.051118 0.000000 0.000000 0.000000
# 3 0.009220 -0.051118 0.267720 0.000000 0.000000 0.000000
# 4 0.000000 0.000000 0.000000 0.056107 0.000000 0.000000
# 5 0.000000 0.000000 0.000000 0.000000 0.064599 0.000000
# 6 0.000000 0.000000 0.000000 0.000000 0.000000 0.043668
#
#
# Mechanical properties :
#
#
# Convention : Reuss Voigt Hill
#
# Bulk Modulus (GPa) = 3.95018 10.38302 7.16660
# Shear Modulus (GPa) = 7.60352 19.20871 13.40611
#
# Velocity S-wave (km/s) = 1.95032 3.09989 2.58970
# Velocity P-wave (km/s) = 2.65476 4.24343 3.53938
#
# Compressibility (1/GPa) = 0.25315283
#
# Stress axis : x y z
#
# Youngs Moduli (GPa) = 74.65283 20.04946 3.73525
#
# Poissons Ratio (x) = -0.05971 -0.03444
# Poissons Ratio (y) = -0.22231 0.19094
# Poissons Ratio (z) = -0.68834 1.02489
#
# Static dielectric constant tensor:
#      x y z
#    x 1.707210 0.000000 0.000000 
#    y 0.000000 1.715830 0.000000 
#    z 0.000000 0.000000 1.651110 
# 
# From -- ./inp_files/8750.got.cif
#   From: 2010.05.17/outbox.cif.g08.bks.cpg/sg55_5_cif.got.tgz:8750.got - 2010.06.03 13:27:54.
