data_PCOD9426296
_publ_section_title
;
Structure prediction by ZEFSAII (Michael W. Deem and Ramdas Pophale) SiO2 
 PCOD9426296
Probable space group: P B A M
;
_chemical_formula_sum "Si O2"
_cell_formula_units_Z 64
_cell_length_a 18.791366
_cell_length_b 8.724055
_cell_length_c 20.244522
_cell_angle_alpha 90.000000
_cell_angle_beta 90.000000
_cell_angle_gamma 90.000000
_cell_volume 3318.824391
_symmetry_space_group_name_H-M "P B A M"
_symmetry_group_IT_number 55
_symmetry_cell_setting 'orthorhombic'
loop_
_space_group_symop_operation_xyz
x,y,z
-x,-y,z
1/2+x,1/2-y,-z
1/2-x,1/2+y,-z
-x,-y,-z
x,y,-z
1/2-x,1/2+y,z
1/2+x,1/2-y,z
loop_
_atom_site_type_symbol
_atom_site_label
_atom_site_fract_x
_atom_site_fract_y
_atom_site_fract_z
Si Si1 0.928104 0.073863 0.424805
Si Si2 0.149133 0.381494 0.927134
Si Si3 0.794730 0.018715 0.666263
Si Si4 0.782131 0.923546 0.880275
Si Si5 0.656158 0.177692 0.328099
Si Si6 0.916642 0.499630 0.793068
Si Si7 0.178232 0.791394 0.201234
Si Si8 0.472347 0.845265 0.576050
O O1 0.921384 0.012017 0.500000
O O2 0.855596 0.057506 0.386459
O O3 0.956400 0.245400 0.427372
O O4 0.000000 0.000000 0.394086
O O5 0.173363 0.204367 0.918925
O O6 0.219103 0.490393 0.919895
O O7 0.100876 0.428869 0.864982
O O8 0.117934 0.404721 0.000000
O O9 0.715167 0.060400 0.643562
O O10 0.806616 0.125229 0.730033
O O11 0.806466 0.841206 0.683408
O O12 0.741372 0.820180 0.824923
O O13 0.826510 0.064563 0.849184
O O14 0.592853 0.210202 0.379832
O O15 0.624914 0.099840 0.261965
O O16 0.887198 0.325454 0.792722
O O17 0.000000 0.500000 0.780010
O O18 0.448421 0.867302 0.500000
O O19 0.500000 0.000000 0.607561
#
# Coordination Sequence:
#
# PCOD9426296 Si02
#       8
#     8   8   8   8   8   8   8   8
#     4  10  22  43  63  86 121 163 205 248 302 367
#     4  10  19  35  61  90 122 159 202 248 303 368
#     4  12  24  37  63  92 118 160 197 258 311 363
#     4   9  18  36  59  90 122 155 192 251 306 363
#     4  12  25  40  61  91 124 154 206 254 312 368
#     4  11  25  41  60  85 121 165 204 258 310 371
#     4  10  20  36  59  84 121 151 196 248 307 356
#     4  10  23  43  65  87 120 163 205 250 299 365
#
# _framework density 19.283937000000002
#
# number of rings (size 3 to 8) (size 9 to 14) (size 15 to 20)
#    0.000    1.500    1.250    5.250    5.250    0.750 
#    0.000    2.500    0.000    0.750    0.000    0.000 
#    0.000    0.000    0.000    0.000    0.000    0.000 
#
# Total GULP energy -356943.878655 kJ/mol
# GULP energy per Si atom -5577.248104 kJ/mol
# Density = 1.924005 g / cm^3
# Si number density = 19.283937 Si / 1000 Ang^3
#
#
#
# Elastic Constant Matrix: (Units=GPa)
#
#
# Indices 1 2 3 4 5 6 
#
# 1 94.6658 36.6901 37.6294 0.0000 0.0000 0.0000
# 2 36.6901 128.4194 21.1386 0.0000 0.0000 0.0000
# 3 37.6294 21.1386 92.6407 0.0000 0.0000 0.0000
# 4 0.0000 0.0000 0.0000 7.2980 0.0000 0.0000
# 5 0.0000 0.0000 0.0000 0.0000 8.7809 0.0000
# 6 0.0000 0.0000 0.0000 0.0000 0.0000 26.5929
#
#
#
# Elastic Compliance Matrix: (Units=1/GPa)
#
#
# Indices 1 2 3 4 5 6 
#
# 1 0.013700 -0.003115 -0.004854 0.000000 0.000000 0.000000
# 2 -0.003115 0.008799 -0.000742 0.000000 0.000000 0.000000
# 3 -0.004854 -0.000742 0.012935 0.000000 0.000000 0.000000
# 4 0.000000 0.000000 0.000000 0.137024 0.000000 0.000000
# 5 0.000000 0.000000 0.000000 0.000000 0.113884 0.000000
# 6 0.000000 0.000000 0.000000 0.000000 0.000000 0.037604
#
#
# Mechanical properties :
#
#
# Convention : Reuss Voigt Hill
#
# Bulk Modulus (GPa) = 55.51989 56.29356 55.90673
# Shear Modulus (GPa) = 14.39370 23.21888 18.80629
#
# Velocity S-wave (km/s) = 2.73501 3.47371 3.12626
# Velocity P-wave (km/s) = 6.23113 6.73381 6.48734
#
# Compressibility (1/GPa) = 0.01801156
#
# Stress axis : x y z
#
# Youngs Moduli (GPa) = 72.99076 113.64619 77.30691
#
# Poissons Ratio (x) = 0.35404 0.37525
# Poissons Ratio (y) = 0.22739 0.05739
# Poissons Ratio (z) = 0.35430 0.08437
#
# Static dielectric constant tensor:
#      x y z
#    x 1.681080 0.000000 0.000000 
#    y 0.000000 1.743550 0.000000 
#    z 0.000000 0.000000 1.701940 
# 
# From -- ./inp_files/23078.got.cif
#   From: 2010.05.17/outbox.cif.g08.bks.cpg/sg55_12_cif.got.tgz:23078.got - 2010.06.03 13:27:54.
