data_PCOD9426045
_publ_section_title
;
Structure prediction by ZEFSAII (Michael W. Deem and Ramdas Pophale) SiO2 
 PCOD9426045
Probable space group: P B A M
;
_chemical_formula_sum "Si O2"
_cell_formula_units_Z 56
_cell_length_a 19.975097
_cell_length_b 18.106208
_cell_length_c 7.567095
_cell_angle_alpha 90.000000
_cell_angle_beta 90.000000
_cell_angle_gamma 90.000000
_cell_volume 2736.815926
_symmetry_space_group_name_H-M "P B A M"
_symmetry_group_IT_number 55
_symmetry_cell_setting 'orthorhombic'
loop_
_space_group_symop_operation_xyz
x,y,z
-x,-y,z
1/2+x,1/2-y,-z
1/2-x,1/2+y,-z
-x,-y,-z
x,y,-z
1/2-x,1/2+y,z
1/2+x,1/2-y,z
loop_
_atom_site_type_symbol
_atom_site_label
_atom_site_fract_x
_atom_site_fract_y
_atom_site_fract_z
Si Si1 0.101567 0.371370 0.284608
Si Si2 0.619727 0.293051 0.286267
Si Si3 0.571264 0.526261 0.207082
Si Si4 0.033914 0.813715 0.286506
Si Si5 0.552462 0.850841 0.715618
Si Si6 0.346236 0.026097 0.294198
Si Si7 0.197058 0.063347 0.794476
O O1 0.104379 0.369141 0.500000
O O2 0.129133 0.291542 0.226680
O O3 0.138883 0.444562 0.220439
O O4 0.023031 0.374374 0.236672
O O5 0.620851 0.294169 0.500000
O O6 0.544401 0.317053 0.231495
O O7 0.673048 0.352294 0.222217
O O8 0.500000 0.500000 0.284969
O O9 0.572496 0.614376 0.222338
O O10 0.636260 0.485765 0.282911
O O11 0.569979 0.505309 0.000000
O O12 0.034710 0.815028 0.500000
O O13 0.061582 0.734192 0.227645
O O14 0.554662 0.849138 0.500000
O O15 0.606869 0.909158 0.781279
O O16 0.365900 0.021079 0.500000
O O17 0.268980 0.047788 0.286361
O O18 0.204488 0.044359 0.000000
#
# Coordination Sequence:
#
# PCOD9426045 Si02
#       7
#     8   8   8   8   8   8   8
#     4   8  15  30  56  85 106 130 169 215 258 306
#     4   9  17  32  54  79 104 129 166 214 261 307
#     4  10  20  35  53  71  97 136 179 217 256 306
#     4   9  17  30  53  83 106 125 162 215 261 303
#     4   8  15  30  54  84 110 131 163 212 262 308
#     4  10  19  34  56  80 107 139 173 209 257 313
#     4  11  23  37  51  70 104 144 179 216 259 309
#
# _framework density 20.461735000000001
#
# number of rings (size 3 to 8) (size 9 to 14) (size 15 to 20)
#    0.000    2.714    1.429    2.571    0.000    3.143 
#    2.571    1.429    0.000    3.429    0.000    0.000 
#    0.000    0.000    0.000    0.000    0.000    0.000 
#
# Total GULP energy -312446.408677 kJ/mol
# GULP energy per Si atom -5579.400155 kJ/mol
# Density = 2.041516 g / cm^3
# Si number density = 20.461735 Si / 1000 Ang^3
#
#
#
# Elastic Constant Matrix: (Units=GPa)
#
#
# Indices 1 2 3 4 5 6 
#
# 1 97.4705 93.8134 -10.6012 0.0000 0.0000 0.0000
# 2 93.8134 173.9531 -10.4636 0.0000 0.0000 0.0000
# 3 -10.6012 -10.4636 41.1919 0.0000 0.0000 0.0000
# 4 0.0000 0.0000 0.0000 41.7866 0.0000 0.0000
# 5 0.0000 0.0000 0.0000 0.0000 9.0885 0.0000
# 6 0.0000 0.0000 0.0000 0.0000 0.0000 22.1615
#
#
#
# Elastic Compliance Matrix: (Units=1/GPa)
#
#
# Indices 1 2 3 4 5 6 
#
# 1 0.021612 -0.011497 0.002642 0.000000 0.000000 0.000000
# 2 -0.011497 0.011953 0.000078 0.000000 0.000000 0.000000
# 3 0.002642 0.000078 0.024976 0.000000 0.000000 0.000000
# 4 0.000000 0.000000 0.000000 0.023931 0.000000 0.000000
# 5 0.000000 0.000000 0.000000 0.000000 0.110029 0.000000
# 6 0.000000 0.000000 0.000000 0.000000 0.000000 0.045123
#
#
# Mechanical properties :
#
#
# Convention : Reuss Voigt Hill
#
# Bulk Modulus (GPa) = 24.39770 50.90141 37.64956
# Shear Modulus (GPa) = 18.59827 30.59843 24.59835
#
# Velocity S-wave (km/s) = 3.01812 3.87123 3.47098
# Velocity P-wave (km/s) = 4.90865 6.70167 5.87397
#
# Compressibility (1/GPa) = 0.04098747
#
# Stress axis : x y z
#
# Youngs Moduli (GPa) = 46.27054 83.65784 40.03811
#
# Poissons Ratio (x) = 0.96177 -0.10577
# Poissons Ratio (y) = 0.53195 -0.00311
# Poissons Ratio (z) = -0.12224 -0.00650
#
# Static dielectric constant tensor:
#      x y z
#    x 1.689160 0.000000 0.000000 
#    y 0.000000 1.740200 0.000000 
#    z 0.000000 0.000000 1.774560 
# 
# From -- ./inp_files/8897.got.cif
#   From: 2010.05.17/outbox.cif.g08.bks.cpg/sg55_5_cif.got.tgz:8897.got - 2010.06.03 13:27:54.
