data_PCOD9426292
_publ_section_title
;
Structure prediction by ZEFSAII (Michael W. Deem and Ramdas Pophale) SiO2 
 PCOD9426292
Probable space group: P B A M
;
_chemical_formula_sum "Si O2"
_cell_formula_units_Z 56
_cell_length_a 19.439120
_cell_length_b 5.131660
_cell_length_c 27.823141
_cell_angle_alpha 90.000000
_cell_angle_beta 90.000000
_cell_angle_gamma 90.000000
_cell_volume 2775.496166
_symmetry_space_group_name_H-M "P B A M"
_symmetry_group_IT_number 55
_symmetry_cell_setting 'orthorhombic'
loop_
_space_group_symop_operation_xyz
x,y,z
-x,-y,z
1/2+x,1/2-y,-z
1/2-x,1/2+y,-z
-x,-y,-z
x,y,-z
1/2-x,1/2+y,z
1/2+x,1/2-y,z
loop_
_atom_site_type_symbol
_atom_site_label
_atom_site_fract_x
_atom_site_fract_y
_atom_site_fract_z
Si Si1 0.083291 0.505831 0.369711
Si Si2 0.875751 0.556795 0.141077
Si Si3 0.917349 0.995356 0.309214
Si Si4 0.208127 0.692082 0.946250
Si Si5 0.796287 0.587666 0.557384
Si Si6 0.083393 0.956064 0.199153
Si Si7 0.452800 0.748142 0.949517
O O1 0.102508 0.784679 0.347405
O O2 0.131881 0.444996 0.414788
O O3 0.000000 0.500000 0.379228
O O4 0.100042 0.288508 0.329367
O O5 0.826609 0.398423 0.103367
O O6 0.905608 0.317477 0.171812
O O7 0.915883 0.712929 0.099874
O O8 0.871149 0.802192 0.177901
O O9 0.895569 0.059954 0.255109
O O10 0.000000 0.000000 0.307358
O O11 0.226891 0.995578 0.945610
O O12 0.175733 0.649943 0.000000
O O13 0.808546 0.581711 0.500000
O O14 0.756196 0.853369 0.569317
O O15 0.000000 0.000000 0.196095
O O16 0.500000 0.500000 0.945588
O O17 0.500000 0.000000 0.953230
O O18 0.413520 0.717092 0.000000
#
# Coordination Sequence:
#
# PCOD9426292 Si02
#       7
#     8   8   8   8   8   8   8
#     4  10  19  35  61  86 114 155 207 256 289 332
#     4  12  21  34  56  78 102 135 171 214 267 325
#     4   9  19  35  55  82 112 146 189 238 283 323
#     4  10  22  40  59  76  95 127 175 224 269 323
#     4  10  21  37  58  88 127 165 197 237 298 363
#     4  11  22  35  55  83 114 143 175 217 272 337
#     4  10  20  32  46  70 104 132 155 190 243 315
#
# _framework density 20.176570000000002
#
# number of rings (size 3 to 8) (size 9 to 14) (size 15 to 20)
#    0.000    1.714    0.000    5.571    0.000    2.571 
#    0.000    5.714    0.000   23.571    0.000    0.000 
#    0.000    0.000    0.000    0.000    0.000    0.000 
#
# Total GULP energy -311745.620278 kJ/mol
# GULP energy per Si atom -5566.886076 kJ/mol
# Density = 2.013065 g / cm^3
# Si number density = 20.176570 Si / 1000 Ang^3
#
#
#
# Elastic Constant Matrix: (Units=GPa)
#
#
# Indices 1 2 3 4 5 6 
#
# 1 36.2589 10.6048 33.3422 0.0000 0.0000 0.0000
# 2 10.6048 107.9467 9.0535 0.0000 0.0000 0.0000
# 3 33.3422 9.0535 87.8605 0.0000 0.0000 0.0000
# 4 0.0000 0.0000 0.0000 24.9644 0.0000 0.0000
# 5 0.0000 0.0000 0.0000 0.0000 22.1507 0.0000
# 6 0.0000 0.0000 0.0000 0.0000 0.0000 20.9533
#
#
#
# Elastic Compliance Matrix: (Units=1/GPa)
#
#
# Indices 1 2 3 4 5 6 
#
# 1 0.043242 -0.002897 -0.016111 0.000000 0.000000 0.000000
# 2 -0.002897 0.009539 0.000116 0.000000 0.000000 0.000000
# 3 -0.016111 0.000116 0.017484 0.000000 0.000000 0.000000
# 4 0.000000 0.000000 0.000000 0.040057 0.000000 0.000000
# 5 0.000000 0.000000 0.000000 0.000000 0.045145 0.000000
# 6 0.000000 0.000000 0.000000 0.000000 0.000000 0.047725
#
#
# Mechanical properties :
#
#
# Convention : Reuss Voigt Hill
#
# Bulk Modulus (GPa) = 30.78740 37.56301 34.17520
# Shear Modulus (GPa) = 19.85680 25.55139 22.70409
#
# Velocity S-wave (km/s) = 3.14052 3.56250 3.35814
# Velocity P-wave (km/s) = 5.33316 5.96485 5.65783
#
# Compressibility (1/GPa) = 0.03248082
#
# Stress axis : x y z
#
# Youngs Moduli (GPa) = 23.12557 104.83652 57.19575
#
# Poissons Ratio (x) = 0.30370 0.92151
# Poissons Ratio (y) = 0.06699 -0.00666
# Poissons Ratio (z) = 0.37259 -0.01221
#
# Static dielectric constant tensor:
#      x y z
#    x 1.815790 0.000000 0.000000 
#    y 0.000000 1.721830 0.000000 
#    z 0.000000 0.000000 1.792050 
# 
# From -- ./inp_files/23684.got.cif
#   From: 2010.05.17/outbox.cif.g08.bks.cpg/sg55_12_cif.got.tgz:23684.got - 2010.06.03 13:27:54.
