data_PCOD9427490
_publ_section_title
;
Structure prediction by ZEFSAII (Michael W. Deem and Ramdas Pophale) SiO2 
 PCOD9427490
Probable space group: P B A M
;
_chemical_formula_sum "Si O2"
_cell_formula_units_Z 64
_cell_length_a 20.167838
_cell_length_b 18.880963
_cell_length_c 8.723080
_cell_angle_alpha 90.000000
_cell_angle_beta 90.000000
_cell_angle_gamma 90.000000
_cell_volume 3321.645958
_symmetry_space_group_name_H-M "P B A M"
_symmetry_group_IT_number 55
_symmetry_cell_setting 'orthorhombic'
loop_
_space_group_symop_operation_xyz
x,y,z
-x,-y,z
1/2+x,1/2-y,-z
1/2-x,1/2+y,-z
-x,-y,-z
x,y,-z
1/2-x,1/2+y,z
1/2+x,1/2-y,z
loop_
_atom_site_type_symbol
_atom_site_label
_atom_site_fract_x
_atom_site_fract_y
_atom_site_fract_z
Si Si1 0.301899 0.478952 0.183933
Si Si2 0.823347 0.597171 0.318055
Si Si3 0.127184 0.674578 0.815548
Si Si4 0.022082 0.781256 0.316953
Si Si5 0.423736 0.017147 0.183525
Si Si6 0.555083 0.557846 0.684791
Si Si7 0.119363 0.257958 0.184033
Si Si8 0.724477 0.359352 0.813626
O O1 0.247926 0.426199 0.254160
O O2 0.375258 0.459514 0.237525
O O3 0.285150 0.559428 0.235008
O O4 0.297146 0.476366 0.000000
O O5 0.821064 0.603618 0.500000
O O6 0.874805 0.535936 0.268965
O O7 0.848258 0.670251 0.245425
O O8 0.084726 0.735920 0.738729
O O9 0.094360 0.598263 0.781161
O O10 0.203867 0.670313 0.765698
O O11 0.125404 0.683915 0.000000
O O12 0.016731 0.776920 0.500000
O O13 0.031394 0.863382 0.273398
O O14 0.955092 0.750996 0.243640
O O15 0.500000 0.000000 0.219460
O O16 0.414138 0.007360 0.000000
O O17 0.500000 0.500000 0.728239
O O18 0.563215 0.555229 0.500000
O O19 0.164755 0.191563 0.235159
O O20 0.118645 0.259821 0.000000
O O21 0.724898 0.360013 0.000000
#
# Coordination Sequence:
#
# PCOD9427490 Si02
#       8
#     8   8   8   8   8   8   8   8
#     4  11  22  41  67  94 124 160 211 265 308 365
#     4  12  25  40  60  92 129 164 205 254 313 376
#     4  10  20  38  61  88 124 162 204 254 308 364
#     4  11  24  41  61  92 129 164 207 257 312 376
#     4  10  20  37  63  90 119 159 202 245 299 363
#     4  10  23  43  65  92 131 172 209 257 319 378
#     4  11  23  41  65  91 121 162 211 260 313 371
#     4   9  20  39  64  92 120 156 207 261 311 364
#
# _framework density 19.267555999999999
#
# number of rings (size 3 to 8) (size 9 to 14) (size 15 to 20)
#    0.000    1.500    1.250    3.750    1.750    3.000 
#    0.000    2.500    0.000    0.000    0.000    0.000 
#    0.000    0.000    0.000    0.000    0.000    0.000 
#
# Total GULP energy -357901.712953 kJ/mol
# GULP energy per Si atom -5592.214265 kJ/mol
# Density = 1.922370 g / cm^3
# Si number density = 19.267556 Si / 1000 Ang^3
#
#
#
# Elastic Constant Matrix: (Units=GPa)
#
#
# Indices 1 2 3 4 5 6 
#
# 1 129.7463 54.6558 39.6561 0.0000 0.0000 0.0000
# 2 54.6558 124.6469 40.6821 0.0000 0.0000 0.0000
# 3 39.6561 40.6821 45.6739 0.0000 0.0000 0.0000
# 4 0.0000 0.0000 0.0000 4.8152 0.0000 0.0000
# 5 0.0000 0.0000 0.0000 0.0000 26.1358 0.0000
# 6 0.0000 0.0000 0.0000 0.0000 0.0000 41.5894
#
#
#
# Elastic Compliance Matrix: (Units=1/GPa)
#
#
# Indices 1 2 3 4 5 6 
#
# 1 0.010978 -0.002401 -0.007394 0.000000 0.000000 0.000000
# 2 -0.002401 0.011836 -0.008458 0.000000 0.000000 0.000000
# 3 -0.007394 -0.008458 0.035847 0.000000 0.000000 0.000000
# 4 0.000000 0.000000 0.000000 0.207674 0.000000 0.000000
# 5 0.000000 0.000000 0.000000 0.000000 0.038262 0.000000
# 6 0.000000 0.000000 0.000000 0.000000 0.000000 0.024045
#
#
# Mechanical properties :
#
#
# Convention : Reuss Voigt Hill
#
# Bulk Modulus (GPa) = 45.13212 63.33946 54.23579
# Shear Modulus (GPa) = 13.42167 25.51297 19.46732
#
# Velocity S-wave (km/s) = 2.64217 3.64282 3.18208
# Velocity P-wave (km/s) = 5.72563 7.11608 6.45838
#
# Compressibility (1/GPa) = 0.02215717
#
# Stress axis : x y z
#
# Youngs Moduli (GPa) = 91.08725 84.48932 27.89612
#
# Poissons Ratio (x) = 0.20284 0.20625
# Poissons Ratio (y) = 0.21868 0.23594
# Poissons Ratio (z) = 0.67346 0.71459
#
# Static dielectric constant tensor:
#      x y z
#    x 1.637380 0.000000 0.000000 
#    y 0.000000 1.649110 0.000000 
#    z 0.000000 0.000000 1.649890 
# 
# From -- ./inp_files/8964.got.cif
#   From: 2010.05.17/outbox.cif.g08.bks.cpg/sg55_5_cif.got.tgz:8964.got - 2010.06.03 13:27:54.
