data_PCOD9427544
_publ_section_title
;
Structure prediction by ZEFSAII (Michael W. Deem and Ramdas Pophale) SiO2 
 PCOD9427544
Probable space group: P B A M
;
_chemical_formula_sum "Si O2"
_cell_formula_units_Z 48
_cell_length_a 8.072261
_cell_length_b 14.251027
_cell_length_c 17.333833
_cell_angle_alpha 90.000000
_cell_angle_beta 90.000000
_cell_angle_gamma 90.000000
_cell_volume 1994.049645
_symmetry_space_group_name_H-M "P B A M"
_symmetry_group_IT_number 55
_symmetry_cell_setting 'orthorhombic'
loop_
_space_group_symop_operation_xyz
x,y,z
-x,-y,z
1/2+x,1/2-y,-z
1/2-x,1/2+y,-z
-x,-y,-z
x,y,-z
1/2-x,1/2+y,z
1/2+x,1/2-y,z
loop_
_atom_site_type_symbol
_atom_site_label
_atom_site_fract_x
_atom_site_fract_y
_atom_site_fract_z
Si Si1 0.167664 0.442208 0.411728
Si Si2 0.115572 0.608039 0.000000
Si Si3 0.718305 0.711304 0.831002
Si Si4 0.318518 0.632937 0.590501
Si Si5 0.746606 0.698589 0.000000
Si Si6 0.937024 0.403397 0.832440
Si Si7 0.145019 0.795991 0.333353
O O1 0.179949 0.408446 0.500000
O O2 0.303265 0.522293 0.396989
O O3 0.193185 0.355620 0.356595
O O4 0.000000 0.500000 0.404589
O O5 0.123673 0.560073 0.917312
O O6 0.929846 0.654487 0.000000
O O7 0.253123 0.688671 0.000000
O O8 0.659255 0.682039 0.917134
O O9 0.706201 0.824726 0.818543
O O10 0.617240 0.679884 0.755838
O O11 0.901028 0.664829 0.829359
O O12 0.281494 0.650201 0.500000
O O13 0.498293 0.668883 0.613109
O O14 0.190643 0.690212 0.643729
O O15 0.000000 0.500000 0.791705
#
# Coordination Sequence:
#
# PCOD9427544 Si02
#       7
#     8   4   8   8   4   8   8
#     4  10  22  41  64  90 120 158 203 251 310 376
#     4   8  15  30  58  86 109 154 207 250 312 386
#     4  10  22  38  60  91 123 161 212 263 317 382
#     4  11  23  39  61  88 121 160 200 247 306 372
#     4   8  16  34  56  82 120 158 200 262 318 370
#     4  10  20  38  61  86 121 161 205 260 321 381
#     4  12  23  38  60  89 123 158 203 254 304 368
#
# _framework density 24.071617
#
# number of rings (size 3 to 8) (size 9 to 14) (size 15 to 20)
#    0.000    1.833    0.000    4.250    0.000    4.667 
#    0.000    2.500    0.000    0.000    0.000   22.167 
#    0.000    0.000    0.000    0.000    0.000    0.000 
#
# Total GULP energy -267447.152729 kJ/mol
# GULP energy per Si atom -5571.815682 kJ/mol
# Density = 2.401683 g / cm^3
# Si number density = 24.071617 Si / 1000 Ang^3
#
#
#
# Elastic Constant Matrix: (Units=GPa)
#
#
# Indices 1 2 3 4 5 6 
#
# 1 52.2026 21.6038 -4.0846 0.0000 0.0000 0.0000
# 2 21.6038 88.7769 17.0587 0.0000 0.0000 0.0000
# 3 -4.0846 17.0587 123.2424 0.0000 0.0000 0.0000
# 4 0.0000 0.0000 0.0000 -2.5763 0.0000 0.0000
# 5 0.0000 0.0000 0.0000 0.0000 -59.5246 0.0000
# 6 0.0000 0.0000 0.0000 0.0000 0.0000 42.6574
#
#
#
# Elastic Compliance Matrix: (Units=1/GPa)
#
#
# Indices 1 2 3 4 5 6 
#
# 1 0.021561 -0.005531 0.001480 0.000000 0.000000 0.000000
# 2 -0.005531 0.012991 -0.001981 0.000000 0.000000 0.000000
# 3 0.001480 -0.001981 0.008437 0.000000 0.000000 0.000000
# 4 0.000000 0.000000 0.000000 -0.388149 0.000000 0.000000
# 5 0.000000 0.000000 0.000000 0.000000 -0.016800 0.000000
# 6 0.000000 0.000000 0.000000 0.000000 0.000000 0.023443
#
#
# Mechanical properties :
#
#
# Convention : Reuss Voigt Hill
#
# Bulk Modulus (GPa) = 32.33698 37.04194 34.68946
# Shear Modulus (GPa) = -15.81561 11.42091 -2.19735
#
# Velocity S-wave (km/s) = -2.56603 2.18056 -0.95646
# Velocity P-wave (km/s) = 2.16414 4.66492 3.63627
#
# Compressibility (1/GPa) = 0.03092435
#
# Stress axis : x y z
#
# Youngs Moduli (GPa) = 46.37993 76.97657 118.51968
#
# Poissons Ratio (x) = 0.42578 -0.17543
# Poissons Ratio (y) = 0.25654 0.23484
# Poissons Ratio (z) = -0.06865 0.15253
#
# Static dielectric constant tensor:
#      x y z
#    x 1.957150 0.000000 0.000000 
#    y 0.000000 1.935390 0.000000 
#    z 0.000000 0.000000 1.988530 
# 
# From -- ./inp_files/20838.got.cif
#   From: 2010.05.17/outbox.cif.g08.bks.cpg/sg55_11_cif.got.tgz:20838.got - 2010.06.03 13:27:54.
