data_PCOD9427934
_publ_section_title
;
Structure prediction by ZEFSAII (Michael W. Deem and Ramdas Pophale) SiO2 
 PCOD9427934
Probable space group: P B A M
;
_chemical_formula_sum "Si O2"
_cell_formula_units_Z 64
_cell_length_a 8.174823
_cell_length_b 23.397097
_cell_length_c 13.832790
_cell_angle_alpha 90.000000
_cell_angle_beta 90.000000
_cell_angle_gamma 90.000000
_cell_volume 2645.757997
_symmetry_space_group_name_H-M "P B A M"
_symmetry_group_IT_number 55
_symmetry_cell_setting 'orthorhombic'
loop_
_space_group_symop_operation_xyz
x,y,z
-x,-y,z
1/2+x,1/2-y,-z
1/2-x,1/2+y,-z
-x,-y,-z
x,y,-z
1/2-x,1/2+y,z
1/2+x,1/2-y,z
loop_
_atom_site_type_symbol
_atom_site_label
_atom_site_fract_x
_atom_site_fract_y
_atom_site_fract_z
Si Si1 0.988910 0.719320 0.694448
Si Si2 0.317060 0.879017 0.386074
Si Si3 0.664141 0.321891 0.384989
Si Si4 0.163324 0.038122 0.107495
Si Si5 0.341451 0.070940 0.387800
Si Si6 0.813706 0.716312 0.113818
Si Si7 0.682095 0.524596 0.289021
Si Si8 0.044005 0.162990 0.885725
O O1 0.851953 0.687464 0.629372
O O2 0.964631 0.786589 0.676591
O O3 0.944834 0.699774 0.803474
O O4 0.161319 0.702159 0.650714
O O5 0.283283 0.889204 0.500000
O O6 0.488512 0.906555 0.346420
O O7 0.188404 0.909289 0.315993
O O8 0.637476 0.314439 0.500000
O O9 0.688902 0.388506 0.363176
O O10 0.254487 0.000608 0.188707
O O11 0.110646 0.100918 0.146779
O O12 0.238782 0.043208 0.000000
O O13 0.000000 0.000000 0.096128
O O14 0.368463 0.080627 0.500000
O O15 0.292202 0.006809 0.368854
O O16 0.637458 0.688517 0.138262
O O17 0.824054 0.785605 0.123753
O O18 0.852781 0.704097 0.000000
O O19 0.500000 0.500000 0.296202
O O20 0.025267 0.152360 0.000000
#
# Coordination Sequence:
#
# PCOD9427934 Si02
#       8
#     8   8   8   8   8   8   8   8
#     4  11  22  36  60  85 118 157 194 239 300 361
#     4  10  22  41  60  82 115 158 197 239 297 363
#     4  10  21  38  58  85 115 154 197 241 292 359
#     4   9  20  38  60  84 119 162 197 238 297 362
#     4   9  20  39  60  80 113 154 190 230 296 365
#     4  10  21  36  59  90 123 155 195 246 300 358
#     4  11  23  35  60  89 112 142 197 254 294 339
#     4   9  19  37  60  86 119 157 197 244 298 355
#
# _framework density 24.189664
#
# number of rings (size 3 to 8) (size 9 to 14) (size 15 to 20)
#    0.000    2.125    0.000    3.375    5.250    3.000 
#    0.000    1.250    0.000    1.500    0.000    0.000 
#    0.000    0.000    0.000    0.000    0.000    0.000 
#
# Total GULP energy -356876.328759 kJ/mol
# GULP energy per Si atom -5576.192637 kJ/mol
# Density = 2.413461 g / cm^3
# Si number density = 24.189664 Si / 1000 Ang^3
#
#
#
# Elastic Constant Matrix: (Units=GPa)
#
#
# Indices 1 2 3 4 5 6 
#
# 1 49.2649 -0.2284 22.7712 0.0000 0.0000 0.0000
# 2 -0.2284 87.8360 7.4746 0.0000 0.0000 0.0000
# 3 22.7712 7.4746 108.4055 0.0000 0.0000 0.0000
# 4 0.0000 0.0000 0.0000 26.7578 0.0000 0.0000
# 5 0.0000 0.0000 0.0000 0.0000 11.5982 0.0000
# 6 0.0000 0.0000 0.0000 0.0000 0.0000 34.3788
#
#
#
# Elastic Compliance Matrix: (Units=1/GPa)
#
#
# Indices 1 2 3 4 5 6 
#
# 1 0.022500 0.000463 -0.004758 0.000000 0.000000 0.000000
# 2 0.000463 0.011462 -0.000888 0.000000 0.000000 0.000000
# 3 -0.004758 -0.000888 0.010285 0.000000 0.000000 0.000000
# 4 0.000000 0.000000 0.000000 0.037372 0.000000 0.000000
# 5 0.000000 0.000000 0.000000 0.000000 0.086221 0.000000
# 6 0.000000 0.000000 0.000000 0.000000 0.000000 0.029088
#
#
# Mechanical properties :
#
#
# Convention : Reuss Voigt Hill
#
# Bulk Modulus (GPa) = 29.51419 33.94901 31.73160
# Shear Modulus (GPa) = 22.87428 28.91289 25.89358
#
# Velocity S-wave (km/s) = 3.07843 3.46100 3.27531
# Velocity P-wave (km/s) = 4.98631 5.48054 5.23926
#
# Compressibility (1/GPa) = 0.03388201
#
# Stress axis : x y z
#
# Youngs Moduli (GPa) = 44.44466 87.24793 97.22603
#
# Poissons Ratio (x) = -0.04043 0.46262
# Poissons Ratio (y) = -0.02060 0.08630
# Poissons Ratio (z) = 0.21148 0.07744
#
# Static dielectric constant tensor:
#      x y z
#    x 1.945910 0.000000 0.000000 
#    y 0.000000 1.944100 0.000000 
#    z 0.000000 0.000000 2.032950 
# 
# From -- ./inp_files/17820.got.cif
#   From: 2010.05.17/outbox.cif.g08.bks.cpg/sg55_9_cif.got.tgz:17820.got - 2010.06.03 13:27:54.
