data_PCOD9427617
_publ_section_title
;
Structure prediction by ZEFSAII (Michael W. Deem and Ramdas Pophale) SiO2 
 PCOD9427617
Probable space group: P B A M
;
_chemical_formula_sum "Si O2"
_cell_formula_units_Z 48
_cell_length_a 20.541659
_cell_length_b 8.801737
_cell_length_c 13.876635
_cell_angle_alpha 90.000000
_cell_angle_beta 90.000000
_cell_angle_gamma 90.000000
_cell_volume 2508.927248
_symmetry_space_group_name_H-M "P B A M"
_symmetry_group_IT_number 55
_symmetry_cell_setting 'orthorhombic'
loop_
_space_group_symop_operation_xyz
x,y,z
-x,-y,z
1/2+x,1/2-y,-z
1/2-x,1/2+y,-z
-x,-y,-z
x,y,-z
1/2-x,1/2+y,z
1/2+x,1/2-y,z
loop_
_atom_site_type_symbol
_atom_site_label
_atom_site_fract_x
_atom_site_fract_y
_atom_site_fract_z
Si Si1 0.307800 0.575871 0.112091
Si Si2 0.313189 0.903472 0.198831
Si Si3 0.068723 0.916140 0.204172
Si Si4 0.715021 0.263763 0.389681
Si Si5 0.654541 0.600834 0.609965
Si Si6 0.931707 0.413451 0.887294
O O1 0.308185 0.754859 0.131697
O O2 0.251436 0.500550 0.176941
O O3 0.377122 0.510353 0.145177
O O4 0.295620 0.542961 0.000000
O O5 0.317354 0.838255 0.307095
O O6 0.375439 0.000736 0.170400
O O7 0.099089 0.894277 0.310330
O O8 0.061057 0.755160 0.152784
O O9 0.000000 0.000000 0.207680
O O10 0.701194 0.214340 0.500000
O O11 0.791996 0.233396 0.374520
O O12 0.692000 0.438009 0.381542
O O13 0.630563 0.611351 0.500000
O O14 0.000000 0.500000 0.878296
O O15 0.913271 0.409603 0.000000
#
# Coordination Sequence:
#
# PCOD9427617 Si02
#       6
#     8   8   8   8   8   8
#     4  12  24  38  62  94 127 167 213 262 314 374
#     4  12  22  41  64  94 128 165 206 265 318 373
#     4  12  25  42  64  91 124 171 214 262 321 379
#     4  10  20  38  66  96 125 159 205 257 315 371
#     4  10  22  41  65  96 128 163 206 261 320 379
#     4  11  26  45  65  90 126 170 215 263 317 381
#
# _framework density 19.131684
#
# number of rings (size 3 to 8) (size 9 to 14) (size 15 to 20)
#    0.000    0.833    3.333    4.000    2.333    3.000 
#    0.000    0.000    0.000    1.000    0.000    0.000 
#    0.000    0.000    0.000    0.000    0.000    0.000 
#
# Total GULP energy -268487.014810 kJ/mol
# GULP energy per Si atom -5593.479475 kJ/mol
# Density = 1.908814 g / cm^3
# Si number density = 19.131684 Si / 1000 Ang^3
#
#
#
# Elastic Constant Matrix: (Units=GPa)
#
#
# Indices 1 2 3 4 5 6 
#
# 1 77.3490 19.7690 21.2069 0.0000 0.0000 0.0000
# 2 19.7690 42.9923 -17.3745 0.0000 0.0000 0.0000
# 3 21.2069 -17.3745 91.3227 0.0000 0.0000 0.0000
# 4 0.0000 0.0000 0.0000 1.3241 0.0000 0.0000
# 5 0.0000 0.0000 0.0000 0.0000 48.9900 0.0000
# 6 0.0000 0.0000 0.0000 0.0000 0.0000 34.2151
#
#
#
# Elastic Compliance Matrix: (Units=1/GPa)
#
#
# Indices 1 2 3 4 5 6 
#
# 1 0.017198 -0.010315 -0.005956 0.000000 0.000000 0.000000
# 2 -0.010315 0.031384 0.008366 0.000000 0.000000 0.000000
# 3 -0.005956 0.008366 0.013925 0.000000 0.000000 0.000000
# 4 0.000000 0.000000 0.000000 0.755215 0.000000 0.000000
# 5 0.000000 0.000000 0.000000 0.000000 0.020412 0.000000
# 6 0.000000 0.000000 0.000000 0.000000 0.000000 0.029227
#
#
# Mechanical properties :
#
#
# Convention : Reuss Voigt Hill
#
# Bulk Modulus (GPa) = 21.41455 28.76297 25.08876
# Shear Modulus (GPa) = 5.56337 29.44335 17.50336
#
# Velocity S-wave (km/s) = 1.70712 3.92724 3.02799
# Velocity P-wave (km/s) = 3.88628 5.96919 5.03659
#
# Compressibility (1/GPa) = 0.04669721
#
# Stress axis : x y z
#
# Youngs Moduli (GPa) = 58.14718 31.86326 71.81319
#
# Poissons Ratio (x) = 0.32867 0.42773
# Poissons Ratio (y) = 0.59979 -0.60081
# Poissons Ratio (z) = 0.34633 -0.26658
#
# Static dielectric constant tensor:
#      x y z
#    x 1.583950 0.000000 0.000000 
#    y 0.000000 1.655650 0.000000 
#    z 0.000000 0.000000 1.681080 
# 
# From -- ./inp_files/17340.got.cif
#   From: 2010.05.17/outbox.cif.g08.bks.cpg/sg55_9_cif.got.tgz:17340.got - 2010.06.03 13:27:54.
