data_PCOD9427929
_publ_section_title
;
Structure prediction by ZEFSAII (Michael W. Deem and Ramdas Pophale) SiO2 
 PCOD9427929
Probable space group: P B A M
;
_chemical_formula_sum "Si O2"
_cell_formula_units_Z 48
_cell_length_a 20.825770
_cell_length_b 15.157017
_cell_length_c 7.927875
_cell_angle_alpha 90.000000
_cell_angle_beta 90.000000
_cell_angle_gamma 90.000000
_cell_volume 2502.485671
_symmetry_space_group_name_H-M "P B A M"
_symmetry_group_IT_number 55
_symmetry_cell_setting 'orthorhombic'
loop_
_space_group_symop_operation_xyz
x,y,z
-x,-y,z
1/2+x,1/2-y,-z
1/2-x,1/2+y,-z
-x,-y,-z
x,y,-z
1/2-x,1/2+y,z
1/2+x,1/2-y,z
loop_
_atom_site_type_symbol
_atom_site_label
_atom_site_fract_x
_atom_site_fract_y
_atom_site_fract_z
Si Si1 0.506304 0.260058 0.809059
Si Si2 0.187626 0.401315 0.189726
Si Si3 0.894589 0.526993 0.500000
Si Si4 0.560593 0.553295 0.196624
Si Si5 0.025541 0.637086 0.500000
Si Si6 0.845872 0.790716 0.295902
Si Si7 0.195212 0.014411 0.695740
O O1 0.461591 0.346124 0.801221
O O2 0.480534 0.194763 0.667707
O O3 0.580343 0.285672 0.767791
O O4 0.504683 0.224587 0.000000
O O5 0.142747 0.442982 0.333286
O O6 0.190240 0.296558 0.229601
O O7 0.254489 0.453695 0.205962
O O8 0.162247 0.411694 0.000000
O O9 0.911981 0.424195 0.500000
O O10 0.961660 0.578116 0.500000
O O11 0.500000 0.500000 0.267110
O O12 0.625470 0.530086 0.290429
O O13 0.569580 0.526120 0.000000
O O14 0.847622 0.787443 0.500000
O O15 0.813951 0.884029 0.245775
O O16 0.215747 0.016728 0.500000
#
# Coordination Sequence:
#
# PCOD9427929 Si02
#       7
#     8   8   4   8   4   8   8
#     4  11  21  37  63  94 128 170 215 259 321 386
#     4  12  24  44  70  92 128 172 217 267 321 386
#     4  11  24  46  64  96 127 160 221 265 321 369
#     4  10  21  36  58  92 133 164 207 272 322 379
#     4  11  24  42  67  90 132 166 204 278 312 378
#     4  11  21  40  67  92 125 169 217 262 319 388
#     4  11  24  40  65  95 129 172 216 269 326 386
#
# _framework density 19.18093
#
# number of rings (size 3 to 8) (size 9 to 14) (size 15 to 20)
#    0.000    1.000    5.833    1.000    1.167    3.000 
#    3.000    1.667    0.000    0.000    0.000    0.000 
#    0.000    0.000    0.000    0.000    0.000    0.000 
#
# Total GULP energy -268146.095808 kJ/mol
# GULP energy per Si atom -5586.376996 kJ/mol
# Density = 1.913727 g / cm^3
# Si number density = 19.180930 Si / 1000 Ang^3
#
#
#
# Elastic Constant Matrix: (Units=GPa)
#
#
# Indices 1 2 3 4 5 6 
#
# 1 70.1235 57.9116 30.8831 0.0000 0.0000 0.0000
# 2 57.9116 129.1961 54.7826 0.0000 0.0000 0.0000
# 3 30.8831 54.7826 126.8059 0.0000 0.0000 0.0000
# 4 0.0000 0.0000 0.0000 -1.7322 0.0000 0.0000
# 5 0.0000 0.0000 0.0000 0.0000 -10.3547 0.0000
# 6 0.0000 0.0000 0.0000 0.0000 0.0000 33.0528
#
#
#
# Elastic Compliance Matrix: (Units=1/GPa)
#
#
# Indices 1 2 3 4 5 6 
#
# 1 0.022842 -0.009647 -0.001395 0.000000 0.000000 0.000000
# 2 -0.009647 0.013551 -0.003505 0.000000 0.000000 0.000000
# 3 -0.001395 -0.003505 0.009740 0.000000 0.000000 0.000000
# 4 0.000000 0.000000 0.000000 -0.577315 0.000000 0.000000
# 5 0.000000 0.000000 0.000000 0.000000 -0.096575 0.000000
# 6 0.000000 0.000000 0.000000 0.000000 0.000000 0.030255
#
#
# Mechanical properties :
#
#
# Convention : Reuss Voigt Hill
#
# Bulk Modulus (GPa) = 58.69087 68.14224 63.41656
# Shear Modulus (GPa) = -8.88528 16.36307 3.73889
#
# Velocity S-wave (km/s) = -2.15463 2.92394 1.39768
# Velocity P-wave (km/s) = 4.94723 6.85583 5.97819
#
# Compressibility (1/GPa) = 0.01703842
#
# Stress axis : x y z
#
# Youngs Moduli (GPa) = 43.77844 73.79780 102.67020
#
# Poissons Ratio (x) = 0.71195 0.14326
# Poissons Ratio (y) = 0.42234 0.35981
# Poissons Ratio (z) = 0.06109 0.25863
#
# Static dielectric constant tensor:
#      x y z
#    x 1.644190 0.000000 0.000000 
#    y 0.000000 1.687550 0.000000 
#    z 0.000000 0.000000 1.672410 
# 
# From -- ./inp_files/7471.got.cif
#   From: 2010.05.17/outbox.cif.g08.bks.cpg/sg55_4_cif.got.tgz:7471.got - 2010.06.03 13:27:54.
