data_PCOD9427055
_publ_section_title
;
Structure prediction by ZEFSAII (Michael W. Deem and Ramdas Pophale) SiO2 
 PCOD9427055
Probable space group: P B A M
;
_chemical_formula_sum "Si O2"
_cell_formula_units_Z 36
_cell_length_a 10.886164
_cell_length_b 14.656553
_cell_length_c 12.480985
_cell_angle_alpha 90.000000
_cell_angle_beta 90.000000
_cell_angle_gamma 90.000000
_cell_volume 1991.386583
_symmetry_space_group_name_H-M "P B A M"
_symmetry_group_IT_number 55
_symmetry_cell_setting 'orthorhombic'
loop_
_space_group_symop_operation_xyz
x,y,z
-x,-y,z
1/2+x,1/2-y,-z
1/2-x,1/2+y,-z
-x,-y,-z
x,y,-z
1/2-x,1/2+y,z
1/2+x,1/2-y,z
loop_
_atom_site_type_symbol
_atom_site_label
_atom_site_fract_x
_atom_site_fract_y
_atom_site_fract_z
Si Si1 0.315662 0.767567 0.752952
Si Si2 0.000000 0.000000 0.205469
Si Si3 0.561393 0.694489 0.874873
Si Si4 0.669915 0.406894 0.381469
Si Si5 0.883614 0.553896 0.378158
O O1 0.438844 0.737162 0.818474
O O2 0.189828 0.773067 0.821511
O O3 0.295198 0.693170 0.659298
O O4 0.341486 0.864113 0.696641
O O5 0.090110 0.050366 0.287326
O O6 0.944526 0.083984 0.138699
O O7 0.559706 0.717942 0.000000
O O8 0.610812 0.402352 0.500000
O O9 0.781790 0.476300 0.388044
O O10 0.912119 0.587065 0.500000
O O11 0.000000 0.500000 0.333328
#
# Coordination Sequence:
#
# PCOD9427055 Si02
#       5
#     8   4   8   8   8
#     4  11  22  39  62  89 122 159 200 251 304 361
#     4  10  20  38  60  84 116 158 202 250 290 362
#     4  11  23  40  62  86 118 160 209 256 301 347
#     4  10  20  35  58  90 120 153 191 239 298 366
#     4  10  20  36  58  87 124 160 193 240 301 365
#
# _framework density 18.077856000000001
#
# number of rings (size 3 to 8) (size 9 to 14) (size 15 to 20)
#    0.000    1.556    2.222    3.333    0.000    0.000 
#    0.000    2.222    0.000    2.667    0.000    0.000 
#    0.000    0.000    0.000    0.000    0.000    0.000 
#
# Total GULP energy -200605.319834 kJ/mol
# GULP energy per Si atom -5572.369995 kJ/mol
# Density = 1.803671 g / cm^3
# Si number density = 18.077856 Si / 1000 Ang^3
#
#
#
# Elastic Constant Matrix: (Units=GPa)
#
#
# Indices 1 2 3 4 5 6 
#
# 1 88.7658 45.0226 40.0103 0.0000 0.0000 0.0000
# 2 45.0226 104.7819 44.1389 0.0000 0.0000 0.0000
# 3 40.0103 44.1389 95.8140 0.0000 0.0000 0.0000
# 4 0.0000 0.0000 0.0000 19.6182 0.0000 0.0000
# 5 0.0000 0.0000 0.0000 0.0000 23.7503 0.0000
# 6 0.0000 0.0000 0.0000 0.0000 0.0000 26.3840
#
#
#
# Elastic Compliance Matrix: (Units=1/GPa)
#
#
# Indices 1 2 3 4 5 6 
#
# 1 0.015702 -0.004944 -0.004279 0.000000 0.000000 0.000000
# 2 -0.004944 0.013398 -0.004108 0.000000 0.000000 0.000000
# 3 -0.004279 -0.004108 0.014116 0.000000 0.000000 0.000000
# 4 0.000000 0.000000 0.000000 0.050973 0.000000 0.000000
# 5 0.000000 0.000000 0.000000 0.000000 0.042105 0.000000
# 6 0.000000 0.000000 0.000000 0.000000 0.000000 0.037902
#
#
# Mechanical properties :
#
#
# Convention : Reuss Voigt Hill
#
# Bulk Modulus (GPa) = 60.40709 60.85613 60.63161
# Shear Modulus (GPa) = 24.22751 24.62982 24.42866
#
# Velocity S-wave (km/s) = 3.66481 3.69512 3.68000
# Velocity P-wave (km/s) = 7.16905 7.20705 7.18808
#
# Compressibility (1/GPa) = 0.01655435
#
# Stress axis : x y z
#
# Youngs Moduli (GPa) = 63.68528 74.63570 70.84104
#
# Poissons Ratio (x) = 0.36902 0.30315
# Poissons Ratio (y) = 0.31488 0.29099
# Poissons Ratio (z) = 0.27253 0.30658
#
# Static dielectric constant tensor:
#      x y z
#    x 1.566880 0.000000 0.000000 
#    y 0.000000 1.620570 0.000000 
#    z 0.000000 0.000000 1.652170 
# 
# From -- ./inp_files/12945.got.cif
#   From: 2010.05.17/outbox.cif.g08.bks.cpg/sg55_7_cif.got.tgz:12945.got - 2010.06.03 13:27:54.
