data_PCOD9427738
_publ_section_title
;
Structure prediction by ZEFSAII (Michael W. Deem and Ramdas Pophale) SiO2 
 PCOD9427738
Probable space group: P B A M
;
_chemical_formula_sum "Si O2"
_cell_formula_units_Z 64
_cell_length_a 9.637117
_cell_length_b 20.882984
_cell_length_c 15.605210
_cell_angle_alpha 90.000000
_cell_angle_beta 90.000000
_cell_angle_gamma 90.000000
_cell_volume 3140.575979
_symmetry_space_group_name_H-M "P B A M"
_symmetry_group_IT_number 55
_symmetry_cell_setting 'orthorhombic'
loop_
_space_group_symop_operation_xyz
x,y,z
-x,-y,z
1/2+x,1/2-y,-z
1/2-x,1/2+y,-z
-x,-y,-z
x,y,-z
1/2-x,1/2+y,z
1/2+x,1/2-y,z
loop_
_atom_site_type_symbol
_atom_site_label
_atom_site_fract_x
_atom_site_fract_y
_atom_site_fract_z
Si Si1 0.923797 0.568092 0.402884
Si Si2 0.609943 0.835772 0.709635
Si Si3 0.806313 0.135988 0.802613
Si Si4 0.351254 0.753315 0.736344
Si Si5 0.555633 0.312135 0.900971
Si Si6 0.143167 0.977430 0.689304
Si Si7 0.625598 0.039179 0.097511
Si Si8 0.260234 0.576189 0.831759
O O1 0.906315 0.592122 0.500000
O O2 0.772581 0.551483 0.363146
O O3 0.000000 0.500000 0.404428
O O4 0.028188 0.615263 0.351992
O O5 0.505119 0.775022 0.710300
O O6 0.764124 0.804798 0.693701
O O7 0.638002 0.875559 0.798153
O O8 0.741542 0.183376 0.733317
O O9 0.892038 0.080149 0.755446
O O10 0.683993 0.098552 0.851180
O O11 0.899930 0.175700 0.868034
O O12 0.370766 0.737049 0.836863
O O13 0.631924 0.378280 0.878653
O O14 0.563082 0.295402 0.000000
O O15 0.803212 0.962378 0.745677
O O16 0.000000 0.000000 0.645151
O O17 0.500000 0.000000 0.140847
O O18 0.734683 0.981526 0.102086
O O19 0.589720 0.056475 0.000000
#
# Coordination Sequence:
#
# PCOD9427738 Si02
#       8
#     8   8   8   8   8   8   8   8
#     4  11  24  43  71 103 131 160 196 260 338 396
#     4  11  22  42  67  92 127 166 216 263 315 394
#     4  11  21  37  59  86 121 166 220 264 324 373
#     4  11  23  40  63  88 120 174 225 261 312 382
#     4  11  23  38  55  84 126 168 221 278 320 357
#     4  11  21  37  67  97 126 164 213 256 313 405
#     4  10  21  33  50  79 117 157 210 271 328 371
#     4  10  21  36  58  86 117 168 214 257 318 378
#
# _framework density 20.378426999999999
#
# number of rings (size 3 to 8) (size 9 to 14) (size 15 to 20)
#    0.000    1.250    5.000    1.500    1.750    1.250 
#    0.000    3.125    0.000    0.000    0.000    0.000 
#    0.000    0.000    0.000    0.000    0.000    0.000 
#
# Total GULP energy -356285.145846 kJ/mol
# GULP energy per Si atom -5566.955404 kJ/mol
# Density = 2.033204 g / cm^3
# Si number density = 20.378427 Si / 1000 Ang^3
#
#
#
# Elastic Constant Matrix: (Units=GPa)
#
#
# Indices 1 2 3 4 5 6 
#
# 1 95.0681 21.2097 29.5961 0.0000 0.0000 0.0000
# 2 21.2097 67.4930 -1.3466 0.0000 0.0000 0.0000
# 3 29.5961 -1.3466 58.3258 0.0000 0.0000 0.0000
# 4 0.0000 0.0000 0.0000 13.2458 0.0000 0.0000
# 5 0.0000 0.0000 0.0000 0.0000 16.0648 0.0000
# 6 0.0000 0.0000 0.0000 0.0000 0.0000 33.3496
#
#
#
# Elastic Compliance Matrix: (Units=1/GPa)
#
#
# Indices 1 2 3 4 5 6 
#
# 1 0.013709 -0.004449 -0.007059 0.000000 0.000000 0.000000
# 2 -0.004449 0.016267 0.002633 0.000000 0.000000 0.000000
# 3 -0.007059 0.002633 0.020788 0.000000 0.000000 0.000000
# 4 0.000000 0.000000 0.000000 0.075496 0.000000 0.000000
# 5 0.000000 0.000000 0.000000 0.000000 0.062248 0.000000
# 6 0.000000 0.000000 0.000000 0.000000 0.000000 0.029985
#
#
# Mechanical properties :
#
#
# Convention : Reuss Voigt Hill
#
# Bulk Modulus (GPa) = 30.29018 35.53393 32.91206
# Shear Modulus (GPa) = 20.22272 23.96056 22.09164
#
# Velocity S-wave (km/s) = 3.15359 3.43269 3.29609
# Velocity P-wave (km/s) = 5.30625 5.76073 5.53815
#
# Compressibility (1/GPa) = 0.03301400
#
# Stress axis : x y z
#
# Youngs Moduli (GPa) = 72.94537 61.47438 48.10518
#
# Poissons Ratio (x) = 0.27349 0.33957
# Poissons Ratio (y) = 0.32452 -0.12666
# Poissons Ratio (z) = 0.51492 -0.16186
#
# Static dielectric constant tensor:
#      x y z
#    x 1.848870 0.000000 0.000000 
#    y 0.000000 1.757060 0.000000 
#    z 0.000000 0.000000 1.717300 
# 
# From -- ./inp_files/17849.got.cif
#   From: 2010.05.17/outbox.cif.g08.bks.cpg/sg55_9_cif.got.tgz:17849.got - 2010.06.03 13:27:54.
