data_PCOD9427429
_publ_section_title
;
Structure prediction by ZEFSAII (Michael W. Deem and Ramdas Pophale) SiO2 
 PCOD9427429
Probable space group: P B A M
;
_chemical_formula_sum "Si O2"
_cell_formula_units_Z 64
_cell_length_a 19.064638
_cell_length_b 19.710523
_cell_length_c 7.896319
_cell_angle_alpha 90.000000
_cell_angle_beta 90.000000
_cell_angle_gamma 90.000000
_cell_volume 2967.231264
_symmetry_space_group_name_H-M "P B A M"
_symmetry_group_IT_number 55
_symmetry_cell_setting 'orthorhombic'
loop_
_space_group_symop_operation_xyz
x,y,z
-x,-y,z
1/2+x,1/2-y,-z
1/2-x,1/2+y,-z
-x,-y,-z
x,y,-z
1/2-x,1/2+y,z
1/2+x,1/2-y,z
loop_
_atom_site_type_symbol
_atom_site_label
_atom_site_fract_x
_atom_site_fract_y
_atom_site_fract_z
Si Si1 0.505416 0.121857 0.302185
Si Si2 0.365335 0.955709 0.298658
Si Si3 0.963457 0.898462 0.794256
Si Si4 0.151127 0.608094 0.197516
Si Si5 0.407745 0.746520 0.206677
Si Si6 0.252296 0.229236 0.200006
Si Si7 0.108726 0.968174 0.205068
Si Si8 0.765745 0.125627 0.698694
O O1 0.490096 0.108506 0.500000
O O2 0.557155 0.062897 0.233961
O O3 0.430320 0.128744 0.215649
O O4 0.551672 0.189490 0.281315
O O5 0.368399 0.943781 0.500000
O O6 0.306995 0.904084 0.227950
O O7 0.343096 0.032991 0.272958
O O8 0.946214 0.822849 0.741768
O O9 0.039537 0.925933 0.743090
O O10 0.905954 0.954415 0.741506
O O11 0.963035 0.899146 0.000000
O O12 0.201996 0.666758 0.269854
O O13 0.167613 0.600766 0.000000
O O14 0.327038 0.739044 0.264888
O O15 0.408876 0.752355 0.000000
O O16 0.287715 0.302716 0.222648
O O17 0.245159 0.216642 0.000000
O O18 0.176674 0.932146 0.275640
O O19 0.112944 0.966863 0.000000
O O20 0.756732 0.138081 0.500000
#
# Coordination Sequence:
#
# PCOD9427429 Si02
#       8
#     8   8   8   8   8   8   8   8
#     4  11  23  42  63  87 122 165 201 240 301 361
#     4  10  23  43  62  85 120 161 201 244 300 358
#     4   8  17  34  58  86 116 151 192 241 296 348
#     4  11  25  41  64  96 122 149 200 256 299 351
#     4  10  20  37  61  86 117 155 200 247 292 348
#     4  10  23  41  60  87 120 155 195 246 298 348
#     4   9  18  35  59  86 116 153 195 240 293 351
#     4  11  23  39  59  85 120 160 197 240 292 355
#
# _framework density 21.568928
#
# number of rings (size 3 to 8) (size 9 to 14) (size 15 to 20)
#    0.000    2.000    1.250    2.250    3.500    4.500 
#    0.000    1.875    0.000    0.000    0.000    0.000 
#    0.000    0.000    0.000    0.000    0.000    0.000 
#
# Total GULP energy -357461.453554 kJ/mol
# GULP energy per Si atom -5585.335212 kJ/mol
# Density = 2.151984 g / cm^3
# Si number density = 21.568928 Si / 1000 Ang^3
#
#
#
# Elastic Constant Matrix: (Units=GPa)
#
#
# Indices 1 2 3 4 5 6 
#
# 1 38.6414 24.6441 -6.3002 0.0000 0.0000 0.0000
# 2 24.6441 111.9256 -10.6069 0.0000 0.0000 0.0000
# 3 -6.3002 -10.6069 23.3992 0.0000 0.0000 0.0000
# 4 0.0000 0.0000 0.0000 23.9856 0.0000 0.0000
# 5 0.0000 0.0000 0.0000 0.0000 14.4864 0.0000
# 6 0.0000 0.0000 0.0000 0.0000 0.0000 41.0363
#
#
#
# Elastic Compliance Matrix: (Units=1/GPa)
#
#
# Indices 1 2 3 4 5 6 
#
# 1 0.030757 -0.006256 0.005445 0.000000 0.000000 0.000000
# 2 -0.006256 0.010608 0.003124 0.000000 0.000000 0.000000
# 3 0.005445 0.003124 0.045619 0.000000 0.000000 0.000000
# 4 0.000000 0.000000 0.000000 0.041692 0.000000 0.000000
# 5 0.000000 0.000000 0.000000 0.000000 0.069030 0.000000
# 6 0.000000 0.000000 0.000000 0.000000 0.000000 0.024369
#
#
# Mechanical properties :
#
#
# Convention : Reuss Voigt Hill
#
# Bulk Modulus (GPa) = 10.91574 21.04889 15.98232
# Shear Modulus (GPa) = 20.16255 26.98358 23.57307
#
# Velocity S-wave (km/s) = 3.06076 3.54084 3.30952
# Velocity P-wave (km/s) = 4.19081 5.14751 4.69360
#
# Compressibility (1/GPa) = 0.09161081
#
# Stress axis : x y z
#
# Youngs Moduli (GPa) = 32.51320 94.26796 21.92071
#
# Poissons Ratio (x) = 0.58975 -0.11937
# Poissons Ratio (y) = 0.20340 -0.06848
# Poissons Ratio (z) = -0.17705 -0.29451
#
# Static dielectric constant tensor:
#      x y z
#    x 1.790240 0.000000 0.000000 
#    y 0.000000 1.775030 0.000000 
#    z 0.000000 0.000000 1.784470 
# 
# From -- ./inp_files/9004.got.cif
#   From: 2010.05.17/outbox.cif.g08.bks.cpg/sg55_5_cif.got.tgz:9004.got - 2010.06.03 13:27:54.
