data_PCOD9427699
_publ_section_title
;
Structure prediction by ZEFSAII (Michael W. Deem and Ramdas Pophale) SiO2 
 PCOD9427699
Probable space group: P B A M
;
_chemical_formula_sum "Si O2"
_cell_formula_units_Z 48
_cell_length_a 28.758176
_cell_length_b 10.137768
_cell_length_c 7.724365
_cell_angle_alpha 90.000000
_cell_angle_beta 90.000000
_cell_angle_gamma 90.000000
_cell_volume 2251.990079
_symmetry_space_group_name_H-M "P B A M"
_symmetry_group_IT_number 55
_symmetry_cell_setting 'orthorhombic'
loop_
_space_group_symop_operation_xyz
x,y,z
-x,-y,z
1/2+x,1/2-y,-z
1/2-x,1/2+y,-z
-x,-y,-z
x,y,-z
1/2-x,1/2+y,z
1/2+x,1/2-y,z
loop_
_atom_site_type_symbol
_atom_site_label
_atom_site_fract_x
_atom_site_fract_y
_atom_site_fract_z
Si Si1 0.712441 0.295291 0.790215
Si Si2 0.639848 0.084980 0.307952
Si Si3 0.142151 0.976018 0.209235
Si Si4 0.680593 0.810761 0.209898
Si Si5 0.033226 0.700897 0.000000
Si Si6 0.429381 0.903064 0.000000
Si Si7 0.543542 0.592223 0.301458
O O1 0.679217 0.415028 0.735163
O O2 0.765482 0.314631 0.735357
O O3 0.687793 0.163110 0.725289
O O4 0.712797 0.289918 0.000000
O O5 0.622789 0.112698 0.500000
O O6 0.651650 0.931286 0.285315
O O7 0.602313 0.127100 0.165858
O O8 0.159914 0.830710 0.257099
O O9 0.090802 0.991208 0.283288
O O10 0.139284 0.982177 0.000000
O O11 0.679042 0.823267 0.000000
O O12 0.058331 0.559295 0.000000
O O13 0.046399 0.787067 0.167545
O O14 0.977984 0.673376 0.000000
O O15 0.500000 0.500000 0.255394
O O16 0.538211 0.636651 0.500000
#
# Coordination Sequence:
#
# PCOD9427699 Si02
#       7
#     8   8   8   8   4   4   8
#     4  10  21  39  66  97 133 175 221 269 320 384
#     4  12  25  41  66  96 134 175 215 266 328 392
#     4  10  21  37  66  97 128 173 217 268 327 383
#     4  10  20  40  66  96 132 175 223 267 320 388
#     4  11  25  46  72  90 127 168 215 271 329 391
#     4  11  26  46  66  96 124 169 219 269 324 392
#     4  11  25  42  67 100 131 166 215 272 331 394
#
# _framework density 21.31448
#
# number of rings (size 3 to 8) (size 9 to 14) (size 15 to 20)
#    0.000    1.333    2.500    2.250    2.333    7.333 
#    0.000    3.333    0.000    0.000    0.000    0.000 
#    0.000    0.000    0.000    0.000    0.000    0.000 
#
# Total GULP energy -268707.142887 kJ/mol
# GULP energy per Si atom -5598.065477 kJ/mol
# Density = 2.126597 g / cm^3
# Si number density = 21.314480 Si / 1000 Ang^3
#
#
#
# Elastic Constant Matrix: (Units=GPa)
#
#
# Indices 1 2 3 4 5 6 
#
# 1 121.7637 -4.0040 17.0903 0.0000 0.0000 0.0000
# 2 -4.0040 46.1880 1.9833 0.0000 0.0000 0.0000
# 3 17.0903 1.9833 78.2267 0.0000 0.0000 0.0000
# 4 0.0000 0.0000 0.0000 -27.6615 0.0000 0.0000
# 5 0.0000 0.0000 0.0000 0.0000 -20.7078 0.0000
# 6 0.0000 0.0000 0.0000 0.0000 0.0000 31.4726
#
#
#
# Elastic Compliance Matrix: (Units=1/GPa)
#
#
# Indices 1 2 3 4 5 6 
#
# 1 0.008503 0.000818 -0.001878 0.000000 0.000000 0.000000
# 2 0.000818 0.021753 -0.000730 0.000000 0.000000 0.000000
# 3 -0.001878 -0.000730 0.013212 0.000000 0.000000 0.000000
# 4 0.000000 0.000000 0.000000 -0.036151 0.000000 0.000000
# 5 0.000000 0.000000 0.000000 0.000000 -0.048291 0.000000
# 6 0.000000 0.000000 0.000000 0.000000 0.000000 0.031774
#
#
# Mechanical properties :
#
#
# Convention : Reuss Voigt Hill
#
# Bulk Modulus (GPa) = 25.07102 30.70196 27.88649
# Shear Modulus (GPa) = 651.32026 12.02794 331.67410
#
# Velocity S-wave (km/s) = 17.49971 2.37809 12.48790
# Velocity P-wave (km/s) = 20.49653 4.68786 14.86748
#
# Compressibility (1/GPa) = 0.03988669
#
# Stress axis : x y z
#
# Youngs Moduli (GPa) = 117.60325 45.97087 75.68733
#
# Poissons Ratio (x) = -0.03759 0.14217
# Poissons Ratio (y) = -0.09617 0.05527
# Poissons Ratio (z) = 0.22091 0.03357
#
# Static dielectric constant tensor:
#      x y z
#    x 1.756210 0.000000 0.000000 
#    y 0.000000 1.737600 0.000000 
#    z 0.000000 0.000000 1.770560 
# 
# From -- ./inp_files/10558.got.cif
#   From: 2010.05.17/outbox.cif.g08.bks.cpg/sg55_6_cif.got.tgz:10558.got - 2010.06.03 13:27:54.
