data_PCOD9427592
_publ_section_title
;
Structure prediction by ZEFSAII (Michael W. Deem and Ramdas Pophale) SiO2 
 PCOD9427592
Probable space group: P B A M
;
_chemical_formula_sum "Si O2"
_cell_formula_units_Z 48
_cell_length_a 26.206453
_cell_length_b 9.847000
_cell_length_c 7.658719
_cell_angle_alpha 90.000000
_cell_angle_beta 90.000000
_cell_angle_gamma 90.000000
_cell_volume 1976.370293
_symmetry_space_group_name_H-M "P B A M"
_symmetry_group_IT_number 55
_symmetry_cell_setting 'orthorhombic'
loop_
_space_group_symop_operation_xyz
x,y,z
-x,-y,z
1/2+x,1/2-y,-z
1/2-x,1/2+y,-z
-x,-y,-z
x,y,-z
1/2-x,1/2+y,z
1/2+x,1/2-y,z
loop_
_atom_site_type_symbol
_atom_site_label
_atom_site_fract_x
_atom_site_fract_y
_atom_site_fract_z
Si Si1 0.735324 0.826942 0.787204
Si Si2 0.309070 0.450838 0.788680
Si Si3 0.582546 0.222745 0.299530
Si Si4 0.529670 0.799924 0.797911
Si Si5 0.077535 0.973900 0.701781
Si Si6 0.370859 0.048904 0.796598
O O1 0.729313 0.670311 0.740759
O O2 0.683550 0.902609 0.726592
O O3 0.785021 0.907717 0.728118
O O4 0.736602 0.834382 0.000000
O O5 0.364448 0.422417 0.713503
O O6 0.314314 0.450361 0.000000
O O7 0.598625 0.235763 0.500000
O O8 0.524162 0.171631 0.290543
O O9 0.580377 0.374276 0.221071
O O10 0.618839 0.111301 0.214239
O O11 0.542203 0.639431 0.787265
O O12 0.579070 0.876511 0.720972
O O13 0.523748 0.839905 0.000000
O O14 0.061428 0.984870 0.500000
O O15 0.370100 0.090477 0.000000
#
# Coordination Sequence:
#
# PCOD9427592 Si02
#       6
#     8   8   8   8   8   8
#     4   9  19  36  61  91 118 147 191 246 298 345
#     4  10  20  38  63  90 118 153 197 246 297 352
#     4  11  25  40  57  87 124 160 201 243 294 358
#     4  11  22  40  65  90 117 153 203 252 300 355
#     4  11  24  41  59  85 124 163 198 244 296 354
#     4  10  21  39  61  89 121 153 196 248 296 352
#
# _framework density 24.286947999999999
#
# number of rings (size 3 to 8) (size 9 to 14) (size 15 to 20)
#    0.000    1.667    1.667    2.500    2.333    8.000 
#    0.000    1.667    0.000    0.000    0.000    0.000 
#    0.000    0.000    0.000    0.000    0.000    0.000 
#
# Total GULP energy -268523.561483 kJ/mol
# GULP energy per Si atom -5594.240864 kJ/mol
# Density = 2.423167 g / cm^3
# Si number density = 24.286948 Si / 1000 Ang^3
#
#
#
# Elastic Constant Matrix: (Units=GPa)
#
#
# Indices 1 2 3 4 5 6 
#
# 1 36.8455 -6.7359 -4.4639 0.0000 0.0000 0.0000
# 2 -6.7359 73.6262 -2.4376 0.0000 0.0000 0.0000
# 3 -4.4639 -2.4376 48.5282 0.0000 0.0000 0.0000
# 4 0.0000 0.0000 0.0000 27.9296 0.0000 0.0000
# 5 0.0000 0.0000 0.0000 0.0000 -5.4761 0.0000
# 6 0.0000 0.0000 0.0000 0.0000 0.0000 46.3698
#
#
#
# Elastic Compliance Matrix: (Units=1/GPa)
#
#
# Indices 1 2 3 4 5 6 
#
# 1 0.027952 0.002647 0.002704 0.000000 0.000000 0.000000
# 2 0.002647 0.013855 0.000939 0.000000 0.000000 0.000000
# 3 0.002704 0.000939 0.020902 0.000000 0.000000 0.000000
# 4 0.000000 0.000000 0.000000 0.035804 0.000000 0.000000
# 5 0.000000 0.000000 0.000000 0.000000 -0.182611 0.000000
# 6 0.000000 0.000000 0.000000 0.000000 0.000000 0.021566
#
#
# Mechanical properties :
#
#
# Convention : Reuss Voigt Hill
#
# Bulk Modulus (GPa) = 13.28194 14.63615 13.95905
# Shear Modulus (GPa) = -99.97006 25.27379 -37.34813
#
# Velocity S-wave (km/s) = -6.42273 3.22938 -3.92572
# Velocity P-wave (km/s) = 7.03713 4.46594 3.84556
#
# Compressibility (1/GPa) = 0.07529020
#
# Stress axis : x y z
#
# Youngs Moduli (GPa) = 35.77587 72.17421 47.84118
#
# Poissons Ratio (x) = -0.19103 -0.12937
# Poissons Ratio (y) = -0.09469 -0.04494
# Poissons Ratio (z) = -0.09674 -0.06780
#
# Static dielectric constant tensor:
#      x y z
#    x 1.895980 0.000000 0.000000 
#    y 0.000000 1.965460 0.000000 
#    z 0.000000 0.000000 1.908870 
# 
# From -- ./inp_files/2777.got.cif
#   From: 2010.05.17/outbox.cif.g08.bks.cpg/sg55_2_cif.got.tgz:2777.got - 2010.06.03 13:27:54.
