data_PCOD9427085
_publ_section_title
;
Structure prediction by ZEFSAII (Michael W. Deem and Ramdas Pophale) SiO2 
 PCOD9427085
Probable space group: P B A M
;
_chemical_formula_sum "Si O2"
_cell_formula_units_Z 64
_cell_length_a 11.882353
_cell_length_b 19.338234
_cell_length_c 13.709195
_cell_angle_alpha 90.000000
_cell_angle_beta 90.000000
_cell_angle_gamma 90.000000
_cell_volume 3150.149863
_symmetry_space_group_name_H-M "P B A M"
_symmetry_group_IT_number 55
_symmetry_cell_setting 'orthorhombic'
loop_
_space_group_symop_operation_xyz
x,y,z
-x,-y,z
1/2+x,1/2-y,-z
1/2-x,1/2+y,-z
-x,-y,-z
x,y,-z
1/2-x,1/2+y,z
1/2+x,1/2-y,z
loop_
_atom_site_type_symbol
_atom_site_label
_atom_site_fract_x
_atom_site_fract_y
_atom_site_fract_z
Si Si1 0.435124 0.071160 0.393036
Si Si2 0.642437 0.764024 0.110051
Si Si3 0.026441 0.877148 0.843222
Si Si4 0.045102 0.344315 0.774498
Si Si5 0.840883 0.788971 0.732977
Si Si6 0.678045 0.415528 0.391864
Si Si7 0.127297 0.471630 0.113632
Si Si8 0.148487 0.019388 0.189418
O O1 0.465857 0.100254 0.500000
O O2 0.466082 0.119964 0.304537
O O3 0.303753 0.055403 0.395393
O O4 0.500000 0.000000 0.378977
O O5 0.603209 0.683064 0.109285
O O6 0.533321 0.807156 0.145216
O O7 0.742870 0.782696 0.185319
O O8 0.675305 0.783048 0.000000
O O9 0.952770 0.828843 0.771038
O O10 0.110040 0.939780 0.815862
O O11 0.923159 0.927912 0.879143
O O12 0.120250 0.288833 0.717572
O O13 0.122197 0.400092 0.828296
O O14 0.807078 0.835459 0.641051
O O15 0.626571 0.421410 0.500000
O O16 0.624792 0.454983 0.299825
O O17 0.220605 0.521242 0.161289
O O18 0.000000 0.500000 0.119396
O O19 0.156276 0.462050 0.000000
#
# Coordination Sequence:
#
# PCOD9427085 Si02
#       8
#     8   8   8   8   8   8   8   8
#     4  10  20  35  61  90 116 153 199 250 310 368
#     4  11  23  39  60  85 120 165 210 251 301 364
#     4   9  22  39  61  89 121 161 204 248 307 366
#     4  11  21  38  59  85 122 157 204 253 308 363
#     4  10  22  38  59  86 120 162 200 251 304 360
#     4  10  20  38  63  89 119 156 201 249 307 368
#     4  11  24  38  60  93 125 164 209 258 312 363
#     4  10  20  41  63  88 126 161 201 256 311 366
#
# _framework density 20.316495
#
# number of rings (size 3 to 8) (size 9 to 14) (size 15 to 20)
#    0.000    1.750    1.250    3.000    1.750    5.000 
#    0.000    6.250    0.000    3.000    0.000    0.000 
#    0.000    0.000    0.000    0.000    0.000    0.000 
#
# Total GULP energy -356336.831961 kJ/mol
# GULP energy per Si atom -5567.762999 kJ/mol
# Density = 2.027025 g / cm^3
# Si number density = 20.316495 Si / 1000 Ang^3
#
#
#
# Elastic Constant Matrix: (Units=GPa)
#
#
# Indices 1 2 3 4 5 6 
#
# 1 55.2643 -4.2055 3.2657 0.0000 0.0000 0.0000
# 2 -4.2055 69.0326 19.6955 0.0000 0.0000 0.0000
# 3 3.2657 19.6955 89.1132 0.0000 0.0000 0.0000
# 4 0.0000 0.0000 0.0000 -40.6376 0.0000 0.0000
# 5 0.0000 0.0000 0.0000 0.0000 -20.6626 0.0000
# 6 0.0000 0.0000 0.0000 0.0000 0.0000 31.3781
#
#
#
# Elastic Compliance Matrix: (Units=1/GPa)
#
#
# Indices 1 2 3 4 5 6 
#
# 1 0.018258 0.001391 -0.000977 0.000000 0.000000 0.000000
# 2 0.001391 0.015567 -0.003492 0.000000 0.000000 0.000000
# 3 -0.000977 -0.003492 0.012029 0.000000 0.000000 0.000000
# 4 0.000000 0.000000 0.000000 -0.024608 0.000000 0.000000
# 5 0.000000 0.000000 0.000000 0.000000 -0.048397 0.000000
# 6 0.000000 0.000000 0.000000 0.000000 0.000000 0.031869
#
#
# Mechanical properties :
#
#
# Convention : Reuss Voigt Hill
#
# Bulk Modulus (GPa) = 25.18882 27.88018 26.53450
# Shear Modulus (GPa) = 207.40912 6.99253 107.20083
#
# Velocity S-wave (km/s) = 10.11487 1.85722 7.27186
# Velocity P-wave (km/s) = 12.19997 4.28389 9.14306
#
# Compressibility (1/GPa) = 0.03970015
#
# Stress axis : x y z
#
# Youngs Moduli (GPa) = 54.76929 64.23927 83.13137
#
# Poissons Ratio (x) = -0.08935 0.08118
# Poissons Ratio (y) = -0.07618 0.29025
# Poissons Ratio (z) = 0.05348 0.22429
#
# Static dielectric constant tensor:
#      x y z
#    x 1.761110 0.000000 0.000000 
#    y 0.000000 1.747940 0.000000 
#    z 0.000000 0.000000 1.765450 
# 
# From -- ./inp_files/18556.got.cif
#   From: 2010.05.17/outbox.cif.g08.bks.cpg/sg55_10_cif.got.tgz:18556.got - 2010.06.03 13:27:54.
