data_PCOD9427800
_publ_section_title
;
Structure prediction by ZEFSAII (Michael W. Deem and Ramdas Pophale) SiO2 
 PCOD9427800
Probable space group: P B A M
;
_chemical_formula_sum "Si O2"
_cell_formula_units_Z 48
_cell_length_a 11.230529
_cell_length_b 24.954852
_cell_length_c 7.476842
_cell_angle_alpha 90.000000
_cell_angle_beta 90.000000
_cell_angle_gamma 90.000000
_cell_volume 2095.431245
_symmetry_space_group_name_H-M "P B A M"
_symmetry_group_IT_number 55
_symmetry_cell_setting 'orthorhombic'
loop_
_space_group_symop_operation_xyz
x,y,z
-x,-y,z
1/2+x,1/2-y,-z
1/2-x,1/2+y,-z
-x,-y,-z
x,y,-z
1/2-x,1/2+y,z
1/2+x,1/2-y,z
loop_
_atom_site_type_symbol
_atom_site_label
_atom_site_fract_x
_atom_site_fract_y
_atom_site_fract_z
Si Si1 0.661084 0.184058 0.295881
Si Si2 0.218581 0.922149 0.719185
Si Si3 0.047972 0.091150 0.718357
Si Si4 0.207442 0.534360 0.716094
Si Si5 0.659681 0.302367 0.292892
Si Si6 0.592886 0.857725 0.207376
O O1 0.706157 0.190393 0.500000
O O2 0.735834 0.135218 0.215390
O O3 0.663762 0.243137 0.212333
O O4 0.526137 0.163075 0.297734
O O5 0.222837 0.921399 0.500000
O O6 0.081001 0.929662 0.771221
O O7 0.297699 0.972881 0.775526
O O8 0.049870 0.091285 0.500000
O O9 0.162310 0.056568 0.772623
O O10 0.071773 0.152088 0.781176
O O11 0.203472 0.535060 0.500000
O O12 0.112814 0.578461 0.776527
O O13 0.623387 0.295333 0.500000
O O14 0.789680 0.329422 0.285517
O O15 0.586075 0.843355 0.000000
#
# Coordination Sequence:
#
# PCOD9427800 Si02
#       6
#     8   8   8   8   8   8
#     4  10  21  35  56  84 110 140 182 230 274 321
#     4   9  17  29  52  85 112 135 174 230 280 323
#     4   8  14  27  51  83 108 133 171 221 278 322
#     4   9  17  33  56  80 108 141 181 227 274 324
#     4   9  19  35  59  83 107 139 179 229 275 324
#     4  11  23  38  55  75 109 150 185 220 267 329
#
# _framework density 22.906977000000001
#
# number of rings (size 3 to 8) (size 9 to 14) (size 15 to 20)
#    0.000    2.667    0.000    3.000    2.333    3.333 
#    0.000    4.167    0.000    9.000    0.000    0.000 
#    0.000    0.000    0.000    0.000    0.000    0.000 
#
# Total GULP energy -267981.761973 kJ/mol
# GULP energy per Si atom -5582.953374 kJ/mol
# Density = 2.285484 g / cm^3
# Si number density = 22.906977 Si / 1000 Ang^3
#
#
#
# Elastic Constant Matrix: (Units=GPa)
#
#
# Indices 1 2 3 4 5 6 
#
# 1 26.4697 -10.7336 -12.7553 0.0000 0.0000 0.0000
# 2 -10.7336 124.2100 7.1601 0.0000 0.0000 0.0000
# 3 -12.7553 7.1601 69.9146 0.0000 0.0000 0.0000
# 4 0.0000 0.0000 0.0000-1993.6849 0.0000 0.0000
# 5 0.0000 0.0000 0.0000 0.0000 -489.2961 0.0000
# 6 0.0000 0.0000 0.0000 0.0000 0.0000 19.4412
#
#
#
# Elastic Compliance Matrix: (Units=1/GPa)
#
#
# Indices 1 2 3 4 5 6 
#
# 1 0.042693 0.003260 0.007455 0.000000 0.000000 0.000000
# 2 0.003260 0.008348 -0.000260 0.000000 0.000000 0.000000
# 3 0.007455 -0.000260 0.015690 0.000000 0.000000 0.000000
# 4 0.000000 0.000000 0.000000 -0.000502 0.000000 0.000000
# 5 0.000000 0.000000 0.000000 0.000000 -0.002044 0.000000
# 6 0.000000 0.000000 0.000000 0.000000 0.000000 0.051437
#
#
# Mechanical properties :
#
#
# Convention : Reuss Voigt Hill
#
# Bulk Modulus (GPa) = 11.41028 20.88184 16.14606
# Shear Modulus (GPa) = 40.34636 -476.91307 -218.28335
#
# Velocity S-wave (km/s) = 4.20135 -14.44464 -9.77231
# Velocity P-wave (km/s) = 5.34108 16.40308 10.96663
#
# Compressibility (1/GPa) = 0.08764027
#
# Stress axis : x y z
#
# Youngs Moduli (GPa) = 23.42278 119.79550 63.73504
#
# Poissons Ratio (x) = -0.39048 -0.47516
# Poissons Ratio (y) = -0.07635 0.01658
# Poissons Ratio (z) = -0.17462 0.03117
#
# Static dielectric constant tensor:
#      x y z
#    x 1.800060 0.000000 0.000000 
#    y 0.000000 1.870480 0.000000 
#    z 0.000000 0.000000 1.898040 
# 
# From -- ./inp_files/4035.got.cif
#   From: 2010.05.17/outbox.cif.g08.bks.cpg/sg55_3_cif.got.tgz:4035.got - 2010.06.03 13:27:54.
