data_PCOD9427405
_publ_section_title
;
Structure prediction by ZEFSAII (Michael W. Deem and Ramdas Pophale) SiO2 
 PCOD9427405
Probable space group: P B A M
;
_chemical_formula_sum "Si O2"
_cell_formula_units_Z 64
_cell_length_a 11.127355
_cell_length_b 32.936218
_cell_length_c 9.242591
_cell_angle_alpha 90.000000
_cell_angle_beta 90.000000
_cell_angle_gamma 90.000000
_cell_volume 3387.344811
_symmetry_space_group_name_H-M "P B A M"
_symmetry_group_IT_number 55
_symmetry_cell_setting 'orthorhombic'
loop_
_space_group_symop_operation_xyz
x,y,z
-x,-y,z
1/2+x,1/2-y,-z
1/2-x,1/2+y,-z
-x,-y,-z
x,y,-z
1/2-x,1/2+y,z
1/2+x,1/2-y,z
loop_
_atom_site_type_symbol
_atom_site_label
_atom_site_fract_x
_atom_site_fract_y
_atom_site_fract_z
Si Si1 0.732837 0.687285 0.670441
Si Si2 0.396171 0.884949 0.671393
Si Si3 0.886773 0.529071 0.825077
Si Si4 0.733176 0.267222 0.833639
Si Si5 0.865373 0.987511 0.175528
Si Si6 0.827225 0.893994 0.169958
Si Si7 0.001709 0.823722 0.162079
Si Si8 0.640758 0.836404 0.670546
O O1 0.752214 0.692147 0.500000
O O2 0.784346 0.643397 0.713714
O O3 0.789984 0.724894 0.755033
O O4 0.594572 0.687889 0.715869
O O5 0.389115 0.894474 0.500000
O O6 0.405184 0.926367 0.759391
O O7 0.510096 0.855467 0.692842
O O8 0.754622 0.512208 0.778697
O O9 0.000000 0.500000 0.784041
O O10 0.886759 0.531047 0.000000
O O11 0.613613 0.294591 0.831725
O O12 0.833056 0.294275 0.752126
O O13 0.768328 0.260953 0.000000
O O14 0.842442 0.940480 0.212006
O O15 0.868263 0.990488 0.000000
O O16 0.000000 0.000000 0.226298
O O17 0.951196 0.869137 0.180607
O O18 0.732214 0.869773 0.265674
O O19 0.790224 0.891872 0.000000
O O20 0.054677 0.820314 0.000000
O O21 0.660917 0.830504 0.500000
#
# Coordination Sequence:
#
# PCOD9427405 Si02
#       8
#     8   8   8   8   8   8   8   8
#     4  11  24  39  57  82 117 155 192 237 287 343
#     4  10  24  41  57  84 120 157 194 235 289 347
#     4  10  21  37  61  91 117 149 198 248 296 353
#     4  10  22  40  61  87 114 146 193 242 288 341
#     4   9  18  32  55  85 116 149 188 239 294 348
#     4   9  18  35  59  85 114 147 190 239 287 339
#     4   9  20  37  58  85 114 147 189 237 288 343
#     4  10  20  37  60  85 113 151 194 233 284 345
#
# _framework density 18.893854000000001
#
# number of rings (size 3 to 8) (size 9 to 14) (size 15 to 20)
#    0.000    2.250    0.000    2.625    3.500    5.750 
#    0.000    0.625    0.000    0.750    0.000    0.000 
#    0.000    0.000    0.000    0.000    0.000    0.000 
#
# Total GULP energy -357042.104448 kJ/mol
# GULP energy per Si atom -5578.782882 kJ/mol
# Density = 1.885085 g / cm^3
# Si number density = 18.893854 Si / 1000 Ang^3
#
#
#
# Elastic Constant Matrix: (Units=GPa)
#
#
# Indices 1 2 3 4 5 6 
#
# 1 65.5675 24.4024 23.4110 0.0000 0.0000 0.0000
# 2 24.4024 109.3147 45.0587 0.0000 0.0000 0.0000
# 3 23.4110 45.0587 59.1429 0.0000 0.0000 0.0000
# 4 0.0000 0.0000 0.0000 28.7152 0.0000 0.0000
# 5 0.0000 0.0000 0.0000 0.0000 18.6067 0.0000
# 6 0.0000 0.0000 0.0000 0.0000 0.0000 18.4606
#
#
#
# Elastic Compliance Matrix: (Units=1/GPa)
#
#
# Indices 1 2 3 4 5 6 
#
# 1 0.017945 -0.001571 -0.005906 0.000000 0.000000 0.000000
# 2 -0.001571 0.013473 -0.009643 0.000000 0.000000 0.000000
# 3 -0.005906 -0.009643 0.026593 0.000000 0.000000 0.000000
# 4 0.000000 0.000000 0.000000 0.034825 0.000000 0.000000
# 5 0.000000 0.000000 0.000000 0.000000 0.053744 0.000000
# 6 0.000000 0.000000 0.000000 0.000000 0.000000 0.054169
#
#
# Mechanical properties :
#
#
# Convention : Reuss Voigt Hill
#
# Bulk Modulus (GPa) = 42.06935 46.64104 44.35520
# Shear Modulus (GPa) = 20.58345 22.56670 21.57508
#
# Velocity S-wave (km/s) = 3.30423 3.45975 3.38288
# Velocity P-wave (km/s) = 6.07221 6.37960 6.22780
#
# Compressibility (1/GPa) = 0.02377027
#
# Stress axis : x y z
#
# Youngs Moduli (GPa) = 55.72545 74.22031 37.60442
#
# Poissons Ratio (x) = 0.11663 0.22210
# Poissons Ratio (y) = 0.08757 0.36261
# Poissons Ratio (z) = 0.32912 0.71569
#
# Static dielectric constant tensor:
#      x y z
#    x 1.679270 0.000000 0.000000 
#    y 0.000000 1.639350 0.000000 
#    z 0.000000 0.000000 1.620370 
# 
# From -- ./inp_files/4630.got.cif
#   From: 2010.05.17/outbox.cif.g08.bks.cpg/sg55_3_cif.got.tgz:4630.got - 2010.06.03 13:27:54.
