data_PCOD9427725
_publ_section_title
;
Structure prediction by ZEFSAII (Michael W. Deem and Ramdas Pophale) SiO2 
 PCOD9427725
Probable space group: P B A M
;
_chemical_formula_sum "Si O2"
_cell_formula_units_Z 44
_cell_length_a 15.948043
_cell_length_b 9.434516
_cell_length_c 15.264975
_cell_angle_alpha 90.000000
_cell_angle_beta 90.000000
_cell_angle_gamma 90.000000
_cell_volume 2296.799689
_symmetry_space_group_name_H-M "P B A M"
_symmetry_group_IT_number 55
_symmetry_cell_setting 'orthorhombic'
loop_
_space_group_symop_operation_xyz
x,y,z
-x,-y,z
1/2+x,1/2-y,-z
1/2-x,1/2+y,-z
-x,-y,-z
x,y,-z
1/2-x,1/2+y,z
1/2+x,1/2-y,z
loop_
_atom_site_type_symbol
_atom_site_label
_atom_site_fract_x
_atom_site_fract_y
_atom_site_fract_z
Si Si1 0.443676 0.243497 0.000000
Si Si2 0.407979 0.714493 0.871630
Si Si3 0.856442 0.546003 0.000000
Si Si4 0.528711 0.654722 0.604383
Si Si5 0.332074 0.497550 0.000000
Si Si6 0.141797 0.231229 0.669628
Si Si7 0.208141 0.922628 0.393780
O O1 0.498219 0.279466 0.912949
O O2 0.421805 0.080052 0.000000
O O3 0.360710 0.336526 0.000000
O O4 0.367091 0.851919 0.917041
O O5 0.385284 0.716988 0.770664
O O6 0.370021 0.575239 0.915931
O O7 0.765490 0.481696 0.000000
O O8 0.500000 0.500000 0.639377
O O9 0.533319 0.644732 0.500000
O O10 0.449648 0.753766 0.624915
O O11 0.625493 0.671509 0.632344
O O12 0.208894 0.354694 0.648919
O O13 0.184162 0.083749 0.634797
O O14 0.217341 0.920630 0.500000
#
# Coordination Sequence:
#
# PCOD9427725 Si02
#       7
#     4   8   4   8   4   8   8
#     4  10  20  42  66  82 120 166 206 244 304 378
#     4  10  22  37  56  89 120 158 203 243 308 359
#     4  10  21  42  61  84 118 166 192 244 311 370
#     4   8  16  34  58  81 111 157 200 236 299 369
#     4  10  21  38  61  86 114 162 202 246 299 364
#     4  11  22  38  59  93 123 154 209 261 303 365
#     4  10  21  39  63  87 122 168 204 253 317 368
#
# _framework density 19.157091000000001
#
# number of rings (size 3 to 8) (size 9 to 14) (size 15 to 20)
#    0.000    2.364    0.000    6.000    2.545    4.364 
#    3.273    2.727    0.000    3.273    0.000    0.000 
#    0.000    0.000    0.000    0.000    0.000    0.000 
#
# Total GULP energy -244988.186034 kJ/mol
# GULP energy per Si atom -5567.913319 kJ/mol
# Density = 1.911349 g / cm^3
# Si number density = 19.157091 Si / 1000 Ang^3
#
#
#
# Elastic Constant Matrix: (Units=GPa)
#
#
# Indices 1 2 3 4 5 6 
#
# 1 91.3391 17.9055 22.9959 0.0000 0.0000 0.0000
# 2 17.9055 62.8689 10.9406 0.0000 0.0000 0.0000
# 3 22.9959 10.9406 87.4687 0.0000 0.0000 0.0000
# 4 0.0000 0.0000 0.0000 -15.4901 0.0000 0.0000
# 5 0.0000 0.0000 0.0000 0.0000 -8.4229 0.0000
# 6 0.0000 0.0000 0.0000 0.0000 0.0000 37.2786
#
#
#
# Elastic Compliance Matrix: (Units=1/GPa)
#
#
# Indices 1 2 3 4 5 6 
#
# 1 0.012252 -0.002994 -0.002847 0.000000 0.000000 0.000000
# 2 -0.002994 0.016992 -0.001338 0.000000 0.000000 0.000000
# 3 -0.002847 -0.001338 0.012348 0.000000 0.000000 0.000000
# 4 0.000000 0.000000 0.000000 -0.064557 0.000000 0.000000
# 5 0.000000 0.000000 0.000000 0.000000 -0.118724 0.000000
# 6 0.000000 0.000000 0.000000 0.000000 0.000000 0.026825
#
#
# Mechanical properties :
#
#
# Convention : Reuss Voigt Hill
#
# Bulk Modulus (GPa) = 36.71831 38.37343 37.54587
# Shear Modulus (GPa) = -54.68743 15.32876 -19.67934
#
# Velocity S-wave (km/s) = -5.34872 2.83178 -3.20857
# Velocity P-wave (km/s) = 4.35161 5.54675 2.43206
#
# Compressibility (1/GPa) = 0.02723437
#
# Stress axis : x y z
#
# Youngs Moduli (GPa) = 81.62064 58.85225 80.98203
#
# Poissons Ratio (x) = 0.17621 0.23052
# Poissons Ratio (y) = 0.24437 0.10837
# Poissons Ratio (z) = 0.23234 0.07876
#
# Static dielectric constant tensor:
#      x y z
#    x 1.705070 0.000000 0.000000 
#    y 0.000000 1.664600 0.000000 
#    z 0.000000 0.000000 1.652720 
# 
# From -- ./inp_files/19310.got.cif
#   From: 2010.05.17/outbox.cif.g08.bks.cpg/sg55_10_cif.got.tgz:19310.got - 2010.06.03 13:27:54.
