data_PCOD9427981
_publ_section_title
;
Structure prediction by ZEFSAII (Michael W. Deem and Ramdas Pophale) SiO2 
 PCOD9427981
Probable space group: P B A M
;
_chemical_formula_sum "Si O2"
_cell_formula_units_Z 48
_cell_length_a 17.708576
_cell_length_b 14.811684
_cell_length_c 7.503177
_cell_angle_alpha 90.000000
_cell_angle_beta 90.000000
_cell_angle_gamma 90.000000
_cell_volume 1968.037046
_symmetry_space_group_name_H-M "P B A M"
_symmetry_group_IT_number 55
_symmetry_cell_setting 'orthorhombic'
loop_
_space_group_symop_operation_xyz
x,y,z
-x,-y,z
1/2+x,1/2-y,-z
1/2-x,1/2+y,-z
-x,-y,-z
x,y,-z
1/2-x,1/2+y,z
1/2+x,1/2-y,z
loop_
_atom_site_type_symbol
_atom_site_label
_atom_site_fract_x
_atom_site_fract_y
_atom_site_fract_z
Si Si1 0.746415 0.310799 0.206823
Si Si2 0.164787 0.359485 0.205834
Si Si3 0.870682 0.443345 0.784557
Si Si4 0.613408 0.446457 0.285540
Si Si5 0.945229 0.128944 0.714828
Si Si6 0.502489 0.815731 0.710545
O O1 0.720289 0.215404 0.287076
O O2 0.815470 0.365704 0.287564
O O3 0.676727 0.380996 0.211288
O O4 0.764723 0.293959 0.000000
O O5 0.155042 0.459142 0.285177
O O6 0.080562 0.317772 0.208325
O O7 0.187291 0.371423 0.000000
O O8 0.954037 0.408725 0.742100
O O9 0.865450 0.447251 0.000000
O O10 0.622167 0.446171 0.500000
O O11 0.530220 0.406597 0.248551
O O12 0.611500 0.550728 0.221032
O O13 0.935939 0.130474 0.500000
O O14 0.946941 0.231780 0.779410
O O15 0.491595 0.802660 0.500000
#
# Coordination Sequence:
#
# PCOD9427981 Si02
#       6
#     8   8   8   8   8   8
#     4  10  21  37  57  82 111 147 190 232 276 330
#     4  10  21  39  60  80 110 151 186 224 282 338
#     4  10  23  40  56  79 114 151 184 226 283 337
#     4   9  16  32  55  78 109 147 180 217 275 333
#     4   8  16  30  52  81 111 142 174 219 278 326
#     4  11  21  36  59  87 113 143 189 237 272 323
#
# _framework density 24.389785
#
# number of rings (size 3 to 8) (size 9 to 14) (size 15 to 20)
#    0.000    2.333    1.667    2.000    0.000    4.667 
#    0.000    5.000    0.000    0.000    0.000    0.000 
#    0.000    0.000    0.000    0.000    0.000    0.000 
#
# Total GULP energy -268171.170752 kJ/mol
# GULP energy per Si atom -5586.899391 kJ/mol
# Density = 2.433427 g / cm^3
# Si number density = 24.389785 Si / 1000 Ang^3
#
#
#
# Elastic Constant Matrix: (Units=GPa)
#
#
# Indices 1 2 3 4 5 6 
#
# 1 20.6589 19.8884 -8.2320 0.0000 0.0000 0.0000
# 2 19.8884 167.8091 0.1379 0.0000 0.0000 0.0000
# 3 -8.2320 0.1379 73.7977 0.0000 0.0000 0.0000
# 4 0.0000 0.0000 0.0000 5.1986 0.0000 0.0000
# 5 0.0000 0.0000 0.0000 0.0000 13.2472 0.0000
# 6 0.0000 0.0000 0.0000 0.0000 0.0000 21.1648
#
#
#
# Elastic Compliance Matrix: (Units=1/GPa)
#
#
# Indices 1 2 3 4 5 6 
#
# 1 0.057538 -0.006825 0.006431 0.000000 0.000000 0.000000
# 2 -0.006825 0.006769 -0.000774 0.000000 0.000000 0.000000
# 3 0.006431 -0.000774 0.014269 0.000000 0.000000 0.000000
# 4 0.000000 0.000000 0.000000 0.192358 0.000000 0.000000
# 5 0.000000 0.000000 0.000000 0.000000 0.075488 0.000000
# 6 0.000000 0.000000 0.000000 0.000000 0.000000 0.047248
#
#
# Mechanical properties :
#
#
# Convention : Reuss Voigt Hill
#
# Bulk Modulus (GPa) = 13.11632 31.76161 22.43896
# Shear Modulus (GPa) = 11.86469 24.62022 18.24246
#
# Velocity S-wave (km/s) = 2.20798 3.18063 2.73784
# Velocity P-wave (km/s) = 3.44814 5.15163 4.38344
#
# Compressibility (1/GPa) = 0.07624090
#
# Stress axis : x y z
#
# Youngs Moduli (GPa) = 17.37983 147.74050 70.08026
#
# Poissons Ratio (x) = 1.00827 -0.45068
# Poissons Ratio (y) = 0.11861 0.05424
# Poissons Ratio (z) = -0.11177 0.11434
#
# Static dielectric constant tensor:
#      x y z
#    x 1.909270 0.000000 0.000000 
#    y 0.000000 1.999540 0.000000 
#    z 0.000000 0.000000 1.973530 
# 
# From -- ./inp_files/7426.got.cif
#   From: 2010.05.17/outbox.cif.g08.bks.cpg/sg55_4_cif.got.tgz:7426.got - 2010.06.03 13:27:54.
