data_PCOD9427447
_publ_section_title
;
Structure prediction by ZEFSAII (Michael W. Deem and Ramdas Pophale) SiO2 
 PCOD9427447
Probable space group: P B A M
;
_chemical_formula_sum "Si O2"
_cell_formula_units_Z 56
_cell_length_a 15.835596
_cell_length_b 20.308768
_cell_length_c 8.266606
_cell_angle_alpha 90.000000
_cell_angle_beta 90.000000
_cell_angle_gamma 90.000000
_cell_volume 2658.552437
_symmetry_space_group_name_H-M "P B A M"
_symmetry_group_IT_number 55
_symmetry_cell_setting 'orthorhombic'
loop_
_space_group_symop_operation_xyz
x,y,z
-x,-y,z
1/2+x,1/2-y,-z
1/2-x,1/2+y,-z
-x,-y,-z
x,y,-z
1/2-x,1/2+y,z
1/2+x,1/2-y,z
loop_
_atom_site_type_symbol
_atom_site_label
_atom_site_fract_x
_atom_site_fract_y
_atom_site_fract_z
Si Si1 0.811791 0.184791 0.696671
Si Si2 0.922973 0.954632 0.195655
Si Si3 0.817856 0.332817 0.688128
Si Si4 0.493957 0.681059 0.306329
Si Si5 0.502619 0.176984 0.813215
Si Si6 0.156184 0.404550 0.690549
Si Si7 0.737199 0.970992 0.810539
O O1 0.812775 0.184207 0.500000
O O2 0.791362 0.259951 0.745882
O O3 0.740186 0.134147 0.750117
O O4 0.908122 0.169548 0.747480
O O5 0.938713 0.880885 0.255471
O O6 0.832716 0.982049 0.250107
O O7 0.922484 0.954036 0.000000
O O8 0.000000 0.000000 0.252122
O O9 0.794136 0.339622 0.500000
O O10 0.782021 0.394401 0.784040
O O11 0.919360 0.333788 0.706015
O O12 0.492939 0.688020 0.500000
O O13 0.465028 0.749785 0.229469
O O14 0.574697 0.124274 0.777935
O O15 0.476761 0.174478 0.000000
O O16 0.146574 0.391503 0.500000
O O17 0.172859 0.481298 0.720046
O O18 0.732513 0.986693 0.000000
#
# Coordination Sequence:
#
# PCOD9427447 Si02
#       7
#     8   8   8   8   8   8   8
#     4   8  18  36  60  88 118 150 195 250 300 349
#     4  10  22  39  59  87 127 167 202 245 302 366
#     4  10  21  41  64  89 118 156 202 253 305 360
#     4  10  20  37  61  89 119 156 204 252 296 353
#     4  11  23  40  61  89 121 156 197 249 308 365
#     4  11  22  39  62  89 119 157 202 251 302 361
#     4  11  24  40  58  88 124 162 203 248 303 364
#
# _framework density 21.064094000000001
#
# number of rings (size 3 to 8) (size 9 to 14) (size 15 to 20)
#    0.000    1.857    0.000    4.714    2.000    2.000 
#    0.000   10.000    0.000    0.000    0.000    0.000 
#    0.000    0.000    0.000    0.000    0.000    0.000 
#
# Total GULP energy -313053.849578 kJ/mol
# GULP energy per Si atom -5590.247314 kJ/mol
# Density = 2.101615 g / cm^3
# Si number density = 21.064094 Si / 1000 Ang^3
#
#
#
# Elastic Constant Matrix: (Units=GPa)
#
#
# Indices 1 2 3 4 5 6 
#
# 1 20.8354 3.6052 -6.7838 0.0000 0.0000 0.0000
# 2 3.6052 50.1542 -7.3600 0.0000 0.0000 0.0000
# 3 -6.7838 -7.3600 28.3896 0.0000 0.0000 0.0000
# 4 0.0000 0.0000 0.0000 22.4003 0.0000 0.0000
# 5 0.0000 0.0000 0.0000 0.0000 21.0078 0.0000
# 6 0.0000 0.0000 0.0000 0.0000 0.0000 32.8957
#
#
#
# Elastic Compliance Matrix: (Units=1/GPa)
#
#
# Indices 1 2 3 4 5 6 
#
# 1 0.052236 -0.001999 0.011964 0.000000 0.000000 0.000000
# 2 -0.001999 0.020804 0.004916 0.000000 0.000000 0.000000
# 3 0.011964 0.004916 0.039357 0.000000 0.000000 0.000000
# 4 0.000000 0.000000 0.000000 0.044642 0.000000 0.000000
# 5 0.000000 0.000000 0.000000 0.000000 0.047601 0.000000
# 6 0.000000 0.000000 0.000000 0.000000 0.000000 0.030399
#
#
# Mechanical properties :
#
#
# Convention : Reuss Voigt Hill
#
# Bulk Modulus (GPa) = 7.03446 8.70024 7.86735
# Shear Modulus (GPa) = 19.78899 22.58861 21.18880
#
# Velocity S-wave (km/s) = 3.06840 3.27827 3.17507
# Velocity P-wave (km/s) = 3.98751 4.29752 4.14541
#
# Compressibility (1/GPa) = 0.14215740
#
# Stress axis : x y z
#
# Youngs Moduli (GPa) = 19.14370 48.06865 25.40827
#
# Poissons Ratio (x) = 0.09610 -0.30398
# Poissons Ratio (y) = 0.03827 -0.12490
# Poissons Ratio (z) = -0.22903 -0.23628
#
# Static dielectric constant tensor:
#      x y z
#    x 1.754780 0.000000 0.000000 
#    y 0.000000 1.738650 0.000000 
#    z 0.000000 0.000000 1.713980 
# 
# From -- ./inp_files/5971.got.cif
#   From: 2010.05.17/outbox.cif.g08.bks.cpg/sg55_3_cif.got.tgz:5971.got - 2010.06.03 13:27:54.
