data_PCOD9427422
_publ_section_title
;
Structure prediction by ZEFSAII (Michael W. Deem and Ramdas Pophale) SiO2 
 PCOD9427422
Probable space group: P B A M
;
_chemical_formula_sum "Si O2"
_cell_formula_units_Z 64
_cell_length_a 31.221276
_cell_length_b 12.101487
_cell_length_c 8.963280
_cell_angle_alpha 90.000000
_cell_angle_beta 90.000000
_cell_angle_gamma 90.000000
_cell_volume 3386.541098
_symmetry_space_group_name_H-M "P B A M"
_symmetry_group_IT_number 55
_symmetry_cell_setting 'orthorhombic'
loop_
_space_group_symop_operation_xyz
x,y,z
-x,-y,z
1/2+x,1/2-y,-z
1/2-x,1/2+y,-z
-x,-y,-z
x,y,-z
1/2-x,1/2+y,z
1/2+x,1/2-y,z
loop_
_atom_site_type_symbol
_atom_site_label
_atom_site_fract_x
_atom_site_fract_y
_atom_site_fract_z
Si Si1 0.378738 0.157243 0.820293
Si Si2 0.708208 0.456097 0.323982
Si Si3 0.325907 0.750866 0.171635
Si Si4 0.453421 0.536533 0.323214
Si Si5 0.701114 0.995382 0.175880
Si Si6 0.586372 0.235498 0.326686
Si Si7 0.950926 0.492206 0.677948
Si Si8 0.128100 0.916156 0.179141
O O1 0.420749 0.098871 0.753311
O O2 0.374373 0.286114 0.780422
O O3 0.336475 0.087876 0.773687
O O4 0.381190 0.149441 0.000000
O O5 0.704771 0.470406 0.500000
O O6 0.700631 0.329138 0.277409
O O7 0.755042 0.486323 0.265174
O O8 0.670603 0.527040 0.245910
O O9 0.315279 0.879369 0.189425
O O10 0.375074 0.736934 0.217148
O O11 0.318405 0.719079 0.000000
O O12 0.500000 0.500000 0.268628
O O13 0.450221 0.509686 0.500000
O O14 0.448482 0.668592 0.309220
O O15 0.413983 0.477545 0.241510
O O16 0.709447 0.973273 0.000000
O O17 0.601428 0.240632 0.500000
O O18 0.569421 0.113127 0.298459
O O19 0.951806 0.470540 0.500000
O O20 0.000000 0.500000 0.731157
O O21 0.129454 0.925014 0.000000
#
# Coordination Sequence:
#
# PCOD9427422 Si02
#       8
#     8   8   8   8   8   8   8   8
#     4  10  23  43  63  88 122 160 204 252 302 360
#     4  12  26  42  63  93 126 159 202 252 306 364
#     4  11  22  40  67  91 119 159 202 251 303 360
#     4  10  22  39  62  90 123 164 204 250 308 364
#     4  10  23  43  65  90 121 161 205 247 303 363
#     4  10  20  37  60  89 123 158 203 255 301 354
#     4  10  22  38  61  92 125 162 203 249 303 364
#     4  11  24  42  63  89 123 162 207 255 304 362
#
# _framework density 18.898337999999999
#
# number of rings (size 3 to 8) (size 9 to 14) (size 15 to 20)
#    0.000    1.500    2.500    1.875    3.500    3.000 
#    0.000    0.000    0.000    0.000    0.000    0.000 
#    0.000    0.000    0.000    0.000    0.000    0.000 
#
# Total GULP energy -357549.992857 kJ/mol
# GULP energy per Si atom -5586.718638 kJ/mol
# Density = 1.885532 g / cm^3
# Si number density = 18.898338 Si / 1000 Ang^3
#
#
#
# Elastic Constant Matrix: (Units=GPa)
#
#
# Indices 1 2 3 4 5 6 
#
# 1 96.1969 19.2242 27.1602 0.0000 0.0000 0.0000
# 2 19.2242 83.0737 30.3907 0.0000 0.0000 0.0000
# 3 27.1602 30.3907 44.2938 0.0000 0.0000 0.0000
# 4 0.0000 0.0000 0.0000 20.9557 0.0000 0.0000
# 5 0.0000 0.0000 0.0000 0.0000 37.1429 0.0000
# 6 0.0000 0.0000 0.0000 0.0000 0.0000 22.1693
#
#
#
# Elastic Compliance Matrix: (Units=1/GPa)
#
#
# Indices 1 2 3 4 5 6 
#
# 1 0.012573 -0.000119 -0.007628 0.000000 0.000000 0.000000
# 2 -0.000119 0.016073 -0.010955 0.000000 0.000000 0.000000
# 3 -0.007628 -0.010955 0.034770 0.000000 0.000000 0.000000
# 4 0.000000 0.000000 0.000000 0.047720 0.000000 0.000000
# 5 0.000000 0.000000 0.000000 0.000000 0.026923 0.000000
# 6 0.000000 0.000000 0.000000 0.000000 0.000000 0.045107
#
#
# Mechanical properties :
#
#
# Convention : Reuss Voigt Hill
#
# Bulk Modulus (GPa) = 38.44327 41.90162 40.17244
# Shear Modulus (GPa) = 21.81132 25.83954 23.82543
#
# Velocity S-wave (km/s) = 3.40095 3.70170 3.55451
# Velocity P-wave (km/s) = 5.98400 6.36321 6.17651
#
# Compressibility (1/GPa) = 0.02601236
#
# Stress axis : x y z
#
# Youngs Moduli (GPa) = 79.53725 62.21786 28.76060
#
# Poissons Ratio (x) = 0.00741 0.21938
# Poissons Ratio (y) = 0.00947 0.31506
# Poissons Ratio (z) = 0.60668 0.68157
#
# Static dielectric constant tensor:
#      x y z
#    x 1.636410 0.000000 0.000000 
#    y 0.000000 1.659220 0.000000 
#    z 0.000000 0.000000 1.643870 
# 
# From -- ./inp_files/4589.got.cif
#   From: 2010.05.17/outbox.cif.g08.bks.cpg/sg55_3_cif.got.tgz:4589.got - 2010.06.03 13:27:54.
