data_PCOD9427300
_publ_section_title
;
Structure prediction by ZEFSAII (Michael W. Deem and Ramdas Pophale) SiO2 
 PCOD9427300
Probable space group: P B A M
;
_chemical_formula_sum "Si O2"
_cell_formula_units_Z 48
_cell_length_a 8.083516
_cell_length_b 27.082204
_cell_length_c 10.510722
_cell_angle_alpha 90.000000
_cell_angle_beta 90.000000
_cell_angle_gamma 90.000000
_cell_volume 2301.001262
_symmetry_space_group_name_H-M "P B A M"
_symmetry_group_IT_number 55
_symmetry_cell_setting 'orthorhombic'
loop_
_space_group_symop_operation_xyz
x,y,z
-x,-y,z
1/2+x,1/2-y,-z
1/2-x,1/2+y,-z
-x,-y,-z
x,y,-z
1/2-x,1/2+y,z
1/2+x,1/2-y,z
loop_
_atom_site_type_symbol
_atom_site_label
_atom_site_fract_x
_atom_site_fract_y
_atom_site_fract_z
Si Si1 0.621841 0.779681 0.850765
Si Si2 0.896668 0.080144 0.751325
Si Si3 0.739651 0.531174 0.500000
Si Si4 0.745944 0.176529 0.149258
Si Si5 0.233195 0.969666 0.000000
Si Si6 0.101663 0.574680 0.000000
Si Si7 0.261943 0.125473 0.750577
Si Si8 0.108256 0.575805 0.500000
O O1 0.635632 0.722330 0.816370
O O2 0.437201 0.800993 0.839813
O O3 0.736129 0.815665 0.768013
O O4 0.672830 0.782557 0.000000
O O5 0.853894 0.049661 0.625509
O O6 0.778855 0.128135 0.768439
O O7 0.863254 0.046477 0.874301
O O8 0.080771 0.101730 0.750596
O O9 0.774021 0.472702 0.500000
O O10 0.921171 0.556226 0.500000
O O11 0.775169 0.163475 0.000000
O O12 0.411940 0.942384 0.000000
O O13 0.280988 0.026876 0.000000
O O14 0.142204 0.605297 0.125562
O O15 0.353781 0.107368 0.624835
#
# Coordination Sequence:
#
# PCOD9427300 Si02
#       8
#     8   8   4   8   4   4   8   4
#     4  10  20  36  61  91 126 163 203 250 305 365
#     4  12  24  39  62  92 125 160 204 255 309 365
#     4  11  25  45  66  87 120 167 211 253 309 373
#     4  10  20  36  61  91 126 163 203 250 305 365
#     4  11  23  39  60  87 120 159 205 255 307 363
#     4  11  23  39  60  87 120 159 205 255 307 363
#     4  12  24  39  62  92 125 160 204 255 309 365
#     4  11  25  45  66  87 120 167 211 253 309 373
#
# _framework density 20.860485000000001
#
# number of rings (size 3 to 8) (size 9 to 14) (size 15 to 20)
#    0.000    1.000    1.667    6.000    0.000    8.000 
#    0.000    0.833    0.000    0.000    0.000    0.000 
#    0.000    0.000    0.000    0.000    0.000    0.000 
#
# Total GULP energy -268808.615650 kJ/mol
# GULP energy per Si atom -5600.179493 kJ/mol
# Density = 2.081301 g / cm^3
# Si number density = 20.860485 Si / 1000 Ang^3
#
#
#
# Elastic Constant Matrix: (Units=GPa)
#
#
# Indices 1 2 3 4 5 6 
#
# 1 62.9404 -2.0165 14.1399 0.0000 0.0000 0.0000
# 2 -2.0165 93.8298 31.5187 0.0000 0.0000 0.0000
# 3 14.1399 31.5187 132.5919 0.0000 0.0000 0.0000
# 4 0.0000 0.0000 0.0000 -15.0425 0.0000 0.0000
# 5 0.0000 0.0000 0.0000 0.0000 30.4878 0.0000
# 6 0.0000 0.0000 0.0000 0.0000 0.0000 40.0675
#
#
#
# Elastic Compliance Matrix: (Units=1/GPa)
#
#
# Indices 1 2 3 4 5 6 
#
# 1 0.016367 0.001019 -0.001988 0.000000 0.000000 0.000000
# 2 0.001019 0.011646 -0.002877 0.000000 0.000000 0.000000
# 3 -0.001988 -0.002877 0.008438 0.000000 0.000000 0.000000
# 4 0.000000 0.000000 0.000000 -0.066478 0.000000 0.000000
# 5 0.000000 0.000000 0.000000 0.000000 0.032800 0.000000
# 6 0.000000 0.000000 0.000000 0.000000 0.000000 0.024958
#
#
# Mechanical properties :
#
#
# Convention : Reuss Voigt Hill
#
# Bulk Modulus (GPa) = 34.77021 41.84959 38.30990
# Shear Modulus (GPa) = 111.09115 27.48390 69.28753
#
# Velocity S-wave (km/s) = 7.30547 3.63369 5.76947
# Velocity P-wave (km/s) = 9.37359 6.14086 7.92383
#
# Compressibility (1/GPa) = 0.02876025
#
# Stress axis : x y z
#
# Youngs Moduli (GPa) = 61.09755 85.86669 118.51370
#
# Poissons Ratio (x) = -0.08754 0.23558
# Poissons Ratio (y) = -0.06229 0.34098
# Poissons Ratio (z) = 0.12145 0.24705
#
# Static dielectric constant tensor:
#      x y z
#    x 1.776480 0.000000 0.000000 
#    y 0.000000 1.751350 0.000000 
#    z 0.000000 0.000000 1.695300 
# 
# From -- ./inp_files/3027.got.cif
#   From: 2010.05.17/outbox.cif.g08.bks.cpg/sg55_2_cif.got.tgz:3027.got - 2010.06.03 13:27:54.
