data_PCOD9427408
_publ_section_title
;
Structure prediction by ZEFSAII (Michael W. Deem and Ramdas Pophale) SiO2 
 PCOD9427408
Probable space group: P B A M
;
_chemical_formula_sum "Si O2"
_cell_formula_units_Z 56
_cell_length_a 21.759504
_cell_length_b 14.727962
_cell_length_c 8.385488
_cell_angle_alpha 90.000000
_cell_angle_beta 90.000000
_cell_angle_gamma 90.000000
_cell_volume 2687.323737
_symmetry_space_group_name_H-M "P B A M"
_symmetry_group_IT_number 55
_symmetry_cell_setting 'orthorhombic'
loop_
_space_group_symop_operation_xyz
x,y,z
-x,-y,z
1/2+x,1/2-y,-z
1/2-x,1/2+y,-z
-x,-y,-z
x,y,-z
1/2-x,1/2+y,z
1/2+x,1/2-y,z
loop_
_atom_site_type_symbol
_atom_site_label
_atom_site_fract_x
_atom_site_fract_y
_atom_site_fract_z
Si Si1 0.113512 0.790241 0.312291
Si Si2 0.658146 0.981140 0.684240
Si Si3 0.546514 0.877262 0.816477
Si Si4 0.269957 0.183505 0.186888
Si Si5 0.570316 0.518312 0.811149
Si Si6 0.865900 0.839609 0.689141
Si Si7 0.085493 0.354065 0.307658
O O1 0.105202 0.774195 0.500000
O O2 0.065846 0.726871 0.216215
O O3 0.180757 0.753255 0.262231
O O4 0.100185 0.894433 0.272649
O O5 0.678160 0.978275 0.500000
O O6 0.591416 0.933923 0.702668
O O7 0.702195 0.917554 0.786322
O O8 0.644494 0.084143 0.734447
O O9 0.475667 0.889361 0.776088
O O10 0.559494 0.900607 0.000000
O O11 0.204259 0.183522 0.269870
O O12 0.264394 0.202064 0.000000
O O13 0.500000 0.500000 0.756756
O O14 0.609883 0.428696 0.776498
O O15 0.568741 0.536267 0.000000
O O16 0.872197 0.853828 0.500000
O O17 0.904505 0.750462 0.734551
O O18 0.078366 0.361004 0.500000
#
# Coordination Sequence:
#
# PCOD9427408 Si02
#       7
#     8   8   8   8   8   8   8
#     4  11  22  39  64  89 118 159 203 246 297 360
#     4  10  20  37  60  85 116 154 196 239 287 348
#     4  11  21  34  56  88 123 154 189 236 289 347
#     4  11  23  41  62  87 120 155 198 250 303 356
#     4  11  24  42  64  93 126 160 203 255 311 366
#     4  11  24  42  62  86 118 157 203 249 297 356
#     4  10  22  38  58  84 115 152 192 236 286 343
#
# _framework density 20.838576
#
# number of rings (size 3 to 8) (size 9 to 14) (size 15 to 20)
#    0.000    1.286    0.000    8.143    0.000    8.571 
#    0.000    4.286    0.000    0.000    0.000    0.000 
#    0.000    0.000    0.000    0.000    0.000    0.000 
#
# Total GULP energy -313160.790946 kJ/mol
# GULP energy per Si atom -5592.156981 kJ/mol
# Density = 2.079115 g / cm^3
# Si number density = 20.838576 Si / 1000 Ang^3
#
#
#
# Elastic Constant Matrix: (Units=GPa)
#
#
# Indices 1 2 3 4 5 6 
#
# 1 60.3321 -4.4786 -8.5034 0.0000 0.0000 0.0000
# 2 -4.4786 84.2899 -1.2409 0.0000 0.0000 0.0000
# 3 -8.5034 -1.2409 34.9731 0.0000 0.0000 0.0000
# 4 0.0000 0.0000 0.0000 13.0966 0.0000 0.0000
# 5 0.0000 0.0000 0.0000 0.0000 24.0618 0.0000
# 6 0.0000 0.0000 0.0000 0.0000 0.0000 14.4230
#
#
#
# Elastic Compliance Matrix: (Units=1/GPa)
#
#
# Indices 1 2 3 4 5 6 
#
# 1 0.017243 0.000978 0.004227 0.000000 0.000000 0.000000
# 2 0.000978 0.011926 0.000661 0.000000 0.000000 0.000000
# 3 0.004227 0.000661 0.029645 0.000000 0.000000 0.000000
# 4 0.000000 0.000000 0.000000 0.076356 0.000000 0.000000
# 5 0.000000 0.000000 0.000000 0.000000 0.041560 0.000000
# 6 0.000000 0.000000 0.000000 0.000000 0.000000 0.069334
#
#
# Mechanical properties :
#
#
# Convention : Reuss Voigt Hill
#
# Bulk Modulus (GPa) = 14.17492 16.79436 15.48464
# Shear Modulus (GPa) = 19.39153 23.23749 21.31451
#
# Velocity S-wave (km/s) = 3.05382 3.34296 3.20166
# Velocity P-wave (km/s) = 4.38764 4.79346 4.59504
#
# Compressibility (1/GPa) = 0.07054713
#
# Stress axis : x y z
#
# Youngs Moduli (GPa) = 57.99331 83.85370 33.73283
#
# Poissons Ratio (x) = -0.08205 -0.14260
# Poissons Ratio (y) = -0.05674 -0.02230
# Poissons Ratio (z) = -0.24515 -0.05543
#
# Static dielectric constant tensor:
#      x y z
#    x 1.727020 0.000000 0.000000 
#    y 0.000000 1.775540 0.000000 
#    z 0.000000 0.000000 1.701120 
# 
# From -- ./inp_files/8768.got.cif
#   From: 2010.05.17/outbox.cif.g08.bks.cpg/sg55_5_cif.got.tgz:8768.got - 2010.06.03 13:27:54.
