data_PCOD9427801
_publ_section_title
;
Structure prediction by ZEFSAII (Michael W. Deem and Ramdas Pophale) SiO2 
 PCOD9427801
Probable space group: P B A M
;
_chemical_formula_sum "Si O2"
_cell_formula_units_Z 40
_cell_length_a 10.193411
_cell_length_b 23.514250
_cell_length_c 9.213864
_cell_angle_alpha 90.000000
_cell_angle_beta 90.000000
_cell_angle_gamma 90.000000
_cell_volume 2208.474882
_symmetry_space_group_name_H-M "P B A M"
_symmetry_group_IT_number 55
_symmetry_cell_setting 'orthorhombic'
loop_
_space_group_symop_operation_xyz
x,y,z
-x,-y,z
1/2+x,1/2-y,-z
1/2-x,1/2+y,-z
-x,-y,-z
x,y,-z
1/2-x,1/2+y,z
1/2+x,1/2-y,z
loop_
_atom_site_type_symbol
_atom_site_label
_atom_site_fract_x
_atom_site_fract_y
_atom_site_fract_z
Si Si1 0.288840 0.754004 0.827389
Si Si2 0.447318 0.842212 0.331630
Si Si3 0.039656 0.064428 0.826290
Si Si4 0.845313 0.150147 0.669103
Si Si5 0.702197 0.873575 0.827525
O O1 0.414851 0.783730 0.753986
O O2 0.171224 0.791062 0.757316
O O3 0.269220 0.687808 0.796489
O O4 0.293273 0.762053 0.000000
O O5 0.474389 0.830523 0.500000
O O6 0.305373 0.873249 0.322668
O O7 0.566806 0.874704 0.258776
O O8 0.190583 0.078898 0.790877
O O9 0.946662 0.107988 0.742102
O O10 0.024142 0.073546 0.000000
O O11 0.000000 0.000000 0.793074
O O12 0.874902 0.160416 0.500000
O O13 0.675433 0.875553 0.000000
#
# Coordination Sequence:
#
# PCOD9427801 Si02
#       5
#     8   8   8   8   8
#     4   9  18  32  54  82 114 147 185 232 287 342
#     4   9  20  35  53  83 115 146 183 228 286 345
#     4  10  22  40  60  84 114 154 202 244 285 339
#     4   9  20  36  55  82 114 149 188 231 289 346
#     4  10  21  35  56  84 113 150 193 236 285 343
#
# _framework density 18.112044999999998
#
# number of rings (size 3 to 8) (size 9 to 14) (size 15 to 20)
#    1.200    1.400    0.000    1.200    2.800    2.800 
#    0.000    1.000    0.000    6.000    0.000    0.000 
#    0.000    0.000    0.000    0.000    0.000    0.000 
#
# Total GULP energy -222771.703146 kJ/mol
# GULP energy per Si atom -5569.292579 kJ/mol
# Density = 1.807082 g / cm^3
# Si number density = 18.112045 Si / 1000 Ang^3
#
#
#
# Elastic Constant Matrix: (Units=GPa)
#
#
# Indices 1 2 3 4 5 6 
#
# 1 63.4761 -2.7674 24.2918 0.0000 0.0000 0.0000
# 2 -2.7674 19.8836 10.1851 0.0000 0.0000 0.0000
# 3 24.2918 10.1851 48.8210 0.0000 0.0000 0.0000
# 4 0.0000 0.0000 0.0000 22.4544 0.0000 0.0000
# 5 0.0000 0.0000 0.0000 0.0000 30.7271 0.0000
# 6 0.0000 0.0000 0.0000 0.0000 0.0000 -342.6813
#
#
#
# Elastic Compliance Matrix: (Units=1/GPa)
#
#
# Indices 1 2 3 4 5 6 
#
# 1 0.020863 0.009205 -0.012301 0.000000 0.000000 0.000000
# 2 0.009205 0.060371 -0.017175 0.000000 0.000000 0.000000
# 3 -0.012301 -0.017175 0.030187 0.000000 0.000000 0.000000
# 4 0.000000 0.000000 0.000000 0.044535 0.000000 0.000000
# 5 0.000000 0.000000 0.000000 0.000000 0.032545 0.000000
# 6 0.000000 0.000000 0.000000 0.000000 0.000000 -0.002918
#
#
# Mechanical properties :
#
#
# Convention : Reuss Voigt Hill
#
# Bulk Modulus (GPa) = 14.10859 21.73329 17.92094
# Shear Modulus (GPa) = 20.02002 -51.20188 -15.59093
#
# Velocity S-wave (km/s) = 3.32828 -5.32268 -2.93713
# Velocity P-wave (km/s) = 4.75147 5.07436 1.25950
#
# Compressibility (1/GPa) = 0.07087878
#
# Stress axis : x y z
#
# Youngs Moduli (GPa) = 47.93235 16.56413 33.12736
#
# Poissons Ratio (x) = -0.15247 0.40750
# Poissons Ratio (y) = -0.44120 0.56895
# Poissons Ratio (z) = 0.58961 0.28448
#
# Static dielectric constant tensor:
#      x y z
#    x 1.652390 0.000000 0.000000 
#    y 0.000000 1.595610 0.000000 
#    z 0.000000 0.000000 1.604400 
# 
# From -- ./inp_files/3853.got.cif
#   From: 2010.05.17/outbox.cif.g08.bks.cpg/sg55_2_cif.got.tgz:3853.got - 2010.06.03 13:27:54.
