data_PCOD9427008
_publ_section_title
;
Structure prediction by ZEFSAII (Michael W. Deem and Ramdas Pophale) SiO2 
 PCOD9427008
Probable space group: P B A M
;
_chemical_formula_sum "Si O2"
_cell_formula_units_Z 64
_cell_length_a 17.470411
_cell_length_b 22.288526
_cell_length_c 8.719194
_cell_angle_alpha 90.000000
_cell_angle_beta 90.000000
_cell_angle_gamma 90.000000
_cell_volume 3395.164421
_symmetry_space_group_name_H-M "P B A M"
_symmetry_group_IT_number 55
_symmetry_cell_setting 'orthorhombic'
loop_
_space_group_symop_operation_xyz
x,y,z
-x,-y,z
1/2+x,1/2-y,-z
1/2-x,1/2+y,-z
-x,-y,-z
x,y,-z
1/2-x,1/2+y,z
1/2+x,1/2-y,z
loop_
_atom_site_type_symbol
_atom_site_label
_atom_site_fract_x
_atom_site_fract_y
_atom_site_fract_z
Si Si1 0.930624 0.575252 0.818654
Si Si2 0.343670 0.469505 0.182823
Si Si3 0.166589 0.783267 0.817255
Si Si4 0.130828 0.101142 0.317182
Si Si5 0.210643 0.657707 0.316440
Si Si6 0.778987 0.618917 0.318153
Si Si7 0.910196 0.444680 0.682040
Si Si8 0.469462 0.368807 0.817038
O O1 0.861041 0.616038 0.762616
O O2 0.907736 0.507085 0.772885
O O3 0.010265 0.586430 0.731232
O O4 0.942032 0.579597 0.000000
O O5 0.357894 0.536595 0.238343
O O6 0.271731 0.438160 0.264670
O O7 0.417454 0.427566 0.216291
O O8 0.331216 0.467630 0.000000
O O9 0.176838 0.715032 0.768623
O O10 0.230600 0.823502 0.734301
O O11 0.084429 0.812385 0.776604
O O12 0.175492 0.790819 0.000000
O O13 0.133996 0.092603 0.500000
O O14 0.201863 0.143656 0.273427
O O15 0.049406 0.127664 0.268708
O O16 0.206918 0.668154 0.500000
O O17 0.160224 0.598763 0.283702
O O18 0.788369 0.617518 0.500000
O O19 0.911224 0.457649 0.500000
O O20 0.483478 0.368052 0.000000
#
# Coordination Sequence:
#
# PCOD9427008 Si02
#       8
#     8   8   8   8   8   8   8   8
#     4  11  21  35  57  88 120 149 191 239 288 348
#     4  10  20  35  57  86 121 155 188 233 287 339
#     4  10  22  41  62  82 109 148 194 240 287 338
#     4  11  22  35  56  88 119 151 191 232 280 343
#     4  10  23  41  58  81 114 152 194 238 285 341
#     4  11  21  36  59  85 115 151 191 236 286 343
#     4  10  20  37  59  83 116 155 192 239 294 341
#     4   9  20  38  57  82 115 150 188 234 285 337
#
# _framework density 18.850338000000001
#
# number of rings (size 3 to 8) (size 9 to 14) (size 15 to 20)
#    0.000    1.750    0.000    6.375    0.000    7.500 
#    2.250    0.000    0.000    0.000    0.000    0.000 
#    0.000    0.000    0.000    0.000    0.000    0.000 
#
# Total GULP energy -357687.942074 kJ/mol
# GULP energy per Si atom -5588.874095 kJ/mol
# Density = 1.880743 g / cm^3
# Si number density = 18.850338 Si / 1000 Ang^3
#
#
#
# Elastic Constant Matrix: (Units=GPa)
#
#
# Indices 1 2 3 4 5 6 
#
# 1 56.9321 1.8933 8.0252 0.0000 0.0000 0.0000
# 2 1.8933 46.3836 11.4370 0.0000 0.0000 0.0000
# 3 8.0252 11.4370 49.0205 0.0000 0.0000 0.0000
# 4 0.0000 0.0000 0.0000 31.3616 0.0000 0.0000
# 5 0.0000 0.0000 0.0000 0.0000 10.3556 0.0000
# 6 0.0000 0.0000 0.0000 0.0000 0.0000 7.3513
#
#
#
# Elastic Compliance Matrix: (Units=1/GPa)
#
#
# Indices 1 2 3 4 5 6 
#
# 1 0.017980 -0.000009 -0.002941 0.000000 0.000000 0.000000
# 2 -0.000009 0.022875 -0.005336 0.000000 0.000000 0.000000
# 3 -0.002941 -0.005336 0.022126 0.000000 0.000000 0.000000
# 4 0.000000 0.000000 0.000000 0.031886 0.000000 0.000000
# 5 0.000000 0.000000 0.000000 0.000000 0.096566 0.000000
# 6 0.000000 0.000000 0.000000 0.000000 0.000000 0.136030
#
#
# Mechanical properties :
#
#
# Convention : Reuss Voigt Hill
#
# Bulk Modulus (GPa) = 21.54726 21.67191 21.60959
# Shear Modulus (GPa) = 13.90804 18.54577 16.22691
#
# Velocity S-wave (km/s) = 2.71922 3.14003 2.93717
# Velocity P-wave (km/s) = 4.61675 4.96671 4.79492
#
# Compressibility (1/GPa) = 0.04640962
#
# Stress axis : x y z
#
# Youngs Moduli (GPa) = 55.61827 43.71521 45.19562
#
# Poissons Ratio (x) = 0.00038 0.13294
# Poissons Ratio (y) = 0.00048 0.24115
# Poissons Ratio (z) = 0.16360 0.23325
#
# Static dielectric constant tensor:
#      x y z
#    x 1.652870 0.000000 0.000000 
#    y 0.000000 1.632720 0.000000 
#    z 0.000000 0.000000 1.630940 
# 
# From -- ./inp_files/8078.got.cif
#   From: 2010.05.17/outbox.cif.g08.bks.cpg/sg55_5_cif.got.tgz:8078.got - 2010.06.03 13:27:54.
