data_PCOD9428140
_publ_section_title
;
Structure prediction by ZEFSAII (Michael W. Deem and Ramdas Pophale) SiO2 
 PCOD9428140
Probable space group: P B A M
;
_chemical_formula_sum "Si O2"
_cell_formula_units_Z 58
_cell_length_a 16.372960
_cell_length_b 18.226311
_cell_length_c 10.176610
_cell_angle_alpha 90.000000
_cell_angle_beta 90.000000
_cell_angle_gamma 90.000000
_cell_volume 3036.890329
_symmetry_space_group_name_H-M "P B A M"
_symmetry_group_IT_number 55
_symmetry_cell_setting 'orthorhombic'
loop_
_space_group_symop_operation_xyz
x,y,z
-x,-y,z
1/2+x,1/2-y,-z
1/2-x,1/2+y,-z
-x,-y,-z
x,y,-z
1/2-x,1/2+y,z
1/2+x,1/2-y,z
loop_
_atom_site_type_symbol
_atom_site_label
_atom_site_fract_x
_atom_site_fract_y
_atom_site_fract_z
Si Si1 0.257850 0.965151 0.155460
Si Si2 0.076504 0.945839 0.847519
Si Si3 0.228653 0.714185 0.356775
Si Si4 0.504435 0.809274 0.147366
Si Si5 0.067930 0.809985 0.348235
Si Si6 0.187297 0.305180 0.150027
Si Si7 0.500000 0.000000 0.500000
Si Si8 0.116541 0.576953 0.281456
O O1 0.163329 0.985408 0.179172
O O2 0.267645 0.879697 0.192184
O O3 0.324678 0.014230 0.225918
O O4 0.273159 0.970164 0.000000
O O5 0.065843 0.882810 0.739413
O O6 0.081792 0.917718 0.000000
O O7 0.000000 0.000000 0.841382
O O8 0.268781 0.713049 0.500000
O O9 0.159282 0.777159 0.355242
O O10 0.290277 0.737350 0.242650
O O11 0.178286 0.639499 0.335746
O O12 0.520951 0.751265 0.262976
O O13 0.408251 0.824488 0.151667
O O14 0.560076 0.879984 0.176482
O O15 0.523884 0.780996 0.000000
O O16 0.039845 0.818547 0.500000
O O17 0.211332 0.287897 0.000000
O O18 0.444648 0.042191 0.613349
#
# Coordination Sequence:
#
# PCOD9428140 Si02
#       8
#     8   8   8   8   8   8   2   8
#     4  10  21  40  63  93 126 167 222 274 332 398
#     4  10  21  39  64  92 126 170 220 277 334 394
#     4  10  21  40  59  88 123 162 214 260 311 391
#     4  10  22  39  63  94 127 167 217 273 329 395
#     4  10  21  38  60  87 121 162 208 264 325 390
#     4  10  21  38  62  92 123 163 216 268 325 390
#     4  12  24  44  62  92 138 180 208 278 340 410
#     4  11  23  41  65  94 132 178 221 271 335 408
#
# _framework density 19.098483000000002
#
# number of rings (size 3 to 8) (size 9 to 14) (size 15 to 20)
#    0.000    1.793    2.069    1.655    0.966    4.690 
#    4.966    5.517    0.000    0.000    0.000    0.000 
#    0.000    0.000    0.000    0.000    0.000    0.000 
#
# Total GULP energy -322921.023167 kJ/mol
# GULP energy per Si atom -5567.603848 kJ/mol
# Density = 1.905501 g / cm^3
# Si number density = 19.098483 Si / 1000 Ang^3
#
#
#
# Elastic Constant Matrix: (Units=GPa)
#
#
# Indices 1 2 3 4 5 6 
#
# 1 77.0586 35.9642 44.7659 0.0000 0.0000 0.0000
# 2 35.9642 78.5795 67.0088 0.0000 0.0000 0.0000
# 3 44.7659 67.0088 127.5954 0.0000 0.0000 0.0000
# 4 0.0000 0.0000 0.0000 11.7438 0.0000 0.0000
# 5 0.0000 0.0000 0.0000 0.0000 18.7450 0.0000
# 6 0.0000 0.0000 0.0000 0.0000 0.0000 33.0458
#
#
#
# Elastic Compliance Matrix: (Units=1/GPa)
#
#
# Indices 1 2 3 4 5 6 
#
# 1 0.017308 -0.004968 -0.003463 0.000000 0.000000 0.000000
# 2 -0.004968 0.024474 -0.011110 0.000000 0.000000 0.000000
# 3 -0.003463 -0.011110 0.014887 0.000000 0.000000 0.000000
# 4 0.000000 0.000000 0.000000 0.085151 0.000000 0.000000
# 5 0.000000 0.000000 0.000000 0.000000 0.053348 0.000000
# 6 0.000000 0.000000 0.000000 0.000000 0.000000 0.030261
#
#
# Mechanical properties :
#
#
# Convention : Reuss Voigt Hill
#
# Bulk Modulus (GPa) = 56.86331 64.30127 60.58229
# Shear Modulus (GPa) = 18.49307 21.73991 20.11649
#
# Velocity S-wave (km/s) = 3.11513 3.37754 3.24898
# Velocity P-wave (km/s) = 6.54042 6.99655 6.77233
#
# Compressibility (1/GPa) = 0.01758603
#
# Stress axis : x y z
#
# Youngs Moduli (GPa) = 57.77779 40.86050 67.17401
#
# Poissons Ratio (x) = 0.20300 0.23264
# Poissons Ratio (y) = 0.28705 0.74628
# Poissons Ratio (z) = 0.20010 0.45395
#
# Static dielectric constant tensor:
#      x y z
#    x 1.661630 0.000000 0.000000 
#    y 0.000000 1.662770 0.000000 
#    z 0.000000 0.000000 1.674760 
# 
# From -- ./inp_files/7699.got.cif
#   From: 2010.05.17/outbox.cif.g08.bks.cpg/sg55_4_cif.got.tgz:7699.got - 2010.06.03 13:27:54.
