data_PCOD9428879
_publ_section_title
;
Structure prediction by ZEFSAII (Michael W. Deem and Ramdas Pophale) SiO2 
 PCOD9428879
Probable space group: P B A M
;
_chemical_formula_sum "Si O2"
_cell_formula_units_Z 40
_cell_length_a 12.805063
_cell_length_b 16.937310
_cell_length_c 7.698815
_cell_angle_alpha 90.000000
_cell_angle_beta 90.000000
_cell_angle_gamma 90.000000
_cell_volume 1669.744570
_symmetry_space_group_name_H-M "P B A M"
_symmetry_group_IT_number 55
_symmetry_cell_setting 'orthorhombic'
loop_
_space_group_symop_operation_xyz
x,y,z
-x,-y,z
1/2+x,1/2-y,-z
1/2-x,1/2+y,-z
-x,-y,-z
x,y,-z
1/2-x,1/2+y,z
1/2+x,1/2-y,z
loop_
_atom_site_type_symbol
_atom_site_label
_atom_site_fract_x
_atom_site_fract_y
_atom_site_fract_z
Si Si1 0.926861 0.615578 0.292104
Si Si2 0.540796 0.585514 0.199909
Si Si3 0.640090 0.935635 0.291236
Si Si4 0.721830 0.699405 0.802496
Si Si5 0.329705 0.645305 0.700532
O O1 0.923433 0.633837 0.500000
O O2 0.894778 0.524838 0.267737
O O3 0.837697 0.663053 0.198710
O O4 0.046076 0.620412 0.228912
O O5 0.500000 0.500000 0.273059
O O6 0.639088 0.635869 0.274334
O O7 0.440610 0.643869 0.206812
O O8 0.569697 0.568803 0.000000
O O9 0.645552 0.923903 0.500000
O O10 0.755824 0.922879 0.222815
O O11 0.749342 0.781419 0.709480
O O12 0.688613 0.716401 0.000000
O O13 0.356813 0.632035 0.500000
#
# Coordination Sequence:
#
# PCOD9428879 Si02
#       5
#     8   8   8   8   8
#     4   9  17  35  61  86 114 149 190 239 294 355
#     4  10  23  44  66  89 124 168 210 255 309 369
#     4   8  17  34  58  87 116 146 187 241 297 349
#     4  11  24  39  57  86 123 159 200 249 303 361
#     4  11  23  38  60  89 121 158 204 252 302 361
#
# _framework density 23.955760999999999
#
# number of rings (size 3 to 8) (size 9 to 14) (size 15 to 20)
#    0.000    2.200    0.000    3.600    2.800    2.000 
#    0.000    4.000    0.000    0.000    0.000    0.000 
#    0.000    0.000    0.000    0.000    0.000    0.000 
#
# Total GULP energy -222984.257253 kJ/mol
# GULP energy per Si atom -5574.606431 kJ/mol
# Density = 2.390124 g / cm^3
# Si number density = 23.955761 Si / 1000 Ang^3
#
#
#
# Elastic Constant Matrix: (Units=GPa)
#
#
# Indices 1 2 3 4 5 6 
#
# 1 90.8904 9.4377 -1.7296 0.0000 0.0000 0.0000
# 2 9.4377 51.6814 6.5744 0.0000 0.0000 0.0000
# 3 -1.7296 6.5744 50.3141 0.0000 0.0000 0.0000
# 4 0.0000 0.0000 0.0000 -0.2332 0.0000 0.0000
# 5 0.0000 0.0000 0.0000 0.0000 17.0867 0.0000
# 6 0.0000 0.0000 0.0000 0.0000 0.0000 44.3787
#
#
#
# Elastic Compliance Matrix: (Units=1/GPa)
#
#
# Indices 1 2 3 4 5 6 
#
# 1 0.011237 -0.002137 0.000665 0.000000 0.000000 0.000000
# 2 -0.002137 0.020083 -0.002698 0.000000 0.000000 0.000000
# 3 0.000665 -0.002698 0.020251 0.000000 0.000000 0.000000
# 4 0.000000 0.000000 0.000000 -4.288421 0.000000 0.000000
# 5 0.000000 0.000000 0.000000 0.000000 0.058525 0.000000
# 6 0.000000 0.000000 0.000000 0.000000 0.000000 0.022533
#
#
# Mechanical properties :
#
#
# Convention : Reuss Voigt Hill
#
# Bulk Modulus (GPa) = 23.13079 24.60566 23.86823
# Shear Modulus (GPa) = -1.20976 24.15333 11.47178
#
# Velocity S-wave (km/s) = -0.71140 3.17874 2.19069
# Velocity P-wave (km/s) = 3.00030 4.87505 4.04771
#
# Compressibility (1/GPa) = 0.04323241
#
# Stress axis : x y z
#
# Youngs Moduli (GPa) = 88.99341 49.79424 49.38150
#
# Poissons Ratio (x) = 0.10639 -0.03286
# Poissons Ratio (y) = 0.19015 0.13321
# Poissons Ratio (z) = -0.05922 0.13432
#
# Static dielectric constant tensor:
#      x y z
#    x 2.354310 0.000000 0.000000 
#    y 0.000000 4.571560 0.000000 
#    z 0.000000 0.000000 1.881130 
# 
# From -- ./inp_files/3606.got.cif
#   From: 2010.05.17/outbox.cif.g08.bks.cpg/sg55_2_cif.got.tgz:3606.got - 2010.06.03 13:27:54.
