data_PCOD9428579
_publ_section_title
;
Structure prediction by ZEFSAII (Michael W. Deem and Ramdas Pophale) SiO2 
 PCOD9428579
Probable space group: P B A M
;
_chemical_formula_sum "Si O2"
_cell_formula_units_Z 56
_cell_length_a 21.218956
_cell_length_b 14.756854
_cell_length_c 7.753613
_cell_angle_alpha 90.000000
_cell_angle_beta 90.000000
_cell_angle_gamma 90.000000
_cell_volume 2427.850348
_symmetry_space_group_name_H-M "P B A M"
_symmetry_group_IT_number 55
_symmetry_cell_setting 'orthorhombic'
loop_
_space_group_symop_operation_xyz
x,y,z
-x,-y,z
1/2+x,1/2-y,-z
1/2-x,1/2+y,-z
-x,-y,-z
x,y,-z
1/2-x,1/2+y,z
1/2+x,1/2-y,z
loop_
_atom_site_type_symbol
_atom_site_label
_atom_site_fract_x
_atom_site_fract_y
_atom_site_fract_z
Si Si1 0.625534 0.873300 0.197610
Si Si2 0.588809 0.068513 0.698068
Si Si3 0.821443 0.085887 0.702624
Si Si4 0.230976 0.111061 0.209586
Si Si5 0.996253 0.282100 0.698330
Si Si6 0.534481 0.591375 0.711991
Si Si7 0.700015 0.191810 0.799713
O O1 0.696357 0.879571 0.267224
O O2 0.576901 0.809630 0.295669
O O3 0.598362 0.974893 0.205188
O O4 0.628300 0.841892 0.000000
O O5 0.572277 0.044924 0.500000
O O6 0.536843 0.136386 0.775519
O O7 0.653792 0.124382 0.701710
O O8 0.821292 0.107045 0.500000
O O9 0.892788 0.093796 0.768011
O O10 0.770802 0.152943 0.787013
O O11 0.798749 0.982163 0.726691
O O12 0.197155 0.204415 0.261771
O O13 0.231534 0.107341 0.000000
O O14 0.017866 0.277312 0.500000
O O15 0.001053 0.181823 0.773001
O O16 0.500000 0.500000 0.765999
O O17 0.534690 0.592969 0.500000
O O18 0.681158 0.189465 0.000000
#
# Coordination Sequence:
#
# PCOD9428579 Si02
#       7
#     8   8   8   8   8   8   8
#     4  11  22  39  62  88 121 163 200 243 304 367
#     4  11  23  38  60  91 121 155 202 253 307 359
#     4  11  22  37  64  94 119 156 203 251 298 355
#     4  10  23  40  60  86 121 164 199 242 304 362
#     4  10  22  39  61  87 121 160 200 254 303 354
#     4   9  20  39  62  89 123 160 200 248 304 356
#     4  11  23  40  61  86 123 164 202 249 305 362
#
# _framework density 23.065671999999999
#
# number of rings (size 3 to 8) (size 9 to 14) (size 15 to 20)
#    0.000    1.571    1.429    3.000    2.000    4.571 
#    0.000    0.714    0.000    2.143    0.000    0.000 
#    0.000    0.000    0.000    0.000    0.000    0.000 
#
# Total GULP energy -313283.499060 kJ/mol
# GULP energy per Si atom -5594.348198 kJ/mol
# Density = 2.301317 g / cm^3
# Si number density = 23.065672 Si / 1000 Ang^3
#
#
#
# Elastic Constant Matrix: (Units=GPa)
#
#
# Indices 1 2 3 4 5 6 
#
# 1 58.7934 -3.9710 -5.5486 0.0000 0.0000 0.0000
# 2 -3.9710 104.5424 -6.7447 0.0000 0.0000 0.0000
# 3 -5.5486 -6.7447 46.1034 0.0000 0.0000 0.0000
# 4 0.0000 0.0000 0.0000 2.1343 0.0000 0.0000
# 5 0.0000 0.0000 0.0000 0.0000 40.6524 0.0000
# 6 0.0000 0.0000 0.0000 0.0000 0.0000 17.6441
#
#
#
# Elastic Compliance Matrix: (Units=1/GPa)
#
#
# Indices 1 2 3 4 5 6 
#
# 1 0.017270 0.000798 0.002195 0.000000 0.000000 0.000000
# 2 0.000798 0.009693 0.001514 0.000000 0.000000 0.000000
# 3 0.002195 0.001514 0.022176 0.000000 0.000000 0.000000
# 4 0.000000 0.000000 0.000000 0.468538 0.000000 0.000000
# 5 0.000000 0.000000 0.000000 0.000000 0.024599 0.000000
# 6 0.000000 0.000000 0.000000 0.000000 0.000000 0.056676
#
#
# Mechanical properties :
#
#
# Convention : Reuss Voigt Hill
#
# Bulk Modulus (GPa) = 17.19603 19.65673 18.42638
# Shear Modulus (GPa) = 8.20583 27.13307 17.66945
#
# Velocity S-wave (km/s) = 1.88820 3.43350 2.77076
# Velocity P-wave (km/s) = 3.49645 4.92536 4.27109
#
# Compressibility (1/GPa) = 0.05815295
#
# Stress axis : x y z
#
# Youngs Moduli (GPa) = 57.90472 103.16214 45.09370
#
# Poissons Ratio (x) = -0.08228 -0.09899
# Poissons Ratio (y) = -0.04619 -0.06828
# Poissons Ratio (z) = -0.12711 -0.15620
#
# Static dielectric constant tensor:
#      x y z
#    x 1.853220 0.000000 0.000000 
#    y 0.000000 1.836760 0.000000 
#    z 0.000000 0.000000 1.849800 
# 
# From -- ./inp_files/8693.got.cif
#   From: 2010.05.17/outbox.cif.g08.bks.cpg/sg55_5_cif.got.tgz:8693.got - 2010.06.03 13:27:54.
