data_PCOD9428374
_publ_section_title
;
Structure prediction by ZEFSAII (Michael W. Deem and Ramdas Pophale) SiO2 
 PCOD9428374
Probable space group: P B A M
;
_chemical_formula_sum "Si O2"
_cell_formula_units_Z 64
_cell_length_a 24.317702
_cell_length_b 15.747185
_cell_length_c 8.470415
_cell_angle_alpha 90.000000
_cell_angle_beta 90.000000
_cell_angle_gamma 90.000000
_cell_volume 3243.621351
_symmetry_space_group_name_H-M "P B A M"
_symmetry_group_IT_number 55
_symmetry_cell_setting 'orthorhombic'
loop_
_space_group_symop_operation_xyz
x,y,z
-x,-y,z
1/2+x,1/2-y,-z
1/2-x,1/2+y,-z
-x,-y,-z
x,y,-z
1/2-x,1/2+y,z
1/2+x,1/2-y,z
loop_
_atom_site_type_symbol
_atom_site_label
_atom_site_fract_x
_atom_site_fract_y
_atom_site_fract_z
Si Si1 0.247270 0.838481 0.186831
Si Si2 0.632003 0.582973 0.809470
Si Si3 0.861640 0.598088 0.684944
Si Si4 0.138299 0.582959 0.812488
Si Si5 0.874783 0.898746 0.311902
Si Si6 0.057711 0.258455 0.811603
Si Si7 0.568866 0.753097 0.192267
Si Si8 0.749227 0.350858 0.313071
O O1 0.195481 0.896709 0.231983
O O2 0.305236 0.881716 0.223175
O O3 0.244869 0.748916 0.276262
O O4 0.242377 0.820582 0.000000
O O5 0.612973 0.495337 0.733838
O O6 0.596805 0.664827 0.758318
O O7 0.628427 0.575527 0.000000
O O8 0.849940 0.604664 0.500000
O O9 0.879861 0.503414 0.729275
O O10 0.906545 0.667646 0.732638
O O11 0.104419 0.665576 0.757238
O O12 0.202163 0.600271 0.774847
O O13 0.130911 0.573849 0.000000
O O14 0.878081 0.886771 0.500000
O O15 0.914517 0.831181 0.230340
O O16 0.811776 0.878918 0.262582
O O17 0.994374 0.259750 0.758709
O O18 0.059308 0.270751 0.000000
O O19 0.570221 0.752810 0.000000
O O20 0.754635 0.366119 0.500000
#
# Coordination Sequence:
#
# PCOD9428374 Si02
#       8
#     8   8   8   8   8   8   8   8
#     4  11  21  37  65  94 122 160 206 248 299 366
#     4  10  21  40  64  92 122 157 202 253 300 356
#     4  12  25  41  60  91 131 161 198 252 312 370
#     4  11  22  41  66  92 123 160 208 254 300 366
#     4  11  24  40  59  90 128 163 198 247 305 364
#     4  11  23  42  67  88 114 160 212 257 306 361
#     4   9  21  42  65  90 118 154 208 266 304 347
#     4  11  22  37  60  91 130 165 196 245 310 364
#
# _framework density 19.731033
#
# number of rings (size 3 to 8) (size 9 to 14) (size 15 to 20)
#    0.000    1.250    2.500    3.750    0.000    5.500 
#    0.000    8.750    0.000    0.000    0.000    0.000 
#    0.000    0.000    0.000    0.000    0.000    0.000 
#
# Total GULP energy -357955.036115 kJ/mol
# GULP energy per Si atom -5593.047439 kJ/mol
# Density = 1.968612 g / cm^3
# Si number density = 19.731033 Si / 1000 Ang^3
#
#
#
# Elastic Constant Matrix: (Units=GPa)
#
#
# Indices 1 2 3 4 5 6 
#
# 1 89.5897 9.0246 -0.1408 0.0000 0.0000 0.0000
# 2 9.0246 80.3352 -8.3958 0.0000 0.0000 0.0000
# 3 -0.1408 -8.3958 13.3804 0.0000 0.0000 0.0000
# 4 0.0000 0.0000 0.0000 -280.2595 0.0000 0.0000
# 5 0.0000 0.0000 0.0000 0.0000 -5.3263 0.0000
# 6 0.0000 0.0000 0.0000 0.0000 0.0000 -1.1716
#
#
#
# Elastic Compliance Matrix: (Units=1/GPa)
#
#
# Indices 1 2 3 4 5 6 
#
# 1 0.011296 -0.001345 -0.000725 0.000000 0.000000 0.000000
# 2 -0.001345 0.013481 0.008445 0.000000 0.000000 0.000000
# 3 -0.000725 0.008445 0.080027 0.000000 0.000000 0.000000
# 4 0.000000 0.000000 0.000000 -0.003568 0.000000 0.000000
# 5 0.000000 0.000000 0.000000 0.000000 -0.187746 0.000000
# 6 0.000000 0.000000 0.000000 0.000000 0.000000 -0.853504
#
#
# Mechanical properties :
#
#
# Convention : Reuss Voigt Hill
#
# Bulk Modulus (GPa) = 8.50659 20.47572 14.49116
# Shear Modulus (GPa) = -5.47298 -45.16368 -25.31833
#
# Velocity S-wave (km/s) = -1.66728 -4.78951 -3.58603
# Velocity P-wave (km/s) = 0.78372 4.49287 3.12823
#
# Compressibility (1/GPa) = 0.11755595
#
# Stress axis : x y z
#
# Youngs Moduli (GPa) = 88.52443 74.17575 12.49572
#
# Poissons Ratio (x) = 0.09975 0.00906
# Poissons Ratio (y) = 0.11904 -0.10553
# Poissons Ratio (z) = 0.06417 -0.62642
#
# Static dielectric constant tensor:
#      x y z
#    x 1.675080 0.000000 0.000000 
#    y 0.000000 1.673160 0.000000 
#    z 0.000000 0.000000 1.669430 
# 
# From -- ./inp_files/6646.got.cif
#   From: 2010.05.17/outbox.cif.g08.bks.cpg/sg55_4_cif.got.tgz:6646.got - 2010.06.03 13:27:54.
