data_PCOD9428209
_publ_section_title
;
Structure prediction by ZEFSAII (Michael W. Deem and Ramdas Pophale) SiO2 
 PCOD9428209
Probable space group: P B A M
;
_chemical_formula_sum "Si O2"
_cell_formula_units_Z 34
_cell_length_a 22.580737
_cell_length_b 5.082423
_cell_length_c 13.358477
_cell_angle_alpha 90.000000
_cell_angle_beta 90.000000
_cell_angle_gamma 90.000000
_cell_volume 1533.083704
_symmetry_space_group_name_H-M "P B A M"
_symmetry_group_IT_number 55
_symmetry_cell_setting 'orthorhombic'
loop_
_space_group_symop_operation_xyz
x,y,z
-x,-y,z
1/2+x,1/2-y,-z
1/2-x,1/2+y,-z
-x,-y,-z
x,y,-z
1/2-x,1/2+y,z
1/2+x,1/2-y,z
loop_
_atom_site_type_symbol
_atom_site_label
_atom_site_fract_x
_atom_site_fract_y
_atom_site_fract_z
Si Si1 0.458519 0.750704 0.500000
Si Si2 0.705184 0.784684 0.000000
Si Si3 0.897868 0.724981 0.716874
Si Si4 0.000000 0.000000 0.000000
Si Si5 0.713927 0.173264 0.387004
Si Si6 0.403732 0.259003 0.155041
O O1 0.500000 0.500000 0.500000
O O2 0.424513 0.756027 0.394192
O O3 0.500000 0.000000 0.500000
O O4 0.657867 0.778826 0.092661
O O5 0.749258 0.036925 0.000000
O O6 0.832587 0.610187 0.697208
O O7 0.924188 0.513943 0.793849
O O8 0.895013 0.013518 0.762973
O O9 0.044261 0.870248 0.085231
O O10 0.691101 0.126009 0.500000
O O11 0.731215 0.477221 0.378415
#
# Coordination Sequence:
#
# PCOD9428209 Si02
#       6
#     4   4   8   2   8   8
#     4  12  28  46  68 100 148 190 228 298 350 407
#     4  11  24  47  72 107 145 178 234 307 368 423
#     4  12  25  45  69 107 137 184 236 280 347 431
#     4  10  28  54  68 100 136 176 240 298 360 422
#     4  10  21  38  62  93 138 181 215 265 326 397
#     4  11  27  44  76 101 136 188 234 295 360 423
#
# _framework density 22.177520999999999
#
# number of rings (size 3 to 8) (size 9 to 14) (size 15 to 20)
#    0.000    0.941    1.176    4.235    4.941    9.412 
#    0.000    0.000    0.000    0.000    0.000    0.000 
#    0.000    0.000    0.000    0.000    0.000    0.000 
#
# Total GULP energy -189416.184176 kJ/mol
# GULP energy per Si atom -5571.064240 kJ/mol
# Density = 2.212704 g / cm^3
# Si number density = 22.177521 Si / 1000 Ang^3
#
#
#
# Elastic Constant Matrix: (Units=GPa)
#
#
# Indices 1 2 3 4 5 6 
#
# 1 82.7582 28.3571 45.1187 0.0000 0.0000 0.0000
# 2 28.3571 130.0571 43.9967 0.0000 0.0000 0.0000
# 3 45.1187 43.9967 122.7692 0.0000 0.0000 0.0000
# 4 0.0000 0.0000 0.0000 -35.7565 0.0000 0.0000
# 5 0.0000 0.0000 0.0000 0.0000 17.6462 0.0000
# 6 0.0000 0.0000 0.0000 0.0000 0.0000 30.7416
#
#
#
# Elastic Compliance Matrix: (Units=1/GPa)
#
#
# Indices 1 2 3 4 5 6 
#
# 1 0.015414 -0.001644 -0.005076 0.000000 0.000000 0.000000
# 2 -0.001644 0.008925 -0.002594 0.000000 0.000000 0.000000
# 3 -0.005076 -0.002594 0.010940 0.000000 0.000000 0.000000
# 4 0.000000 0.000000 0.000000 -0.027967 0.000000 0.000000
# 5 0.000000 0.000000 0.000000 0.000000 0.056669 0.000000
# 6 0.000000 0.000000 0.000000 0.000000 0.000000 0.032529
#
#
# Mechanical properties :
#
#
# Convention : Reuss Voigt Hill
#
# Bulk Modulus (GPa) = 60.05370 63.39217 61.72294
# Shear Modulus (GPa) = 41.42884 17.06706 29.24795
#
# Velocity S-wave (km/s) = 4.32679 2.77711 3.63548
# Velocity P-wave (km/s) = 7.21796 6.23933 6.74641
#
# Compressibility (1/GPa) = 0.01665176
#
# Stress axis : x y z
#
# Youngs Moduli (GPa) = 64.87696 112.04531 91.40397
#
# Poissons Ratio (x) = 0.18417 0.46393
# Poissons Ratio (y) = 0.10664 0.23713
# Poissons Ratio (z) = 0.32929 0.29068
#
# Static dielectric constant tensor:
#      x y z
#    x 1.878820 0.000000 0.000000 
#    y 0.000000 1.886610 0.000000 
#    z 0.000000 0.000000 1.700650 
# 
# From -- ./inp_files/15542.got.cif
#   From: 2010.05.17/outbox.cif.g08.bks.cpg/sg55_8_cif.got.tgz:15542.got - 2010.06.03 13:27:54.
