data_PCOD9428448
_publ_section_title
;
Structure prediction by ZEFSAII (Michael W. Deem and Ramdas Pophale) SiO2 
 PCOD9428448
Probable space group: P B A M
;
_chemical_formula_sum "Si O2"
_cell_formula_units_Z 58
_cell_length_a 11.808443
_cell_length_b 28.795256
_cell_length_c 8.121298
_cell_angle_alpha 90.000000
_cell_angle_beta 90.000000
_cell_angle_gamma 90.000000
_cell_volume 2761.461725
_symmetry_space_group_name_H-M "P B A M"
_symmetry_group_IT_number 55
_symmetry_cell_setting 'orthorhombic'
loop_
_space_group_symop_operation_xyz
x,y,z
-x,-y,z
1/2+x,1/2-y,-z
1/2-x,1/2+y,-z
-x,-y,-z
x,y,-z
1/2-x,1/2+y,z
1/2+x,1/2-y,z
loop_
_atom_site_type_symbol
_atom_site_label
_atom_site_fract_x
_atom_site_fract_y
_atom_site_fract_z
Si Si1 0.000000 0.000000 0.000000
Si Si2 0.948781 0.381365 0.695037
Si Si3 0.157268 0.812743 0.310540
Si Si4 0.779813 0.927406 0.692191
Si Si5 0.314664 0.207790 0.197732
Si Si6 0.799449 0.605911 0.185041
Si Si7 0.584351 0.342222 0.807708
Si Si8 0.633247 0.532100 0.686741
O O1 0.054320 0.967014 0.150943
O O2 0.962537 0.386832 0.500000
O O3 0.846632 0.415151 0.751541
O O4 0.903023 0.329800 0.733364
O O5 0.068414 0.391540 0.775748
O O6 0.191362 0.816629 0.500000
O O7 0.159792 0.759285 0.257416
O O8 0.243799 0.843547 0.206035
O O9 0.031213 0.832999 0.286967
O O10 0.785739 0.913704 0.500000
O O11 0.866687 0.893973 0.785323
O O12 0.809448 0.981235 0.702427
O O13 0.188468 0.190799 0.247427
O O14 0.319490 0.205816 0.000000
O O15 0.728380 0.571322 0.298892
O O16 0.784233 0.589076 0.000000
O O17 0.561922 0.333375 0.000000
O O18 0.582608 0.536462 0.500000
#
# Coordination Sequence:
#
# PCOD9428448 Si02
#       8
#     2   8   8   8   8   8   8   8
#     4  12  26  44  68 100 132 184 226 268 334 398
#     4  10  21  42  69  96 131 170 218 274 334 399
#     4  12  26  41  63  90 126 170 216 271 331 395
#     4   9  21  41  67  96 128 171 217 270 328 393
#     4  10  22  42  64  93 124 167 214 264 326 394
#     4  12  26  45  64  96 134 176 223 276 337 403
#     4  10  22  39  64  92 125 161 209 266 321 388
#     4  11  25  45  68 100 138 179 229 280 338 400
#
# _framework density 21.003368999999999
#
# number of rings (size 3 to 8) (size 9 to 14) (size 15 to 20)
#    0.000    1.379    0.690    3.931    4.828    2.759 
#    0.000    2.759    0.000    0.000    0.000    0.000 
#    0.000    0.000    0.000    0.000    0.000    0.000 
#
# Total GULP energy -323799.138339 kJ/mol
# GULP energy per Si atom -5582.743764 kJ/mol
# Density = 2.095556 g / cm^3
# Si number density = 21.003369 Si / 1000 Ang^3
#
#
#
# Elastic Constant Matrix: (Units=GPa)
#
#
# Indices 1 2 3 4 5 6 
#
# 1 92.8296 14.8633 26.9957 0.0000 0.0000 0.0000
# 2 14.8633 60.4017 8.1469 0.0000 0.0000 0.0000
# 3 26.9957 8.1469 92.8276 0.0000 0.0000 0.0000
# 4 0.0000 0.0000 0.0000 26.7850 0.0000 0.0000
# 5 0.0000 0.0000 0.0000 0.0000 23.7582 0.0000
# 6 0.0000 0.0000 0.0000 0.0000 0.0000 13.1997
#
#
#
# Elastic Compliance Matrix: (Units=1/GPa)
#
#
# Indices 1 2 3 4 5 6 
#
# 1 0.012141 -0.002542 -0.003308 0.000000 0.000000 0.000000
# 2 -0.002542 0.017286 -0.000778 0.000000 0.000000 0.000000
# 3 -0.003308 -0.000778 0.011803 0.000000 0.000000 0.000000
# 4 0.000000 0.000000 0.000000 0.037334 0.000000 0.000000
# 5 0.000000 0.000000 0.000000 0.000000 0.042091 0.000000
# 6 0.000000 0.000000 0.000000 0.000000 0.000000 0.075760
#
#
# Mechanical properties :
#
#
# Convention : Reuss Voigt Hill
#
# Bulk Modulus (GPa) = 35.74525 38.45228 37.09877
# Shear Modulus (GPa) = 22.83158 25.81876 24.32517
#
# Velocity S-wave (km/s) = 3.30061 3.50989 3.40686
# Velocity P-wave (km/s) = 5.61971 5.89688 5.75996
#
# Compressibility (1/GPa) = 0.02797574
#
# Stress axis : x y z
#
# Youngs Moduli (GPa) = 82.36346 57.84971 84.72486
#
# Poissons Ratio (x) = 0.14703 0.28026
# Poissons Ratio (y) = 0.20933 0.06592
# Poissons Ratio (z) = 0.27244 0.04501
#
# Static dielectric constant tensor:
#      x y z
#    x 1.744210 0.000000 0.000000 
#    y 0.000000 1.731620 0.000000 
#    z 0.000000 0.000000 1.771810 
# 
# From -- ./inp_files/4313.got.cif
#   From: 2010.05.17/outbox.cif.g08.bks.cpg/sg55_3_cif.got.tgz:4313.got - 2010.06.03 13:27:54.
