data_PCOD9428697
_publ_section_title
;
Structure prediction by ZEFSAII (Michael W. Deem and Ramdas Pophale) SiO2 
 PCOD9428697
Probable space group: P B A M
;
_chemical_formula_sum "Si O2"
_cell_formula_units_Z 64
_cell_length_a 9.877076
_cell_length_b 17.612019
_cell_length_c 19.723074
_cell_angle_alpha 90.000000
_cell_angle_beta 90.000000
_cell_angle_gamma 90.000000
_cell_volume 3430.932272
_symmetry_space_group_name_H-M "P B A M"
_symmetry_group_IT_number 55
_symmetry_cell_setting 'orthorhombic'
loop_
_space_group_symop_operation_xyz
x,y,z
-x,-y,z
1/2+x,1/2-y,-z
1/2-x,1/2+y,-z
-x,-y,-z
x,y,-z
1/2-x,1/2+y,z
1/2+x,1/2-y,z
loop_
_atom_site_type_symbol
_atom_site_label
_atom_site_fract_x
_atom_site_fract_y
_atom_site_fract_z
Si Si1 0.115581 0.668755 0.420407
Si Si2 0.756320 0.658359 0.776564
Si Si3 0.901076 0.818055 0.925707
Si Si4 0.277181 0.334627 0.075208
Si Si5 0.498698 0.589886 0.702409
Si Si6 0.565195 0.318035 0.421963
Si Si7 0.236889 0.158835 0.210075
Si Si8 0.019738 0.589640 0.285954
O O1 0.100025 0.644358 0.500000
O O2 0.273353 0.691151 0.410932
O O3 0.017655 0.740845 0.409480
O O4 0.075602 0.610572 0.360858
O O5 0.761846 0.626124 0.853873
O O6 0.622894 0.627281 0.741455
O O7 0.752296 0.749921 0.782497
O O8 0.880613 0.632234 0.730800
O O9 0.824719 0.737030 0.927805
O O10 0.828452 0.858909 0.863132
O O11 0.063718 0.810608 0.915906
O O12 0.881109 0.853972 0.000000
O O13 0.268728 0.371715 0.000000
O O14 0.500000 0.500000 0.709034
O O15 0.494889 0.617128 0.625370
O O16 0.366109 0.625717 0.735549
O O17 0.546262 0.338313 0.500000
O O18 0.378015 0.120733 0.228640
O O19 0.000000 0.500000 0.280689
#
# Coordination Sequence:
#
# PCOD9428697 Si02
#       8
#     8   8   8   8   8   8   8   8
#     4  10  22  42  66  91 120 155 200 247 296 357
#     4  11  23  38  64  91 116 161 203 249 296 356
#     4   9  18  32  56  89 120 151 197 257 305 346
#     4   9  18  33  55  88 121 151 198 255 304 347
#     4  12  24  39  60  89 124 158 196 248 300 352
#     4  10  22  41  65  92 120 155 199 247 297 355
#     4  11  21  40  62  88 119 156 206 249 297 356
#     4  12  26  41  60  90 126 161 198 247 305 357
#
# _framework density 18.653822000000002
#
# number of rings (size 3 to 8) (size 9 to 14) (size 15 to 20)
#    0.000    1.500    2.500    3.000    7.000    0.500 
#    0.000    0.000    0.000    4.500    0.000    0.000 
#    0.000    0.000    0.000    0.000    0.000    0.000 
#
# Total GULP energy -356924.428783 kJ/mol
# GULP energy per Si atom -5576.944200 kJ/mol
# Density = 1.861137 g / cm^3
# Si number density = 18.653822 Si / 1000 Ang^3
#
#
#
# Elastic Constant Matrix: (Units=GPa)
#
#
# Indices 1 2 3 4 5 6 
#
# 1 28.4074 1.5849 9.6945 0.0000 0.0000 0.0000
# 2 1.5849 77.8722 35.2278 0.0000 0.0000 0.0000
# 3 9.6945 35.2278 96.5199 0.0000 0.0000 0.0000
# 4 0.0000 0.0000 0.0000 -0.5326 0.0000 0.0000
# 5 0.0000 0.0000 0.0000 0.0000 37.3514 0.0000
# 6 0.0000 0.0000 0.0000 0.0000 0.0000 39.9178
#
#
#
# Elastic Compliance Matrix: (Units=1/GPa)
#
#
# Indices 1 2 3 4 5 6 
#
# 1 0.036530 0.001098 -0.004070 0.000000 0.000000 0.000000
# 2 0.001098 0.015414 -0.005736 0.000000 0.000000 0.000000
# 3 -0.004070 -0.005736 0.012863 0.000000 0.000000 0.000000
# 4 0.000000 0.000000 0.000000 -1.877531 0.000000 0.000000
# 5 0.000000 0.000000 0.000000 0.000000 0.026773 0.000000
# 6 0.000000 0.000000 0.000000 0.000000 0.000000 0.025051
#
#
# Mechanical properties :
#
#
# Convention : Reuss Voigt Hill
#
# Bulk Modulus (GPa) = 21.10137 32.86822 26.98479
# Shear Modulus (GPa) = -2.89404 25.76680 11.43638
#
# Velocity S-wave (km/s) = -1.24692 3.72064 2.47874
# Velocity P-wave (km/s) = 3.04361 6.00965 4.76337
#
# Compressibility (1/GPa) = 0.04739029
#
# Stress axis : x y z
#
# Youngs Moduli (GPa) = 27.37503 64.87565 77.74316
#
# Poissons Ratio (x) = -0.07121 0.31639
# Poissons Ratio (y) = -0.03005 0.44594
# Poissons Ratio (z) = 0.11141 0.37213
#
# Static dielectric constant tensor:
#      x y z
#    x 1.597310 0.000000 0.000000 
#    y 0.000000 1.594790 0.000000 
#    z 0.000000 0.000000 1.696180 
# 
# From -- ./inp_files/22719.got.cif
#   From: 2010.05.17/outbox.cif.g08.bks.cpg/sg55_12_cif.got.tgz:22719.got - 2010.06.03 13:27:54.
