data_PCOD9428641
_publ_section_title
;
Structure prediction by ZEFSAII (Michael W. Deem and Ramdas Pophale) SiO2 
 PCOD9428641
Probable space group: P B A M
;
_chemical_formula_sum "Si O2"
_cell_formula_units_Z 58
_cell_length_a 29.228048
_cell_length_b 12.147432
_cell_length_c 8.897438
_cell_angle_alpha 90.000000
_cell_angle_beta 90.000000
_cell_angle_gamma 90.000000
_cell_volume 3158.997330
_symmetry_space_group_name_H-M "P B A M"
_symmetry_group_IT_number 55
_symmetry_cell_setting 'orthorhombic'
loop_
_space_group_symop_operation_xyz
x,y,z
-x,-y,z
1/2+x,1/2-y,-z
1/2-x,1/2+y,-z
-x,-y,-z
x,y,-z
1/2-x,1/2+y,z
1/2+x,1/2-y,z
loop_
_atom_site_type_symbol
_atom_site_label
_atom_site_fract_x
_atom_site_fract_y
_atom_site_fract_z
Si Si1 0.079437 0.694510 0.179421
Si Si2 0.180529 0.072065 0.821653
Si Si3 0.609612 0.233568 0.820399
Si Si4 0.500000 0.500000 0.500000
Si Si5 0.487331 0.727015 0.666323
Si Si6 0.158629 0.838471 0.321265
Si Si7 0.724957 0.861943 0.677778
Si Si8 0.635206 0.002726 0.679669
O O1 0.115094 0.787163 0.237010
O O2 0.098949 0.580461 0.245782
O O3 0.030028 0.723132 0.245399
O O4 0.078867 0.690658 0.000000
O O5 0.142622 0.163850 0.785297
O O6 0.229976 0.116412 0.772238
O O7 0.169762 0.959722 0.734738
O O8 0.179671 0.051575 0.000000
O O9 0.559538 0.256025 0.754556
O O10 0.629411 0.123316 0.746204
O O11 0.607781 0.220418 0.000000
O O12 0.495608 0.598309 0.628536
O O13 0.483664 0.780668 0.500000
O O14 0.149334 0.836912 0.500000
O O15 0.201121 0.755890 0.293543
O O16 0.735952 0.868301 0.500000
O O17 0.685400 0.951503 0.710132
O O18 0.629033 0.002291 0.500000
#
# Coordination Sequence:
#
# PCOD9428641 Si02
#       8
#     8   8   8   2   8   8   8   8
#     4  11  22  39  65  95 126 163 203 258 316 372
#     4  11  25  39  59  90 125 162 202 256 320 375
#     4  11  25  42  59  92 131 165 205 260 322 377
#     4   8  24  40  66  90 124 160 218 248 302 356
#     4  10  22  41  64  92 120 166 210 253 304 367
#     4  10  22  40  63  89 120 159 211 256 298 369
#     4   9  21  41  62  88 116 158 209 257 307 367
#     4  10  22  42  66  92 123 165 212 261 310 375
#
# _framework density 18.360254999999999
#
# number of rings (size 3 to 8) (size 9 to 14) (size 15 to 20)
#    0.414    1.379    0.000    4.138    3.862    6.069 
#    0.000    3.448    0.000    0.000    0.000    0.000 
#    0.000    0.000    0.000    0.000    0.000    0.000 
#
# Total GULP energy -323444.020468 kJ/mol
# GULP energy per Si atom -5576.621043 kJ/mol
# Density = 1.831847 g / cm^3
# Si number density = 18.360255 Si / 1000 Ang^3
#
#
#
# Elastic Constant Matrix: (Units=GPa)
#
#
# Indices 1 2 3 4 5 6 
#
# 1 76.4939 44.2677 47.4108 0.0000 0.0000 0.0000
# 2 44.2677 108.2050 58.7044 0.0000 0.0000 0.0000
# 3 47.4108 58.7044 92.2374 0.0000 0.0000 0.0000
# 4 0.0000 0.0000 0.0000 33.6819 0.0000 0.0000
# 5 0.0000 0.0000 0.0000 0.0000 31.3213 0.0000
# 6 0.0000 0.0000 0.0000 0.0000 0.0000 5.3396
#
#
#
# Elastic Compliance Matrix: (Units=1/GPa)
#
#
# Indices 1 2 3 4 5 6 
#
# 1 0.020275 -0.004034 -0.007855 0.000000 0.000000 0.000000
# 2 -0.004034 0.014918 -0.007421 0.000000 0.000000 0.000000
# 3 -0.007855 -0.007421 0.019602 0.000000 0.000000 0.000000
# 4 0.000000 0.000000 0.000000 0.029690 0.000000 0.000000
# 5 0.000000 0.000000 0.000000 0.000000 0.031927 0.000000
# 6 0.000000 0.000000 0.000000 0.000000 0.000000 0.187280
#
#
# Mechanical properties :
#
#
# Convention : Reuss Voigt Hill
#
# Bulk Modulus (GPa) = 61.81682 64.18912 63.00297
# Shear Modulus (GPa) = 14.38003 22.50545 18.44274
#
# Velocity S-wave (km/s) = 2.80163 3.50490 3.17281
# Velocity P-wave (km/s) = 6.64887 7.17049 6.91460
#
# Compressibility (1/GPa) = 0.01617683
#
# Stress axis : x y z
#
# Youngs Moduli (GPa) = 49.32073 67.03225 51.01453
#
# Poissons Ratio (x) = 0.27038 0.40070
# Poissons Ratio (y) = 0.19894 0.37860
# Poissons Ratio (z) = 0.38740 0.49747
#
# Static dielectric constant tensor:
#      x y z
#    x 1.608660 0.000000 0.000000 
#    y 0.000000 1.609470 0.000000 
#    z 0.000000 0.000000 1.614040 
# 
# From -- ./inp_files/10195.got.cif
#   From: 2010.05.17/outbox.cif.g08.bks.cpg/sg55_6_cif.got.tgz:10195.got - 2010.06.03 13:27:54.
