data_PCOD9428857
_publ_section_title
;
Structure prediction by ZEFSAII (Michael W. Deem and Ramdas Pophale) SiO2 
 PCOD9428857
Probable space group: P B A M
;
_chemical_formula_sum "Si O2"
_cell_formula_units_Z 40
_cell_length_a 10.467928
_cell_length_b 11.701407
_cell_length_c 14.524836
_cell_angle_alpha 90.000000
_cell_angle_beta 90.000000
_cell_angle_gamma 90.000000
_cell_volume 1779.139696
_symmetry_space_group_name_H-M "P B A M"
_symmetry_group_IT_number 55
_symmetry_cell_setting 'orthorhombic'
loop_
_space_group_symop_operation_xyz
x,y,z
-x,-y,z
1/2+x,1/2-y,-z
1/2-x,1/2+y,-z
-x,-y,-z
x,y,-z
1/2-x,1/2+y,z
1/2+x,1/2-y,z
loop_
_atom_site_type_symbol
_atom_site_label
_atom_site_fract_x
_atom_site_fract_y
_atom_site_fract_z
Si Si1 0.064614 0.363407 0.603011
Si Si2 0.673570 0.960426 0.712613
Si Si3 0.002664 0.865045 0.142617
Si Si4 0.550624 0.387166 0.348843
Si Si5 0.294550 0.168230 0.103511
O O1 0.095968 0.405749 0.500000
O O2 0.161013 0.407198 0.682703
O O3 0.054397 0.228958 0.598098
O O4 0.929845 0.404542 0.644360
O O5 0.808228 0.914862 0.683472
O O6 0.655755 0.919622 0.817442
O O7 0.117007 0.782835 0.108043
O O8 0.023613 0.868566 0.252737
O O9 0.859417 0.816551 0.120910
O O10 0.000000 0.000000 0.112918
O O11 0.500000 0.500000 0.396678
O O12 0.307310 0.121732 0.000000
#
# Coordination Sequence:
#
# PCOD9428857 Si02
#       5
#     8   8   8   8   8
#     4  11  24  44  69  97 132 178 223 282 348 405
#     4  10  23  43  66  95 139 173 220 277 347 401
#     4  10  23  45  70 100 144 187 233 294 358 418
#     4  10  23  42  70  98 129 178 222 278 341 409
#     4  11  23  42  71 102 139 187 239 289 348 426
#
# _framework density 22.482776999999999
#
# number of rings (size 3 to 8) (size 9 to 14) (size 15 to 20)
#    0.000    1.600    2.000    1.800    2.800    8.400 
#    0.000    2.000    0.000    0.000    0.000    0.000 
#    0.000    0.000    0.000    0.000    0.000    0.000 
#
# Total GULP energy -223036.612535 kJ/mol
# GULP energy per Si atom -5575.915313 kJ/mol
# Density = 2.243161 g / cm^3
# Si number density = 22.482777 Si / 1000 Ang^3
#
#
#
# Elastic Constant Matrix: (Units=GPa)
#
#
# Indices 1 2 3 4 5 6 
#
# 1 101.9014 38.7620 35.1045 0.0000 0.0000 0.0000
# 2 38.7620 142.1201 61.9875 0.0000 0.0000 0.0000
# 3 35.1045 61.9875 168.3629 0.0000 0.0000 0.0000
# 4 0.0000 0.0000 0.0000 15.6554 0.0000 0.0000
# 5 0.0000 0.0000 0.0000 0.0000 31.3425 0.0000
# 6 0.0000 0.0000 0.0000 0.0000 0.0000 36.5061
#
#
#
# Elastic Compliance Matrix: (Units=1/GPa)
#
#
# Indices 1 2 3 4 5 6 
#
# 1 0.011238 -0.002434 -0.001447 0.000000 0.000000 0.000000
# 2 -0.002434 0.008910 -0.002773 0.000000 0.000000 0.000000
# 3 -0.001447 -0.002773 0.007262 0.000000 0.000000 0.000000
# 4 0.000000 0.000000 0.000000 0.063876 0.000000 0.000000
# 5 0.000000 0.000000 0.000000 0.000000 0.031906 0.000000
# 6 0.000000 0.000000 0.000000 0.000000 0.000000 0.027393
#
#
# Mechanical properties :
#
#
# Convention : Reuss Voigt Hill
#
# Bulk Modulus (GPa) = 70.91198 76.01027 73.46113
# Shear Modulus (GPa) = 29.65749 35.13615 32.39682
#
# Velocity S-wave (km/s) = 3.63591 3.95752 3.80012
# Velocity P-wave (km/s) = 7.01680 7.40029 7.21109
#
# Compressibility (1/GPa) = 0.01410199
#
# Stress axis : x y z
#
# Youngs Moduli (GPa) = 88.98614 112.23960 137.70019
#
# Poissons Ratio (x) = 0.27317 0.19926
# Poissons Ratio (y) = 0.21658 0.38182
# Poissons Ratio (z) = 0.12877 0.31122
#
# Static dielectric constant tensor:
#      x y z
#    x 1.847640 0.000000 0.000000 
#    y 0.000000 1.994340 0.000000 
#    z 0.000000 0.000000 1.829530 
# 
# From -- ./inp_files/18139.got.cif
#   From: 2010.05.17/outbox.cif.g08.bks.cpg/sg55_10_cif.got.tgz:18139.got - 2010.06.03 13:27:54.
