data_PCOD9428773
_publ_section_title
;
Structure prediction by ZEFSAII (Michael W. Deem and Ramdas Pophale) SiO2 
 PCOD9428773
Probable space group: P B A M
;
_chemical_formula_sum "Si O2"
_cell_formula_units_Z 32
_cell_length_a 8.572836
_cell_length_b 10.157308
_cell_length_c 16.439299
_cell_angle_alpha 90.000000
_cell_angle_beta 90.000000
_cell_angle_gamma 90.000000
_cell_volume 1431.483782
_symmetry_space_group_name_H-M "P B A M"
_symmetry_group_IT_number 55
_symmetry_cell_setting 'orthorhombic'
loop_
_space_group_symop_operation_xyz
x,y,z
-x,-y,z
1/2+x,1/2-y,-z
1/2-x,1/2+y,-z
-x,-y,-z
x,y,-z
1/2-x,1/2+y,z
1/2+x,1/2-y,z
loop_
_atom_site_type_symbol
_atom_site_label
_atom_site_fract_x
_atom_site_fract_y
_atom_site_fract_z
Si Si1 0.172119 0.651483 0.307516
Si Si2 0.385174 0.376469 0.907228
Si Si3 0.896201 0.702338 0.193610
Si Si4 0.832653 0.073185 0.594787
O O1 0.307416 0.679786 0.240907
O O2 0.215102 0.527758 0.362288
O O3 0.164602 0.786257 0.360507
O O4 0.011218 0.641351 0.259286
O O5 0.500000 0.500000 0.903367
O O6 0.492077 0.256231 0.877099
O O7 0.239354 0.384879 0.846127
O O8 0.331589 0.359011 0.000000
O O9 0.794318 0.092242 0.500000
O O10 0.000000 0.000000 0.600212
#
# Coordination Sequence:
#
# PCOD9428773 Si02
#       4
#     8   8   8   8
#     4  11  23  43  69 103 137 187 237 288 350 420
#     4  10  22  43  69  99 138 179 228 286 349 415
#     4  10  23  39  68  98 136 179 227 287 341 418
#     4  11  24  45  69 101 143 184 234 291 354 421
#
# _framework density 22.354426
#
# number of rings (size 3 to 8) (size 9 to 14) (size 15 to 20)
#    0.000    1.500    2.500    1.500    7.000    1.000 
#    4.500    1.250    0.000    7.500    0.000    0.000 
#    0.000    0.000    0.000    0.000    0.000    0.000 
#
# Total GULP energy -179123.367623 kJ/mol
# GULP energy per Si atom -5597.605238 kJ/mol
# Density = 2.230355 g / cm^3
# Si number density = 22.354426 Si / 1000 Ang^3
#
#
#
# Elastic Constant Matrix: (Units=GPa)
#
#
# Indices 1 2 3 4 5 6 
#
# 1 134.9912 39.3663 73.3580 0.0000 0.0000 0.0000
# 2 39.3663 127.7518 74.5756 0.0000 0.0000 0.0000
# 3 73.3580 74.5756 166.2434 0.0000 0.0000 0.0000
# 4 0.0000 0.0000 0.0000 12.1777 0.0000 0.0000
# 5 0.0000 0.0000 0.0000 0.0000 46.1609 0.0000
# 6 0.0000 0.0000 0.0000 0.0000 0.0000 21.3151
#
#
#
# Elastic Compliance Matrix: (Units=1/GPa)
#
#
# Indices 1 2 3 4 5 6 
#
# 1 0.009787 -0.000670 -0.004018 0.000000 0.000000 0.000000
# 2 -0.000670 0.010651 -0.004482 0.000000 0.000000 0.000000
# 3 -0.004018 -0.004482 0.009799 0.000000 0.000000 0.000000
# 4 0.000000 0.000000 0.000000 0.082118 0.000000 0.000000
# 5 0.000000 0.000000 0.000000 0.000000 0.021663 0.000000
# 6 0.000000 0.000000 0.000000 0.000000 0.000000 0.046915
#
#
# Mechanical properties :
#
#
# Convention : Reuss Voigt Hill
#
# Bulk Modulus (GPa) = 84.06308 89.28735 86.67522
# Shear Modulus (GPa) = 24.60168 32.04315 28.32242
#
# Velocity S-wave (km/s) = 3.32102 3.79015 3.56332
# Velocity P-wave (km/s) = 7.23822 7.69299 7.46907
#
# Compressibility (1/GPa) = 0.01189583
#
# Stress axis : x y z
#
# Youngs Moduli (GPa) = 102.17822 93.89125 102.05272
#
# Poissons Ratio (x) = 0.06294 0.41004
# Poissons Ratio (y) = 0.06849 0.45740
# Poissons Ratio (z) = 0.41054 0.42082
#
# Static dielectric constant tensor:
#      x y z
#    x 1.825110 0.000000 0.000000 
#    y 0.000000 1.817080 0.000000 
#    z 0.000000 0.000000 1.799720 
# 
# From -- ./inp_files/16842.got.cif
#   From: 2010.05.17/outbox.cif.g08.bks.cpg/sg55_9_cif.got.tgz:16842.got - 2010.06.03 13:27:54.
