data_PCOD9428646
_publ_section_title
;
Structure prediction by ZEFSAII (Michael W. Deem and Ramdas Pophale) SiO2 
 PCOD9428646
Probable space group: P B A M
;
_chemical_formula_sum "Si O2"
_cell_formula_units_Z 64
_cell_length_a 13.131151
_cell_length_b 28.201392
_cell_length_c 7.878695
_cell_angle_alpha 90.000000
_cell_angle_beta 90.000000
_cell_angle_gamma 90.000000
_cell_volume 2917.612622
_symmetry_space_group_name_H-M "P B A M"
_symmetry_group_IT_number 55
_symmetry_cell_setting 'orthorhombic'
loop_
_space_group_symop_operation_xyz
x,y,z
-x,-y,z
1/2+x,1/2-y,-z
1/2-x,1/2+y,-z
-x,-y,-z
x,y,-z
1/2-x,1/2+y,z
1/2+x,1/2-y,z
loop_
_atom_site_type_symbol
_atom_site_label
_atom_site_fract_x
_atom_site_fract_y
_atom_site_fract_z
Si Si1 0.413197 0.463804 0.802571
Si Si2 0.236175 0.296098 0.194355
Si Si3 0.174535 0.697657 0.698247
Si Si4 0.587964 0.641600 0.304796
Si Si5 0.536271 0.153215 0.799894
Si Si6 0.133834 0.137440 0.707582
Si Si7 0.538316 0.948320 0.795080
Si Si8 0.728858 0.459140 0.702393
O O1 0.500000 0.500000 0.739011
O O2 0.411250 0.415159 0.702645
O O3 0.307796 0.492297 0.785489
O O4 0.433463 0.453366 0.000000
O O5 0.290165 0.251695 0.282929
O O6 0.318945 0.337767 0.201232
O O7 0.131382 0.316753 0.271245
O O8 0.216884 0.281440 0.000000
O O9 0.162385 0.686075 0.500000
O O10 0.269840 0.667423 0.766218
O O11 0.068528 0.682409 0.781279
O O12 0.598430 0.657335 0.500000
O O13 0.476207 0.655968 0.237844
O O14 0.518371 0.099528 0.732124
O O15 0.558603 0.147629 0.000000
O O16 0.132162 0.138304 0.500000
O O17 0.154819 0.083428 0.759836
O O18 0.656736 0.944923 0.747359
O O19 0.500000 0.000000 0.733891
O O20 0.530172 0.948293 0.000000
O O21 0.720402 0.463868 0.500000
#
# Coordination Sequence:
#
# PCOD9428646 Si02
#       8
#     8   8   8   8   8   8   8   8
#     4  11  23  38  58  89 127 169 210 255 310 372
#     4  11  26  45  64  94 131 169 212 261 321 385
#     4  11  23  43  69  95 123 162 213 269 322 378
#     4  11  23  42  65  93 128 170 213 260 321 380
#     4  10  23  44  66  93 131 170 210 262 321 386
#     4   9  20  38  62  92 126 157 201 262 318 372
#     4  10  22  40  63  91 126 169 211 259 319 381
#     4  11  21  38  61  90 124 164 210 260 315 375
#
# _framework density 21.935742999999999
#
# number of rings (size 3 to 8) (size 9 to 14) (size 15 to 20)
#    0.000    1.500    2.500    1.875    3.500    1.750 
#    0.000    1.875    0.000    0.000    0.000    0.000 
#    0.000    0.000    0.000    0.000    0.000    0.000 
#
# Total GULP energy -357646.543225 kJ/mol
# GULP energy per Si atom -5588.227238 kJ/mol
# Density = 2.188582 g / cm^3
# Si number density = 21.935743 Si / 1000 Ang^3
#
#
#
# Elastic Constant Matrix: (Units=GPa)
#
#
# Indices 1 2 3 4 5 6 
#
# 1 122.3084 44.4225 -3.4768 0.0000 0.0000 0.0000
# 2 44.4225 97.2888 -0.8940 0.0000 0.0000 0.0000
# 3 -3.4768 -0.8940 33.0033 0.0000 0.0000 0.0000
# 4 0.0000 0.0000 0.0000 10.7557 0.0000 0.0000
# 5 0.0000 0.0000 0.0000 0.0000 10.2870 0.0000
# 6 0.0000 0.0000 0.0000 0.0000 0.0000 29.6285
#
#
#
# Elastic Compliance Matrix: (Units=1/GPa)
#
#
# Indices 1 2 3 4 5 6 
#
# 1 0.009829 -0.004480 0.000914 0.000000 0.000000 0.000000
# 2 -0.004480 0.012323 -0.000138 0.000000 0.000000 0.000000
# 3 0.000914 -0.000138 0.030393 0.000000 0.000000 0.000000
# 4 0.000000 0.000000 0.000000 0.092974 0.000000 0.000000
# 5 0.000000 0.000000 0.000000 0.000000 0.097210 0.000000
# 6 0.000000 0.000000 0.000000 0.000000 0.000000 0.033751
#
#
# Mechanical properties :
#
#
# Convention : Reuss Voigt Hill
#
# Bulk Modulus (GPa) = 22.15463 36.96710 29.56086
# Shear Modulus (GPa) = 16.72620 24.30416 20.51518
#
# Velocity S-wave (km/s) = 2.76435 3.33223 3.06149
# Velocity P-wave (km/s) = 4.50672 5.62975 5.09925
#
# Compressibility (1/GPa) = 0.04513729
#
# Stress axis : x y z
#
# Youngs Moduli (GPa) = 101.73942 81.15037 32.90274
#
# Poissons Ratio (x) = 0.36352 -0.03008
# Poissons Ratio (y) = 0.45575 0.00454
# Poissons Ratio (z) = -0.09300 0.01121
#
# Static dielectric constant tensor:
#      x y z
#    x 1.803380 0.000000 0.000000 
#    y 0.000000 1.826830 0.000000 
#    z 0.000000 0.000000 1.781710 
# 
# From -- ./inp_files/4619.got.cif
#   From: 2010.05.17/outbox.cif.g08.bks.cpg/sg55_3_cif.got.tgz:4619.got - 2010.06.03 13:27:54.
