data_PCOD9428184
_publ_section_title
;
Structure prediction by ZEFSAII (Michael W. Deem and Ramdas Pophale) SiO2 
 PCOD9428184
Probable space group: P B A M
;
_chemical_formula_sum "Si O2"
_cell_formula_units_Z 64
_cell_length_a 20.097336
_cell_length_b 19.696461
_cell_length_c 8.925393
_cell_angle_alpha 90.000000
_cell_angle_beta 90.000000
_cell_angle_gamma 90.000000
_cell_volume 3533.084641
_symmetry_space_group_name_H-M "P B A M"
_symmetry_group_IT_number 55
_symmetry_cell_setting 'orthorhombic'
loop_
_space_group_symop_operation_xyz
x,y,z
-x,-y,z
1/2+x,1/2-y,-z
1/2-x,1/2+y,-z
-x,-y,-z
x,y,-z
1/2-x,1/2+y,z
1/2+x,1/2-y,z
loop_
_atom_site_type_symbol
_atom_site_label
_atom_site_fract_x
_atom_site_fract_y
_atom_site_fract_z
Si Si1 0.408693 0.175173 0.822200
Si Si2 0.984495 0.792719 0.179068
Si Si3 0.222658 0.752367 0.176535
Si Si4 0.140975 0.282514 0.678098
Si Si5 0.071582 0.532486 0.322796
Si Si6 0.828991 0.571912 0.179472
Si Si7 0.461472 0.430921 0.320847
Si Si8 0.321480 0.406908 0.822838
O O1 0.456210 0.239071 0.790851
O O2 0.332839 0.196572 0.790953
O O3 0.428829 0.110059 0.728538
O O4 0.414398 0.160444 0.000000
O O5 0.004300 0.865341 0.246168
O O6 0.918499 0.760750 0.250890
O O7 0.976969 0.798321 0.000000
O O8 0.288486 0.749804 0.275082
O O9 0.188183 0.825906 0.198367
O O10 0.241056 0.748997 0.000000
O O11 0.133865 0.286302 0.500000
O O12 0.143961 0.358646 0.746403
O O13 0.083616 0.526866 0.500000
O O14 0.127465 0.490571 0.234885
O O15 0.000000 0.500000 0.289330
O O16 0.750891 0.563493 0.219041
O O17 0.832505 0.579695 0.000000
O O18 0.500000 0.500000 0.279555
O O19 0.463735 0.423584 0.500000
O O20 0.384933 0.432710 0.266811
O O21 0.332729 0.418504 0.000000
#
# Coordination Sequence:
#
# PCOD9428184 Si02
#       8
#     8   8   8   8   8   8   8   8
#     4  10  21  38  62  87 114 150 198 246 291 348
#     4  11  22  40  64  89 116 155 200 244 290 347
#     4   9  18  37  60  85 114 148 193 240 285 348
#     4  11  22  36  58  91 124 155 192 241 297 351
#     4  11  24  39  56  85 123 159 197 244 300 357
#     4  10  21  39  62  87 118 160 206 246 289 349
#     4  11  24  40  59  87 121 154 191 242 302 360
#     4   9  18  37  63  87 112 149 198 243 285 347
#
# _framework density 18.114484000000001
#
# number of rings (size 3 to 8) (size 9 to 14) (size 15 to 20)
#    0.000    1.750    1.250    4.125    0.000    8.000 
#    2.250    0.000    0.000    0.000    0.000    0.000 
#    0.000    0.000    0.000    0.000    0.000    0.000 
#
# Total GULP energy -357547.389919 kJ/mol
# GULP energy per Si atom -5586.677967 kJ/mol
# Density = 1.807325 g / cm^3
# Si number density = 18.114484 Si / 1000 Ang^3
#
#
#
# Elastic Constant Matrix: (Units=GPa)
#
#
# Indices 1 2 3 4 5 6 
#
# 1 116.5275 65.0219 68.6838 0.0000 0.0000 0.0000
# 2 65.0219 100.3234 62.4289 0.0000 0.0000 0.0000
# 3 68.6838 62.4289 77.6153 0.0000 0.0000 0.0000
# 4 0.0000 0.0000 0.0000 28.1273 0.0000 0.0000
# 5 0.0000 0.0000 0.0000 0.0000 18.0631 0.0000
# 6 0.0000 0.0000 0.0000 0.0000 0.0000 24.1725
#
#
#
# Elastic Compliance Matrix: (Units=1/GPa)
#
#
# Indices 1 2 3 4 5 6 
#
# 1 0.018574 -0.003624 -0.013521 0.000000 0.000000 0.000000
# 2 -0.003624 0.020663 -0.013413 0.000000 0.000000 0.000000
# 3 -0.013521 -0.013413 0.035638 0.000000 0.000000 0.000000
# 4 0.000000 0.000000 0.000000 0.035553 0.000000 0.000000
# 5 0.000000 0.000000 0.000000 0.000000 0.055361 0.000000
# 6 0.000000 0.000000 0.000000 0.000000 0.000000 0.041369
#
#
# Mechanical properties :
#
#
# Convention : Reuss Voigt Hill
#
# Bulk Modulus (GPa) = 72.68554 76.30393 74.49474
# Shear Modulus (GPa) = 18.32426 20.62802 19.47614
#
# Velocity S-wave (km/s) = 3.18399 3.37821 3.28253
# Velocity P-wave (km/s) = 7.33006 7.57833 7.45523
#
# Compressibility (1/GPa) = 0.01375789
#
# Stress axis : x y z
#
# Youngs Moduli (GPa) = 53.83983 48.39483 28.05957
#
# Poissons Ratio (x) = 0.17538 0.37941
# Poissons Ratio (y) = 0.19511 0.37638
# Poissons Ratio (z) = 0.72799 0.64914
#
# Static dielectric constant tensor:
#      x y z
#    x 1.612930 0.000000 0.000000 
#    y 0.000000 1.594960 0.000000 
#    z 0.000000 0.000000 1.605660 
# 
# From -- ./inp_files/7930.got.cif
#   From: 2010.05.17/outbox.cif.g08.bks.cpg/sg55_4_cif.got.tgz:7930.got - 2010.06.03 13:27:54.
