data_PCOD9428092
_publ_section_title
;
Structure prediction by ZEFSAII (Michael W. Deem and Ramdas Pophale) SiO2 
 PCOD9428092
Probable space group: P B A M
;
_chemical_formula_sum "Si O2"
_cell_formula_units_Z 40
_cell_length_a 4.807570
_cell_length_b 10.568885
_cell_length_c 29.328119
_cell_angle_alpha 90.000000
_cell_angle_beta 90.000000
_cell_angle_gamma 90.000000
_cell_volume 1490.180920
_symmetry_space_group_name_H-M "P B A M"
_symmetry_group_IT_number 55
_symmetry_cell_setting 'orthorhombic'
loop_
_space_group_symop_operation_xyz
x,y,z
-x,-y,z
1/2+x,1/2-y,-z
1/2-x,1/2+y,-z
-x,-y,-z
x,y,-z
1/2-x,1/2+y,z
1/2+x,1/2-y,z
loop_
_atom_site_type_symbol
_atom_site_label
_atom_site_fract_x
_atom_site_fract_y
_atom_site_fract_z
Si Si1 0.705901 0.665648 0.692443
Si Si2 0.665995 0.159965 0.405103
Si Si3 0.846826 0.161674 0.000000
Si Si4 0.708453 0.165661 0.097091
Si Si5 0.500000 0.500000 0.172548
Si Si6 0.500000 0.000000 0.767703
Si Si7 0.685335 0.658192 0.500000
O O1 0.385081 0.704113 0.693211
O O2 0.822332 0.591137 0.735174
O O3 0.767844 0.600554 0.643728
O O4 0.854842 0.287800 0.405606
O O5 0.744338 0.092036 0.452212
O O6 0.772395 0.101049 0.048321
O O7 0.661618 0.290670 0.000000
O O8 0.387828 0.204147 0.097941
O O9 0.823291 0.091170 0.139919
O O10 0.249925 0.561747 0.202404
O O11 0.878815 0.784589 0.500000
#
# Coordination Sequence:
#
# PCOD9428092 Si02
#       7
#     8   8   4   8   4   4   4
#     4  10  21  38  58  78 105 143 183 226 276 325
#     4   8  14  25  44  70  97 129 167 207 261 320
#     4   8  16  33  58  85 112 146 180 213 264 321
#     4  10  21  39  61  86 118 148 180 225 269 322
#     4  12  26  39  58  86 110 147 190 224 280 326
#     4  12  26  40  56  82 110 142 192 236 270 322
#     4   8  12  20  38  67  98 123 158 206 252 315
#
# _framework density 26.842378
#
# number of rings (size 3 to 8) (size 9 to 14) (size 15 to 20)
#    0.000    2.400    0.000    2.400    0.000    5.200 
#    0.000    0.000    0.000    9.000    0.000    0.000 
#    0.000   25.600    0.000    0.000    0.000    3.400 
#
# Total GULP energy -223786.559446 kJ/mol
# GULP energy per Si atom -5594.663986 kJ/mol
# Density = 2.678128 g / cm^3
# Si number density = 26.842378 Si / 1000 Ang^3
#
#
#
# Elastic Constant Matrix: (Units=GPa)
#
#
# Indices 1 2 3 4 5 6 
#
# 1 115.6726 15.6496 30.0031 0.0000 0.0000 0.0000
# 2 15.6496 42.7360 23.0656 0.0000 0.0000 0.0000
# 3 30.0031 23.0656 189.2849 0.0000 0.0000 0.0000
# 4 0.0000 0.0000 0.0000 66.3261 0.0000 0.0000
# 5 0.0000 0.0000 0.0000 0.0000 70.0306 0.0000
# 6 0.0000 0.0000 0.0000 0.0000 0.0000 41.3284
#
#
#
# Elastic Compliance Matrix: (Units=1/GPa)
#
#
# Indices 1 2 3 4 5 6 
#
# 1 0.009318 -0.002799 -0.001136 0.000000 0.000000 0.000000
# 2 -0.002799 0.025888 -0.002711 0.000000 0.000000 0.000000
# 3 -0.001136 -0.002711 0.005793 0.000000 0.000000 0.000000
# 4 0.000000 0.000000 0.000000 0.015077 0.000000 0.000000
# 5 0.000000 0.000000 0.000000 0.000000 0.014279 0.000000
# 6 0.000000 0.000000 0.000000 0.000000 0.000000 0.024196
#
#
# Mechanical properties :
#
#
# Convention : Reuss Voigt Hill
#
# Bulk Modulus (GPa) = 36.09146 53.90335 44.99741
# Shear Modulus (GPa) = 42.70569 54.13535 48.42052
#
# Velocity S-wave (km/s) = 3.99304 4.49574 4.25182
# Velocity P-wave (km/s) = 5.89356 6.86104 6.39562
#
# Compressibility (1/GPa) = 0.02770739
#
# Stress axis : x y z
#
# Youngs Moduli (GPa) = 107.31404 38.62846 172.60913
#
# Poissons Ratio (x) = 0.10813 0.19607
# Poissons Ratio (y) = 0.30040 0.46792
# Poissons Ratio (z) = 0.12190 0.10472
#
# Static dielectric constant tensor:
#      x y z
#    x 1.976000 0.000000 0.000000 
#    y 0.000000 2.109630 0.000000 
#    z 0.000000 0.000000 2.182550 
# 
# From -- ./inp_files/23957.got.cif
#   From: 2010.05.17/outbox.cif.g08.bks.cpg/sg55_12_cif.got.tgz:23957.got - 2010.06.03 13:27:54.
