data_PCOD9428231
_publ_section_title
;
Structure prediction by ZEFSAII (Michael W. Deem and Ramdas Pophale) SiO2 
 PCOD9428231
Probable space group: P B A M
;
_chemical_formula_sum "Si O2"
_cell_formula_units_Z 58
_cell_length_a 12.328043
_cell_length_b 24.743148
_cell_length_c 9.593424
_cell_angle_alpha 90.000000
_cell_angle_beta 90.000000
_cell_angle_gamma 90.000000
_cell_volume 2926.326181
_symmetry_space_group_name_H-M "P B A M"
_symmetry_group_IT_number 55
_symmetry_cell_setting 'orthorhombic'
loop_
_space_group_symop_operation_xyz
x,y,z
-x,-y,z
1/2+x,1/2-y,-z
1/2-x,1/2+y,-z
-x,-y,-z
x,y,-z
1/2-x,1/2+y,z
1/2+x,1/2-y,z
loop_
_atom_site_type_symbol
_atom_site_label
_atom_site_fract_x
_atom_site_fract_y
_atom_site_fract_z
Si Si1 0.840548 0.515335 0.251926
Si Si2 0.522698 0.654881 0.661698
Si Si3 0.186184 0.180183 0.839354
Si Si4 0.419911 0.873350 0.654366
Si Si5 0.392597 0.466642 0.663315
Si Si6 0.113095 0.598335 0.835433
Si Si7 0.500000 0.000000 0.000000
Si Si8 0.761869 0.217512 0.335888
O O1 0.875394 0.565079 0.348685
O O2 0.710979 0.519544 0.243277
O O3 0.865419 0.451606 0.270307
O O4 0.916794 0.524743 0.120456
O O5 0.489432 0.662581 0.500000
O O6 0.420086 0.659132 0.760783
O O7 0.577727 0.596162 0.671757
O O8 0.616312 0.697961 0.695266
O O9 0.281594 0.135636 0.837982
O O10 0.226911 0.233028 0.758943
O O11 0.161452 0.192592 0.000000
O O12 0.463873 0.860104 0.500000
O O13 0.511514 0.869820 0.772716
O O14 0.320821 0.832705 0.683012
O O15 0.500000 0.500000 0.700160
O O16 0.365754 0.479238 0.500000
O O17 0.094198 0.577770 0.000000
O O18 0.757055 0.232057 0.500000
#
# Coordination Sequence:
#
# PCOD9428231 Si02
#       8
#     8   8   8   8   8   8   2   8
#     4  12  20  41  64  91 132 173 214 259 327 386
#     4  10  21  43  67  93 130 167 211 269 327 388
#     4  11  26  44  64  94 129 168 218 272 320 384
#     4  11  23  39  65  97 125 160 214 269 319 382
#     4  10  21  38  64  97 131 170 216 271 329 388
#     4  11  24  43  62  90 134 174 208 258 320 385
#     4  12  24  40  60  92 136 192 210 262 332 406
#     4  10  23  44  66  91 124 166 212 269 330 383
#
# _framework density 19.820074000000002
#
# number of rings (size 3 to 8) (size 9 to 14) (size 15 to 20)
#    0.000    1.241    3.448    1.655    1.931    3.862 
#    1.241    0.345    0.000    0.000    0.000    0.000 
#    0.000    0.000    0.000    0.000    0.000    0.000 
#
# Total GULP energy -323259.651019 kJ/mol
# GULP energy per Si atom -5573.442259 kJ/mol
# Density = 1.977496 g / cm^3
# Si number density = 19.820074 Si / 1000 Ang^3
#
#
#
# Elastic Constant Matrix: (Units=GPa)
#
#
# Indices 1 2 3 4 5 6 
#
# 1 136.8663 14.7815 53.3116 0.0000 0.0000 0.0000
# 2 14.7815 54.1639 18.0541 0.0000 0.0000 0.0000
# 3 53.3116 18.0541 52.2675 0.0000 0.0000 0.0000
# 4 0.0000 0.0000 0.0000 34.6473 0.0000 0.0000
# 5 0.0000 0.0000 0.0000 0.0000 16.5145 0.0000
# 6 0.0000 0.0000 0.0000 0.0000 0.0000 2.1411
#
#
#
# Elastic Compliance Matrix: (Units=1/GPa)
#
#
# Indices 1 2 3 4 5 6 
#
# 1 0.012163 0.000922 -0.012725 0.000000 0.000000 0.000000
# 2 0.000922 0.020935 -0.008172 0.000000 0.000000 0.000000
# 3 -0.012725 -0.008172 0.034934 0.000000 0.000000 0.000000
# 4 0.000000 0.000000 0.000000 0.028862 0.000000 0.000000
# 5 0.000000 0.000000 0.000000 0.000000 0.060553 0.000000
# 6 0.000000 0.000000 0.000000 0.000000 0.000000 0.467040
#
#
# Mechanical properties :
#
#
# Convention : Reuss Voigt Hill
#
# Bulk Modulus (GPa) = 35.60854 46.17689 40.89271
# Shear Modulus (GPa) = 7.42064 21.13731 14.27897
#
# Velocity S-wave (km/s) = 1.93704 3.26921 2.68699
# Velocity P-wave (km/s) = 4.79664 6.13180 5.50485
#
# Compressibility (1/GPa) = 0.02808315
#
# Stress axis : x y z
#
# Youngs Moduli (GPa) = 82.21432 47.76764 28.62542
#
# Poissons Ratio (x) = -0.04405 0.36425
# Poissons Ratio (y) = -0.07581 0.23392
# Poissons Ratio (z) = 1.04616 0.39034
#
# Static dielectric constant tensor:
#      x y z
#    x 1.647600 0.000000 0.000000 
#    y 0.000000 1.669830 0.000000 
#    z 0.000000 0.000000 1.700040 
# 
# From -- ./inp_files/4356.got.cif
#   From: 2010.05.17/outbox.cif.g08.bks.cpg/sg55_3_cif.got.tgz:4356.got - 2010.06.03 13:27:54.
