data_PCOD9428259
_publ_section_title
;
Structure prediction by ZEFSAII (Michael W. Deem and Ramdas Pophale) SiO2 
 PCOD9428259
Probable space group: P B A M
;
_chemical_formula_sum "Si O2"
_cell_formula_units_Z 36
_cell_length_a 14.524538
_cell_length_b 4.721549
_cell_length_c 21.818530
_cell_angle_alpha 90.000000
_cell_angle_beta 90.000000
_cell_angle_gamma 90.000000
_cell_volume 1496.278086
_symmetry_space_group_name_H-M "P B A M"
_symmetry_group_IT_number 55
_symmetry_cell_setting 'orthorhombic'
loop_
_space_group_symop_operation_xyz
x,y,z
-x,-y,z
1/2+x,1/2-y,-z
1/2-x,1/2+y,-z
-x,-y,-z
x,y,-z
1/2-x,1/2+y,z
1/2+x,1/2-y,z
loop_
_atom_site_type_symbol
_atom_site_label
_atom_site_fract_x
_atom_site_fract_y
_atom_site_fract_z
Si Si1 0.934998 0.750361 0.889723
Si Si2 0.312908 0.039602 0.570491
Si Si3 0.686980 0.019706 0.000000
Si Si4 0.062837 0.257407 0.671989
Si Si5 0.812392 0.978518 0.779510
O O1 0.871002 0.608698 0.940921
O O2 0.872768 0.891746 0.837598
O O3 0.000000 0.500000 0.864809
O O4 0.000000 0.000000 0.915517
O O5 0.342290 0.997515 0.500000
O O6 0.218231 0.861710 0.579202
O O7 0.385228 0.923760 0.618362
O O8 0.782687 0.194718 0.000000
O O9 0.133340 0.116258 0.719290
O O10 0.000000 0.500000 0.703290
O O11 0.000000 0.000000 0.648568
O O12 0.716618 0.804414 0.780520
#
# Coordination Sequence:
#
# PCOD9428259 Si02
#       5
#     8   8   4   8   8
#     4  12  24  42  64  92 124 157 198 249 301 345
#     4  10  21  39  61  85 116 156 198 240 291 353
#     4  12  24  42  64  92 124 162 204 240 290 356
#     4  12  24  39  60  89 121 154 195 246 298 349
#     4  12  24  42  64  88 119 159 201 243 294 356
#
# _framework density 24.059701
#
# number of rings (size 3 to 8) (size 9 to 14) (size 15 to 20)
#    0.000    0.444    0.000   10.000    0.000    0.889 
#    0.000    0.000    0.000    0.000    0.000    0.000 
#    0.000    0.000    0.000    0.000    0.000    0.000 
#
# Total GULP energy -201978.272589 kJ/mol
# GULP energy per Si atom -5610.507572 kJ/mol
# Density = 2.400494 g / cm^3
# Si number density = 24.059701 Si / 1000 Ang^3
#
#
#
# Elastic Constant Matrix: (Units=GPa)
#
#
# Indices 1 2 3 4 5 6 
#
# 1 74.8144 -2.0391 26.9282 0.0000 0.0000 0.0000
# 2 -2.0391 73.0269 -19.7920 0.0000 0.0000 0.0000
# 3 26.9282 -19.7920 88.0155 0.0000 0.0000 0.0000
# 4 0.0000 0.0000 0.0000 31.5486 0.0000 0.0000
# 5 0.0000 0.0000 0.0000 0.0000 31.5513 0.0000
# 6 0.0000 0.0000 0.0000 0.0000 0.0000 21.1596
#
#
#
# Elastic Compliance Matrix: (Units=1/GPa)
#
#
# Indices 1 2 3 4 5 6 
#
# 1 0.015074 -0.000883 -0.004810 0.000000 0.000000 0.000000
# 2 -0.000883 0.014634 0.003561 0.000000 0.000000 0.000000
# 3 -0.004810 0.003561 0.013634 0.000000 0.000000 0.000000
# 4 0.000000 0.000000 0.000000 0.031697 0.000000 0.000000
# 5 0.000000 0.000000 0.000000 0.000000 0.031694 0.000000
# 6 0.000000 0.000000 0.000000 0.000000 0.000000 0.047260
#
#
# Mechanical properties :
#
#
# Convention : Reuss Voigt Hill
#
# Bulk Modulus (GPa) = 25.59035 27.33901 26.46468
# Shear Modulus (GPa) = 29.19138 32.23588 30.71363
#
# Velocity S-wave (km/s) = 3.48701 3.66434 3.57677
# Velocity P-wave (km/s) = 5.18378 5.41210 5.29917
#
# Compressibility (1/GPa) = 0.03907724
#
# Stress axis : x y z
#
# Youngs Moduli (GPa) = 66.34051 68.33398 73.34564
#
# Poissons Ratio (x) = 0.06033 0.35282
# Poissons Ratio (y) = 0.05857 -0.26117
# Poissons Ratio (z) = 0.31912 -0.24333
#
# Static dielectric constant tensor:
#      x y z
#    x 1.928590 0.000000 0.000000 
#    y 0.000000 1.859870 0.000000 
#    z 0.000000 0.000000 1.859620 
# 
# From -- ./inp_files/23522.got.cif
#   From: 2010.05.17/outbox.cif.g08.bks.cpg/sg55_12_cif.got.tgz:23522.got - 2010.06.03 13:27:54.
