data_PCOD9428436
_publ_section_title
;
Structure prediction by ZEFSAII (Michael W. Deem and Ramdas Pophale) SiO2 
 PCOD9428436
Probable space group: P B A M
;
_chemical_formula_sum "Si O2"
_cell_formula_units_Z 64
_cell_length_a 23.440394
_cell_length_b 9.664620
_cell_length_c 14.466065
_cell_angle_alpha 90.000000
_cell_angle_beta 90.000000
_cell_angle_gamma 90.000000
_cell_volume 3277.178540
_symmetry_space_group_name_H-M "P B A M"
_symmetry_group_IT_number 55
_symmetry_cell_setting 'orthorhombic'
loop_
_space_group_symop_operation_xyz
x,y,z
-x,-y,z
1/2+x,1/2-y,-z
1/2-x,1/2+y,-z
-x,-y,-z
x,y,-z
1/2-x,1/2+y,z
1/2+x,1/2-y,z
loop_
_atom_site_type_symbol
_atom_site_label
_atom_site_fract_x
_atom_site_fract_y
_atom_site_fract_z
Si Si1 0.945708 0.588713 0.896362
Si Si2 0.653996 0.747763 0.610811
Si Si3 0.789002 0.434659 0.753880
Si Si4 0.658365 0.477524 0.738636
Si Si5 0.127373 0.318949 0.260600
Si Si6 0.434148 0.029828 0.392621
Si Si7 0.628808 0.818772 0.100416
Si Si8 0.435922 0.450758 0.108821
O O1 0.917178 0.693694 0.825141
O O2 0.897777 0.470511 0.903849
O O3 0.000000 0.500000 0.862545
O O4 0.958277 0.643086 0.000000
O O5 0.661264 0.731952 0.500000
O O6 0.698104 0.860156 0.655072
O O7 0.657357 0.603590 0.665939
O O8 0.592228 0.820083 0.630607
O O9 0.722794 0.454172 0.772996
O O10 0.817217 0.587457 0.763016
O O11 0.822478 0.330843 0.823172
O O12 0.641214 0.328960 0.697797
O O13 0.614157 0.499783 0.822801
O O14 0.097353 0.417618 0.332855
O O15 0.421405 0.009873 0.500000
O O16 0.500000 0.000000 0.377817
O O17 0.575882 0.714745 0.116307
O O18 0.653165 0.780792 0.000000
O O19 0.500000 0.500000 0.133949
O O20 0.427662 0.488188 0.000000
#
# Coordination Sequence:
#
# PCOD9428436 Si02
#       8
#     8   8   8   8   8   8   8   8
#     4   9  18  32  54  82 113 149 197 246 288 349
#     4  10  22  41  64  91 125 165 210 263 325 389
#     4  10  21  42  62  85 121 161 209 255 313 385
#     4  12  24  38  62  93 126 162 205 267 322 379
#     4  10  22  34  56  87 116 152 196 251 306 365
#     4   9  19  39  65  87 115 157 201 247 305 377
#     4   9  18  36  61  85 115 162 208 253 303 370
#     4  10  23  40  60  89 128 171 211 257 324 389
#
# _framework density 19.528994999999998
#
# number of rings (size 3 to 8) (size 9 to 14) (size 15 to 20)
#    0.000    2.125    1.250    1.125    1.750    3.000 
#    0.000    2.500    0.000    2.625    0.000    0.000 
#    0.000    0.000    0.000    0.000    0.000    0.000 
#
# Total GULP energy -356530.899498 kJ/mol
# GULP energy per Si atom -5570.795305 kJ/mol
# Density = 1.948455 g / cm^3
# Si number density = 19.528995 Si / 1000 Ang^3
#
#
#
# Elastic Constant Matrix: (Units=GPa)
#
#
# Indices 1 2 3 4 5 6 
#
# 1 130.0888 28.0308 39.8597 0.0000 0.0000 0.0000
# 2 28.0308 90.1489 23.6428 0.0000 0.0000 0.0000
# 3 39.8597 23.6428 84.3160 0.0000 0.0000 0.0000
# 4 0.0000 0.0000 0.0000 210.4954 0.0000 0.0000
# 5 0.0000 0.0000 0.0000 0.0000 15.1907 0.0000
# 6 0.0000 0.0000 0.0000 0.0000 0.0000 20.3457
#
#
#
# Elastic Compliance Matrix: (Units=1/GPa)
#
#
# Indices 1 2 3 4 5 6 
#
# 1 0.009273 -0.001871 -0.003859 0.000000 0.000000 0.000000
# 2 -0.001871 0.012351 -0.002579 0.000000 0.000000 0.000000
# 3 -0.003859 -0.002579 0.014407 0.000000 0.000000 0.000000
# 4 0.000000 0.000000 0.000000 0.004751 0.000000 0.000000
# 5 0.000000 0.000000 0.000000 0.000000 0.065830 0.000000
# 6 0.000000 0.000000 0.000000 0.000000 0.000000 0.049150
#
#
# Mechanical properties :
#
#
# Convention : Reuss Voigt Hill
#
# Bulk Modulus (GPa) = 51.51054 54.18005 52.84530
# Shear Modulus (GPa) = 27.95631 63.40773 45.68202
#
# Velocity S-wave (km/s) = 3.78766 5.70430 4.84176
# Velocity P-wave (km/s) = 6.74998 8.43735 7.64039
#
# Compressibility (1/GPa) = 0.01941350
#
# Stress axis : x y z
#
# Youngs Moduli (GPa) = 107.84447 80.96592 69.40845
#
# Poissons Ratio (x) = 0.15150 0.26784
# Poissons Ratio (y) = 0.20180 0.17898
# Poissons Ratio (z) = 0.41616 0.20879
#
# Static dielectric constant tensor:
#      x y z
#    x 1.928670 0.000000 0.000000 
#    y 0.000000 1.734830 0.000000 
#    z 0.000000 0.000000 1.733840 
# 
# From -- ./inp_files/19981.got.cif
#   From: 2010.05.17/outbox.cif.g08.bks.cpg/sg55_10_cif.got.tgz:19981.got - 2010.06.03 13:27:54.
