data_PCOD9428604
_publ_section_title
;
Structure prediction by ZEFSAII (Michael W. Deem and Ramdas Pophale) SiO2 
 PCOD9428604
Probable space group: P B A M
;
_chemical_formula_sum "Si O2"
_cell_formula_units_Z 48
_cell_length_a 20.755007
_cell_length_b 15.110409
_cell_length_c 7.799596
_cell_angle_alpha 90.000000
_cell_angle_beta 90.000000
_cell_angle_gamma 90.000000
_cell_volume 2446.083127
_symmetry_space_group_name_H-M "P B A M"
_symmetry_group_IT_number 55
_symmetry_cell_setting 'orthorhombic'
loop_
_space_group_symop_operation_xyz
x,y,z
-x,-y,z
1/2+x,1/2-y,-z
1/2-x,1/2+y,-z
-x,-y,-z
x,y,-z
1/2-x,1/2+y,z
1/2+x,1/2-y,z
loop_
_atom_site_type_symbol
_atom_site_label
_atom_site_fract_x
_atom_site_fract_y
_atom_site_fract_z
Si Si1 0.397915 0.455707 0.000000
Si Si2 0.240411 0.213166 0.706004
Si Si3 0.068823 0.465218 0.705961
Si Si4 0.691906 0.606467 0.305660
Si Si5 0.407924 0.758536 0.293960
Si Si6 0.705720 0.975302 0.193152
Si Si7 0.966517 0.857344 0.000000
O O1 0.356944 0.434380 0.830368
O O2 0.419586 0.557583 0.000000
O O3 0.461546 0.395288 0.000000
O O4 0.243413 0.204856 0.500000
O O5 0.284685 0.296694 0.752356
O O6 0.166235 0.234270 0.748269
O O7 0.265901 0.122202 0.782741
O O8 0.068964 0.473463 0.500000
O O9 0.079839 0.361814 0.744743
O O10 0.129962 0.519765 0.771690
O O11 0.000000 0.500000 0.770091
O O12 0.665970 0.611223 0.500000
O O13 0.755135 0.544281 0.308336
O O14 0.417747 0.744780 0.500000
O O15 0.451923 0.699688 0.170132
O O16 0.717560 0.005380 0.000000
#
# Coordination Sequence:
#
# PCOD9428604 Si02
#       7
#     4   8   8   8   8   8   4
#     4  11  26  45  62  98 127 165 219 271 332 377
#     4  10  22  39  65  94 126 170 217 264 323 387
#     4  10  22  42  65  91 131 174 220 270 325 396
#     4  11  23  43  68  93 129 169 213 274 327 381
#     4  10  22  42  67  94 126 175 220 262 326 393
#     4  12  24  37  63  99 132 166 214 272 330 389
#     4  11  26  43  65  90 132 169 214 273 316 397
#
# _framework density 19.623208000000002
#
# number of rings (size 3 to 8) (size 9 to 14) (size 15 to 20)
#    0.000    1.333    2.500    2.500    3.500    4.333 
#    0.000    5.000    0.000    0.000    0.000    0.000 
#    0.000    0.000    0.000    0.000    0.000    0.000 
#
# Total GULP energy -268329.589314 kJ/mol
# GULP energy per Si atom -5590.199777 kJ/mol
# Density = 1.957854 g / cm^3
# Si number density = 19.623208 Si / 1000 Ang^3
#
#
#
# Elastic Constant Matrix: (Units=GPa)
#
#
# Indices 1 2 3 4 5 6 
#
# 1 93.1952 40.3838 34.0145 0.0000 0.0000 0.0000
# 2 40.3838 95.5034 29.2663 0.0000 0.0000 0.0000
# 3 34.0145 29.2663 60.4748 0.0000 0.0000 0.0000
# 4 0.0000 0.0000 0.0000 28.3170 0.0000 0.0000
# 5 0.0000 0.0000 0.0000 0.0000 18.2930 0.0000
# 6 0.0000 0.0000 0.0000 0.0000 0.0000 25.5027
#
#
#
# Elastic Compliance Matrix: (Units=1/GPa)
#
#
# Indices 1 2 3 4 5 6 
#
# 1 0.014919 -0.004388 -0.006268 0.000000 0.000000 0.000000
# 2 -0.004388 0.013585 -0.004106 0.000000 0.000000 0.000000
# 3 -0.006268 -0.004106 0.022048 0.000000 0.000000 0.000000
# 4 0.000000 0.000000 0.000000 0.035315 0.000000 0.000000
# 5 0.000000 0.000000 0.000000 0.000000 0.054666 0.000000
# 6 0.000000 0.000000 0.000000 0.000000 0.000000 0.039211
#
#
# Mechanical properties :
#
#
# Convention : Reuss Voigt Hill
#
# Bulk Modulus (GPa) = 47.55505 50.72249 49.13877
# Shear Modulus (GPa) = 23.11847 24.12313 23.62080
#
# Velocity S-wave (km/s) = 3.43610 3.50996 3.47323
# Velocity P-wave (km/s) = 6.32685 6.50621 6.41716
#
# Compressibility (1/GPa) = 0.02102826
#
# Stress axis : x y z
#
# Youngs Moduli (GPa) = 67.02765 73.61308 45.35469
#
# Poissons Ratio (x) = 0.32300 0.28428
# Poissons Ratio (y) = 0.29411 0.18623
# Poissons Ratio (z) = 0.42013 0.30227
#
# Static dielectric constant tensor:
#      x y z
#    x 1.671670 0.000000 0.000000 
#    y 0.000000 1.661100 0.000000 
#    z 0.000000 0.000000 1.675750 
# 
# From -- ./inp_files/7453.got.cif
#   From: 2010.05.17/outbox.cif.g08.bks.cpg/sg55_4_cif.got.tgz:7453.got - 2010.06.03 13:27:54.
