data_PCOD9428219
_publ_section_title
;
Structure prediction by ZEFSAII (Michael W. Deem and Ramdas Pophale) SiO2 
 PCOD9428219
Probable space group: P B A M
;
_chemical_formula_sum "Si O2"
_cell_formula_units_Z 64
_cell_length_a 23.974361
_cell_length_b 13.667183
_cell_length_c 9.505975
_cell_angle_alpha 90.000000
_cell_angle_beta 90.000000
_cell_angle_gamma 90.000000
_cell_volume 3114.746582
_symmetry_space_group_name_H-M "P B A M"
_symmetry_group_IT_number 55
_symmetry_cell_setting 'orthorhombic'
loop_
_space_group_symop_operation_xyz
x,y,z
-x,-y,z
1/2+x,1/2-y,-z
1/2-x,1/2+y,-z
-x,-y,-z
x,y,-z
1/2-x,1/2+y,z
1/2+x,1/2-y,z
loop_
_atom_site_type_symbol
_atom_site_label
_atom_site_fract_x
_atom_site_fract_y
_atom_site_fract_z
Si Si1 0.171590 0.640257 0.837213
Si Si2 0.551853 0.771069 0.167339
Si Si3 0.627440 0.381732 0.335916
Si Si4 0.759374 0.159389 0.841408
Si Si5 0.465910 0.899435 0.333717
Si Si6 0.436980 0.459505 0.161038
Si Si7 0.873607 0.686138 0.164541
Si Si8 0.255753 0.521770 0.661562
O O1 0.108422 0.668879 0.803047
O O2 0.207698 0.739813 0.824264
O O3 0.202024 0.561095 0.742620
O O4 0.173861 0.608262 0.000000
O O5 0.503498 0.814822 0.263327
O O6 0.562319 0.656035 0.192433
O O7 0.538949 0.781568 0.000000
O O8 0.612613 0.367995 0.500000
O O9 0.597854 0.476129 0.269535
O O10 0.612809 0.288193 0.241911
O O11 0.693822 0.400925 0.328176
O O12 0.692995 0.173812 0.827309
O O13 0.776735 0.077876 0.731428
O O14 0.770861 0.123648 0.000000
O O15 0.456913 0.883893 0.500000
O O16 0.408116 0.896003 0.247960
O O17 0.500000 0.000000 0.315325
O O18 0.500000 0.500000 0.163913
O O19 0.415717 0.472092 0.000000
O O20 0.889168 0.688069 0.000000
O O21 0.242303 0.505391 0.500000
#
# Coordination Sequence:
#
# PCOD9428219 Si02
#       8
#     8   8   8   8   8   8   8   8
#     4  10  21  40  63  90 124 162 207 255 304 364
#     4  10  22  40  64  93 124 161 210 262 307 363
#     4  11  23  39  61  93 129 165 203 249 310 377
#     4  10  22  40  64  93 123 162 208 256 311 366
#     4  11  26  45  64  90 127 168 209 258 316 374
#     4  10  21  38  63  93 123 158 202 254 310 366
#     4  11  23  41  67  93 121 162 212 264 311 363
#     4  11  24  38  58  89 125 163 202 250 309 374
#
# _framework density 20.547419000000001
#
# number of rings (size 3 to 8) (size 9 to 14) (size 15 to 20)
#    0.000    1.500    1.250    3.000    1.750    7.250 
#    0.000    0.000    0.000    0.000    0.000    0.000 
#    0.000    0.000    0.000    0.000    0.000    0.000 
#
# Total GULP energy -357956.998448 kJ/mol
# GULP energy per Si atom -5593.078101 kJ/mol
# Density = 2.050065 g / cm^3
# Si number density = 20.547419 Si / 1000 Ang^3
#
#
#
# Elastic Constant Matrix: (Units=GPa)
#
#
# Indices 1 2 3 4 5 6 
#
# 1 68.5164 -5.4900 31.1893 0.0000 0.0000 0.0000
# 2 -5.4900 42.8646 34.9531 0.0000 0.0000 0.0000
# 3 31.1893 34.9531 102.2572 0.0000 0.0000 0.0000
# 4 0.0000 0.0000 0.0000 10.5567 0.0000 0.0000
# 5 0.0000 0.0000 0.0000 0.0000 24.3157 0.0000
# 6 0.0000 0.0000 0.0000 0.0000 0.0000 30.8925
#
#
#
# Elastic Compliance Matrix: (Units=1/GPa)
#
#
# Indices 1 2 3 4 5 6 
#
# 1 0.019776 0.010331 -0.009563 0.000000 0.000000 0.000000
# 2 0.010331 0.037741 -0.016052 0.000000 0.000000 0.000000
# 3 -0.009563 -0.016052 0.018183 0.000000 0.000000 0.000000
# 4 0.000000 0.000000 0.000000 0.094727 0.000000 0.000000
# 5 0.000000 0.000000 0.000000 0.000000 0.041126 0.000000
# 6 0.000000 0.000000 0.000000 0.000000 0.000000 0.032370
#
#
# Mechanical properties :
#
#
# Convention : Reuss Voigt Hill
#
# Bulk Modulus (GPa) = 22.15692 37.21590 29.68641
# Shear Modulus (GPa) = 17.26906 23.35202 20.31054
#
# Velocity S-wave (km/s) = 2.90220 3.37485 3.14741
# Velocity P-wave (km/s) = 4.69436 5.77388 5.26188
#
# Compressibility (1/GPa) = 0.04513263
#
# Stress axis : x y z
#
# Youngs Moduli (GPa) = 50.56619 26.49604 54.99695
#
# Poissons Ratio (x) = -0.27373 0.52594
# Poissons Ratio (y) = -0.52240 0.88279
# Poissons Ratio (z) = 0.48357 0.42531
#
# Static dielectric constant tensor:
#      x y z
#    x 1.742980 0.000000 0.000000 
#    y 0.000000 1.720810 0.000000 
#    z 0.000000 0.000000 1.691780 
# 
# From -- ./inp_files/9773.got.cif
#   From: 2010.05.17/outbox.cif.g08.bks.cpg/sg55_5_cif.got.tgz:9773.got - 2010.06.03 13:27:54.
