data_PCOD9428355
_publ_section_title
;
Structure prediction by ZEFSAII (Michael W. Deem and Ramdas Pophale) SiO2 
 PCOD9428355
Probable space group: P B A M
;
_chemical_formula_sum "Si O2"
_cell_formula_units_Z 32
_cell_length_a 12.962798
_cell_length_b 9.141365
_cell_length_c 13.053499
_cell_angle_alpha 90.000000
_cell_angle_beta 90.000000
_cell_angle_gamma 90.000000
_cell_volume 1546.809190
_symmetry_space_group_name_H-M "P B A M"
_symmetry_group_IT_number 55
_symmetry_cell_setting 'orthorhombic'
loop_
_space_group_symop_operation_xyz
x,y,z
-x,-y,z
1/2+x,1/2-y,-z
1/2-x,1/2+y,-z
-x,-y,-z
x,y,-z
1/2-x,1/2+y,z
1/2+x,1/2-y,z
loop_
_atom_site_type_symbol
_atom_site_label
_atom_site_fract_x
_atom_site_fract_y
_atom_site_fract_z
Si Si1 0.669531 0.937972 0.732181
Si Si2 0.494082 0.297007 0.773843
Si Si3 0.348777 0.533374 0.119337
Si Si4 0.343609 0.749818 0.378482
O O1 0.565146 0.853831 0.758900
O O2 0.734919 0.957238 0.836122
O O3 0.742842 0.836026 0.661172
O O4 0.656377 0.090425 0.673737
O O5 0.586944 0.318232 0.855719
O O6 0.408199 0.410817 0.813647
O O7 0.554307 0.327817 0.667800
O O8 0.353769 0.499659 0.000000
O O9 0.345436 0.759006 0.500000
#
# Coordination Sequence:
#
# PCOD9428355 Si02
#       4
#     8   8   8   8
#     4  11  22  43  64  97 131 163 219 265 310 389
#     4  10  21  40  63  91 129 162 211 265 309 384
#     4  10  22  42  66  94 132 171 208 264 329 375
#     4  11  24  41  66  95 130 173 211 265 324 374
#
# _framework density 20.687750000000001
#
# number of rings (size 3 to 8) (size 9 to 14) (size 15 to 20)
#    0.000    1.500    2.500    3.000    0.000    5.000 
#    0.000    5.000    0.000    9.000    0.000    0.000 
#    0.000    0.000    0.000    0.000    0.000    0.000 
#
# Total GULP energy -178609.102334 kJ/mol
# GULP energy per Si atom -5581.534448 kJ/mol
# Density = 2.064066 g / cm^3
# Si number density = 20.687750 Si / 1000 Ang^3
#
#
#
# Elastic Constant Matrix: (Units=GPa)
#
#
# Indices 1 2 3 4 5 6 
#
# 1 83.8033 37.7212 52.4845 0.0000 0.0000 0.0000
# 2 37.7212 110.5369 76.4695 0.0000 0.0000 0.0000
# 3 52.4845 76.4695 134.3880 0.0000 0.0000 0.0000
# 4 0.0000 0.0000 0.0000 19.0939 0.0000 0.0000
# 5 0.0000 0.0000 0.0000 0.0000 9.2805 0.0000
# 6 0.0000 0.0000 0.0000 0.0000 0.0000 40.4605
#
#
#
# Elastic Compliance Matrix: (Units=1/GPa)
#
#
# Indices 1 2 3 4 5 6 
#
# 1 0.016030 -0.001879 -0.005191 0.000000 0.000000 0.000000
# 2 -0.001879 0.015140 -0.007881 0.000000 0.000000 0.000000
# 3 -0.005191 -0.007881 0.013953 0.000000 0.000000 0.000000
# 4 0.000000 0.000000 0.000000 0.052373 0.000000 0.000000
# 5 0.000000 0.000000 0.000000 0.000000 0.107753 0.000000
# 6 0.000000 0.000000 0.000000 0.000000 0.000000 0.024715
#
#
# Mechanical properties :
#
#
# Convention : Reuss Voigt Hill
#
# Bulk Modulus (GPa) = 65.70205 73.56429 69.63317
# Shear Modulus (GPa) = 18.87220 24.57052 21.72136
#
# Velocity S-wave (km/s) = 3.02361 3.45002 3.24383
# Velocity P-wave (km/s) = 6.63457 7.17682 6.91101
#
# Compressibility (1/GPa) = 0.01522023
#
# Stress axis : x y z
#
# Youngs Moduli (GPa) = 62.38484 66.04923 71.66863
#
# Poissons Ratio (x) = 0.12410 0.37204
# Poissons Ratio (y) = 0.11722 0.56484
# Poissons Ratio (z) = 0.32385 0.52055
#
# Static dielectric constant tensor:
#      x y z
#    x 1.747500 0.000000 0.000000 
#    y 0.000000 1.813050 0.000000 
#    z 0.000000 0.000000 1.687210 
# 
# From -- ./inp_files/11607.got.cif
#   From: 2010.05.17/outbox.cif.g08.bks.cpg/sg55_6_cif.got.tgz:11607.got - 2010.06.03 13:27:54.
