data_PCOD9428429
_publ_section_title
;
Structure prediction by ZEFSAII (Michael W. Deem and Ramdas Pophale) SiO2 
 PCOD9428429
Probable space group: P B A M
;
_chemical_formula_sum "Si O2"
_cell_formula_units_Z 48
_cell_length_a 12.409696
_cell_length_b 7.568192
_cell_length_c 17.501297
_cell_angle_alpha 90.000000
_cell_angle_beta 90.000000
_cell_angle_gamma 90.000000
_cell_volume 1643.703648
_symmetry_space_group_name_H-M "P B A M"
_symmetry_group_IT_number 55
_symmetry_cell_setting 'orthorhombic'
loop_
_space_group_symop_operation_xyz
x,y,z
-x,-y,z
1/2+x,1/2-y,-z
1/2-x,1/2+y,-z
-x,-y,-z
x,y,-z
1/2-x,1/2+y,z
1/2+x,1/2-y,z
loop_
_atom_site_type_symbol
_atom_site_label
_atom_site_fract_x
_atom_site_fract_y
_atom_site_fract_z
Si Si1 0.895540 0.383713 0.385964
Si Si2 0.351027 0.525301 0.416256
Si Si3 0.607818 0.337263 0.254562
Si Si4 0.864365 0.492322 0.081865
Si Si5 0.531865 0.296645 0.907863
Si Si6 0.154642 0.754290 0.774531
O O1 0.779222 0.468766 0.406367
O O2 0.885359 0.180432 0.414012
O O3 0.896221 0.359534 0.294204
O O4 0.000000 0.500000 0.408500
O O5 0.377069 0.599114 0.500000
O O6 0.405784 0.632605 0.345831
O O7 0.526890 0.264601 0.188628
O O8 0.628825 0.538074 0.228042
O O9 0.718420 0.234247 0.248944
O O10 0.851264 0.701433 0.088069
O O11 0.843589 0.350703 0.145335
O O12 0.000000 0.500000 0.085246
O O13 0.819857 0.444099 0.000000
O O14 0.500000 0.500000 0.906737
O O15 0.495667 0.266557 0.000000
#
# Coordination Sequence:
#
# PCOD9428429 Si02
#       6
#     8   8   8   8   8   8
#     4  10  23  43  72 102 144 201 248 302 381 459
#     4  10  22  42  69 107 145 183 245 313 372 447
#     4  10  21  41  67  95 132 183 231 285 360 429
#     4  11  25  42  65 100 136 173 231 301 359 422
#     4  11  22  41  68  96 133 178 231 277 351 444
#     4  10  21  42  64  98 133 182 240 291 348 445
#
# _framework density 29.202345000000001
#
# number of rings (size 3 to 8) (size 9 to 14) (size 15 to 20)
#    0.000    1.667    1.667    2.500    2.333    4.000 
#    0.000    5.000    0.000    4.500    0.000    2.333 
#    0.000    0.000    0.000    0.000    0.000    0.000 
#
# Total GULP energy -267290.823169 kJ/mol
# GULP energy per Si atom -5568.558816 kJ/mol
# Density = 2.913588 g / cm^3
# Si number density = 29.202345 Si / 1000 Ang^3
#
#
#
# Elastic Constant Matrix: (Units=GPa)
#
#
# Indices 1 2 3 4 5 6 
#
# 1 98.1522 33.9975 25.2961 0.0000 0.0000 0.0000
# 2 33.9975 86.1525 79.9514 0.0000 0.0000 0.0000
# 3 25.2961 79.9514 275.5724 0.0000 0.0000 0.0000
# 4 0.0000 0.0000 0.0000 50.4490 0.0000 0.0000
# 5 0.0000 0.0000 0.0000 0.0000 25.9467 0.0000
# 6 0.0000 0.0000 0.0000 0.0000 0.0000 2.5320
#
#
#
# Elastic Compliance Matrix: (Units=1/GPa)
#
#
# Indices 1 2 3 4 5 6 
#
# 1 0.011828 -0.005009 0.000367 0.000000 0.000000 0.000000
# 2 -0.005009 0.018005 -0.004764 0.000000 0.000000 0.000000
# 3 0.000367 -0.004764 0.004977 0.000000 0.000000 0.000000
# 4 0.000000 0.000000 0.000000 0.019822 0.000000 0.000000
# 5 0.000000 0.000000 0.000000 0.000000 0.038541 0.000000
# 6 0.000000 0.000000 0.000000 0.000000 0.000000 0.394946
#
#
# Mechanical properties :
#
#
# Convention : Reuss Voigt Hill
#
# Bulk Modulus (GPa) = 62.49969 82.04079 72.27024
# Shear Modulus (GPa) = 9.76061 37.16101 23.46081
#
# Velocity S-wave (km/s) = 1.83021 3.57113 2.83748
# Velocity P-wave (km/s) = 5.09067 6.72003 5.96128
#
# Compressibility (1/GPa) = 0.01600008
#
# Stress axis : x y z
#
# Youngs Moduli (GPa) = 84.54179 55.54038 200.91421
#
# Poissons Ratio (x) = 0.27818 -0.07381
# Poissons Ratio (y) = 0.42344 0.95715
# Poissons Ratio (z) = -0.03106 0.26459
#
# Static dielectric constant tensor:
#      x y z
#    x 3.218770 0.000000 0.000000 
#    y 0.000000 1.000030 0.000000 
#    z 0.000000 0.000000 2.349170 
# 
# From -- ./inp_files/21519.got.cif
#   From: 2010.05.17/outbox.cif.g08.bks.cpg/sg55_11_cif.got.tgz:21519.got - 2010.06.03 13:27:54.
