data_PCOD9428538
_publ_section_title
;
Structure prediction by ZEFSAII (Michael W. Deem and Ramdas Pophale) SiO2 
 PCOD9428538
Probable space group: P B A M
;
_chemical_formula_sum "Si O2"
_cell_formula_units_Z 32
_cell_length_a 18.720163
_cell_length_b 7.418573
_cell_length_c 12.392405
_cell_angle_alpha 90.000000
_cell_angle_beta 90.000000
_cell_angle_gamma 90.000000
_cell_volume 1721.018738
_symmetry_space_group_name_H-M "P B A M"
_symmetry_group_IT_number 55
_symmetry_cell_setting 'orthorhombic'
loop_
_space_group_symop_operation_xyz
x,y,z
-x,-y,z
1/2+x,1/2-y,-z
1/2-x,1/2+y,-z
-x,-y,-z
x,y,-z
1/2-x,1/2+y,z
1/2+x,1/2-y,z
loop_
_atom_site_type_symbol
_atom_site_label
_atom_site_fract_x
_atom_site_fract_y
_atom_site_fract_z
Si Si1 0.564570 0.857621 0.125580
Si Si2 0.843359 0.425295 0.317966
Si Si3 0.432595 0.397934 0.311935
Si Si4 0.683735 0.329087 0.374823
O O1 0.632593 0.932264 0.192549
O O2 0.546424 0.678105 0.193761
O O3 0.500000 0.000000 0.136562
O O4 0.578028 0.826575 0.000000
O O5 0.901162 0.284145 0.365986
O O6 0.764868 0.344113 0.334269
O O7 0.843012 0.624519 0.365176
O O8 0.500000 0.500000 0.361508
O O9 0.367789 0.538173 0.309866
O O10 0.682482 0.385906 0.500000
#
# Coordination Sequence:
#
# PCOD9428538 Si02
#       4
#     8   8   8   8
#     4   9  19  39  65  91 123 162 202 249 314 370
#     4  10  22  38  61  90 122 158 211 254 303 371
#     4  10  23  40  63  92 128 156 209 260 302 367
#     4  12  23  41  65  86 123 171 207 255 317 370
#
# _framework density 18.593637999999999
#
# number of rings (size 3 to 8) (size 9 to 14) (size 15 to 20)
#    1.500    0.250    2.500    2.250    0.000    2.000 
#    0.000    7.500    0.000    0.000    0.000    0.000 
#    0.000    0.000    0.000    0.000    0.000    0.000 
#
# Total GULP energy -178140.793110 kJ/mol
# GULP energy per Si atom -5566.899785 kJ/mol
# Density = 1.855132 g / cm^3
# Si number density = 18.593638 Si / 1000 Ang^3
#
#
#
# Elastic Constant Matrix: (Units=GPa)
#
#
# Indices 1 2 3 4 5 6 
#
# 1 76.1106 38.5963 43.1321 0.0000 0.0000 0.0000
# 2 38.5963 109.5098 41.2932 0.0000 0.0000 0.0000
# 3 43.1321 41.2932 85.9125 0.0000 0.0000 0.0000
# 4 0.0000 0.0000 0.0000 -63.3638 0.0000 0.0000
# 5 0.0000 0.0000 0.0000 0.0000 38.3015 0.0000
# 6 0.0000 0.0000 0.0000 0.0000 0.0000 40.8443
#
#
#
# Elastic Compliance Matrix: (Units=1/GPa)
#
#
# Indices 1 2 3 4 5 6 
#
# 1 0.019648 -0.003915 -0.007982 0.000000 0.000000 0.000000
# 2 -0.003915 0.011933 -0.003770 0.000000 0.000000 0.000000
# 3 -0.007982 -0.003770 0.017459 0.000000 0.000000 0.000000
# 4 0.000000 0.000000 0.000000 -0.015782 0.000000 0.000000
# 5 0.000000 0.000000 0.000000 0.000000 0.026109 0.000000
# 6 0.000000 0.000000 0.000000 0.000000 0.000000 0.024483
#
#
# Mechanical properties :
#
#
# Convention : Reuss Voigt Hill
#
# Bulk Modulus (GPa) = 56.48000 57.50846 56.99423
# Shear Modulus (GPa) = 41.29285 13.05716 27.17501
#
# Velocity S-wave (km/s) = 4.71765 2.65285 3.82713
# Velocity P-wave (km/s) = 7.75351 6.35451 7.08861
#
# Compressibility (1/GPa) = 0.01770538
#
# Stress axis : x y z
#
# Youngs Moduli (GPa) = 50.89665 83.80163 57.27585
#
# Poissons Ratio (x) = 0.32806 0.45720
# Poissons Ratio (y) = 0.19925 0.21593
# Poissons Ratio (z) = 0.40628 0.31594
#
# Static dielectric constant tensor:
#      x y z
#    x 1.644040 0.000000 0.000000 
#    y 0.000000 1.661830 0.000000 
#    z 0.000000 0.000000 1.644780 
# 
# From -- ./inp_files/13813.got.cif
#   From: 2010.05.17/outbox.cif.g08.bks.cpg/sg55_7_cif.got.tgz:13813.got - 2010.06.03 13:27:54.
