data_PCOD9428514
_publ_section_title
;
Structure prediction by ZEFSAII (Michael W. Deem and Ramdas Pophale) SiO2 
 PCOD9428514
Probable space group: P B A M
;
_chemical_formula_sum "Si O2"
_cell_formula_units_Z 34
_cell_length_a 9.353106
_cell_length_b 10.025259
_cell_length_c 13.968500
_cell_angle_alpha 90.000000
_cell_angle_beta 90.000000
_cell_angle_gamma 90.000000
_cell_volume 1309.788671
_symmetry_space_group_name_H-M "P B A M"
_symmetry_group_IT_number 55
_symmetry_cell_setting 'orthorhombic'
loop_
_space_group_symop_operation_xyz
x,y,z
-x,-y,z
1/2+x,1/2-y,-z
1/2-x,1/2+y,-z
-x,-y,-z
x,y,-z
1/2-x,1/2+y,z
1/2+x,1/2-y,z
loop_
_atom_site_type_symbol
_atom_site_label
_atom_site_fract_x
_atom_site_fract_y
_atom_site_fract_z
Si Si1 0.352140 0.806404 0.772053
Si Si2 0.500000 0.500000 0.000000
Si Si3 0.595324 0.769454 0.103484
Si Si4 0.170564 0.494709 0.605068
Si Si5 0.065076 0.147150 0.395958
O O1 0.226461 0.727513 0.823851
O O2 0.458827 0.847962 0.856485
O O3 0.288685 0.916325 0.700757
O O4 0.457988 0.727553 0.699727
O O5 0.455079 0.384300 0.918234
O O6 0.644656 0.822946 0.000000
O O7 0.209191 0.435399 0.500000
O O8 0.262228 0.628973 0.605596
O O9 0.000000 0.500000 0.607534
O O10 0.022761 0.203319 0.500000
O O11 0.000000 0.000000 0.391167
#
# Coordination Sequence:
#
# PCOD9428514 Si02
#       5
#     8   2   8   8   8
#     4  12  22  39  67  92 119 168 212 256 314 387
#     4   8  24  44  64  86 122 162 200 274 318 378
#     4  10  24  42  62  89 120 155 211 263 321 369
#     4  10  22  38  57  89 129 160 196 251 307 366
#     4  10  22  38  61  93 128 165 207 251 305 375
#
# _framework density 25.958385
#
# number of rings (size 3 to 8) (size 9 to 14) (size 15 to 20)
#    0.706    0.941    0.000    4.235    4.941    0.000 
#    0.000    9.412    0.000    4.235    0.000    0.000 
#    0.000    0.000    0.000    0.000    0.000    0.000 
#
# Total GULP energy -189364.150870 kJ/mol
# GULP energy per Si atom -5569.533849 kJ/mol
# Density = 2.589930 g / cm^3
# Si number density = 25.958385 Si / 1000 Ang^3
#
#
#
# Elastic Constant Matrix: (Units=GPa)
#
#
# Indices 1 2 3 4 5 6 
#
# 1 107.2404 -19.4384 20.1051 0.0000 0.0000 0.0000
# 2 -19.4384 50.8023 8.1442 0.0000 0.0000 0.0000
# 3 20.1051 8.1442 171.8201 0.0000 0.0000 0.0000
# 4 0.0000 0.0000 0.0000 15.1963 0.0000 0.0000
# 5 0.0000 0.0000 0.0000 0.0000 31.6355 0.0000
# 6 0.0000 0.0000 0.0000 0.0000 0.0000 31.7853
#
#
#
# Elastic Compliance Matrix: (Units=1/GPa)
#
#
# Indices 1 2 3 4 5 6 
#
# 1 0.010348 0.004185 -0.001409 0.000000 0.000000 0.000000
# 2 0.004185 0.021528 -0.001510 0.000000 0.000000 0.000000
# 3 -0.001409 -0.001510 0.006057 0.000000 0.000000 0.000000
# 4 0.000000 0.000000 0.000000 0.065806 0.000000 0.000000
# 5 0.000000 0.000000 0.000000 0.000000 0.031610 0.000000
# 6 0.000000 0.000000 0.000000 0.000000 0.000000 0.031461
#
#
# Mechanical properties :
#
#
# Convention : Reuss Voigt Hill
#
# Bulk Modulus (GPa) = 24.71356 38.60938 31.66147
# Shear Modulus (GPa) = 28.12710 37.12688 32.62699
#
# Velocity S-wave (km/s) = 3.29530 3.78596 3.54912
# Velocity P-wave (km/s) = 4.90100 5.83243 5.38688
#
# Compressibility (1/GPa) = 0.04046361
#
# Stress axis : x y z
#
# Youngs Moduli (GPa) = 96.64035 46.45195 165.11153
#
# Poissons Ratio (x) = -0.19441 0.23267
# Poissons Ratio (y) = -0.40446 0.24934
# Poissons Ratio (z) = 0.13618 0.07015
#
# Static dielectric constant tensor:
#      x y z
#    x 2.043590 0.000000 0.000000 
#    y 0.000000 2.118210 0.000000 
#    z 0.000000 0.000000 2.015610 
# 
# From -- ./inp_files/12855.got.cif
#   From: 2010.05.17/outbox.cif.g08.bks.cpg/sg55_7_cif.got.tgz:12855.got - 2010.06.03 13:27:54.
