data_PCOD9428024
_publ_section_title
;
Structure prediction by ZEFSAII (Michael W. Deem and Ramdas Pophale) SiO2 
 PCOD9428024
Probable space group: P B A M
;
_chemical_formula_sum "Si O2"
_cell_formula_units_Z 48
_cell_length_a 9.179410
_cell_length_b 31.783199
_cell_length_c 8.565350
_cell_angle_alpha 90.000000
_cell_angle_beta 90.000000
_cell_angle_gamma 90.000000
_cell_volume 2498.949554
_symmetry_space_group_name_H-M "P B A M"
_symmetry_group_IT_number 55
_symmetry_cell_setting 'orthorhombic'
loop_
_space_group_symop_operation_xyz
x,y,z
-x,-y,z
1/2+x,1/2-y,-z
1/2-x,1/2+y,-z
-x,-y,-z
x,y,-z
1/2-x,1/2+y,z
1/2+x,1/2-y,z
loop_
_atom_site_type_symbol
_atom_site_label
_atom_site_fract_x
_atom_site_fract_y
_atom_site_fract_z
Si Si1 0.919214 0.707785 0.688619
Si Si2 0.912125 0.541696 0.811089
Si Si3 0.581497 0.706812 0.689001
Si Si4 0.915975 0.042263 0.687193
Si Si5 0.080065 0.124309 0.187344
Si Si6 0.583058 0.874300 0.811431
O O1 0.922153 0.706801 0.500000
O O2 0.750429 0.707639 0.738100
O O3 0.999656 0.750574 0.738819
O O4 0.002516 0.667016 0.750314
O O5 0.749302 0.541521 0.746508
O O6 0.000000 0.500000 0.762677
O O7 0.998053 0.583640 0.761115
O O8 0.905091 0.541754 0.000000
O O9 0.577662 0.705164 0.500000
O O10 0.500765 0.665975 0.753620
O O11 0.916252 0.043636 0.500000
O O12 0.998348 0.083178 0.750548
O O13 0.000000 0.000000 0.738414
O O14 0.248665 0.124584 0.239611
O O15 0.077340 0.123564 0.000000
O O16 0.581535 0.873463 0.000000
#
# Coordination Sequence:
#
# PCOD9428024 Si02
#       6
#     8   8   8   8   8   8
#     4  10  21  37  59  84 113 151 190 232 284 340
#     4  10  21  39  62  86 115 152 193 237 284 337
#     4  10  21  38  59  85 115 149 191 235 283 339
#     4  11  24  40  59  86 118 151 189 234 283 337
#     4  11  23  39  60  85 114 151 191 233 284 338
#     4  10  22  38  57  84 115 148 190 237 284 336
#
# _framework density 19.208071
#
# number of rings (size 3 to 8) (size 9 to 14) (size 15 to 20)
#    0.000    1.667    0.000    4.000    0.000   10.333 
#    0.000    0.000    0.000    0.000    0.000    0.000 
#    0.000    0.000    0.000    0.000    0.000    0.000 
#
# Total GULP energy -268391.662328 kJ/mol
# GULP energy per Si atom -5591.492965 kJ/mol
# Density = 1.916435 g / cm^3
# Si number density = 19.208071 Si / 1000 Ang^3
#
#
#
# Elastic Constant Matrix: (Units=GPa)
#
#
# Indices 1 2 3 4 5 6 
#
# 1 244.4398 150.6757 40.4951 0.0000 0.0000 0.0000
# 2 150.6757 243.8804 38.9298 0.0000 0.0000 0.0000
# 3 40.4951 38.9298 15.2185 0.0000 0.0000 0.0000
# 4 0.0000 0.0000 0.0000 32.0443 0.0000 0.0000
# 5 0.0000 0.0000 0.0000 0.0000 30.3325 0.0000
# 6 0.0000 0.0000 0.0000 0.0000 0.0000 46.6792
#
#
#
# Elastic Compliance Matrix: (Units=1/GPa)
#
#
# Indices 1 2 3 4 5 6 
#
# 1 0.008243 -0.002690 -0.015052 0.000000 0.000000 0.000000
# 2 -0.002690 0.007808 -0.012816 0.000000 0.000000 0.000000
# 3 -0.015052 -0.012816 0.138547 0.000000 0.000000 0.000000
# 4 0.000000 0.000000 0.000000 0.031207 0.000000 0.000000
# 5 0.000000 0.000000 0.000000 0.000000 0.032968 0.000000
# 6 0.000000 0.000000 0.000000 0.000000 0.000000 0.021423
#
#
# Mechanical properties :
#
#
# Convention : Reuss Voigt Hill
#
# Bulk Modulus (GPa) = 10.69736 107.08222 58.88979
# Shear Modulus (GPa) = 15.03889 40.04040 27.53964
#
# Velocity S-wave (km/s) = 2.80115 4.57065 3.79060
# Velocity P-wave (km/s) = 4.00540 9.15009 7.06284
#
# Compressibility (1/GPa) = 0.09348098
#
# Stress axis : x y z
#
# Youngs Moduli (GPa) = 121.32022 128.07476 7.21779
#
# Poissons Ratio (x) = 0.34449 0.10865
# Poissons Ratio (y) = 0.32632 0.09250
# Poissons Ratio (z) = 1.82616 1.64140
#
# Static dielectric constant tensor:
#      x y z
#    x 1.638970 0.000000 0.000000 
#    y 0.000000 1.627430 0.000000 
#    z 0.000000 0.000000 1.661870 
# 
# From -- ./inp_files/2859.got.cif
#   From: 2010.05.17/outbox.cif.g08.bks.cpg/sg55_2_cif.got.tgz:2859.got - 2010.06.03 13:27:54.
