data_PCOD9428975
_publ_section_title
;
Structure prediction by ZEFSAII (Michael W. Deem and Ramdas Pophale) SiO2 
 PCOD9428975
Probable space group: P B A M
;
_chemical_formula_sum "Si O2"
_cell_formula_units_Z 64
_cell_length_a 18.496430
_cell_length_b 14.032062
_cell_length_c 14.212128
_cell_angle_alpha 90.000000
_cell_angle_beta 90.000000
_cell_angle_gamma 90.000000
_cell_volume 3688.659084
_symmetry_space_group_name_H-M "P B A M"
_symmetry_group_IT_number 55
_symmetry_cell_setting 'orthorhombic'
loop_
_space_group_symop_operation_xyz
x,y,z
-x,-y,z
1/2+x,1/2-y,-z
1/2-x,1/2+y,-z
-x,-y,-z
x,y,-z
1/2-x,1/2+y,z
1/2+x,1/2-y,z
loop_
_atom_site_type_symbol
_atom_site_label
_atom_site_fract_x
_atom_site_fract_y
_atom_site_fract_z
Si Si1 0.076320 0.873951 0.394714
Si Si2 0.612058 0.957236 0.886162
Si Si3 0.849454 0.136701 0.796580
Si Si4 0.506908 0.352511 0.887406
Si Si5 0.589671 0.395275 0.605256
Si Si6 0.768066 0.306744 0.888121
Si Si7 0.458437 0.859182 0.113657
Si Si8 0.856105 0.918017 0.200618
O O1 0.095594 0.841127 0.500000
O O2 0.125863 0.839036 0.309848
O O3 0.991095 0.854410 0.378658
O O4 0.082120 0.989375 0.394342
O O5 0.676913 0.890206 0.854749
O O6 0.536674 0.904436 0.864202
O O7 0.602247 0.066186 0.852411
O O8 0.617566 0.961136 0.000000
O O9 0.791269 0.209759 0.837239
O O10 0.923687 0.145090 0.856749
O O11 0.826362 0.025921 0.800271
O O12 0.538975 0.249602 0.856792
O O13 0.561433 0.424610 0.836760
O O14 0.511250 0.363404 0.000000
O O15 0.613402 0.367286 0.500000
O O16 0.640329 0.376340 0.693886
O O17 0.689789 0.348253 0.864592
O O18 0.776019 0.293057 0.000000
O O19 0.453466 0.857196 0.000000
#
# Coordination Sequence:
#
# PCOD9428975 Si02
#       8
#     8   8   8   8   8   8   8   8
#     4   8  14  28  54  82 102 124 160 212 269 319
#     4   8  14  28  47  65  88 125 172 212 245 281
#     4  11  21  36  54  73 103 137 175 220 262 311
#     4  11  20  31  49  75 103 134 173 215 256 304
#     4   8  14  29  53  79 104 127 158 209 269 320
#     4  11  23  36  48  69 107 150 181 211 259 310
#     4   8  14  26  47  69  88 120 171 219 245 276
#     4  11  23  35  50  76 104 136 174 212 263 322
#
# _framework density 17.350479
#
# number of rings (size 3 to 8) (size 9 to 14) (size 15 to 20)
#    0.000    2.500    2.500    2.625    0.000    3.500 
#    0.000    1.875    0.000    0.000    0.000    0.000 
#    0.000    3.000    0.000    0.000    0.000    0.000 
#
# Total GULP energy -356496.502394 kJ/mol
# GULP energy per Si atom -5570.257850 kJ/mol
# Density = 1.731099 g / cm^3
# Si number density = 17.350479 Si / 1000 Ang^3
#
#
#
# Elastic Constant Matrix: (Units=GPa)
#
#
# Indices 1 2 3 4 5 6 
#
# 1 38.0075 15.9936 10.2172 0.0000 0.0000 0.0000
# 2 15.9936 60.1728 19.1848 0.0000 0.0000 0.0000
# 3 10.2172 19.1848 83.4721 0.0000 0.0000 0.0000
# 4 0.0000 0.0000 0.0000 14.0657 0.0000 0.0000
# 5 0.0000 0.0000 0.0000 0.0000 21.2300 0.0000
# 6 0.0000 0.0000 0.0000 0.0000 0.0000 19.2223
#
#
#
# Elastic Compliance Matrix: (Units=1/GPa)
#
#
# Indices 1 2 3 4 5 6 
#
# 1 0.029924 -0.007322 -0.001980 0.000000 0.000000 0.000000
# 2 -0.007322 0.019725 -0.003637 0.000000 0.000000 0.000000
# 3 -0.001980 -0.003637 0.013058 0.000000 0.000000 0.000000
# 4 0.000000 0.000000 0.000000 0.071095 0.000000 0.000000
# 5 0.000000 0.000000 0.000000 0.000000 0.047103 0.000000
# 6 0.000000 0.000000 0.000000 0.000000 0.000000 0.052023
#
#
# Mechanical properties :
#
#
# Convention : Reuss Voigt Hill
#
# Bulk Modulus (GPa) = 27.15301 30.27150 28.71225
# Shear Modulus (GPa) = 18.44453 19.98739 19.21596
#
# Velocity S-wave (km/s) = 3.26399 3.39776 3.33155
# Velocity P-wave (km/s) = 5.46704 5.73393 5.60208
#
# Compressibility (1/GPa) = 0.03682833
#
# Stress axis : x y z
#
# Youngs Moduli (GPa) = 33.41784 50.69792 76.57950
#
# Poissons Ratio (x) = 0.37123 0.15161
# Poissons Ratio (y) = 0.24470 0.27853
# Poissons Ratio (z) = 0.06616 0.18439
#
# Static dielectric constant tensor:
#      x y z
#    x 1.603420 0.000000 0.000000 
#    y 0.000000 1.633810 0.000000 
#    z 0.000000 0.000000 1.604040 
# 
# From -- ./inp_files/19563.got.cif
#   From: 2010.05.17/outbox.cif.g08.bks.cpg/sg55_10_cif.got.tgz:19563.got - 2010.06.03 13:27:54.
