data_PCOD9428405
_publ_section_title
;
Structure prediction by ZEFSAII (Michael W. Deem and Ramdas Pophale) SiO2 
 PCOD9428405
Probable space group: P B A M
;
_chemical_formula_sum "Si O2"
_cell_formula_units_Z 36
_cell_length_a 12.875259
_cell_length_b 4.874170
_cell_length_c 23.506634
_cell_angle_alpha 90.000000
_cell_angle_beta 90.000000
_cell_angle_gamma 90.000000
_cell_volume 1475.187052
_symmetry_space_group_name_H-M "P B A M"
_symmetry_group_IT_number 55
_symmetry_cell_setting 'orthorhombic'
loop_
_space_group_symop_operation_xyz
x,y,z
-x,-y,z
1/2+x,1/2-y,-z
1/2-x,1/2+y,-z
-x,-y,-z
x,y,-z
1/2-x,1/2+y,z
1/2+x,1/2-y,z
loop_
_atom_site_type_symbol
_atom_site_label
_atom_site_fract_x
_atom_site_fract_y
_atom_site_fract_z
Si Si1 0.331705 0.204017 0.500000
Si Si2 0.324112 0.888048 0.668885
Si Si3 0.311190 0.283524 0.000000
Si Si4 0.817185 0.616310 0.801237
Si Si5 0.500000 0.000000 0.410300
Si Si6 0.561407 0.763388 0.106908
O O1 0.261560 0.477503 0.500000
O O2 0.414714 0.161469 0.551550
O O3 0.231814 0.675667 0.657404
O O4 0.351978 0.898985 0.735748
O O5 0.424450 0.828295 0.631021
O O6 0.363561 0.361333 0.059398
O O7 0.206862 0.460091 0.000000
O O8 0.787723 0.933338 0.809122
O O9 0.890435 0.459710 0.844679
O O10 0.500000 0.500000 0.130076
O O11 0.500000 0.000000 0.072899
#
# Coordination Sequence:
#
# PCOD9428405 Si02
#       6
#     4   8   4   8   4   8
#     4  11  26  45  68 100 138 173 222 273 326 390
#     4  10  23  41  63  95 133 169 220 272 316 387
#     4  12  24  42  64  86 118 166 208 254 324 388
#     4  10  21  41  61  86 124 167 205 254 318 378
#     4  11  24  42  72  98 132 181 220 268 336 383
#     4  12  24  39  62  92 124 156 208 268 313 380
#
# _framework density 24.403683999999998
#
# number of rings (size 3 to 8) (size 9 to 14) (size 15 to 20)
#    0.000    1.111    0.000    6.000    1.556    4.444 
#    0.000    0.000    0.000    0.000    0.000    0.000 
#    0.000    0.000    0.000    0.000    0.000    0.000 
#
# Total GULP energy -201017.692683 kJ/mol
# GULP energy per Si atom -5583.824797 kJ/mol
# Density = 2.434814 g / cm^3
# Si number density = 24.403684 Si / 1000 Ang^3
#
#
#
# Elastic Constant Matrix: (Units=GPa)
#
#
# Indices 1 2 3 4 5 6 
#
# 1 98.4852 -7.4866 67.6760 0.0000 0.0000 0.0000
# 2 -7.4866 92.4980 17.5393 0.0000 0.0000 0.0000
# 3 67.6760 17.5393 117.2974 0.0000 0.0000 0.0000
# 4 0.0000 0.0000 0.0000 -0.1346 0.0000 0.0000
# 5 0.0000 0.0000 0.0000 0.0000 16.6200 0.0000
# 6 0.0000 0.0000 0.0000 0.0000 0.0000 20.6006
#
#
#
# Elastic Compliance Matrix: (Units=1/GPa)
#
#
# Indices 1 2 3 4 5 6 
#
# 1 0.017860 0.003499 -0.010828 0.000000 0.000000 0.000000
# 2 0.003499 0.011812 -0.003785 0.000000 0.000000 0.000000
# 3 -0.010828 -0.003785 0.015339 0.000000 0.000000 0.000000
# 4 0.000000 0.000000 0.000000 -7.429208 0.000000 0.000000
# 5 0.000000 0.000000 0.000000 0.000000 0.060168 0.000000
# 6 0.000000 0.000000 0.000000 0.000000 0.000000 0.048542
#
#
# Mechanical properties :
#
#
# Convention : Reuss Voigt Hill
#
# Bulk Modulus (GPa) = 43.89272 51.52646 47.70959
# Shear Modulus (GPa) = -0.69007 22.78734 11.04864
#
# Velocity S-wave (km/s) = -0.53234 3.05907 2.13009
# Velocity P-wave (km/s) = 4.20087 5.79977 5.06382
#
# Compressibility (1/GPa) = 0.02278282
#
# Stress axis : x y z
#
# Youngs Moduli (GPa) = 55.98984 84.66032 65.19513
#
# Poissons Ratio (x) = -0.29621 0.70593
# Poissons Ratio (y) = -0.19590 0.24675
# Poissons Ratio (z) = 0.60625 0.32043
#
# Static dielectric constant tensor:
#      x y z
#    x 2.068050 0.000000 0.000000 
#    y 0.000000 1.862270 0.000000 
#    z 0.000000 0.000000 1.938720 
# 
# From -- ./inp_files/23538.got.cif
#   From: 2010.05.17/outbox.cif.g08.bks.cpg/sg55_12_cif.got.tgz:23538.got - 2010.06.03 13:27:54.
