data_PCOD9428090
_publ_section_title
;
Structure prediction by ZEFSAII (Michael W. Deem and Ramdas Pophale) SiO2 
 PCOD9428090
Probable space group: P B A M
;
_chemical_formula_sum "Si O2"
_cell_formula_units_Z 36
_cell_length_a 27.622003
_cell_length_b 5.038322
_cell_length_c 10.850071
_cell_angle_alpha 90.000000
_cell_angle_beta 90.000000
_cell_angle_gamma 90.000000
_cell_volume 1509.988599
_symmetry_space_group_name_H-M "P B A M"
_symmetry_group_IT_number 55
_symmetry_cell_setting 'orthorhombic'
loop_
_space_group_symop_operation_xyz
x,y,z
-x,-y,z
1/2+x,1/2-y,-z
1/2-x,1/2+y,-z
-x,-y,-z
x,y,-z
1/2-x,1/2+y,z
1/2+x,1/2-y,z
loop_
_atom_site_type_symbol
_atom_site_label
_atom_site_fract_x
_atom_site_fract_y
_atom_site_fract_z
Si Si1 0.151064 0.692617 0.366228
Si Si2 0.284468 0.839142 0.500000
Si Si3 0.557791 0.537630 0.869432
Si Si4 0.056339 0.463983 0.725707
Si Si5 0.785044 0.122154 0.857134
O O1 0.155951 0.834472 0.500000
O O2 0.182432 0.422341 0.384737
O O3 0.095989 0.598864 0.358865
O O4 0.173404 0.832810 0.246018
O O5 0.243539 0.068489 0.500000
O O6 0.500000 0.500000 0.875951
O O7 0.570570 0.335670 0.759898
O O8 0.563003 0.848810 0.845548
O O9 0.579868 0.459478 0.000000
O O10 0.000000 0.500000 0.687306
O O11 0.744316 0.349888 0.841693
O O12 0.802800 0.138424 0.000000
#
# Coordination Sequence:
#
# PCOD9428090 Si02
#       5
#     8   4   8   8   8
#     4  10  24  41  64  95 121 169 210 254 303 380
#     4  10  22  40  63  88 115 150 200 256 298 358
#     4   9  18  34  58  84 117 165 212 254 304 359
#     4  10  21  38  57  88 128 164 209 259 306 360
#     4  10  22  41  64  92 125 157 197 257 321 372
#
# _framework density 23.841238000000001
#
# number of rings (size 3 to 8) (size 9 to 14) (size 15 to 20)
#    0.667    1.556    0.000    2.000    0.000    8.444 
#    0.000    2.222    0.000    4.000    0.000    0.000 
#    0.000    0.000    0.000    0.000    0.000    0.000 
#
# Total GULP energy -200736.577173 kJ/mol
# GULP energy per Si atom -5576.016033 kJ/mol
# Density = 2.378697 g / cm^3
# Si number density = 23.841238 Si / 1000 Ang^3
#
#
#
# Elastic Constant Matrix: (Units=GPa)
#
#
# Indices 1 2 3 4 5 6 
#
# 1 118.1257 19.4645 38.6627 0.0000 0.0000 0.0000
# 2 19.4645 89.9218 -0.4714 0.0000 0.0000 0.0000
# 3 38.6627 -0.4714 119.1993 0.0000 0.0000 0.0000
# 4 0.0000 0.0000 0.0000 -75.0288 0.0000 0.0000
# 5 0.0000 0.0000 0.0000 0.0000 44.1647 0.0000
# 6 0.0000 0.0000 0.0000 0.0000 0.0000 23.9672
#
#
#
# Elastic Compliance Matrix: (Units=1/GPa)
#
#
# Indices 1 2 3 4 5 6 
#
# 1 0.009871 -0.002154 -0.003210 0.000000 0.000000 0.000000
# 2 -0.002154 0.011591 0.000744 0.000000 0.000000 0.000000
# 3 -0.003210 0.000744 0.009434 0.000000 0.000000 0.000000
# 4 0.000000 0.000000 0.000000 -0.013328 0.000000 0.000000
# 5 0.000000 0.000000 0.000000 0.000000 0.022643 0.000000
# 6 0.000000 0.000000 0.000000 0.000000 0.000000 0.041724
#
#
# Mechanical properties :
#
#
# Convention : Reuss Voigt Hill
#
# Bulk Modulus (GPa) = 46.17533 49.17316 47.67424
# Shear Modulus (GPa) = 50.81753 16.59335 33.70544
#
# Velocity S-wave (km/s) = 4.62182 2.64103 3.76406
# Velocity P-wave (km/s) = 6.92037 5.47449 6.23946
#
# Compressibility (1/GPa) = 0.02165659
#
# Stress axis : x y z
#
# Youngs Moduli (GPa) = 101.30552 86.27511 106.00504
#
# Poissons Ratio (x) = 0.18580 0.34030
# Poissons Ratio (y) = 0.21817 -0.07890
# Poissons Ratio (z) = 0.32522 -0.06422
#
# Static dielectric constant tensor:
#      x y z
#    x 1.923580 0.000000 0.000000 
#    y 0.000000 1.914670 0.000000 
#    z 0.000000 0.000000 2.055440 
# 
# From -- ./inp_files/15530.got.cif
#   From: 2010.05.17/outbox.cif.g08.bks.cpg/sg55_8_cif.got.tgz:15530.got - 2010.06.03 13:27:54.
