data_PCOD9428639
_publ_section_title
;
Structure prediction by ZEFSAII (Michael W. Deem and Ramdas Pophale) SiO2 
 PCOD9428639
Probable space group: P B A M
;
_chemical_formula_sum "Si O2"
_cell_formula_units_Z 48
_cell_length_a 10.550727
_cell_length_b 21.954686
_cell_length_c 9.810130
_cell_angle_alpha 90.000000
_cell_angle_beta 90.000000
_cell_angle_gamma 90.000000
_cell_volume 2272.397896
_symmetry_space_group_name_H-M "P B A M"
_symmetry_group_IT_number 55
_symmetry_cell_setting 'orthorhombic'
loop_
_space_group_symop_operation_xyz
x,y,z
-x,-y,z
1/2+x,1/2-y,-z
1/2-x,1/2+y,-z
-x,-y,-z
x,y,-z
1/2-x,1/2+y,z
1/2+x,1/2-y,z
loop_
_atom_site_type_symbol
_atom_site_label
_atom_site_fract_x
_atom_site_fract_y
_atom_site_fract_z
Si Si1 0.054082 0.628350 0.654032
Si Si2 0.453855 0.563091 0.283108
Si Si3 0.804570 0.489350 0.665112
Si Si4 0.712179 0.591919 0.153972
Si Si5 0.163602 0.185320 0.645455
Si Si6 0.631073 0.204288 0.841266
O O1 0.001022 0.633574 0.500000
O O2 0.078363 0.556622 0.681429
O O3 0.194500 0.658315 0.650755
O O4 0.973655 0.663962 0.764467
O O5 0.500000 0.500000 0.353916
O O6 0.309886 0.544265 0.251935
O O7 0.564661 0.575336 0.174824
O O8 0.432305 0.628061 0.352722
O O9 0.780779 0.491007 0.500000
O O10 0.793269 0.555463 0.732536
O O11 0.741286 0.663442 0.170691
O O12 0.751758 0.575298 0.000000
O O13 0.148242 0.217924 0.500000
O O14 0.142155 0.231501 0.767196
O O15 0.601423 0.211414 0.000000
#
# Coordination Sequence:
#
# PCOD9428639 Si02
#       6
#     8   8   8   8   8   8
#     4   9  20  41  63  86 116 151 200 251 300 359
#     4   9  19  37  64  92 119 150 194 249 310 358
#     4   9  19  37  63  92 120 152 195 253 308 351
#     4  10  23  39  56  86 126 162 201 242 292 361
#     4  10  22  40  63  89 116 152 199 252 305 361
#     4  11  25  41  57  84 123 165 203 243 295 359
#
# _framework density 21.123061
#
# number of rings (size 3 to 8) (size 9 to 14) (size 15 to 20)
#    0.000    2.333    0.000    2.000    2.333   13.000 
#    0.000    8.333    0.000    0.000    0.000    0.000 
#    0.000    0.000    0.000    0.000    0.000    0.000 
#
# Total GULP energy -267285.149705 kJ/mol
# GULP energy per Si atom -5568.440619 kJ/mol
# Density = 2.107498 g / cm^3
# Si number density = 21.123061 Si / 1000 Ang^3
#
#
#
# Elastic Constant Matrix: (Units=GPa)
#
#
# Indices 1 2 3 4 5 6 
#
# 1 51.7816 22.5353 33.0485 0.0000 0.0000 0.0000
# 2 22.5353 133.6870 69.5810 0.0000 0.0000 0.0000
# 3 33.0485 69.5810 120.4628 0.0000 0.0000 0.0000
# 4 0.0000 0.0000 0.0000 -5.2250 0.0000 0.0000
# 5 0.0000 0.0000 0.0000 0.0000 19.9337 0.0000
# 6 0.0000 0.0000 0.0000 0.0000 0.0000 24.1770
#
#
#
# Elastic Compliance Matrix: (Units=1/GPa)
#
#
# Indices 1 2 3 4 5 6 
#
# 1 0.023481 -0.000865 -0.005942 0.000000 0.000000 0.000000
# 2 -0.000865 0.010728 -0.005959 0.000000 0.000000 0.000000
# 3 -0.005942 -0.005959 0.013373 0.000000 0.000000 0.000000
# 4 0.000000 0.000000 0.000000 -0.191387 0.000000 0.000000
# 5 0.000000 0.000000 0.000000 0.000000 0.050166 0.000000
# 6 0.000000 0.000000 0.000000 0.000000 0.000000 0.041362
#
#
# Mechanical properties :
#
#
# Convention : Reuss Voigt Hill
#
# Bulk Modulus (GPa) = 45.35336 61.80679 53.58007
# Shear Modulus (GPa) = -257.80249 19.82823 -118.98713
#
# Velocity S-wave (km/s) = -11.05951 3.06715 -7.51350
# Velocity P-wave (km/s) = 11.89816 6.47047 7.06042
#
# Compressibility (1/GPa) = 0.02204908
#
# Stress axis : x y z
#
# Youngs Moduli (GPa) = 42.58788 93.21802 74.77505
#
# Poissons Ratio (x) = 0.08068 0.44431
# Poissons Ratio (y) = 0.03686 0.44558
# Poissons Ratio (z) = 0.25306 0.55548
#
# Static dielectric constant tensor:
#      x y z
#    x 1.801130 0.000000 0.000000 
#    y 0.000000 1.796780 0.000000 
#    z 0.000000 0.000000 1.726080 
# 
# From -- ./inp_files/4097.got.cif
#   From: 2010.05.17/outbox.cif.g08.bks.cpg/sg55_3_cif.got.tgz:4097.got - 2010.06.03 13:27:54.
