data_PCOD9428527
_publ_section_title
;
Structure prediction by ZEFSAII (Michael W. Deem and Ramdas Pophale) SiO2 
 PCOD9428527
Probable space group: P B A M
;
_chemical_formula_sum "Si O2"
_cell_formula_units_Z 56
_cell_length_a 9.379403
_cell_length_b 13.681519
_cell_length_c 19.757695
_cell_angle_alpha 90.000000
_cell_angle_beta 90.000000
_cell_angle_gamma 90.000000
_cell_volume 2535.395944
_symmetry_space_group_name_H-M "P B A M"
_symmetry_group_IT_number 55
_symmetry_cell_setting 'orthorhombic'
loop_
_space_group_symop_operation_xyz
x,y,z
-x,-y,z
1/2+x,1/2-y,-z
1/2-x,1/2+y,-z
-x,-y,-z
x,y,-z
1/2-x,1/2+y,z
1/2+x,1/2-y,z
loop_
_atom_site_type_symbol
_atom_site_label
_atom_site_fract_x
_atom_site_fract_y
_atom_site_fract_z
Si Si1 0.150528 0.619373 0.923824
Si Si2 0.493467 0.280162 0.340256
Si Si3 0.786266 0.381571 0.343130
Si Si4 0.653897 0.554106 0.576653
Si Si5 0.428401 0.393704 0.209378
Si Si6 0.336506 0.008218 0.212760
Si Si7 0.457417 0.704121 0.923001
O O1 0.169054 0.542475 0.864628
O O2 0.287913 0.690455 0.919190
O O3 0.011841 0.685830 0.912284
O O4 0.147411 0.578426 0.000000
O O5 0.654006 0.309369 0.359628
O O6 0.436152 0.172143 0.353634
O O7 0.384721 0.350951 0.380413
O O8 0.475423 0.311079 0.261931
O O9 0.759784 0.479972 0.385543
O O10 0.775278 0.411248 0.264303
O O11 0.500000 0.500000 0.574090
O O12 0.699177 0.575319 0.500000
O O13 0.500000 0.500000 0.224594
O O14 0.260355 0.412640 0.218436
O O15 0.472084 0.362822 0.134213
O O16 0.500000 0.000000 0.232452
O O17 0.500724 0.676886 0.000000
#
# Coordination Sequence:
#
# PCOD9428527 Si02
#       7
#     8   8   8   8   8   8   8
#     4  10  22  41  59  85 119 159 208 262 321 383
#     4  11  22  39  65  92 127 167 208 257 312 372
#     4  11  23  40  64  95 127 167 209 256 313 373
#     4   9  19  40  66  94 130 167 207 254 307 370
#     4  12  21  40  61  84 121 160 209 260 317 378
#     4  12  26  39  60  89 124 162 211 270 319 375
#     4  10  22  38  60  84 117 160 208 261 321 385
#
# _framework density 22.08728
#
# number of rings (size 3 to 8) (size 9 to 14) (size 15 to 20)
#    0.000    1.286    4.286    1.286    4.000    1.714 
#    0.000    0.000    0.000    3.000    0.000    0.000 
#    0.000    0.000    0.000    0.000    0.000    0.000 
#
# Total GULP energy -313003.410327 kJ/mol
# GULP energy per Si atom -5589.346613 kJ/mol
# Density = 2.203701 g / cm^3
# Si number density = 22.087280 Si / 1000 Ang^3
#
#
#
# Elastic Constant Matrix: (Units=GPa)
#
#
# Indices 1 2 3 4 5 6 
#
# 1 62.7614 1.3147 9.6583 0.0000 0.0000 0.0000
# 2 1.3147 18.1557 19.3715 0.0000 0.0000 0.0000
# 3 9.6583 19.3715 80.5422 0.0000 0.0000 0.0000
# 4 0.0000 0.0000 0.0000 -18.9658 0.0000 0.0000
# 5 0.0000 0.0000 0.0000 0.0000 10.7802 0.0000
# 6 0.0000 0.0000 0.0000 0.0000 0.0000 44.0371
#
#
#
# Elastic Compliance Matrix: (Units=1/GPa)
#
#
# Indices 1 2 3 4 5 6 
#
# 1 0.016253 0.001214 -0.002241 0.000000 0.000000 0.000000
# 2 0.001214 0.074184 -0.017988 0.000000 0.000000 0.000000
# 3 -0.002241 -0.017988 0.017011 0.000000 0.000000 0.000000
# 4 0.000000 0.000000 0.000000 -0.052726 0.000000 0.000000
# 5 0.000000 0.000000 0.000000 0.000000 0.092763 0.000000
# 6 0.000000 0.000000 0.000000 0.000000 0.000000 0.022708
#
#
# Mechanical properties :
#
#
# Convention : Reuss Voigt Hill
#
# Bulk Modulus (GPa) = 14.40545 24.68314 19.54430
# Shear Modulus (GPa) = 21.61129 15.91128 18.76128
#
# Velocity S-wave (km/s) = 3.13141 2.68690 2.91764
# Velocity P-wave (km/s) = 4.42838 4.56349 4.49644
#
# Compressibility (1/GPa) = 0.06941815
#
# Stress axis : x y z
#
# Youngs Moduli (GPa) = 61.52784 13.48005 58.78591
#
# Poissons Ratio (x) = -0.01637 0.13174
# Poissons Ratio (y) = -0.07470 1.05743
# Poissons Ratio (z) = 0.13788 0.24248
#
# Static dielectric constant tensor:
#      x y z
#    x 1.836260 0.000000 0.000000 
#    y 0.000000 1.797260 0.000000 
#    z 0.000000 0.000000 1.795590 
# 
# From -- ./inp_files/22638.got.cif
#   From: 2010.05.17/outbox.cif.g08.bks.cpg/sg55_12_cif.got.tgz:22638.got - 2010.06.03 13:27:54.
