data_PCOD9428478
_publ_section_title
;
Structure prediction by ZEFSAII (Michael W. Deem and Ramdas Pophale) SiO2 
 PCOD9428478
Probable space group: P B A M
;
_chemical_formula_sum "Si O2"
_cell_formula_units_Z 64
_cell_length_a 20.992608
_cell_length_b 17.267823
_cell_length_c 8.039161
_cell_angle_alpha 90.000000
_cell_angle_beta 90.000000
_cell_angle_gamma 90.000000
_cell_volume 2914.168845
_symmetry_space_group_name_H-M "P B A M"
_symmetry_group_IT_number 55
_symmetry_cell_setting 'orthorhombic'
loop_
_space_group_symop_operation_xyz
x,y,z
-x,-y,z
1/2+x,1/2-y,-z
1/2-x,1/2+y,-z
-x,-y,-z
x,y,-z
1/2-x,1/2+y,z
1/2+x,1/2-y,z
loop_
_atom_site_type_symbol
_atom_site_label
_atom_site_fract_x
_atom_site_fract_y
_atom_site_fract_z
Si Si1 0.615282 0.716835 0.300802
Si Si2 0.983861 0.345520 0.298605
Si Si3 0.114203 0.535669 0.307985
Si Si4 0.383642 0.781097 0.198615
Si Si5 0.855732 0.882623 0.194709
Si Si6 0.720367 0.828500 0.307535
Si Si7 0.650877 0.553560 0.803319
Si Si8 0.206514 0.406289 0.301965
O O1 0.618139 0.725496 0.500000
O O2 0.557920 0.771381 0.241335
O O3 0.681845 0.754477 0.238826
O O4 0.611534 0.626782 0.261566
O O5 0.981006 0.348173 0.500000
O O6 0.948628 0.423342 0.236786
O O7 0.055635 0.331733 0.247057
O O8 0.099053 0.513598 0.500000
O O9 0.166626 0.604382 0.310982
O O10 0.151962 0.463924 0.231524
O O11 0.391133 0.693145 0.264170
O O12 0.320131 0.820998 0.268480
O O13 0.377948 0.778360 0.000000
O O14 0.781333 0.859314 0.210844
O O15 0.864612 0.968309 0.268368
O O16 0.872355 0.887952 0.000000
O O17 0.739710 0.815106 0.500000
O O18 0.724993 0.572486 0.769073
O O19 0.641844 0.550535 0.000000
O O20 0.211422 0.418275 0.500000
#
# Coordination Sequence:
#
# PCOD9428478 Si02
#       8
#     8   8   8   8   8   8   8   8
#     4   9  19  35  58  84 109 140 183 232 278 330
#     4   9  19  39  61  81 108 145 193 235 272 325
#     4   8  16  32  56  83 110 141 176 221 271 323
#     4  11  24  40  55  78 113 151 190 231 277 330
#     4  10  22  37  52  74 110 150 182 221 274 332
#     4   9  16  31  55  81 106 136 176 219 270 329
#     4  11  22  36  55  83 115 145 181 226 278 334
#     4  11  21  36  59  86 115 146 182 225 280 335
#
# _framework density 21.961666000000001
#
# number of rings (size 3 to 8) (size 9 to 14) (size 15 to 20)
#    0.000    2.250    1.250    3.375    0.000    5.000 
#    0.000    6.250    0.000    3.750    0.000    0.000 
#    0.000    0.000    0.000    0.000    0.000    0.000 
#
# Total GULP energy -357264.919118 kJ/mol
# GULP energy per Si atom -5582.264361 kJ/mol
# Density = 2.191168 g / cm^3
# Si number density = 21.961666 Si / 1000 Ang^3
#
#
#
# Elastic Constant Matrix: (Units=GPa)
#
#
# Indices 1 2 3 4 5 6 
#
# 1 38.7517 -17.4870 -6.0945 0.0000 0.0000 0.0000
# 2 -17.4870 68.9296 -1.0436 0.0000 0.0000 0.0000
# 3 -6.0945 -1.0436 15.5880 0.0000 0.0000 0.0000
# 4 0.0000 0.0000 0.0000 13.1054 0.0000 0.0000
# 5 0.0000 0.0000 0.0000 0.0000 15.1533 0.0000
# 6 0.0000 0.0000 0.0000 0.0000 0.0000 30.8534
#
#
#
# Elastic Compliance Matrix: (Units=1/GPa)
#
#
# Indices 1 2 3 4 5 6 
#
# 1 0.031527 0.008193 0.012875 0.000000 0.000000 0.000000
# 2 0.008193 0.016651 0.004318 0.000000 0.000000 0.000000
# 3 0.012875 0.004318 0.069474 0.000000 0.000000 0.000000
# 4 0.000000 0.000000 0.000000 0.076304 0.000000 0.000000
# 5 0.000000 0.000000 0.000000 0.000000 0.065992 0.000000
# 6 0.000000 0.000000 0.000000 0.000000 0.000000 0.032411
#
#
# Mechanical properties :
#
#
# Convention : Reuss Voigt Hill
#
# Bulk Modulus (GPa) = 5.93734 8.22436 7.08085
# Shear Modulus (GPa) = 16.79371 21.68208 19.23789
#
# Velocity S-wave (km/s) = 2.76829 3.14549 2.96290
# Velocity P-wave (km/s) = 3.59545 4.11645 3.86474
#
# Compressibility (1/GPa) = 0.16842557
#
# Stress axis : x y z
#
# Youngs Moduli (GPa) = 31.71850 60.05468 14.39377
#
# Poissons Ratio (x) = -0.49204 -0.18532
# Poissons Ratio (y) = -0.25988 -0.06215
# Poissons Ratio (z) = -0.40837 -0.25932
#
# Static dielectric constant tensor:
#      x y z
#    x 1.781420 0.000000 0.000000 
#    y 0.000000 1.882830 0.000000 
#    z 0.000000 0.000000 1.789450 
# 
# From -- ./inp_files/7940.got.cif
#   From: 2010.05.17/outbox.cif.g08.bks.cpg/sg55_4_cif.got.tgz:7940.got - 2010.06.03 13:27:54.
