data_PCOD9428557
_publ_section_title
;
Structure prediction by ZEFSAII (Michael W. Deem and Ramdas Pophale) SiO2 
 PCOD9428557
Probable space group: P B A M
;
_chemical_formula_sum "Si O2"
_cell_formula_units_Z 26
_cell_length_a 28.459788
_cell_length_b 4.977564
_cell_length_c 7.107381
_cell_angle_alpha 90.000000
_cell_angle_beta 90.000000
_cell_angle_gamma 90.000000
_cell_volume 1006.834551
_symmetry_space_group_name_H-M "P B A M"
_symmetry_group_IT_number 55
_symmetry_cell_setting 'orthorhombic'
loop_
_space_group_symop_operation_xyz
x,y,z
-x,-y,z
1/2+x,1/2-y,-z
1/2-x,1/2+y,-z
-x,-y,-z
x,y,-z
1/2-x,1/2+y,z
1/2+x,1/2-y,z
loop_
_atom_site_type_symbol
_atom_site_label
_atom_site_fract_x
_atom_site_fract_y
_atom_site_fract_z
Si Si1 0.278021 0.103146 0.771550
Si Si2 0.500000 0.500000 0.500000
Si Si3 0.935907 0.664365 0.774128
Si Si4 0.877357 0.167728 0.773864
O O1 0.236274 0.304932 0.715999
O O2 0.327473 0.222528 0.707494
O O3 0.279774 0.101681 0.000000
O O4 0.477956 0.702277 0.336956
O O5 0.918848 0.369367 0.714366
O O6 0.891916 0.864899 0.731047
O O7 0.944076 0.665804 0.000000
O O8 0.875842 0.183701 0.000000
#
# Coordination Sequence:
#
# PCOD9428557 Si02
#       4
#     8   2   8   8
#     4   9  15  24  45  79 114 147 187 227 264 321
#     4  12  26  42  64  88 108 146 194 242 292 344
#     4  10  22  39  59  84 116 149 187 235 287 342
#     4   9  18  34  54  81 119 155 185 230 285 332
#
# _framework density 25.823509999999999
#
# number of rings (size 3 to 8) (size 9 to 14) (size 15 to 20)
#    0.000    2.462    0.000    2.308    0.000   11.077 
#    0.000    4.615    0.000    0.000    0.000   21.538 
#    0.000    0.000    0.000    0.000    0.000    6.154 
#
# Total GULP energy -145102.451755 kJ/mol
# GULP energy per Si atom -5580.863529 kJ/mol
# Density = 2.576473 g / cm^3
# Si number density = 25.823510 Si / 1000 Ang^3
#
#
#
# Elastic Constant Matrix: (Units=GPa)
#
#
# Indices 1 2 3 4 5 6 
#
# 1 90.6429 -5.5248 -4.4901 0.0000 0.0000 0.0000
# 2 -5.5248 83.3442 -10.5554 0.0000 0.0000 0.0000
# 3 -4.4901 -10.5554 163.1245 0.0000 0.0000 0.0000
# 4 0.0000 0.0000 0.0000 -78.1703 0.0000 0.0000
# 5 0.0000 0.0000 0.0000 0.0000 126.1457 0.0000
# 6 0.0000 0.0000 0.0000 0.0000 0.0000 38.5327
#
#
#
# Elastic Compliance Matrix: (Units=1/GPa)
#
#
# Indices 1 2 3 4 5 6 
#
# 1 0.011098 0.000781 0.000356 0.000000 0.000000 0.000000
# 2 0.000781 0.012152 0.000808 0.000000 0.000000 0.000000
# 3 0.000356 0.000808 0.006192 0.000000 0.000000 0.000000
# 4 0.000000 0.000000 0.000000 -0.012793 0.000000 0.000000
# 5 0.000000 0.000000 0.000000 0.000000 0.007927 0.000000
# 6 0.000000 0.000000 0.000000 0.000000 0.000000 0.025952
#
#
# Mechanical properties :
#
#
# Convention : Reuss Voigt Hill
#
# Bulk Modulus (GPa) = 30.00165 32.88568 31.44366
# Shear Modulus (GPa) = 86.57932 41.14709 63.86321
#
# Velocity S-wave (km/s) = 5.79656 3.99607 4.97839
# Velocity P-wave (km/s) = 7.51288 5.83557 6.72671
#
# Compressibility (1/GPa) = 0.03333150
#
# Stress axis : x y z
#
# Youngs Moduli (GPa) = 90.11019 82.28762 161.48937
#
# Poissons Ratio (x) = -0.06424 -0.05749
# Poissons Ratio (y) = -0.07035 -0.13046
# Poissons Ratio (z) = -0.03208 -0.06648
#
# Static dielectric constant tensor:
#      x y z
#    x 2.041480 0.000000 0.000000 
#    y 0.000000 1.927410 0.000000 
#    z 0.000000 0.000000 2.026630 
# 
# From -- ./inp_files/1172.got.cif
#   From: 2010.05.17/outbox.cif.g08.bks.cpg/sg55_1_cif.got.tgz:1172.got - 2010.06.03 13:27:54.
