data_PCOD9429107
_publ_section_title
;
Structure prediction by ZEFSAII (Michael W. Deem and Ramdas Pophale) SiO2 
 PCOD9429107
Probable space group: P B A M
;
_chemical_formula_sum "Si O2"
_cell_formula_units_Z 48
_cell_length_a 8.605003
_cell_length_b 15.872890
_cell_length_c 16.688180
_cell_angle_alpha 90.000000
_cell_angle_beta 90.000000
_cell_angle_gamma 90.000000
_cell_volume 2279.376194
_symmetry_space_group_name_H-M "P B A M"
_symmetry_group_IT_number 55
_symmetry_cell_setting 'orthorhombic'
loop_
_space_group_symop_operation_xyz
x,y,z
-x,-y,z
1/2+x,1/2-y,-z
1/2-x,1/2+y,-z
-x,-y,-z
x,y,-z
1/2-x,1/2+y,z
1/2+x,1/2-y,z
loop_
_atom_site_type_symbol
_atom_site_label
_atom_site_fract_x
_atom_site_fract_y
_atom_site_fract_z
Si Si1 0.311378 0.493195 0.408403
Si Si2 0.035828 0.344599 0.000000
Si Si3 0.122195 0.938312 0.847773
Si Si4 0.277138 0.651990 0.700117
Si Si5 0.589324 0.656636 0.000000
Si Si6 0.880355 0.435295 0.848748
Si Si7 0.151069 0.836130 0.300869
O O1 0.500000 0.500000 0.409669
O O2 0.256689 0.491540 0.500000
O O3 0.248219 0.574315 0.360551
O O4 0.283289 0.406025 0.361726
O O5 0.222562 0.343655 0.000000
O O6 0.966552 0.388918 0.079071
O O7 0.976340 0.249457 0.000000
O O8 0.039249 0.891363 0.920015
O O9 0.195145 0.870668 0.787543
O O10 0.249757 0.001492 0.881792
O O11 0.000000 0.000000 0.802735
O O12 0.201358 0.625376 0.784935
O O13 0.463435 0.662638 0.702254
O O14 0.207882 0.743017 0.679149
O O15 0.000000 0.500000 0.806761
#
# Coordination Sequence:
#
# PCOD9429107 Si02
#       7
#     8   4   8   8   4   8   8
#     4   9  19  41  67  93 130 171 209 258 318 386
#     4  12  28  43  58  91 127 168 223 272 331 385
#     4  12  23  43  66  91 124 169 219 267 330 392
#     4  11  24  40  66  98 130 169 215 265 323 388
#     4  12  28  42  60  91 127 169 221 274 323 389
#     4  12  24  43  67  88 127 171 220 272 330 385
#     4  11  23  41  64  98 130 167 217 263 321 390
#
# _framework density 21.058392999999999
#
# number of rings (size 3 to 8) (size 9 to 14) (size 15 to 20)
#    0.000    0.833    5.000    2.500    4.667    3.333 
#    0.000    0.000    0.000    3.500    0.000    0.000 
#    0.000    0.000    0.000    0.000    0.000    0.000 
#
# Total GULP energy -268296.647382 kJ/mol
# GULP energy per Si atom -5589.513487 kJ/mol
# Density = 2.101046 g / cm^3
# Si number density = 21.058393 Si / 1000 Ang^3
#
#
#
# Elastic Constant Matrix: (Units=GPa)
#
#
# Indices 1 2 3 4 5 6 
#
# 1 64.2890 43.6670 13.4753 0.0000 0.0000 0.0000
# 2 43.6670 193.9382 70.3747 0.0000 0.0000 0.0000
# 3 13.4753 70.3747 126.2444 0.0000 0.0000 0.0000
# 4 0.0000 0.0000 0.0000 9.5767 0.0000 0.0000
# 5 0.0000 0.0000 0.0000 0.0000 8.7908 0.0000
# 6 0.0000 0.0000 0.0000 0.0000 0.0000 45.3907
#
#
#
# Elastic Compliance Matrix: (Units=1/GPa)
#
#
# Indices 1 2 3 4 5 6 
#
# 1 0.018382 -0.004296 0.000433 0.000000 0.000000 0.000000
# 2 -0.004296 0.007468 -0.003704 0.000000 0.000000 0.000000
# 3 0.000433 -0.003704 0.009940 0.000000 0.000000 0.000000
# 4 0.000000 0.000000 0.000000 0.104421 0.000000 0.000000
# 5 0.000000 0.000000 0.000000 0.000000 0.113755 0.000000
# 6 0.000000 0.000000 0.000000 0.000000 0.000000 0.022031
#
#
# Mechanical properties :
#
#
# Convention : Reuss Voigt Hill
#
# Bulk Modulus (GPa) = 48.41557 71.05617 59.73587
# Shear Modulus (GPa) = 16.77762 29.88194 23.32978
#
# Velocity S-wave (km/s) = 2.82568 3.77105 3.33207
# Velocity P-wave (km/s) = 5.80405 7.26477 6.57510
#
# Compressibility (1/GPa) = 0.02065451
#
# Stress axis : x y z
#
# Youngs Moduli (GPa) = 54.40116 133.90948 100.60430
#
# Poissons Ratio (x) = 0.57526 -0.04353
# Poissons Ratio (y) = 0.23370 0.37267
# Poissons Ratio (z) = -0.02354 0.49605
#
# Static dielectric constant tensor:
#      x y z
#    x 1.810770 0.000000 0.000000 
#    y 0.000000 1.738070 0.000000 
#    z 0.000000 0.000000 1.744130 
# 
# From -- ./inp_files/20815.got.cif
#   From: 2010.05.17/outbox.cif.g08.bks.cpg/sg55_11_cif.got.tgz:20815.got - 2010.06.03 13:27:54.
