data_PCOD9429217
_publ_section_title
;
Structure prediction by ZEFSAII (Michael W. Deem and Ramdas Pophale) SiO2 
 PCOD9429217
Probable space group: P B A M
;
_chemical_formula_sum "Si O2"
_cell_formula_units_Z 28
_cell_length_a 10.156633
_cell_length_b 9.446958
_cell_length_c 10.351601
_cell_angle_alpha 90.000000
_cell_angle_beta 90.000000
_cell_angle_gamma 90.000000
_cell_volume 993.228718
_symmetry_space_group_name_H-M "P B A M"
_symmetry_group_IT_number 55
_symmetry_cell_setting 'orthorhombic'
loop_
_space_group_symop_operation_xyz
x,y,z
-x,-y,z
1/2+x,1/2-y,-z
1/2-x,1/2+y,-z
-x,-y,-z
x,y,-z
1/2-x,1/2+y,z
1/2+x,1/2-y,z
loop_
_atom_site_type_symbol
_atom_site_label
_atom_site_fract_x
_atom_site_fract_y
_atom_site_fract_z
Si Si1 0.791278 0.967725 0.278168
Si Si2 0.578796 0.661261 0.500000
Si Si3 0.429890 0.816743 0.274013
Si Si4 0.570981 0.832474 0.000000
Si Si5 0.284998 0.443168 0.000000
O O1 0.869930 0.047494 0.389117
O O2 0.644808 0.033432 0.285749
O O3 0.842890 0.005358 0.135220
O O4 0.812598 0.800689 0.291020
O O5 0.525656 0.769697 0.387299
O O6 0.495036 0.803129 0.133177
O O7 0.696227 0.724549 0.000000
O O8 0.359939 0.013830 0.000000
#
# Coordination Sequence:
#
# PCOD9429217 Si02
#       5
#     8   4   8   4   4
#     4  12  26  50  79 119 164 208 278 329 398 499
#     4  12  27  50  81 115 166 231 262 331 414 480
#     4  12  27  51  80 117 164 215 267 337 411 476
#     4  12  28  54  84 120 164 214 275 348 419 480
#     4  12  26  52  82 122 152 212 282 341 406 501
#
# _framework density 28.190888999999999
#
# number of rings (size 3 to 8) (size 9 to 14) (size 15 to 20)
#    0.000    0.000    2.857    6.857    0.000    3.429 
#    0.000    1.429    0.000    0.000    0.000    0.000 
#    0.000    0.000    0.000    0.000    0.000    0.000 
#
# Total GULP energy -156233.876651 kJ/mol
# GULP energy per Si atom -5579.781309 kJ/mol
# Density = 2.812673 g / cm^3
# Si number density = 28.190889 Si / 1000 Ang^3
#
#
#
# Elastic Constant Matrix: (Units=GPa)
#
#
# Indices 1 2 3 4 5 6 
#
# 1 155.0110 48.2803 85.1779 0.0000 0.0000 0.0000
# 2 48.2803 150.8104 61.2593 0.0000 0.0000 0.0000
# 3 85.1779 61.2593 316.6914 0.0000 0.0000 0.0000
# 4 0.0000 0.0000 0.0000 135.0558 0.0000 0.0000
# 5 0.0000 0.0000 0.0000 0.0000 -8.6293 0.0000
# 6 0.0000 0.0000 0.0000 0.0000 0.0000 67.5725
#
#
#
# Elastic Compliance Matrix: (Units=1/GPa)
#
#
# Indices 1 2 3 4 5 6 
#
# 1 0.008011 -0.001834 -0.001800 0.000000 0.000000 0.000000
# 2 -0.001834 0.007616 -0.000980 0.000000 0.000000 0.000000
# 3 -0.001800 -0.000980 0.003831 0.000000 0.000000 0.000000
# 4 0.000000 0.000000 0.000000 0.007404 0.000000 0.000000
# 5 0.000000 0.000000 0.000000 0.000000 -0.115884 0.000000
# 6 0.000000 0.000000 0.000000 0.000000 0.000000 0.014799
#
#
# Mechanical properties :
#
#
# Convention : Reuss Voigt Hill
#
# Bulk Modulus (GPa) = 97.73895 112.43863 105.08879
# Shear Modulus (GPa) = -81.19004 67.31947 -6.93529
#
# Velocity S-wave (km/s) = -5.37239 4.89200 -1.57018
# Velocity P-wave (km/s) = 1.93334 8.47822 5.83706
#
# Compressibility (1/GPa) = 0.01023134
#
# Stress axis : x y z
#
# Youngs Moduli (GPa) = 124.82249 131.30373 261.00304
#
# Poissons Ratio (x) = 0.24075 0.46983
# Poissons Ratio (y) = 0.22887 0.25579
# Poissons Ratio (z) = 0.22469 0.12868
#
# Static dielectric constant tensor:
#      x y z
#    x 2.370580 0.000000 0.000000 
#    y 0.000000 2.196520 0.000000 
#    z 0.000000 0.000000 2.038990 
# 
# From -- ./inp_files/12746.got.cif
#   From: 2010.05.17/outbox.cif.g08.bks.cpg/sg55_7_cif.got.tgz:12746.got - 2010.06.03 13:27:54.
