data_PCOD9429910
_publ_section_title
;
Structure prediction by ZEFSAII (Michael W. Deem and Ramdas Pophale) SiO2 
 PCOD9429910
Probable space group: P C C N
;
_chemical_formula_sum "Si O2"
_cell_formula_units_Z 48
_cell_length_a 8.758163
_cell_length_b 13.208311
_cell_length_c 15.323838
_cell_angle_alpha 90.000000
_cell_angle_beta 90.000000
_cell_angle_gamma 90.000000
_cell_volume 1772.669865
_symmetry_space_group_name_H-M "P C C N"
_symmetry_group_IT_number 56
_symmetry_cell_setting 'orthorhombic'
loop_
_space_group_symop_operation_xyz
x,y,z
1/2-x,1/2-y,z
1/2+x,-y,1/2-z
-x,1/2+y,1/2-z
-x,-y,-z
1/2+x,1/2+y,-z
1/2-x,y,1/2+z
x,1/2-y,1/2+z
loop_
_atom_site_type_symbol
_atom_site_label
_atom_site_fract_x
_atom_site_fract_y
_atom_site_fract_z
Si Si1 0.580248 0.846987 0.458714
Si Si2 0.703123 0.033285 0.928096
Si Si3 0.099146 0.195507 0.229407
Si Si4 0.197200 0.486155 0.255222
Si Si5 0.749752 0.128970 0.092177
Si Si6 0.020288 0.667846 0.641748
O O1 0.585416 0.777136 0.372568
O O2 0.419210 0.903167 0.441586
O O3 0.562906 0.796469 0.552521
O O4 0.714734 0.928530 0.456360
O O5 0.823747 0.116108 0.889135
O O6 0.618240 0.007217 0.838138
O O7 0.640125 0.083441 0.017010
O O8 0.250000 0.250000 0.264081
O O9 0.150655 0.079826 0.233332
O O10 0.968266 0.240230 0.289807
O O11 0.253354 0.580482 0.312663
O O12 0.084555 0.418038 0.313471
O O13 0.750000 0.250000 0.091916
#
# Coordination Sequence:
#
# PCOD9429910 Si02
#       6
#     8   8   8   8   8   8
#     4  10  19  39  61  78 116 158 190 228 284 354
#     4  10  20  38  62  79 115 155 192 229 286 348
#     4   9  21  34  56  90 112 144 196 238 282 329
#     4  10  20  37  58  86 110 149 187 242 275 332
#     4  11  22  37  58  87 112 151 194 231 290 339
#     4  10  18  38  61  84 113 151 193 226 285 347
#
# _framework density 27.077798999999999
#
# number of rings (size 3 to 8) (size 9 to 14) (size 15 to 20)
#    0.000    2.000    3.333    1.000    2.333    2.667 
#    6.000    0.000    0.000    5.000    0.000    0.000 
#    0.000    0.000    0.000    0.000    0.000    0.000 
#
# Total GULP energy -268368.508130 kJ/mol
# GULP energy per Si atom -5591.010586 kJ/mol
# Density = 2.701617 g / cm^3
# Si number density = 27.077799 Si / 1000 Ang^3
#
#
#
# Elastic Constant Matrix: (Units=GPa)
#
#
# Indices 1 2 3 4 5 6 
#
# 1 37.5899 -4.9807 -0.9884 0.0000 0.0000 0.0000
# 2 -4.9807 103.1308 61.1294 0.0000 0.0000 0.0000
# 3 -0.9884 61.1294 214.1785 0.0000 0.0000 0.0000
# 4 0.0000 0.0000 0.0000 54.0786 0.0000 0.0000
# 5 0.0000 0.0000 0.0000 0.0000 26.4594 0.0000
# 6 0.0000 0.0000 0.0000 0.0000 0.0000 35.1934
#
#
#
# Elastic Compliance Matrix: (Units=1/GPa)
#
#
# Indices 1 2 3 4 5 6 
#
# 1 0.026790 0.001469 -0.000296 0.000000 0.000000 0.000000
# 2 0.001469 0.011751 -0.003347 0.000000 0.000000 0.000000
# 3 -0.000296 -0.003347 0.005623 0.000000 0.000000 0.000000
# 4 0.000000 0.000000 0.000000 0.018492 0.000000 0.000000
# 5 0.000000 0.000000 0.000000 0.000000 0.037794 0.000000
# 6 0.000000 0.000000 0.000000 0.000000 0.000000 0.028414
#
#
# Mechanical properties :
#
#
# Convention : Reuss Voigt Hill
#
# Bulk Modulus (GPa) = 25.11521 51.69109 38.40315
# Shear Modulus (GPa) = 34.13346 43.12885 38.63116
#
# Velocity S-wave (km/s) = 3.55430 3.99529 3.78123
# Velocity P-wave (km/s) = 5.11267 6.35723 5.76861
#
# Compressibility (1/GPa) = 0.03981651
#
# Stress axis : x y z
#
# Youngs Moduli (GPa) = 37.32765 85.09626 177.84155
#
# Poissons Ratio (x) = -0.12501 0.05258
# Poissons Ratio (y) = -0.05484 0.59528
# Poissons Ratio (z) = 0.01104 0.28484
#
# Static dielectric constant tensor:
#      x y z
#    x 2.241240 0.000000 0.000000 
#    y 0.000000 2.166070 0.000000 
#    z 0.000000 0.000000 2.162280 
# 
# From -- ./inp_files/7802.got.cif
#   From: 2010.05.17/outbox.cif.g08.bks.cpg/sg56_4_cif.got.tgz:7802.got - 2010.06.03 13:42:01.
