data_PCOD9429480
_publ_section_title
;
Structure prediction by ZEFSAII (Michael W. Deem and Ramdas Pophale) SiO2 
 PCOD9429480
Probable space group: P B A M
;
_chemical_formula_sum "Si O2"
_cell_formula_units_Z 40
_cell_length_a 12.000000
_cell_length_b 9.000000
_cell_length_c 18.000000
_cell_angle_alpha 90.000000
_cell_angle_beta 90.000000
_cell_angle_gamma 90.000000
_cell_volume 1944.000000
_symmetry_space_group_name_H-M "P B A M"
_symmetry_group_IT_number 55
_symmetry_cell_setting 'orthorhombic'
loop_
_space_group_symop_operation_xyz
x,y,z
-x,-y,z
1/2+x,1/2-y,-z
1/2-x,1/2+y,-z
-x,-y,-z
x,y,-z
1/2-x,1/2+y,z
1/2+x,1/2-y,z
loop_
_atom_site_type_symbol
_atom_site_label
_atom_site_fract_x
_atom_site_fract_y
_atom_site_fract_z
Si Si1 0.626055 0.067324 0.588187
Si Si2 0.854294 0.885320 0.828980
Si Si3 0.047861 0.668317 0.785683
Si Si4 0.245877 0.673753 0.677237
Si Si5 0.819119 0.200168 0.089353
O O1 0.634145 0.105995 0.500000
O O2 0.669919 0.201755 0.642871
O O3 0.500000 0.000000 0.599923
O O4 0.709963 0.934867 0.610971
O O5 0.793126 0.912770 0.749911
O O6 0.800973 0.755217 0.881111
O O7 0.962549 0.802494 0.798127
O O8 0.851168 0.037472 0.876919
O O9 0.129284 0.719819 0.718104
O O10 0.109965 0.675135 0.865816
O O11 0.000000 0.500000 0.773445
O O12 0.828997 0.201406 0.000000
#
# Coordination Sequence:
#
# PCOD9429480 Si02
#       5
#     8   8   8   8   8
#     4  11  24  42  66  97 133 171 212 266 332 395
#     4  11  22  39  62  89 123 168 223 277 333 397
#     4  11  23  40  64  93 124 169 226 280 337 394
#     4  11  21  41  67  92 126 167 216 268 323 394
#     4  11  24  39  59  89 127 172 221 276 335 396
#
# _framework density 20.576132000000001
#
# number of rings (size 3 to 8) (size 9 to 14) (size 15 to 20)
#    0.000    1.000    0.000    9.600    0.000    2.800 
#    0.000    3.000    0.000    7.200    0.000    0.000 
#    0.000    0.000    0.000    0.000    0.000    0.000 
#
# Total GULP energy -222745.982947 kJ/mol
# GULP energy per Si atom -5568.649574 kJ/mol
# Density = 2.052930 g / cm^3
# Si number density = 20.576132 Si / 1000 Ang^3
#
#
#
# Elastic Constant Matrix: (Units=GPa)
#
#
# Indices 1 2 3 4 5 6 
#
# 1 58.5073 27.1650 37.2215 0.0000 0.0000 0.0000
# 2 27.1650 114.1407 47.1150 0.0000 0.0000 0.0000
# 3 37.2215 47.1150 182.9631 0.0000 0.0000 0.0000
# 4 0.0000 0.0000 0.0000 46.7750 0.0000 0.0000
# 5 0.0000 0.0000 0.0000 0.0000 24.3227 0.0000
# 6 0.0000 0.0000 0.0000 0.0000 0.0000 39.4789
#
#
#
# Elastic Compliance Matrix: (Units=1/GPa)
#
#
# Indices 1 2 3 4 5 6 
#
# 1 0.020874 -0.003598 -0.003320 0.000000 0.000000 0.000000
# 2 -0.003598 0.010423 -0.001952 0.000000 0.000000 0.000000
# 3 -0.003320 -0.001952 0.006644 0.000000 0.000000 0.000000
# 4 0.000000 0.000000 0.000000 0.021379 0.000000 0.000000
# 5 0.000000 0.000000 0.000000 0.000000 0.041114 0.000000
# 6 0.000000 0.000000 0.000000 0.000000 0.000000 0.025330
#
#
# Mechanical properties :
#
#
# Convention : Reuss Voigt Hill
#
# Bulk Modulus (GPa) = 49.50135 64.29046 56.89590
# Shear Modulus (GPa) = 33.28055 38.38931 35.83493
#
# Velocity S-wave (km/s) = 4.02610 4.32408 4.17775
# Velocity P-wave (km/s) = 6.76184 7.49955 7.14023
#
# Compressibility (1/GPa) = 0.02020147
#
# Stress axis : x y z
#
# Youngs Moduli (GPa) = 47.90534 95.94041 150.51716
#
# Poissons Ratio (x) = 0.34515 0.49975
# Poissons Ratio (y) = 0.17234 0.29384
# Poissons Ratio (z) = 0.15906 0.18730
#
# Static dielectric constant tensor:
#      x y z
#    x 2.000910 0.000000 0.000000 
#    y 0.000000 1.716040 0.000000 
#    z 0.000000 0.000000 1.710580 
# 
# From -- ./inp_files/20606.got.cif
#   From: 2010.05.17/outbox.ucp.g08.bks.cvg/sg55_11_cif.got.tgz:20606.got - 2010.06.11 16:36:00.
