data_PCOD9429720
_publ_section_title
;
Structure prediction by ZEFSAII (Michael W. Deem and Ramdas Pophale) SiO2 
 PCOD9429720
Probable space group: P C C N
;
_chemical_formula_sum "Si O2"
_cell_formula_units_Z 56
_cell_length_a 9.531326
_cell_length_b 13.587323
_cell_length_c 19.551702
_cell_angle_alpha 90.000000
_cell_angle_beta 90.000000
_cell_angle_gamma 90.000000
_cell_volume 2532.047175
_symmetry_space_group_name_H-M "P C C N"
_symmetry_group_IT_number 56
_symmetry_cell_setting 'orthorhombic'
loop_
_space_group_symop_operation_xyz
x,y,z
1/2-x,1/2-y,z
1/2+x,-y,1/2-z
-x,1/2+y,1/2-z
-x,-y,-z
1/2+x,1/2+y,-z
1/2-x,y,1/2+z
x,1/2-y,1/2+z
loop_
_atom_site_type_symbol
_atom_site_label
_atom_site_fract_x
_atom_site_fract_y
_atom_site_fract_z
Si Si1 0.393111 0.534649 0.662888
Si Si2 0.407875 0.793417 0.495241
Si Si3 0.750000 0.750000 0.205651
Si Si4 0.806827 0.087343 0.121461
Si Si5 0.999050 0.408566 0.052038
Si Si6 0.750000 0.250000 0.733472
Si Si7 0.451372 0.742680 0.143197
Si Si8 0.300997 0.460158 0.270711
O O1 0.393845 0.445513 0.609506
O O2 0.404266 0.643120 0.629526
O O3 0.537087 0.525737 0.707918
O O4 0.257657 0.525311 0.709742
O O5 0.250000 0.750000 0.488816
O O6 0.412559 0.880146 0.438642
O O7 0.510879 0.701230 0.478221
O O8 0.422441 0.819163 0.575037
O O9 0.614179 0.742394 0.158715
O O10 0.773782 0.652111 0.248519
O O11 0.652691 0.091155 0.088087
O O12 0.810690 0.168717 0.181638
O O13 0.798275 0.985740 0.163458
O O14 0.000000 0.500000 0.000000
O O15 0.627391 0.281609 0.785869
#
# Coordination Sequence:
#
# PCOD9429720 Si02
#       8
#     8   8   4   8   8   4   8   8
#     4  10  21  36  61  87 122 157 203 250 308 371
#     4  10  19  36  57  90 120 153 210 268 299 361
#     4  10  26  40  58  84 138 166 194 254 324 388
#     4  10  21  36  60  92 124 152 208 271 310 348
#     4  10  18  31  57  88 120 157 197 253 307 369
#     4  12  20  34  66  98 118 154 212 268 300 358
#     4  11  22  37  60  91 121 163 209 250 314 374
#     4  10  22  41  59  91 122 164 202 254 316 368
#
# _framework density 22.116491
#
# number of rings (size 3 to 8) (size 9 to 14) (size 15 to 20)
#    0.000    1.714    5.714    0.000    4.000    0.000 
#    0.000    0.714    3.143    0.857    0.000    0.000 
#    0.000    0.000    0.000    0.000    0.000    0.000 
#
# Total GULP energy -312172.311625 kJ/mol
# GULP energy per Si atom -5574.505565 kJ/mol
# Density = 2.206615 g / cm^3
# Si number density = 22.116491 Si / 1000 Ang^3
#
#
#
# Elastic Constant Matrix: (Units=GPa)
#
#
# Indices 1 2 3 4 5 6 
#
# 1 45.9144 11.8702 26.6857 0.0000 0.0000 0.0000
# 2 11.8702 57.0276 17.1762 0.0000 0.0000 0.0000
# 3 26.6857 17.1762 120.0725 0.0000 0.0000 0.0000
# 4 0.0000 0.0000 0.0000 -0.1838 0.0000 0.0000
# 5 0.0000 0.0000 0.0000 0.0000 12.6535 0.0000
# 6 0.0000 0.0000 0.0000 0.0000 0.0000 19.9006
#
#
#
# Elastic Compliance Matrix: (Units=1/GPa)
#
#
# Indices 1 2 3 4 5 6 
#
# 1 0.025776 -0.003804 -0.005185 0.000000 0.000000 0.000000
# 2 -0.003804 0.018886 -0.001856 0.000000 0.000000 0.000000
# 3 -0.005185 -0.001856 0.009746 0.000000 0.000000 0.000000
# 4 0.000000 0.000000 0.000000 -5.441293 0.000000 0.000000
# 5 0.000000 0.000000 0.000000 0.000000 0.079030 0.000000
# 6 0.000000 0.000000 0.000000 0.000000 0.000000 0.050250
#
#
# Mechanical properties :
#
#
# Convention : Reuss Voigt Hill
#
# Bulk Modulus (GPa) = 30.56288 37.16429 33.86358
# Shear Modulus (GPa) = -0.95694 17.62621 8.33464
#
# Velocity S-wave (km/s) = -0.65850 2.82613 1.94337
# Velocity P-wave (km/s) = 3.64292 5.24306 4.51445
#
# Compressibility (1/GPa) = 0.03271943
#
# Stress axis : x y z
#
# Youngs Moduli (GPa) = 38.79523 52.94864 102.60519
#
# Poissons Ratio (x) = 0.20140 0.53197
# Poissons Ratio (y) = 0.14757 0.19046
# Poissons Ratio (z) = 0.20114 0.09829
#
# Static dielectric constant tensor:
#      x y z
#    x 1.798470 0.000000 0.000000 
#    y 0.000000 1.896140 0.000000 
#    z 0.000000 0.000000 1.811670 
# 
# From -- ./inp_files/18272.got.cif
#   From: 2010.05.17/outbox.cif.g08.bks.cpg/sg56_10_cif.got.tgz:18272.got - 2010.06.03 13:42:01.
