data_PCOD9429142
_publ_section_title
;
Structure prediction by ZEFSAII (Michael W. Deem and Ramdas Pophale) SiO2 
 PCOD9429142
Probable space group: P B A M
;
_chemical_formula_sum "Si O2"
_cell_formula_units_Z 64
_cell_length_a 8.677440
_cell_length_b 22.420703
_cell_length_c 15.077791
_cell_angle_alpha 90.000000
_cell_angle_beta 90.000000
_cell_angle_gamma 90.000000
_cell_volume 2933.449150
_symmetry_space_group_name_H-M "P B A M"
_symmetry_group_IT_number 55
_symmetry_cell_setting 'orthorhombic'
loop_
_space_group_symop_operation_xyz
x,y,z
-x,-y,z
1/2+x,1/2-y,-z
1/2-x,1/2+y,-z
-x,-y,-z
x,y,-z
1/2-x,1/2+y,z
1/2+x,1/2-y,z
loop_
_atom_site_type_symbol
_atom_site_label
_atom_site_fract_x
_atom_site_fract_y
_atom_site_fract_z
Si Si1 0.943990 0.105321 0.902254
Si Si2 0.902175 0.782997 0.179704
Si Si3 0.576316 0.939360 0.771954
Si Si4 0.561913 0.440269 0.727057
Si Si5 0.393579 0.351799 0.400925
Si Si6 0.458416 0.882736 0.397613
Si Si7 0.366826 0.229701 0.312779
Si Si8 0.595643 0.152866 0.899894
O O1 0.765972 0.124901 0.899663
O O2 0.057340 0.161488 0.882138
O O3 0.967719 0.063930 0.818448
O O4 0.978119 0.081172 0.000000
O O5 0.778906 0.794471 0.258184
O O6 0.875480 0.721761 0.126460
O O7 0.052255 0.765988 0.234499
O O8 0.760048 0.941267 0.757170
O O9 0.512914 0.930959 0.672610
O O10 0.513675 0.883812 0.831953
O O11 0.500000 0.000000 0.809395
O O12 0.500000 0.500000 0.680183
O O13 0.508651 0.384465 0.666744
O O14 0.457031 0.357284 0.500000
O O15 0.349819 0.282511 0.383558
O O16 0.226250 0.381970 0.394183
O O17 0.506412 0.889989 0.500000
O O18 0.531586 0.821696 0.357423
O O19 0.531895 0.149840 0.000000
#
# Coordination Sequence:
#
# PCOD9429142 Si02
#       8
#     8   8   8   8   8   8   8   8
#     4  11  24  42  66  99 135 174 219 271 326 387
#     4  12  21  39  66  96 135 178 217 260 321 382
#     4  12  26  46  70  94 126 171 220 275 333 393
#     4  12  26  46  70  94 126 171 220 275 333 393
#     4  11  24  43  67  97 135 175 218 269 328 392
#     4  11  24  42  66  99 135 174 219 271 326 387
#     4  12  21  39  66  96 135 178 217 260 321 382
#     4  11  24  43  67  97 135 175 218 269 328 392
#
# _framework density 21.817321
#
# number of rings (size 3 to 8) (size 9 to 14) (size 15 to 20)
#    0.000    0.500    5.000    3.750    0.000    2.000 
#    0.000    0.000    0.000    0.000    0.000    0.000 
#    0.000    0.000    0.000    0.000    0.000    0.000 
#
# Total GULP energy -357343.826861 kJ/mol
# GULP energy per Si atom -5583.497295 kJ/mol
# Density = 2.176766 g / cm^3
# Si number density = 21.817321 Si / 1000 Ang^3
#
#
#
# Elastic Constant Matrix: (Units=GPa)
#
#
# Indices 1 2 3 4 5 6 
#
# 1 90.2607 20.6773 29.4089 0.0000 0.0000 0.0000
# 2 20.6773 74.6974 24.6504 0.0000 0.0000 0.0000
# 3 29.4089 24.6504 127.1765 0.0000 0.0000 0.0000
# 4 0.0000 0.0000 0.0000 10.0617 0.0000 0.0000
# 5 0.0000 0.0000 0.0000 0.0000 403.3973 0.0000
# 6 0.0000 0.0000 0.0000 0.0000 0.0000 27.7684
#
#
#
# Elastic Compliance Matrix: (Units=1/GPa)
#
#
# Indices 1 2 3 4 5 6 
#
# 1 0.012461 -0.002669 -0.002364 0.000000 0.000000 0.000000
# 2 -0.002669 0.014874 -0.002266 0.000000 0.000000 0.000000
# 3 -0.002364 -0.002266 0.008849 0.000000 0.000000 0.000000
# 4 0.000000 0.000000 0.000000 0.099387 0.000000 0.000000
# 5 0.000000 0.000000 0.000000 0.000000 0.002479 0.000000
# 6 0.000000 0.000000 0.000000 0.000000 0.000000 0.036012
#
#
# Mechanical properties :
#
#
# Convention : Reuss Voigt Hill
#
# Bulk Modulus (GPa) = 46.32728 49.06754 47.69741
# Shear Modulus (GPa) = 25.52910 102.73868 64.13389
#
# Velocity S-wave (km/s) = 3.42443 6.86969 5.42768
# Velocity P-wave (km/s) = 6.07584 9.24459 7.82235
#
# Compressibility (1/GPa) = 0.02158556
#
# Stress axis : x y z
#
# Youngs Moduli (GPa) = 80.25193 67.23185 113.00780
#
# Poissons Ratio (x) = 0.17945 0.26717
# Poissons Ratio (y) = 0.21420 0.25605
# Poissons Ratio (z) = 0.18973 0.15233
#
# Static dielectric constant tensor:
#      x y z
#    x 1.851460 0.000000 0.000000 
#    y 0.000000 2.001580 0.000000 
#    z 0.000000 0.000000 1.797490 
# 
# From -- ./inp_files/17809.got.cif
#   From: 2010.05.17/outbox.cif.g08.bks.cpg/sg55_9_cif.got.tgz:17809.got - 2010.06.03 13:27:54.
