data_PCOD9429545
_publ_section_title
;
Structure prediction by ZEFSAII (Michael W. Deem and Ramdas Pophale) SiO2 
 PCOD9429545
Probable space group: P C C N
;
_chemical_formula_sum "Si O2"
_cell_formula_units_Z 64
_cell_length_a 7.710556
_cell_length_b 20.820946
_cell_length_c 17.321122
_cell_angle_alpha 90.000000
_cell_angle_beta 90.000000
_cell_angle_gamma 90.000000
_cell_volume 2780.751461
_symmetry_space_group_name_H-M "P C C N"
_symmetry_group_IT_number 56
_symmetry_cell_setting 'orthorhombic'
loop_
_space_group_symop_operation_xyz
x,y,z
1/2-x,1/2-y,z
1/2+x,-y,1/2-z
-x,1/2+y,1/2-z
-x,-y,-z
1/2+x,1/2+y,-z
1/2-x,y,1/2+z
x,1/2-y,1/2+z
loop_
_atom_site_type_symbol
_atom_site_label
_atom_site_fract_x
_atom_site_fract_y
_atom_site_fract_z
Si Si1 0.795259 0.925585 0.263819
Si Si2 0.909913 0.119182 0.844188
Si Si3 0.102668 0.183067 0.166412
Si Si4 0.579921 0.376038 0.437293
Si Si5 0.079068 0.712588 0.922644
Si Si6 0.242461 0.885927 0.819501
Si Si7 0.450541 0.010330 0.848517
Si Si8 0.545492 0.259587 0.320450
O O1 0.768967 0.859537 0.311461
O O2 0.620073 0.948099 0.223416
O O3 0.932170 0.921404 0.192434
O O4 0.870492 0.977375 0.322833
O O5 0.784563 0.109895 0.918020
O O6 0.773863 0.112749 0.772275
O O7 0.997801 0.189447 0.852825
O O8 0.066716 0.235385 0.099496
O O9 0.950730 0.130504 0.155579
O O10 0.056320 0.221384 0.244343
O O11 0.538810 0.344682 0.519063
O O12 0.477425 0.440836 0.418139
O O13 0.527687 0.317992 0.379602
O O14 0.250000 0.750000 0.954657
O O15 0.148322 0.675690 0.847434
O O16 0.317697 0.950964 0.855736
O O17 0.750000 0.250000 0.304237
#
# Coordination Sequence:
#
# PCOD9429545 Si02
#       8
#     8   8   8   8   8   8   8   8
#     4  11  22  36  62  95 131 166 220 278 315 387
#     4  10  19  34  60  91 122 160 217 268 323 369
#     4  11  18  36  62  93 121 161 213 268 327 380
#     4  11  21  37  62  90 128 168 211 263 325 397
#     4  10  21  37  63  92 121 167 213 260 329 400
#     4  10  19  35  60  88 122 163 210 260 317 391
#     4  11  22  37  57  92 131 172 216 266 322 383
#     4  10  16  32  59  88 118 157 208 266 326 371
#
# _framework density 23.015362
#
# number of rings (size 3 to 8) (size 9 to 14) (size 15 to 20)
#    0.000    1.500    5.000    3.750    0.000    1.000 
#    0.000    0.000    0.000   26.250    0.000    0.000 
#    0.000    0.000    0.000    0.000    0.000    0.000 
#
# Total GULP energy -357218.230949 kJ/mol
# GULP energy per Si atom -5581.534859 kJ/mol
# Density = 2.296298 g / cm^3
# Si number density = 23.015362 Si / 1000 Ang^3
#
#
#
# Elastic Constant Matrix: (Units=GPa)
#
#
# Indices 1 2 3 4 5 6 
#
# 1 45.6767 10.7330 9.7275 0.0000 0.0000 0.0000
# 2 10.7330 98.5926 10.0369 0.0000 0.0000 0.0000
# 3 9.7275 10.0369 50.5707 0.0000 0.0000 0.0000
# 4 0.0000 0.0000 0.0000 45.6735 0.0000 0.0000
# 5 0.0000 0.0000 0.0000 0.0000 6.2140 0.0000
# 6 0.0000 0.0000 0.0000 0.0000 0.0000 48.2610
#
#
#
# Elastic Compliance Matrix: (Units=1/GPa)
#
#
# Indices 1 2 3 4 5 6 
#
# 1 0.023254 -0.002119 -0.004052 0.000000 0.000000 0.000000
# 2 -0.002119 0.010545 -0.001685 0.000000 0.000000 0.000000
# 3 -0.004052 -0.001685 0.020888 0.000000 0.000000 0.000000
# 4 0.000000 0.000000 0.000000 0.021895 0.000000 0.000000
# 5 0.000000 0.000000 0.000000 0.000000 0.160928 0.000000
# 6 0.000000 0.000000 0.000000 0.000000 0.000000 0.020721
#
#
# Mechanical properties :
#
#
# Convention : Reuss Voigt Hill
#
# Bulk Modulus (GPa) = 25.65825 28.42610 27.04217
# Shear Modulus (GPa) = 17.42556 30.98587 24.20571
#
# Velocity S-wave (km/s) = 2.75458 3.67319 3.24654
# Velocity P-wave (km/s) = 4.61405 5.51067 5.08217
#
# Compressibility (1/GPa) = 0.03897382
#
# Stress axis : x y z
#
# Youngs Moduli (GPa) = 43.00348 94.83180 47.87371
#
# Poissons Ratio (x) = 0.20094 0.19401
# Poissons Ratio (y) = 0.09112 0.08068
# Poissons Ratio (z) = 0.17427 0.15982
#
# Static dielectric constant tensor:
#      x y z
#    x 1.949950 0.000000 0.000000 
#    y 0.000000 1.919600 0.000000 
#    z 0.000000 0.000000 1.876240 
# 
# From -- ./inp_files/15211.got.cif
#   From: 2010.05.17/outbox.cif.g08.bks.cpg/sg56_8_cif.got.tgz:15211.got - 2010.06.03 13:42:01.
