data_PCOD9429713
_publ_section_title
;
Structure prediction by ZEFSAII (Michael W. Deem and Ramdas Pophale) SiO2 
 PCOD9429713
Probable space group: P C C N
;
_chemical_formula_sum "Si O2"
_cell_formula_units_Z 64
_cell_length_a 7.287569
_cell_length_b 16.127631
_cell_length_c 23.682834
_cell_angle_alpha 90.000000
_cell_angle_beta 90.000000
_cell_angle_gamma 90.000000
_cell_volume 2783.472461
_symmetry_space_group_name_H-M "P C C N"
_symmetry_group_IT_number 56
_symmetry_cell_setting 'orthorhombic'
loop_
_space_group_symop_operation_xyz
x,y,z
1/2-x,1/2-y,z
1/2+x,-y,1/2-z
-x,1/2+y,1/2-z
-x,-y,-z
1/2+x,1/2+y,-z
1/2-x,y,1/2+z
x,1/2-y,1/2+z
loop_
_atom_site_type_symbol
_atom_site_label
_atom_site_fract_x
_atom_site_fract_y
_atom_site_fract_z
Si Si1 0.471803 0.249972 0.192993
Si Si2 0.045503 0.146419 0.990999
Si Si3 0.538526 0.246719 0.822624
Si Si4 0.467518 0.097381 0.615483
Si Si5 0.019151 0.402916 0.120300
Si Si6 0.451214 0.586766 0.617967
Si Si7 0.968455 0.418367 0.367850
Si Si8 0.487594 0.162307 0.998004
O O1 0.250000 0.250000 0.193901
O O2 0.534978 0.267310 0.256095
O O3 0.528386 0.321785 0.149579
O O4 0.532575 0.160763 0.169447
O O5 0.983328 0.105366 0.049557
O O6 0.266806 0.152539 0.993632
O O7 0.972348 0.240760 0.988554
O O8 0.993758 0.099203 0.934335
O O9 0.750000 0.250000 0.842982
O O10 0.455799 0.168116 0.855373
O O11 0.457031 0.337118 0.836265
O O12 0.243412 0.096701 0.617532
O O13 0.535069 0.011530 0.642507
O O14 0.957971 0.497699 0.126612
O O15 0.956940 0.366426 0.060197
O O16 0.249228 0.579563 0.644581
O O17 0.431782 0.605933 0.551527
#
# Coordination Sequence:
#
# PCOD9429713 Si02
#       8
#     8   8   8   8   8   8   8   8
#     4  10  20  37  58  76  96 133 183 222 253 298
#     4  10  18  31  54  81 108 134 167 212 256 301
#     4  10  22  37  50  72 106 139 171 214 261 304
#     4   9  18  34  56  79 103 135 172 212 258 305
#     4   9  18  34  56  79 103 135 172 212 258 305
#     4  10  20  35  54  76 107 142 170 202 256 317
#     4  10  20  35  54  76 107 142 170 202 256 317
#     4  10  18  31  54  81 108 134 167 212 256 301
#
# _framework density 22.992864000000001
#
# number of rings (size 3 to 8) (size 9 to 14) (size 15 to 20)
#    0.000    2.250    2.500    0.750    0.000    2.000 
#    0.000    2.500    0.000    0.000    0.000    0.000 
#    0.000    0.000    0.000    0.000    0.000    0.000 
#
# Total GULP energy -357730.261259 kJ/mol
# GULP energy per Si atom -5589.535332 kJ/mol
# Density = 2.294053 g / cm^3
# Si number density = 22.992864 Si / 1000 Ang^3
#
#
#
# Elastic Constant Matrix: (Units=GPa)
#
#
# Indices 1 2 3 4 5 6 
#
# 1 65.7987 -30.6789 -38.0279 0.0000 0.0000 0.0000
# 2 -30.6789 137.8987 5.4298 0.0000 0.0000 0.0000
# 3 -38.0279 5.4298 71.4412 0.0000 0.0000 0.0000
# 4 0.0000 0.0000 0.0000 7.9489 0.0000 0.0000
# 5 0.0000 0.0000 0.0000 0.0000 20.2422 0.0000
# 6 0.0000 0.0000 0.0000 0.0000 0.0000 -7.6172
#
#
#
# Elastic Compliance Matrix: (Units=1/GPa)
#
#
# Indices 1 2 3 4 5 6 
#
# 1 0.025038 0.005061 0.012943 0.000000 0.000000 0.000000
# 2 0.005061 0.008296 0.002063 0.000000 0.000000 0.000000
# 3 0.012943 0.002063 0.020730 0.000000 0.000000 0.000000
# 4 0.000000 0.000000 0.000000 0.125804 0.000000 0.000000
# 5 0.000000 0.000000 0.000000 0.000000 0.049402 0.000000
# 6 0.000000 0.000000 0.000000 0.000000 0.000000 -0.131281
#
#
# Mechanical properties :
#
#
# Convention : Reuss Voigt Hill
#
# Bulk Modulus (GPa) = 10.61601 16.50938 13.56270
# Shear Modulus (GPa) = 56.01976 26.67582 41.34779
#
# Velocity S-wave (km/s) = 4.94134 3.40983 4.24522
# Velocity P-wave (km/s) = 6.09778 4.76429 5.47181
#
# Compressibility (1/GPa) = 0.09419733
#
# Stress axis : x y z
#
# Youngs Moduli (GPa) = 39.93990 120.53539 48.23892
#
# Poissons Ratio (x) = -0.60998 -0.62435
# Poissons Ratio (y) = -0.20212 -0.09953
# Poissons Ratio (z) = -0.51694 -0.24869
#
# Static dielectric constant tensor:
#      x y z
#    x 1.905260 0.000000 0.000000 
#    y 0.000000 1.869680 0.000000 
#    z 0.000000 0.000000 1.778730 
# 
# From -- ./inp_files/20651.got.cif
#   From: 2010.05.17/outbox.cif.g08.bks.cpg/sg56_11_cif.got.tgz:20651.got - 2010.06.03 13:42:01.
