data_PCOD9429916
_publ_section_title
;
Structure prediction by ZEFSAII (Michael W. Deem and Ramdas Pophale) SiO2 
 PCOD9429916
Probable space group: P C C N
;
_chemical_formula_sum "Si O2"
_cell_formula_units_Z 52
_cell_length_a 8.794231
_cell_length_b 17.736607
_cell_length_c 13.963121
_cell_angle_alpha 90.000000
_cell_angle_beta 90.000000
_cell_angle_gamma 90.000000
_cell_volume 2177.965088
_symmetry_space_group_name_H-M "P C C N"
_symmetry_group_IT_number 56
_symmetry_cell_setting 'orthorhombic'
loop_
_space_group_symop_operation_xyz
x,y,z
1/2-x,1/2-y,z
1/2+x,-y,1/2-z
-x,1/2+y,1/2-z
-x,-y,-z
1/2+x,1/2+y,-z
1/2-x,y,1/2+z
x,1/2-y,1/2+z
loop_
_atom_site_type_symbol
_atom_site_label
_atom_site_fract_x
_atom_site_fract_y
_atom_site_fract_z
Si Si1 0.820432 0.500533 0.702724
Si Si2 0.805780 0.852888 0.951703
Si Si3 0.430383 0.389580 0.245537
Si Si4 0.782621 0.473580 0.988531
Si Si5 0.464954 0.625301 0.122903
Si Si6 0.985789 0.846311 0.545467
Si Si7 0.250000 0.750000 0.116122
O O1 0.681732 0.538832 0.755904
O O2 0.758089 0.475042 0.600211
O O3 0.937594 0.570477 0.689929
O O4 0.903637 0.428023 0.745409
O O5 0.888440 0.843421 0.849828
O O6 0.918792 0.843849 0.041802
O O7 0.641638 0.816131 0.972722
O O8 0.747635 0.940557 0.957214
O O9 0.413894 0.348484 0.347356
O O10 0.652979 0.426224 0.934853
O O11 0.941274 0.429550 0.971799
O O12 0.362205 0.691359 0.169556
O O13 0.133825 0.795263 0.550084
#
# Coordination Sequence:
#
# PCOD9429916 Si02
#       7
#     8   8   8   8   8   8   4
#     4  11  22  35  63 100 141 164 207 273 342 383
#     4  11  20  38  64  96 129 157 217 270 333 380
#     4  12  23  36  65 106 132 168 210 277 338 392
#     4  10  18  38  62  95 133 166 202 264 334 388
#     4  10  19  42  62  88 127 172 208 263 323 388
#     4  11  24  41  65  97 131 179 218 262 326 398
#     4  10  26  44  70  80 122 188 224 260 328 386
#
# _framework density 23.875496999999999
#
# number of rings (size 3 to 8) (size 9 to 14) (size 15 to 20)
#    0.000    1.231    6.154    2.308    4.308    0.615 
#    0.000    0.769    6.769    0.000    0.000    0.000 
#    0.000    0.000    0.000    0.000    0.000    0.000 
#
# Total GULP energy -290485.249090 kJ/mol
# GULP energy per Si atom -5586.254790 kJ/mol
# Density = 2.382116 g / cm^3
# Si number density = 23.875497 Si / 1000 Ang^3
#
#
#
# Elastic Constant Matrix: (Units=GPa)
#
#
# Indices 1 2 3 4 5 6 
#
# 1 113.6987 27.3728 11.2192 0.0000 0.0000 0.0000
# 2 27.3728 50.8246 16.9298 0.0000 0.0000 0.0000
# 3 11.2192 16.9298 39.3834 0.0000 0.0000 0.0000
# 4 0.0000 0.0000 0.0000 6.2227 0.0000 0.0000
# 5 0.0000 0.0000 0.0000 0.0000-1584.2186 0.0000
# 6 0.0000 0.0000 0.0000 0.0000 0.0000 59.0955
#
#
#
# Elastic Compliance Matrix: (Units=1/GPa)
#
#
# Indices 1 2 3 4 5 6 
#
# 1 0.010119 -0.005240 -0.000630 0.000000 0.000000 0.000000
# 2 -0.005240 0.025677 -0.009545 0.000000 0.000000 0.000000
# 3 -0.000630 -0.009545 0.029674 0.000000 0.000000 0.000000
# 4 0.000000 0.000000 0.000000 0.160703 0.000000 0.000000
# 5 0.000000 0.000000 0.000000 0.000000 -0.000631 0.000000
# 6 0.000000 0.000000 0.000000 0.000000 0.000000 0.016922
#
#
# Mechanical properties :
#
#
# Convention : Reuss Voigt Hill
#
# Bulk Modulus (GPa) = 28.86856 34.99449 31.93152
# Shear Modulus (GPa) = 17.55369 -293.88776 -138.16704
#
# Velocity S-wave (km/s) = 2.71443 -11.10671 -7.61547
# Velocity P-wave (km/s) = 4.68420 12.23886 7.99525
#
# Compressibility (1/GPa) = 0.03463976
#
# Stress axis : x y z
#
# Youngs Moduli (GPa) = 98.82554 38.94521 33.69941
#
# Poissons Ratio (x) = 0.20407 0.02123
# Poissons Ratio (y) = 0.51783 0.32167
# Poissons Ratio (z) = 0.06227 0.37174
#
# Static dielectric constant tensor:
#      x y z
#    x 1.928500 0.000000 0.000000 
#    y 0.000000 2.010320 0.000000 
#    z 0.000000 0.000000 1.879800 
# 
# From -- ./inp_files/10830.got.cif
#   From: 2010.05.17/outbox.cif.g08.bks.cpg/sg56_6_cif.got.tgz:10830.got - 2010.06.03 13:42:01.
