data_PCOD9429536
_publ_section_title
;
Structure prediction by ZEFSAII (Michael W. Deem and Ramdas Pophale) SiO2 
 PCOD9429536
Probable space group: P C C N
;
_chemical_formula_sum "Si O2"
_cell_formula_units_Z 64
_cell_length_a 22.454359
_cell_length_b 7.549384
_cell_length_c 19.595728
_cell_angle_alpha 90.000000
_cell_angle_beta 90.000000
_cell_angle_gamma 90.000000
_cell_volume 3321.800765
_symmetry_space_group_name_H-M "P C C N"
_symmetry_group_IT_number 56
_symmetry_cell_setting 'orthorhombic'
loop_
_space_group_symop_operation_xyz
x,y,z
1/2-x,1/2-y,z
1/2+x,-y,1/2-z
-x,1/2+y,1/2-z
-x,-y,-z
1/2+x,1/2+y,-z
1/2-x,y,1/2+z
x,1/2-y,1/2+z
loop_
_atom_site_type_symbol
_atom_site_label
_atom_site_fract_x
_atom_site_fract_y
_atom_site_fract_z
Si Si1 0.959981 0.441139 0.313280
Si Si2 0.323609 0.444509 0.577023
Si Si3 0.706105 0.410612 0.165066
Si Si4 0.771955 0.457800 0.517768
Si Si5 0.772682 0.519751 0.301991
Si Si6 0.141929 0.839759 0.096195
Si Si7 0.620848 0.769577 0.811514
Si Si8 0.419814 0.602053 0.774389
O O1 0.924645 0.391127 0.382379
O O2 0.927632 0.623977 0.292078
O O3 0.945922 0.277917 0.261920
O O4 0.028817 0.495755 0.314922
O O5 0.284302 0.428911 0.509374
O O6 0.273149 0.453555 0.636206
O O7 0.354720 0.635238 0.575996
O O8 0.368784 0.300430 0.607317
O O9 0.750000 0.250000 0.150267
O O10 0.736250 0.482934 0.233929
O O11 0.638512 0.355624 0.181210
O O12 0.708372 0.513472 0.093310
O O13 0.750000 0.250000 0.513781
O O14 0.826090 0.452895 0.463184
O O15 0.817438 0.370953 0.334817
O O16 0.817707 0.680174 0.287025
O O17 0.603626 0.958453 0.780875
#
# Coordination Sequence:
#
# PCOD9429536 Si02
#       8
#     8   8   8   8   8   8   8   8
#     4  11  22  38  57  89 116 151 200 253 299 351
#     4  10  16  31  56  86 115 152 195 243 292 356
#     4  11  20  35  57  90 126 165 193 248 313 370
#     4   8  18  32  55  88 122 158 204 239 298 365
#     4  10  18  29  54  83 115 150 191 237 302 354
#     4   9  17  33  57  84 112 157 199 244 288 355
#     4  11  21  33  58  85 120 148 195 244 297 351
#     4  12  23  37  59  91 121 155 196 255 307 354
#
# _framework density 19.266659000000001
#
# number of rings (size 3 to 8) (size 9 to 14) (size 15 to 20)
#    0.000    1.750    3.750    3.750    0.000    0.000 
#    0.000    0.625   16.500    0.000    0.000    3.500 
#    0.000    0.000    0.000    0.000    0.000    0.000 
#
# Total GULP energy -356331.213467 kJ/mol
# GULP energy per Si atom -5567.675210 kJ/mol
# Density = 1.922281 g / cm^3
# Si number density = 19.266659 Si / 1000 Ang^3
#
#
#
# Elastic Constant Matrix: (Units=GPa)
#
#
# Indices 1 2 3 4 5 6 
#
# 1 102.6370 20.8651 23.1521 0.0000 0.0000 0.0000
# 2 20.8651 73.8899 5.4053 0.0000 0.0000 0.0000
# 3 23.1521 5.4053 86.9772 0.0000 0.0000 0.0000
# 4 0.0000 0.0000 0.0000 6.7123 0.0000 0.0000
# 5 0.0000 0.0000 0.0000 0.0000 -41.0833 0.0000
# 6 0.0000 0.0000 0.0000 0.0000 0.0000 30.9054
#
#
#
# Elastic Compliance Matrix: (Units=1/GPa)
#
#
# Indices 1 2 3 4 5 6 
#
# 1 0.010948 -0.002891 -0.002734 0.000000 0.000000 0.000000
# 2 -0.002891 0.014359 -0.000123 0.000000 0.000000 0.000000
# 3 -0.002734 -0.000123 0.012233 0.000000 0.000000 0.000000
# 4 0.000000 0.000000 0.000000 0.148980 0.000000 0.000000
# 5 0.000000 0.000000 0.000000 0.000000 -0.024341 0.000000
# 6 0.000000 0.000000 0.000000 0.000000 0.000000 0.032357
#
#
# Mechanical properties :
#
#
# Convention : Reuss Voigt Hill
#
# Bulk Modulus (GPa) = 38.39882 40.26102 39.32992
# Shear Modulus (GPa) = 23.28688 13.57899 18.43293
#
# Velocity S-wave (km/s) = 3.48035 2.65767 3.09646
# Velocity P-wave (km/s) = 6.01032 5.50997 5.76557
#
# Compressibility (1/GPa) = 0.02604247
#
# Stress axis : x y z
#
# Youngs Moduli (GPa) = 91.34358 69.64226 81.74775
#
# Poissons Ratio (x) = 0.20136 0.22353
# Poissons Ratio (y) = 0.26411 0.01003
# Poissons Ratio (z) = 0.24977 0.00855
#
# Static dielectric constant tensor:
#      x y z
#    x 1.770220 0.000000 0.000000 
#    y 0.000000 1.790350 0.000000 
#    z 0.000000 0.000000 1.732050 
# 
# From -- ./inp_files/19522.got.cif
#   From: 2010.05.17/outbox.cif.g08.bks.cpg/sg56_10_cif.got.tgz:19522.got - 2010.06.03 13:42:01.
