data_PCOD9429904
_publ_section_title
;
Structure prediction by ZEFSAII (Michael W. Deem and Ramdas Pophale) SiO2 
 PCOD9429904
Probable space group: P C C N
;
_chemical_formula_sum "Si O2"
_cell_formula_units_Z 60
_cell_length_a 13.990851
_cell_length_b 14.995908
_cell_length_c 13.024463
_cell_angle_alpha 90.000000
_cell_angle_beta 90.000000
_cell_angle_gamma 90.000000
_cell_volume 2732.604160
_symmetry_space_group_name_H-M "P C C N"
_symmetry_group_IT_number 56
_symmetry_cell_setting 'orthorhombic'
loop_
_space_group_symop_operation_xyz
x,y,z
1/2-x,1/2-y,z
1/2+x,-y,1/2-z
-x,1/2+y,1/2-z
-x,-y,-z
1/2+x,1/2+y,-z
1/2-x,y,1/2+z
x,1/2-y,1/2+z
loop_
_atom_site_type_symbol
_atom_site_label
_atom_site_fract_x
_atom_site_fract_y
_atom_site_fract_z
Si Si1 0.428582 0.387582 0.561297
Si Si2 0.750000 0.750000 0.165932
Si Si3 0.880583 0.423447 0.171401
Si Si4 0.042539 0.848724 0.637613
Si Si5 0.848096 0.704191 0.467424
Si Si6 0.338852 0.816327 0.634511
Si Si7 0.882219 0.890601 0.781663
Si Si8 0.290685 0.545947 0.550607
O O1 0.507017 0.418050 0.642863
O O2 0.474926 0.395201 0.447956
O O3 0.418881 0.281700 0.568242
O O4 0.329523 0.443524 0.561188
O O5 0.693402 0.822931 0.229983
O O6 0.672919 0.702396 0.088997
O O7 0.850902 0.344051 0.246823
O O8 0.862564 0.513256 0.234952
O O9 0.824150 0.425817 0.063833
O O10 0.070203 0.746835 0.609282
O O11 0.139369 0.905247 0.632516
O O12 0.985530 0.857972 0.742546
O O13 0.750000 0.750000 0.430939
O O14 0.872760 0.617230 0.403924
O O15 0.250000 0.750000 0.617742
O O16 0.311155 0.906786 0.572601
#
# Coordination Sequence:
#
# PCOD9429904 Si02
#       8
#     8   4   8   8   8   8   8   8
#     4  11  19  39  64  85 112 158 212 240 292 371
#     4  10  20  36  52  88 116 150 198 246 292 348
#     4  11  22  36  62  87 115 158 201 246 291 363
#     4  10  18  38  59  83 116 152 194 248 294 349
#     4  10  22  33  56  89 113 151 193 248 299 353
#     4  10  24  37  58  91 125 152 196 257 303 353
#     4  12  20  36  58  85 119 155 197 247 296 354
#     4  10  20  38  62  86 113 161 207 242 295 361
#
# _framework density 21.957077000000002
#
# number of rings (size 3 to 8) (size 9 to 14) (size 15 to 20)
#    0.400    1.067    4.667    1.600    1.867    2.667 
#    0.000    0.000    0.000    0.800    0.000    0.000 
#    0.000    0.000    0.000    0.000    0.000    0.000 
#
# Total GULP energy -334273.870926 kJ/mol
# GULP energy per Si atom -5571.231182 kJ/mol
# Density = 2.190710 g / cm^3
# Si number density = 21.957077 Si / 1000 Ang^3
#
#
#
# Elastic Constant Matrix: (Units=GPa)
#
#
# Indices 1 2 3 4 5 6 
#
# 1 29.9288 21.9109 -6.1274 0.0000 0.0000 0.0000
# 2 21.9109 67.3915 17.8755 0.0000 0.0000 0.0000
# 3 -6.1274 17.8755 36.2506 0.0000 0.0000 0.0000
# 4 0.0000 0.0000 0.0000 31.1887 0.0000 0.0000
# 5 0.0000 0.0000 0.0000 0.0000 12.8736 0.0000
# 6 0.0000 0.0000 0.0000 0.0000 0.0000 38.1582
#
#
#
# Elastic Compliance Matrix: (Units=1/GPa)
#
#
# Indices 1 2 3 4 5 6 
#
# 1 0.054702 -0.023283 0.020727 0.000000 0.000000 0.000000
# 2 -0.023283 0.026982 -0.017240 0.000000 0.000000 0.000000
# 3 0.020727 -0.017240 0.039591 0.000000 0.000000 0.000000
# 4 0.000000 0.000000 0.000000 0.032063 0.000000 0.000000
# 5 0.000000 0.000000 0.000000 0.000000 0.077679 0.000000
# 6 0.000000 0.000000 0.000000 0.000000 0.000000 0.026207
#
#
# Mechanical properties :
#
#
# Convention : Reuss Voigt Hill
#
# Bulk Modulus (GPa) = 12.24264 22.32099 17.28181
# Shear Modulus (GPa) = 15.43012 23.10488 19.26750
#
# Velocity S-wave (km/s) = 2.65380 3.24740 2.96549
# Velocity P-wave (km/s) = 3.87015 4.92429 4.42869
#
# Compressibility (1/GPa) = 0.08168172
#
# Stress axis : x y z
#
# Youngs Moduli (GPa) = 18.28099 37.06228 25.25846
#
# Poissons Ratio (x) = 0.86292 -0.52354
# Poissons Ratio (y) = 0.42564 0.43547
# Poissons Ratio (z) = -0.37891 0.63897
#
# Static dielectric constant tensor:
#      x y z
#    x 1.873150 0.000000 0.000000 
#    y 0.000000 1.931300 0.000000 
#    z 0.000000 0.000000 1.813010 
# 
# From -- ./inp_files/12402.got.cif
#   From: 2010.05.17/outbox.cif.g08.bks.cpg/sg56_7_cif.got.tgz:12402.got - 2010.06.03 13:42:01.
