data_PCOD9429933
_publ_section_title
;
Structure prediction by ZEFSAII (Michael W. Deem and Ramdas Pophale) SiO2 
 PCOD9429933
Probable space group: P C C N
;
_chemical_formula_sum "Si O2"
_cell_formula_units_Z 40
_cell_length_a 11.798583
_cell_length_b 7.149329
_cell_length_c 19.013063
_cell_angle_alpha 90.000000
_cell_angle_beta 90.000000
_cell_angle_gamma 90.000000
_cell_volume 1603.788970
_symmetry_space_group_name_H-M "P C C N"
_symmetry_group_IT_number 56
_symmetry_cell_setting 'orthorhombic'
loop_
_space_group_symop_operation_xyz
x,y,z
1/2-x,1/2-y,z
1/2+x,-y,1/2-z
-x,1/2+y,1/2-z
-x,-y,-z
1/2+x,1/2+y,-z
1/2-x,y,1/2+z
x,1/2-y,1/2+z
loop_
_atom_site_type_symbol
_atom_site_label
_atom_site_fract_x
_atom_site_fract_y
_atom_site_fract_z
Si Si1 0.588284 0.440190 0.439485
Si Si2 0.577452 0.613815 0.676608
Si Si3 0.154662 0.997381 0.042251
Si Si4 0.203333 0.559651 0.393584
Si Si5 0.493967 0.457700 0.170167
O O1 0.500000 0.500000 0.500000
O O2 0.525474 0.480247 0.366184
O O3 0.616496 0.218797 0.446047
O O4 0.712169 0.529663 0.444759
O O5 0.695234 0.557509 0.639980
O O6 0.574133 0.567927 0.758697
O O7 0.545191 0.831799 0.670354
O O8 0.079806 0.094121 0.102067
O O9 0.141134 0.041678 0.959427
O O10 0.250000 0.750000 0.427984
O O11 0.115178 0.643072 0.336680
#
# Coordination Sequence:
#
# PCOD9429933 Si02
#       5
#     8   8   8   8   8
#     4  10  18  38  66  97 130 171 221 273 336 403
#     4  11  24  42  66  97 137 177 222 277 340 403
#     4  10  21  39  67  98 128 172 227 277 335 399
#     4  12  22  43  70  94 133 176 224 280 348 404
#     4  11  26  42  67 100 137 176 227 280 337 410
#
# _framework density 24.940940000000001
#
# number of rings (size 3 to 8) (size 9 to 14) (size 15 to 20)
#    0.000    1.200    4.000    2.400    2.800    0.000 
#    0.000    0.000    0.000    0.000    0.000    0.000 
#    0.000    0.000    0.000    0.000    0.000    0.000 
#
# Total GULP energy -223715.055609 kJ/mol
# GULP energy per Si atom -5592.876390 kJ/mol
# Density = 2.488417 g / cm^3
# Si number density = 24.940940 Si / 1000 Ang^3
#
#
#
# Elastic Constant Matrix: (Units=GPa)
#
#
# Indices 1 2 3 4 5 6 
#
# 1 170.0568 20.1581 72.1795 0.0000 0.0000 0.0000
# 2 20.1581 72.5084 9.7412 0.0000 0.0000 0.0000
# 3 72.1795 9.7412 174.5581 0.0000 0.0000 0.0000
# 4 0.0000 0.0000 0.0000 24.5543 0.0000 0.0000
# 5 0.0000 0.0000 0.0000 0.0000 37.0660 0.0000
# 6 0.0000 0.0000 0.0000 0.0000 0.0000 34.2270
#
#
#
# Elastic Compliance Matrix: (Units=1/GPa)
#
#
# Indices 1 2 3 4 5 6 
#
# 1 0.007321 -0.001641 -0.002936 0.000000 0.000000 0.000000
# 2 -0.001641 0.014263 -0.000117 0.000000 0.000000 0.000000
# 3 -0.002936 -0.000117 0.006949 0.000000 0.000000 0.000000
# 4 0.000000 0.000000 0.000000 0.040726 0.000000 0.000000
# 5 0.000000 0.000000 0.000000 0.000000 0.026979 0.000000
# 6 0.000000 0.000000 0.000000 0.000000 0.000000 0.029217
#
#
# Mechanical properties :
#
#
# Convention : Reuss Voigt Hill
#
# Bulk Modulus (GPa) = 52.23130 69.03120 60.63125
# Shear Modulus (GPa) = 35.40450 40.17243 37.78847
#
# Velocity S-wave (km/s) = 3.77176 4.01771 3.89667
# Velocity P-wave (km/s) = 6.32105 7.01859 6.67893
#
# Compressibility (1/GPa) = 0.01914561
#
# Stress axis : x y z
#
# Youngs Moduli (GPa) = 136.59525 70.10915 143.90194
#
# Poissons Ratio (x) = 0.11504 0.42244
# Poissons Ratio (y) = 0.22414 0.01690
# Poissons Ratio (z) = 0.40099 0.00824
#
# Static dielectric constant tensor:
#      x y z
#    x 2.126870 0.000000 0.000000 
#    y 0.000000 2.146830 0.000000 
#    z 0.000000 0.000000 1.924840 
# 
# From -- ./inp_files/15428.got.cif
#   From: 2010.05.17/outbox.cif.g08.bks.cpg/sg56_8_cif.got.tgz:15428.got - 2010.06.03 13:42:01.
