data_PCOD9430180
_publ_section_title
;
Structure prediction by ZEFSAII (Michael W. Deem and Ramdas Pophale) SiO2 
 PCOD9430180
Probable space group: P C C N
;
_chemical_formula_sum "Si O2"
_cell_formula_units_Z 40
_cell_length_a 10.313461
_cell_length_b 8.523042
_cell_length_c 24.181994
_cell_angle_alpha 90.000000
_cell_angle_beta 90.000000
_cell_angle_gamma 90.000000
_cell_volume 2125.647118
_symmetry_space_group_name_H-M "P C C N"
_symmetry_group_IT_number 56
_symmetry_cell_setting 'orthorhombic'
loop_
_space_group_symop_operation_xyz
x,y,z
1/2-x,1/2-y,z
1/2+x,-y,1/2-z
-x,1/2+y,1/2-z
-x,-y,-z
1/2+x,1/2+y,-z
1/2-x,y,1/2+z
x,1/2-y,1/2+z
loop_
_atom_site_type_symbol
_atom_site_label
_atom_site_fract_x
_atom_site_fract_y
_atom_site_fract_z
Si Si1 0.138446 0.876258 0.434529
Si Si2 0.041612 0.919278 0.313462
Si Si3 0.286109 0.930662 0.135504
Si Si4 0.631074 0.634303 0.784748
Si Si5 0.851219 0.887068 0.471717
O O1 0.250000 0.750000 0.445935
O O2 0.125484 0.903724 0.369020
O O3 0.996020 0.827698 0.457470
O O4 0.160903 0.037192 0.467947
O O5 0.990695 0.747625 0.295580
O O6 0.109070 0.009358 0.263479
O O7 0.914171 0.019980 0.330355
O O8 0.250000 0.750000 0.141246
O O9 0.173026 0.040938 0.160161
O O10 0.318160 0.977884 0.072792
O O11 0.750000 0.750000 0.770345
O O12 0.750000 0.750000 0.463732
#
# Coordination Sequence:
#
# PCOD9430180 Si02
#       5
#     8   8   8   8   8
#     4  10  22  38  58  86 117 150 192 245 295 343
#     4  10  21  37  55  83 119 149 193 248 293 346
#     4  10  19  35  59  81 108 151 197 240 294 359
#     4  10  21  36  56  82 114 155 197 239 295 358
#     4  10  21  40  60  83 117 153 195 241 291 359
#
# _framework density 18.817796999999999
#
# number of rings (size 3 to 8) (size 9 to 14) (size 15 to 20)
#    0.000    2.000    0.000    4.800    0.000    5.600 
#    0.000    8.000    0.000    0.000    0.000    0.000 
#    0.000    0.000    0.000    0.000    0.000    0.000 
#
# Total GULP energy -223294.559912 kJ/mol
# GULP energy per Si atom -5582.363998 kJ/mol
# Density = 1.877497 g / cm^3
# Si number density = 18.817797 Si / 1000 Ang^3
#
#
#
# Elastic Constant Matrix: (Units=GPa)
#
#
# Indices 1 2 3 4 5 6 
#
# 1 50.9412 58.3404 28.6274 0.0000 0.0000 0.0000
# 2 58.3404 93.3197 23.0574 0.0000 0.0000 0.0000
# 3 28.6274 23.0574 97.6566 0.0000 0.0000 0.0000
# 4 0.0000 0.0000 0.0000 10.2583 0.0000 0.0000
# 5 0.0000 0.0000 0.0000 0.0000 24.5573 0.0000
# 6 0.0000 0.0000 0.0000 0.0000 0.0000 24.5119
#
#
#
# Elastic Compliance Matrix: (Units=1/GPa)
#
#
# Indices 1 2 3 4 5 6 
#
# 1 0.081486 -0.047831 -0.012594 0.000000 0.000000 0.000000
# 2 -0.047831 0.039455 0.004706 0.000000 0.000000 0.000000
# 3 -0.012594 0.004706 0.012821 0.000000 0.000000 0.000000
# 4 0.000000 0.000000 0.000000 0.097482 0.000000 0.000000
# 5 0.000000 0.000000 0.000000 0.000000 0.040721 0.000000
# 6 0.000000 0.000000 0.000000 0.000000 0.000000 0.040796
#
#
# Mechanical properties :
#
#
# Convention : Reuss Voigt Hill
#
# Bulk Modulus (GPa) = 44.79471 51.32975 48.06223
# Shear Modulus (GPa) = 11.58372 20.65833 16.12102
#
# Velocity S-wave (km/s) = 2.48376 3.31691 2.93010
# Velocity P-wave (km/s) = 5.66406 6.48118 6.08635
#
# Compressibility (1/GPa) = 0.02232406
#
# Stress axis : x y z
#
# Youngs Moduli (GPa) = 12.27208 25.34516 77.99849
#
# Poissons Ratio (x) = 1.21227 0.98230
# Poissons Ratio (y) = 0.58698 -0.36702
# Poissons Ratio (z) = 0.15455 -0.11926
#
# Static dielectric constant tensor:
#      x y z
#    x 1.665950 0.000000 0.000000 
#    y 0.000000 1.617600 0.000000 
#    z 0.000000 0.000000 1.642360 
# 
# From -- ./inp_files/17979.got.cif
#   From: 2010.05.17/outbox.cif.g08.bks.cpg/sg56_9_cif.got.tgz:17979.got - 2010.06.03 13:42:01.
