data_PCOD9430021
_publ_section_title
;
Structure prediction by ZEFSAII (Michael W. Deem and Ramdas Pophale) SiO2 
 PCOD9430021
Probable space group: P C C N
;
_chemical_formula_sum "Si O2"
_cell_formula_units_Z 56
_cell_length_a 29.261030
_cell_length_b 15.377671
_cell_length_c 5.507670
_cell_angle_alpha 90.000000
_cell_angle_beta 90.000000
_cell_angle_gamma 90.000000
_cell_volume 2478.266952
_symmetry_space_group_name_H-M "P C C N"
_symmetry_group_IT_number 56
_symmetry_cell_setting 'orthorhombic'
loop_
_space_group_symop_operation_xyz
x,y,z
1/2-x,1/2-y,z
1/2+x,-y,1/2-z
-x,1/2+y,1/2-z
-x,-y,-z
1/2+x,1/2+y,-z
1/2-x,y,1/2+z
x,1/2-y,1/2+z
loop_
_atom_site_type_symbol
_atom_site_label
_atom_site_fract_x
_atom_site_fract_y
_atom_site_fract_z
Si Si1 0.186653 0.775322 0.008404
Si Si2 0.767489 0.603031 0.873240
Si Si3 0.554751 0.804826 0.746204
Si Si4 0.873748 0.384318 0.005646
Si Si5 0.190880 0.536680 0.633823
Si Si6 0.132380 0.448283 0.273782
Si Si7 0.951158 0.303811 0.295433
O O1 0.207540 0.731667 0.774448
O O2 0.141821 0.713732 0.067911
O O3 0.186791 0.878348 0.962666
O O4 0.750131 0.645218 0.122595
O O5 0.739063 0.511025 0.863749
O O6 0.821786 0.587363 0.864270
O O7 0.559632 0.744859 0.504694
O O8 0.592814 0.878522 0.732722
O O9 0.502557 0.839484 0.734269
O O10 0.828222 0.426478 0.117457
O O11 0.911699 0.370491 0.214302
O O12 0.887638 0.459015 0.819599
O O13 0.154137 0.467487 0.536587
O O14 0.947975 0.268396 0.573512
#
# Coordination Sequence:
#
# PCOD9430021 Si02
#       7
#     8   8   8   8   8   8   8
#     4  10  19  32  52  81 123 165 208 238 285 358
#     4  10  21  38  59  86 125 168 207 254 318 366
#     4  10  25  47  70  93 125 164 214 275 344 393
#     4  11  21  35  62  96 128 174 213 258 304 383
#     4  10  21  37  60  91 131 173 212 256 316 373
#     4  11  23  40  67  94 125 172 217 270 325 383
#     4  10  22  41  64  93 132 175 209 264 323 378
#
# _framework density 22.596433000000001
#
# number of rings (size 3 to 8) (size 9 to 14) (size 15 to 20)
#    0.000    1.714    2.857    1.714    4.000    0.571 
#    0.000    1.429    0.000   10.286    0.000    0.000 
#    0.000    0.000    0.000    0.000    0.000    0.000 
#
# Total GULP energy -311777.693846 kJ/mol
# GULP energy per Si atom -5567.458819 kJ/mol
# Density = 2.254500 g / cm^3
# Si number density = 22.596433 Si / 1000 Ang^3
#
#
#
# Elastic Constant Matrix: (Units=GPa)
#
#
# Indices 1 2 3 4 5 6 
#
# 1 99.8206 39.1749 -4.0505 0.0000 0.0000 0.0000
# 2 39.1749 60.7142 10.3982 0.0000 0.0000 0.0000
# 3 -4.0505 10.3982 123.8348 0.0000 0.0000 0.0000
# 4 0.0000 0.0000 0.0000 -0.6148 0.0000 0.0000
# 5 0.0000 0.0000 0.0000 0.0000 65.3795 0.0000
# 6 0.0000 0.0000 0.0000 0.0000 0.0000 179.1698
#
#
#
# Elastic Compliance Matrix: (Units=1/GPa)
#
#
# Indices 1 2 3 4 5 6 
#
# 1 0.013588 -0.008972 0.001198 0.000000 0.000000 0.000000
# 2 -0.008972 0.022636 -0.002194 0.000000 0.000000 0.000000
# 3 0.001198 -0.002194 0.008299 0.000000 0.000000 0.000000
# 4 0.000000 0.000000 0.000000 -1.626485 0.000000 0.000000
# 5 0.000000 0.000000 0.000000 0.000000 0.015295 0.000000
# 6 0.000000 0.000000 0.000000 0.000000 0.000000 0.005581
#
#
# Mechanical properties :
#
#
# Convention : Reuss Voigt Hill
#
# Bulk Modulus (GPa) = 40.67573 41.71274 41.19423
# Shear Modulus (GPa) = -3.26168 64.71004 30.72418
#
# Velocity S-wave (km/s) = -1.20274 5.35719 3.69140
# Velocity P-wave (km/s) = 4.01388 7.53431 6.03644
#
# Compressibility (1/GPa) = 0.02458469
#
# Stress axis : x y z
#
# Youngs Moduli (GPa) = 73.59513 44.17791 120.50088
#
# Poissons Ratio (x) = 0.39639 -0.14434
# Poissons Ratio (y) = 0.66033 0.26440
# Poissons Ratio (z) = -0.08816 0.09693
#
# Static dielectric constant tensor:
#      x y z
#    x 1.829020 0.000000 0.000000 
#    y 0.000000 1.891700 0.000000 
#    z 0.000000 0.000000 1.956410 
# 
# From -- ./inp_files/1348.got.cif
#   From: 2010.05.17/outbox.cif.g08.bks.cpg/sg56_1_cif.got.tgz:1348.got - 2010.06.03 13:42:01.
