data_PCOD9430651
_publ_section_title
;
Structure prediction by ZEFSAII (Michael W. Deem and Ramdas Pophale) SiO2 
 PCOD9430651
Probable space group: P C C N
;
_chemical_formula_sum "Si O2"
_cell_formula_units_Z 48
_cell_length_a 15.502290
_cell_length_b 14.206660
_cell_length_c 9.439308
_cell_angle_alpha 90.000000
_cell_angle_beta 90.000000
_cell_angle_gamma 90.000000
_cell_volume 2078.873202
_symmetry_space_group_name_H-M "P C C N"
_symmetry_group_IT_number 56
_symmetry_cell_setting 'orthorhombic'
loop_
_space_group_symop_operation_xyz
x,y,z
1/2-x,1/2-y,z
1/2+x,-y,1/2-z
-x,1/2+y,1/2-z
-x,-y,-z
1/2+x,1/2+y,-z
1/2-x,y,1/2+z
x,1/2-y,1/2+z
loop_
_atom_site_type_symbol
_atom_site_label
_atom_site_fract_x
_atom_site_fract_y
_atom_site_fract_z
Si Si1 0.139002 0.812115 0.279207
Si Si2 0.855798 0.917906 0.228518
Si Si3 0.062805 0.603451 0.246409
Si Si4 0.994108 0.620465 0.944056
Si Si5 0.927230 0.824562 0.956591
Si Si6 0.250000 0.250000 0.184208
Si Si7 0.250000 0.750000 0.038158
O O1 0.101403 0.708004 0.248464
O O2 0.063380 0.884650 0.316123
O O3 0.200379 0.822514 0.142981
O O4 0.189200 0.804880 0.428361
O O5 0.776364 0.845054 0.230504
O O6 0.901626 0.904355 0.380324
O O7 0.862232 0.030108 0.209082
O O8 0.913455 0.875861 0.103560
O O9 0.980298 0.609469 0.349615
O O10 0.025994 0.578332 0.091009
O O11 0.984818 0.731871 0.978297
O O12 0.834874 0.786914 0.898962
#
# Coordination Sequence:
#
# PCOD9430651 Si02
#       7
#     8   8   8   8   8   4   4
#     4  10  20  37  59  85 122 161 214 248 321 391
#     4  11  23  40  64  93 125 165 217 270 322 385
#     4  11  22  39  60  97 125 162 214 269 324 382
#     4  10  20  38  64  84 121 165 210 257 323 395
#     4  10  21  39  65  92 122 169 217 266 325 393
#     4  10  22  42  66  92 130 176 220 268 334 394
#     4  10  20  36  58  84 116 166 200 254 310 388
#
# _framework density 23.089431999999999
#
# number of rings (size 3 to 8) (size 9 to 14) (size 15 to 20)
#    0.000    1.667    1.667    4.500    2.333    1.333 
#    3.000    1.667    0.000    0.000    0.000    0.000 
#    0.000    0.000    0.000    0.000    0.000    0.000 
#
# Total GULP energy -267634.107334 kJ/mol
# GULP energy per Si atom -5575.710569 kJ/mol
# Density = 2.303688 g / cm^3
# Si number density = 23.089432 Si / 1000 Ang^3
#
#
#
# Elastic Constant Matrix: (Units=GPa)
#
#
# Indices 1 2 3 4 5 6 
#
# 1 83.1697 12.5900 29.2401 0.0000 0.0000 0.0000
# 2 12.5900 69.9821 11.9153 0.0000 0.0000 0.0000
# 3 29.2401 11.9153 107.7557 0.0000 0.0000 0.0000
# 4 0.0000 0.0000 0.0000 -5.1051 0.0000 0.0000
# 5 0.0000 0.0000 0.0000 0.0000 94.8082 0.0000
# 6 0.0000 0.0000 0.0000 0.0000 0.0000 26.7203
#
#
#
# Elastic Compliance Matrix: (Units=1/GPa)
#
#
# Indices 1 2 3 4 5 6 
#
# 1 0.013521 -0.001842 -0.003465 0.000000 0.000000 0.000000
# 2 -0.001842 0.014815 -0.001138 0.000000 0.000000 0.000000
# 3 -0.003465 -0.001138 0.010346 0.000000 0.000000 0.000000
# 4 0.000000 0.000000 0.000000 -0.195881 0.000000 0.000000
# 5 0.000000 0.000000 0.000000 0.000000 0.010548 0.000000
# 6 0.000000 0.000000 0.000000 0.000000 0.000000 0.037425
#
#
# Mechanical properties :
#
#
# Convention : Reuss Voigt Hill
#
# Bulk Modulus (GPa) = 38.77452 40.93314 39.85383
# Shear Modulus (GPa) = -56.98746 37.09548 -9.94599
#
# Velocity S-wave (km/s) = -4.97341 4.01259 -2.07773
# Velocity P-wave (km/s) = 4.01871 6.26374 3.39738
#
# Compressibility (1/GPa) = 0.02579013
#
# Stress axis : x y z
#
# Youngs Moduli (GPa) = 73.96026 67.50085 96.65190
#
# Poissons Ratio (x) = 0.12437 0.33492
# Poissons Ratio (y) = 0.13627 0.11001
# Poissons Ratio (z) = 0.25629 0.07683
#
# Static dielectric constant tensor:
#      x y z
#    x 1.973330 0.000000 0.000000 
#    y 0.000000 1.999630 0.000000 
#    z 0.000000 0.000000 1.850800 
# 
# From -- ./inp_files/4021.got.cif
#   From: 2010.05.17/outbox.cif.g08.bks.cpg/sg56_3_cif.got.tgz:4021.got - 2010.06.03 13:42:01.
