data_PCOD9430037
_publ_section_title
;
Structure prediction by ZEFSAII (Michael W. Deem and Ramdas Pophale) SiO2 
 PCOD9430037
Probable space group: P C C N
;
_chemical_formula_sum "Si O2"
_cell_formula_units_Z 64
_cell_length_a 8.327326
_cell_length_b 18.845420
_cell_length_c 20.571538
_cell_angle_alpha 90.000000
_cell_angle_beta 90.000000
_cell_angle_gamma 90.000000
_cell_volume 3228.331695
_symmetry_space_group_name_H-M "P C C N"
_symmetry_group_IT_number 56
_symmetry_cell_setting 'orthorhombic'
loop_
_space_group_symop_operation_xyz
x,y,z
1/2-x,1/2-y,z
1/2+x,-y,1/2-z
-x,1/2+y,1/2-z
-x,-y,-z
1/2+x,1/2+y,-z
1/2-x,y,1/2+z
x,1/2-y,1/2+z
loop_
_atom_site_type_symbol
_atom_site_label
_atom_site_fract_x
_atom_site_fract_y
_atom_site_fract_z
Si Si1 0.426653 0.923610 0.979026
Si Si2 0.251566 0.402322 0.225973
Si Si3 0.767602 0.446649 0.643610
Si Si4 0.109009 0.090288 0.096029
Si Si5 0.206168 0.924129 0.097832
Si Si6 0.640698 0.885228 0.642095
Si Si7 0.106743 0.554695 0.222419
Si Si8 0.725300 0.831383 0.013558
O O1 0.277358 0.908937 0.027067
O O2 0.556384 0.863313 0.991674
O O3 0.377758 0.929799 0.903875
O O4 0.500000 0.000000 0.000000
O O5 0.291442 0.372874 0.154666
O O6 0.172797 0.359078 0.284696
O O7 0.135411 0.470294 0.216802
O O8 0.427677 0.428000 0.253069
O O9 0.803450 0.531532 0.640978
O O10 0.770731 0.424807 0.719123
O O11 0.922785 0.408935 0.612865
O O12 0.161493 0.007820 0.097592
O O13 0.147033 0.122330 0.026738
O O14 0.341147 0.913381 0.153597
O O15 0.044459 0.884605 0.119864
O O16 0.745665 0.844776 0.589363
O O17 0.750000 0.750000 0.997612
#
# Coordination Sequence:
#
# PCOD9430037 Si02
#       8
#     8   8   8   8   8   8   8   8
#     4  12  21  34  57  85 108 146 195 237 281 343
#     4   9  17  29  52  79 114 145 179 225 278 336
#     4   9  18  32  56  84 111 143 178 234 284 331
#     4   9  18  35  53  81 113 145 181 226 282 335
#     4  10  19  32  56  85 110 144 183 234 286 332
#     4  10  19  35  54  80 113 146 181 230 283 336
#     4   9  17  27  48  86 118 137 172 230 290 328
#     4  12  25  38  53  78 112 148 188 237 283 337
#
# _framework density 19.824480000000001
#
# number of rings (size 3 to 8) (size 9 to 14) (size 15 to 20)
#    0.000    2.000    2.500    3.750    1.750    3.000 
#    0.000    3.125    0.000    0.000    0.000    3.500 
#    0.000    0.000    0.000    0.000    0.000    0.000 
#
# Total GULP energy -357092.582784 kJ/mol
# GULP energy per Si atom -5579.571606 kJ/mol
# Density = 1.977936 g / cm^3
# Si number density = 19.824480 Si / 1000 Ang^3
#
#
#
# Elastic Constant Matrix: (Units=GPa)
#
#
# Indices 1 2 3 4 5 6 
#
# 1 58.0526 14.0801 10.6200 0.0000 0.0000 0.0000
# 2 14.0801 23.5972 -0.3404 0.0000 0.0000 0.0000
# 3 10.6200 -0.3404 85.2793 0.0000 0.0000 0.0000
# 4 0.0000 0.0000 0.0000 1.1618 0.0000 0.0000
# 5 0.0000 0.0000 0.0000 0.0000 39.2701 0.0000
# 6 0.0000 0.0000 0.0000 0.0000 0.0000 5.8113
#
#
#
# Elastic Compliance Matrix: (Units=1/GPa)
#
#
# Indices 1 2 3 4 5 6 
#
# 1 0.020714 -0.012397 -0.002629 0.000000 0.000000 0.000000
# 2 -0.012397 0.049800 0.001743 0.000000 0.000000 0.000000
# 3 -0.002629 0.001743 0.012061 0.000000 0.000000 0.000000
# 4 0.000000 0.000000 0.000000 0.860755 0.000000 0.000000
# 5 0.000000 0.000000 0.000000 0.000000 0.025465 0.000000
# 6 0.000000 0.000000 0.000000 0.000000 0.000000 0.172078
#
#
# Mechanical properties :
#
#
# Convention : Reuss Voigt Hill
#
# Bulk Modulus (GPa) = 17.85490 23.96096 20.90793
# Shear Modulus (GPa) = 4.21547 18.75327 11.48437
#
# Velocity S-wave (km/s) = 1.45980 3.07899 2.40948
# Velocity P-wave (km/s) = 3.44491 4.97524 4.27904
#
# Compressibility (1/GPa) = 0.05600703
#
# Stress axis : x y z
#
# Youngs Moduli (GPa) = 48.27753 20.08014 82.91515
#
# Poissons Ratio (x) = 0.24894 0.21798
# Poissons Ratio (y) = 0.59852 -0.14449
# Poissons Ratio (z) = 0.12692 -0.03499
#
# Static dielectric constant tensor:
#      x y z
#    x 1.740510 0.000000 0.000000 
#    y 0.000000 1.665880 0.000000 
#    z 0.000000 0.000000 1.738220 
# 
# From -- ./inp_files/18438.got.cif
#   From: 2010.05.17/outbox.cif.g08.bks.cpg/sg56_10_cif.got.tgz:18438.got - 2010.06.03 13:42:01.
