data_PCOD9430372
_publ_section_title
;
Structure prediction by ZEFSAII (Michael W. Deem and Ramdas Pophale) SiO2 
 PCOD9430372
Probable space group: P C C N
;
_chemical_formula_sum "Si O2"
_cell_formula_units_Z 40
_cell_length_a 11.741539
_cell_length_b 9.290570
_cell_length_c 14.996825
_cell_angle_alpha 90.000000
_cell_angle_beta 90.000000
_cell_angle_gamma 90.000000
_cell_volume 1635.937503
_symmetry_space_group_name_H-M "P C C N"
_symmetry_group_IT_number 56
_symmetry_cell_setting 'orthorhombic'
loop_
_space_group_symop_operation_xyz
x,y,z
1/2-x,1/2-y,z
1/2+x,-y,1/2-z
-x,1/2+y,1/2-z
-x,-y,-z
1/2+x,1/2+y,-z
1/2-x,y,1/2+z
x,1/2-y,1/2+z
loop_
_atom_site_type_symbol
_atom_site_label
_atom_site_fract_x
_atom_site_fract_y
_atom_site_fract_z
Si Si1 0.521715 0.601068 0.362353
Si Si2 0.916230 0.831167 0.169631
Si Si3 0.187479 0.017716 0.308919
Si Si4 0.369600 0.166471 0.516822
Si Si5 0.244443 0.583025 0.112499
O O1 0.517872 0.610086 0.254480
O O2 0.390660 0.564845 0.380404
O O3 0.569076 0.746513 0.404147
O O4 0.615555 0.481926 0.389182
O O5 0.811291 0.940416 0.156730
O O6 0.873885 0.673452 0.200290
O O7 0.953688 0.821899 0.067717
O O8 0.213297 0.943764 0.214417
O O9 0.250000 0.250000 0.495836
O O10 0.326357 0.014048 0.551682
O O11 0.250000 0.750000 0.091862
#
# Coordination Sequence:
#
# PCOD9430372 Si02
#       5
#     8   8   8   8   8
#     4  10  22  38  68  92 123 177 226 264 337 407
#     4  10  20  41  66  93 130 169 222 276 332 396
#     4  10  20  39  65  91 126 173 218 272 326 394
#     4  10  19  39  65  91 129 176 219 272 327 398
#     4  10  22  38  60  93 133 173 215 279 333 390
#
# _framework density 24.450811000000002
#
# number of rings (size 3 to 8) (size 9 to 14) (size 15 to 20)
#    0.000    2.000    4.000    0.000    2.800    0.800 
#    0.000    5.000    0.000    0.000    0.000    0.000 
#    0.000    0.000    0.000    0.000    0.000    0.000 
#
# Total GULP energy -223505.161773 kJ/mol
# GULP energy per Si atom -5587.629044 kJ/mol
# Density = 2.439516 g / cm^3
# Si number density = 24.450811 Si / 1000 Ang^3
#
#
#
# Elastic Constant Matrix: (Units=GPa)
#
#
# Indices 1 2 3 4 5 6 
#
# 1 38.9327 17.0829 2.6621 0.0000 0.0000 0.0000
# 2 17.0829 148.8412 44.7742 0.0000 0.0000 0.0000
# 3 2.6621 44.7742 112.7957 0.0000 0.0000 0.0000
# 4 0.0000 0.0000 0.0000 3.9605 0.0000 0.0000
# 5 0.0000 0.0000 0.0000 0.0000 -7.3354 0.0000
# 6 0.0000 0.0000 0.0000 0.0000 0.0000 18.3449
#
#
#
# Elastic Compliance Matrix: (Units=1/GPa)
#
#
# Indices 1 2 3 4 5 6 
#
# 1 0.027093 -0.003313 0.000676 0.000000 0.000000 0.000000
# 2 -0.003313 0.008035 -0.003111 0.000000 0.000000 0.000000
# 3 0.000676 -0.003111 0.010085 0.000000 0.000000 0.000000
# 4 0.000000 0.000000 0.000000 0.252492 0.000000 0.000000
# 5 0.000000 0.000000 0.000000 0.000000 -0.136325 0.000000
# 6 0.000000 0.000000 0.000000 0.000000 0.000000 0.054511
#
#
# Mechanical properties :
#
#
# Convention : Reuss Voigt Hill
#
# Bulk Modulus (GPa) = 29.66008 47.73422 38.69715
# Shear Modulus (GPa) = 20.95333 18.73070 19.84201
#
# Velocity S-wave (km/s) = 2.93056 2.77077 2.85179
# Velocity P-wave (km/s) = 4.85878 5.45905 5.16764
#
# Compressibility (1/GPa) = 0.03371536
#
# Stress axis : x y z
#
# Youngs Moduli (GPa) = 36.91029 124.46049 99.16083
#
# Poissons Ratio (x) = 0.41230 -0.06699
# Poissons Ratio (y) = 0.12227 0.30851
# Poissons Ratio (z) = -0.02494 0.38722
#
# Static dielectric constant tensor:
#      x y z
#    x 1.961990 0.000000 0.000000 
#    y 0.000000 1.946690 0.000000 
#    z 0.000000 0.000000 2.010610 
# 
# From -- ./inp_files/12094.got.cif
#   From: 2010.05.17/outbox.cif.g08.bks.cpg/sg56_7_cif.got.tgz:12094.got - 2010.06.03 13:42:01.
