data_PCOD9430708
_publ_section_title
;
Structure prediction by ZEFSAII (Michael W. Deem and Ramdas Pophale) SiO2 
 PCOD9430708
Probable space group: P C C N
;
_chemical_formula_sum "Si O2"
_cell_formula_units_Z 52
_cell_length_a 13.854670
_cell_length_b 9.857898
_cell_length_c 18.088789
_cell_angle_alpha 90.000000
_cell_angle_beta 90.000000
_cell_angle_gamma 90.000000
_cell_volume 2470.529244
_symmetry_space_group_name_H-M "P C C N"
_symmetry_group_IT_number 56
_symmetry_cell_setting 'orthorhombic'
loop_
_space_group_symop_operation_xyz
x,y,z
1/2-x,1/2-y,z
1/2+x,-y,1/2-z
-x,1/2+y,1/2-z
-x,-y,-z
1/2+x,1/2+y,-z
1/2-x,y,1/2+z
x,1/2-y,1/2+z
loop_
_atom_site_type_symbol
_atom_site_label
_atom_site_fract_x
_atom_site_fract_y
_atom_site_fract_z
Si Si1 0.250000 0.750000 0.999023
Si Si2 0.099722 0.687439 0.257732
Si Si3 0.868060 0.481401 0.424836
Si Si4 0.057707 0.325588 0.461413
Si Si5 0.078748 0.394794 0.843533
Si Si6 0.566884 0.182084 0.088131
Si Si7 0.790551 0.471013 0.270246
O O1 0.326744 0.824102 0.947028
O O2 0.305059 0.646263 0.050965
O O3 0.072776 0.713227 0.343299
O O4 0.005326 0.655723 0.210937
O O5 0.829002 0.563373 0.204282
O O6 0.148622 0.829879 0.233798
O O7 0.867068 0.585866 0.492591
O O8 0.822835 0.533341 0.348638
O O9 0.978502 0.425406 0.422862
O O10 0.098226 0.221994 0.402271
O O11 0.001361 0.239716 0.524381
O O12 0.041563 0.532817 0.883023
O O13 0.680128 0.072554 0.757817
#
# Coordination Sequence:
#
# PCOD9430708 Si02
#       7
#     4   8   8   8   8   8   8
#     4  10  20  38  66  92 118 166 224 268 318 396
#     4  10  20  37  64  94 126 163 227 263 321 393
#     4  10  20  37  64  91 123 163 220 275 321 389
#     4  10  21  37  59  94 126 167 214 268 337 387
#     4  11  21  37  64  92 131 172 211 274 334 396
#     4  10  21  37  61  92 125 168 214 270 326 389
#     4  10  20  36  64  93 125 168 222 268 323 391
#
# _framework density 21.048121999999999
#
# number of rings (size 3 to 8) (size 9 to 14) (size 15 to 20)
#    0.000    1.846    1.538    4.154    2.154    0.000 
#    0.000    0.769    6.769    3.692    0.000    0.000 
#    0.000    0.000    0.000    0.000    0.000    0.000 
#
# Total GULP energy -290677.312704 kJ/mol
# GULP energy per Si atom -5589.948321 kJ/mol
# Density = 2.100022 g / cm^3
# Si number density = 21.048122 Si / 1000 Ang^3
#
#
#
# Elastic Constant Matrix: (Units=GPa)
#
#
# Indices 1 2 3 4 5 6 
#
# 1 33.1321 21.7636 21.9157 0.0000 0.0000 0.0000
# 2 21.7636 64.7897 39.4454 0.0000 0.0000 0.0000
# 3 21.9157 39.4454 111.8095 0.0000 0.0000 0.0000
# 4 0.0000 0.0000 0.0000 11.5017 0.0000 0.0000
# 5 0.0000 0.0000 0.0000 0.0000 -158.3972 0.0000
# 6 0.0000 0.0000 0.0000 0.0000 0.0000 21.6985
#
#
#
# Elastic Compliance Matrix: (Units=1/GPa)
#
#
# Indices 1 2 3 4 5 6 
#
# 1 0.040054 -0.011048 -0.003953 0.000000 0.000000 0.000000
# 2 -0.011048 0.022704 -0.005844 0.000000 0.000000 0.000000
# 3 -0.003953 -0.005844 0.011780 0.000000 0.000000 0.000000
# 4 0.000000 0.000000 0.000000 0.086944 0.000000 0.000000
# 5 0.000000 0.000000 0.000000 0.000000 -0.006313 0.000000
# 6 0.000000 0.000000 0.000000 0.000000 0.000000 0.046086
#
#
# Mechanical properties :
#
#
# Convention : Reuss Voigt Hill
#
# Bulk Modulus (GPa) = 30.44360 41.77564 36.10962
# Shear Modulus (GPa) = 19.69319 -16.59897 1.54711
#
# Velocity S-wave (km/s) = 3.06212 -2.81128 0.85827
# Velocity P-wave (km/s) = 5.19589 3.05827 4.26323
#
# Compressibility (1/GPa) = 0.03284763
#
# Stress axis : x y z
#
# Youngs Moduli (GPa) = 24.96618 44.04572 84.88614
#
# Poissons Ratio (x) = 0.48660 0.33559
# Poissons Ratio (y) = 0.27582 0.49609
# Poissons Ratio (z) = 0.09870 0.25741
#
# Static dielectric constant tensor:
#      x y z
#    x 1.737480 0.000000 0.000000 
#    y 0.000000 1.800470 0.000000 
#    z 0.000000 0.000000 1.777360 
# 
# From -- ./inp_files/19078.got.cif
#   From: 2010.05.17/outbox.cif.g08.bks.cpg/sg56_10_cif.got.tgz:19078.got - 2010.06.03 13:42:01.
