data_PCOD9430193
_publ_section_title
;
Structure prediction by ZEFSAII (Michael W. Deem and Ramdas Pophale) SiO2 
 PCOD9430193
Probable space group: P C C N
;
_chemical_formula_sum "Si O2"
_cell_formula_units_Z 48
_cell_length_a 15.659642
_cell_length_b 8.844359
_cell_length_c 17.385082
_cell_angle_alpha 90.000000
_cell_angle_beta 90.000000
_cell_angle_gamma 90.000000
_cell_volume 2407.825089
_symmetry_space_group_name_H-M "P C C N"
_symmetry_group_IT_number 56
_symmetry_cell_setting 'orthorhombic'
loop_
_space_group_symop_operation_xyz
x,y,z
1/2-x,1/2-y,z
1/2+x,-y,1/2-z
-x,1/2+y,1/2-z
-x,-y,-z
1/2+x,1/2+y,-z
1/2-x,y,1/2+z
x,1/2-y,1/2+z
loop_
_atom_site_type_symbol
_atom_site_label
_atom_site_fract_x
_atom_site_fract_y
_atom_site_fract_z
Si Si1 0.491723 0.242017 0.425467
Si Si2 0.818946 0.123775 0.957162
Si Si3 0.993774 0.425809 0.125567
Si Si4 0.403525 0.157635 0.582169
Si Si5 0.660730 0.190997 0.632080
Si Si6 0.969864 0.517218 0.698692
O O1 0.589884 0.194967 0.434975
O O2 0.484464 0.421593 0.422670
O O3 0.442695 0.162006 0.495873
O O4 0.459383 0.176040 0.344616
O O5 0.750000 0.250000 0.933462
O O6 0.820999 0.951981 0.923769
O O7 0.817423 0.114726 0.050037
O O8 0.080471 0.332135 0.105638
O O9 0.998880 0.465114 0.215443
O O10 0.910281 0.320042 0.114210
O O11 0.463793 0.073814 0.644479
O O12 0.750000 0.250000 0.663602
O O13 0.616605 0.076949 0.690804
#
# Coordination Sequence:
#
# PCOD9430193 Si02
#       6
#     8   8   8   8   8   8
#     4  11  18  35  59  85 118 152 200 244 288 351
#     4  10  19  35  60  85 114 152 199 248 299 345
#     4  11  22  33  59  90 119 153 201 242 300 363
#     4  10  19  36  57  85 115 157 200 243 288 358
#     4  10  20  38  61  86 112 150 202 247 295 358
#     4  10  19  37  57  86 117 160 193 236 292 365
#
# _framework density 19.935002000000001
#
# number of rings (size 3 to 8) (size 9 to 14) (size 15 to 20)
#    0.000    1.667    5.000    3.500    0.000    0.000 
#    0.000    9.167    0.000    4.000    0.000    0.000 
#    0.000    0.000    0.000    0.000    0.000    0.000 
#
# Total GULP energy -267402.891020 kJ/mol
# GULP energy per Si atom -5570.893563 kJ/mol
# Density = 1.988963 g / cm^3
# Si number density = 19.935002 Si / 1000 Ang^3
#
#
#
# Elastic Constant Matrix: (Units=GPa)
#
#
# Indices 1 2 3 4 5 6 
#
# 1 42.7144 -1.8871 3.3173 0.0000 0.0000 0.0000
# 2 -1.8871 86.7692 7.8739 0.0000 0.0000 0.0000
# 3 3.3173 7.8739 74.4015 0.0000 0.0000 0.0000
# 4 0.0000 0.0000 0.0000 14.7331 0.0000 0.0000
# 5 0.0000 0.0000 0.0000 0.0000 9.8000 0.0000
# 6 0.0000 0.0000 0.0000 0.0000 0.0000 24.9153
#
#
#
# Elastic Compliance Matrix: (Units=1/GPa)
#
#
# Indices 1 2 3 4 5 6 
#
# 1 0.023525 0.000613 -0.001114 0.000000 0.000000 0.000000
# 2 0.000613 0.011653 -0.001261 0.000000 0.000000 0.000000
# 3 -0.001114 -0.001261 0.013624 0.000000 0.000000 0.000000
# 4 0.000000 0.000000 0.000000 0.067874 0.000000 0.000000
# 5 0.000000 0.000000 0.000000 0.000000 0.102041 0.000000
# 6 0.000000 0.000000 0.000000 0.000000 0.000000 0.040136
#
#
# Mechanical properties :
#
#
# Convention : Reuss Voigt Hill
#
# Bulk Modulus (GPa) = 22.08581 24.72150 23.40365
# Shear Modulus (GPa) = 18.02010 22.86174 20.44092
#
# Velocity S-wave (km/s) = 3.00983 3.39014 3.20563
# Velocity P-wave (km/s) = 4.81474 5.26802 5.04647
#
# Compressibility (1/GPa) = 0.04527794
#
# Stress axis : x y z
#
# Youngs Moduli (GPa) = 42.50822 85.81824 73.40180
#
# Poissons Ratio (x) = -0.05258 0.08175
# Poissons Ratio (y) = -0.02604 0.09252
# Poissons Ratio (z) = 0.04734 0.10817
#
# Static dielectric constant tensor:
#      x y z
#    x 1.701650 0.000000 0.000000 
#    y 0.000000 1.815020 0.000000 
#    z 0.000000 0.000000 1.695140 
# 
# From -- ./inp_files/14950.got.cif
#   From: 2010.05.17/outbox.cif.g08.bks.cpg/sg56_8_cif.got.tgz:14950.got - 2010.06.03 13:42:01.
