data_PCOD9430146
_publ_section_title
;
Structure prediction by ZEFSAII (Michael W. Deem and Ramdas Pophale) SiO2 
 PCOD9430146
Probable space group: P C C N
;
_chemical_formula_sum "Si O2"
_cell_formula_units_Z 64
_cell_length_a 7.432086
_cell_length_b 17.021020
_cell_length_c 24.546654
_cell_angle_alpha 90.000000
_cell_angle_beta 90.000000
_cell_angle_gamma 90.000000
_cell_volume 3105.193079
_symmetry_space_group_name_H-M "P C C N"
_symmetry_group_IT_number 56
_symmetry_cell_setting 'orthorhombic'
loop_
_space_group_symop_operation_xyz
x,y,z
1/2-x,1/2-y,z
1/2+x,-y,1/2-z
-x,1/2+y,1/2-z
-x,-y,-z
1/2+x,1/2+y,-z
1/2-x,y,1/2+z
x,1/2-y,1/2+z
loop_
_atom_site_type_symbol
_atom_site_label
_atom_site_fract_x
_atom_site_fract_y
_atom_site_fract_z
Si Si1 0.423679 0.955386 0.296518
Si Si2 0.809103 0.833957 0.825352
Si Si3 0.982537 0.480054 0.412856
Si Si4 0.508929 0.123302 0.020681
Si Si5 0.840797 0.173710 0.969331
Si Si6 0.004329 0.958900 0.314155
Si Si7 0.909440 0.962094 0.580403
Si Si8 0.871116 0.846954 0.946250
O O1 0.546507 0.878995 0.288585
O O2 0.215620 0.935404 0.309588
O O3 0.516829 0.998819 0.348549
O O4 0.435952 0.009202 0.243520
O O5 0.479703 0.959494 0.948972
O O6 0.633232 0.890140 0.831569
O O7 0.905863 0.821722 0.884169
O O8 0.915741 0.558367 0.444515
O O9 0.872701 0.403589 0.432481
O O10 0.193741 0.464750 0.422926
O O11 0.340215 0.165879 0.045754
O O12 0.471870 0.109365 0.956619
O O13 0.750000 0.250000 0.941901
O O14 0.706516 0.157657 0.020286
O O15 0.025463 0.187256 0.001870
O O16 0.013621 0.028488 0.359103
O O17 0.750000 0.750000 0.803817
#
# Coordination Sequence:
#
# PCOD9430146 Si02
#       8
#     8   8   8   8   8   8   8   8
#     4  10  23  40  71  91 123 163 226 269 313 383
#     4  11  25  41  63  96 136 163 201 271 334 380
#     4  10  20  41  60  87 118 162 212 263 303 381
#     4  11  21  34  59  87 119 163 201 252 308 378
#     4  12  26  37  56  87 130 164 213 261 317 377
#     4  11  21  40  68  99 119 167 216 266 316 384
#     4  10  19  34  65  90 115 156 212 253 305 369
#     4  11  22  40  61  88 125 167 205 253 315 389
#
# _framework density 20.610636
#
# number of rings (size 3 to 8) (size 9 to 14) (size 15 to 20)
#    0.000    1.250    5.000    1.875    3.500    0.500 
#    0.000    0.000    5.500    0.000    0.000    0.000 
#    0.000    0.000    0.000    0.000    0.000    0.000 
#
# Total GULP energy -357165.652972 kJ/mol
# GULP energy per Si atom -5580.713328 kJ/mol
# Density = 2.056372 g / cm^3
# Si number density = 20.610636 Si / 1000 Ang^3
#
#
#
# Elastic Constant Matrix: (Units=GPa)
#
#
# Indices 1 2 3 4 5 6 
#
# 1 80.1741 12.7226 7.5847 0.0000 0.0000 0.0000
# 2 12.7226 76.9264 17.5339 0.0000 0.0000 0.0000
# 3 7.5847 17.5339 76.5879 0.0000 0.0000 0.0000
# 4 0.0000 0.0000 0.0000 18.8998 0.0000 0.0000
# 5 0.0000 0.0000 0.0000 0.0000 27.9882 0.0000
# 6 0.0000 0.0000 0.0000 0.0000 0.0000 29.6147
#
#
#
# Elastic Compliance Matrix: (Units=1/GPa)
#
#
# Indices 1 2 3 4 5 6 
#
# 1 0.012859 -0.001938 -0.000830 0.000000 0.000000 0.000000
# 2 -0.001938 0.014007 -0.003015 0.000000 0.000000 0.000000
# 3 -0.000830 -0.003015 0.013829 0.000000 0.000000 0.000000
# 4 0.000000 0.000000 0.000000 0.052911 0.000000 0.000000
# 5 0.000000 0.000000 0.000000 0.000000 0.035729 0.000000
# 6 0.000000 0.000000 0.000000 0.000000 0.000000 0.033767
#
#
# Mechanical properties :
#
#
# Convention : Reuss Voigt Hill
#
# Bulk Modulus (GPa) = 34.32810 34.37453 34.35132
# Shear Modulus (GPa) = 27.11837 28.35702 27.73770
#
# Velocity S-wave (km/s) = 3.63126 3.71326 3.67249
# Velocity P-wave (km/s) = 5.85432 5.92441 5.88947
#
# Compressibility (1/GPa) = 0.02913065
#
# Stress axis : x y z
#
# Youngs Moduli (GPa) = 77.76760 71.39257 72.31026
#
# Poissons Ratio (x) = 0.13832 0.06001
# Poissons Ratio (y) = 0.15068 0.21801
# Poissons Ratio (z) = 0.06454 0.21524
#
# Static dielectric constant tensor:
#      x y z
#    x 1.789220 0.000000 0.000000 
#    y 0.000000 1.810390 0.000000 
#    z 0.000000 0.000000 1.733460 
# 
# From -- ./inp_files/20718.got.cif
#   From: 2010.05.17/outbox.cif.g08.bks.cpg/sg56_11_cif.got.tgz:20718.got - 2010.06.03 13:42:01.
