data_PCOD9430245
_publ_section_title
;
Structure prediction by ZEFSAII (Michael W. Deem and Ramdas Pophale) SiO2 
 PCOD9430245
Probable space group: P C C N
;
_chemical_formula_sum "Si O2"
_cell_formula_units_Z 52
_cell_length_a 7.064611
_cell_length_b 15.544516
_cell_length_c 19.643711
_cell_angle_alpha 90.000000
_cell_angle_beta 90.000000
_cell_angle_gamma 90.000000
_cell_volume 2157.192956
_symmetry_space_group_name_H-M "P C C N"
_symmetry_group_IT_number 56
_symmetry_cell_setting 'orthorhombic'
loop_
_space_group_symop_operation_xyz
x,y,z
1/2-x,1/2-y,z
1/2+x,-y,1/2-z
-x,1/2+y,1/2-z
-x,-y,-z
1/2+x,1/2+y,-z
1/2-x,y,1/2+z
x,1/2-y,1/2+z
loop_
_atom_site_type_symbol
_atom_site_label
_atom_site_fract_x
_atom_site_fract_y
_atom_site_fract_z
Si Si1 0.464183 0.660957 0.123777
Si Si2 0.250000 0.250000 0.443108
Si Si3 0.259544 0.083793 0.026800
Si Si4 0.250000 0.750000 0.244096
Si Si5 0.440264 0.588845 0.786837
Si Si6 0.750000 0.250000 0.997217
Si Si7 0.783925 0.999793 0.345076
Si Si8 0.812944 0.075142 0.069048
O O1 0.683667 0.676317 0.114040
O O2 0.385691 0.697305 0.193647
O O3 0.410003 0.721923 0.058743
O O4 0.356091 0.570820 0.118975
O O5 0.184253 0.175555 0.497346
O O6 0.037459 0.089335 0.049784
O O7 0.374546 0.051888 0.093078
O O8 0.261104 0.006306 0.972823
O O9 0.116831 0.687693 0.285535
O O10 0.398631 0.548559 0.713022
O O11 0.653212 0.566865 0.804789
O O12 0.314148 0.555366 0.850328
O O13 0.724553 0.165270 0.042999
#
# Coordination Sequence:
#
# PCOD9430245 Si02
#       8
#     8   4   8   4   8   4   8   8
#     4  10  21  36  62  84 126 155 201 241 312 356
#     4  12  20  36  58  94 114 158 200 262 304 360
#     4  10  20  37  59  86 121 154 201 245 311 353
#     4   9  21  38  54  88 120 162 198 252 290 374
#     4  10  21  37  62  85 119 154 207 238 305 357
#     4  11  17  36  62  90 114 156 198 248 288 368
#     4  10  21  43  60  85 119 170 193 250 299 375
#     4  10  19  36  63  86 115 162 196 243 299 369
#
# _framework density 24.105399999999999
#
# number of rings (size 3 to 8) (size 9 to 14) (size 15 to 20)
#    0.000    1.846    3.077    2.308    0.000    2.462 
#    2.769    3.846    0.000    0.923    0.000    0.000 
#    0.000    0.000    0.000    0.000    0.000    0.000 
#
# Total GULP energy -289785.517046 kJ/mol
# GULP energy per Si atom -5572.798405 kJ/mol
# Density = 2.405054 g / cm^3
# Si number density = 24.105400 Si / 1000 Ang^3
#
#
#
# Elastic Constant Matrix: (Units=GPa)
#
#
# Indices 1 2 3 4 5 6 
#
# 1 17.6821 15.8632 4.4723 0.0000 0.0000 0.0000
# 2 15.8632 130.2334 20.0820 0.0000 0.0000 0.0000
# 3 4.4723 20.0820 66.3527 0.0000 0.0000 0.0000
# 4 0.0000 0.0000 0.0000 32.2218 0.0000 0.0000
# 5 0.0000 0.0000 0.0000 0.0000 13.9552 0.0000
# 6 0.0000 0.0000 0.0000 0.0000 0.0000 22.2010
#
#
#
# Elastic Compliance Matrix: (Units=1/GPa)
#
#
# Indices 1 2 3 4 5 6 
#
# 1 0.063755 -0.007451 -0.002042 0.000000 0.000000 0.000000
# 2 -0.007451 0.008925 -0.002199 0.000000 0.000000 0.000000
# 3 -0.002042 -0.002199 0.015874 0.000000 0.000000 0.000000
# 4 0.000000 0.000000 0.000000 0.031035 0.000000 0.000000
# 5 0.000000 0.000000 0.000000 0.000000 0.071658 0.000000
# 6 0.000000 0.000000 0.000000 0.000000 0.000000 0.045043
#
#
# Mechanical properties :
#
#
# Convention : Reuss Voigt Hill
#
# Bulk Modulus (GPa) = 15.34437 32.78924 24.06680
# Shear Modulus (GPa) = 17.76843 25.26565 21.51704
#
# Velocity S-wave (km/s) = 2.71793 3.24100 2.99092
# Velocity P-wave (km/s) = 4.02851 5.25713 4.68328
#
# Compressibility (1/GPa) = 0.06517050
#
# Stress axis : x y z
#
# Youngs Moduli (GPa) = 15.68495 112.04255 62.99544
#
# Poissons Ratio (x) = 0.83482 0.12865
# Poissons Ratio (y) = 0.11687 0.13853
# Poissons Ratio (z) = 0.03203 0.24639
#
# Static dielectric constant tensor:
#      x y z
#    x 1.718470 0.000000 0.000000 
#    y 0.000000 1.886570 0.000000 
#    z 0.000000 0.000000 1.925660 
# 
# From -- ./inp_files/18195.got.cif
#   From: 2010.05.17/outbox.cif.g08.bks.cpg/sg56_10_cif.got.tgz:18195.got - 2010.06.03 13:42:01.
