data_PCOD9430318
_publ_section_title
;
Structure prediction by ZEFSAII (Michael W. Deem and Ramdas Pophale) SiO2 
 PCOD9430318
Probable space group: P C C N
;
_chemical_formula_sum "Si O2"
_cell_formula_units_Z 60
_cell_length_a 12.035151
_cell_length_b 11.570765
_cell_length_c 21.026789
_cell_angle_alpha 90.000000
_cell_angle_beta 90.000000
_cell_angle_gamma 90.000000
_cell_volume 2928.104510
_symmetry_space_group_name_H-M "P C C N"
_symmetry_group_IT_number 56
_symmetry_cell_setting 'orthorhombic'
loop_
_space_group_symop_operation_xyz
x,y,z
1/2-x,1/2-y,z
1/2+x,-y,1/2-z
-x,1/2+y,1/2-z
-x,-y,-z
1/2+x,1/2+y,-z
1/2-x,y,1/2+z
x,1/2-y,1/2+z
loop_
_atom_site_type_symbol
_atom_site_label
_atom_site_fract_x
_atom_site_fract_y
_atom_site_fract_z
Si Si1 0.649249 0.898572 0.261577
Si Si2 0.250000 0.750000 0.852991
Si Si3 0.009366 0.693813 0.167710
Si Si4 0.059649 0.868183 0.937355
Si Si5 0.901674 0.788841 0.371686
Si Si6 0.201873 0.992186 0.648395
Si Si7 0.927768 0.097688 0.915485
Si Si8 0.422086 0.868770 0.775133
O O1 0.612325 0.845807 0.193686
O O2 0.631810 0.804944 0.317444
O O3 0.766775 0.955169 0.281587
O O4 0.569743 0.011203 0.262009
O O5 0.157287 0.812780 0.895470
O O6 0.304371 0.846594 0.807948
O O7 0.097757 0.593794 0.150650
O O8 0.013890 0.788827 0.112780
O O9 0.057175 0.762097 0.228800
O O10 0.957035 0.779318 0.929024
O O11 0.095291 0.883996 0.009862
O O12 0.011032 0.988828 0.911377
O O13 0.817555 0.889493 0.391464
O O14 0.993283 0.862164 0.333136
O O15 0.311218 0.928445 0.620706
#
# Coordination Sequence:
#
# PCOD9430318 Si02
#       8
#     8   4   8   8   8   8   8   8
#     4  11  21  37  61  93 129 162 200 260 328 382
#     4  10  22  38  66  90 126 170 214 254 338 380
#     4  11  23  39  62  95 130 165 213 264 319 394
#     4  10  23  45  65  90 125 169 219 274 318 379
#     4  10  21  39  60  90 127 164 207 259 327 384
#     4  12  22  38  64  97 120 167 217 260 322 393
#     4  11  24  42  67  92 124 171 222 270 312 381
#     4  10  19  38  58  90 127 166 198 260 316 388
#
# _framework density 20.491071000000002
#
# number of rings (size 3 to 8) (size 9 to 14) (size 15 to 20)
#    0.000    1.333    4.000    1.600    1.867    0.000 
#    7.200    2.000    0.000    1.600    0.000    0.000 
#    0.000    0.000    0.000    0.000    0.000    0.000 
#
# Total GULP energy -334282.527568 kJ/mol
# GULP energy per Si atom -5571.375459 kJ/mol
# Density = 2.044443 g / cm^3
# Si number density = 20.491071 Si / 1000 Ang^3
#
#
#
# Elastic Constant Matrix: (Units=GPa)
#
#
# Indices 1 2 3 4 5 6 
#
# 1 35.3868 16.7785 9.8550 0.0000 0.0000 0.0000
# 2 16.7785 118.5189 21.7862 0.0000 0.0000 0.0000
# 3 9.8550 21.7862 57.2360 0.0000 0.0000 0.0000
# 4 0.0000 0.0000 0.0000 26.3078 0.0000 0.0000
# 5 0.0000 0.0000 0.0000 0.0000 16.8683 0.0000
# 6 0.0000 0.0000 0.0000 0.0000 0.0000 25.8437
#
#
#
# Elastic Compliance Matrix: (Units=1/GPa)
#
#
# Indices 1 2 3 4 5 6 
#
# 1 0.031104 -0.003676 -0.003956 0.000000 0.000000 0.000000
# 2 -0.003676 0.009507 -0.002986 0.000000 0.000000 0.000000
# 3 -0.003956 -0.002986 0.019289 0.000000 0.000000 0.000000
# 4 0.000000 0.000000 0.000000 0.038012 0.000000 0.000000
# 5 0.000000 0.000000 0.000000 0.000000 0.059283 0.000000
# 6 0.000000 0.000000 0.000000 0.000000 0.000000 0.038694
#
#
# Mechanical properties :
#
#
# Convention : Reuss Voigt Hill
#
# Bulk Modulus (GPa) = 25.86399 34.22011 30.04205
# Shear Modulus (GPa) = 21.73798 24.65210 23.19504
#
# Velocity S-wave (km/s) = 3.26061 3.47229 3.36811
# Velocity P-wave (km/s) = 5.17927 5.72817 5.46062
#
# Compressibility (1/GPa) = 0.03866379
#
# Stress axis : x y z
#
# Youngs Moduli (GPa) = 32.15033 105.18882 51.84254
#
# Poissons Ratio (x) = 0.38668 0.20510
# Poissons Ratio (y) = 0.11819 0.15478
# Poissons Ratio (z) = 0.12719 0.31406
#
# Static dielectric constant tensor:
#      x y z
#    x 1.826570 0.000000 0.000000 
#    y 0.000000 1.794070 0.000000 
#    z 0.000000 0.000000 1.714380 
# 
# From -- ./inp_files/18812.got.cif
#   From: 2010.05.17/outbox.cif.g08.bks.cpg/sg56_10_cif.got.tgz:18812.got - 2010.06.03 13:42:01.
