data_PCOD9430827
_publ_section_title
;
Structure prediction by ZEFSAII (Michael W. Deem and Ramdas Pophale) SiO2 
 PCOD9430827
Probable space group: P C C N
;
_chemical_formula_sum "Si O2"
_cell_formula_units_Z 32
_cell_length_a 14.322967
_cell_length_b 11.437182
_cell_length_c 8.406408
_cell_angle_alpha 90.000000
_cell_angle_beta 90.000000
_cell_angle_gamma 90.000000
_cell_volume 1377.090518
_symmetry_space_group_name_H-M "P C C N"
_symmetry_group_IT_number 56
_symmetry_cell_setting 'orthorhombic'
loop_
_space_group_symop_operation_xyz
x,y,z
1/2-x,1/2-y,z
1/2+x,-y,1/2-z
-x,1/2+y,1/2-z
-x,-y,-z
1/2+x,1/2+y,-z
1/2-x,y,1/2+z
x,1/2-y,1/2+z
loop_
_atom_site_type_symbol
_atom_site_label
_atom_site_fract_x
_atom_site_fract_y
_atom_site_fract_z
Si Si1 0.688371 0.992127 0.705092
Si Si2 0.028393 0.370431 0.167728
Si Si3 0.077194 0.801914 0.642734
Si Si4 0.373004 0.539897 0.138084
O O1 0.648752 0.114863 0.769866
O O2 0.654272 0.975919 0.524354
O O3 0.798413 0.000459 0.730494
O O4 0.636424 0.898991 0.818810
O O5 0.005088 0.245034 0.243965
O O6 0.975728 0.464180 0.284179
O O7 0.971818 0.365749 0.004443
O O8 0.130161 0.680167 0.600260
#
# Coordination Sequence:
#
# PCOD9430827 Si02
#       4
#     8   8   8   8
#     4  12  21  38  64  91 126 163 204 259 320 358
#     4  10  22  38  64  90 124 164 207 259 306 374
#     4  10  20  38  58  92 123 155 207 256 308 363
#     4  10  22  36  59  94 125 155 212 256 303 367
#
# _framework density 23.237397000000001
#
# number of rings (size 3 to 8) (size 9 to 14) (size 15 to 20)
#    1.500    0.000    2.500    3.750    0.000    2.000 
#    0.000    0.000    0.000   12.000    0.000    0.000 
#    0.000    0.000    0.000    0.000    0.000    0.000 
#
# Total GULP energy -178488.744060 kJ/mol
# GULP energy per Si atom -5577.773252 kJ/mol
# Density = 2.318451 g / cm^3
# Si number density = 23.237397 Si / 1000 Ang^3
#
#
#
# Elastic Constant Matrix: (Units=GPa)
#
#
# Indices 1 2 3 4 5 6 
#
# 1 57.4615 11.5566 -4.4248 0.0000 0.0000 0.0000
# 2 11.5566 15.8729 -11.7468 0.0000 0.0000 0.0000
# 3 -4.4248 -11.7468 93.3087 0.0000 0.0000 0.0000
# 4 0.0000 0.0000 0.0000 16.7543 0.0000 0.0000
# 5 0.0000 0.0000 0.0000 0.0000 23.8262 0.0000
# 6 0.0000 0.0000 0.0000 0.0000 0.0000 22.9885
#
#
#
# Elastic Compliance Matrix: (Units=1/GPa)
#
#
# Indices 1 2 3 4 5 6 
#
# 1 0.020472 -0.015644 -0.000999 0.000000 0.000000 0.000000
# 2 -0.015644 0.081428 0.009509 0.000000 0.000000 0.000000
# 3 -0.000999 0.009509 0.011867 0.000000 0.000000 0.000000
# 4 0.000000 0.000000 0.000000 0.059686 0.000000 0.000000
# 5 0.000000 0.000000 0.000000 0.000000 0.041971 0.000000
# 6 0.000000 0.000000 0.000000 0.000000 0.000000 0.043500
#
#
# Mechanical properties :
#
#
# Convention : Reuss Voigt Hill
#
# Bulk Modulus (GPa) = 10.05028 17.49034 13.77031
# Shear Modulus (GPa) = 16.32075 24.13102 20.22589
#
# Velocity S-wave (km/s) = 2.65306 3.22600 2.95346
# Velocity P-wave (km/s) = 3.70397 4.62810 4.19158
#
# Compressibility (1/GPa) = 0.09949970
#
# Stress axis : x y z
#
# Youngs Moduli (GPa) = 48.84621 12.28078 84.26806
#
# Poissons Ratio (x) = 0.19213 0.08416
# Poissons Ratio (y) = 0.76417 -0.80132
# Poissons Ratio (z) = 0.04878 -0.11678
#
# Static dielectric constant tensor:
#      x y z
#    x 1.838750 0.000000 0.000000 
#    y 0.000000 1.903170 0.000000 
#    z 0.000000 0.000000 1.936930 
# 
# From -- ./inp_files/2437.got.cif
#   From: 2010.05.17/outbox.cif.g08.bks.cpg/sg56_2_cif.got.tgz:2437.got - 2010.06.03 13:42:01.
