data_PCOD9430399
_publ_section_title
;
Structure prediction by ZEFSAII (Michael W. Deem and Ramdas Pophale) SiO2 
 PCOD9430399
Probable space group: P C C N
;
_chemical_formula_sum "Si O2"
_cell_formula_units_Z 56
_cell_length_a 14.433905
_cell_length_b 10.964835
_cell_length_c 15.479254
_cell_angle_alpha 90.000000
_cell_angle_beta 90.000000
_cell_angle_gamma 90.000000
_cell_volume 2449.830121
_symmetry_space_group_name_H-M "P C C N"
_symmetry_group_IT_number 56
_symmetry_cell_setting 'orthorhombic'
loop_
_space_group_symop_operation_xyz
x,y,z
1/2-x,1/2-y,z
1/2+x,-y,1/2-z
-x,1/2+y,1/2-z
-x,-y,-z
1/2+x,1/2+y,-z
1/2-x,y,1/2+z
x,1/2-y,1/2+z
loop_
_atom_site_type_symbol
_atom_site_label
_atom_site_fract_x
_atom_site_fract_y
_atom_site_fract_z
Si Si1 0.250000 0.750000 0.712534
Si Si2 0.405117 0.322414 0.127364
Si Si3 0.990590 0.524727 0.222858
Si Si4 0.542122 0.111718 0.058830
Si Si5 0.683537 0.001973 0.696839
Si Si6 0.916523 0.572582 0.541307
Si Si7 0.567158 0.258240 0.392728
Si Si8 0.250000 0.250000 0.754170
O O1 0.276220 0.628318 0.766935
O O2 0.340180 0.786394 0.655286
O O3 0.445917 0.431078 0.187317
O O4 0.476003 0.221230 0.092037
O O5 0.335572 0.258748 0.190740
O O6 0.360453 0.374156 0.039689
O O7 0.090493 0.470096 0.248401
O O8 0.022568 0.643179 0.170874
O O9 0.931923 0.447419 0.152240
O O10 0.599287 0.181789 0.984175
O O11 0.500000 0.000000 0.000000
O O12 0.646115 0.012187 0.599974
O O13 0.744848 0.878836 0.696686
O O14 0.000000 0.500000 0.500000
O O15 0.976892 0.673770 0.591573
#
# Coordination Sequence:
#
# PCOD9430399 Si02
#       8
#     4   8   8   8   8   8   8   4
#     4  10  24  46  76 108 154 188 236 320 384 432
#     4  11  23  40  71 102 142 190 242 310 373 437
#     4  10  19  40  70  97 132 188 247 293 353 459
#     4   9  19  40  68 100 135 193 250 294 360 462
#     4  11  24  45  72 104 145 193 246 304 378 446
#     4  11  23  43  69  99 139 194 251 288 360 465
#     4   9  21  39  69 100 140 184 242 296 364 432
#     4  12  26  44  72 110 142 184 244 328 380 416
#
# _framework density 22.858729
#
# number of rings (size 3 to 8) (size 9 to 14) (size 15 to 20)
#    0.000    1.714    2.857    0.857    2.000    0.571 
#    2.571    2.143    0.000    0.000    0.000    0.000 
#    0.000    0.000    0.000    0.000    0.000    0.000 
#
# Total GULP energy -311922.984255 kJ/mol
# GULP energy per Si atom -5570.053290 kJ/mol
# Density = 2.280670 g / cm^3
# Si number density = 22.858729 Si / 1000 Ang^3
#
#
#
# Elastic Constant Matrix: (Units=GPa)
#
#
# Indices 1 2 3 4 5 6 
#
# 1 44.1430 31.4439 42.5848 0.0000 0.0000 0.0000
# 2 31.4439 101.3496 62.6103 0.0000 0.0000 0.0000
# 3 42.5848 62.6103 147.5427 0.0000 0.0000 0.0000
# 4 0.0000 0.0000 0.0000 -98.5779 0.0000 0.0000
# 5 0.0000 0.0000 0.0000 0.0000 37.4327 0.0000
# 6 0.0000 0.0000 0.0000 0.0000 0.0000 28.6504
#
#
#
# Elastic Compliance Matrix: (Units=1/GPa)
#
#
# Indices 1 2 3 4 5 6 
#
# 1 0.033944 -0.006070 -0.007221 0.000000 0.000000 0.000000
# 2 -0.006070 0.014458 -0.004383 0.000000 0.000000 0.000000
# 3 -0.007221 -0.004383 0.010722 0.000000 0.000000 0.000000
# 4 0.000000 0.000000 0.000000 -0.010144 0.000000 0.000000
# 5 0.000000 0.000000 0.000000 0.000000 0.026715 0.000000
# 6 0.000000 0.000000 0.000000 0.000000 0.000000 0.034903
#
#
# Mechanical properties :
#
#
# Convention : Reuss Voigt Hill
#
# Bulk Modulus (GPa) = 42.06186 62.92373 52.49280
# Shear Modulus (GPa) = 32.49460 3.92746 18.21103
#
# Velocity S-wave (km/s) = 3.77442 1.31220 2.82561
# Velocity P-wave (km/s) = 6.11848 5.46652 5.80166
#
# Compressibility (1/GPa) = 0.02377451
#
# Stress axis : x y z
#
# Youngs Moduli (GPa) = 29.46045 69.16614 93.26611
#
# Poissons Ratio (x) = 0.41985 0.67350
# Poissons Ratio (y) = 0.17883 0.40881
# Poissons Ratio (z) = 0.21274 0.30317
#
# Static dielectric constant tensor:
#      x y z
#    x 1.902440 0.000000 0.000000 
#    y 0.000000 2.025790 0.000000 
#    z 0.000000 0.000000 1.647940 
# 
# From -- ./inp_files/12326.got.cif
#   From: 2010.05.17/outbox.cif.g08.bks.cpg/sg56_7_cif.got.tgz:12326.got - 2010.06.03 13:42:01.
