data_PCOD9430870
_publ_section_title
;
Structure prediction by ZEFSAII (Michael W. Deem and Ramdas Pophale) SiO2 
 PCOD9430870
Probable space group: P C C N
;
_chemical_formula_sum "Si O2"
_cell_formula_units_Z 48
_cell_length_a 8.742194
_cell_length_b 11.774953
_cell_length_c 21.540842
_cell_angle_alpha 90.000000
_cell_angle_beta 90.000000
_cell_angle_gamma 90.000000
_cell_volume 2217.391086
_symmetry_space_group_name_H-M "P C C N"
_symmetry_group_IT_number 56
_symmetry_cell_setting 'orthorhombic'
loop_
_space_group_symop_operation_xyz
x,y,z
1/2-x,1/2-y,z
1/2+x,-y,1/2-z
-x,1/2+y,1/2-z
-x,-y,-z
1/2+x,1/2+y,-z
1/2-x,y,1/2+z
x,1/2-y,1/2+z
loop_
_atom_site_type_symbol
_atom_site_label
_atom_site_fract_x
_atom_site_fract_y
_atom_site_fract_z
Si Si1 0.868204 0.530665 0.202972
Si Si2 0.980802 0.395271 0.546203
Si Si3 0.548581 0.832509 0.020709
Si Si4 0.420294 0.775713 0.145679
Si Si5 0.512095 0.528675 0.168862
Si Si6 0.352695 0.547547 0.424954
O O1 0.685814 0.535113 0.193886
O O2 0.902718 0.444986 0.146371
O O3 0.971575 0.642234 0.186935
O O4 0.907949 0.490293 0.271265
O O5 0.063720 0.289278 0.512940
O O6 0.026247 0.435883 0.615789
O O7 0.797548 0.382702 0.556438
O O8 0.000000 0.500000 0.500000
O O9 0.421543 0.823333 0.075449
O O10 0.671463 0.913249 0.056748
O O11 0.491903 0.907215 0.964095
O O12 0.250000 0.750000 0.169757
O O13 0.491245 0.651777 0.139498
#
# Coordination Sequence:
#
# PCOD9430870 Si02
#       6
#     8   8   8   8   8   8
#     4  10  23  41  61  89 125 168 212 259 321 381
#     4  11  21  36  61  93 122 159 205 261 324 378
#     4  10  20  38  61  92 123 161 209 260 323 385
#     4  11  21  37  65  89 122 168 208 260 322 392
#     4  11  23  41  63  90 127 164 213 265 316 392
#     4   9  21  38  61  88 126 162 206 264 314 386
#
# _framework density 21.647061999999998
#
# number of rings (size 3 to 8) (size 9 to 14) (size 15 to 20)
#    0.000    1.667    1.667    3.000    0.000    2.000 
#    3.000    1.667    0.000    0.000    0.000    0.000 
#    0.000    0.000    0.000    0.000    0.000    0.000 
#
# Total GULP energy -267272.260040 kJ/mol
# GULP energy per Si atom -5568.172084 kJ/mol
# Density = 2.159779 g / cm^3
# Si number density = 21.647062 Si / 1000 Ang^3
#
#
#
# Elastic Constant Matrix: (Units=GPa)
#
#
# Indices 1 2 3 4 5 6 
#
# 1 26.1708 5.1957 21.6811 0.0000 0.0000 0.0000
# 2 5.1957 81.0256 18.1141 0.0000 0.0000 0.0000
# 3 21.6811 18.1141 117.8964 0.0000 0.0000 0.0000
# 4 0.0000 0.0000 0.0000 18.1011 0.0000 0.0000
# 5 0.0000 0.0000 0.0000 0.0000 28.5832 0.0000
# 6 0.0000 0.0000 0.0000 0.0000 0.0000 15.4495
#
#
#
# Elastic Compliance Matrix: (Units=1/GPa)
#
#
# Indices 1 2 3 4 5 6 
#
# 1 0.045169 -0.001076 -0.008141 0.000000 0.000000 0.000000
# 2 -0.001076 0.012806 -0.001770 0.000000 0.000000 0.000000
# 3 -0.008141 -0.001770 0.010251 0.000000 0.000000 0.000000
# 4 0.000000 0.000000 0.000000 0.055245 0.000000 0.000000
# 5 0.000000 0.000000 0.000000 0.000000 0.034986 0.000000
# 6 0.000000 0.000000 0.000000 0.000000 0.000000 0.064727
#
#
# Mechanical properties :
#
#
# Convention : Reuss Voigt Hill
#
# Bulk Modulus (GPa) = 21.62078 35.00830 28.31454
# Shear Modulus (GPa) = 19.18827 24.43355 21.81091
#
# Velocity S-wave (km/s) = 2.98050 3.36329 3.17767
# Velocity P-wave (km/s) = 4.67483 5.59372 5.15479
#
# Compressibility (1/GPa) = 0.04625180
#
# Stress axis : x y z
#
# Youngs Moduli (GPa) = 22.13923 78.08580 97.55079
#
# Poissons Ratio (x) = 0.08405 0.79417
# Poissons Ratio (y) = 0.02383 0.17263
# Poissons Ratio (z) = 0.18024 0.13819
#
# Static dielectric constant tensor:
#      x y z
#    x 2.693570 0.000000 0.000000 
#    y 0.000000 1.882560 0.000000 
#    z 0.000000 0.000000 1.779870 
# 
# From -- ./inp_files/20475.got.cif
#   From: 2010.05.17/outbox.cif.g08.bks.cpg/sg56_11_cif.got.tgz:20475.got - 2010.06.03 13:42:01.
