data_PCOD9430843
_publ_section_title
;
Structure prediction by ZEFSAII (Michael W. Deem and Ramdas Pophale) SiO2 
 PCOD9430843
Probable space group: P C C N
;
_chemical_formula_sum "Si O2"
_cell_formula_units_Z 32
_cell_length_a 7.598674
_cell_length_b 12.240247
_cell_length_c 16.150896
_cell_angle_alpha 90.000000
_cell_angle_beta 90.000000
_cell_angle_gamma 90.000000
_cell_volume 1502.189130
_symmetry_space_group_name_H-M "P C C N"
_symmetry_group_IT_number 56
_symmetry_cell_setting 'orthorhombic'
loop_
_space_group_symop_operation_xyz
x,y,z
1/2-x,1/2-y,z
1/2+x,-y,1/2-z
-x,1/2+y,1/2-z
-x,-y,-z
1/2+x,1/2+y,-z
1/2-x,y,1/2+z
x,1/2-y,1/2+z
loop_
_atom_site_type_symbol
_atom_site_label
_atom_site_fract_x
_atom_site_fract_y
_atom_site_fract_z
Si Si1 0.693128 0.134390 0.221475
Si Si2 0.399166 0.658481 0.461338
Si Si3 0.738856 0.918657 0.503228
Si Si4 0.003004 0.000481 0.138558
O O1 0.750000 0.250000 0.257223
O O2 0.577326 0.154267 0.138585
O O3 0.609288 0.062385 0.292062
O O4 0.862476 0.074788 0.184697
O O5 0.250000 0.750000 0.479067
O O6 0.594453 0.662362 0.500543
O O7 0.318841 0.542130 0.489290
O O8 0.604196 0.916140 0.579840
O O9 0.623922 0.924122 0.420006
#
# Coordination Sequence:
#
# PCOD9430843 Si02
#       4
#     8   8   8   8
#     4  10  21  38  59  84 118 157 197 246 305 362
#     4   9  18  36  60  84 115 156 199 249 307 366
#     4   9  19  36  58  85 119 156 198 251 305 359
#     4  10  20  38  60  86 121 159 201 253 306 369
#
# _framework density 21.302244000000002
#
# number of rings (size 3 to 8) (size 9 to 14) (size 15 to 20)
#    0.000    2.500    0.000    1.500    0.000    1.000 
#    0.000   35.000    0.000    0.000    0.000    0.000 
#    0.000    0.000    0.000    0.000    0.000    0.000 
#
# Total GULP energy -178750.180803 kJ/mol
# GULP energy per Si atom -5585.943150 kJ/mol
# Density = 2.125376 g / cm^3
# Si number density = 21.302244 Si / 1000 Ang^3
#
#
#
# Elastic Constant Matrix: (Units=GPa)
#
#
# Indices 1 2 3 4 5 6 
#
# 1 133.8124 39.6060 64.7226 0.0000 0.0000 0.0000
# 2 39.6060 70.6073 40.7364 0.0000 0.0000 0.0000
# 3 64.7226 40.7364 74.1245 0.0000 0.0000 0.0000
# 4 0.0000 0.0000 0.0000 237.9435 0.0000 0.0000
# 5 0.0000 0.0000 0.0000 0.0000 28.3066 0.0000
# 6 0.0000 0.0000 0.0000 0.0000 0.0000 34.2142
#
#
#
# Elastic Compliance Matrix: (Units=1/GPa)
#
#
# Indices 1 2 3 4 5 6 
#
# 1 0.012994 -0.001088 -0.010748 0.000000 0.000000 0.000000
# 2 -0.001088 0.020829 -0.010497 0.000000 0.000000 0.000000
# 3 -0.010748 -0.010497 0.028644 0.000000 0.000000 0.000000
# 4 0.000000 0.000000 0.000000 0.004203 0.000000 0.000000
# 5 0.000000 0.000000 0.000000 0.000000 0.035327 0.000000
# 6 0.000000 0.000000 0.000000 0.000000 0.000000 0.029228
#
#
# Mechanical properties :
#
#
# Convention : Reuss Voigt Hill
#
# Bulk Modulus (GPa) = 56.17460 63.18600 59.68030
# Shear Modulus (GPa) = 27.49905 68.99147 48.24526
#
# Velocity S-wave (km/s) = 3.59681 5.69713 4.76415
# Velocity P-wave (km/s) = 6.60885 8.54414 7.63804
#
# Compressibility (1/GPa) = 0.01780164
#
# Stress axis : x y z
#
# Youngs Moduli (GPa) = 76.96129 48.00912 34.91099
#
# Poissons Ratio (x) = 0.05222 0.37521
# Poissons Ratio (y) = 0.08371 0.36647
# Poissons Ratio (z) = 0.82716 0.50397
#
# Static dielectric constant tensor:
#      x y z
#    x 1.851610 0.000000 0.000000 
#    y 0.000000 1.818450 0.000000 
#    z 0.000000 0.000000 1.747210 
# 
# From -- ./inp_files/10082.got.cif
#   From: 2010.05.17/outbox.cif.g08.bks.cpg/sg56_6_cif.got.tgz:10082.got - 2010.06.03 13:42:01.
