data_PCOD9430430
_publ_section_title
;
Structure prediction by ZEFSAII (Michael W. Deem and Ramdas Pophale) SiO2 
 PCOD9430430
Probable space group: P C C N
;
_chemical_formula_sum "Si O2"
_cell_formula_units_Z 48
_cell_length_a 8.131093
_cell_length_b 14.109628
_cell_length_c 18.435273
_cell_angle_alpha 90.000000
_cell_angle_beta 90.000000
_cell_angle_gamma 90.000000
_cell_volume 2115.017988
_symmetry_space_group_name_H-M "P C C N"
_symmetry_group_IT_number 56
_symmetry_cell_setting 'orthorhombic'
loop_
_space_group_symop_operation_xyz
x,y,z
1/2-x,1/2-y,z
1/2+x,-y,1/2-z
-x,1/2+y,1/2-z
-x,-y,-z
1/2+x,1/2+y,-z
1/2-x,y,1/2+z
x,1/2-y,1/2+z
loop_
_atom_site_type_symbol
_atom_site_label
_atom_site_fract_x
_atom_site_fract_y
_atom_site_fract_z
Si Si1 0.632022 0.159670 0.088114
Si Si2 0.577857 0.192564 0.808814
Si Si3 0.443364 0.238404 0.957057
Si Si4 0.051402 0.128456 0.735274
Si Si5 0.142224 0.566962 0.527906
Si Si6 0.778048 0.481923 0.313467
O O1 0.750000 0.250000 0.104889
O O2 0.553771 0.121909 0.161277
O O3 0.489893 0.194744 0.034093
O O4 0.735822 0.087768 0.038660
O O5 0.750000 0.250000 0.815716
O O6 0.501361 0.178536 0.888032
O O7 0.462721 0.263588 0.763281
O O8 0.639973 0.090990 0.782275
O O9 0.250000 0.250000 0.951814
O O10 0.553172 0.333829 0.951831
O O11 0.952529 0.062870 0.791961
O O12 0.228633 0.083470 0.718546
O O13 0.226061 0.523073 0.599210
O O14 0.000000 0.500000 0.500000
#
# Coordination Sequence:
#
# PCOD9430430 Si02
#       6
#     8   8   8   8   8   8
#     4  10  22  44  68  96 130 184 219 283 343 405
#     4  10  19  45  67  88 134 187 218 272 344 418
#     4  11  22  40  68  98 128 178 236 272 339 416
#     4  11  25  41  69  98 136 175 231 277 346 407
#     4  11  24  42  69  95 140 178 230 287 351 409
#     4  11  24  44  68 100 138 186 226 281 346 415
#
# _framework density 22.694841
#
# number of rings (size 3 to 8) (size 9 to 14) (size 15 to 20)
#    0.000    1.333    5.000    2.000    4.667    3.333 
#    0.000    0.833    0.000    0.000    0.000    0.000 
#    0.000    0.000    0.000    0.000    0.000    0.000 
#
# Total GULP energy -268356.003676 kJ/mol
# GULP energy per Si atom -5590.750077 kJ/mol
# Density = 2.264319 g / cm^3
# Si number density = 22.694841 Si / 1000 Ang^3
#
#
#
# Elastic Constant Matrix: (Units=GPa)
#
#
# Indices 1 2 3 4 5 6 
#
# 1 38.7131 7.9779 -5.7632 0.0000 0.0000 0.0000
# 2 7.9779 47.4190 11.3764 0.0000 0.0000 0.0000
# 3 -5.7632 11.3764 78.7403 0.0000 0.0000 0.0000
# 4 0.0000 0.0000 0.0000 27.5998 0.0000 0.0000
# 5 0.0000 0.0000 0.0000 0.0000 22.0653 0.0000
# 6 0.0000 0.0000 0.0000 0.0000 0.0000 29.8488
#
#
#
# Elastic Compliance Matrix: (Units=1/GPa)
#
#
# Indices 1 2 3 4 5 6 
#
# 1 0.027326 -0.005259 0.002760 0.000000 0.000000 0.000000
# 2 -0.005259 0.022858 -0.003687 0.000000 0.000000 0.000000
# 3 0.002760 -0.003687 0.013435 0.000000 0.000000 0.000000
# 4 0.000000 0.000000 0.000000 0.036232 0.000000 0.000000
# 5 0.000000 0.000000 0.000000 0.000000 0.045320 0.000000
# 6 0.000000 0.000000 0.000000 0.000000 0.000000 0.033502
#
#
# Mechanical properties :
#
#
# Convention : Reuss Voigt Hill
#
# Bulk Modulus (GPa) = 19.51427 21.33939 20.42683
# Shear Modulus (GPa) = 24.02361 25.98820 25.00590
#
# Velocity S-wave (km/s) = 3.25706 3.38763 3.32299
# Velocity P-wave (km/s) = 4.77094 4.97237 4.87270
#
# Compressibility (1/GPa) = 0.05124456
#
# Stress axis : x y z
#
# Youngs Moduli (GPa) = 36.59546 43.74812 74.43379
#
# Poissons Ratio (x) = 0.23009 -0.20543
# Poissons Ratio (y) = 0.19247 0.27447
# Poissons Ratio (z) = -0.10100 0.16132
#
# Static dielectric constant tensor:
#      x y z
#    x 1.947260 0.000000 0.000000 
#    y 0.000000 1.857560 0.000000 
#    z 0.000000 0.000000 1.802300 
# 
# From -- ./inp_files/14831.got.cif
#   From: 2010.05.17/outbox.cif.g08.bks.cpg/sg56_8_cif.got.tgz:14831.got - 2010.06.03 13:42:01.
