data_PCOD9430120
_publ_section_title
;
Structure prediction by ZEFSAII (Michael W. Deem and Ramdas Pophale) SiO2 
 PCOD9430120
Probable space group: P C C N
;
_chemical_formula_sum "Si O2"
_cell_formula_units_Z 60
_cell_length_a 13.291183
_cell_length_b 22.697407
_cell_length_c 8.801435
_cell_angle_alpha 90.000000
_cell_angle_beta 90.000000
_cell_angle_gamma 90.000000
_cell_volume 2655.176337
_symmetry_space_group_name_H-M "P C C N"
_symmetry_group_IT_number 56
_symmetry_cell_setting 'orthorhombic'
loop_
_space_group_symop_operation_xyz
x,y,z
1/2-x,1/2-y,z
1/2+x,-y,1/2-z
-x,1/2+y,1/2-z
-x,-y,-z
1/2+x,1/2+y,-z
1/2-x,y,1/2+z
x,1/2-y,1/2+z
loop_
_atom_site_type_symbol
_atom_site_label
_atom_site_fract_x
_atom_site_fract_y
_atom_site_fract_z
Si Si1 0.849534 0.381710 0.916774
Si Si2 0.272042 0.059049 0.215420
Si Si3 0.784285 0.316574 0.210335
Si Si4 0.683398 0.477933 0.004882
Si Si5 0.546766 0.385296 0.869902
Si Si6 0.524118 0.565314 0.448747
Si Si7 0.331541 0.330258 0.886321
Si Si8 0.250000 0.250000 0.147616
O O1 0.807814 0.359180 0.757445
O O2 0.783912 0.439113 0.967739
O O3 0.822674 0.332669 0.043094
O O4 0.967678 0.394233 0.928487
O O5 0.359317 0.071868 0.091414
O O6 0.262532 0.118139 0.313906
O O7 0.310032 0.009235 0.333476
O O8 0.181770 0.029764 0.122150
O O9 0.750000 0.250000 0.221935
O O10 0.871234 0.335311 0.329681
O O11 0.592059 0.433254 0.983129
O O12 0.530481 0.418977 0.709714
O O13 0.440712 0.357715 0.912143
O O14 0.500000 0.500000 0.500000
O O15 0.332464 0.278971 0.758690
O O16 0.290397 0.300918 0.037884
#
# Coordination Sequence:
#
# PCOD9430120 Si02
#       8
#     8   8   8   8   8   8   8   4
#     4  10  20  36  57  84 123 163 208 249 316 367
#     4  11  22  36  67  93 129 169 216 257 332 388
#     4  10  20  38  60  85 121 170 205 257 304 374
#     4  11  21  38  62  94 135 170 196 265 324 400
#     4   9  22  40  60  91 136 159 209 261 319 381
#     4  10  19  34  56  84 121 164 207 255 302 380
#     4  10  22  44  68  97 121 166 219 271 323 381
#     4  10  22  46  76  84 124 168 218 282 324 358
#
# _framework density 22.597370000000002
#
# number of rings (size 3 to 8) (size 9 to 14) (size 15 to 20)
#    0.000    1.867    1.333    3.600    0.000    2.133 
#   12.000    1.333    5.867    0.000    0.000    0.000 
#    0.000    0.000    0.000    0.000    0.000    0.000 
#
# Total GULP energy -335465.087863 kJ/mol
# GULP energy per Si atom -5591.084798 kJ/mol
# Density = 2.254594 g / cm^3
# Si number density = 22.597370 Si / 1000 Ang^3
#
#
#
# Elastic Constant Matrix: (Units=GPa)
#
#
# Indices 1 2 3 4 5 6 
#
# 1 71.2310 47.2802 37.4004 0.0000 0.0000 0.0000
# 2 47.2802 111.8758 35.7353 0.0000 0.0000 0.0000
# 3 37.4004 35.7353 65.9567 0.0000 0.0000 0.0000
# 4 0.0000 0.0000 0.0000 44.6901 0.0000 0.0000
# 5 0.0000 0.0000 0.0000 0.0000 19.0325 0.0000
# 6 0.0000 0.0000 0.0000 0.0000 0.0000 34.7486
#
#
#
# Elastic Compliance Matrix: (Units=1/GPa)
#
#
# Indices 1 2 3 4 5 6 
#
# 1 0.023734 -0.006931 -0.009703 0.000000 0.000000 0.000000
# 2 -0.006931 0.012833 -0.003023 0.000000 0.000000 0.000000
# 3 -0.009703 -0.003023 0.022301 0.000000 0.000000 0.000000
# 4 0.000000 0.000000 0.000000 0.022376 0.000000 0.000000
# 5 0.000000 0.000000 0.000000 0.000000 0.052542 0.000000
# 6 0.000000 0.000000 0.000000 0.000000 0.000000 0.028778
#
#
# Mechanical properties :
#
#
# Convention : Reuss Voigt Hill
#
# Bulk Modulus (GPa) = 51.13843 54.43280 52.78562
# Shear Modulus (GPa) = 23.99274 28.27075 26.13174
#
# Velocity S-wave (km/s) = 3.26198 3.54088 3.40429
# Velocity P-wave (km/s) = 6.07180 6.39198 6.23395
#
# Compressibility (1/GPa) = 0.01955476
#
# Stress axis : x y z
#
# Youngs Moduli (GPa) = 42.13373 77.92320 44.84055
#
# Poissons Ratio (x) = 0.54008 0.43509
# Poissons Ratio (y) = 0.29203 0.13555
# Poissons Ratio (z) = 0.40882 0.23555
#
# Static dielectric constant tensor:
#      x y z
#    x 1.857600 0.000000 0.000000 
#    y 0.000000 1.853240 0.000000 
#    z 0.000000 0.000000 1.827090 
# 
# From -- ./inp_files/3685.got.cif
#   From: 2010.05.17/outbox.cif.g08.bks.cpg/sg56_2_cif.got.tgz:3685.got - 2010.06.03 13:42:01.
