data_PCOD9430436
_publ_section_title
;
Structure prediction by ZEFSAII (Michael W. Deem and Ramdas Pophale) SiO2 
 PCOD9430436
Probable space group: P C C N
;
_chemical_formula_sum "Si O2"
_cell_formula_units_Z 40
_cell_length_a 13.977271
_cell_length_b 19.929912
_cell_length_c 7.970739
_cell_angle_alpha 90.000000
_cell_angle_beta 90.000000
_cell_angle_gamma 90.000000
_cell_volume 2220.375135
_symmetry_space_group_name_H-M "P C C N"
_symmetry_group_IT_number 56
_symmetry_cell_setting 'orthorhombic'
loop_
_space_group_symop_operation_xyz
x,y,z
1/2-x,1/2-y,z
1/2+x,-y,1/2-z
-x,1/2+y,1/2-z
-x,-y,-z
1/2+x,1/2+y,-z
1/2-x,y,1/2+z
x,1/2-y,1/2+z
loop_
_atom_site_type_symbol
_atom_site_label
_atom_site_fract_x
_atom_site_fract_y
_atom_site_fract_z
Si Si1 0.623613 0.075645 0.872502
Si Si2 0.178672 0.537117 0.761087
Si Si3 0.456472 0.059086 0.613673
Si Si4 0.145143 0.718468 0.231222
Si Si5 0.570348 0.341181 0.926488
O O1 0.708520 0.049460 0.751563
O O2 0.523898 0.064697 0.778025
O O3 0.636589 0.155772 0.894712
O O4 0.639772 0.040684 0.050086
O O5 0.145670 0.468222 0.672712
O O6 0.128900 0.599320 0.663184
O O7 0.474187 0.125930 0.503706
O O8 0.500000 0.000000 0.500000
O O9 0.250000 0.750000 0.221570
O O10 0.128043 0.686018 0.412397
O O11 0.068678 0.776853 0.193712
#
# Coordination Sequence:
#
# PCOD9430436 Si02
#       5
#     8   8   8   8   8
#     4  11  21  32  53  76 104 147 175 221 270 313
#     4  11  20  34  48  72 106 142 185 216 263 321
#     4   9  20  35  49  71 105 141 181 221 257 319
#     4  11  19  28  45  73 104 135 171 206 263 333
#     4  10  20  30  46  70 103 142 168 212 260 315
#
# _framework density 18.014975
#
# number of rings (size 3 to 8) (size 9 to 14) (size 15 to 20)
#    0.000    1.600    2.000    6.000    0.000    0.000 
#    0.000    0.000    0.000    0.000    0.000    0.000 
#    0.000  193.600    0.000    0.000    0.000    0.000 
#
# Total GULP energy -223094.297043 kJ/mol
# GULP energy per Si atom -5577.357426 kJ/mol
# Density = 1.797397 g / cm^3
# Si number density = 18.014975 Si / 1000 Ang^3
#
#
#
# Elastic Constant Matrix: (Units=GPa)
#
#
# Indices 1 2 3 4 5 6 
#
# 1 34.6878 27.4794 -7.0517 0.0000 0.0000 0.0000
# 2 27.4794 73.8289 11.5489 0.0000 0.0000 0.0000
# 3 -7.0517 11.5489 68.1698 0.0000 0.0000 0.0000
# 4 0.0000 0.0000 0.0000 25.7446 0.0000 0.0000
# 5 0.0000 0.0000 0.0000 0.0000 16.4642 0.0000
# 6 0.0000 0.0000 0.0000 0.0000 0.0000 35.3943
#
#
#
# Elastic Compliance Matrix: (Units=1/GPa)
#
#
# Indices 1 2 3 4 5 6 
#
# 1 0.044408 -0.017717 0.007595 0.000000 0.000000 0.000000
# 2 -0.017717 0.020982 -0.005387 0.000000 0.000000 0.000000
# 3 0.007595 -0.005387 0.016368 0.000000 0.000000 0.000000
# 4 0.000000 0.000000 0.000000 0.038843 0.000000 0.000000
# 5 0.000000 0.000000 0.000000 0.000000 0.060738 0.000000
# 6 0.000000 0.000000 0.000000 0.000000 0.000000 0.028253
#
#
# Mechanical properties :
#
#
# Convention : Reuss Voigt Hill
#
# Bulk Modulus (GPa) = 19.70863 26.73776 23.22320
# Shear Modulus (GPa) = 19.41580 25.16793 22.29186
#
# Velocity S-wave (km/s) = 3.28649 3.74178 3.52150
# Velocity P-wave (km/s) = 5.03639 5.79155 5.42712
#
# Compressibility (1/GPa) = 0.05073918
#
# Stress axis : x y z
#
# Youngs Moduli (GPa) = 22.51862 47.66037 61.09634
#
# Poissons Ratio (x) = 0.84439 -0.46403
# Poissons Ratio (y) = 0.39896 0.32914
# Poissons Ratio (z) = -0.17103 0.25676
#
# Static dielectric constant tensor:
#      x y z
#    x 1.600780 0.000000 0.000000 
#    y 0.000000 1.655980 0.000000 
#    z 0.000000 0.000000 1.687660 
# 
# From -- ./inp_files/2683.got.cif
#   From: 2010.05.17/outbox.cif.g08.bks.cpg/sg56_2_cif.got.tgz:2683.got - 2010.06.03 13:42:01.
