data_PCOD9430398
_publ_section_title
;
Structure prediction by ZEFSAII (Michael W. Deem and Ramdas Pophale) SiO2 
 PCOD9430398
Probable space group: P C C N
;
_chemical_formula_sum "Si O2"
_cell_formula_units_Z 56
_cell_length_a 12.798553
_cell_length_b 10.009116
_cell_length_c 21.139541
_cell_angle_alpha 90.000000
_cell_angle_beta 90.000000
_cell_angle_gamma 90.000000
_cell_volume 2708.021743
_symmetry_space_group_name_H-M "P C C N"
_symmetry_group_IT_number 56
_symmetry_cell_setting 'orthorhombic'
loop_
_space_group_symop_operation_xyz
x,y,z
1/2-x,1/2-y,z
1/2+x,-y,1/2-z
-x,1/2+y,1/2-z
-x,-y,-z
1/2+x,1/2+y,-z
1/2-x,y,1/2+z
x,1/2-y,1/2+z
loop_
_atom_site_type_symbol
_atom_site_label
_atom_site_fract_x
_atom_site_fract_y
_atom_site_fract_z
Si Si1 0.214799 0.032136 0.937579
Si Si2 0.831553 0.364144 0.681470
Si Si3 0.523984 0.692388 0.122622
Si Si4 0.959411 0.970703 0.570104
Si Si5 0.589394 0.526601 0.946762
Si Si6 0.037690 0.230573 0.640852
Si Si7 0.344256 0.152101 0.260515
O O1 0.188897 0.907729 0.891709
O O2 0.335945 0.058733 0.928672
O O3 0.131401 0.142798 0.913050
O O4 0.192646 0.010758 0.011652
O O5 0.750000 0.250000 0.699649
O O6 0.818937 0.498476 0.722630
O O7 0.949658 0.311324 0.680068
O O8 0.436024 0.584299 0.105479
O O9 0.557078 0.688242 0.195279
O O10 0.490927 0.836896 0.098723
O O11 0.983389 0.101335 0.610939
O O12 0.000000 0.000000 0.500000
O O13 0.578398 0.670161 0.913956
O O14 0.500000 0.500000 0.000000
O O15 0.126461 0.180755 0.688433
O O16 0.250000 0.250000 0.279084
#
# Coordination Sequence:
#
# PCOD9430398 Si02
#       7
#     8   8   8   8   8   8   8
#     4  10  20  39  68  91 126 173 222 270 341 398
#     4  11  22  43  71 100 128 179 231 279 329 404
#     4  10  21  40  63  95 126 171 225 270 332 396
#     4  12  25  37  61  98 135 170 217 279 332 407
#     4  10  19  40  68  95 127 169 219 278 338 396
#     4  12  25  41  69 100 132 173 228 275 336 398
#     4  11  26  44  67  96 135 180 227 275 338 401
#
# _framework density 20.679302
#
# number of rings (size 3 to 8) (size 9 to 14) (size 15 to 20)
#    0.000    1.143    5.714    3.857    2.000    1.143 
#    0.000    0.000    0.000    0.000    0.000    0.000 
#    0.000    0.000    0.000    0.000    0.000    0.000 
#
# Total GULP energy -312763.758086 kJ/mol
# GULP energy per Si atom -5585.067109 kJ/mol
# Density = 2.063224 g / cm^3
# Si number density = 20.679302 Si / 1000 Ang^3
#
#
#
# Elastic Constant Matrix: (Units=GPa)
#
#
# Indices 1 2 3 4 5 6 
#
# 1 26.9666 23.1917 14.8872 0.0000 0.0000 0.0000
# 2 23.1917 159.4106 41.1640 0.0000 0.0000 0.0000
# 3 14.8872 41.1640 86.7186 0.0000 0.0000 0.0000
# 4 0.0000 0.0000 0.0000 21.1183 0.0000 0.0000
# 5 0.0000 0.0000 0.0000 0.0000 28.8584 0.0000
# 6 0.0000 0.0000 0.0000 0.0000 0.0000 16.2008
#
#
#
# Elastic Compliance Matrix: (Units=1/GPa)
#
#
# Indices 1 2 3 4 5 6 
#
# 1 0.044342 -0.005112 -0.005186 0.000000 0.000000 0.000000
# 2 -0.005112 0.007739 -0.002796 0.000000 0.000000 0.000000
# 3 -0.005186 -0.002796 0.013749 0.000000 0.000000 0.000000
# 4 0.000000 0.000000 0.000000 0.047352 0.000000 0.000000
# 5 0.000000 0.000000 0.000000 0.000000 0.034652 0.000000
# 6 0.000000 0.000000 0.000000 0.000000 0.000000 0.061725
#
#
# Mechanical properties :
#
#
# Convention : Reuss Voigt Hill
#
# Bulk Modulus (GPa) = 25.22537 47.95351 36.58944
# Shear Modulus (GPa) = 20.08348 26.15904 23.12126
#
# Velocity S-wave (km/s) = 3.11977 3.56052 3.34741
# Velocity P-wave (km/s) = 5.02017 6.33582 5.71597
#
# Compressibility (1/GPa) = 0.03964263
#
# Stress axis : x y z
#
# Youngs Moduli (GPa) = 22.55192 129.21913 72.73271
#
# Poissons Ratio (x) = 0.66057 0.37717
# Poissons Ratio (y) = 0.11528 0.20335
# Poissons Ratio (z) = 0.11695 0.36128
#
# Static dielectric constant tensor:
#      x y z
#    x 1.733620 0.000000 0.000000 
#    y 0.000000 1.743970 0.000000 
#    z 0.000000 0.000000 1.789920 
# 
# From -- ./inp_files/19115.got.cif
#   From: 2010.05.17/outbox.cif.g08.bks.cpg/sg56_10_cif.got.tgz:19115.got - 2010.06.03 13:42:01.
