data_PCOD9431737
_publ_section_title
;
Structure prediction by ZEFSAII (Michael W. Deem and Ramdas Pophale) SiO2 
 PCOD9431737
Probable space group: P C C N
;
_chemical_formula_sum "Si O2"
_cell_formula_units_Z 64
_cell_length_a 8.187743
_cell_length_b 22.631694
_cell_length_c 13.058033
_cell_angle_alpha 90.000000
_cell_angle_beta 90.000000
_cell_angle_gamma 90.000000
_cell_volume 2419.686083
_symmetry_space_group_name_H-M "P C C N"
_symmetry_group_IT_number 56
_symmetry_cell_setting 'orthorhombic'
loop_
_space_group_symop_operation_xyz
x,y,z
1/2-x,1/2-y,z
1/2+x,-y,1/2-z
-x,1/2+y,1/2-z
-x,-y,-z
1/2+x,1/2+y,-z
1/2-x,y,1/2+z
x,1/2-y,1/2+z
loop_
_atom_site_type_symbol
_atom_site_label
_atom_site_fract_x
_atom_site_fract_y
_atom_site_fract_z
Si Si1 0.427325 0.719791 0.168470
Si Si2 0.696688 0.104113 0.423616
Si Si3 0.521847 0.658815 0.654636
Si Si4 0.186450 0.449373 0.878042
Si Si5 0.978185 0.356277 0.607827
Si Si6 0.652868 0.900535 0.913052
Si Si7 0.565478 0.771581 0.889859
Si Si8 0.506283 0.030672 0.273356
O O1 0.250000 0.750000 0.152712
O O2 0.421678 0.655784 0.120008
O O3 0.546070 0.772307 0.132052
O O4 0.465585 0.713561 0.287789
O O5 0.879218 0.125925 0.407320
O O6 0.650434 0.105279 0.543330
O O7 0.653325 0.050582 0.348133
O O8 0.685463 0.620809 0.646273
O O9 0.453802 0.653465 0.771461
O O10 0.357579 0.478463 0.851295
O O11 0.061638 0.476929 0.797272
O O12 0.140620 0.449146 0.997042
O O13 0.153965 0.387837 0.599198
O O14 0.983255 0.288058 0.566431
O O15 0.562111 0.923129 0.811575
O O16 0.585106 0.835246 0.942139
O O17 0.750000 0.750000 0.864022
#
# Coordination Sequence:
#
# PCOD9431737 Si02
#       8
#     8   8   8   8   8   8   8   8
#     4   9  19  37  61  95 136 176 210 268 330 383
#     4  11  22  41  67  99 134 182 221 269 339 397
#     4  10  23  43  64  98 140 175 224 273 333 400
#     4  12  26  45  70  95 130 179 228 282 336 396
#     4  10  21  41  67 103 141 173 218 276 341 395
#     4  11  22  43  69 103 132 176 220 283 328 407
#     4   9  19  36  63  98 137 172 214 260 326 402
#     4  12  25  46  69  96 135 170 236 281 330 399
#
# _framework density 26.449712000000002
#
# number of rings (size 3 to 8) (size 9 to 14) (size 15 to 20)
#    0.000    1.500    3.750    1.125    1.750    1.000 
#    2.250    8.125    0.000    0.000    0.000    0.000 
#    0.000    0.000    0.000    0.000    0.000    0.000 
#
# Total GULP energy -358121.100200 kJ/mol
# GULP energy per Si atom -5595.642191 kJ/mol
# Density = 2.638951 g / cm^3
# Si number density = 26.449712 Si / 1000 Ang^3
#
#
#
# Elastic Constant Matrix: (Units=GPa)
#
#
# Indices 1 2 3 4 5 6 
#
# 1 63.8168 13.0279 9.3299 0.0000 0.0000 0.0000
# 2 13.0279 85.8105 7.1168 0.0000 0.0000 0.0000
# 3 9.3299 7.1168 86.9980 0.0000 0.0000 0.0000
# 4 0.0000 0.0000 0.0000 39.6995 0.0000 0.0000
# 5 0.0000 0.0000 0.0000 0.0000 17.8099 0.0000
# 6 0.0000 0.0000 0.0000 0.0000 0.0000 30.9909
#
#
#
# Elastic Compliance Matrix: (Units=1/GPa)
#
#
# Indices 1 2 3 4 5 6 
#
# 1 0.016380 -0.002357 -0.001564 0.000000 0.000000 0.000000
# 2 -0.002357 0.012072 -0.000735 0.000000 0.000000 0.000000
# 3 -0.001564 -0.000735 0.011722 0.000000 0.000000 0.000000
# 4 0.000000 0.000000 0.000000 0.025189 0.000000 0.000000
# 5 0.000000 0.000000 0.000000 0.000000 0.056149 0.000000
# 6 0.000000 0.000000 0.000000 0.000000 0.000000 0.032268
#
#
# Mechanical properties :
#
#
# Convention : Reuss Voigt Hill
#
# Bulk Modulus (GPa) = 32.40121 32.84161 32.62141
# Shear Modulus (GPa) = 28.83860 31.51010 30.17435
#
# Velocity S-wave (km/s) = 3.30558 3.45530 3.38127
# Velocity P-wave (km/s) = 5.18130 5.32563 5.25396
#
# Compressibility (1/GPa) = 0.03086305
#
# Stress axis : x y z
#
# Youngs Moduli (GPa) = 61.05133 82.83365 85.30725
#
# Poissons Ratio (x) = 0.19525 0.13340
# Poissons Ratio (y) = 0.14390 0.06268
# Poissons Ratio (z) = 0.09547 0.06087
#
# Static dielectric constant tensor:
#      x y z
#    x 2.024730 0.000000 0.000000 
#    y 0.000000 2.084130 0.000000 
#    z 0.000000 0.000000 2.148280 
# 
# From -- ./inp_files/11031.got.cif
#   From: 2010.05.17/outbox.cif.g08.bks.cpg/sg56_6_cif.got.tgz:11031.got - 2010.06.03 13:42:01.
