data_PCOD9431993
_publ_section_title
;
Structure prediction by ZEFSAII (Michael W. Deem and Ramdas Pophale) SiO2 
 PCOD9431993
Probable space group: P C C N
;
_chemical_formula_sum "Si O2"
_cell_formula_units_Z 40
_cell_length_a 17.621925
_cell_length_b 5.620670
_cell_length_c 17.982174
_cell_angle_alpha 90.000000
_cell_angle_beta 90.000000
_cell_angle_gamma 90.000000
_cell_volume 1781.080841
_symmetry_space_group_name_H-M "P C C N"
_symmetry_group_IT_number 56
_symmetry_cell_setting 'orthorhombic'
loop_
_space_group_symop_operation_xyz
x,y,z
1/2-x,1/2-y,z
1/2+x,-y,1/2-z
-x,1/2+y,1/2-z
-x,-y,-z
1/2+x,1/2+y,-z
1/2-x,y,1/2+z
x,1/2-y,1/2+z
loop_
_atom_site_type_symbol
_atom_site_label
_atom_site_fract_x
_atom_site_fract_y
_atom_site_fract_z
Si Si1 0.041073 0.010519 0.168429
Si Si2 0.014222 0.251573 0.957603
Si Si3 0.671245 0.851775 0.120533
Si Si4 0.168913 0.156965 0.709481
Si Si5 0.389748 0.746551 0.797107
O O1 0.056275 0.928511 0.252328
O O2 0.042396 0.788918 0.112371
O O3 0.102846 0.220521 0.160734
O O4 0.954556 0.094754 0.163326
O O5 0.100541 0.279629 0.929441
O O6 0.000000 0.500000 0.000000
O O7 0.000000 0.000000 0.000000
O O8 0.750000 0.750000 0.090316
O O9 0.665260 0.747262 0.204409
O O10 0.662894 0.130613 0.141578
O O11 0.250000 0.250000 0.681379
O O12 0.156531 0.880912 0.730363
#
# Coordination Sequence:
#
# PCOD9431993 Si02
#       5
#     8   8   8   8   8
#     4  11  21  38  66 101 137 178 227 292 354 426
#     4  12  27  46  69  98 134 196 249 283 331 424
#     4  10  23  42  67 102 134 170 230 302 360 414
#     4  10  22  38  66 107 136 171 218 293 381 430
#     4  11  19  38  72 103 136 172 222 299 382 430
#
# _framework density 22.458273999999999
#
# number of rings (size 3 to 8) (size 9 to 14) (size 15 to 20)
#    0.000    1.200    4.000    2.400    2.800    7.200 
#    0.000    1.000    4.400    0.000    0.000    0.000 
#    0.000    0.000    0.000    0.000    0.000    0.000 
#
# Total GULP energy -222763.033243 kJ/mol
# GULP energy per Si atom -5569.075831 kJ/mol
# Density = 2.240716 g / cm^3
# Si number density = 22.458274 Si / 1000 Ang^3
#
#
#
# Elastic Constant Matrix: (Units=GPa)
#
#
# Indices 1 2 3 4 5 6 
#
# 1 182.1409 81.5229 42.5145 0.0000 0.0000 0.0000
# 2 81.5229 121.0598 34.9321 0.0000 0.0000 0.0000
# 3 42.5145 34.9321 49.6740 0.0000 0.0000 0.0000
# 4 0.0000 0.0000 0.0000 46.6006 0.0000 0.0000
# 5 0.0000 0.0000 0.0000 0.0000 23.5362 0.0000
# 6 0.0000 0.0000 0.0000 0.0000 0.0000 28.6042
#
#
#
# Elastic Compliance Matrix: (Units=1/GPa)
#
#
# Indices 1 2 3 4 5 6 
#
# 1 0.008465 -0.004529 -0.004060 0.000000 0.000000 0.000000
# 2 -0.004529 0.012786 -0.005116 0.000000 0.000000 0.000000
# 3 -0.004060 -0.005116 0.027204 0.000000 0.000000 0.000000
# 4 0.000000 0.000000 0.000000 0.021459 0.000000 0.000000
# 5 0.000000 0.000000 0.000000 0.000000 0.042488 0.000000
# 6 0.000000 0.000000 0.000000 0.000000 0.000000 0.034960
#
#
# Mechanical properties :
#
#
# Convention : Reuss Voigt Hill
#
# Bulk Modulus (GPa) = 47.51538 74.53485 61.02512
# Shear Modulus (GPa) = 27.50492 32.67522 30.09007
#
# Velocity S-wave (km/s) = 3.50339 3.81849 3.66433
# Velocity P-wave (km/s) = 6.12928 7.25957 6.71824
#
# Compressibility (1/GPa) = 0.02104582
#
# Stress axis : x y z
#
# Youngs Moduli (GPa) = 118.13391 78.20903 36.75984
#
# Poissons Ratio (x) = 0.35420 0.14925
# Poissons Ratio (y) = 0.53501 0.18805
# Poissons Ratio (z) = 0.47964 0.40008
#
# Static dielectric constant tensor:
#      x y z
#    x 1.862560 0.000000 0.000000 
#    y 0.000000 2.257470 0.000000 
#    z 0.000000 0.000000 1.893740 
# 
# From -- ./inp_files/16474.got.cif
#   From: 2010.05.17/outbox.cif.g08.bks.cpg/sg56_9_cif.got.tgz:16474.got - 2010.06.03 13:42:01.
