data_PCOD9431119
_publ_section_title
;
Structure prediction by ZEFSAII (Michael W. Deem and Ramdas Pophale) SiO2 
 PCOD9431119
Probable space group: P C C N
;
_chemical_formula_sum "Si O2"
_cell_formula_units_Z 48
_cell_length_a 8.364205
_cell_length_b 25.444560
_cell_length_c 9.833814
_cell_angle_alpha 90.000000
_cell_angle_beta 90.000000
_cell_angle_gamma 90.000000
_cell_volume 2092.866871
_symmetry_space_group_name_H-M "P C C N"
_symmetry_group_IT_number 56
_symmetry_cell_setting 'orthorhombic'
loop_
_space_group_symop_operation_xyz
x,y,z
1/2-x,1/2-y,z
1/2+x,-y,1/2-z
-x,1/2+y,1/2-z
-x,-y,-z
1/2+x,1/2+y,-z
1/2-x,y,1/2+z
x,1/2-y,1/2+z
loop_
_atom_site_type_symbol
_atom_site_label
_atom_site_fract_x
_atom_site_fract_y
_atom_site_fract_z
Si Si1 0.598688 0.714922 0.408758
Si Si2 0.870263 0.036993 0.795037
Si Si3 0.493269 0.894893 0.944465
Si Si4 0.428007 0.768498 0.641471
Si Si5 0.381192 0.625182 0.987342
Si Si6 0.004800 0.570911 0.245210
O O1 0.750000 0.750000 0.373598
O O2 0.609032 0.652134 0.400098
O O3 0.545540 0.730543 0.559776
O O4 0.464281 0.730593 0.300081
O O5 0.972585 0.060380 0.669014
O O6 0.907706 0.071454 0.928030
O O7 0.685541 0.048504 0.763080
O O8 0.898856 0.975406 0.806461
O O9 0.311006 0.871657 0.962214
O O10 0.543993 0.915634 0.091968
O O11 0.250000 0.750000 0.616842
O O12 0.440489 0.826579 0.577437
O O13 0.474431 0.620203 0.845487
#
# Coordination Sequence:
#
# PCOD9431119 Si02
#       6
#     8   8   8   8   8   8
#     4  12  27  46  66 101 143 174 222 294 354 402
#     4  10  20  41  62  94 132 172 223 278 327 399
#     4  10  21  40  66  91 133 176 221 272 335 401
#     4  12  25  44  75  98 129 183 241 276 335 420
#     4  10  21  40  66  97 126 173 233 278 313 402
#     4  10  22  38  67  95 131 174 223 275 336 393
#
# _framework density 22.935048999999999
#
# number of rings (size 3 to 8) (size 9 to 14) (size 15 to 20)
#    0.000    1.333    3.333    2.000    2.333    0.000 
#    6.000    0.000    0.000    0.000    0.000    0.000 
#    0.000    0.000    0.000    0.000    0.000    0.000 
#
# Total GULP energy -268631.708614 kJ/mol
# GULP energy per Si atom -5596.493929 kJ/mol
# Density = 2.288285 g / cm^3
# Si number density = 22.935049 Si / 1000 Ang^3
#
#
#
# Elastic Constant Matrix: (Units=GPa)
#
#
# Indices 1 2 3 4 5 6 
#
# 1 27.4789 16.2714 5.7022 0.0000 0.0000 0.0000
# 2 16.2714 63.9912 1.6517 0.0000 0.0000 0.0000
# 3 5.7022 1.6517 83.7086 0.0000 0.0000 0.0000
# 4 0.0000 0.0000 0.0000 35.2059 0.0000 0.0000
# 5 0.0000 0.0000 0.0000 0.0000 -20.0339 0.0000
# 6 0.0000 0.0000 0.0000 0.0000 0.0000 26.1310
#
#
#
# Elastic Compliance Matrix: (Units=1/GPa)
#
#
# Indices 1 2 3 4 5 6 
#
# 1 0.043463 -0.010981 -0.002744 0.000000 0.000000 0.000000
# 2 -0.010981 0.018409 0.000385 0.000000 0.000000 0.000000
# 3 -0.002744 0.000385 0.012126 0.000000 0.000000 0.000000
# 4 0.000000 0.000000 0.000000 0.028404 0.000000 0.000000
# 5 0.000000 0.000000 0.000000 0.000000 -0.049915 0.000000
# 6 0.000000 0.000000 0.000000 0.000000 0.000000 0.038269
#
#
# Mechanical properties :
#
#
# Convention : Reuss Voigt Hill
#
# Bulk Modulus (GPa) = 21.13363 24.71437 22.92400
# Shear Modulus (GPa) = 37.53513 18.36414 27.94964
#
# Velocity S-wave (km/s) = 4.04986 2.83274 3.49469
# Velocity P-wave (km/s) = 5.57701 4.63664 5.12842
#
# Compressibility (1/GPa) = 0.04731795
#
# Stress axis : x y z
#
# Youngs Moduli (GPa) = 23.00800 54.32026 82.47054
#
# Poissons Ratio (x) = 0.59648 0.22630
# Poissons Ratio (y) = 0.25265 -0.03173
# Poissons Ratio (z) = 0.06313 -0.02090
#
# Static dielectric constant tensor:
#      x y z
#    x 1.845210 0.000000 0.000000 
#    y 0.000000 1.829750 0.000000 
#    z 0.000000 0.000000 1.820710 
# 
# From -- ./inp_files/6422.got.cif
#   From: 2010.05.17/outbox.cif.g08.bks.cpg/sg56_4_cif.got.tgz:6422.got - 2010.06.03 13:42:01.
