data_PCOD9431165
_publ_section_title
;
Structure prediction by ZEFSAII (Michael W. Deem and Ramdas Pophale) SiO2 
 PCOD9431165
Probable space group: P C C N
;
_chemical_formula_sum "Si O2"
_cell_formula_units_Z 36
_cell_length_a 7.687101
_cell_length_b 11.338513
_cell_length_c 19.471841
_cell_angle_alpha 90.000000
_cell_angle_beta 90.000000
_cell_angle_gamma 90.000000
_cell_volume 1697.171398
_symmetry_space_group_name_H-M "P C C N"
_symmetry_group_IT_number 56
_symmetry_cell_setting 'orthorhombic'
loop_
_space_group_symop_operation_xyz
x,y,z
1/2-x,1/2-y,z
1/2+x,-y,1/2-z
-x,1/2+y,1/2-z
-x,-y,-z
1/2+x,1/2+y,-z
1/2-x,y,1/2+z
x,1/2-y,1/2+z
loop_
_atom_site_type_symbol
_atom_site_label
_atom_site_fract_x
_atom_site_fract_y
_atom_site_fract_z
Si Si1 0.757702 0.388788 0.542943
Si Si2 0.750000 0.750000 0.097079
Si Si3 0.531905 0.422944 0.918089
Si Si4 0.067776 0.477385 0.847283
Si Si5 0.215701 0.888232 0.218199
O O1 0.750000 0.250000 0.555479
O O2 0.791484 0.411379 0.461961
O O3 0.598058 0.452928 0.581076
O O4 0.930470 0.454471 0.572535
O O5 0.600835 0.679355 0.056118
O O6 0.844197 0.649435 0.140828
O O7 0.565145 0.400369 0.838535
O O8 0.168041 0.551491 0.789431
O O9 0.878025 0.453504 0.817445
O O10 0.250000 0.750000 0.228267
#
# Coordination Sequence:
#
# PCOD9431165 Si02
#       5
#     8   4   8   8   8
#     4  10  22  43  64  95 132 167 214 273 311 395
#     4  10  20  42  64  96 124 180 206 268 318 408
#     4  10  22  43  66  95 132 171 221 256 337 384
#     4  11  24  40  67  93 130 167 220 266 331 382
#     4  12  24  43  67  94 128 174 215 275 323 398
#
# _framework density 21.211765
#
# number of rings (size 3 to 8) (size 9 to 14) (size 15 to 20)
#    0.000    1.333    2.222    4.000    0.000    0.889 
#    8.000    0.000    0.000    0.000    0.000    0.000 
#    0.000    0.000    0.000    0.000    0.000    0.000 
#
# Total GULP energy -201025.944743 kJ/mol
# GULP energy per Si atom -5584.054021 kJ/mol
# Density = 2.116349 g / cm^3
# Si number density = 21.211765 Si / 1000 Ang^3
#
#
#
# Elastic Constant Matrix: (Units=GPa)
#
#
# Indices 1 2 3 4 5 6 
#
# 1 73.5686 30.6795 16.5148 0.0000 0.0000 0.0000
# 2 30.6795 164.4200 39.3801 0.0000 0.0000 0.0000
# 3 16.5148 39.3801 84.8003 0.0000 0.0000 0.0000
# 4 0.0000 0.0000 0.0000 -16.7939 0.0000 0.0000
# 5 0.0000 0.0000 0.0000 0.0000 -131.3794 0.0000
# 6 0.0000 0.0000 0.0000 0.0000 0.0000 29.2679
#
#
#
# Elastic Compliance Matrix: (Units=1/GPa)
#
#
# Indices 1 2 3 4 5 6 
#
# 1 0.014986 -0.002360 -0.001823 0.000000 0.000000 0.000000
# 2 -0.002360 0.007215 -0.002891 0.000000 0.000000 0.000000
# 3 -0.001823 -0.002891 0.013490 0.000000 0.000000 0.000000
# 4 0.000000 0.000000 0.000000 -0.059545 0.000000 0.000000
# 5 0.000000 0.000000 0.000000 0.000000 -0.007612 0.000000
# 6 0.000000 0.000000 0.000000 0.000000 0.000000 0.034167
#
#
# Mechanical properties :
#
#
# Convention : Reuss Voigt Hill
#
# Bulk Modulus (GPa) = 46.41664 55.10418 50.76041
# Shear Modulus (GPa) = 208.08545 -8.03346 100.02600
#
# Velocity S-wave (km/s) = 9.91524 -1.94820 6.87447
# Velocity P-wave (km/s) = 12.36983 4.57972 9.32702
#
# Compressibility (1/GPa) = 0.02154400
#
# Stress axis : x y z
#
# Youngs Moduli (GPa) = 66.72910 138.60643 74.12984
#
# Poissons Ratio (x) = 0.32707 0.13512
# Poissons Ratio (y) = 0.15746 0.21430
# Poissons Ratio (z) = 0.12163 0.40069
#
# Static dielectric constant tensor:
#      x y z
#    x 1.849910 0.000000 0.000000 
#    y 0.000000 1.735580 0.000000 
#    z 0.000000 0.000000 1.779720 
# 
# From -- ./inp_files/17944.got.cif
#   From: 2010.05.17/outbox.cif.g08.bks.cpg/sg56_9_cif.got.tgz:17944.got - 2010.06.03 13:42:01.
