data_PCOD9431806
_publ_section_title
;
Structure prediction by ZEFSAII (Michael W. Deem and Ramdas Pophale) SiO2 
 PCOD9431806
Probable space group: P C C N
;
_chemical_formula_sum "Si O2"
_cell_formula_units_Z 36
_cell_length_a 5.605244
_cell_length_b 26.793601
_cell_length_c 9.257883
_cell_angle_alpha 90.000000
_cell_angle_beta 90.000000
_cell_angle_gamma 90.000000
_cell_volume 1390.392115
_symmetry_space_group_name_H-M "P C C N"
_symmetry_group_IT_number 56
_symmetry_cell_setting 'orthorhombic'
loop_
_space_group_symop_operation_xyz
x,y,z
1/2-x,1/2-y,z
1/2+x,-y,1/2-z
-x,1/2+y,1/2-z
-x,-y,-z
1/2+x,1/2+y,-z
1/2-x,y,1/2+z
x,1/2-y,1/2+z
loop_
_atom_site_type_symbol
_atom_site_label
_atom_site_fract_x
_atom_site_fract_y
_atom_site_fract_z
Si Si1 0.273520 0.404462 0.968237
Si Si2 0.551620 0.389106 0.231285
Si Si3 0.417061 0.814944 0.668103
Si Si4 0.250000 0.750000 0.399523
Si Si5 0.294640 0.508105 0.832330
O O1 0.016949 0.401457 0.895465
O O2 0.425621 0.362898 0.879453
O O3 0.332029 0.463355 0.947135
O O4 0.316428 0.389701 0.132163
O O5 0.688142 0.338647 0.252426
O O6 0.702606 0.432112 0.151726
O O7 0.361047 0.788363 0.517075
O O8 0.457010 0.772948 0.792682
O O9 0.530384 0.501237 0.732227
#
# Coordination Sequence:
#
# PCOD9431806 Si02
#       5
#     8   8   8   4   8
#     4  11  24  42  67 101 142 186 234 292 362 439
#     4  11  24  42  67 101 142 186 234 292 362 439
#     4  11  22  46  68  96 136 180 234 301 360 430
#     4  10  24  42  74  94 128 184 240 298 366 424
#     4  10  21  42  69 110 149 198 243 294 365 446
#
# _framework density 25.891974000000001
#
# number of rings (size 3 to 8) (size 9 to 14) (size 15 to 20)
#    0.000    1.333    4.444    0.667    3.111    0.000 
#    0.000   12.222    0.000    0.000    0.000    0.000 
#    0.000    0.000    0.000    0.000    0.000    0.000 
#
# Total GULP energy -200500.662147 kJ/mol
# GULP energy per Si atom -5569.462837 kJ/mol
# Density = 2.583304 g / cm^3
# Si number density = 25.891974 Si / 1000 Ang^3
#
#
#
# Elastic Constant Matrix: (Units=GPa)
#
#
# Indices 1 2 3 4 5 6 
#
# 1 58.3308 21.1748 41.6887 0.0000 0.0000 0.0000
# 2 21.1748 131.3738 62.3945 0.0000 0.0000 0.0000
# 3 41.6887 62.3945 169.6085 0.0000 0.0000 0.0000
# 4 0.0000 0.0000 0.0000 48.4941 0.0000 0.0000
# 5 0.0000 0.0000 0.0000 0.0000 26.7993 0.0000
# 6 0.0000 0.0000 0.0000 0.0000 0.0000 18.7798
#
#
#
# Elastic Compliance Matrix: (Units=1/GPa)
#
#
# Indices 1 2 3 4 5 6 
#
# 1 0.020934 -0.001127 -0.004731 0.000000 0.000000 0.000000
# 2 -0.001127 0.009284 -0.003138 0.000000 0.000000 0.000000
# 3 -0.004731 -0.003138 0.008213 0.000000 0.000000 0.000000
# 4 0.000000 0.000000 0.000000 0.020621 0.000000 0.000000
# 5 0.000000 0.000000 0.000000 0.000000 0.037314 0.000000
# 6 0.000000 0.000000 0.000000 0.000000 0.000000 0.053249
#
#
# Mechanical properties :
#
#
# Convention : Reuss Voigt Hill
#
# Bulk Modulus (GPa) = 48.92726 67.75880 58.34303
# Shear Modulus (GPa) = 28.66632 34.41831 31.54232
#
# Velocity S-wave (km/s) = 3.33100 3.64992 3.49410
# Velocity P-wave (km/s) = 5.80791 6.63243 6.23382
#
# Compressibility (1/GPa) = 0.02043850
#
# Stress axis : x y z
#
# Youngs Moduli (GPa) = 47.76958 107.71149 121.75527
#
# Poissons Ratio (x) = 0.12143 0.57599
# Poissons Ratio (y) = 0.05385 0.38210
# Poissons Ratio (z) = 0.22598 0.33803
#
# Static dielectric constant tensor:
#      x y z
#    x 2.093090 0.000000 0.000000 
#    y 0.000000 2.343980 0.000000 
#    z 0.000000 0.000000 2.019490 
# 
# From -- ./inp_files/5671.got.cif
#   From: 2010.05.17/outbox.cif.g08.bks.cpg/sg56_3_cif.got.tgz:5671.got - 2010.06.03 13:42:01.
