data_PCOD9431245
_publ_section_title
;
Structure prediction by ZEFSAII (Michael W. Deem and Ramdas Pophale) SiO2 
 PCOD9431245
Probable space group: P C C N
;
_chemical_formula_sum "Si O2"
_cell_formula_units_Z 56
_cell_length_a 20.403659
_cell_length_b 6.011571
_cell_length_c 20.131903
_cell_angle_alpha 90.000000
_cell_angle_beta 90.000000
_cell_angle_gamma 90.000000
_cell_volume 2469.339859
_symmetry_space_group_name_H-M "P C C N"
_symmetry_group_IT_number 56
_symmetry_cell_setting 'orthorhombic'
loop_
_space_group_symop_operation_xyz
x,y,z
1/2-x,1/2-y,z
1/2+x,-y,1/2-z
-x,1/2+y,1/2-z
-x,-y,-z
1/2+x,1/2+y,-z
1/2-x,y,1/2+z
x,1/2-y,1/2+z
loop_
_atom_site_type_symbol
_atom_site_label
_atom_site_fract_x
_atom_site_fract_y
_atom_site_fract_z
Si Si1 0.322347 0.858874 0.226140
Si Si2 0.847572 0.411327 0.547353
Si Si3 0.507767 0.499372 0.581314
Si Si4 0.250000 0.250000 0.790237
Si Si5 0.678104 0.138167 0.922067
Si Si6 0.507660 0.997287 0.579026
Si Si7 0.250000 0.250000 0.014625
Si Si8 0.852966 0.419824 0.151509
O O1 0.250000 0.750000 0.225374
O O2 0.349510 0.851254 0.151802
O O3 0.363628 0.721818 0.280473
O O4 0.301454 0.105800 0.247131
O O5 0.860342 0.269446 0.479620
O O6 0.913096 0.497706 0.582810
O O7 0.795329 0.592983 0.528528
O O8 0.819344 0.243542 0.599955
O O9 0.500000 0.500000 0.500000
O O10 0.482054 0.246134 0.601448
O O11 0.580995 0.491276 0.613116
O O12 0.485105 0.750855 0.602810
O O13 0.200133 0.395482 0.832556
O O14 0.750000 0.250000 0.920791
O O15 0.697075 0.888809 0.942691
O O16 0.500000 0.000000 0.500000
#
# Coordination Sequence:
#
# PCOD9431245 Si02
#       8
#     8   8   8   4   8   8   4   8
#     4   9  19  35  51  73 110 157 198 235 285 354
#     4  10  22  34  52  82 116 149 190 243 295 354
#     4   9  19  36  56  80 111 142 190 240 291 342
#     4  10  21  33  50  76 117 157 198 236 297 357
#     4   9  19  35  51  73 110 157 198 235 285 354
#     4   9  19  36  56  80 111 142 190 240 291 342
#     4  10  21  33  50  76 117 157 198 236 297 357
#     4  10  22  34  52  82 116 149 190 243 295 354
#
# _framework density 22.678125999999999
#
# number of rings (size 3 to 8) (size 9 to 14) (size 15 to 20)
#    0.000    2.571    0.000    0.429    8.000    7.429 
#    0.000    0.000    0.000    0.000    0.000   18.000 
#    0.000    0.000    0.000    0.000    0.000    0.000 
#
# Total GULP energy -311872.939311 kJ/mol
# GULP energy per Si atom -5569.159631 kJ/mol
# Density = 2.262651 g / cm^3
# Si number density = 22.678126 Si / 1000 Ang^3
#
#
#
# Elastic Constant Matrix: (Units=GPa)
#
#
# Indices 1 2 3 4 5 6 
#
# 1 64.4871 24.0083 20.3393 0.0000 0.0000 0.0000
# 2 24.0083 178.4723 54.2847 0.0000 0.0000 0.0000
# 3 20.3393 54.2847 112.4056 0.0000 0.0000 0.0000
# 4 0.0000 0.0000 0.0000 12.0786 0.0000 0.0000
# 5 0.0000 0.0000 0.0000 0.0000 33.5707 0.0000
# 6 0.0000 0.0000 0.0000 0.0000 0.0000 7.7321
#
#
#
# Elastic Compliance Matrix: (Units=1/GPa)
#
#
# Indices 1 2 3 4 5 6 
#
# 1 0.016811 -0.001566 -0.002285 0.000000 0.000000 0.000000
# 2 -0.001566 0.006714 -0.002959 0.000000 0.000000 0.000000
# 3 -0.002285 -0.002959 0.010739 0.000000 0.000000 0.000000
# 4 0.000000 0.000000 0.000000 0.082791 0.000000 0.000000
# 5 0.000000 0.000000 0.000000 0.000000 0.029788 0.000000
# 6 0.000000 0.000000 0.000000 0.000000 0.000000 0.129331
#
#
# Mechanical properties :
#
#
# Convention : Reuss Voigt Hill
#
# Bulk Modulus (GPa) = 48.44423 61.40327 54.92375
# Shear Modulus (GPa) = 16.85344 27.79181 22.32262
#
# Velocity S-wave (km/s) = 2.72905 3.50450 3.14080
# Velocity P-wave (km/s) = 5.59806 6.59622 6.11753
#
# Compressibility (1/GPa) = 0.02064229
#
# Stress axis : x y z
#
# Youngs Moduli (GPa) = 59.48516 148.94684 93.11968
#
# Poissons Ratio (x) = 0.23329 0.21282
# Poissons Ratio (y) = 0.09317 0.27553
# Poissons Ratio (z) = 0.13595 0.44072
#
# Static dielectric constant tensor:
#      x y z
#    x 2.278990 0.000000 0.000000 
#    y 0.000000 2.272890 0.000000 
#    z 0.000000 0.000000 1.862230 
# 
# From -- ./inp_files/19654.got.cif
#   From: 2010.05.17/outbox.cif.g08.bks.cpg/sg56_10_cif.got.tgz:19654.got - 2010.06.03 13:42:01.
