data_PCOD9431263
_publ_section_title
;
Structure prediction by ZEFSAII (Michael W. Deem and Ramdas Pophale) SiO2 
 PCOD9431263
Probable space group: P C C N
;
_chemical_formula_sum "Si O2"
_cell_formula_units_Z 44
_cell_length_a 7.242301
_cell_length_b 6.528244
_cell_length_c 31.396701
_cell_angle_alpha 90.000000
_cell_angle_beta 90.000000
_cell_angle_gamma 90.000000
_cell_volume 1484.420578
_symmetry_space_group_name_H-M "P C C N"
_symmetry_group_IT_number 56
_symmetry_cell_setting 'orthorhombic'
loop_
_space_group_symop_operation_xyz
x,y,z
1/2-x,1/2-y,z
1/2+x,-y,1/2-z
-x,1/2+y,1/2-z
-x,-y,-z
1/2+x,1/2+y,-z
1/2-x,y,1/2+z
x,1/2-y,1/2+z
loop_
_atom_site_type_symbol
_atom_site_label
_atom_site_fract_x
_atom_site_fract_y
_atom_site_fract_z
Si Si1 0.966875 0.204323 0.578502
Si Si2 0.954030 0.337418 0.398580
Si Si3 0.001445 0.921010 0.326859
Si Si4 0.415416 0.555105 0.190668
Si Si5 0.030235 0.762883 0.011986
Si Si6 0.750000 0.250000 0.230053
O O1 0.750000 0.250000 0.573185
O O2 0.978561 0.075734 0.621888
O O3 0.037284 0.145408 0.530941
O O4 0.060610 0.419670 0.591043
O O5 0.750000 0.250000 0.398446
O O6 0.014482 0.334697 0.349448
O O7 0.050823 0.241142 0.440298
O O8 0.193598 0.946008 0.301169
O O9 0.977440 0.681764 0.311116
O O10 0.805072 0.021995 0.317578
O O11 0.411585 0.680229 0.234608
O O12 0.250000 0.750000 0.015380
O O13 0.000000 0.000000 0.000000
#
# Coordination Sequence:
#
# PCOD9431263 Si02
#       6
#     8   8   8   8   8   4
#     4   9  16  30  51  76 103 137 177 218 267 327
#     4   9  16  30  51  76 103 137 177 218 267 327
#     4  10  21  35  53  79 107 138 180 225 272 331
#     4  10  21  35  53  79 107 138 180 225 272 331
#     4   8  14  24  46  74  98 130 172 214 260 318
#     4  12  20  36  56  74 100 140 180 228 280 322
#
# _framework density 29.641193000000001
#
# number of rings (size 3 to 8) (size 9 to 14) (size 15 to 20)
#    0.000    2.545    1.818    1.091    0.000    0.000 
#    0.000    0.000    0.000   13.091    0.000   10.182 
#    0.000    0.000    0.000    0.000    0.000    0.000 
#
# Total GULP energy -245352.332128 kJ/mol
# GULP energy per Si atom -5576.189367 kJ/mol
# Density = 2.957373 g / cm^3
# Si number density = 29.641193 Si / 1000 Ang^3
#
#
#
# Elastic Constant Matrix: (Units=GPa)
#
#
# Indices 1 2 3 4 5 6 
#
# 1 111.1816 22.2257 35.7438 0.0000 0.0000 0.0000
# 2 22.2257 78.8275 41.3847 0.0000 0.0000 0.0000
# 3 35.7438 41.3847 304.1604 0.0000 0.0000 0.0000
# 4 0.0000 0.0000 0.0000 5.3490 0.0000 0.0000
# 5 0.0000 0.0000 0.0000 0.0000 17.0937 0.0000
# 6 0.0000 0.0000 0.0000 0.0000 0.0000 58.3494
#
#
#
# Elastic Compliance Matrix: (Units=1/GPa)
#
#
# Indices 1 2 3 4 5 6 
#
# 1 0.009722 -0.002306 -0.000829 0.000000 0.000000 0.000000
# 2 -0.002306 0.014209 -0.001662 0.000000 0.000000 0.000000
# 3 -0.000829 -0.001662 0.003611 0.000000 0.000000 0.000000
# 4 0.000000 0.000000 0.000000 0.186952 0.000000 0.000000
# 5 0.000000 0.000000 0.000000 0.000000 0.058501 0.000000
# 6 0.000000 0.000000 0.000000 0.000000 0.000000 0.017138
#
#
# Mechanical properties :
#
#
# Convention : Reuss Voigt Hill
#
# Bulk Modulus (GPa) = 55.71702 76.98645 66.35173
# Shear Modulus (GPa) = 16.35536 42.47943 29.41739
#
# Velocity S-wave (km/s) = 2.35154 3.78977 3.15373
# Velocity P-wave (km/s) = 5.11967 6.72153 5.97453
#
# Compressibility (1/GPa) = 0.01794784
#
# Stress axis : x y z
#
# Youngs Moduli (GPa) = 102.86275 70.37878 276.90869
#
# Poissons Ratio (x) = 0.16229 0.22947
# Poissons Ratio (y) = 0.23720 0.46030
# Poissons Ratio (z) = 0.08524 0.11699
#
# Static dielectric constant tensor:
#      x y z
#    x 3.527230 0.000000 0.000000 
#    y 0.000000 -1.085710 0.000000 
#    z 0.000000 0.000000 2.478170 
# 
# From -- ./inp_files/23151.got.cif
#   From: 2010.05.17/outbox.cif.g08.bks.cpg/sg56_12_cif.got.tgz:23151.got - 2010.06.03 13:42:01.
