data_PCOD9431778
_publ_section_title
;
Structure prediction by ZEFSAII (Michael W. Deem and Ramdas Pophale) SiO2 
 PCOD9431778
Probable space group: P C C N
;
_chemical_formula_sum "Si O2"
_cell_formula_units_Z 52
_cell_length_a 14.317118
_cell_length_b 19.314865
_cell_length_c 7.821004
_cell_angle_alpha 90.000000
_cell_angle_beta 90.000000
_cell_angle_gamma 90.000000
_cell_volume 2162.767274
_symmetry_space_group_name_H-M "P C C N"
_symmetry_group_IT_number 56
_symmetry_cell_setting 'orthorhombic'
loop_
_space_group_symop_operation_xyz
x,y,z
1/2-x,1/2-y,z
1/2+x,-y,1/2-z
-x,1/2+y,1/2-z
-x,-y,-z
1/2+x,1/2+y,-z
1/2-x,y,1/2+z
x,1/2-y,1/2+z
loop_
_atom_site_type_symbol
_atom_site_label
_atom_site_fract_x
_atom_site_fract_y
_atom_site_fract_z
Si Si1 0.570225 0.395127 0.053211
Si Si2 0.683297 0.950897 0.845841
Si Si3 0.539078 0.231174 0.312348
Si Si4 0.473220 0.143588 0.016581
Si Si5 0.124877 0.463466 0.552956
Si Si6 0.669172 0.394414 0.411892
Si Si7 0.750000 0.250000 0.848621
O O1 0.609206 0.453683 0.922944
O O2 0.639449 0.391134 0.212515
O O3 0.550533 0.321250 0.970927
O O4 0.471611 0.428200 0.107934
O O5 0.612038 0.908046 0.962829
O O6 0.642116 0.954004 0.653176
O O7 0.700413 0.026753 0.928866
O O8 0.790085 0.926461 0.850204
O O9 0.473975 0.192552 0.180750
O O10 0.489671 0.302462 0.363158
O O11 0.648530 0.240550 0.259000
O O12 0.574323 0.107503 0.020647
O O13 0.731100 0.325180 0.440908
#
# Coordination Sequence:
#
# PCOD9431778 Si02
#       7
#     8   8   8   8   8   8   4
#     4  10  21  42  64  96 134 178 213 282 351 399
#     4  11  23  43  65 101 129 182 236 279 340 412
#     4  11  22  40  65  91 136 174 225 279 347 412
#     4  11  24  41  64  94 134 182 223 283 348 406
#     4  10  23  40  68  95 132 174 228 280 336 412
#     4  10  23  39  65 100 139 175 220 284 348 424
#     4  10  22  38  62 102 128 172 218 276 348 412
#
# _framework density 24.043272999999999
#
# number of rings (size 3 to 8) (size 9 to 14) (size 15 to 20)
#    0.000    1.538    1.538    3.231    2.154    9.231 
#    0.000    0.769    0.000    0.000    0.000    0.000 
#    0.000    0.000    0.000    0.000    0.000    0.000 
#
# Total GULP energy -290376.713928 kJ/mol
# GULP energy per Si atom -5584.167576 kJ/mol
# Density = 2.398855 g / cm^3
# Si number density = 24.043273 Si / 1000 Ang^3
#
#
#
# Elastic Constant Matrix: (Units=GPa)
#
#
# Indices 1 2 3 4 5 6 
#
# 1 123.4346 64.4092 7.4741 0.0000 0.0000 0.0000
# 2 64.4092 133.3697 26.5671 0.0000 0.0000 0.0000
# 3 7.4741 26.5671 56.2551 0.0000 0.0000 0.0000
# 4 0.0000 0.0000 0.0000 30.5729 0.0000 0.0000
# 5 0.0000 0.0000 0.0000 0.0000 25.5412 0.0000
# 6 0.0000 0.0000 0.0000 0.0000 0.0000 37.9092
#
#
#
# Elastic Compliance Matrix: (Units=1/GPa)
#
#
# Indices 1 2 3 4 5 6 
#
# 1 0.010897 -0.005491 0.001145 0.000000 0.000000 0.000000
# 2 -0.005491 0.011043 -0.004486 0.000000 0.000000 0.000000
# 3 0.001145 -0.004486 0.019742 0.000000 0.000000 0.000000
# 4 0.000000 0.000000 0.000000 0.032709 0.000000 0.000000
# 5 0.000000 0.000000 0.000000 0.000000 0.039152 0.000000
# 6 0.000000 0.000000 0.000000 0.000000 0.000000 0.026379
#
#
# Mechanical properties :
#
#
# Convention : Reuss Voigt Hill
#
# Bulk Modulus (GPa) = 41.63141 56.66224 49.14682
# Shear Modulus (GPa) = 30.19464 33.11194 31.65329
#
# Velocity S-wave (km/s) = 3.54764 3.71507 3.63232
# Velocity P-wave (km/s) = 5.84241 6.48230 6.17065
#
# Compressibility (1/GPa) = 0.02402032
#
# Stress axis : x y z
#
# Youngs Moduli (GPa) = 91.76611 90.55312 50.65226
#
# Poissons Ratio (x) = 0.49721 -0.05801
# Poissons Ratio (y) = 0.50387 0.22721
# Poissons Ratio (z) = -0.10510 0.40620
#
# Static dielectric constant tensor:
#      x y z
#    x 1.948330 0.000000 0.000000 
#    y 0.000000 1.978190 0.000000 
#    z 0.000000 0.000000 1.997290 
# 
# From -- ./inp_files/3531.got.cif
#   From: 2010.05.17/outbox.cif.g08.bks.cpg/sg56_2_cif.got.tgz:3531.got - 2010.06.03 13:42:01.
