data_PCOD9431864
_publ_section_title
;
Structure prediction by ZEFSAII (Michael W. Deem and Ramdas Pophale) SiO2 
 PCOD9431864
Probable space group: P C C N
;
_chemical_formula_sum "Si O2"
_cell_formula_units_Z 64
_cell_length_a 23.016473
_cell_length_b 14.786103
_cell_length_c 8.952403
_cell_angle_alpha 90.000000
_cell_angle_beta 90.000000
_cell_angle_gamma 90.000000
_cell_volume 3046.717066
_symmetry_space_group_name_H-M "P C C N"
_symmetry_group_IT_number 56
_symmetry_cell_setting 'orthorhombic'
loop_
_space_group_symop_operation_xyz
x,y,z
1/2-x,1/2-y,z
1/2+x,-y,1/2-z
-x,1/2+y,1/2-z
-x,-y,-z
1/2+x,1/2+y,-z
1/2-x,y,1/2+z
x,1/2-y,1/2+z
loop_
_atom_site_type_symbol
_atom_site_label
_atom_site_fract_x
_atom_site_fract_y
_atom_site_fract_z
Si Si1 0.882881 0.620641 0.751299
Si Si2 0.625548 0.350533 0.804270
Si Si3 0.088197 0.258952 0.499208
Si Si4 0.319572 0.460508 0.238703
Si Si5 0.491591 0.949661 0.660635
Si Si6 0.440100 0.370942 0.250419
Si Si7 0.689436 0.298167 0.501946
Si Si8 0.295829 0.999679 0.087142
O O1 0.870271 0.676929 0.600269
O O2 0.845692 0.535312 0.801924
O O3 0.948432 0.588481 0.721860
O O4 0.880238 0.691572 0.887195
O O5 0.654287 0.448216 0.833213
O O6 0.557845 0.372380 0.831419
O O7 0.647372 0.326510 0.637705
O O8 0.653233 0.272987 0.905036
O O9 0.052349 0.196016 0.386735
O O10 0.045072 0.319842 0.597797
O O11 0.370784 0.387993 0.233157
O O12 0.260791 0.448867 0.148015
O O13 0.306597 0.475678 0.414130
O O14 0.500000 0.000000 0.500000
O O15 0.469537 0.032514 0.764887
O O16 0.750000 0.250000 0.551131
O O17 0.706576 0.390142 0.412781
#
# Coordination Sequence:
#
# PCOD9431864 Si02
#       8
#     8   8   8   8   8   8   8   8
#     4  11  24  45  67  99 131 186 230 285 353 409
#     4  10  24  41  65  99 138 181 229 278 353 420
#     4  10  22  43  68  88 133 173 220 280 341 396
#     4  10  22  41  63  95 129 175 222 280 343 418
#     4  11  24  45  69  99 135 178 235 290 350 422
#     4  10  21  44  66  93 129 169 221 279 339 415
#     4  11  22  43  68 105 144 183 227 290 353 436
#     4  11  24  40  67  98 138 182 228 282 361 411
#
# _framework density 21.006215999999998
#
# number of rings (size 3 to 8) (size 9 to 14) (size 15 to 20)
#    0.000    1.500    3.750    0.375    3.500    2.500 
#    4.500    3.750    0.000    0.000    0.000    0.000 
#    0.000    0.000    0.000    0.000    0.000    0.000 
#
# Total GULP energy -357159.123772 kJ/mol
# GULP energy per Si atom -5580.611309 kJ/mol
# Density = 2.095841 g / cm^3
# Si number density = 21.006216 Si / 1000 Ang^3
#
#
#
# Elastic Constant Matrix: (Units=GPa)
#
#
# Indices 1 2 3 4 5 6 
#
# 1 125.7791 34.5889 30.5371 0.0000 0.0000 0.0000
# 2 34.5889 95.3687 30.3036 0.0000 0.0000 0.0000
# 3 30.5371 30.3036 80.9941 0.0000 0.0000 0.0000
# 4 0.0000 0.0000 0.0000 34.9341 0.0000 0.0000
# 5 0.0000 0.0000 0.0000 0.0000 20.7108 0.0000
# 6 0.0000 0.0000 0.0000 0.0000 0.0000 29.2772
#
#
#
# Elastic Compliance Matrix: (Units=1/GPa)
#
#
# Indices 1 2 3 4 5 6 
#
# 1 0.009270 -0.002555 -0.002539 0.000000 0.000000 0.000000
# 2 -0.002555 0.012605 -0.003753 0.000000 0.000000 0.000000
# 3 -0.002539 -0.003753 0.014708 0.000000 0.000000 0.000000
# 4 0.000000 0.000000 0.000000 0.028625 0.000000 0.000000
# 5 0.000000 0.000000 0.000000 0.000000 0.048284 0.000000
# 6 0.000000 0.000000 0.000000 0.000000 0.000000 0.034156
#
#
# Mechanical properties :
#
#
# Convention : Reuss Voigt Hill
#
# Bulk Modulus (GPa) = 52.94161 54.77789 53.85975
# Shear Modulus (GPa) = 29.13120 30.76525 29.94823
#
# Velocity S-wave (km/s) = 3.72800 3.83113 3.77992
# Velocity P-wave (km/s) = 6.61727 6.76045 6.68924
#
# Compressibility (1/GPa) = 0.01888873
#
# Stress axis : x y z
#
# Youngs Moduli (GPa) = 107.88059 79.33511 67.99100
#
# Poissons Ratio (x) = 0.20272 0.17262
# Poissons Ratio (y) = 0.27566 0.25515
# Poissons Ratio (z) = 0.27389 0.29772
#
# Static dielectric constant tensor:
#      x y z
#    x 1.771860 0.000000 0.000000 
#    y 0.000000 1.773950 0.000000 
#    z 0.000000 0.000000 1.779210 
# 
# From -- ./inp_files/4836.got.cif
#   From: 2010.05.17/outbox.cif.g08.bks.cpg/sg56_3_cif.got.tgz:4836.got - 2010.06.03 13:42:01.
