data_PCOD9431875
_publ_section_title
;
Structure prediction by ZEFSAII (Michael W. Deem and Ramdas Pophale) SiO2 
 PCOD9431875
Probable space group: P C C N
;
_chemical_formula_sum "Si O2"
_cell_formula_units_Z 56
_cell_length_a 27.633880
_cell_length_b 6.511638
_cell_length_c 13.918996
_cell_angle_alpha 90.000000
_cell_angle_beta 90.000000
_cell_angle_gamma 90.000000
_cell_volume 2504.609516
_symmetry_space_group_name_H-M "P C C N"
_symmetry_group_IT_number 56
_symmetry_cell_setting 'orthorhombic'
loop_
_space_group_symop_operation_xyz
x,y,z
1/2-x,1/2-y,z
1/2+x,-y,1/2-z
-x,1/2+y,1/2-z
-x,-y,-z
1/2+x,1/2+y,-z
1/2-x,y,1/2+z
x,1/2-y,1/2+z
loop_
_atom_site_type_symbol
_atom_site_label
_atom_site_fract_x
_atom_site_fract_y
_atom_site_fract_z
Si Si1 0.381173 0.086947 0.731398
Si Si2 0.965634 0.308829 0.478904
Si Si3 0.202451 0.115175 0.761514
Si Si4 0.603348 0.844388 0.475861
Si Si5 0.538073 0.567383 0.615283
Si Si6 0.789764 0.571943 0.522578
Si Si7 0.196713 0.735043 0.653665
O O1 0.342680 0.235412 0.781784
O O2 0.400405 0.199986 0.636321
O O3 0.428613 0.039856 0.792560
O O4 0.346452 0.895907 0.701435
O O5 0.913433 0.415299 0.479559
O O6 0.000000 0.500000 0.500000
O O7 0.987096 0.191412 0.385395
O O8 0.970043 0.149025 0.564885
O O9 0.250000 0.250000 0.735174
O O10 0.185120 0.973211 0.672640
O O11 0.213393 0.010413 0.865013
O O12 0.570885 0.701417 0.541926
O O13 0.658362 0.826287 0.505640
O O14 0.750000 0.750000 0.504739
O O15 0.791428 0.382623 0.446507
O O16 0.250000 0.750000 0.703288
#
# Coordination Sequence:
#
# PCOD9431875 Si02
#       7
#     8   8   8   8   8   8   8
#     4  11  24  41  67 103 130 178 224 283 337 406
#     4   9  21  43  67  94 132 170 215 281 342 408
#     4  11  23  46  66  94 140 181 228 279 339 411
#     4  10  22  41  64  99 132 173 228 276 337 404
#     4  10  21  44  70  94 132 176 216 278 347 412
#     4  10  24  44  68  96 137 187 230 280 341 410
#     4  11  25  40  65  96 135 176 229 281 336 397
#
# _framework density 22.358775000000001
#
# number of rings (size 3 to 8) (size 9 to 14) (size 15 to 20)
#    0.000    1.714    2.857    0.000    6.000    2.857 
#    7.714    0.000    0.000    0.000    0.000    0.000 
#    0.000    0.000    0.000    0.000    0.000    0.000 
#
# Total GULP energy -311983.160213 kJ/mol
# GULP energy per Si atom -5571.127861 kJ/mol
# Density = 2.230789 g / cm^3
# Si number density = 22.358775 Si / 1000 Ang^3
#
#
#
# Elastic Constant Matrix: (Units=GPa)
#
#
# Indices 1 2 3 4 5 6 
#
# 1 51.6362 17.4693 0.9868 0.0000 0.0000 0.0000
# 2 17.4693 103.7991 43.1679 0.0000 0.0000 0.0000
# 3 0.9868 43.1679 106.8837 0.0000 0.0000 0.0000
# 4 0.0000 0.0000 0.0000 21.1562 0.0000 0.0000
# 5 0.0000 0.0000 0.0000 0.0000 43.1341 0.0000
# 6 0.0000 0.0000 0.0000 0.0000 0.0000 32.5944
#
#
#
# Elastic Compliance Matrix: (Units=1/GPa)
#
#
# Indices 1 2 3 4 5 6 
#
# 1 0.020724 -0.004096 0.001463 0.000000 0.000000 0.000000
# 2 -0.004096 0.012388 -0.004966 0.000000 0.000000 0.000000
# 3 0.001463 -0.004966 0.011348 0.000000 0.000000 0.000000
# 4 0.000000 0.000000 0.000000 0.047267 0.000000 0.000000
# 5 0.000000 0.000000 0.000000 0.000000 0.023184 0.000000
# 6 0.000000 0.000000 0.000000 0.000000 0.000000 0.030680
#
#
# Mechanical properties :
#
#
# Convention : Reuss Voigt Hill
#
# Bulk Modulus (GPa) = 34.17297 42.84077 38.50687
# Shear Modulus (GPa) = 29.31801 32.75661 31.03731
#
# Velocity S-wave (km/s) = 3.62505 3.83174 3.72983
# Velocity P-wave (km/s) = 5.73048 6.22724 5.98402
#
# Compressibility (1/GPa) = 0.02926289
#
# Stress axis : x y z
#
# Youngs Moduli (GPa) = 48.25290 80.72003 88.12156
#
# Poissons Ratio (x) = 0.33065 -0.12893
# Poissons Ratio (y) = 0.19766 0.43758
# Poissons Ratio (z) = -0.07060 0.40082
#
# Static dielectric constant tensor:
#      x y z
#    x 1.917360 0.000000 0.000000 
#    y 0.000000 1.980580 0.000000 
#    z 0.000000 0.000000 1.866140 
# 
# From -- ./inp_files/13476.got.cif
#   From: 2010.05.17/outbox.cif.g08.bks.cpg/sg56_7_cif.got.tgz:13476.got - 2010.06.03 13:42:01.
