data_PCOD9431530
_publ_section_title
;
Structure prediction by ZEFSAII (Michael W. Deem and Ramdas Pophale) SiO2 
 PCOD9431530
Probable space group: P C C N
;
_chemical_formula_sum "Si O2"
_cell_formula_units_Z 40
_cell_length_a 7.505332
_cell_length_b 8.148930
_cell_length_c 24.721439
_cell_angle_alpha 90.000000
_cell_angle_beta 90.000000
_cell_angle_gamma 90.000000
_cell_volume 1511.973718
_symmetry_space_group_name_H-M "P C C N"
_symmetry_group_IT_number 56
_symmetry_cell_setting 'orthorhombic'
loop_
_space_group_symop_operation_xyz
x,y,z
1/2-x,1/2-y,z
1/2+x,-y,1/2-z
-x,1/2+y,1/2-z
-x,-y,-z
1/2+x,1/2+y,-z
1/2-x,y,1/2+z
x,1/2-y,1/2+z
loop_
_atom_site_type_symbol
_atom_site_label
_atom_site_fract_x
_atom_site_fract_y
_atom_site_fract_z
Si Si1 0.500597 0.497144 0.363709
Si Si2 0.583097 0.472095 0.167578
Si Si3 0.436600 0.327102 0.733672
Si Si4 0.549501 0.684654 0.075809
Si Si5 0.548074 0.177697 0.030092
O O1 0.295233 0.502175 0.341713
O O2 0.605835 0.529771 0.309254
O O3 0.554546 0.331348 0.394315
O O4 0.515650 0.638452 0.409428
O O5 0.499507 0.602255 0.209792
O O6 0.546165 0.302782 0.198147
O O7 0.512602 0.517491 0.107696
O O8 0.250000 0.250000 0.748225
O O9 0.750000 0.750000 0.084870
O O10 0.531431 0.691181 0.011695
O O11 0.750000 0.250000 0.034748
O O12 0.500000 0.000000 0.000000
#
# Coordination Sequence:
#
# PCOD9431530 Si02
#       5
#     8   8   8   8   8
#     4  10  22  43  63  87 130 173 209 260 333 397
#     4  11  22  41  62  87 125 167 207 262 332 392
#     4  12  24  37  60  91 120 160 213 264 317 393
#     4   9  20  40  65  90 123 169 216 267 327 394
#     4  10  21  39  63  91 126 171 219 271 332 396
#
# _framework density 26.455489
#
# number of rings (size 3 to 8) (size 9 to 14) (size 15 to 20)
#    0.000    1.600    0.000    6.000    0.000    4.000 
#    0.000   18.000    0.000    0.000    0.000    0.000 
#    0.000    0.000    0.000    0.000    0.000    0.000 
#
# Total GULP energy -223224.505074 kJ/mol
# GULP energy per Si atom -5580.612627 kJ/mol
# Density = 2.639528 g / cm^3
# Si number density = 26.455489 Si / 1000 Ang^3
#
#
#
# Elastic Constant Matrix: (Units=GPa)
#
#
# Indices 1 2 3 4 5 6 
#
# 1 47.3317 28.1252 14.2409 0.0000 0.0000 0.0000
# 2 28.1252 95.0076 43.4239 0.0000 0.0000 0.0000
# 3 14.2409 43.4239 200.6110 0.0000 0.0000 0.0000
# 4 0.0000 0.0000 0.0000 -3.6091 0.0000 0.0000
# 5 0.0000 0.0000 0.0000 0.0000 34.5082 0.0000
# 6 0.0000 0.0000 0.0000 0.0000 0.0000 29.9991
#
#
#
# Elastic Compliance Matrix: (Units=1/GPa)
#
#
# Indices 1 2 3 4 5 6 
#
# 1 0.025644 -0.007502 -0.000197 0.000000 0.000000 0.000000
# 2 -0.007502 0.013876 -0.002471 0.000000 0.000000 0.000000
# 3 -0.000197 -0.002471 0.005534 0.000000 0.000000 0.000000
# 4 0.000000 0.000000 0.000000 -0.277080 0.000000 0.000000
# 5 0.000000 0.000000 0.000000 0.000000 0.028979 0.000000
# 6 0.000000 0.000000 0.000000 0.000000 0.000000 0.033334
#
#
# Mechanical properties :
#
#
# Convention : Reuss Voigt Hill
#
# Bulk Modulus (GPa) = 40.46136 57.17005 48.81570
# Shear Modulus (GPa) = -35.42668 29.32366 -3.05151
#
# Velocity S-wave (km/s) = -3.66335 3.33290 -1.07515
# Velocity P-wave (km/s) = 1.60193 6.03885 4.11713
#
# Compressibility (1/GPa) = 0.02471494
#
# Stress axis : x y z
#
# Youngs Moduli (GPa) = 38.99520 72.06927 180.71456
#
# Poissons Ratio (x) = 0.54063 0.03554
# Poissons Ratio (y) = 0.29253 0.44654
# Poissons Ratio (z) = 0.00767 0.17808
#
# Static dielectric constant tensor:
#      x y z
#    x 2.211530 0.000000 0.000000 
#    y 0.000000 2.252600 0.000000 
#    z 0.000000 0.000000 1.988830 
# 
# From -- ./inp_files/20301.got.cif
#   From: 2010.05.17/outbox.cif.g08.bks.cpg/sg56_11_cif.got.tgz:20301.got - 2010.06.03 13:42:01.
