data_PCOD9431006
_publ_section_title
;
Structure prediction by ZEFSAII (Michael W. Deem and Ramdas Pophale) SiO2 
 PCOD9431006
Probable space group: P C C N
;
_chemical_formula_sum "Si O2"
_cell_formula_units_Z 64
_cell_length_a 24.981877
_cell_length_b 7.651580
_cell_length_c 14.544161
_cell_angle_alpha 90.000000
_cell_angle_beta 90.000000
_cell_angle_gamma 90.000000
_cell_volume 2780.128453
_symmetry_space_group_name_H-M "P C C N"
_symmetry_group_IT_number 56
_symmetry_cell_setting 'orthorhombic'
loop_
_space_group_symop_operation_xyz
x,y,z
1/2-x,1/2-y,z
1/2+x,-y,1/2-z
-x,1/2+y,1/2-z
-x,-y,-z
1/2+x,1/2+y,-z
1/2-x,y,1/2+z
x,1/2-y,1/2+z
loop_
_atom_site_type_symbol
_atom_site_label
_atom_site_fract_x
_atom_site_fract_y
_atom_site_fract_z
Si Si1 0.434039 0.608834 0.325931
Si Si2 0.700882 0.622640 0.361488
Si Si3 0.453070 0.972915 0.221964
Si Si4 0.855559 0.919708 0.794308
Si Si5 0.598475 0.683883 0.437574
Si Si6 0.072974 0.694891 0.510220
Si Si7 0.038358 0.158464 0.903469
Si Si8 0.191065 0.764092 0.098469
O O1 0.436660 0.790025 0.267207
O O2 0.484197 0.489676 0.298732
O O3 0.382042 0.507649 0.292315
O O4 0.437052 0.662225 0.431461
O O5 0.750000 0.750000 0.383207
O O6 0.826576 0.765221 0.279657
O O7 0.660954 0.644929 0.448691
O O8 0.696276 0.416653 0.343955
O O9 0.424220 0.035305 0.129526
O O10 0.444373 0.121858 0.299884
O O11 0.815279 0.062199 0.839000
O O12 0.899093 0.861346 0.873451
O O13 0.567366 0.704090 0.530974
O O14 0.058197 0.518234 0.454886
O O15 0.134618 0.720625 0.542968
O O16 0.025346 0.692208 0.585850
O O17 0.250000 0.750000 0.048776
#
# Coordination Sequence:
#
# PCOD9431006 Si02
#       8
#     8   8   8   8   8   8   8   8
#     4  11  22  39  63  95 137 178 225 278 342 407
#     4  10  22  41  67  99 128 171 228 288 338 406
#     4  11  22  37  64  95 138 184 224 278 342 410
#     4  10  22  40  67  91 130 170 225 279 340 399
#     4  10  20  41  63  94 134 174 221 279 344 401
#     4  10  21  38  66  99 135 178 227 283 342 411
#     4  10  20  39  66  97 140 181 224 283 345 410
#     4  12  21  41  72  98 126 176 229 280 347 412
#
# _framework density 23.020520999999999
#
# number of rings (size 3 to 8) (size 9 to 14) (size 15 to 20)
#    0.750    0.750    3.750    2.250    1.750    0.000 
#    4.500    1.875    2.750    1.500    0.000    0.000 
#    0.000    0.000    0.000    0.000    0.000    0.000 
#
# Total GULP energy -356688.698079 kJ/mol
# GULP energy per Si atom -5573.260907 kJ/mol
# Density = 2.296812 g / cm^3
# Si number density = 23.020521 Si / 1000 Ang^3
#
#
#
# Elastic Constant Matrix: (Units=GPa)
#
#
# Indices 1 2 3 4 5 6 
#
# 1 124.8684 32.2625 9.5519 0.0000 0.0000 0.0000
# 2 32.2625 180.1792 19.8478 0.0000 0.0000 0.0000
# 3 9.5519 19.8478 68.5452 0.0000 0.0000 0.0000
# 4 0.0000 0.0000 0.0000 28.8790 0.0000 0.0000
# 5 0.0000 0.0000 0.0000 0.0000 22.2987 0.0000
# 6 0.0000 0.0000 0.0000 0.0000 0.0000 33.8593
#
#
#
# Elastic Compliance Matrix: (Units=1/GPa)
#
#
# Indices 1 2 3 4 5 6 
#
# 1 0.008435 -0.001426 -0.000762 0.000000 0.000000 0.000000
# 2 -0.001426 0.005974 -0.001531 0.000000 0.000000 0.000000
# 3 -0.000762 -0.001531 0.015139 0.000000 0.000000 0.000000
# 4 0.000000 0.000000 0.000000 0.034627 0.000000 0.000000
# 5 0.000000 0.000000 0.000000 0.000000 0.044846 0.000000
# 6 0.000000 0.000000 0.000000 0.000000 0.000000 0.029534
#
#
# Mechanical properties :
#
#
# Convention : Reuss Voigt Hill
#
# Bulk Modulus (GPa) = 45.23245 55.21303 50.22274
# Shear Modulus (GPa) = 32.60219 37.80278 35.20249
#
# Velocity S-wave (km/s) = 3.76736 4.05672 3.91471
# Velocity P-wave (km/s) = 6.21413 6.78078 6.50363
#
# Compressibility (1/GPa) = 0.02210802
#
# Stress axis : x y z
#
# Youngs Moduli (GPa) = 118.54943 167.38923 66.05672
#
# Poissons Ratio (x) = 0.23877 0.05036
# Poissons Ratio (y) = 0.16910 0.10114
# Poissons Ratio (z) = 0.09039 0.25629
#
# Static dielectric constant tensor:
#      x y z
#    x 1.966090 0.000000 0.000000 
#    y 0.000000 2.002510 0.000000 
#    z 0.000000 0.000000 1.845020 
# 
# From -- ./inp_files/13270.got.cif
#   From: 2010.05.17/outbox.cif.g08.bks.cpg/sg56_7_cif.got.tgz:13270.got - 2010.06.03 13:42:01.
