data_PCOD9431648
_publ_section_title
;
Structure prediction by ZEFSAII (Michael W. Deem and Ramdas Pophale) SiO2 
 PCOD9431648
Probable space group: P C C N
;
_chemical_formula_sum "Si O2"
_cell_formula_units_Z 60
_cell_length_a 9.966891
_cell_length_b 12.056298
_cell_length_c 24.582872
_cell_angle_alpha 90.000000
_cell_angle_beta 90.000000
_cell_angle_gamma 90.000000
_cell_volume 2953.971512
_symmetry_space_group_name_H-M "P C C N"
_symmetry_group_IT_number 56
_symmetry_cell_setting 'orthorhombic'
loop_
_space_group_symop_operation_xyz
x,y,z
1/2-x,1/2-y,z
1/2+x,-y,1/2-z
-x,1/2+y,1/2-z
-x,-y,-z
1/2+x,1/2+y,-z
1/2-x,y,1/2+z
x,1/2-y,1/2+z
loop_
_atom_site_type_symbol
_atom_site_label
_atom_site_fract_x
_atom_site_fract_y
_atom_site_fract_z
Si Si1 0.908399 0.477461 0.655805
Si Si2 0.662731 0.151289 0.122238
Si Si3 0.750000 0.750000 0.029274
Si Si4 0.405397 0.224284 0.670984
Si Si5 0.536730 0.905129 0.540858
Si Si6 0.950939 0.948353 0.556504
Si Si7 0.102552 0.726151 0.111619
Si Si8 0.895544 0.790236 0.203507
O O1 0.775658 0.400971 0.662510
O O2 0.907772 0.537251 0.596348
O O3 0.905682 0.576910 0.698907
O O4 0.040176 0.400175 0.659723
O O5 0.750000 0.250000 0.094695
O O6 0.523130 0.200020 0.144848
O O7 0.620481 0.049547 0.085478
O O8 0.859966 0.830795 0.005279
O O9 0.652287 0.843220 0.056298
O O10 0.250000 0.250000 0.653912
O O11 0.411445 0.247162 0.735536
O O12 0.429520 0.818029 0.564844
O O13 0.500000 0.000000 0.500000
O O14 0.077812 0.895490 0.587359
O O15 0.000000 0.000000 0.500000
O O16 0.250000 0.750000 0.131350
O O17 0.002618 0.742511 0.161671
O O18 0.750000 0.750000 0.183720
#
# Coordination Sequence:
#
# PCOD9431648 Si02
#       8
#     8   8   4   8   8   8   8   8
#     4  10  21  40  66  91 124 174 218 266 324 389
#     4  10  22  41  66  92 127 173 219 268 324 400
#     4  10  22  42  64  92 124 172 230 252 318 394
#     4  10  24  42  60 100 132 164 217 270 340 391
#     4  10  22  40  65  89 127 171 215 267 321 384
#     4  11  24  41  65  95 131 172 220 269 322 389
#     4  10  24  38  61  97 125 161 218 271 323 383
#     4  10  22  42  68  88 126 172 216 267 329 403
#
# _framework density 20.311637000000001
#
# number of rings (size 3 to 8) (size 9 to 14) (size 15 to 20)
#    0.000    1.867    1.333    0.800    8.400   11.733 
#    2.400    1.333    0.000    0.000    0.000    0.000 
#    0.000    0.000    0.000    0.000    0.000    0.000 
#
# Total GULP energy -334103.591683 kJ/mol
# GULP energy per Si atom -5568.393195 kJ/mol
# Density = 2.026541 g / cm^3
# Si number density = 20.311637 Si / 1000 Ang^3
#
#
#
# Elastic Constant Matrix: (Units=GPa)
#
#
# Indices 1 2 3 4 5 6 
#
# 1 155.6653 57.8572 38.4554 0.0000 0.0000 0.0000
# 2 57.8572 140.1331 37.3390 0.0000 0.0000 0.0000
# 3 38.4554 37.3390 35.5484 0.0000 0.0000 0.0000
# 4 0.0000 0.0000 0.0000 -281.2644 0.0000 0.0000
# 5 0.0000 0.0000 0.0000 0.0000 -20.5310 0.0000
# 6 0.0000 0.0000 0.0000 0.0000 0.0000 36.3554
#
#
#
# Elastic Compliance Matrix: (Units=1/GPa)
#
#
# Indices 1 2 3 4 5 6 
#
# 1 0.009006 -0.001559 -0.008105 0.000000 0.000000 0.000000
# 2 -0.001559 0.010179 -0.009006 0.000000 0.000000 0.000000
# 3 -0.008105 -0.009006 0.046358 0.000000 0.000000 0.000000
# 4 0.000000 0.000000 0.000000 -0.003555 0.000000 0.000000
# 5 0.000000 0.000000 0.000000 0.000000 -0.048707 0.000000
# 6 0.000000 0.000000 0.000000 0.000000 0.000000 0.027506
#
#
# Mechanical properties :
#
#
# Convention : Reuss Voigt Hill
#
# Bulk Modulus (GPa) = 35.45611 66.51669 50.98640
# Shear Modulus (GPa) = 57.12516 -39.90832 8.60842
#
# Velocity S-wave (km/s) = 5.30899 -4.43742 2.06091
# Velocity P-wave (km/s) = 7.42122 2.56221 5.55155
#
# Compressibility (1/GPa) = 0.02820388
#
# Stress axis : x y z
#
# Youngs Moduli (GPa) = 111.04252 98.23918 21.57124
#
# Poissons Ratio (x) = 0.15311 0.17483
# Poissons Ratio (y) = 0.17307 0.19427
# Poissons Ratio (z) = 0.89999 0.88474
#
# Static dielectric constant tensor:
#      x y z
#    x 1.891650 0.000000 0.000000 
#    y 0.000000 1.727330 0.000000 
#    z 0.000000 0.000000 1.737260 
# 
# From -- ./inp_files/22115.got.cif
#   From: 2010.05.17/outbox.cif.g08.bks.cpg/sg56_12_cif.got.tgz:22115.got - 2010.06.03 13:42:01.
