data_PCOD9431904
_publ_section_title
;
Structure prediction by ZEFSAII (Michael W. Deem and Ramdas Pophale) SiO2 
 PCOD9431904
Probable space group: P C C N
;
_chemical_formula_sum "Si O2"
_cell_formula_units_Z 48
_cell_length_a 6.032910
_cell_length_b 15.105040
_cell_length_c 26.806281
_cell_angle_alpha 90.000000
_cell_angle_beta 90.000000
_cell_angle_gamma 90.000000
_cell_volume 2442.785267
_symmetry_space_group_name_H-M "P C C N"
_symmetry_group_IT_number 56
_symmetry_cell_setting 'orthorhombic'
loop_
_space_group_symop_operation_xyz
x,y,z
1/2-x,1/2-y,z
1/2+x,-y,1/2-z
-x,1/2+y,1/2-z
-x,-y,-z
1/2+x,1/2+y,-z
1/2-x,y,1/2+z
x,1/2-y,1/2+z
loop_
_atom_site_type_symbol
_atom_site_label
_atom_site_fract_x
_atom_site_fract_y
_atom_site_fract_z
Si Si1 0.365300 0.154935 0.702688
Si Si2 0.410272 0.131094 0.298031
Si Si3 0.509925 0.576033 0.041610
Si Si4 0.250000 0.750000 0.256218
Si Si5 0.750000 0.250000 0.440603
Si Si6 0.280474 0.993104 0.641800
Si Si7 0.896599 0.625901 0.109678
O O1 0.250000 0.250000 0.696268
O O2 0.256125 0.111832 0.752411
O O3 0.625512 0.174991 0.711479
O O4 0.303743 0.094531 0.656162
O O5 0.559403 0.211288 0.278566
O O6 0.584455 0.056294 0.314220
O O7 0.273740 0.152340 0.347438
O O8 0.375928 0.668462 0.031344
O O9 0.398465 0.533183 0.090518
O O10 0.757558 0.599909 0.060353
O O11 0.500000 0.500000 0.000000
O O12 0.568782 0.298578 0.406059
O O13 0.035103 0.954923 0.633964
#
# Coordination Sequence:
#
# PCOD9431904 Si02
#       7
#     8   8   8   4   4   8   8
#     4  10  23  38  54  82 123 168 208 255 304 373
#     4  10  22  33  58  86 121 161 206 253 305 361
#     4  10  23  43  64  93 125 160 209 266 322 380
#     4  10  22  37  53  84 122 166 207 246 307 364
#     4  10  22  39  65  94 126 160 205 270 327 374
#     4  10  23  38  60  88 119 164 206 258 310 373
#     4  10  22  39  62  92 122 158 209 258 316 371
#
# _framework density 19.649699999999999
#
# number of rings (size 3 to 8) (size 9 to 14) (size 15 to 20)
#    0.000    2.000    0.000    1.500    4.667   26.667 
#    0.000    4.167    0.000    0.000    0.000    0.000 
#    0.000    0.000    0.000    0.000    0.000    0.000 
#
# Total GULP energy -267837.828896 kJ/mol
# GULP energy per Si atom -5579.954769 kJ/mol
# Density = 1.960498 g / cm^3
# Si number density = 19.649700 Si / 1000 Ang^3
#
#
#
# Elastic Constant Matrix: (Units=GPa)
#
#
# Indices 1 2 3 4 5 6 
#
# 1 120.1982 48.7306 30.7166 0.0000 0.0000 0.0000
# 2 48.7306 122.6624 53.7772 0.0000 0.0000 0.0000
# 3 30.7166 53.7772 56.6240 0.0000 0.0000 0.0000
# 4 0.0000 0.0000 0.0000 33.2865 0.0000 0.0000
# 5 0.0000 0.0000 0.0000 0.0000 10.7047 0.0000
# 6 0.0000 0.0000 0.0000 0.0000 0.0000 24.9003
#
#
#
# Elastic Compliance Matrix: (Units=1/GPa)
#
#
# Indices 1 2 3 4 5 6 
#
# 1 0.010184 -0.002782 -0.002882 0.000000 0.000000 0.000000
# 2 -0.002782 0.014729 -0.012479 0.000000 0.000000 0.000000
# 3 -0.002882 -0.012479 0.031075 0.000000 0.000000 0.000000
# 4 0.000000 0.000000 0.000000 0.030042 0.000000 0.000000
# 5 0.000000 0.000000 0.000000 0.000000 0.093417 0.000000
# 6 0.000000 0.000000 0.000000 0.000000 0.000000 0.040160
#
#
# Mechanical properties :
#
#
# Convention : Reuss Voigt Hill
#
# Bulk Modulus (GPa) = 50.75755 62.88149 56.81952
# Shear Modulus (GPa) = 19.05038 24.86229 21.95634
#
# Velocity S-wave (km/s) = 3.11706 3.56093 3.34636
# Velocity P-wave (km/s) = 6.23234 6.99841 6.62645
#
# Compressibility (1/GPa) = 0.01970150
#
# Stress axis : x y z
#
# Youngs Moduli (GPa) = 98.19207 67.89413 32.17977
#
# Poissons Ratio (x) = 0.18890 0.09274
# Poissons Ratio (y) = 0.27320 0.40157
# Poissons Ratio (z) = 0.28300 0.84725
#
# Static dielectric constant tensor:
#      x y z
#    x 1.779010 0.000000 0.000000 
#    y 0.000000 1.778290 0.000000 
#    z 0.000000 0.000000 1.656590 
# 
# From -- ./inp_files/21733.got.cif
#   From: 2010.05.17/outbox.cif.g08.bks.cpg/sg56_11_cif.got.tgz:21733.got - 2010.06.03 13:42:01.
