data_PCOD9431586
_publ_section_title
;
Structure prediction by ZEFSAII (Michael W. Deem and Ramdas Pophale) SiO2 
 PCOD9431586
Probable space group: P C C N
;
_chemical_formula_sum "Si O2"
_cell_formula_units_Z 32
_cell_length_a 17.702096
_cell_length_b 14.891749
_cell_length_c 5.299575
_cell_angle_alpha 90.000000
_cell_angle_beta 90.000000
_cell_angle_gamma 90.000000
_cell_volume 1397.048367
_symmetry_space_group_name_H-M "P C C N"
_symmetry_group_IT_number 56
_symmetry_cell_setting 'orthorhombic'
loop_
_space_group_symop_operation_xyz
x,y,z
1/2-x,1/2-y,z
1/2+x,-y,1/2-z
-x,1/2+y,1/2-z
-x,-y,-z
1/2+x,1/2+y,-z
1/2-x,y,1/2+z
x,1/2-y,1/2+z
loop_
_atom_site_type_symbol
_atom_site_label
_atom_site_fract_x
_atom_site_fract_y
_atom_site_fract_z
Si Si1 0.719188 0.350236 0.367825
Si Si2 0.074370 0.572466 0.281753
Si Si3 0.405357 0.460245 0.281816
Si Si4 0.664729 0.713622 0.868470
O O1 0.750000 0.250000 0.403509
O O2 0.735755 0.395289 0.636702
O O3 0.632443 0.349131 0.285920
O O4 0.090211 0.535175 0.561743
O O5 0.986066 0.590914 0.250421
O O6 0.094954 0.499135 0.064298
O O7 0.340842 0.388671 0.220153
O O8 0.750000 0.750000 0.901900
O O9 0.628714 0.771760 0.642670
#
# Coordination Sequence:
#
# PCOD9431586 Si02
#       4
#     8   8   8   8
#     4  10  21  40  58  88 126 157 201 243 297 360
#     4  10  21  40  63  92 119 158 203 248 300 352
#     4  10  21  40  64  89 123 156 203 250 298 356
#     4  10  21  40  57  87 124 157 199 241 297 360
#
# _framework density 22.905434
#
# number of rings (size 3 to 8) (size 9 to 14) (size 15 to 20)
#    0.000    2.000    0.000    3.000    0.000    0.000 
#   36.000    0.000    0.000    0.000    0.000    0.000 
#    0.000    0.000    0.000    0.000    0.000    0.000 
#
# Total GULP energy -178540.408849 kJ/mol
# GULP energy per Si atom -5579.387777 kJ/mol
# Density = 2.285330 g / cm^3
# Si number density = 22.905434 Si / 1000 Ang^3
#
#
#
# Elastic Constant Matrix: (Units=GPa)
#
#
# Indices 1 2 3 4 5 6 
#
# 1 80.3033 23.0069 -4.6177 0.0000 0.0000 0.0000
# 2 23.0069 35.5338 -19.3742 0.0000 0.0000 0.0000
# 3 -4.6177 -19.3742 146.7809 0.0000 0.0000 0.0000
# 4 0.0000 0.0000 0.0000 24.6213 0.0000 0.0000
# 5 0.0000 0.0000 0.0000 0.0000 31.7107 0.0000
# 6 0.0000 0.0000 0.0000 0.0000 0.0000 41.8531
#
#
#
# Elastic Compliance Matrix: (Units=1/GPa)
#
#
# Indices 1 2 3 4 5 6 
#
# 1 0.015397 -0.010458 -0.000896 0.000000 0.000000 0.000000
# 2 -0.010458 0.037427 0.004611 0.000000 0.000000 0.000000
# 3 -0.000896 0.004611 0.007393 0.000000 0.000000 0.000000
# 4 0.000000 0.000000 0.000000 0.040615 0.000000 0.000000
# 5 0.000000 0.000000 0.000000 0.000000 0.031535 0.000000
# 6 0.000000 0.000000 0.000000 0.000000 0.000000 0.023893
#
#
# Mechanical properties :
#
#
# Convention : Reuss Voigt Hill
#
# Bulk Modulus (GPa) = 21.39813 28.96090 25.17952
# Shear Modulus (GPa) = 26.97971 37.21057 32.09514
#
# Velocity S-wave (km/s) = 3.43574 4.03492 3.74732
# Velocity P-wave (km/s) = 5.01012 5.86332 5.45343
#
# Compressibility (1/GPa) = 0.04673305
#
# Stress axis : x y z
#
# Youngs Moduli (GPa) = 64.94590 26.71836 135.25689
#
# Poissons Ratio (x) = 0.27942 0.12119
# Poissons Ratio (y) = 0.67919 -0.62370
# Poissons Ratio (z) = 0.05819 -0.12320
#
# Static dielectric constant tensor:
#      x y z
#    x 2.336860 0.000000 0.000000 
#    y 0.000000 -0.080930 0.000000 
#    z 0.000000 0.000000 1.964450 
# 
# From -- ./inp_files/230.got.cif
#   From: 2010.05.17/outbox.cif.g08.bks.cpg/sg56_1_cif.got.tgz:230.got - 2010.06.03 13:42:01.
