data_PCOD9431859
_publ_section_title
;
Structure prediction by ZEFSAII (Michael W. Deem and Ramdas Pophale) SiO2 
 PCOD9431859
Probable space group: P C C N
;
_chemical_formula_sum "Si O2"
_cell_formula_units_Z 64
_cell_length_a 23.564747
_cell_length_b 9.708531
_cell_length_c 10.514673
_cell_angle_alpha 90.000000
_cell_angle_beta 90.000000
_cell_angle_gamma 90.000000
_cell_volume 2405.537181
_symmetry_space_group_name_H-M "P C C N"
_symmetry_group_IT_number 56
_symmetry_cell_setting 'orthorhombic'
loop_
_space_group_symop_operation_xyz
x,y,z
1/2-x,1/2-y,z
1/2+x,-y,1/2-z
-x,1/2+y,1/2-z
-x,-y,-z
1/2+x,1/2+y,-z
1/2-x,y,1/2+z
x,1/2-y,1/2+z
loop_
_atom_site_type_symbol
_atom_site_label
_atom_site_fract_x
_atom_site_fract_y
_atom_site_fract_z
Si Si1 0.424742 0.858956 0.427838
Si Si2 0.642898 0.504462 0.869057
Si Si3 0.188989 0.760958 0.782673
Si Si4 0.070293 0.559481 0.969976
Si Si5 0.826047 0.980586 0.380380
Si Si6 0.196147 0.283539 0.476914
Si Si7 0.513149 0.542696 0.274944
Si Si8 0.604410 0.772307 0.716783
O O1 0.365402 0.812235 0.362508
O O2 0.447948 0.717578 0.484615
O O3 0.465435 0.931323 0.326289
O O4 0.409620 0.954615 0.545624
O O5 0.689118 0.563325 0.970130
O O6 0.668481 0.378989 0.787758
O O7 0.625671 0.644709 0.798299
O O8 0.250000 0.750000 0.851714
O O9 0.200417 0.884327 0.681229
O O10 0.136100 0.537524 0.002490
O O11 0.051230 0.529768 0.825134
O O12 0.041720 0.476940 0.085382
O O13 0.794022 0.844600 0.427572
O O14 0.865411 0.910732 0.271185
O O15 0.250000 0.250000 0.384710
O O16 0.133886 0.254012 0.418515
O O17 0.538402 0.686825 0.222187
#
# Coordination Sequence:
#
# PCOD9431859 Si02
#       8
#     8   8   8   8   8   8   8   8
#     4  12  22  45  64 100 135 167 222 285 318 406
#     4  11  24  41  65  94 131 170 224 268 325 391
#     4  12  25  42  68  95 136 177 219 276 338 390
#     4  10  22  42  70  93 126 174 212 268 341 387
#     4  10  21  44  61  90 134 167 213 270 326 390
#     4  11  23  39  65  92 129 173 221 265 327 392
#     4  10  21  46  69  92 133 174 211 276 340 392
#     4  10  22  41  63  92 129 170 214 268 320 390
#
# _framework density 26.605284999999999
#
# number of rings (size 3 to 8) (size 9 to 14) (size 15 to 20)
#    0.000    1.250    5.000    0.750    1.750    5.500 
#    4.500    0.625    0.000    0.000    0.000    0.000 
#    0.000    0.000    0.000    0.000    0.000    0.000 
#
# Total GULP energy -357626.682648 kJ/mol
# GULP energy per Si atom -5587.916916 kJ/mol
# Density = 2.654473 g / cm^3
# Si number density = 26.605285 Si / 1000 Ang^3
#
#
#
# Elastic Constant Matrix: (Units=GPa)
#
#
# Indices 1 2 3 4 5 6 
#
# 1 62.8772 15.4887 8.0172 0.0000 0.0000 0.0000
# 2 15.4887 164.3696 33.4539 0.0000 0.0000 0.0000
# 3 8.0172 33.4539 64.8188 0.0000 0.0000 0.0000
# 4 0.0000 0.0000 0.0000 46.0697 0.0000 0.0000
# 5 0.0000 0.0000 0.0000 0.0000 16.5375 0.0000
# 6 0.0000 0.0000 0.0000 0.0000 0.0000 36.4059
#
#
#
# Elastic Compliance Matrix: (Units=1/GPa)
#
#
# Indices 1 2 3 4 5 6 
#
# 1 0.016391 -0.001265 -0.001375 0.000000 0.000000 0.000000
# 2 -0.001265 0.006896 -0.003402 0.000000 0.000000 0.000000
# 3 -0.001375 -0.003402 0.017354 0.000000 0.000000 0.000000
# 4 0.000000 0.000000 0.000000 0.021706 0.000000 0.000000
# 5 0.000000 0.000000 0.000000 0.000000 0.060469 0.000000
# 6 0.000000 0.000000 0.000000 0.000000 0.000000 0.027468
#
#
# Mechanical properties :
#
#
# Convention : Reuss Voigt Hill
#
# Bulk Modulus (GPa) = 35.01827 45.10947 40.06387
# Shear Modulus (GPa) = 29.08917 35.47633 32.28275
#
# Velocity S-wave (km/s) = 3.31019 3.65558 3.48716
# Velocity P-wave (km/s) = 5.27262 5.89996 5.59509
#
# Compressibility (1/GPa) = 0.02855652
#
# Stress axis : x y z
#
# Youngs Moduli (GPa) = 61.00969 145.02160 57.62463
#
# Poissons Ratio (x) = 0.18342 0.07921
# Poissons Ratio (y) = 0.07716 0.19606
# Poissons Ratio (z) = 0.08386 0.49343
#
# Static dielectric constant tensor:
#      x y z
#    x 2.392690 0.000000 0.000000 
#    y 0.000000 2.040960 0.000000 
#    z 0.000000 0.000000 2.131880 
# 
# From -- ./inp_files/9185.got.cif
#   From: 2010.05.17/outbox.cif.g08.bks.cpg/sg56_5_cif.got.tgz:9185.got - 2010.06.03 13:42:01.
