data_PCOD9431871
_publ_section_title
;
Structure prediction by ZEFSAII (Michael W. Deem and Ramdas Pophale) SiO2 
 PCOD9431871
Probable space group: P C C N
;
_chemical_formula_sum "Si O2"
_cell_formula_units_Z 56
_cell_length_a 8.926475
_cell_length_b 21.859288
_cell_length_c 14.053257
_cell_angle_alpha 90.000000
_cell_angle_beta 90.000000
_cell_angle_gamma 90.000000
_cell_volume 2742.161276
_symmetry_space_group_name_H-M "P C C N"
_symmetry_group_IT_number 56
_symmetry_cell_setting 'orthorhombic'
loop_
_space_group_symop_operation_xyz
x,y,z
1/2-x,1/2-y,z
1/2+x,-y,1/2-z
-x,1/2+y,1/2-z
-x,-y,-z
1/2+x,1/2+y,-z
1/2-x,y,1/2+z
x,1/2-y,1/2+z
loop_
_atom_site_type_symbol
_atom_site_label
_atom_site_fract_x
_atom_site_fract_y
_atom_site_fract_z
Si Si1 0.163732 0.385972 0.384327
Si Si2 0.829151 0.310199 0.692661
Si Si3 0.946179 0.302866 0.480639
Si Si4 0.460795 0.319895 0.368683
Si Si5 0.356308 0.994579 0.930095
Si Si6 0.212449 0.898674 0.571670
Si Si7 0.887034 0.417606 0.249481
O O1 0.287772 0.335762 0.357279
O O2 0.250571 0.447003 0.415202
O O3 0.072121 0.355010 0.470254
O O4 0.042328 0.398638 0.300808
O O5 0.750000 0.250000 0.730325
O O6 0.894715 0.295273 0.588841
O O7 0.701670 0.362402 0.696781
O O8 0.961645 0.322954 0.766003
O O9 0.804390 0.335021 0.429933
O O10 0.002355 0.242192 0.426540
O O11 0.542435 0.375862 0.423635
O O12 0.408263 0.970676 0.827074
O O13 0.260730 0.940872 0.981291
O O14 0.500000 0.000000 0.000000
O O15 0.272951 0.933743 0.664394
#
# Coordination Sequence:
#
# PCOD9431871 Si02
#       7
#     8   8   8   8   8   8   8
#     4  11  26  44  65  99 142 177 219 291 341 398
#     4  11  22  41  71  98 126 177 223 274 336 411
#     4  11  23  42  67  99 131 174 225 276 339 410
#     4  11  22  43  67  97 138 169 220 280 344 404
#     4  12  25  43  67  99 137 181 233 279 343 406
#     4  10  21  44  68  98 131 179 227 280 331 410
#     4  10  25  43  67  99 135 177 232 277 342 402
#
# _framework density 20.421847
#
# number of rings (size 3 to 8) (size 9 to 14) (size 15 to 20)
#    0.000    1.143    2.857    4.286    2.000    3.429 
#    0.000    2.857    0.000    0.000    0.000    0.000 
#    0.000    0.000    0.000    0.000    0.000    0.000 
#
# Total GULP energy -312468.139669 kJ/mol
# GULP energy per Si atom -5579.788208 kJ/mol
# Density = 2.037537 g / cm^3
# Si number density = 20.421847 Si / 1000 Ang^3
#
#
#
# Elastic Constant Matrix: (Units=GPa)
#
#
# Indices 1 2 3 4 5 6 
#
# 1 118.9883 48.2021 28.9815 0.0000 0.0000 0.0000
# 2 48.2021 90.0735 49.4973 0.0000 0.0000 0.0000
# 3 28.9815 49.4973 93.1330 0.0000 0.0000 0.0000
# 4 0.0000 0.0000 0.0000 34.2868 0.0000 0.0000
# 5 0.0000 0.0000 0.0000 0.0000 25.5589 0.0000
# 6 0.0000 0.0000 0.0000 0.0000 0.0000 35.2862
#
#
#
# Elastic Compliance Matrix: (Units=1/GPa)
#
#
# Indices 1 2 3 4 5 6 
#
# 1 0.010741 -0.005525 -0.000406 0.000000 0.000000 0.000000
# 2 -0.005525 0.018524 -0.008126 0.000000 0.000000 0.000000
# 3 -0.000406 -0.008126 0.015182 0.000000 0.000000 0.000000
# 4 0.000000 0.000000 0.000000 0.029166 0.000000 0.000000
# 5 0.000000 0.000000 0.000000 0.000000 0.039125 0.000000
# 6 0.000000 0.000000 0.000000 0.000000 0.000000 0.028340
#
#
# Mechanical properties :
#
#
# Convention : Reuss Voigt Hill
#
# Bulk Modulus (GPa) = 61.22208 61.72851 61.47529
# Shear Modulus (GPa) = 28.63097 30.72730 29.67913
#
# Velocity S-wave (km/s) = 3.74836 3.88316 3.81636
# Velocity P-wave (km/s) = 6.98408 7.09913 7.04184
#
# Compressibility (1/GPa) = 0.01633398
#
# Stress axis : x y z
#
# Youngs Moduli (GPa) = 93.09907 53.98455 65.86639
#
# Poissons Ratio (x) = 0.29826 0.02676
# Poissons Ratio (y) = 0.51436 0.53520
# Poissons Ratio (z) = 0.03782 0.43866
#
# Static dielectric constant tensor:
#      x y z
#    x 1.757350 0.000000 0.000000 
#    y 0.000000 1.775120 0.000000 
#    z 0.000000 0.000000 1.725230 
# 
# From -- ./inp_files/10853.got.cif
#   From: 2010.05.17/outbox.cif.g08.bks.cpg/sg56_6_cif.got.tgz:10853.got - 2010.06.03 13:42:01.
