data_PCOD9431771
_publ_section_title
;
Structure prediction by ZEFSAII (Michael W. Deem and Ramdas Pophale) SiO2 
 PCOD9431771
Probable space group: P C C N
;
_chemical_formula_sum "Si O2"
_cell_formula_units_Z 52
_cell_length_a 19.011300
_cell_length_b 13.477972
_cell_length_c 10.353176
_cell_angle_alpha 90.000000
_cell_angle_beta 90.000000
_cell_angle_gamma 90.000000
_cell_volume 2652.833308
_symmetry_space_group_name_H-M "P C C N"
_symmetry_group_IT_number 56
_symmetry_cell_setting 'orthorhombic'
loop_
_space_group_symop_operation_xyz
x,y,z
1/2-x,1/2-y,z
1/2+x,-y,1/2-z
-x,1/2+y,1/2-z
-x,-y,-z
1/2+x,1/2+y,-z
1/2-x,y,1/2+z
x,1/2-y,1/2+z
loop_
_atom_site_type_symbol
_atom_site_label
_atom_site_fract_x
_atom_site_fract_y
_atom_site_fract_z
Si Si1 0.367370 0.499894 0.661101
Si Si2 0.250000 0.750000 0.520326
Si Si3 0.472904 0.313795 0.678065
Si Si4 0.369256 0.877120 0.898003
Si Si5 0.982602 0.836890 0.038262
Si Si6 0.603566 0.039740 0.557066
Si Si7 0.286696 0.546271 0.155942
O O1 0.418031 0.404281 0.660994
O O2 0.378174 0.561395 0.530479
O O3 0.383285 0.560695 0.792630
O O4 0.283559 0.481708 0.671713
O O5 0.184533 0.787090 0.432456
O O6 0.234209 0.657532 0.612734
O O7 0.552963 0.346660 0.646931
O O8 0.454941 0.226313 0.580384
O O9 0.473753 0.280912 0.827055
O O10 0.332481 0.942723 0.785598
O O11 0.062508 0.869636 0.009302
O O12 0.943231 0.940943 0.053516
O O13 0.669934 0.013382 0.469594
#
# Coordination Sequence:
#
# PCOD9431771 Si02
#       7
#     8   4   8   8   8   8   8
#     4  10  23  38  60  87 124 157 205 248 306 367
#     4  10  22  34  56  92 124 156 198 252 314 372
#     4  11  23  40  59  93 118 163 205 254 300 367
#     4  11  22  36  60  89 123 162 200 252 307 376
#     4  10  23  39  64  85 124 156 210 252 303 367
#     4  10  21  42  60  87 118 169 198 250 316 361
#     4  11  21  39  61  87 121 161 202 254 310 369
#
# _framework density 19.601683000000001
#
# number of rings (size 3 to 8) (size 9 to 14) (size 15 to 20)
#    0.000    1.538    1.538    3.692    2.154    3.692 
#    0.000    0.769    0.000    3.692    0.000    0.000 
#    0.000    0.000    0.000    0.000    0.000    0.000 
#
# Total GULP energy -290223.684339 kJ/mol
# GULP energy per Si atom -5581.224699 kJ/mol
# Density = 1.955707 g / cm^3
# Si number density = 19.601683 Si / 1000 Ang^3
#
#
#
# Elastic Constant Matrix: (Units=GPa)
#
#
# Indices 1 2 3 4 5 6 
#
# 1 73.2052 7.7201 12.1941 0.0000 0.0000 0.0000
# 2 7.7201 18.8058 22.8112 0.0000 0.0000 0.0000
# 3 12.1941 22.8112 144.6037 0.0000 0.0000 0.0000
# 4 0.0000 0.0000 0.0000 22.0604 0.0000 0.0000
# 5 0.0000 0.0000 0.0000 0.0000 33.7738 0.0000
# 6 0.0000 0.0000 0.0000 0.0000 0.0000 28.3069
#
#
#
# Elastic Compliance Matrix: (Units=1/GPa)
#
#
# Indices 1 2 3 4 5 6 
#
# 1 0.014292 -0.005448 -0.000346 0.000000 0.000000 0.000000
# 2 -0.005448 0.067834 -0.010241 0.000000 0.000000 0.000000
# 3 -0.000346 -0.010241 0.008560 0.000000 0.000000 0.000000
# 4 0.000000 0.000000 0.000000 0.045330 0.000000 0.000000
# 5 0.000000 0.000000 0.000000 0.000000 0.029609 0.000000
# 6 0.000000 0.000000 0.000000 0.000000 0.000000 0.035327
#
#
# Mechanical properties :
#
#
# Convention : Reuss Voigt Hill
#
# Bulk Modulus (GPa) = 17.05998 35.78505 26.42251
# Shear Modulus (GPa) = 19.79717 29.75419 24.77568
#
# Velocity S-wave (km/s) = 3.18145 3.90030 3.55907
# Velocity P-wave (km/s) = 4.71357 6.21119 5.51347
#
# Compressibility (1/GPa) = 0.05861671
#
# Stress axis : x y z
#
# Youngs Moduli (GPa) = 69.96751 14.74184 116.81965
#
# Poissons Ratio (x) = 0.08031 0.04040
# Poissons Ratio (y) = 0.38116 1.19640
# Poissons Ratio (z) = 0.02420 0.15098
#
# Static dielectric constant tensor:
#      x y z
#    x 1.740730 0.000000 0.000000 
#    y 0.000000 1.706410 0.000000 
#    z 0.000000 0.000000 1.699400 
# 
# From -- ./inp_files/4450.got.cif
#   From: 2010.05.17/outbox.cif.g08.bks.cpg/sg56_3_cif.got.tgz:4450.got - 2010.06.03 13:42:01.
