data_PCOD9431190
_publ_section_title
;
Structure prediction by ZEFSAII (Michael W. Deem and Ramdas Pophale) SiO2 
 PCOD9431190
Probable space group: P C C N
;
_chemical_formula_sum "Si O2"
_cell_formula_units_Z 48
_cell_length_a 14.821637
_cell_length_b 7.782628
_cell_length_c 16.654293
_cell_angle_alpha 90.000000
_cell_angle_beta 90.000000
_cell_angle_gamma 90.000000
_cell_volume 1921.094134
_symmetry_space_group_name_H-M "P C C N"
_symmetry_group_IT_number 56
_symmetry_cell_setting 'orthorhombic'
loop_
_space_group_symop_operation_xyz
x,y,z
1/2-x,1/2-y,z
1/2+x,-y,1/2-z
-x,1/2+y,1/2-z
-x,-y,-z
1/2+x,1/2+y,-z
1/2-x,y,1/2+z
x,1/2-y,1/2+z
loop_
_atom_site_type_symbol
_atom_site_label
_atom_site_fract_x
_atom_site_fract_y
_atom_site_fract_z
Si Si1 0.107421 0.189626 0.959806
Si Si2 0.133502 0.051987 0.719241
Si Si3 0.699354 0.947777 0.165414
Si Si4 0.936776 0.302467 0.548109
Si Si5 0.750000 0.250000 0.543408
Si Si6 0.564301 0.188224 0.231978
Si Si7 0.250000 0.250000 0.588143
O O1 0.350857 0.186780 0.892917
O O2 0.064186 0.007267 0.935841
O O3 0.182872 0.152585 0.027344
O O4 0.022254 0.274306 0.003716
O O5 0.210439 0.087892 0.784649
O O6 0.182781 0.130164 0.640579
O O7 0.039993 0.143579 0.745471
O O8 0.105842 0.849601 0.720022
O O9 0.737546 0.089064 0.102847
O O10 0.630434 0.023816 0.232358
O O11 0.845130 0.262215 0.499959
O O12 0.932131 0.229492 0.637178
#
# Coordination Sequence:
#
# PCOD9431190 Si02
#       7
#     8   8   8   8   4   8   4
#     4  11  25  47  79 112 157 204 267 323 408 472
#     4  12  27  50  76 115 160 209 265 330 398 496
#     4  11  24  49  83 109 148 216 262 325 397 485
#     4  10  22  47  72 114 151 196 255 326 388 483
#     4  10  20  42  74 104 150 188 268 306 386 458
#     4  11  26  49  78 114 153 205 271 325 408 469
#     4  12  28  44  74 116 150 206 260 328 404 470
#
# _framework density 24.985761
#
# number of rings (size 3 to 8) (size 9 to 14) (size 15 to 20)
#    0.000    1.000    5.000    1.000    4.667    2.667 
#    6.000    5.000    3.667    0.000    0.000    0.000 
#    0.000    0.000    0.000    0.000    0.000    0.000 
#
# Total GULP energy -268249.600976 kJ/mol
# GULP energy per Si atom -5588.533354 kJ/mol
# Density = 2.492889 g / cm^3
# Si number density = 24.985761 Si / 1000 Ang^3
#
#
#
# Elastic Constant Matrix: (Units=GPa)
#
#
# Indices 1 2 3 4 5 6 
#
# 1 227.3118 61.4910 53.5259 0.0000 0.0000 0.0000
# 2 61.4910 88.9546 47.7916 0.0000 0.0000 0.0000
# 3 53.5259 47.7916 63.2092 0.0000 0.0000 0.0000
# 4 0.0000 0.0000 0.0000 5.7879 0.0000 0.0000
# 5 0.0000 0.0000 0.0000 0.0000 44.6669 0.0000
# 6 0.0000 0.0000 0.0000 0.0000 0.0000 43.8583
#
#
#
# Elastic Compliance Matrix: (Units=1/GPa)
#
#
# Indices 1 2 3 4 5 6 
#
# 1 0.005760 -0.002292 -0.003144 0.000000 0.000000 0.000000
# 2 -0.002292 0.019844 -0.013063 0.000000 0.000000 0.000000
# 3 -0.003144 -0.013063 0.028360 0.000000 0.000000 0.000000
# 4 0.000000 0.000000 0.000000 0.172774 0.000000 0.000000
# 5 0.000000 0.000000 0.000000 0.000000 0.022388 0.000000
# 6 0.000000 0.000000 0.000000 0.000000 0.000000 0.022801
#
#
# Mechanical properties :
#
#
# Convention : Reuss Voigt Hill
#
# Bulk Modulus (GPa) = 58.94498 78.34362 68.64430
# Shear Modulus (GPa) = 15.89416 33.30709 24.60063
#
# Velocity S-wave (km/s) = 2.52490 3.65505 3.14122
# Velocity P-wave (km/s) = 5.66946 7.01683 6.37882
#
# Compressibility (1/GPa) = 0.01696497
#
# Stress axis : x y z
#
# Youngs Moduli (GPa) = 173.62017 50.39197 35.26110
#
# Poissons Ratio (x) = 0.11551 0.11087
# Poissons Ratio (y) = 0.39797 0.46062
# Poissons Ratio (z) = 0.54591 0.65827
#
# Static dielectric constant tensor:
#      x y z
#    x 2.121350 0.000000 0.000000 
#    y 0.000000 2.171620 0.000000 
#    z 0.000000 0.000000 1.968910 
# 
# From -- ./inp_files/16215.got.cif
#   From: 2010.05.17/outbox.cif.g08.bks.cpg/sg56_9_cif.got.tgz:16215.got - 2010.06.03 13:42:01.
