data_PCOD9431240
_publ_section_title
;
Structure prediction by ZEFSAII (Michael W. Deem and Ramdas Pophale) SiO2 
 PCOD9431240
Probable space group: P C C N
;
_chemical_formula_sum "Si O2"
_cell_formula_units_Z 48
_cell_length_a 17.819263
_cell_length_b 20.177607
_cell_length_c 5.779388
_cell_angle_alpha 90.000000
_cell_angle_beta 90.000000
_cell_angle_gamma 90.000000
_cell_volume 2077.979452
_symmetry_space_group_name_H-M "P C C N"
_symmetry_group_IT_number 56
_symmetry_cell_setting 'orthorhombic'
loop_
_space_group_symop_operation_xyz
x,y,z
1/2-x,1/2-y,z
1/2+x,-y,1/2-z
-x,1/2+y,1/2-z
-x,-y,-z
1/2+x,1/2+y,-z
1/2-x,y,1/2+z
x,1/2-y,1/2+z
loop_
_atom_site_type_symbol
_atom_site_label
_atom_site_fract_x
_atom_site_fract_y
_atom_site_fract_z
Si Si1 0.427701 0.077210 0.914450
Si Si2 0.265766 0.138575 0.829942
Si Si3 0.713271 0.491648 0.179928
Si Si4 0.084939 0.886285 0.807176
Si Si5 0.527286 0.447985 0.807352
Si Si6 0.277671 0.674775 0.615481
O O1 0.351652 0.112803 0.847547
O O2 0.501695 0.107859 0.792939
O O3 0.424883 0.998659 0.849615
O O4 0.454763 0.079057 0.177789
O O5 0.253128 0.171395 0.578355
O O6 0.214367 0.071773 0.821670
O O7 0.757599 0.476120 0.419457
O O8 0.635987 0.452463 0.213102
O O9 0.134758 0.832109 0.679551
O O10 0.072495 0.887061 0.083421
O O11 0.500000 0.500000 0.000000
O O12 0.250000 0.750000 0.600197
O O13 0.259674 0.647368 0.356808
#
# Coordination Sequence:
#
# PCOD9431240 Si02
#       6
#     8   8   8   8   8   8
#     4  10  22  33  50  74 109 148 199 248 294 342
#     4  10  22  34  48  65 101 146 187 229 280 324
#     4  10  21  31  46  68  97 134 185 233 274 323
#     4  11  22  33  56  78 105 147 201 247 290 355
#     4   9  20  31  48  70 107 138 191 248 295 324
#     4  10  23  42  62  86 118 154 194 246 312 365
#
# _framework density 23.099361999999999
#
# number of rings (size 3 to 8) (size 9 to 14) (size 15 to 20)
#    0.000    2.000    0.000    3.000   23.333    0.000 
#    0.000    0.000    0.000    0.000    0.000    0.000 
#    0.000    0.000    0.000   18.000    0.000    1.333 
#
# Total GULP energy -267399.897392 kJ/mol
# GULP energy per Si atom -5570.831196 kJ/mol
# Density = 2.304679 g / cm^3
# Si number density = 23.099362 Si / 1000 Ang^3
#
#
#
# Elastic Constant Matrix: (Units=GPa)
#
#
# Indices 1 2 3 4 5 6 
#
# 1 147.6102 17.2970 44.2198 0.0000 0.0000 0.0000
# 2 17.2970 44.5013 20.5295 0.0000 0.0000 0.0000
# 3 44.2198 20.5295 196.4640 0.0000 0.0000 0.0000
# 4 0.0000 0.0000 0.0000 5.4716 0.0000 0.0000
# 5 0.0000 0.0000 0.0000 0.0000 51.3934 0.0000
# 6 0.0000 0.0000 0.0000 0.0000 0.0000 21.7991
#
#
#
# Elastic Compliance Matrix: (Units=1/GPa)
#
#
# Indices 1 2 3 4 5 6 
#
# 1 0.007470 -0.002236 -0.001448 0.000000 0.000000 0.000000
# 2 -0.002236 0.024278 -0.002034 0.000000 0.000000 0.000000
# 3 -0.001448 -0.002034 0.005628 0.000000 0.000000 0.000000
# 4 0.000000 0.000000 0.000000 0.182762 0.000000 0.000000
# 5 0.000000 0.000000 0.000000 0.000000 0.019458 0.000000
# 6 0.000000 0.000000 0.000000 0.000000 0.000000 0.045873
#
#
# Mechanical properties :
#
#
# Convention : Reuss Voigt Hill
#
# Bulk Modulus (GPa) = 38.54657 61.40756 49.97706
# Shear Modulus (GPa) = 16.36379 36.16810 26.26594
#
# Velocity S-wave (km/s) = 2.66448 3.96126 3.37573
# Velocity P-wave (km/s) = 5.11756 6.89666 6.07262
#
# Compressibility (1/GPa) = 0.02594265
#
# Stress axis : x y z
#
# Youngs Moduli (GPa) = 133.86353 41.18873 177.67122
#
# Poissons Ratio (x) = 0.09209 0.25723
# Poissons Ratio (y) = 0.29928 0.36134
# Poissons Ratio (z) = 0.19381 0.08377
#
# Static dielectric constant tensor:
#      x y z
#    x 1.926820 0.000000 0.000000 
#    y 0.000000 1.923360 0.000000 
#    z 0.000000 0.000000 2.080880 
# 
# From -- ./inp_files/700.got.cif
#   From: 2010.05.17/outbox.cif.g08.bks.cpg/sg56_1_cif.got.tgz:700.got - 2010.06.03 13:42:01.
