data_PCOD9431640
_publ_section_title
;
Structure prediction by ZEFSAII (Michael W. Deem and Ramdas Pophale) SiO2 
 PCOD9431640
Probable space group: P C C N
;
_chemical_formula_sum "Si O2"
_cell_formula_units_Z 40
_cell_length_a 7.544718
_cell_length_b 7.994573
_cell_length_c 24.587930
_cell_angle_alpha 90.000000
_cell_angle_beta 90.000000
_cell_angle_gamma 90.000000
_cell_volume 1483.065227
_symmetry_space_group_name_H-M "P C C N"
_symmetry_group_IT_number 56
_symmetry_cell_setting 'orthorhombic'
loop_
_space_group_symop_operation_xyz
x,y,z
1/2-x,1/2-y,z
1/2+x,-y,1/2-z
-x,1/2+y,1/2-z
-x,-y,-z
1/2+x,1/2+y,-z
1/2-x,y,1/2+z
x,1/2-y,1/2+z
loop_
_atom_site_type_symbol
_atom_site_label
_atom_site_fract_x
_atom_site_fract_y
_atom_site_fract_z
Si Si1 0.040331 0.509437 0.638474
Si Si2 0.951281 0.533129 0.835744
Si Si3 0.947812 0.825228 0.571905
Si Si4 0.933055 0.161352 0.234290
Si Si5 0.046911 0.176963 0.032070
O O1 0.243103 0.484492 0.654852
O O2 0.985417 0.375108 0.592072
O O3 0.039174 0.688875 0.610071
O O4 0.920674 0.493732 0.692149
O O5 0.015388 0.401417 0.789929
O O6 0.041980 0.494754 0.893770
O O7 0.974204 0.706692 0.804915
O O8 0.750000 0.750000 0.567189
O O9 0.028756 0.812254 0.511311
O O10 0.750000 0.250000 0.248252
O O11 0.250000 0.250000 0.040658
O O12 0.000000 0.000000 0.000000
#
# Coordination Sequence:
#
# PCOD9431640 Si02
#       5
#     8   8   8   8   8
#     4  11  23  43  65  93 132 173 220 271 332 403
#     4  12  24  41  65  92 127 170 216 270 332 399
#     4  10  21  40  65  93 126 165 215 271 325 389
#     4  12  25  40  61  91 126 168 215 268 330 399
#     4   9  19  38  63  91 127 170 218 274 334 398
#
# _framework density 26.971166
#
# number of rings (size 3 to 8) (size 9 to 14) (size 15 to 20)
#    0.000    1.200    0.000    7.200    0.000    1.600 
#    0.000   15.000    0.000    0.000    0.000    0.000 
#    0.000    0.000    0.000    0.000    0.000    0.000 
#
# Total GULP energy -223540.377915 kJ/mol
# GULP energy per Si atom -5588.509448 kJ/mol
# Density = 2.690978 g / cm^3
# Si number density = 26.971166 Si / 1000 Ang^3
#
#
#
# Elastic Constant Matrix: (Units=GPa)
#
#
# Indices 1 2 3 4 5 6 
#
# 1 73.3160 7.8291 -2.3780 0.0000 0.0000 0.0000
# 2 7.8291 108.8909 37.9125 0.0000 0.0000 0.0000
# 3 -2.3780 37.9125 219.8403 0.0000 0.0000 0.0000
# 4 0.0000 0.0000 0.0000 39.5432 0.0000 0.0000
# 5 0.0000 0.0000 0.0000 0.0000 23.0736 0.0000
# 6 0.0000 0.0000 0.0000 0.0000 0.0000 45.7218
#
#
#
# Elastic Compliance Matrix: (Units=1/GPa)
#
#
# Indices 1 2 3 4 5 6 
#
# 1 0.013769 -0.001108 0.000340 0.000000 0.000000 0.000000
# 2 -0.001108 0.009859 -0.001712 0.000000 0.000000 0.000000
# 3 0.000340 -0.001712 0.004848 0.000000 0.000000 0.000000
# 4 0.000000 0.000000 0.000000 0.025289 0.000000 0.000000
# 5 0.000000 0.000000 0.000000 0.000000 0.043340 0.000000
# 6 0.000000 0.000000 0.000000 0.000000 0.000000 0.021871
#
#
# Mechanical properties :
#
#
# Convention : Reuss Voigt Hill
#
# Bulk Modulus (GPa) = 42.52620 54.30827 48.41723
# Shear Modulus (GPa) = 37.94338 45.57996 41.76167
#
# Velocity S-wave (km/s) = 3.75482 4.11536 3.93922
# Velocity P-wave (km/s) = 5.88215 6.53919 6.21935
#
# Compressibility (1/GPa) = 0.02351492
#
# Stress axis : x y z
#
# Youngs Moduli (GPa) = 72.62702 101.42651 206.28228
#
# Poissons Ratio (x) = 0.11242 -0.07015
# Poissons Ratio (y) = 0.08050 0.35321
# Poissons Ratio (z) = -0.02470 0.17367
#
# Static dielectric constant tensor:
#      x y z
#    x 2.116800 0.000000 0.000000 
#    y 0.000000 2.274670 0.000000 
#    z 0.000000 0.000000 2.100250 
# 
# From -- ./inp_files/20312.got.cif
#   From: 2010.05.17/outbox.cif.g08.bks.cpg/sg56_11_cif.got.tgz:20312.got - 2010.06.03 13:42:01.
