data_PCOD9431918
_publ_section_title
;
Structure prediction by ZEFSAII (Michael W. Deem and Ramdas Pophale) SiO2 
 PCOD9431918
Probable space group: P C C N
;
_chemical_formula_sum "Si O2"
_cell_formula_units_Z 48
_cell_length_a 9.127086
_cell_length_b 25.098001
_cell_length_c 8.022238
_cell_angle_alpha 90.000000
_cell_angle_beta 90.000000
_cell_angle_gamma 90.000000
_cell_volume 1837.667003
_symmetry_space_group_name_H-M "P C C N"
_symmetry_group_IT_number 56
_symmetry_cell_setting 'orthorhombic'
loop_
_space_group_symop_operation_xyz
x,y,z
1/2-x,1/2-y,z
1/2+x,-y,1/2-z
-x,1/2+y,1/2-z
-x,-y,-z
1/2+x,1/2+y,-z
1/2-x,y,1/2+z
x,1/2-y,1/2+z
loop_
_atom_site_type_symbol
_atom_site_label
_atom_site_fract_x
_atom_site_fract_y
_atom_site_fract_z
Si Si1 0.558497 0.178505 0.198254
Si Si2 0.947479 0.130118 0.372536
Si Si3 0.794909 0.534553 0.441027
Si Si4 0.762448 0.845104 0.443818
Si Si5 0.544556 0.296272 0.067704
Si Si6 0.950516 0.490686 0.769177
O O1 0.382772 0.166198 0.199922
O O2 0.578633 0.235166 0.107110
O O3 0.603479 0.183140 0.389860
O O4 0.615880 0.136863 0.060165
O O5 0.119021 0.146620 0.406211
O O6 0.901241 0.170103 0.226158
O O7 0.922906 0.070836 0.309668
O O8 0.816519 0.597695 0.430935
O O9 0.865427 0.512001 0.606507
O O10 0.616992 0.505880 0.791910
O O11 0.622472 0.524893 0.416011
O O12 0.632821 0.802458 0.445325
#
# Coordination Sequence:
#
# PCOD9431918 Si02
#       6
#     8   8   8   8   8   8
#     4  10  23  32  62  94 143 184 220 285 367 424
#     4  10  23  38  60  93 140 177 232 276 348 418
#     4  11  25  42  72  95 145 181 242 291 355 415
#     4  10  22  36  57  96 135 181 220 292 350 426
#     4  12  19  38  57  98 143 183 224 285 366 428
#     4  11  25  47  65 104 137 189 235 300 347 426
#
# _framework density 26.120073000000001
#
# number of rings (size 3 to 8) (size 9 to 14) (size 15 to 20)
#    1.000    0.333    3.333    2.500    2.333    4.000 
#    3.000    0.000    0.000    0.000    0.000    3.500 
#    0.000    0.000    0.000    0.000    0.000    0.000 
#
# Total GULP energy -268405.648662 kJ/mol
# GULP energy per Si atom -5591.784347 kJ/mol
# Density = 2.606062 g / cm^3
# Si number density = 26.120073 Si / 1000 Ang^3
#
#
#
# Elastic Constant Matrix: (Units=GPa)
#
#
# Indices 1 2 3 4 5 6 
#
# 1 104.8733 -6.6673 23.0015 0.0000 0.0000 0.0000
# 2 -6.6673 40.2144 -20.3088 0.0000 0.0000 0.0000
# 3 23.0015 -20.3088 127.0030 0.0000 0.0000 0.0000
# 4 0.0000 0.0000 0.0000 38.6067 0.0000 0.0000
# 5 0.0000 0.0000 0.0000 0.0000 45.7993 0.0000
# 6 0.0000 0.0000 0.0000 0.0000 0.0000 14.3795
#
#
#
# Elastic Compliance Matrix: (Units=1/GPa)
#
#
# Indices 1 2 3 4 5 6 
#
# 1 0.009954 0.000805 -0.001674 0.000000 0.000000 0.000000
# 2 0.000805 0.027116 0.004190 0.000000 0.000000 0.000000
# 3 -0.001674 0.004190 0.008847 0.000000 0.000000 0.000000
# 4 0.000000 0.000000 0.000000 0.025902 0.000000 0.000000
# 5 0.000000 0.000000 0.000000 0.000000 0.021834 0.000000
# 6 0.000000 0.000000 0.000000 0.000000 0.000000 0.069544
#
#
# Mechanical properties :
#
#
# Convention : Reuss Voigt Hill
#
# Bulk Modulus (GPa) = 19.02603 29.34903 24.18753
# Shear Modulus (GPa) = 28.72330 38.16145 33.44238
#
# Velocity S-wave (km/s) = 3.31972 3.82645 3.58206
# Velocity P-wave (km/s) = 4.68977 5.54823 5.13696
#
# Compressibility (1/GPa) = 0.05255956
#
# Stress axis : x y z
#
# Youngs Moduli (GPa) = 100.46584 36.87810 113.03163
#
# Poissons Ratio (x) = -0.02968 0.18921
# Poissons Ratio (y) = -0.08086 -0.47364
# Poissons Ratio (z) = 0.16818 -0.15453
#
# Static dielectric constant tensor:
#      x y z
#    x 2.157040 0.000000 0.000000 
#    y 0.000000 1.940370 0.000000 
#    z 0.000000 0.000000 0.427110 
# 
# From -- ./inp_files/2779.got.cif
#   From: 2010.05.17/outbox.cif.g08.bks.cpg/sg56_2_cif.got.tgz:2779.got - 2010.06.03 13:42:01.
