data_PCOD9431090
_publ_section_title
;
Structure prediction by ZEFSAII (Michael W. Deem and Ramdas Pophale) SiO2 
 PCOD9431090
Probable space group: P C C N
;
_chemical_formula_sum "Si O2"
_cell_formula_units_Z 60
_cell_length_a 11.200159
_cell_length_b 11.492634
_cell_length_c 20.071113
_cell_angle_alpha 90.000000
_cell_angle_beta 90.000000
_cell_angle_gamma 90.000000
_cell_volume 2583.540180
_symmetry_space_group_name_H-M "P C C N"
_symmetry_group_IT_number 56
_symmetry_cell_setting 'orthorhombic'
loop_
_space_group_symop_operation_xyz
x,y,z
1/2-x,1/2-y,z
1/2+x,-y,1/2-z
-x,1/2+y,1/2-z
-x,-y,-z
1/2+x,1/2+y,-z
1/2-x,y,1/2+z
x,1/2-y,1/2+z
loop_
_atom_site_type_symbol
_atom_site_label
_atom_site_fract_x
_atom_site_fract_y
_atom_site_fract_z
Si Si1 0.626697 0.700727 0.084477
Si Si2 0.039143 0.607185 0.849216
Si Si3 0.058018 0.190106 0.781997
Si Si4 0.528268 0.362485 0.501708
Si Si5 0.741469 0.605160 0.371086
Si Si6 0.641953 0.491584 0.001732
Si Si7 0.750000 0.250000 0.982897
Si Si8 0.802840 0.569568 0.229649
O O1 0.750000 0.750000 0.112896
O O2 0.524442 0.691069 0.140442
O O3 0.580461 0.782445 0.024149
O O4 0.670182 0.575602 0.061823
O O5 0.030486 0.678835 0.779884
O O6 0.899412 0.576594 0.863425
O O7 0.069635 0.660193 0.921562
O O8 0.131528 0.508727 0.825380
O O9 0.125017 0.310617 0.771261
O O10 0.161329 0.090910 0.779878
O O11 0.500000 0.500000 0.500000
O O12 0.638366 0.324406 0.454642
O O13 0.750000 0.750000 0.368878
O O14 0.797811 0.552123 0.437587
O O15 0.807749 0.542551 0.308912
O O16 0.680027 0.360089 0.013171
O O17 0.500000 0.500000 0.000000
#
# Coordination Sequence:
#
# PCOD9431090 Si02
#       8
#     8   8   8   8   8   8   4   8
#     4  12  23  43  74 106 136 193 252 298 375 451
#     4  11  23  41  70 104 137 191 236 297 378 443
#     4  10  22  41  63 100 136 177 238 298 350 438
#     4  12  26  46  74 107 151 202 247 312 380 454
#     4  11  22  46  73 103 144 193 253 303 372 465
#     4  12  27  45  70 106 145 192 243 313 382 448
#     4  12  28  48  66 112 156 180 254 320 368 460
#     4  10  20  40  68  98 139 179 237 296 359 432
#
# _framework density 23.223945000000001
#
# number of rings (size 3 to 8) (size 9 to 14) (size 15 to 20)
#    0.000    0.800    5.333    4.400    3.733    0.000 
#    0.000    0.000    0.000    0.800    0.000    0.000 
#    0.000    0.000    0.000    0.000    0.000    0.000 
#
# Total GULP energy -334020.616588 kJ/mol
# GULP energy per Si atom -5567.010276 kJ/mol
# Density = 2.317109 g / cm^3
# Si number density = 23.223945 Si / 1000 Ang^3
#
#
#
# Elastic Constant Matrix: (Units=GPa)
#
#
# Indices 1 2 3 4 5 6 
#
# 1 82.8934 26.4507 8.5552 0.0000 0.0000 0.0000
# 2 26.4507 112.3408 37.1962 0.0000 0.0000 0.0000
# 3 8.5552 37.1962 153.2516 0.0000 0.0000 0.0000
# 4 0.0000 0.0000 0.0000 26.2009 0.0000 0.0000
# 5 0.0000 0.0000 0.0000 0.0000 25.0984 0.0000
# 6 0.0000 0.0000 0.0000 0.0000 0.0000 36.6482
#
#
#
# Elastic Compliance Matrix: (Units=1/GPa)
#
#
# Indices 1 2 3 4 5 6 
#
# 1 0.013044 -0.003077 0.000019 0.000000 0.000000 0.000000
# 2 -0.003077 0.010405 -0.002354 0.000000 0.000000 0.000000
# 3 0.000019 -0.002354 0.007095 0.000000 0.000000 0.000000
# 4 0.000000 0.000000 0.000000 0.038167 0.000000 0.000000
# 5 0.000000 0.000000 0.000000 0.000000 0.039843 0.000000
# 6 0.000000 0.000000 0.000000 0.000000 0.000000 0.027286
#
#
# Mechanical properties :
#
#
# Convention : Reuss Voigt Hill
#
# Bulk Modulus (GPa) = 50.71025 54.76554 52.73790
# Shear Modulus (GPa) = 32.62884 36.00843 34.31863
#
# Velocity S-wave (km/s) = 3.75235 3.94189 3.84829
# Velocity P-wave (km/s) = 6.37623 6.65963 6.51947
#
# Compressibility (1/GPa) = 0.01971988
#
# Stress axis : x y z
#
# Youngs Moduli (GPa) = 76.66525 96.10417 140.93536
#
# Poissons Ratio (x) = 0.29575 -0.00264
# Poissons Ratio (y) = 0.23593 0.33172
# Poissons Ratio (z) = -0.00144 0.22620
#
# Static dielectric constant tensor:
#      x y z
#    x 1.866040 0.000000 0.000000 
#    y 0.000000 1.698800 0.000000 
#    z 0.000000 0.000000 1.927430 
# 
# From -- ./inp_files/18818.got.cif
#   From: 2010.05.17/outbox.cif.g08.bks.cpg/sg56_10_cif.got.tgz:18818.got - 2010.06.03 13:42:01.
