data_PCOD9431866
_publ_section_title
;
Structure prediction by ZEFSAII (Michael W. Deem and Ramdas Pophale) SiO2 
 PCOD9431866
Probable space group: P C C N
;
_chemical_formula_sum "Si O2"
_cell_formula_units_Z 48
_cell_length_a 5.712973
_cell_length_b 24.957717
_cell_length_c 14.633414
_cell_angle_alpha 90.000000
_cell_angle_beta 90.000000
_cell_angle_gamma 90.000000
_cell_volume 2086.472606
_symmetry_space_group_name_H-M "P C C N"
_symmetry_group_IT_number 56
_symmetry_cell_setting 'orthorhombic'
loop_
_space_group_symop_operation_xyz
x,y,z
1/2-x,1/2-y,z
1/2+x,-y,1/2-z
-x,1/2+y,1/2-z
-x,-y,-z
1/2+x,1/2+y,-z
1/2-x,y,1/2+z
x,1/2-y,1/2+z
loop_
_atom_site_type_symbol
_atom_site_label
_atom_site_fract_x
_atom_site_fract_y
_atom_site_fract_z
Si Si1 0.095130 0.199334 0.858434
Si Si2 0.400355 0.052845 0.455000
Si Si3 0.631848 0.155286 0.519742
Si Si4 0.546797 0.468494 0.757130
Si Si5 0.789026 0.361821 0.215519
Si Si6 0.984259 0.609925 0.117523
O O1 0.250000 0.250000 0.834979
O O2 0.265679 0.149342 0.871133
O O3 0.973574 0.203049 0.958126
O O4 0.917682 0.181575 0.779373
O O5 0.459659 0.103477 0.518614
O O6 0.541175 0.055604 0.359769
O O7 0.129447 0.055786 0.423287
O O8 0.500000 0.000000 0.500000
O O9 0.699638 0.165033 0.623381
O O10 0.847707 0.134853 0.458332
O O11 0.291896 0.497910 0.749020
O O12 0.559417 0.415463 0.693307
O O13 0.591129 0.387357 0.281325
#
# Coordination Sequence:
#
# PCOD9431866 Si02
#       6
#     8   8   8   8   8   8
#     4  10  23  46  72  99 135 183 235 310 379 440
#     4  11  23  39  61  98 141 192 240 296 368 430
#     4  10  23  41  67  99 136 183 239 303 362 454
#     4  12  25  40  65 104 147 199 255 302 363 451
#     4  11  23  43  67 102 141 189 243 299 373 439
#     4  10  21  44  66  93 146 178 240 298 366 438
#
# _framework density 23.005334000000001
#
# number of rings (size 3 to 8) (size 9 to 14) (size 15 to 20)
#    0.000    1.333    5.000    2.000    2.333    6.000 
#    0.000    5.000    0.000    0.000    0.000    0.000 
#    0.000    0.000    0.000    0.000    0.000    0.000 
#
# Total GULP energy -267819.340373 kJ/mol
# GULP energy per Si atom -5579.569591 kJ/mol
# Density = 2.295297 g / cm^3
# Si number density = 23.005334 Si / 1000 Ang^3
#
#
#
# Elastic Constant Matrix: (Units=GPa)
#
#
# Indices 1 2 3 4 5 6 
#
# 1 95.3666 26.4654 49.6730 0.0000 0.0000 0.0000
# 2 26.4654 75.4159 26.6007 0.0000 0.0000 0.0000
# 3 49.6730 26.6007 117.5385 0.0000 0.0000 0.0000
# 4 0.0000 0.0000 0.0000 18.5189 0.0000 0.0000
# 5 0.0000 0.0000 0.0000 0.0000 21.9005 0.0000
# 6 0.0000 0.0000 0.0000 0.0000 0.0000 37.0897
#
#
#
# Elastic Compliance Matrix: (Units=1/GPa)
#
#
# Indices 1 2 3 4 5 6 
#
# 1 0.014078 -0.003088 -0.005250 0.000000 0.000000 0.000000
# 2 -0.003088 0.015088 -0.002109 0.000000 0.000000 0.000000
# 3 -0.005250 -0.002109 0.011204 0.000000 0.000000 0.000000
# 4 0.000000 0.000000 0.000000 0.053999 0.000000 0.000000
# 5 0.000000 0.000000 0.000000 0.000000 0.045661 0.000000
# 6 0.000000 0.000000 0.000000 0.000000 0.000000 0.026962
#
#
# Mechanical properties :
#
#
# Convention : Reuss Voigt Hill
#
# Bulk Modulus (GPa) = 51.35284 54.86659 53.10971
# Shear Modulus (GPa) = 25.72301 27.87392 26.79847
#
# Velocity S-wave (km/s) = 3.34748 3.48462 3.41674
# Velocity P-wave (km/s) = 6.10831 6.33178 6.22105
#
# Compressibility (1/GPa) = 0.01947312
#
# Stress axis : x y z
#
# Youngs Moduli (GPa) = 71.03456 66.27967 89.25279
#
# Poissons Ratio (x) = 0.20469 0.46862
# Poissons Ratio (y) = 0.21937 0.18827
# Poissons Ratio (z) = 0.37296 0.13981
#
# Static dielectric constant tensor:
#      x y z
#    x 2.047010 0.000000 0.000000 
#    y 0.000000 1.985310 0.000000 
#    z 0.000000 0.000000 1.857510 
# 
# From -- ./inp_files/9678.got.cif
#   From: 2010.05.17/outbox.cif.g08.bks.cpg/sg56_5_cif.got.tgz:9678.got - 2010.06.03 13:42:01.
