data_PCOD9431707
_publ_section_title
;
Structure prediction by ZEFSAII (Michael W. Deem and Ramdas Pophale) SiO2 
 PCOD9431707
Probable space group: P C C N
;
_chemical_formula_sum "Si O2"
_cell_formula_units_Z 40
_cell_length_a 9.664736
_cell_length_b 9.558715
_cell_length_c 22.772872
_cell_angle_alpha 90.000000
_cell_angle_beta 90.000000
_cell_angle_gamma 90.000000
_cell_volume 2103.813868
_symmetry_space_group_name_H-M "P C C N"
_symmetry_group_IT_number 56
_symmetry_cell_setting 'orthorhombic'
loop_
_space_group_symop_operation_xyz
x,y,z
1/2-x,1/2-y,z
1/2+x,-y,1/2-z
-x,1/2+y,1/2-z
-x,-y,-z
1/2+x,1/2+y,-z
1/2-x,y,1/2+z
x,1/2-y,1/2+z
loop_
_atom_site_type_symbol
_atom_site_label
_atom_site_fract_x
_atom_site_fract_y
_atom_site_fract_z
Si Si1 0.689088 0.401656 0.376664
Si Si2 0.783533 0.909900 0.271035
Si Si3 0.063309 0.510262 0.817902
Si Si4 0.363001 0.632808 0.435999
Si Si5 0.661331 0.888561 0.985056
O O1 0.750000 0.250000 0.387178
O O2 0.762037 0.485366 0.323376
O O3 0.529764 0.396981 0.353585
O O4 0.694547 0.502640 0.432615
O O5 0.750000 0.750000 0.285847
O O6 0.949988 0.930379 0.271535
O O7 0.698275 0.952637 0.213665
O O8 0.098956 0.624950 0.867265
O O9 0.250000 0.750000 0.447417
O O10 0.315124 0.478449 0.456298
O O11 0.501585 0.654015 0.474348
O O12 0.750000 0.750000 0.982237
#
# Coordination Sequence:
#
# PCOD9431707 Si02
#       5
#     8   8   8   8   8
#     4   9  20  36  61  86 120 154 194 240 298 349
#     4  10  22  38  60  86 119 158 200 244 290 350
#     4   9  23  37  58  89 118 157 194 249 287 350
#     4  10  22  40  63  88 121 154 198 247 293 353
#     4  10  21  41  63  90 121 152 197 244 298 358
#
# _framework density 19.013088
#
# number of rings (size 3 to 8) (size 9 to 14) (size 15 to 20)
#    1.200    1.200    0.000    1.200    2.800    4.000 
#    0.000    0.000    0.000    0.000    0.000    0.000 
#    0.000    0.000    0.000    0.000    0.000    0.000 
#
# Total GULP energy -222685.889937 kJ/mol
# GULP energy per Si atom -5567.147248 kJ/mol
# Density = 1.896981 g / cm^3
# Si number density = 19.013088 Si / 1000 Ang^3
#
#
#
# Elastic Constant Matrix: (Units=GPa)
#
#
# Indices 1 2 3 4 5 6 
#
# 1 85.5534 73.7064 42.8081 0.0000 0.0000 0.0000
# 2 73.7064 121.4724 23.5790 0.0000 0.0000 0.0000
# 3 42.8081 23.5790 55.7419 0.0000 0.0000 0.0000
# 4 0.0000 0.0000 0.0000 41.2112 0.0000 0.0000
# 5 0.0000 0.0000 0.0000 0.0000 16.8068 0.0000
# 6 0.0000 0.0000 0.0000 0.0000 0.0000 30.3717
#
#
#
# Elastic Compliance Matrix: (Units=1/GPa)
#
#
# Indices 1 2 3 4 5 6 
#
# 1 0.040074 -0.019983 -0.022323 0.000000 0.000000 0.000000
# 2 -0.019983 0.018933 0.007337 0.000000 0.000000 0.000000
# 3 -0.022323 0.007337 0.031979 0.000000 0.000000 0.000000
# 4 0.000000 0.000000 0.000000 0.024265 0.000000 0.000000
# 5 0.000000 0.000000 0.000000 0.000000 0.059500 0.000000
# 6 0.000000 0.000000 0.000000 0.000000 0.000000 0.032925
#
#
# Mechanical properties :
#
#
# Convention : Reuss Voigt Hill
#
# Bulk Modulus (GPa) = 47.50589 60.32830 53.91710
# Shear Modulus (GPa) = 17.56673 25.85622 21.71147
#
# Velocity S-wave (km/s) = 3.04292 3.69171 3.38290
# Velocity P-wave (km/s) = 6.11440 7.06897 6.60894
#
# Compressibility (1/GPa) = 0.02105002
#
# Stress axis : x y z
#
# Youngs Moduli (GPa) = 24.95406 52.81776 31.27029
#
# Poissons Ratio (x) = 1.05544 0.69804
# Poissons Ratio (y) = 0.49865 -0.22944
# Poissons Ratio (z) = 0.55704 -0.38754
#
# Static dielectric constant tensor:
#      x y z
#    x 1.677940 0.000000 0.000000 
#    y 0.000000 1.632790 0.000000 
#    z 0.000000 0.000000 1.691260 
# 
# From -- ./inp_files/20323.got.cif
#   From: 2010.05.17/outbox.cif.g08.bks.cpg/sg56_11_cif.got.tgz:20323.got - 2010.06.03 13:42:01.
