data_PCOD9431177
_publ_section_title
;
Structure prediction by ZEFSAII (Michael W. Deem and Ramdas Pophale) SiO2 
 PCOD9431177
Probable space group: P C C N
;
_chemical_formula_sum "Si O2"
_cell_formula_units_Z 24
_cell_length_a 8.139481
_cell_length_b 12.758613
_cell_length_c 9.519944
_cell_angle_alpha 90.000000
_cell_angle_beta 90.000000
_cell_angle_gamma 90.000000
_cell_volume 988.631791
_symmetry_space_group_name_H-M "P C C N"
_symmetry_group_IT_number 56
_symmetry_cell_setting 'orthorhombic'
loop_
_space_group_symop_operation_xyz
x,y,z
1/2-x,1/2-y,z
1/2+x,-y,1/2-z
-x,1/2+y,1/2-z
-x,-y,-z
1/2+x,1/2+y,-z
1/2-x,y,1/2+z
x,1/2-y,1/2+z
loop_
_atom_site_type_symbol
_atom_site_label
_atom_site_fract_x
_atom_site_fract_y
_atom_site_fract_z
Si Si1 0.001810 0.741129 0.640916
Si Si2 0.724587 0.910640 0.197798
Si Si3 0.415210 0.613174 0.872220
O O1 0.880870 0.836731 0.591989
O O2 0.884594 0.660677 0.726766
O O3 0.112893 0.805670 0.746883
O O4 0.078567 0.675605 0.516387
O O5 0.600652 0.925811 0.329246
O O6 0.787835 0.019144 0.136614
#
# Coordination Sequence:
#
# PCOD9431177 Si02
#       3
#     8   8   8
#     4   9  21  37  70  89 138 172 226 274 341 395
#     4   9  21  36  73  91 135 176 225 268 350 399
#     4  10  20  42  67  96 130 186 218 279 342 400
#
# _framework density 24.275974999999999
#
# number of rings (size 3 to 8) (size 9 to 14) (size 15 to 20)
#    2.000    0.667    0.000    1.000    9.333    0.000 
#    0.000    8.333    7.333    0.000    0.000    0.000 
#    0.000    0.000    0.000    0.000    0.000    0.000 
#
# Total GULP energy -133823.287063 kJ/mol
# GULP energy per Si atom -5575.970294 kJ/mol
# Density = 2.422072 g / cm^3
# Si number density = 24.275975 Si / 1000 Ang^3
#
#
#
# Elastic Constant Matrix: (Units=GPa)
#
#
# Indices 1 2 3 4 5 6 
#
# 1 78.3442 42.9873 14.3794 0.0000 0.0000 0.0000
# 2 42.9873 395.5317 139.4286 0.0000 0.0000 0.0000
# 3 14.3794 139.4286 124.7820 0.0000 0.0000 0.0000
# 4 0.0000 0.0000 0.0000 45.8709 0.0000 0.0000
# 5 0.0000 0.0000 0.0000 0.0000 -29.0731 0.0000
# 6 0.0000 0.0000 0.0000 0.0000 0.0000 67.8840
#
#
#
# Elastic Compliance Matrix: (Units=1/GPa)
#
#
# Indices 1 2 3 4 5 6 
#
# 1 0.013575 -0.001524 0.000139 0.000000 0.000000 0.000000
# 2 -0.001524 0.004342 -0.004676 0.000000 0.000000 0.000000
# 3 0.000139 -0.004676 0.013223 0.000000 0.000000 0.000000
# 4 0.000000 0.000000 0.000000 0.021800 0.000000 0.000000
# 5 0.000000 0.000000 0.000000 0.000000 -0.034396 0.000000
# 6 0.000000 0.000000 0.000000 0.000000 0.000000 0.014731
#
#
# Mechanical properties :
#
#
# Convention : Reuss Voigt Hill
#
# Bulk Modulus (GPa) = 52.58426 110.24982 81.41704
# Shear Modulus (GPa) = 96.63927 43.72722 70.18324
#
# Velocity S-wave (km/s) = 6.31625 4.24872 5.38269
# Velocity P-wave (km/s) = 8.65456 8.34162 8.49953
#
# Compressibility (1/GPa) = 0.01901710
#
# Stress axis : x y z
#
# Youngs Moduli (GPa) = 73.66428 230.28736 75.62396
#
# Poissons Ratio (x) = 0.35104 -0.01051
# Poissons Ratio (y) = 0.11229 0.35365
# Poissons Ratio (z) = -0.01023 1.07693
#
# Static dielectric constant tensor:
#      x y z
#    x 2.086900 0.000000 0.000000 
#    y 0.000000 1.931930 0.000000 
#    z 0.000000 0.000000 1.911440 
# 
# From -- ./inp_files/2358.got.cif
#   From: 2010.05.17/outbox.cif.g08.bks.cpg/sg56_2_cif.got.tgz:2358.got - 2010.06.03 13:42:01.
