data_PCOD9431358
_publ_section_title
;
Structure prediction by ZEFSAII (Michael W. Deem and Ramdas Pophale) SiO2 
 PCOD9431358
Probable space group: P C C N
;
_chemical_formula_sum "Si O2"
_cell_formula_units_Z 64
_cell_length_a 18.065384
_cell_length_b 7.687077
_cell_length_c 19.822333
_cell_angle_alpha 90.000000
_cell_angle_beta 90.000000
_cell_angle_gamma 90.000000
_cell_volume 2752.727341
_symmetry_space_group_name_H-M "P C C N"
_symmetry_group_IT_number 56
_symmetry_cell_setting 'orthorhombic'
loop_
_space_group_symop_operation_xyz
x,y,z
1/2-x,1/2-y,z
1/2+x,-y,1/2-z
-x,1/2+y,1/2-z
-x,-y,-z
1/2+x,1/2+y,-z
1/2-x,y,1/2+z
x,1/2-y,1/2+z
loop_
_atom_site_type_symbol
_atom_site_label
_atom_site_fract_x
_atom_site_fract_y
_atom_site_fract_z
Si Si1 0.549100 0.900100 0.103613
Si Si2 0.296359 0.531804 0.364055
Si Si3 0.786841 0.565965 0.774489
Si Si4 0.653613 0.412080 0.079934
Si Si5 0.556278 0.197489 0.999803
Si Si6 0.570246 0.026748 0.707239
Si Si7 0.177496 0.671549 0.098897
Si Si8 0.438174 0.803229 0.694545
O O1 0.494121 0.842753 0.163140
O O2 0.633244 0.906346 0.128232
O O3 0.537921 0.088607 0.067064
O O4 0.518002 0.779313 0.042785
O O5 0.258049 0.519060 0.289624
O O6 0.230846 0.487690 0.417385
O O7 0.323892 0.723348 0.387234
O O8 0.750000 0.750000 0.786494
O O9 0.872880 0.584087 0.752271
O O10 0.791548 0.454278 0.842658
O O11 0.604626 0.367151 0.015725
O O12 0.598595 0.498128 0.132383
O O13 0.617290 0.095029 0.953289
O O14 0.485552 0.972676 0.706458
O O15 0.584015 0.220921 0.734392
O O16 0.250000 0.750000 0.063530
O O17 0.129304 0.810024 0.142884
#
# Coordination Sequence:
#
# PCOD9431358 Si02
#       8
#     8   8   8   8   8   8   8   8
#     4   9  18  34  57  83 115 157 206 240 306 356
#     4   9  18  31  61  86 114 153 206 253 304 367
#     4  10  21  37  59  89 123 158 195 261 316 372
#     4   9  19  34  58  90 115 157 211 253 301 362
#     4   9  19  36  59  83 117 161 207 252 290 381
#     4  10  22  36  59  92 126 152 207 246 319 379
#     4  10  23  37  61  83 119 158 210 245 312 376
#     4  10  22  37  56  91 118 160 190 261 312 374
#
# _framework density 23.249668
#
# number of rings (size 3 to 8) (size 9 to 14) (size 15 to 20)
#    0.000    2.500    0.000    0.750   12.250    1.000 
#    0.000    2.500    2.750    3.000    0.000    0.000 
#    0.000    0.000    0.000    0.000    0.000    0.000 
#
# Total GULP energy -356640.483190 kJ/mol
# GULP energy per Si atom -5572.507550 kJ/mol
# Density = 2.319675 g / cm^3
# Si number density = 23.249668 Si / 1000 Ang^3
#
#
#
# Elastic Constant Matrix: (Units=GPa)
#
#
# Indices 1 2 3 4 5 6 
#
# 1 96.5439 4.1475 8.3951 0.0000 0.0000 0.0000
# 2 4.1475 16.8421 0.2301 0.0000 0.0000 0.0000
# 3 8.3951 0.2301 50.5610 0.0000 0.0000 0.0000
# 4 0.0000 0.0000 0.0000 16.0514 0.0000 0.0000
# 5 0.0000 0.0000 0.0000 0.0000 27.3450 0.0000
# 6 0.0000 0.0000 0.0000 0.0000 0.0000 37.2488
#
#
#
# Elastic Compliance Matrix: (Units=1/GPa)
#
#
# Indices 1 2 3 4 5 6 
#
# 1 0.010622 -0.002592 -0.001752 0.000000 0.000000 0.000000
# 2 -0.002592 0.060011 0.000157 0.000000 0.000000 0.000000
# 3 -0.001752 0.000157 0.020068 0.000000 0.000000 0.000000
# 4 0.000000 0.000000 0.000000 0.062300 0.000000 0.000000
# 5 0.000000 0.000000 0.000000 0.000000 0.036570 0.000000
# 6 0.000000 0.000000 0.000000 0.000000 0.000000 0.026846
#
#
# Mechanical properties :
#
#
# Convention : Reuss Voigt Hill
#
# Bulk Modulus (GPa) = 12.14646 21.05470 16.60058
# Shear Modulus (GPa) = 19.82297 26.20734 23.01515
#
# Velocity S-wave (km/s) = 2.92312 3.36104 3.14970
# Velocity P-wave (km/s) = 4.07781 4.91301 4.51477
#
# Compressibility (1/GPa) = 0.08232851
#
# Stress axis : x y z
#
# Youngs Moduli (GPa) = 94.14726 16.66353 49.82993
#
# Poissons Ratio (x) = 0.04319 0.08729
# Poissons Ratio (y) = 0.24401 -0.00783
# Poissons Ratio (z) = 0.16493 -0.00262
#
# Static dielectric constant tensor:
#      x y z
#    x 1.916150 0.000000 0.000000 
#    y 0.000000 1.939800 0.000000 
#    z 0.000000 0.000000 1.934610 
# 
# From -- ./inp_files/19330.got.cif
#   From: 2010.05.17/outbox.cif.g08.bks.cpg/sg56_10_cif.got.tgz:19330.got - 2010.06.03 13:42:01.
