data_PCOD9432998
_publ_section_title
;
Structure prediction by ZEFSAII (Michael W. Deem and Ramdas Pophale) SiO2 
 PCOD9432998
Probable space group: P C C N
;
_chemical_formula_sum "Si O2"
_cell_formula_units_Z 28
_cell_length_a 9.805332
_cell_length_b 8.965707
_cell_length_c 14.214319
_cell_angle_alpha 90.000000
_cell_angle_beta 90.000000
_cell_angle_gamma 90.000000
_cell_volume 1249.605427
_symmetry_space_group_name_H-M "P C C N"
_symmetry_group_IT_number 56
_symmetry_cell_setting 'orthorhombic'
loop_
_space_group_symop_operation_xyz
x,y,z
1/2-x,1/2-y,z
1/2+x,-y,1/2-z
-x,1/2+y,1/2-z
-x,-y,-z
1/2+x,1/2+y,-z
1/2-x,y,1/2+z
x,1/2-y,1/2+z
loop_
_atom_site_type_symbol
_atom_site_label
_atom_site_fract_x
_atom_site_fract_y
_atom_site_fract_z
Si Si1 0.250000 0.750000 0.667096
Si Si2 0.904939 0.013064 0.727052
Si Si3 0.409871 0.231262 0.635450
Si Si4 0.478676 0.154034 0.942543
O O1 0.280621 0.890858 0.733401
O O2 0.118688 0.787718 0.603768
O O3 0.009257 0.133715 0.684653
O O4 0.958972 0.919964 0.815663
O O5 0.881693 0.893158 0.643971
O O6 0.250000 0.250000 0.654595
O O7 0.429639 0.234478 0.523269
O O8 0.500000 0.000000 0.000000
#
# Coordination Sequence:
#
# PCOD9432998 Si02
#       4
#     4   8   8   8
#     4  12  24  48  76 104 152 188 248 302 366 446
#     4  11  23  47  74 106 146 198 241 302 367 439
#     4  11  25  46  71 109 152 187 249 303 364 447
#     4  10  24  46  68 110 143 188 243 296 371 434
#
# _framework density 22.407071999999999
#
# number of rings (size 3 to 8) (size 9 to 14) (size 15 to 20)
#    0.000    1.143    2.857    3.429    0.000    6.857 
#    5.143    0.000    0.000    0.000    0.000    0.000 
#    0.000    0.000    0.000    0.000    0.000    0.000 
#
# Total GULP energy -156460.864821 kJ/mol
# GULP energy per Si atom -5587.888029 kJ/mol
# Density = 2.235607 g / cm^3
# Si number density = 22.407072 Si / 1000 Ang^3
#
#
#
# Elastic Constant Matrix: (Units=GPa)
#
#
# Indices 1 2 3 4 5 6 
#
# 1 79.8497 23.9657 39.2289 0.0000 0.0000 0.0000
# 2 23.9657 91.8477 67.4040 0.0000 0.0000 0.0000
# 3 39.2289 67.4040 161.2640 0.0000 0.0000 0.0000
# 4 0.0000 0.0000 0.0000 38.0890 0.0000 0.0000
# 5 0.0000 0.0000 0.0000 0.0000 46.1673 0.0000
# 6 0.0000 0.0000 0.0000 0.0000 0.0000 40.3265
#
#
#
# Elastic Compliance Matrix: (Units=1/GPa)
#
#
# Indices 1 2 3 4 5 6 
#
# 1 0.014408 -0.001713 -0.002789 0.000000 0.000000 0.000000
# 2 -0.001713 0.015908 -0.006233 0.000000 0.000000 0.000000
# 3 -0.002789 -0.006233 0.009485 0.000000 0.000000 0.000000
# 4 0.000000 0.000000 0.000000 0.026254 0.000000 0.000000
# 5 0.000000 0.000000 0.000000 0.000000 0.021660 0.000000
# 6 0.000000 0.000000 0.000000 0.000000 0.000000 0.024798
#
#
# Mechanical properties :
#
#
# Convention : Reuss Voigt Hill
#
# Bulk Modulus (GPa) = 54.54910 66.01760 60.28335
# Shear Modulus (GPa) = 35.69078 38.40742 37.04910
#
# Velocity S-wave (km/s) = 3.99536 4.14463 4.07068
# Velocity P-wave (km/s) = 6.75880 7.24091 7.00400
#
# Compressibility (1/GPa) = 0.01833211
#
# Stress axis : x y z
#
# Youngs Moduli (GPa) = 69.40716 62.85980 105.43473
#
# Poissons Ratio (x) = 0.10766 0.29405
# Poissons Ratio (y) = 0.11887 0.65714
# Poissons Ratio (z) = 0.19357 0.39178
#
# Static dielectric constant tensor:
#      x y z
#    x 1.815830 0.000000 0.000000 
#    y 0.000000 1.874020 0.000000 
#    z 0.000000 0.000000 1.843890 
# 
# From -- ./inp_files/9977.got.cif
#   From: 2010.05.17/outbox.cif.g08.bks.cpg/sg56_5_cif.got.tgz:9977.got - 2010.06.03 13:42:01.
