data_PCOD9432530
_publ_section_title
;
Structure prediction by ZEFSAII (Michael W. Deem and Ramdas Pophale) SiO2 
 PCOD9432530
Probable space group: P C C N
;
_chemical_formula_sum "Si O2"
_cell_formula_units_Z 48
_cell_length_a 6.392438
_cell_length_b 15.110479
_cell_length_c 25.166652
_cell_angle_alpha 90.000000
_cell_angle_beta 90.000000
_cell_angle_gamma 90.000000
_cell_volume 2430.917387
_symmetry_space_group_name_H-M "P C C N"
_symmetry_group_IT_number 56
_symmetry_cell_setting 'orthorhombic'
loop_
_space_group_symop_operation_xyz
x,y,z
1/2-x,1/2-y,z
1/2+x,-y,1/2-z
-x,1/2+y,1/2-z
-x,-y,-z
1/2+x,1/2+y,-z
1/2-x,y,1/2+z
x,1/2-y,1/2+z
loop_
_atom_site_type_symbol
_atom_site_label
_atom_site_fract_x
_atom_site_fract_y
_atom_site_fract_z
Si Si1 0.250000 0.750000 0.530176
Si Si2 0.736634 0.958445 0.179905
Si Si3 0.930015 0.612707 0.783243
Si Si4 0.750000 0.250000 0.675416
Si Si5 0.627642 0.841703 0.081265
Si Si6 0.551669 0.898672 0.364722
Si Si7 0.367428 0.158073 0.523570
O O1 0.395508 0.687031 0.565461
O O2 0.404865 0.810242 0.495517
O O3 0.822638 0.895608 0.226202
O O4 0.641177 0.906002 0.130617
O O5 0.565653 0.024398 0.205264
O O6 0.928379 0.016820 0.157404
O O7 0.751093 0.619790 0.827822
O O8 0.090140 0.693280 0.789361
O O9 0.611946 0.182539 0.640799
O O10 0.750000 0.750000 0.093383
O O11 0.742249 0.877411 0.027818
O O12 0.620382 0.904500 0.425818
O O13 0.250000 0.250000 0.539252
#
# Coordination Sequence:
#
# PCOD9432530 Si02
#       7
#     4   8   8   4   8   8   8
#     4   8  17  38  61  86 124 156 200 254 310 364
#     4  11  24  42  60  88 127 164 209 255 312 363
#     4  11  23  43  61  89 125 163 207 261 304 359
#     4  10  23  38  67  92 112 166 210 254 314 364
#     4   9  21  39  61  92 121 163 206 249 306 374
#     4  11  22  40  64  92 124 160 205 257 313 365
#     4   9  18  35  61  91 123 156 201 253 301 372
#
# _framework density 19.745633000000002
#
# number of rings (size 3 to 8) (size 9 to 14) (size 15 to 20)
#    0.000    2.333    1.667    2.000    0.000    8.667 
#    0.000    3.333    0.000    0.000    0.000    0.000 
#    0.000    0.000    0.000    0.000    0.000    0.000 
#
# Total GULP energy -268158.618858 kJ/mol
# GULP energy per Si atom -5586.637893 kJ/mol
# Density = 1.970069 g / cm^3
# Si number density = 19.745633 Si / 1000 Ang^3
#
#
#
# Elastic Constant Matrix: (Units=GPa)
#
#
# Indices 1 2 3 4 5 6 
#
# 1 125.3153 20.7765 49.9633 0.0000 0.0000 0.0000
# 2 20.7765 33.1262 31.5270 0.0000 0.0000 0.0000
# 3 49.9633 31.5270 144.6131 0.0000 0.0000 0.0000
# 4 0.0000 0.0000 0.0000 29.6493 0.0000 0.0000
# 5 0.0000 0.0000 0.0000 0.0000 2.4201 0.0000
# 6 0.0000 0.0000 0.0000 0.0000 0.0000 14.9653
#
#
#
# Elastic Compliance Matrix: (Units=1/GPa)
#
#
# Indices 1 2 3 4 5 6 
#
# 1 0.009585 -0.003609 -0.002525 0.000000 0.000000 0.000000
# 2 -0.003609 0.039449 -0.007354 0.000000 0.000000 0.000000
# 3 -0.002525 -0.007354 0.009390 0.000000 0.000000 0.000000
# 4 0.000000 0.000000 0.000000 0.033728 0.000000 0.000000
# 5 0.000000 0.000000 0.000000 0.000000 0.413209 0.000000
# 6 0.000000 0.000000 0.000000 0.000000 0.000000 0.066821
#
#
# Mechanical properties :
#
#
# Convention : Reuss Voigt Hill
#
# Bulk Modulus (GPa) = 31.79575 56.39868 44.09722
# Shear Modulus (GPa) = 8.20156 22.79279 15.49717
#
# Velocity S-wave (km/s) = 2.04025 3.40122 2.80454
# Velocity P-wave (km/s) = 4.65702 6.63694 5.73310
#
# Compressibility (1/GPa) = 0.03145074
#
# Stress axis : x y z
#
# Youngs Moduli (GPa) = 104.33190 25.34889 106.49111
#
# Poissons Ratio (x) = 0.09147 0.26887
# Poissons Ratio (y) = 0.37649 0.78309
# Poissons Ratio (z) = 0.26342 0.18640
#
# Static dielectric constant tensor:
#      x y z
#    x 1.680240 0.000000 0.000000 
#    y 0.000000 1.693060 0.000000 
#    z 0.000000 0.000000 1.669750 
# 
# From -- ./inp_files/20087.got.cif
#   From: 2010.05.17/outbox.cif.g08.bks.cpg/sg56_11_cif.got.tgz:20087.got - 2010.06.03 13:42:01.
