data_PCOD9432779
_publ_section_title
;
Structure prediction by ZEFSAII (Michael W. Deem and Ramdas Pophale) SiO2 
 PCOD9432779
Probable space group: P C C N
;
_chemical_formula_sum "Si O2"
_cell_formula_units_Z 40
_cell_length_a 23.004460
_cell_length_b 8.834932
_cell_length_c 7.942956
_cell_angle_alpha 90.000000
_cell_angle_beta 90.000000
_cell_angle_gamma 90.000000
_cell_volume 1614.348934
_symmetry_space_group_name_H-M "P C C N"
_symmetry_group_IT_number 56
_symmetry_cell_setting 'orthorhombic'
loop_
_space_group_symop_operation_xyz
x,y,z
1/2-x,1/2-y,z
1/2+x,-y,1/2-z
-x,1/2+y,1/2-z
-x,-y,-z
1/2+x,1/2+y,-z
1/2-x,y,1/2+z
x,1/2-y,1/2+z
loop_
_atom_site_type_symbol
_atom_site_label
_atom_site_fract_x
_atom_site_fract_y
_atom_site_fract_z
Si Si1 0.205234 0.891913 0.104223
Si Si2 0.911624 0.717383 0.111664
Si Si3 0.384912 0.932752 0.305449
Si Si4 0.184792 0.499513 0.980063
Si Si5 0.507935 0.860034 0.377208
O O1 0.250000 0.750000 0.090487
O O2 0.154180 0.890079 0.966879
O O3 0.249724 0.023995 0.044384
O O4 0.186996 0.919126 0.297150
O O5 0.852098 0.652074 0.045022
O O6 0.938177 0.610042 0.254163
O O7 0.900760 0.888946 0.172104
O O8 0.965476 0.722207 0.981911
O O9 0.444813 0.838633 0.298141
O O10 0.349927 0.917525 0.131775
O O11 0.500000 0.000000 0.500000
#
# Coordination Sequence:
#
# PCOD9432779 Si02
#       5
#     8   8   8   8   8
#     4  12  28  51  74 114 156 206 267 324 402 473
#     4  11  23  50  77 114 156 197 266 325 398 474
#     4  11  26  50  76 115 157 206 256 332 390 470
#     4  12  25  47  80 109 152 206 263 321 397 462
#     4  10  23  46  74 112 155 199 256 320 399 464
#
# _framework density 24.77779
#
# number of rings (size 3 to 8) (size 9 to 14) (size 15 to 20)
#    0.000    0.800    4.000    3.000    0.000    4.000 
#   10.800    0.000    0.000    0.000    0.000    0.000 
#    0.000    0.000    0.000    0.000    0.000    0.000 
#
# Total GULP energy -223639.100701 kJ/mol
# GULP energy per Si atom -5590.977518 kJ/mol
# Density = 2.472139 g / cm^3
# Si number density = 24.777790 Si / 1000 Ang^3
#
#
#
# Elastic Constant Matrix: (Units=GPa)
#
#
# Indices 1 2 3 4 5 6 
#
# 1 150.6690 41.2618 61.0615 0.0000 0.0000 0.0000
# 2 41.2618 64.7153 32.2105 0.0000 0.0000 0.0000
# 3 61.0615 32.2105 168.2239 0.0000 0.0000 0.0000
# 4 0.0000 0.0000 0.0000 25.4125 0.0000 0.0000
# 5 0.0000 0.0000 0.0000 0.0000 59.1633 0.0000
# 6 0.0000 0.0000 0.0000 0.0000 0.0000 51.2399
#
#
#
# Elastic Compliance Matrix: (Units=1/GPa)
#
#
# Indices 1 2 3 4 5 6 
#
# 1 0.008805 -0.004447 -0.002345 0.000000 0.000000 0.000000
# 2 -0.004447 0.019326 -0.002086 0.000000 0.000000 0.000000
# 3 -0.002345 -0.002086 0.007195 0.000000 0.000000 0.000000
# 4 0.000000 0.000000 0.000000 0.039351 0.000000 0.000000
# 5 0.000000 0.000000 0.000000 0.000000 0.016902 0.000000
# 6 0.000000 0.000000 0.000000 0.000000 0.000000 0.019516
#
#
# Mechanical properties :
#
#
# Convention : Reuss Voigt Hill
#
# Bulk Modulus (GPa) = 56.91408 72.51953 64.71680
# Shear Modulus (GPa) = 37.11738 43.76811 40.44274
#
# Velocity S-wave (km/s) = 3.87461 4.20745 4.04445
# Velocity P-wave (km/s) = 6.56022 7.27564 6.92717
#
# Compressibility (1/GPa) = 0.01757035
#
# Stress axis : x y z
#
# Youngs Moduli (GPa) = 113.57044 51.74355 138.98657
#
# Poissons Ratio (x) = 0.23011 0.32586
# Poissons Ratio (y) = 0.50506 0.28996
# Poissons Ratio (z) = 0.26627 0.10795
#
# Static dielectric constant tensor:
#      x y z
#    x 2.033290 0.000000 0.000000 
#    y 0.000000 2.088910 0.000000 
#    z 0.000000 0.000000 2.142490 
# 
# From -- ./inp_files/4688.got.cif
#   From: 2010.05.17/outbox.cif.g08.bks.cpg/sg56_3_cif.got.tgz:4688.got - 2010.06.03 13:42:01.
