data_PCOD9432274
_publ_section_title
;
Structure prediction by ZEFSAII (Michael W. Deem and Ramdas Pophale) SiO2 
 PCOD9432274
Probable space group: P C C N
;
_chemical_formula_sum "Si O2"
_cell_formula_units_Z 64
_cell_length_a 14.332614
_cell_length_b 8.351727
_cell_length_c 20.543013
_cell_angle_alpha 90.000000
_cell_angle_beta 90.000000
_cell_angle_gamma 90.000000
_cell_volume 2459.041372
_symmetry_space_group_name_H-M "P C C N"
_symmetry_group_IT_number 56
_symmetry_cell_setting 'orthorhombic'
loop_
_space_group_symop_operation_xyz
x,y,z
1/2-x,1/2-y,z
1/2+x,-y,1/2-z
-x,1/2+y,1/2-z
-x,-y,-z
1/2+x,1/2+y,-z
1/2-x,y,1/2+z
x,1/2-y,1/2+z
loop_
_atom_site_type_symbol
_atom_site_label
_atom_site_fract_x
_atom_site_fract_y
_atom_site_fract_z
Si Si1 0.293034 0.574164 0.292694
Si Si2 0.616368 0.566372 0.248346
Si Si3 0.337795 0.148927 0.068363
Si Si4 0.857336 0.297989 0.929765
Si Si5 0.183065 0.396936 0.921594
Si Si6 0.038624 0.757467 0.294428
Si Si7 0.032473 0.335645 0.389701
Si Si8 0.035744 0.822334 0.941842
O O1 0.250000 0.750000 0.284604
O O2 0.226708 0.455717 0.253219
O O3 0.291111 0.527053 0.368656
O O4 0.399946 0.590364 0.272610
O O5 0.569016 0.694718 0.294727
O O6 0.568636 0.391196 0.249672
O O7 0.582314 0.627541 0.177554
O O8 0.250000 0.250000 0.094366
O O9 0.428490 0.259566 0.056289
O O10 0.365257 0.978171 0.098599
O O11 0.302684 0.078456 0.997758
O O12 0.750000 0.250000 0.930340
O O13 0.922007 0.185357 0.885039
O O14 0.905013 0.263090 0.001126
O O15 0.250000 0.250000 0.904599
O O16 0.078103 0.330768 0.913122
O O17 0.067220 0.723554 0.368746
O O18 0.048383 0.484599 0.438854
#
# Coordination Sequence:
#
# PCOD9432274 Si02
#       8
#     8   8   8   8   8   8   8   8
#     4  10  22  42  67 101 133 170 226 278 334 399
#     4  10  23  44  65 101 131 172 217 278 336 396
#     4  11  25  41  62  96 136 175 227 273 335 403
#     4  12  26  41  67  99 136 186 226 275 342 406
#     4  11  22  36  67 102 130 169 218 278 329 395
#     4  10  24  41  70  95 132 173 222 274 335 398
#     4  11  24  42  67  99 137 176 223 278 342 396
#     4  11  24  44  67  98 138 177 224 283 339 403
#
# _framework density 26.026401
#
# number of rings (size 3 to 8) (size 9 to 14) (size 15 to 20)
#    0.000    1.250    2.500    2.250    7.000    3.000 
#    0.000    5.625    0.000    0.000    0.000    0.000 
#    0.000    0.000    0.000    0.000    0.000    0.000 
#
# Total GULP energy -358030.241192 kJ/mol
# GULP energy per Si atom -5594.222519 kJ/mol
# Density = 2.596716 g / cm^3
# Si number density = 26.026401 Si / 1000 Ang^3
#
#
#
# Elastic Constant Matrix: (Units=GPa)
#
#
# Indices 1 2 3 4 5 6 
#
# 1 140.6592 21.7201 -10.1750 0.0000 0.0000 0.0000
# 2 21.7201 75.9892 1.0391 0.0000 0.0000 0.0000
# 3 -10.1750 1.0391 56.4581 0.0000 0.0000 0.0000
# 4 0.0000 0.0000 0.0000 29.0674 0.0000 0.0000
# 5 0.0000 0.0000 0.0000 0.0000 25.6843 0.0000
# 6 0.0000 0.0000 0.0000 0.0000 0.0000 46.9760
#
#
#
# Elastic Compliance Matrix: (Units=1/GPa)
#
#
# Indices 1 2 3 4 5 6 
#
# 1 0.007547 -0.002176 0.001400 0.000000 0.000000 0.000000
# 2 -0.002176 0.013791 -0.000646 0.000000 0.000000 0.000000
# 3 0.001400 -0.000646 0.017976 0.000000 0.000000 0.000000
# 4 0.000000 0.000000 0.000000 0.034403 0.000000 0.000000
# 5 0.000000 0.000000 0.000000 0.000000 0.038934 0.000000
# 6 0.000000 0.000000 0.000000 0.000000 0.000000 0.021287
#
#
# Mechanical properties :
#
#
# Convention : Reuss Voigt Hill
#
# Bulk Modulus (GPa) = 27.42009 33.14166 30.28087
# Shear Modulus (GPa) = 33.57077 37.71370 35.64224
#
# Velocity S-wave (km/s) = 3.59538 3.81078 3.70464
# Velocity P-wave (km/s) = 5.27200 5.66782 5.47349
#
# Compressibility (1/GPa) = 0.03646961
#
# Stress axis : x y z
#
# Youngs Moduli (GPa) = 132.50807 72.51293 55.62823
#
# Poissons Ratio (x) = 0.15781 -0.07789
# Poissons Ratio (y) = 0.28837 0.03594
# Poissons Ratio (z) = -0.18553 0.04684
#
# Static dielectric constant tensor:
#      x y z
#    x 2.062980 0.000000 0.000000 
#    y 0.000000 2.077900 0.000000 
#    z 0.000000 0.000000 2.159120 
# 
# From -- ./inp_files/21161.got.cif
#   From: 2010.05.17/outbox.cif.g08.bks.cpg/sg56_11_cif.got.tgz:21161.got - 2010.06.03 13:42:01.
