data_PCOD9432481
_publ_section_title
;
Structure prediction by ZEFSAII (Michael W. Deem and Ramdas Pophale) SiO2 
 PCOD9432481
Probable space group: P C C N
;
_chemical_formula_sum "Si O2"
_cell_formula_units_Z 48
_cell_length_a 16.998950
_cell_length_b 8.653324
_cell_length_c 14.713956
_cell_angle_alpha 90.000000
_cell_angle_beta 90.000000
_cell_angle_gamma 90.000000
_cell_volume 2164.384995
_symmetry_space_group_name_H-M "P C C N"
_symmetry_group_IT_number 56
_symmetry_cell_setting 'orthorhombic'
loop_
_space_group_symop_operation_xyz
x,y,z
1/2-x,1/2-y,z
1/2+x,-y,1/2-z
-x,1/2+y,1/2-z
-x,-y,-z
1/2+x,1/2+y,-z
1/2-x,y,1/2+z
x,1/2-y,1/2+z
loop_
_atom_site_type_symbol
_atom_site_label
_atom_site_fract_x
_atom_site_fract_y
_atom_site_fract_z
Si Si1 0.179550 0.872159 0.945913
Si Si2 0.731790 0.920087 0.720554
Si Si3 0.996187 0.322911 0.534781
Si Si4 0.985480 0.316740 0.845882
Si Si5 0.076431 0.153372 0.690449
Si Si6 0.677496 0.129957 0.345516
O O1 0.250000 0.750000 0.943241
O O2 0.093091 0.800994 0.929909
O O3 0.196658 0.987264 0.863950
O O4 0.177912 0.932319 0.050443
O O5 0.750000 0.750000 0.687332
O O6 0.666005 0.899491 0.798795
O O7 0.805255 0.004420 0.768157
O O8 0.008546 0.211492 0.449661
O O9 0.000000 0.500000 0.500000
O O10 0.056908 0.275211 0.611876
O O11 0.972449 0.495950 0.824893
O O12 0.903093 0.224111 0.832362
O O13 0.048590 0.234654 0.782449
O O14 0.750000 0.250000 0.337738
#
# Coordination Sequence:
#
# PCOD9432481 Si02
#       6
#     8   8   8   8   8   8
#     4  10  24  45  71  98 134 190 232 279 358 424
#     4  12  27  42  66 104 140 177 231 292 342 417
#     4  11  25  46  71 101 142 183 232 300 351 423
#     4  11  24  44  70  98 138 181 234 284 355 423
#     4  12  26  44  70 105 135 188 232 289 357 421
#     4  10  22  46  70  94 134 185 229 284 347 423
#
# _framework density 22.177199999999999
#
# number of rings (size 3 to 8) (size 9 to 14) (size 15 to 20)
#    0.000    1.000    1.667    4.000    9.333    0.667 
#    3.000    0.000    0.000    0.000    0.000    0.000 
#    0.000    0.000    0.000    0.000    0.000    0.000 
#
# Total GULP energy -268701.492853 kJ/mol
# GULP energy per Si atom -5597.947768 kJ/mol
# Density = 2.212672 g / cm^3
# Si number density = 22.177200 Si / 1000 Ang^3
#
#
#
# Elastic Constant Matrix: (Units=GPa)
#
#
# Indices 1 2 3 4 5 6 
#
# 1 68.0230 9.6935 18.4722 0.0000 0.0000 0.0000
# 2 9.6935 87.8461 51.7040 0.0000 0.0000 0.0000
# 3 18.4722 51.7040 97.9528 0.0000 0.0000 0.0000
# 4 0.0000 0.0000 0.0000 23.2520 0.0000 0.0000
# 5 0.0000 0.0000 0.0000 0.0000 26.0750 0.0000
# 6 0.0000 0.0000 0.0000 0.0000 0.0000 26.0926
#
#
#
# Elastic Compliance Matrix: (Units=1/GPa)
#
#
# Indices 1 2 3 4 5 6 
#
# 1 0.015494 0.000015 -0.002930 0.000000 0.000000 0.000000
# 2 0.000015 0.016514 -0.008720 0.000000 0.000000 0.000000
# 3 -0.002930 -0.008720 0.015364 0.000000 0.000000 0.000000
# 4 0.000000 0.000000 0.000000 0.043007 0.000000 0.000000
# 5 0.000000 0.000000 0.000000 0.000000 0.038351 0.000000
# 6 0.000000 0.000000 0.000000 0.000000 0.000000 0.038325
#
#
# Mechanical properties :
#
#
# Convention : Reuss Voigt Hill
#
# Bulk Modulus (GPa) = 41.48839 45.95126 43.71983
# Shear Modulus (GPa) = 25.20675 26.68073 25.94374
#
# Velocity S-wave (km/s) = 3.37502 3.47229 3.42400
# Velocity P-wave (km/s) = 5.82546 6.06966 5.94881
#
# Compressibility (1/GPa) = 0.02410313
#
# Stress axis : x y z
#
# Youngs Moduli (GPa) = 64.53945 60.55432 65.08674
#
# Poissons Ratio (x) = -0.00088 0.19068
# Poissons Ratio (y) = -0.00094 0.56753
# Poissons Ratio (z) = 0.18908 0.52801
#
# Static dielectric constant tensor:
#      x y z
#    x 1.812370 0.000000 0.000000 
#    y 0.000000 1.814340 0.000000 
#    z 0.000000 0.000000 1.791960 
# 
# From -- ./inp_files/12696.got.cif
#   From: 2010.05.17/outbox.cif.g08.bks.cpg/sg56_7_cif.got.tgz:12696.got - 2010.06.03 13:42:01.
