data_PCOD9432446
_publ_section_title
;
Structure prediction by ZEFSAII (Michael W. Deem and Ramdas Pophale) SiO2 
 PCOD9432446
Probable space group: P C C N
;
_chemical_formula_sum "Si O2"
_cell_formula_units_Z 56
_cell_length_a 7.955712
_cell_length_b 22.274671
_cell_length_c 15.128813
_cell_angle_alpha 90.000000
_cell_angle_beta 90.000000
_cell_angle_gamma 90.000000
_cell_volume 2680.990074
_symmetry_space_group_name_H-M "P C C N"
_symmetry_group_IT_number 56
_symmetry_cell_setting 'orthorhombic'
loop_
_space_group_symop_operation_xyz
x,y,z
1/2-x,1/2-y,z
1/2+x,-y,1/2-z
-x,1/2+y,1/2-z
-x,-y,-z
1/2+x,1/2+y,-z
1/2-x,y,1/2+z
x,1/2-y,1/2+z
loop_
_atom_site_type_symbol
_atom_site_label
_atom_site_fract_x
_atom_site_fract_y
_atom_site_fract_z
Si Si1 0.402629 0.296386 0.545575
Si Si2 0.050063 0.623134 0.635297
Si Si3 0.076612 0.050589 0.352403
Si Si4 0.211629 0.003126 0.173106
Si Si5 0.292940 0.417022 0.010652
Si Si6 0.059956 0.225260 0.741638
Si Si7 0.911212 0.180332 0.370186
O O1 0.250000 0.250000 0.534138
O O2 0.323350 0.363029 0.545848
O O3 0.487150 0.283912 0.639674
O O4 0.521068 0.291848 0.461012
O O5 0.109900 0.559196 0.672699
O O6 0.220522 0.659900 0.618108
O O7 0.941151 0.611394 0.548029
O O8 0.948270 0.662936 0.705263
O O9 0.183068 0.043356 0.441984
O O10 0.906027 0.012002 0.347437
O O11 0.018469 0.120017 0.351133
O O12 0.186393 0.034451 0.267105
O O13 0.145991 0.044333 0.093227
O O14 0.250000 0.250000 0.744337
O O15 0.944606 0.273496 0.791448
#
# Coordination Sequence:
#
# PCOD9432446 Si02
#       7
#     8   8   8   8   8   8   8
#     4  10  23  40  67  98 122 174 219 266 330 396
#     4  11  24  43  64  96 133 175 214 281 328 393
#     4  10  23  41  67  94 135 174 221 277 325 396
#     4  11  24  41  65  99 132 177 223 270 336 389
#     4  11  23  41  67  93 135 175 227 265 330 397
#     4  11  23  41  70  92 128 168 223 270 335 397
#     4  10  22  45  64  96 135 167 215 276 338 389
#
# _framework density 20.887805
#
# number of rings (size 3 to 8) (size 9 to 14) (size 15 to 20)
#    0.000    1.429    0.000    5.143    8.000    0.000 
#    5.143    4.286    0.000    0.000    0.000    0.000 
#    0.000    0.000    0.000    0.000    0.000    0.000 
#
# Total GULP energy -313389.342742 kJ/mol
# GULP energy per Si atom -5596.238263 kJ/mol
# Density = 2.084026 g / cm^3
# Si number density = 20.887805 Si / 1000 Ang^3
#
#
#
# Elastic Constant Matrix: (Units=GPa)
#
#
# Indices 1 2 3 4 5 6 
#
# 1 66.4382 18.5155 38.9325 0.0000 0.0000 0.0000
# 2 18.5155 65.2601 61.6933 0.0000 0.0000 0.0000
# 3 38.9325 61.6933 153.5694 0.0000 0.0000 0.0000
# 4 0.0000 0.0000 0.0000 29.8284 0.0000 0.0000
# 5 0.0000 0.0000 0.0000 0.0000 -16.2740 0.0000
# 6 0.0000 0.0000 0.0000 0.0000 0.0000 31.3121
#
#
#
# Elastic Compliance Matrix: (Units=1/GPa)
#
#
# Indices 1 2 3 4 5 6 
#
# 1 0.017742 -0.001260 -0.003992 0.000000 0.000000 0.000000
# 2 -0.001260 0.024795 -0.009642 0.000000 0.000000 0.000000
# 3 -0.003992 -0.009642 0.011397 0.000000 0.000000 0.000000
# 4 0.000000 0.000000 0.000000 0.033525 0.000000 0.000000
# 5 0.000000 0.000000 0.000000 0.000000 -0.061448 0.000000
# 6 0.000000 0.000000 0.000000 0.000000 0.000000 0.031937
#
#
# Mechanical properties :
#
#
# Convention : Reuss Voigt Hill
#
# Bulk Modulus (GPa) = 41.41229 58.17226 49.79227
# Shear Modulus (GPa) = 52.20070 20.04838 36.12454
#
# Velocity S-wave (km/s) = 5.00452 3.10145 4.16318
# Velocity P-wave (km/s) = 7.29813 6.38245 6.85560
#
# Compressibility (1/GPa) = 0.02414742
#
# Stress axis : x y z
#
# Youngs Moduli (GPa) = 56.36384 40.32999 87.74282
#
# Poissons Ratio (x) = 0.05083 0.35023
# Poissons Ratio (y) = 0.07103 0.84598
# Poissons Ratio (z) = 0.22498 0.38884
#
# Static dielectric constant tensor:
#      x y z
#    x 1.758660 0.000000 0.000000 
#    y 0.000000 1.748090 0.000000 
#    z 0.000000 0.000000 1.701490 
# 
# From -- ./inp_files/10878.got.cif
#   From: 2010.05.17/outbox.cif.g08.bks.cpg/sg56_6_cif.got.tgz:10878.got - 2010.06.03 13:42:01.
