data_PCOD9432937
_publ_section_title
;
Structure prediction by ZEFSAII (Michael W. Deem and Ramdas Pophale) SiO2 
 PCOD9432937
Probable space group: P C C N
;
_chemical_formula_sum "Si O2"
_cell_formula_units_Z 52
_cell_length_a 20.781668
_cell_length_b 6.193413
_cell_length_c 19.840384
_cell_angle_alpha 90.000000
_cell_angle_beta 90.000000
_cell_angle_gamma 90.000000
_cell_volume 2553.644967
_symmetry_space_group_name_H-M "P C C N"
_symmetry_group_IT_number 56
_symmetry_cell_setting 'orthorhombic'
loop_
_space_group_symop_operation_xyz
x,y,z
1/2-x,1/2-y,z
1/2+x,-y,1/2-z
-x,1/2+y,1/2-z
-x,-y,-z
1/2+x,1/2+y,-z
1/2-x,y,1/2+z
x,1/2-y,1/2+z
loop_
_atom_site_type_symbol
_atom_site_label
_atom_site_fract_x
_atom_site_fract_y
_atom_site_fract_z
Si Si1 0.086734 0.011830 0.604459
Si Si2 0.250000 0.750000 0.400878
Si Si3 0.357185 0.491119 0.471106
Si Si4 0.975973 0.175383 0.055483
Si Si5 0.821500 0.845845 0.135975
Si Si6 0.522625 0.383562 0.832662
Si Si7 0.089437 0.263266 0.740083
O O1 0.053938 0.781080 0.614971
O O2 0.144078 0.027406 0.551625
O O3 0.100054 0.097905 0.679057
O O4 0.034261 0.160542 0.567655
O O5 0.291094 0.592051 0.446618
O O6 0.195602 0.601585 0.364531
O O7 0.414266 0.668777 0.456649
O O8 0.359380 0.265301 0.428098
O O9 0.975363 0.044283 0.126248
O O10 0.000000 0.000000 0.000000
O O11 0.750000 0.750000 0.138270
O O12 0.858797 0.766638 0.201954
O O13 0.479329 0.270629 0.776511
O O14 0.580642 0.508352 0.796418
#
# Coordination Sequence:
#
# PCOD9432937 Si02
#       7
#     8   4   8   8   8   8   8
#     4  11  24  38  58  99 132 170 211 271 342 406
#     4  10  24  44  68  94 120 172 234 276 342 388
#     4  11  23  40  66  93 130 164 222 284 331 400
#     4  11  23  36  64  96 129 172 218 271 343 411
#     4  10  24  44  67  93 124 177 232 282 331 403
#     4  11  22  37  58  96 131 173 217 266 343 402
#     4  11  23  39  63  90 135 173 218 270 334 412
#
# _framework density 20.363050000000001
#
# number of rings (size 3 to 8) (size 9 to 14) (size 15 to 20)
#    0.000    1.231    3.077    2.308    6.462    2.462 
#    0.000    4.615    0.000    0.000    0.000    0.000 
#    0.000    0.000    0.000    0.000    0.000    0.000 
#
# Total GULP energy -289820.328105 kJ/mol
# GULP energy per Si atom -5573.467848 kJ/mol
# Density = 2.031670 g / cm^3
# Si number density = 20.363050 Si / 1000 Ang^3
#
#
#
# Elastic Constant Matrix: (Units=GPa)
#
#
# Indices 1 2 3 4 5 6 
#
# 1 52.3728 24.8848 37.0841 0.0000 0.0000 0.0000
# 2 24.8848 99.4369 40.1014 0.0000 0.0000 0.0000
# 3 37.0841 40.1014 121.3467 0.0000 0.0000 0.0000
# 4 0.0000 0.0000 0.0000 39.2344 0.0000 0.0000
# 5 0.0000 0.0000 0.0000 0.0000 36.0712 0.0000
# 6 0.0000 0.0000 0.0000 0.0000 0.0000 26.1399
#
#
#
# Elastic Compliance Matrix: (Units=1/GPa)
#
#
# Indices 1 2 3 4 5 6 
#
# 1 0.025517 -0.003739 -0.006562 0.000000 0.000000 0.000000
# 2 -0.003739 0.012151 -0.002873 0.000000 0.000000 0.000000
# 3 -0.006562 -0.002873 0.011196 0.000000 0.000000 0.000000
# 4 0.000000 0.000000 0.000000 0.025488 0.000000 0.000000
# 5 0.000000 0.000000 0.000000 0.000000 0.027723 0.000000
# 6 0.000000 0.000000 0.000000 0.000000 0.000000 0.038256
#
#
# Mechanical properties :
#
#
# Convention : Reuss Voigt Hill
#
# Bulk Modulus (GPa) = 44.41507 53.03301 48.72404
# Shear Modulus (GPa) = 28.70515 31.69484 30.20000
#
# Velocity S-wave (km/s) = 3.75863 3.94952 3.85525
# Velocity P-wave (km/s) = 6.37929 6.84825 6.61792
#
# Compressibility (1/GPa) = 0.02251488
#
# Stress axis : x y z
#
# Youngs Moduli (GPa) = 39.18894 82.29788 89.31974
#
# Poissons Ratio (x) = 0.30774 0.58616
# Poissons Ratio (y) = 0.14654 0.25659
# Poissons Ratio (z) = 0.25718 0.23642
#
# Static dielectric constant tensor:
#      x y z
#    x 1.770410 0.000000 0.000000 
#    y 0.000000 1.857180 0.000000 
#    z 0.000000 0.000000 1.756680 
# 
# From -- ./inp_files/19478.got.cif
#   From: 2010.05.17/outbox.cif.g08.bks.cpg/sg56_10_cif.got.tgz:19478.got - 2010.06.03 13:42:01.
