data_PCOD9432367
_publ_section_title
;
Structure prediction by ZEFSAII (Michael W. Deem and Ramdas Pophale) SiO2 
 PCOD9432367
Probable space group: P C C N
;
_chemical_formula_sum "Si O2"
_cell_formula_units_Z 48
_cell_length_a 12.075048
_cell_length_b 8.561107
_cell_length_c 22.414024
_cell_angle_alpha 90.000000
_cell_angle_beta 90.000000
_cell_angle_gamma 90.000000
_cell_volume 2317.067168
_symmetry_space_group_name_H-M "P C C N"
_symmetry_group_IT_number 56
_symmetry_cell_setting 'orthorhombic'
loop_
_space_group_symop_operation_xyz
x,y,z
1/2-x,1/2-y,z
1/2+x,-y,1/2-z
-x,1/2+y,1/2-z
-x,-y,-z
1/2+x,1/2+y,-z
1/2-x,y,1/2+z
x,1/2-y,1/2+z
loop_
_atom_site_type_symbol
_atom_site_label
_atom_site_fract_x
_atom_site_fract_y
_atom_site_fract_z
Si Si1 0.421412 0.118351 0.652626
Si Si2 0.492894 0.946452 0.879368
Si Si3 0.858553 0.904343 0.715903
Si Si4 0.220775 0.065478 0.452171
Si Si5 0.229729 0.932491 0.584072
Si Si6 0.359345 0.430549 0.837739
O O1 0.474296 0.264156 0.617577
O O2 0.377533 0.159926 0.718461
O O3 0.322458 0.035720 0.617312
O O4 0.520622 0.000167 0.666829
O O5 0.445890 0.977045 0.812668
O O6 0.398502 0.011428 0.924697
O O7 0.607861 0.032283 0.891063
O O8 0.735996 0.977544 0.709445
O O9 0.865542 0.755907 0.671232
O O10 0.250000 0.250000 0.461478
O O11 0.308853 0.020171 0.401254
O O12 0.233896 0.980029 0.514727
O O13 0.250000 0.750000 0.591734
#
# Coordination Sequence:
#
# PCOD9432367 Si02
#       6
#     8   8   8   8   8   8
#     4  12  26  41  71 107 142 184 234 288 354 425
#     4  11  24  46  71 102 138 187 237 287 361 413
#     4  10  22  43  71  97 142 182 226 294 335 429
#     4  11  23  48  73  94 139 185 237 294 353 422
#     4  12  29  44  69 103 142 183 239 293 353 423
#     4  10  22  43  69 100 136 181 230 280 357 404
#
# _framework density 20.715844000000001
#
# number of rings (size 3 to 8) (size 9 to 14) (size 15 to 20)
#    0.000    1.000    3.333    4.000    9.333    2.667 
#    0.000    0.000    0.000    0.000    0.000    0.000 
#    0.000    0.000    0.000    0.000    0.000    0.000 
#
# Total GULP energy -267950.258601 kJ/mol
# GULP energy per Si atom -5582.297054 kJ/mol
# Density = 2.066869 g / cm^3
# Si number density = 20.715844 Si / 1000 Ang^3
#
#
#
# Elastic Constant Matrix: (Units=GPa)
#
#
# Indices 1 2 3 4 5 6 
#
# 1 128.0138 31.8161 58.0333 0.0000 0.0000 0.0000
# 2 31.8161 81.1463 28.7680 0.0000 0.0000 0.0000
# 3 58.0333 28.7680 88.1036 0.0000 0.0000 0.0000
# 4 0.0000 0.0000 0.0000 17.6375 0.0000 0.0000
# 5 0.0000 0.0000 0.0000 0.0000 16.5816 0.0000
# 6 0.0000 0.0000 0.0000 0.0000 0.0000 33.9953
#
#
#
# Elastic Compliance Matrix: (Units=1/GPa)
#
#
# Indices 1 2 3 4 5 6 
#
# 1 0.011431 -0.002050 -0.006860 0.000000 0.000000 0.000000
# 2 -0.002050 0.014304 -0.003321 0.000000 0.000000 0.000000
# 3 -0.006860 -0.003321 0.016953 0.000000 0.000000 0.000000
# 4 0.000000 0.000000 0.000000 0.056697 0.000000 0.000000
# 5 0.000000 0.000000 0.000000 0.000000 0.060308 0.000000
# 6 0.000000 0.000000 0.000000 0.000000 0.000000 0.029416
#
#
# Mechanical properties :
#
#
# Convention : Reuss Voigt Hill
#
# Bulk Modulus (GPa) = 54.86210 59.38871 57.12540
# Shear Modulus (GPa) = 22.76383 25.55265 24.15824
#
# Velocity S-wave (km/s) = 3.31850 3.51591 3.41863
# Velocity P-wave (km/s) = 6.42059 6.72403 6.57406
#
# Compressibility (1/GPa) = 0.01822752
#
# Stress axis : x y z
#
# Youngs Moduli (GPa) = 87.48046 69.90895 58.98549
#
# Poissons Ratio (x) = 0.14330 0.40466
# Poissons Ratio (y) = 0.17932 0.19586
# Poissons Ratio (z) = 0.60014 0.23213
#
# Static dielectric constant tensor:
#      x y z
#    x 1.759970 0.000000 0.000000 
#    y 0.000000 1.784180 0.000000 
#    z 0.000000 0.000000 1.745030 
# 
# From -- ./inp_files/20887.got.cif
#   From: 2010.05.17/outbox.cif.g08.bks.cpg/sg56_11_cif.got.tgz:20887.got - 2010.06.03 13:42:01.
