data_PCOD9432081
_publ_section_title
;
Structure prediction by ZEFSAII (Michael W. Deem and Ramdas Pophale) SiO2 
 PCOD9432081
Probable space group: P C C N
;
_chemical_formula_sum "Si O2"
_cell_formula_units_Z 40
_cell_length_a 7.840300
_cell_length_b 26.121735
_cell_length_c 10.486820
_cell_angle_alpha 90.000000
_cell_angle_beta 90.000000
_cell_angle_gamma 90.000000
_cell_volume 2147.724215
_symmetry_space_group_name_H-M "P C C N"
_symmetry_group_IT_number 56
_symmetry_cell_setting 'orthorhombic'
loop_
_space_group_symop_operation_xyz
x,y,z
1/2-x,1/2-y,z
1/2+x,-y,1/2-z
-x,1/2+y,1/2-z
-x,-y,-z
1/2+x,1/2+y,-z
1/2-x,y,1/2+z
x,1/2-y,1/2+z
loop_
_atom_site_type_symbol
_atom_site_label
_atom_site_fract_x
_atom_site_fract_y
_atom_site_fract_z
Si Si1 0.446795 0.122447 0.227472
Si Si2 0.938216 0.872153 0.794459
Si Si3 0.596599 0.397608 0.459357
Si Si4 0.231378 0.689980 0.192239
Si Si5 0.536098 0.058265 0.467849
O O1 0.256495 0.144660 0.221395
O O2 0.493218 0.100530 0.088841
O O3 0.592899 0.163374 0.264117
O O4 0.460150 0.078507 0.334636
O O5 0.987650 0.905510 0.668904
O O6 0.078366 0.826843 0.787991
O O7 0.964590 0.905220 0.920518
O O8 0.671927 0.340023 0.435795
O O9 0.760348 0.433489 0.462505
O O10 0.250000 0.750000 0.178424
O O11 0.500000 0.000000 0.500000
#
# Coordination Sequence:
#
# PCOD9432081 Si02
#       5
#     8   8   8   8   8
#     4  11  21  40  65  90 132 161 208 273 306 384
#     4  10  22  40  62  92 128 165 210 262 318 380
#     4   9  20  42  61  88 131 159 212 264 314 373
#     4   9  21  40  67  88 128 164 210 258 325 370
#     4  11  22  40  64  92 124 172 213 259 325 381
#
# _framework density 18.624364
#
# number of rings (size 3 to 8) (size 9 to 14) (size 15 to 20)
#    1.200    0.800    2.000    1.200    0.000    4.800 
#    0.000    3.000    4.400    0.000    0.000    0.000 
#    0.000    0.000    0.000    0.000    0.000    0.000 
#
# Total GULP energy -222881.815179 kJ/mol
# GULP energy per Si atom -5572.045379 kJ/mol
# Density = 1.858197 g / cm^3
# Si number density = 18.624364 Si / 1000 Ang^3
#
#
#
# Elastic Constant Matrix: (Units=GPa)
#
#
# Indices 1 2 3 4 5 6 
#
# 1 139.8275 10.3305 14.6634 0.0000 0.0000 0.0000
# 2 10.3305 57.6244 -1.3459 0.0000 0.0000 0.0000
# 3 14.6634 -1.3459 115.7389 0.0000 0.0000 0.0000
# 4 0.0000 0.0000 0.0000 5.6377 0.0000 0.0000
# 5 0.0000 0.0000 0.0000 0.0000 18.2432 0.0000
# 6 0.0000 0.0000 0.0000 0.0000 0.0000 0.1001
#
#
#
# Elastic Compliance Matrix: (Units=1/GPa)
#
#
# Indices 1 2 3 4 5 6 
#
# 1 0.007350 -0.001340 -0.000947 0.000000 0.000000 0.000000
# 2 -0.001340 0.017603 0.000374 0.000000 0.000000 0.000000
# 3 -0.000947 0.000374 0.008764 0.000000 0.000000 0.000000
# 4 0.000000 0.000000 0.000000 0.177378 0.000000 0.000000
# 5 0.000000 0.000000 0.000000 0.000000 0.054815 0.000000
# 6 0.000000 0.000000 0.000000 0.000000 0.000000 9.990786
#
#
# Mechanical properties :
#
#
# Convention : Reuss Voigt Hill
#
# Bulk Modulus (GPa) = 33.45281 40.05411 36.75346
# Shear Modulus (GPa) = 0.48683 24.09904 12.29293
#
# Velocity S-wave (km/s) = 0.51182 3.60106 2.57192
# Velocity P-wave (km/s) = 4.28371 6.23243 5.34758
#
# Compressibility (1/GPa) = 0.02989285
#
# Stress axis : x y z
#
# Youngs Moduli (GPa) = 136.05561 56.80954 114.09736
#
# Poissons Ratio (x) = 0.07611 0.10802
# Poissons Ratio (y) = 0.18228 -0.04272
# Poissons Ratio (z) = 0.12881 -0.02127
#
# Static dielectric constant tensor:
#      x y z
#    x 1.658630 0.000000 0.000000 
#    y 0.000000 1.602250 0.000000 
#    z 0.000000 0.000000 1.660410 
# 
# From -- ./inp_files/2123.got.cif
#   From: 2010.05.17/outbox.cif.g08.bks.cpg/sg56_2_cif.got.tgz:2123.got - 2010.06.03 13:42:01.
