data_PCOD9432707
_publ_section_title
;
Structure prediction by ZEFSAII (Michael W. Deem and Ramdas Pophale) SiO2 
 PCOD9432707
Probable space group: P C C N
;
_chemical_formula_sum "Si O2"
_cell_formula_units_Z 48
_cell_length_a 10.686907
_cell_length_b 13.074431
_cell_length_c 15.395382
_cell_angle_alpha 90.000000
_cell_angle_beta 90.000000
_cell_angle_gamma 90.000000
_cell_volume 2151.123263
_symmetry_space_group_name_H-M "P C C N"
_symmetry_group_IT_number 56
_symmetry_cell_setting 'orthorhombic'
loop_
_space_group_symop_operation_xyz
x,y,z
1/2-x,1/2-y,z
1/2+x,-y,1/2-z
-x,1/2+y,1/2-z
-x,-y,-z
1/2+x,1/2+y,-z
1/2-x,y,1/2+z
x,1/2-y,1/2+z
loop_
_atom_site_type_symbol
_atom_site_label
_atom_site_fract_x
_atom_site_fract_y
_atom_site_fract_z
Si Si1 0.813238 0.923870 0.342745
Si Si2 0.447953 0.892161 0.242905
Si Si3 0.929588 0.892414 0.511706
Si Si4 0.721159 0.864044 0.164637
Si Si5 0.107014 0.764176 0.118608
Si Si6 0.044586 0.000632 0.098335
O O1 0.888306 0.860943 0.414896
O O2 0.813554 0.878173 0.245950
O O3 0.875237 0.033460 0.323050
O O4 0.677202 0.944796 0.383523
O O5 0.591805 0.889098 0.213767
O O6 0.398706 0.781066 0.216869
O O7 0.446950 0.939862 0.338618
O O8 0.807696 0.916558 0.572297
O O9 0.013808 0.805326 0.558791
O O10 0.000000 0.000000 0.500000
O O11 0.750000 0.750000 0.136037
O O12 0.250000 0.750000 0.087532
O O13 0.063881 0.881177 0.121275
O O14 0.000000 0.000000 0.000000
#
# Coordination Sequence:
#
# PCOD9432707 Si02
#       6
#     8   8   8   8   8   8
#     4  11  23  44  69  96 150 186 238 300 360 437
#     4  10  23  44  69 100 139 197 226 299 367 435
#     4  11  22  43  71 101 138 193 239 291 369 429
#     4  10  24  40  67 103 136 181 238 294 360 430
#     4  11  22  47  73 103 144 188 244 306 365 447
#     4  11  26  46  70 108 147 183 251 309 363 438
#
# _framework density 22.313922000000002
#
# number of rings (size 3 to 8) (size 9 to 14) (size 15 to 20)
#    0.000    1.333    5.000    0.000    7.000    3.333 
#    0.000    0.833    0.000    0.000    0.000    0.000 
#    0.000    0.000    0.000    0.000    0.000    0.000 
#
# Total GULP energy -267441.882540 kJ/mol
# GULP energy per Si atom -5571.705886 kJ/mol
# Density = 2.226313 g / cm^3
# Si number density = 22.313922 Si / 1000 Ang^3
#
#
#
# Elastic Constant Matrix: (Units=GPa)
#
#
# Indices 1 2 3 4 5 6 
#
# 1 57.7496 3.3155 52.1738 0.0000 0.0000 0.0000
# 2 3.3155 77.0606 47.5533 0.0000 0.0000 0.0000
# 3 52.1738 47.5533 165.4247 0.0000 0.0000 0.0000
# 4 0.0000 0.0000 0.0000 54.8822 0.0000 0.0000
# 5 0.0000 0.0000 0.0000 0.0000 28.1659 0.0000
# 6 0.0000 0.0000 0.0000 0.0000 0.0000 32.9382
#
#
#
# Elastic Compliance Matrix: (Units=1/GPa)
#
#
# Indices 1 2 3 4 5 6 
#
# 1 0.025548 0.004708 -0.009411 0.000000 0.000000 0.000000
# 2 0.004708 0.016643 -0.006269 0.000000 0.000000 0.000000
# 3 -0.009411 -0.006269 0.010815 0.000000 0.000000 0.000000
# 4 0.000000 0.000000 0.000000 0.018221 0.000000 0.000000
# 5 0.000000 0.000000 0.000000 0.000000 0.035504 0.000000
# 6 0.000000 0.000000 0.000000 0.000000 0.000000 0.030360
#
#
# Mechanical properties :
#
#
# Convention : Reuss Voigt Hill
#
# Bulk Modulus (GPa) = 32.19303 56.25777 44.22540
# Shear Modulus (GPa) = 29.51772 36.34341 32.93057
#
# Velocity S-wave (km/s) = 3.64103 4.04013 3.84576
# Velocity P-wave (km/s) = 5.66876 6.85786 6.29146
#
# Compressibility (1/GPa) = 0.03106263
#
# Stress axis : x y z
#
# Youngs Moduli (GPa) = 39.14132 60.08577 92.46029
#
# Poissons Ratio (x) = -0.28291 0.87017
# Poissons Ratio (y) = -0.18429 0.57965
# Poissons Ratio (z) = 0.36837 0.37669
#
# Static dielectric constant tensor:
#      x y z
#    x 1.892010 0.000000 0.000000 
#    y 0.000000 1.826760 0.000000 
#    z 0.000000 0.000000 1.866610 
# 
# From -- ./inp_files/11636.got.cif
#   From: 2010.05.17/outbox.cif.g08.bks.cpg/sg56_6_cif.got.tgz:11636.got - 2010.06.03 13:42:01.
