data_PCOD9432925
_publ_section_title
;
Structure prediction by ZEFSAII (Michael W. Deem and Ramdas Pophale) SiO2 
 PCOD9432925
Probable space group: P C C N
;
_chemical_formula_sum "Si O2"
_cell_formula_units_Z 40
_cell_length_a 5.065058
_cell_length_b 13.399176
_cell_length_c 25.573435
_cell_angle_alpha 90.000000
_cell_angle_beta 90.000000
_cell_angle_gamma 90.000000
_cell_volume 1735.607749
_symmetry_space_group_name_H-M "P C C N"
_symmetry_group_IT_number 56
_symmetry_cell_setting 'orthorhombic'
loop_
_space_group_symop_operation_xyz
x,y,z
1/2-x,1/2-y,z
1/2+x,-y,1/2-z
-x,1/2+y,1/2-z
-x,-y,-z
1/2+x,1/2+y,-z
1/2-x,y,1/2+z
x,1/2-y,1/2+z
loop_
_atom_site_type_symbol
_atom_site_label
_atom_site_fract_x
_atom_site_fract_y
_atom_site_fract_z
Si Si1 0.271746 0.868789 0.882970
Si Si2 0.496848 0.186033 0.844108
Si Si3 0.576701 0.345263 0.466377
Si Si4 0.830980 0.494062 0.216432
Si Si5 0.728677 0.935300 0.448275
O O1 0.250000 0.750000 0.884474
O O2 0.549910 0.907443 0.905217
O O3 0.048658 0.913138 0.921380
O O4 0.244901 0.908548 0.824038
O O5 0.250000 0.250000 0.827323
O O6 0.494433 0.173725 0.906760
O O7 0.470514 0.079905 0.817588
O O8 0.750000 0.250000 0.829764
O O9 0.750000 0.250000 0.483945
O O10 0.742533 0.448862 0.464677
O O11 0.325592 0.368492 0.502794
O O12 0.563925 0.534413 0.243474
#
# Coordination Sequence:
#
# PCOD9432925 Si02
#       5
#     8   8   8   8   8
#     4  12  27  48  73 103 148 195 243 295 367 435
#     4  11  25  44  73 107 146 187 239 300 367 433
#     4  10  24  43  76 111 152 195 237 292 363 439
#     4  12  27  48  75 103 143 186 252 314 368 428
#     4  11  25  46  72 109 151 193 240 292 352 446
#
# _framework density 23.046683000000002
#
# number of rings (size 3 to 8) (size 9 to 14) (size 15 to 20)
#    0.000    0.800    2.000    3.600    5.600   10.400 
#    0.000    0.000    0.000    0.000    0.000    0.000 
#    0.000    0.000    0.000    0.000    0.000    0.000 
#
# Total GULP energy -224211.615922 kJ/mol
# GULP energy per Si atom -5605.290398 kJ/mol
# Density = 2.299423 g / cm^3
# Si number density = 23.046683 Si / 1000 Ang^3
#
#
#
# Elastic Constant Matrix: (Units=GPa)
#
#
# Indices 1 2 3 4 5 6 
#
# 1 75.6210 27.5963 33.2240 0.0000 0.0000 0.0000
# 2 27.5963 147.3361 35.6694 0.0000 0.0000 0.0000
# 3 33.2240 35.6694 90.5038 0.0000 0.0000 0.0000
# 4 0.0000 0.0000 0.0000 8.1849 0.0000 0.0000
# 5 0.0000 0.0000 0.0000 0.0000 29.4135 0.0000
# 6 0.0000 0.0000 0.0000 0.0000 0.0000 31.7078
#
#
#
# Elastic Compliance Matrix: (Units=1/GPa)
#
#
# Indices 1 2 3 4 5 6 
#
# 1 0.016169 -0.001759 -0.005242 0.000000 0.000000 0.000000
# 2 -0.001759 0.007695 -0.002387 0.000000 0.000000 0.000000
# 3 -0.005242 -0.002387 0.013914 0.000000 0.000000 0.000000
# 4 0.000000 0.000000 0.000000 0.122177 0.000000 0.000000
# 5 0.000000 0.000000 0.000000 0.000000 0.033998 0.000000
# 6 0.000000 0.000000 0.000000 0.000000 0.000000 0.031538
#
#
# Mechanical properties :
#
#
# Convention : Reuss Voigt Hill
#
# Bulk Modulus (GPa) = 52.62806 56.27113 54.44959
# Shear Modulus (GPa) = 19.95203 28.32598 24.13901
#
# Velocity S-wave (km/s) = 2.94551 3.50961 3.23986
# Velocity P-wave (km/s) = 5.86967 6.39471 6.13781
#
# Compressibility (1/GPa) = 0.01900127
#
# Stress axis : x y z
#
# Youngs Moduli (GPa) = 61.84652 129.96214 71.86820
#
# Poissons Ratio (x) = 0.22865 0.37675
# Poissons Ratio (y) = 0.10881 0.17153
# Poissons Ratio (z) = 0.32422 0.31018
#
# Static dielectric constant tensor:
#      x y z
#    x 1.840190 0.000000 0.000000 
#    y 0.000000 1.829210 0.000000 
#    z 0.000000 0.000000 1.867160 
# 
# From -- ./inp_files/21505.got.cif
#   From: 2010.05.17/outbox.cif.g08.bks.cpg/sg56_11_cif.got.tgz:21505.got - 2010.06.03 13:42:01.
