data_PCOD9432350
_publ_section_title
;
Structure prediction by ZEFSAII (Michael W. Deem and Ramdas Pophale) SiO2 
 PCOD9432350
Probable space group: P C C N
;
_chemical_formula_sum "Si O2"
_cell_formula_units_Z 36
_cell_length_a 16.381609
_cell_length_b 5.197180
_cell_length_c 17.500542
_cell_angle_alpha 90.000000
_cell_angle_beta 90.000000
_cell_angle_gamma 90.000000
_cell_volume 1489.964131
_symmetry_space_group_name_H-M "P C C N"
_symmetry_group_IT_number 56
_symmetry_cell_setting 'orthorhombic'
loop_
_space_group_symop_operation_xyz
x,y,z
1/2-x,1/2-y,z
1/2+x,-y,1/2-z
-x,1/2+y,1/2-z
-x,-y,-z
1/2+x,1/2+y,-z
1/2-x,y,1/2+z
x,1/2-y,1/2+z
loop_
_atom_site_type_symbol
_atom_site_label
_atom_site_fract_x
_atom_site_fract_y
_atom_site_fract_z
Si Si1 0.544655 0.512391 0.582157
Si Si2 0.668243 0.645237 0.006254
Si Si3 0.300792 0.510536 0.228989
Si Si4 0.250000 0.750000 0.380102
Si Si5 0.456218 0.014647 0.628124
O O1 0.500000 0.500000 0.500000
O O2 0.520460 0.247928 0.623354
O O3 0.609609 0.525099 0.804608
O O4 0.503684 0.747370 0.627857
O O5 0.750000 0.750000 0.965376
O O6 0.695664 0.431939 0.066769
O O7 0.601096 0.538338 0.947941
O O8 0.631457 0.883896 0.053035
O O9 0.250000 0.250000 0.221065
O O10 0.302755 0.589321 0.317780
O O11 0.250000 0.750000 0.191655
#
# Coordination Sequence:
#
# PCOD9432350 Si02
#       5
#     8   8   8   4   8
#     4  10  23  42  65 103 136 163 215 288 344 400
#     4  11  24  39  70 102 131 172 226 277 350 392
#     4  10  22  43  66  96 132 178 229 278 327 402
#     4  10  26  38  70  92 148 172 232 280 332 406
#     4  11  23  42  73  99 132 175 222 287 340 401
#
# _framework density 24.161657000000002
#
# number of rings (size 3 to 8) (size 9 to 14) (size 15 to 20)
#    0.667    0.889    0.000    5.333   10.889    0.000 
#    0.000    0.000    9.778    0.000    0.000    0.000 
#    0.000    0.000    0.000    0.000    0.000    0.000 
#
# Total GULP energy -201432.568215 kJ/mol
# GULP energy per Si atom -5595.349117 kJ/mol
# Density = 2.410666 g / cm^3
# Si number density = 24.161657 Si / 1000 Ang^3
#
#
#
# Elastic Constant Matrix: (Units=GPa)
#
#
# Indices 1 2 3 4 5 6 
#
# 1 106.9009 36.2995 18.6044 0.0000 0.0000 0.0000
# 2 36.2995 162.4142 25.9013 0.0000 0.0000 0.0000
# 3 18.6044 25.9013 90.1810 0.0000 0.0000 0.0000
# 4 0.0000 0.0000 0.0000 13.8544 0.0000 0.0000
# 5 0.0000 0.0000 0.0000 0.0000 9.6016 0.0000
# 6 0.0000 0.0000 0.0000 0.0000 0.0000 54.1034
#
#
#
# Elastic Compliance Matrix: (Units=1/GPa)
#
#
# Indices 1 2 3 4 5 6 
#
# 1 0.010322 -0.002062 -0.001537 0.000000 0.000000 0.000000
# 2 -0.002062 0.006865 -0.001546 0.000000 0.000000 0.000000
# 3 -0.001537 -0.001546 0.011850 0.000000 0.000000 0.000000
# 4 0.000000 0.000000 0.000000 0.072179 0.000000 0.000000
# 5 0.000000 0.000000 0.000000 0.000000 0.104150 0.000000
# 6 0.000000 0.000000 0.000000 0.000000 0.000000 0.018483
#
#
# Mechanical properties :
#
#
# Convention : Reuss Voigt Hill
#
# Bulk Modulus (GPa) = 53.34470 57.90072 55.62271
# Shear Modulus (GPa) = 20.79968 34.09126 27.44547
#
# Velocity S-wave (km/s) = 2.93722 3.76036 3.37398
# Velocity P-wave (km/s) = 5.79907 6.54749 6.18461
#
# Compressibility (1/GPa) = 0.01874601
#
# Stress axis : x y z
#
# Youngs Moduli (GPa) = 96.87940 145.67696 84.38785
#
# Poissons Ratio (x) = 0.30036 0.12973
# Poissons Ratio (y) = 0.19975 0.13048
# Poissons Ratio (z) = 0.14893 0.22525
#
# Static dielectric constant tensor:
#      x y z
#    x 2.092580 0.000000 0.000000 
#    y 0.000000 1.956670 0.000000 
#    z 0.000000 0.000000 1.933060 
# 
# From -- ./inp_files/13314.got.cif
#   From: 2010.05.17/outbox.cif.g08.bks.cpg/sg56_7_cif.got.tgz:13314.got - 2010.06.03 13:42:01.
