data_PCOD9432099
_publ_section_title
;
Structure prediction by ZEFSAII (Michael W. Deem and Ramdas Pophale) SiO2 
 PCOD9432099
Probable space group: P C C N
;
_chemical_formula_sum "Si O2"
_cell_formula_units_Z 60
_cell_length_a 15.927660
_cell_length_b 7.636539
_cell_length_c 24.128413
_cell_angle_alpha 90.000000
_cell_angle_beta 90.000000
_cell_angle_gamma 90.000000
_cell_volume 2934.791878
_symmetry_space_group_name_H-M "P C C N"
_symmetry_group_IT_number 56
_symmetry_cell_setting 'orthorhombic'
loop_
_space_group_symop_operation_xyz
x,y,z
1/2-x,1/2-y,z
1/2+x,-y,1/2-z
-x,1/2+y,1/2-z
-x,-y,-z
1/2+x,1/2+y,-z
1/2-x,y,1/2+z
x,1/2-y,1/2+z
loop_
_atom_site_type_symbol
_atom_site_label
_atom_site_fract_x
_atom_site_fract_y
_atom_site_fract_z
Si Si1 0.750000 0.750000 0.053480
Si Si2 0.445796 0.561128 0.889848
Si Si3 0.413188 0.531183 0.698617
Si Si4 0.002636 0.078853 0.586239
Si Si5 0.758458 0.058679 0.130261
Si Si6 0.054814 0.942099 0.210421
Si Si7 0.266706 0.051902 0.752289
Si Si8 0.067538 0.262079 0.474383
O O1 0.779060 0.589604 0.091730
O O2 0.667065 0.704285 0.020343
O O3 0.437901 0.770700 0.895204
O O4 0.356025 0.502142 0.866312
O O5 0.515837 0.523500 0.844747
O O6 0.462936 0.442661 0.944498
O O7 0.435008 0.459005 0.637413
O O8 0.484088 0.457682 0.741299
O O9 0.426672 0.739050 0.700261
O O10 0.317055 0.497742 0.717872
O O11 0.041158 0.182806 0.533601
O O12 0.963238 0.895167 0.566529
O O13 0.750000 0.250000 0.104740
O O14 0.723800 0.060304 0.191975
O O15 0.143450 0.035081 0.223005
O O16 0.250000 0.250000 0.770743
#
# Coordination Sequence:
#
# PCOD9432099 Si02
#       8
#     4   8   8   8   8   8   8   8
#     4  10  22  40  64  92 124 164 218 272 316 374
#     4  11  22  42  65  98 127 171 219 267 332 387
#     4  12  25  44  64 100 134 177 218 270 332 399
#     4  11  23  42  69  91 129 172 218 270 324 393
#     4  11  22  37  62  96 131 163 212 266 322 378
#     4  12  25  41  67  97 136 176 218 267 333 403
#     4  12  25  41  61  96 135 174 216 263 325 397
#     4  10  23  43  67  93 125 170 223 269 329 382
#
# _framework density 20.444379000000001
#
# number of rings (size 3 to 8) (size 9 to 14) (size 15 to 20)
#    0.000    0.800    3.333    4.800    3.733    0.000 
#    3.600    0.000    0.000    0.000    0.000    0.000 
#    0.000    0.000    0.000    0.000    0.000    0.000 
#
# Total GULP energy -334795.029078 kJ/mol
# GULP energy per Si atom -5579.917151 kJ/mol
# Density = 2.039785 g / cm^3
# Si number density = 20.444379 Si / 1000 Ang^3
#
#
#
# Elastic Constant Matrix: (Units=GPa)
#
#
# Indices 1 2 3 4 5 6 
#
# 1 103.9743 -24.1400 26.4024 0.0000 0.0000 0.0000
# 2 -24.1400 81.5536 -15.0406 0.0000 0.0000 0.0000
# 3 26.4024 -15.0406 61.4762 0.0000 0.0000 0.0000
# 4 0.0000 0.0000 0.0000 7.9608 0.0000 0.0000
# 5 0.0000 0.0000 0.0000 0.0000 -89.0884 0.0000
# 6 0.0000 0.0000 0.0000 0.0000 0.0000 27.7748
#
#
#
# Elastic Compliance Matrix: (Units=1/GPa)
#
#
# Indices 1 2 3 4 5 6 
#
# 1 0.011284 0.002562 -0.004219 0.000000 0.000000 0.000000
# 2 0.002562 0.013423 0.002184 0.000000 0.000000 0.000000
# 3 -0.004219 0.002184 0.018613 0.000000 0.000000 0.000000
# 4 0.000000 0.000000 0.000000 0.125615 0.000000 0.000000
# 5 0.000000 0.000000 0.000000 0.000000 -0.011225 0.000000
# 6 0.000000 0.000000 0.000000 0.000000 0.000000 0.036004
#
#
# Mechanical properties :
#
#
# Convention : Reuss Voigt Hill
#
# Bulk Modulus (GPa) = 22.53656 24.60530 23.57093
# Shear Modulus (GPa) = 24.10191 6.64826 15.37509
#
# Velocity S-wave (km/s) = 3.43724 1.80525 2.74532
# Velocity P-wave (km/s) = 5.17688 4.05051 4.64794
#
# Compressibility (1/GPa) = 0.04437235
#
# Stress axis : x y z
#
# Youngs Moduli (GPa) = 88.62103 74.49926 53.72638
#
# Poissons Ratio (x) = -0.19086 0.22669
# Poissons Ratio (y) = -0.22704 -0.11732
# Poissons Ratio (z) = 0.37393 -0.16269
#
# Static dielectric constant tensor:
#      x y z
#    x 1.671830 0.000000 0.000000 
#    y 0.000000 1.700000 0.000000 
#    z 0.000000 0.000000 1.734820 
# 
# From -- ./inp_files/22477.got.cif
#   From: 2010.05.17/outbox.cif.g08.bks.cpg/sg56_12_cif.got.tgz:22477.got - 2010.06.03 13:42:01.
