data_PCOD9432868
_publ_section_title
;
Structure prediction by ZEFSAII (Michael W. Deem and Ramdas Pophale) SiO2 
 PCOD9432868
Probable space group: P C C N
;
_chemical_formula_sum "Si O2"
_cell_formula_units_Z 40
_cell_length_a 10.576376
_cell_length_b 9.392016
_cell_length_c 17.705986
_cell_angle_alpha 90.000000
_cell_angle_beta 90.000000
_cell_angle_gamma 90.000000
_cell_volume 1758.797430
_symmetry_space_group_name_H-M "P C C N"
_symmetry_group_IT_number 56
_symmetry_cell_setting 'orthorhombic'
loop_
_space_group_symop_operation_xyz
x,y,z
1/2-x,1/2-y,z
1/2+x,-y,1/2-z
-x,1/2+y,1/2-z
-x,-y,-z
1/2+x,1/2+y,-z
1/2-x,y,1/2+z
x,1/2-y,1/2+z
loop_
_atom_site_type_symbol
_atom_site_label
_atom_site_fract_x
_atom_site_fract_y
_atom_site_fract_z
Si Si1 0.399584 0.072625 0.943562
Si Si2 0.319466 0.877153 0.389144
Si Si3 0.524821 0.160378 0.476014
Si Si4 0.615712 0.672677 0.719360
Si Si5 0.464413 0.570393 0.184451
O O1 0.404007 0.237483 0.969801
O O2 0.435859 0.092109 0.855258
O O3 0.270938 0.986319 0.934346
O O4 0.500000 0.000000 0.000000
O O5 0.250000 0.750000 0.344299
O O6 0.391486 0.788755 0.454438
O O7 0.414145 0.973749 0.340664
O O8 0.500000 0.000000 0.500000
O O9 0.583893 0.144257 0.392739
O O10 0.750000 0.750000 0.704839
O O11 0.627022 0.546517 0.779783
O O12 0.518142 0.801496 0.735825
#
# Coordination Sequence:
#
# PCOD9432868 Si02
#       5
#     8   8   8   8   8
#     4  11  22  41  68  95 131 179 226 285 351 412
#     4  11  21  40  68  97 131 175 224 286 347 408
#     4   9  21  39  60  94 128 164 221 278 332 413
#     4  11  24  45  67  97 139 184 228 289 352 418
#     4  10  24  42  63  93 134 173 228 275 343 422
#
# _framework density 22.742813000000002
#
# number of rings (size 3 to 8) (size 9 to 14) (size 15 to 20)
#    0.000    1.600    4.000    0.000    2.800    0.000 
#   10.800    0.000    0.000    0.000    0.000    0.000 
#    0.000    0.000    0.000    0.000    0.000    0.000 
#
# Total GULP energy -222705.569038 kJ/mol
# GULP energy per Si atom -5567.639226 kJ/mol
# Density = 2.269105 g / cm^3
# Si number density = 22.742813 Si / 1000 Ang^3
#
#
#
# Elastic Constant Matrix: (Units=GPa)
#
#
# Indices 1 2 3 4 5 6 
#
# 1 42.0200 19.5602 10.9106 0.0000 0.0000 0.0000
# 2 19.5602 93.5414 13.3332 0.0000 0.0000 0.0000
# 3 10.9106 13.3332 39.0425 0.0000 0.0000 0.0000
# 4 0.0000 0.0000 0.0000 40.7703 0.0000 0.0000
# 5 0.0000 0.0000 0.0000 0.0000 25.0089 0.0000
# 6 0.0000 0.0000 0.0000 0.0000 0.0000 50.8955
#
#
#
# Elastic Compliance Matrix: (Units=1/GPa)
#
#
# Indices 1 2 3 4 5 6 
#
# 1 0.027660 -0.004922 -0.006049 0.000000 0.000000 0.000000
# 2 -0.004922 0.012113 -0.002761 0.000000 0.000000 0.000000
# 3 -0.006049 -0.002761 0.028246 0.000000 0.000000 0.000000
# 4 0.000000 0.000000 0.000000 0.024528 0.000000 0.000000
# 5 0.000000 0.000000 0.000000 0.000000 0.039986 0.000000
# 6 0.000000 0.000000 0.000000 0.000000 0.000000 0.019648
#
#
# Mechanical properties :
#
#
# Convention : Reuss Voigt Hill
#
# Bulk Modulus (GPa) = 24.65741 29.13464 26.89602
# Shear Modulus (GPa) = 25.88482 32.05492 28.96987
#
# Velocity S-wave (km/s) = 3.37731 3.75834 3.57291
# Velocity P-wave (km/s) = 5.10624 5.62777 5.37334
#
# Compressibility (1/GPa) = 0.04055576
#
# Stress axis : x y z
#
# Youngs Moduli (GPa) = 36.15350 82.55449 35.40262
#
# Poissons Ratio (x) = 0.40631 0.21415
# Poissons Ratio (y) = 0.17794 0.09776
# Poissons Ratio (z) = 0.21869 0.22796
#
# Static dielectric constant tensor:
#      x y z
#    x 1.945790 0.000000 0.000000 
#    y 0.000000 1.891180 0.000000 
#    z 0.000000 0.000000 1.926690 
# 
# From -- ./inp_files/14438.got.cif
#   From: 2010.05.17/outbox.cif.g08.bks.cpg/sg56_8_cif.got.tgz:14438.got - 2010.06.03 13:42:01.
