data_PCOD9432117
_publ_section_title
;
Structure prediction by ZEFSAII (Michael W. Deem and Ramdas Pophale) SiO2 
 PCOD9432117
Probable space group: P C C N
;
_chemical_formula_sum "Si O2"
_cell_formula_units_Z 56
_cell_length_a 10.760020
_cell_length_b 17.740931
_cell_length_c 14.192024
_cell_angle_alpha 90.000000
_cell_angle_beta 90.000000
_cell_angle_gamma 90.000000
_cell_volume 2709.154807
_symmetry_space_group_name_H-M "P C C N"
_symmetry_group_IT_number 56
_symmetry_cell_setting 'orthorhombic'
loop_
_space_group_symop_operation_xyz
x,y,z
1/2-x,1/2-y,z
1/2+x,-y,1/2-z
-x,1/2+y,1/2-z
-x,-y,-z
1/2+x,1/2+y,-z
1/2-x,y,1/2+z
x,1/2-y,1/2+z
loop_
_atom_site_type_symbol
_atom_site_label
_atom_site_fract_x
_atom_site_fract_y
_atom_site_fract_z
Si Si1 0.750000 0.750000 0.561811
Si Si2 0.388186 0.880988 0.974433
Si Si3 0.653367 0.450002 0.917398
Si Si4 0.579529 0.627794 0.628256
Si Si5 0.085306 0.386153 0.518666
Si Si6 0.585613 0.123794 0.695504
Si Si7 0.250000 0.750000 0.391597
Si Si8 0.303925 0.521900 0.303575
O O1 0.648291 0.706651 0.622663
O O2 0.822387 0.681991 0.507863
O O3 0.352722 0.794305 0.952482
O O4 0.382319 0.927316 0.877043
O O5 0.275120 0.910527 0.039537
O O6 0.518092 0.889815 0.027380
O O7 0.648549 0.532362 0.966351
O O8 0.661351 0.461458 0.804872
O O9 0.530952 0.402446 0.948002
O O10 0.467562 0.630641 0.701500
O O11 0.670098 0.563143 0.666281
O O12 0.021981 0.369576 0.619153
O O13 0.684178 0.187973 0.671840
O O14 0.660571 0.045954 0.683703
#
# Coordination Sequence:
#
# PCOD9432117 Si02
#       8
#     4   8   8   8   8   8   4   8
#     4  12  30  44  66  98 144 186 224 282 370 410
#     4  11  23  43  70 101 138 176 230 287 337 404
#     4  11  22  42  80  97 135 185 235 285 340 411
#     4  12  26  44  67 103 142 177 227 287 348 417
#     4  11  24  47  69 100 137 187 223 286 347 416
#     4  11  23  44  70  96 138 178 232 279 337 412
#     4  10  22  40  66 102 136 180 232 272 342 408
#     4  11  23  43  70 109 129 177 237 284 336 404
#
# _framework density 20.670653000000001
#
# number of rings (size 3 to 8) (size 9 to 14) (size 15 to 20)
#    0.000    0.857    5.714    2.143    2.000    3.429 
#    0.000    1.429    0.000    0.000    0.000    0.000 
#    0.000    0.000    0.000    0.000    0.000    0.000 
#
# Total GULP energy -313013.120592 kJ/mol
# GULP energy per Si atom -5589.520011 kJ/mol
# Density = 2.062361 g / cm^3
# Si number density = 20.670653 Si / 1000 Ang^3
#
#
#
# Elastic Constant Matrix: (Units=GPa)
#
#
# Indices 1 2 3 4 5 6 
#
# 1 72.5010 43.4665 19.0462 0.0000 0.0000 0.0000
# 2 43.4665 107.1423 34.4319 0.0000 0.0000 0.0000
# 3 19.0462 34.4319 107.8354 0.0000 0.0000 0.0000
# 4 0.0000 0.0000 0.0000 7.4659 0.0000 0.0000
# 5 0.0000 0.0000 0.0000 0.0000 17.1056 0.0000
# 6 0.0000 0.0000 0.0000 0.0000 0.0000 33.5232
#
#
#
# Elastic Compliance Matrix: (Units=1/GPa)
#
#
# Indices 1 2 3 4 5 6 
#
# 1 0.018315 -0.007121 -0.000961 0.000000 0.000000 0.000000
# 2 -0.007121 0.013170 -0.002947 0.000000 0.000000 0.000000
# 3 -0.000961 -0.002947 0.010384 0.000000 0.000000 0.000000
# 4 0.000000 0.000000 0.000000 0.133943 0.000000 0.000000
# 5 0.000000 0.000000 0.000000 0.000000 0.058460 0.000000
# 6 0.000000 0.000000 0.000000 0.000000 0.000000 0.029830
#
#
# Mechanical properties :
#
#
# Convention : Reuss Voigt Hill
#
# Bulk Modulus (GPa) = 50.48090 53.48531 51.98311
# Shear Modulus (GPa) = 17.07859 24.32120 20.69989
#
# Velocity S-wave (km/s) = 2.87753 3.43389 3.16795
# Velocity P-wave (km/s) = 5.95943 6.45394 6.21161
#
# Compressibility (1/GPa) = 0.01980947
#
# Stress axis : x y z
#
# Youngs Moduli (GPa) = 54.60074 75.93271 96.30025
#
# Poissons Ratio (x) = 0.54074 0.09254
# Poissons Ratio (y) = 0.38883 0.28382
# Poissons Ratio (z) = 0.05247 0.22379
#
# Static dielectric constant tensor:
#      x y z
#    x 1.746850 0.000000 0.000000 
#    y 0.000000 1.746080 0.000000 
#    z 0.000000 0.000000 1.731120 
# 
# From -- ./inp_files/11719.got.cif
#   From: 2010.05.17/outbox.cif.g08.bks.cpg/sg56_6_cif.got.tgz:11719.got - 2010.06.03 13:42:01.
