data_PCOD9432572
_publ_section_title
;
Structure prediction by ZEFSAII (Michael W. Deem and Ramdas Pophale) SiO2 
 PCOD9432572
Probable space group: P C C N
;
_chemical_formula_sum "Si O2"
_cell_formula_units_Z 32
_cell_length_a 10.115130
_cell_length_b 15.420953
_cell_length_c 9.800489
_cell_angle_alpha 90.000000
_cell_angle_beta 90.000000
_cell_angle_gamma 90.000000
_cell_volume 1528.728731
_symmetry_space_group_name_H-M "P C C N"
_symmetry_group_IT_number 56
_symmetry_cell_setting 'orthorhombic'
loop_
_space_group_symop_operation_xyz
x,y,z
1/2-x,1/2-y,z
1/2+x,-y,1/2-z
-x,1/2+y,1/2-z
-x,-y,-z
1/2+x,1/2+y,-z
1/2-x,y,1/2+z
x,1/2-y,1/2+z
loop_
_atom_site_type_symbol
_atom_site_label
_atom_site_fract_x
_atom_site_fract_y
_atom_site_fract_z
Si Si1 0.404379 0.725362 0.767213
Si Si2 0.949823 0.470168 0.646641
Si Si3 0.015167 0.851259 0.487300
Si Si4 0.158438 0.488555 0.886715
O O1 0.250000 0.750000 0.773827
O O2 0.428455 0.633009 0.839672
O O3 0.448042 0.711993 0.611417
O O4 0.484905 0.798293 0.848101
O O5 0.806362 0.512529 0.666510
O O6 0.000000 0.500000 0.500000
O O7 0.055649 0.494289 0.761857
O O8 0.884161 0.904704 0.526258
O O9 0.128513 0.925742 0.476312
#
# Coordination Sequence:
#
# PCOD9432572 Si02
#       4
#     8   8   8   8
#     4  11  22  39  68 103 131 179 235 285 333 411
#     4  11  26  42  73 102 138 183 233 284 352 416
#     4  10  23  40  70  97 136 171 232 287 338 396
#     4  10  24  44  67 102 139 182 227 284 352 414
#
# _framework density 20.932426
#
# number of rings (size 3 to 8) (size 9 to 14) (size 15 to 20)
#    0.000    1.500    2.500    0.750   14.000    0.000 
#    0.000    1.250    0.000    0.000    0.000    0.000 
#    0.000    0.000    0.000    0.000    0.000    0.000 
#
# Total GULP energy -178963.129485 kJ/mol
# GULP energy per Si atom -5592.597796 kJ/mol
# Density = 2.088478 g / cm^3
# Si number density = 20.932426 Si / 1000 Ang^3
#
#
#
# Elastic Constant Matrix: (Units=GPa)
#
#
# Indices 1 2 3 4 5 6 
#
# 1 139.5347 31.6870 43.9668 0.0000 0.0000 0.0000
# 2 31.6870 79.0665 57.6483 0.0000 0.0000 0.0000
# 3 43.9668 57.6483 115.6709 0.0000 0.0000 0.0000
# 4 0.0000 0.0000 0.0000 47.4888 0.0000 0.0000
# 5 0.0000 0.0000 0.0000 0.0000 28.0196 0.0000
# 6 0.0000 0.0000 0.0000 0.0000 0.0000 25.0023
#
#
#
# Elastic Compliance Matrix: (Units=1/GPa)
#
#
# Indices 1 2 3 4 5 6 
#
# 1 0.008270 -0.001606 -0.002343 0.000000 0.000000 0.000000
# 2 -0.001606 0.020179 -0.009446 0.000000 0.000000 0.000000
# 3 -0.002343 -0.009446 0.014244 0.000000 0.000000 0.000000
# 4 0.000000 0.000000 0.000000 0.021058 0.000000 0.000000
# 5 0.000000 0.000000 0.000000 0.000000 0.035689 0.000000
# 6 0.000000 0.000000 0.000000 0.000000 0.000000 0.039996
#
#
# Mechanical properties :
#
#
# Convention : Reuss Voigt Hill
#
# Bulk Modulus (GPa) = 62.88664 66.76402 64.82533
# Shear Modulus (GPa) = 29.15016 33.50013 31.32514
#
# Velocity S-wave (km/s) = 3.73578 4.00483 3.87264
# Velocity P-wave (km/s) = 6.97969 7.30405 7.14371
#
# Compressibility (1/GPa) = 0.01590163
#
# Stress axis : x y z
#
# Youngs Moduli (GPa) = 120.92466 49.55767 70.20693
#
# Poissons Ratio (x) = 0.07958 0.16449
# Poissons Ratio (y) = 0.19419 0.66319
# Poissons Ratio (z) = 0.28332 0.46813
#
# Static dielectric constant tensor:
#      x y z
#    x 1.753420 0.000000 0.000000 
#    y 0.000000 1.758770 0.000000 
#    z 0.000000 0.000000 1.765310 
# 
# From -- ./inp_files/2441.got.cif
#   From: 2010.05.17/outbox.cif.g08.bks.cpg/sg56_2_cif.got.tgz:2441.got - 2010.06.03 13:42:01.
