data_PCOD9432684
_publ_section_title
;
Structure prediction by ZEFSAII (Michael W. Deem and Ramdas Pophale) SiO2 
 PCOD9432684
Probable space group: P C C N
;
_chemical_formula_sum "Si O2"
_cell_formula_units_Z 36
_cell_length_a 5.016697
_cell_length_b 22.403675
_cell_length_c 14.348989
_cell_angle_alpha 90.000000
_cell_angle_beta 90.000000
_cell_angle_gamma 90.000000
_cell_volume 1612.718017
_symmetry_space_group_name_H-M "P C C N"
_symmetry_group_IT_number 56
_symmetry_cell_setting 'orthorhombic'
loop_
_space_group_symop_operation_xyz
x,y,z
1/2-x,1/2-y,z
1/2+x,-y,1/2-z
-x,1/2+y,1/2-z
-x,-y,-z
1/2+x,1/2+y,-z
1/2-x,y,1/2+z
x,1/2-y,1/2+z
loop_
_atom_site_type_symbol
_atom_site_label
_atom_site_fract_x
_atom_site_fract_y
_atom_site_fract_z
Si Si1 0.149766 0.132008 0.893534
Si Si2 0.144323 0.005754 0.814269
Si Si3 0.603390 0.339497 0.717787
Si Si4 0.750000 0.750000 0.202641
Si Si5 0.091074 0.112833 0.109353
O O1 0.244326 0.065796 0.865187
O O2 0.892248 0.138524 0.825607
O O3 0.308956 0.191409 0.860306
O O4 0.105226 0.132171 0.002667
O O5 0.398748 0.982911 0.756545
O O6 0.019913 0.954843 0.880919
O O7 0.483725 0.273740 0.731762
O O8 0.873824 0.349333 0.665287
O O9 0.370778 0.375001 0.661032
#
# Coordination Sequence:
#
# PCOD9432684 Si02
#       5
#     8   8   8   4   8
#     4  10  23  43  71  98 140 175 236 279 335 415
#     4  12  21  41  66  98 140 179 220 283 343 401
#     4  10  24  44  68  94 141 169 229 281 338 399
#     4   8  20  50  60  98 128 182 214 298 322 402
#     4  12  23  43  69 103 130 188 221 279 350 399
#
# _framework density 22.322562999999999
#
# number of rings (size 3 to 8) (size 9 to 14) (size 15 to 20)
#    1.333    0.000    4.444    0.667    0.000    5.333 
#    0.000    4.444    0.000    0.000    0.000    0.000 
#    0.000    0.000    0.000    0.000    0.000    0.000 
#
# Total GULP energy -200681.172338 kJ/mol
# GULP energy per Si atom -5574.477009 kJ/mol
# Density = 2.227176 g / cm^3
# Si number density = 22.322563 Si / 1000 Ang^3
#
#
#
# Elastic Constant Matrix: (Units=GPa)
#
#
# Indices 1 2 3 4 5 6 
#
# 1 81.6920 -0.2700 13.3254 0.0000 0.0000 0.0000
# 2 -0.2700 155.0103 15.5860 0.0000 0.0000 0.0000
# 3 13.3254 15.5860 117.8783 0.0000 0.0000 0.0000
# 4 0.0000 0.0000 0.0000 69.0980 0.0000 0.0000
# 5 0.0000 0.0000 0.0000 0.0000 -0.2275 0.0000
# 6 0.0000 0.0000 0.0000 0.0000 0.0000 30.5938
#
#
#
# Elastic Compliance Matrix: (Units=1/GPa)
#
#
# Indices 1 2 3 4 5 6 
#
# 1 0.012475 0.000166 -0.001432 0.000000 0.000000 0.000000
# 2 0.000166 0.006540 -0.000883 0.000000 0.000000 0.000000
# 3 -0.001432 -0.000883 0.008762 0.000000 0.000000 0.000000
# 4 0.000000 0.000000 0.000000 0.014472 0.000000 0.000000
# 5 0.000000 0.000000 0.000000 0.000000 -4.395181 0.000000
# 6 0.000000 0.000000 0.000000 0.000000 0.000000 0.032686
#
#
# Mechanical properties :
#
#
# Convention : Reuss Voigt Hill
#
# Bulk Modulus (GPa) = 42.59354 45.76260 44.17807
# Shear Modulus (GPa) = -1.16060 41.62213 20.23077
#
# Velocity S-wave (km/s) = -0.72184 4.32276 3.01373
# Velocity P-wave (km/s) = 4.29274 6.74241 5.65189
#
# Compressibility (1/GPa) = 0.02347774
#
# Stress axis : x y z
#
# Youngs Moduli (GPa) = 80.15862 152.89804 114.12862
#
# Poissons Ratio (x) = -0.02534 0.16345
# Poissons Ratio (y) = -0.01328 0.10083
# Poissons Ratio (z) = 0.11480 0.13509
#
# Static dielectric constant tensor:
#      x y z
#    x 1.842680 0.000000 0.000000 
#    y 0.000000 1.946100 0.000000 
#    z 0.000000 0.000000 1.776200 
# 
# From -- ./inp_files/9530.got.cif
#   From: 2010.05.17/outbox.cif.g08.bks.cpg/sg56_5_cif.got.tgz:9530.got - 2010.06.03 13:42:01.
