data_PCOD9432504
_publ_section_title
;
Structure prediction by ZEFSAII (Michael W. Deem and Ramdas Pophale) SiO2 
 PCOD9432504
Probable space group: P C C N
;
_chemical_formula_sum "Si O2"
_cell_formula_units_Z 32
_cell_length_a 26.369151
_cell_length_b 4.938691
_cell_length_c 9.173491
_cell_angle_alpha 90.000000
_cell_angle_beta 90.000000
_cell_angle_gamma 90.000000
_cell_volume 1194.655373
_symmetry_space_group_name_H-M "P C C N"
_symmetry_group_IT_number 56
_symmetry_cell_setting 'orthorhombic'
loop_
_space_group_symop_operation_xyz
x,y,z
1/2-x,1/2-y,z
1/2+x,-y,1/2-z
-x,1/2+y,1/2-z
-x,-y,-z
1/2+x,1/2+y,-z
1/2-x,y,1/2+z
x,1/2-y,1/2+z
loop_
_atom_site_type_symbol
_atom_site_label
_atom_site_fract_x
_atom_site_fract_y
_atom_site_fract_z
Si Si1 0.420063 0.249586 0.538024
Si Si2 0.150736 0.192781 0.779702
Si Si3 0.213838 0.002212 0.029117
Si Si4 0.985443 0.319059 0.344949
O O1 0.393466 0.402061 0.671226
O O2 0.381198 0.323868 0.409925
O O3 0.474735 0.282127 0.465998
O O4 0.432055 0.941655 0.597236
O O5 0.181450 0.974928 0.878542
O O6 0.183352 0.388266 0.672252
O O7 0.250000 0.250000 0.989547
O O8 0.250000 0.750000 0.060932
O O9 0.012639 0.577116 0.269541
#
# Coordination Sequence:
#
# PCOD9432504 Si02
#       4
#     8   8   8   8
#     4  10  22  47  74 118 158 216 265 328 394 466
#     4  10  23  50  78 116 158 206 270 334 397 500
#     4  11  26  51  77 112 156 206 264 337 424 482
#     4  11  24  47  74 111 170 217 274 327 388 475
#
# _framework density 26.785969000000001
#
# number of rings (size 3 to 8) (size 9 to 14) (size 15 to 20)
#    0.000    1.500    2.500    0.750    0.000    8.000 
#   18.000    3.750    0.000    0.000    0.000    0.000 
#    0.000    0.000    0.000    0.000    0.000    0.000 
#
# Total GULP energy -178220.643857 kJ/mol
# GULP energy per Si atom -5569.395121 kJ/mol
# Density = 2.672500 g / cm^3
# Si number density = 26.785969 Si / 1000 Ang^3
#
#
#
# Elastic Constant Matrix: (Units=GPa)
#
#
# Indices 1 2 3 4 5 6 
#
# 1 115.4770 53.5649 78.9544 0.0000 0.0000 0.0000
# 2 53.5649 115.3239 34.4568 0.0000 0.0000 0.0000
# 3 78.9544 34.4568 221.6397 0.0000 0.0000 0.0000
# 4 0.0000 0.0000 0.0000 -112.9646 0.0000 0.0000
# 5 0.0000 0.0000 0.0000 0.0000 91.6846 0.0000
# 6 0.0000 0.0000 0.0000 0.0000 0.0000 33.4722
#
#
#
# Elastic Compliance Matrix: (Units=1/GPa)
#
#
# Indices 1 2 3 4 5 6 
#
# 1 0.013918 -0.005226 -0.004146 0.000000 0.000000 0.000000
# 2 -0.005226 0.011056 0.000143 0.000000 0.000000 0.000000
# 3 -0.004146 0.000143 0.005966 0.000000 0.000000 0.000000
# 4 0.000000 0.000000 0.000000 -0.008852 0.000000 0.000000
# 5 0.000000 0.000000 0.000000 0.000000 0.010907 0.000000
# 6 0.000000 0.000000 0.000000 0.000000 0.000000 0.029876
#
#
# Mechanical properties :
#
#
# Convention : Reuss Voigt Hill
#
# Bulk Modulus (GPa) = 80.10885 87.37700 83.74293
# Shear Modulus (GPa) = 58.48666 21.46940 39.97803
#
# Velocity S-wave (km/s) = 4.67784 2.83418 3.86748
# Velocity P-wave (km/s) = 7.69079 6.58797 7.16064
#
# Compressibility (1/GPa) = 0.01248302
#
# Stress axis : x y z
#
# Youngs Moduli (GPa) = 71.84744 90.44943 167.60476
#
# Poissons Ratio (x) = 0.47269 0.69483
# Poissons Ratio (y) = 0.37548 -0.02395
# Poissons Ratio (z) = 0.29786 -0.01292
#
# Static dielectric constant tensor:
#      x y z
#    x 2.187630 0.000000 0.000000 
#    y 0.000000 2.137050 0.000000 
#    z 0.000000 0.000000 2.169680 
# 
# From -- ./inp_files/1583.got.cif
#   From: 2010.05.17/outbox.cif.g08.bks.cpg/sg56_1_cif.got.tgz:1583.got - 2010.06.03 13:42:01.
