data_PCOD9432374
_publ_section_title
;
Structure prediction by ZEFSAII (Michael W. Deem and Ramdas Pophale) SiO2 
 PCOD9432374
Probable space group: P C C N
;
_chemical_formula_sum "Si O2"
_cell_formula_units_Z 60
_cell_length_a 14.469711
_cell_length_b 6.825785
_cell_length_c 25.433746
_cell_angle_alpha 90.000000
_cell_angle_beta 90.000000
_cell_angle_gamma 90.000000
_cell_volume 2512.018258
_symmetry_space_group_name_H-M "P C C N"
_symmetry_group_IT_number 56
_symmetry_cell_setting 'orthorhombic'
loop_
_space_group_symop_operation_xyz
x,y,z
1/2-x,1/2-y,z
1/2+x,-y,1/2-z
-x,1/2+y,1/2-z
-x,-y,-z
1/2+x,1/2+y,-z
1/2-x,y,1/2+z
x,1/2-y,1/2+z
loop_
_atom_site_type_symbol
_atom_site_label
_atom_site_fract_x
_atom_site_fract_y
_atom_site_fract_z
Si Si1 0.916953 0.304193 0.619277
Si Si2 0.652098 0.191831 0.463171
Si Si3 0.642380 0.530956 0.263766
Si Si4 0.501216 0.549357 0.569706
Si Si5 0.120124 0.731388 0.151828
Si Si6 0.348026 0.360745 0.956479
Si Si7 0.449758 0.080724 0.714542
Si Si8 0.250000 0.750000 0.313888
O O1 0.867063 0.489795 0.592237
O O2 0.836015 0.187296 0.649545
O O3 0.995888 0.356243 0.661368
O O4 0.966433 0.170655 0.576022
O O5 0.750000 0.250000 0.486757
O O6 0.587089 0.383479 0.464278
O O7 0.659059 0.161814 0.400065
O O8 0.626838 0.994162 0.492871
O O9 0.673765 0.445364 0.320108
O O10 0.625109 0.762624 0.265554
O O11 0.535215 0.462298 0.253359
O O12 0.706962 0.427292 0.220612
O O13 0.471178 0.628699 0.627605
O O14 0.580180 0.688866 0.550096
O O15 0.101358 0.884151 0.197676
O O16 0.250000 0.250000 0.958837
#
# Coordination Sequence:
#
# PCOD9432374 Si02
#       8
#     8   8   8   8   8   8   8   4
#     4  11  22  45  72 104 136 189 238 298 372 423
#     4  10  25  48  69 101 144 188 239 301 364 432
#     4  11  22  40  67  99 138 184 231 298 359 424
#     4  10  23  44  75  99 140 188 238 297 357 437
#     4  10  22  43  69  97 136 183 238 289 353 433
#     4  12  26  45  72 107 147 183 241 304 368 446
#     4  11  20  40  72  97 134 184 235 290 352 435
#     4  10  26  40  66 102 148 178 242 300 364 446
#
# _framework density 23.885178
#
# number of rings (size 3 to 8) (size 9 to 14) (size 15 to 20)
#    0.800    0.533    4.000    1.200    3.733    0.533 
#    7.200    3.333    0.000    0.000    0.000    0.000 
#    0.000    0.000    0.000    0.000    0.000    0.000 
#
# Total GULP energy -335026.830075 kJ/mol
# GULP energy per Si atom -5583.780501 kJ/mol
# Density = 2.383081 g / cm^3
# Si number density = 23.885178 Si / 1000 Ang^3
#
#
#
# Elastic Constant Matrix: (Units=GPa)
#
#
# Indices 1 2 3 4 5 6 
#
# 1 94.9997 28.1303 4.9618 0.0000 0.0000 0.0000
# 2 28.1303 105.5221 20.4218 0.0000 0.0000 0.0000
# 3 4.9618 20.4218 85.8959 0.0000 0.0000 0.0000
# 4 0.0000 0.0000 0.0000 34.0455 0.0000 0.0000
# 5 0.0000 0.0000 0.0000 0.0000 29.2513 0.0000
# 6 0.0000 0.0000 0.0000 0.0000 0.0000 33.7841
#
#
#
# Elastic Compliance Matrix: (Units=1/GPa)
#
#
# Indices 1 2 3 4 5 6 
#
# 1 0.011429 -0.003060 0.000067 0.000000 0.000000 0.000000
# 2 -0.003060 0.010753 -0.002380 0.000000 0.000000 0.000000
# 3 0.000067 -0.002380 0.012204 0.000000 0.000000 0.000000
# 4 0.000000 0.000000 0.000000 0.029372 0.000000 0.000000
# 5 0.000000 0.000000 0.000000 0.000000 0.034187 0.000000
# 6 0.000000 0.000000 0.000000 0.000000 0.000000 0.029600
#
#
# Mechanical properties :
#
#
# Convention : Reuss Voigt Hill
#
# Bulk Modulus (GPa) = 42.29905 43.71616 43.00760
# Shear Modulus (GPa) = 34.20690 34.94309 34.57499
#
# Velocity S-wave (km/s) = 3.78847 3.82902 3.80880
# Velocity P-wave (km/s) = 6.07325 6.15556 6.11454
#
# Compressibility (1/GPa) = 0.02364119
#
# Stress axis : x y z
#
# Youngs Moduli (GPa) = 87.49781 92.99799 81.94094
#
# Poissons Ratio (x) = 0.28455 -0.00551
# Poissons Ratio (y) = 0.26772 0.19500
# Poissons Ratio (z) = -0.00589 0.22131
#
# Static dielectric constant tensor:
#      x y z
#    x 1.952060 0.000000 0.000000 
#    y 0.000000 2.008010 0.000000 
#    z 0.000000 0.000000 1.965130 
# 
# From -- ./inp_files/22528.got.cif
#   From: 2010.05.17/outbox.cif.g08.bks.cpg/sg56_12_cif.got.tgz:22528.got - 2010.06.03 13:42:01.
