data_PCOD9432273
_publ_section_title
;
Structure prediction by ZEFSAII (Michael W. Deem and Ramdas Pophale) SiO2 
 PCOD9432273
Probable space group: P C C N
;
_chemical_formula_sum "Si O2"
_cell_formula_units_Z 36
_cell_length_a 7.565328
_cell_length_b 18.554566
_cell_length_c 11.462864
_cell_angle_alpha 90.000000
_cell_angle_beta 90.000000
_cell_angle_gamma 90.000000
_cell_volume 1609.058012
_symmetry_space_group_name_H-M "P C C N"
_symmetry_group_IT_number 56
_symmetry_cell_setting 'orthorhombic'
loop_
_space_group_symop_operation_xyz
x,y,z
1/2-x,1/2-y,z
1/2+x,-y,1/2-z
-x,1/2+y,1/2-z
-x,-y,-z
1/2+x,1/2+y,-z
1/2-x,y,1/2+z
x,1/2-y,1/2+z
loop_
_atom_site_type_symbol
_atom_site_label
_atom_site_fract_x
_atom_site_fract_y
_atom_site_fract_z
Si Si1 0.561317 0.221984 0.005778
Si Si2 0.250000 0.250000 0.833083
Si Si3 0.304607 0.034072 0.512653
Si Si4 0.927264 0.658915 0.330402
Si Si5 0.534418 0.425247 0.385186
O O1 0.750000 0.250000 0.967706
O O2 0.983018 0.232413 0.122643
O O3 0.417689 0.248496 0.914101
O O4 0.559360 0.135558 0.987680
O O5 0.236213 0.318118 0.749861
O O6 0.351849 0.111807 0.565387
O O7 0.164387 0.043743 0.406280
O O8 0.500000 0.000000 0.500000
O O9 0.185256 0.984781 0.598433
O O10 0.046173 0.612761 0.241128
#
# Coordination Sequence:
#
# PCOD9432273 Si02
#       5
#     8   4   8   8   8
#     4  11  23  44  67 101 138 178 233 294 345 409
#     4  10  22  42  66  98 136 176 234 290 340 412
#     4  11  24  45  66  94 142 179 219 287 347 407
#     4  11  22  40  71  98 129 185 226 280 348 406
#     4  10  25  43  64 102 134 176 236 276 339 424
#
# _framework density 22.373341
#
# number of rings (size 3 to 8) (size 9 to 14) (size 15 to 20)
#    0.000    1.333    0.000    6.000    3.111    3.556 
#    0.000    4.444    0.000    0.000    0.000    0.000 
#    0.000    0.000    0.000    0.000    0.000    0.000 
#
# Total GULP energy -200774.774410 kJ/mol
# GULP energy per Si atom -5577.077067 kJ/mol
# Density = 2.232242 g / cm^3
# Si number density = 22.373341 Si / 1000 Ang^3
#
#
#
# Elastic Constant Matrix: (Units=GPa)
#
#
# Indices 1 2 3 4 5 6 
#
# 1 149.8471 18.0430 8.1397 0.0000 0.0000 0.0000
# 2 18.0430 68.7694 -0.2890 0.0000 0.0000 0.0000
# 3 8.1397 -0.2890 34.6942 0.0000 0.0000 0.0000
# 4 0.0000 0.0000 0.0000 71.7655 0.0000 0.0000
# 5 0.0000 0.0000 0.0000 0.0000 43.3154 0.0000
# 6 0.0000 0.0000 0.0000 0.0000 0.0000 31.6403
#
#
#
# Elastic Compliance Matrix: (Units=1/GPa)
#
#
# Indices 1 2 3 4 5 6 
#
# 1 0.006985 -0.001840 -0.001654 0.000000 0.000000 0.000000
# 2 -0.001840 0.015026 0.000557 0.000000 0.000000 0.000000
# 3 -0.001654 0.000557 0.029216 0.000000 0.000000 0.000000
# 4 0.000000 0.000000 0.000000 0.013934 0.000000 0.000000
# 5 0.000000 0.000000 0.000000 0.000000 0.023086 0.000000
# 6 0.000000 0.000000 0.000000 0.000000 0.000000 0.031605
#
#
# Mechanical properties :
#
#
# Convention : Reuss Voigt Hill
#
# Bulk Modulus (GPa) = 22.04905 33.89978 27.97442
# Shear Modulus (GPa) = 35.50011 44.50537 40.00274
#
# Velocity S-wave (km/s) = 3.98768 4.46490 4.23302
# Velocity P-wave (km/s) = 5.57482 6.46260 6.03505
#
# Compressibility (1/GPa) = 0.04535342
#
# Stress axis : x y z
#
# Youngs Moduli (GPa) = 143.16772 66.54981 34.22784
#
# Poissons Ratio (x) = 0.12242 0.05661
# Poissons Ratio (y) = 0.26336 -0.01906
# Poissons Ratio (z) = 0.23681 -0.03705
#
# Static dielectric constant tensor:
#      x y z
#    x 1.810390 0.000000 0.000000 
#    y 0.000000 1.896570 0.000000 
#    z 0.000000 0.000000 1.901020 
# 
# From -- ./inp_files/5547.got.cif
#   From: 2010.05.17/outbox.cif.g08.bks.cpg/sg56_3_cif.got.tgz:5547.got - 2010.06.03 13:42:01.
