data_PCOD9432929
_publ_section_title
;
Structure prediction by ZEFSAII (Michael W. Deem and Ramdas Pophale) SiO2 
 PCOD9432929
Probable space group: P C C N
;
_chemical_formula_sum "Si O2"
_cell_formula_units_Z 32
_cell_length_a 11.043238
_cell_length_b 7.367934
_cell_length_c 14.499343
_cell_angle_alpha 90.000000
_cell_angle_beta 90.000000
_cell_angle_gamma 90.000000
_cell_volume 1179.751349
_symmetry_space_group_name_H-M "P C C N"
_symmetry_group_IT_number 56
_symmetry_cell_setting 'orthorhombic'
loop_
_space_group_symop_operation_xyz
x,y,z
1/2-x,1/2-y,z
1/2+x,-y,1/2-z
-x,1/2+y,1/2-z
-x,-y,-z
1/2+x,1/2+y,-z
1/2-x,y,1/2+z
x,1/2-y,1/2+z
loop_
_atom_site_type_symbol
_atom_site_label
_atom_site_fract_x
_atom_site_fract_y
_atom_site_fract_z
Si Si1 0.360685 0.631034 0.510330
Si Si2 0.100762 0.269201 0.076117
Si Si3 0.916002 0.088154 0.838367
Si Si4 0.809140 0.922417 0.230003
O O1 0.250000 0.750000 0.481008
O O2 0.464242 0.674919 0.439317
O O3 0.338352 0.416651 0.509852
O O4 0.400949 0.715610 0.611553
O O5 0.110124 0.054786 0.079258
O O6 0.143947 0.333889 0.175093
O O7 0.807371 0.051040 0.762171
O O8 0.055892 0.036736 0.812177
O O9 0.750000 0.750000 0.177863
#
# Coordination Sequence:
#
# PCOD9432929 Si02
#       4
#     8   8   8   8
#     4  11  23  42  71 100 139 187 235 292 354 416
#     4  10  24  44  63 101 138 180 234 284 353 420
#     4  11  24  47  70 101 143 187 224 303 349 426
#     4  10  24  44  71 102 142 180 237 287 361 423
#
# _framework density 27.124361
#
# number of rings (size 3 to 8) (size 9 to 14) (size 15 to 20)
#    0.000    1.500    2.500    0.750    7.000    2.000 
#    4.500    0.000    0.000    0.000    0.000    0.000 
#    0.000    0.000    0.000    0.000    0.000    0.000 
#
# Total GULP energy -178154.415022 kJ/mol
# GULP energy per Si atom -5567.325469 kJ/mol
# Density = 2.706262 g / cm^3
# Si number density = 27.124361 Si / 1000 Ang^3
#
#
#
# Elastic Constant Matrix: (Units=GPa)
#
#
# Indices 1 2 3 4 5 6 
#
# 1 271.1376 34.3935 61.7326 0.0000 0.0000 0.0000
# 2 34.3935 168.0213 24.6876 0.0000 0.0000 0.0000
# 3 61.7326 24.6876 57.5175 0.0000 0.0000 0.0000
# 4 0.0000 0.0000 0.0000 -13.3617 0.0000 0.0000
# 5 0.0000 0.0000 0.0000 0.0000 140.7901 0.0000
# 6 0.0000 0.0000 0.0000 0.0000 0.0000 38.3405
#
#
#
# Elastic Compliance Matrix: (Units=1/GPa)
#
#
# Indices 1 2 3 4 5 6 
#
# 1 0.004890 -0.000245 -0.005143 0.000000 0.000000 0.000000
# 2 -0.000245 0.006365 -0.002468 0.000000 0.000000 0.000000
# 3 -0.005143 -0.002468 0.023966 0.000000 0.000000 0.000000
# 4 0.000000 0.000000 0.000000 -0.074841 0.000000 0.000000
# 5 0.000000 0.000000 0.000000 0.000000 0.007103 0.000000
# 6 0.000000 0.000000 0.000000 0.000000 0.000000 0.026082
#
#
# Mechanical properties :
#
#
# Convention : Reuss Voigt Hill
#
# Bulk Modulus (GPa) = 51.26548 82.03375 66.64962
# Shear Modulus (GPa) = 316.83296 58.21130 187.52213
#
# Velocity S-wave (km/s) = 10.81948 4.63762 8.32372
# Velocity P-wave (km/s) = 13.22961 7.68023 10.81685
#
# Compressibility (1/GPa) = 0.01950630
#
# Stress axis : x y z
#
# Youngs Moduli (GPa) = 204.48494 157.12058 41.72601
#
# Poissons Ratio (x) = 0.03854 0.21461
# Poissons Ratio (y) = 0.05016 0.10300
# Poissons Ratio (z) = 1.05175 0.38785
#
# Static dielectric constant tensor:
#      x y z
#    x 1.948160 0.000000 0.000000 
#    y 0.000000 2.210290 0.000000 
#    z 0.000000 0.000000 2.127870 
# 
# From -- ./inp_files/11231.got.cif
#   From: 2010.05.17/outbox.cif.g08.bks.cpg/sg56_6_cif.got.tgz:11231.got - 2010.06.03 13:42:01.
