data_PCOD9433234
_publ_section_title
;
Structure prediction by ZEFSAII (Michael W. Deem and Ramdas Pophale) SiO2 
 PCOD9433234
Probable space group: P C C N
;
_chemical_formula_sum "Si O2"
_cell_formula_units_Z 60
_cell_length_a 16.887305
_cell_length_b 9.001936
_cell_length_c 18.488652
_cell_angle_alpha 90.000000
_cell_angle_beta 90.000000
_cell_angle_gamma 90.000000
_cell_volume 2810.616013
_symmetry_space_group_name_H-M "P C C N"
_symmetry_group_IT_number 56
_symmetry_cell_setting 'orthorhombic'
loop_
_space_group_symop_operation_xyz
x,y,z
1/2-x,1/2-y,z
1/2+x,-y,1/2-z
-x,1/2+y,1/2-z
-x,-y,-z
1/2+x,1/2+y,-z
1/2-x,y,1/2+z
x,1/2-y,1/2+z
loop_
_atom_site_type_symbol
_atom_site_label
_atom_site_fract_x
_atom_site_fract_y
_atom_site_fract_z
Si Si1 0.603764 0.421881 0.056892
Si Si2 0.453249 0.434354 0.241214
Si Si3 0.249417 0.417958 0.384859
Si Si4 0.827779 0.821908 0.269362
Si Si5 0.750000 0.250000 0.253196
Si Si6 0.600406 0.103366 0.817445
Si Si7 0.118913 0.876665 0.355863
Si Si8 0.959883 0.122552 0.898627
O O1 0.691847 0.473251 0.072940
O O2 0.592919 0.261914 0.095787
O O3 0.547139 0.554177 0.087037
O O4 0.586178 0.404756 0.972531
O O5 0.390351 0.304113 0.253755
O O6 0.544227 0.382372 0.245984
O O7 0.448326 0.550441 0.307075
O O8 0.431518 0.522032 0.168796
O O9 0.250000 0.250000 0.412194
O O10 0.209656 0.400695 0.303120
O O11 0.336672 0.486246 0.394168
O O12 0.750000 0.750000 0.304750
O O13 0.876307 0.930953 0.321342
O O14 0.812367 0.168176 0.304008
O O15 0.689943 0.167449 0.199197
O O16 0.553987 0.206658 0.874523
#
# Coordination Sequence:
#
# PCOD9433234 Si02
#       8
#     8   8   8   8   4   8   8   8
#     4  11  25  48  63  95 143 189 233 284 352 433
#     4  12  23  41  71 111 130 175 237 303 351 407
#     4  11  20  39  71  99 132 183 234 286 341 425
#     4  11  22  41  65 106 142 165 223 306 349 398
#     4  12  20  38  64 100 134 170 228 284 338 412
#     4  12  24  40  70 103 136 178 231 290 356 416
#     4  12  21  40  70 101 134 183 239 287 348 420
#     4  11  27  44  67  97 139 185 230 293 356 420
#
# _framework density 21.347632999999998
#
# number of rings (size 3 to 8) (size 9 to 14) (size 15 to 20)
#    0.000    0.533    6.667    3.200    1.867    0.000 
#    2.400    2.667    0.000    0.000    0.000    0.000 
#    0.000    0.000    0.000    0.000    0.000    0.000 
#
# Total GULP energy -334622.371106 kJ/mol
# GULP energy per Si atom -5577.039518 kJ/mol
# Density = 2.129904 g / cm^3
# Si number density = 21.347633 Si / 1000 Ang^3
#
#
#
# Elastic Constant Matrix: (Units=GPa)
#
#
# Indices 1 2 3 4 5 6 
#
# 1 101.9160 39.5480 26.9819 0.0000 0.0000 0.0000
# 2 39.5480 113.1075 36.1211 0.0000 0.0000 0.0000
# 3 26.9819 36.1211 81.7448 0.0000 0.0000 0.0000
# 4 0.0000 0.0000 0.0000 18.7241 0.0000 0.0000
# 5 0.0000 0.0000 0.0000 0.0000 17.0862 0.0000
# 6 0.0000 0.0000 0.0000 0.0000 0.0000 47.2846
#
#
#
# Elastic Compliance Matrix: (Units=1/GPa)
#
#
# Indices 1 2 3 4 5 6 
#
# 1 0.011743 -0.003339 -0.002401 0.000000 0.000000 0.000000
# 2 -0.003339 0.011243 -0.003866 0.000000 0.000000 0.000000
# 3 -0.002401 -0.003866 0.014734 0.000000 0.000000 0.000000
# 4 0.000000 0.000000 0.000000 0.053407 0.000000 0.000000
# 5 0.000000 0.000000 0.000000 0.000000 0.058527 0.000000
# 6 0.000000 0.000000 0.000000 0.000000 0.000000 0.021149
#
#
# Mechanical properties :
#
#
# Convention : Reuss Voigt Hill
#
# Bulk Modulus (GPa) = 54.02861 55.78560 54.90711
# Shear Modulus (GPa) = 25.48622 29.56013 27.52317
#
# Velocity S-wave (km/s) = 3.45899 3.72520 3.59456
# Velocity P-wave (km/s) = 6.42780 6.68517 6.55775
#
# Compressibility (1/GPa) = 0.01850871
#
# Stress axis : x y z
#
# Youngs Moduli (GPa) = 85.15417 88.94135 67.87105
#
# Poissons Ratio (x) = 0.29701 0.16293
# Poissons Ratio (y) = 0.28437 0.26238
# Poissons Ratio (z) = 0.20442 0.34384
#
# Static dielectric constant tensor:
#      x y z
#    x 1.815590 0.000000 0.000000 
#    y 0.000000 1.879660 0.000000 
#    z 0.000000 0.000000 1.770960 
# 
# From -- ./inp_files/16641.got.cif
#   From: 2010.05.17/outbox.cif.g08.bks.cpg/sg56_9_cif.got.tgz:16641.got - 2010.06.03 13:42:01.
