data_PCOD9433122
_publ_section_title
;
Structure prediction by ZEFSAII (Michael W. Deem and Ramdas Pophale) SiO2 
 PCOD9433122
Probable space group: P C C N
;
_chemical_formula_sum "Si O2"
_cell_formula_units_Z 28
_cell_length_a 18.784884
_cell_length_b 5.074101
_cell_length_c 10.947657
_cell_angle_alpha 90.000000
_cell_angle_beta 90.000000
_cell_angle_gamma 90.000000
_cell_volume 1043.491239
_symmetry_space_group_name_H-M "P C C N"
_symmetry_group_IT_number 56
_symmetry_cell_setting 'orthorhombic'
loop_
_space_group_symop_operation_xyz
x,y,z
1/2-x,1/2-y,z
1/2+x,-y,1/2-z
-x,1/2+y,1/2-z
-x,-y,-z
1/2+x,1/2+y,-z
1/2-x,y,1/2+z
x,1/2-y,1/2+z
loop_
_atom_site_type_symbol
_atom_site_label
_atom_site_fract_x
_atom_site_fract_y
_atom_site_fract_z
Si Si1 0.250000 0.250000 0.510605
Si Si2 0.982589 0.718538 0.314795
Si Si3 0.624171 0.069263 0.583174
Si Si4 0.651317 0.422819 0.351474
O O1 0.180522 0.331395 0.434166
O O2 0.273486 0.477621 0.601809
O O3 0.039828 0.548917 0.392967
O O4 0.976917 0.498541 0.208291
O O5 0.905183 0.829236 0.350379
O O6 0.626795 0.231069 0.458457
O O7 0.651116 0.183966 0.713826
#
# Coordination Sequence:
#
# PCOD9433122 Si02
#       4
#     4   8   8   8
#     4  12  28  44  78 114 168 214 266 326 404 500
#     4  10  25  49  86 119 158 207 274 345 403 475
#     4  11  27  50  78 116 158 209 270 332 407 475
#     4  11  27  49  79 113 159 211 273 333 408 479
#
# _framework density 26.832998
#
# number of rings (size 3 to 8) (size 9 to 14) (size 15 to 20)
#    0.000    1.143    0.000    2.571   16.000    5.714 
#    0.000    0.000    0.000    0.000    0.000    0.000 
#    0.000    0.000    0.000    0.000    0.000    0.000 
#
# Total GULP energy -156118.037347 kJ/mol
# GULP energy per Si atom -5575.644191 kJ/mol
# Density = 2.677192 g / cm^3
# Si number density = 26.832998 Si / 1000 Ang^3
#
#
#
# Elastic Constant Matrix: (Units=GPa)
#
#
# Indices 1 2 3 4 5 6 
#
# 1 81.8323 46.8920 12.6368 0.0000 0.0000 0.0000
# 2 46.8920 134.4799 31.3787 0.0000 0.0000 0.0000
# 3 12.6368 31.3787 159.3340 0.0000 0.0000 0.0000
# 4 0.0000 0.0000 0.0000 -32.9812 0.0000 0.0000
# 5 0.0000 0.0000 0.0000 0.0000 37.6875 0.0000
# 6 0.0000 0.0000 0.0000 0.0000 0.0000 60.0365
#
#
#
# Elastic Compliance Matrix: (Units=1/GPa)
#
#
# Indices 1 2 3 4 5 6 
#
# 1 0.015276 -0.005287 -0.000170 0.000000 0.000000 0.000000
# 2 -0.005287 0.009624 -0.001476 0.000000 0.000000 0.000000
# 3 -0.000170 -0.001476 0.006580 0.000000 0.000000 0.000000
# 4 0.000000 0.000000 0.000000 -0.030320 0.000000 0.000000
# 5 0.000000 0.000000 0.000000 0.000000 0.026534 0.000000
# 6 0.000000 0.000000 0.000000 0.000000 0.000000 0.016657
#
#
# Mechanical properties :
#
#
# Convention : Reuss Voigt Hill
#
# Bulk Modulus (GPa) = 56.77381 61.94014 59.35697
# Shear Modulus (GPa) = 78.01764 31.93114 54.97439
#
# Velocity S-wave (km/s) = 5.39800 3.45337 4.53123
# Velocity P-wave (km/s) = 7.74954 6.24778 7.03882
#
# Compressibility (1/GPa) = 0.01761376
#
# Stress axis : x y z
#
# Youngs Moduli (GPa) = 65.46250 103.90760 151.96844
#
# Poissons Ratio (x) = 0.54934 0.02589
# Poissons Ratio (y) = 0.34609 0.22431
# Poissons Ratio (z) = 0.01115 0.15337
#
# Static dielectric constant tensor:
#      x y z
#    x 2.162350 0.000000 0.000000 
#    y 0.000000 2.503400 0.000000 
#    z 0.000000 0.000000 2.206180 
# 
# From -- ./inp_files/5394.got.cif
#   From: 2010.05.17/outbox.cif.g08.bks.cpg/sg56_3_cif.got.tgz:5394.got - 2010.06.03 13:42:01.
