data_PCOD9433340
_publ_section_title
;
Structure prediction by ZEFSAII (Michael W. Deem and Ramdas Pophale) SiO2 
 PCOD9433340
Probable space group: P C C N
;
_chemical_formula_sum "Si O2"
_cell_formula_units_Z 48
_cell_length_a 5.290715
_cell_length_b 17.430098
_cell_length_c 24.858029
_cell_angle_alpha 90.000000
_cell_angle_beta 90.000000
_cell_angle_gamma 90.000000
_cell_volume 2292.349787
_symmetry_space_group_name_H-M "P C C N"
_symmetry_group_IT_number 56
_symmetry_cell_setting 'orthorhombic'
loop_
_space_group_symop_operation_xyz
x,y,z
1/2-x,1/2-y,z
1/2+x,-y,1/2-z
-x,1/2+y,1/2-z
-x,-y,-z
1/2+x,1/2+y,-z
1/2-x,y,1/2+z
x,1/2-y,1/2+z
loop_
_atom_site_type_symbol
_atom_site_label
_atom_site_fract_x
_atom_site_fract_y
_atom_site_fract_z
Si Si1 0.989840 0.467648 0.060174
Si Si2 0.204442 0.162131 0.834121
Si Si3 0.511784 0.036806 0.386481
Si Si4 0.371112 0.551056 0.703656
Si Si5 0.002529 0.800532 0.394077
Si Si6 0.945394 0.378406 0.221993
O O1 0.730893 0.492945 0.090499
O O2 0.008933 0.376220 0.068608
O O3 0.239289 0.505146 0.085837
O O4 0.000000 0.500000 0.000000
O O5 0.250000 0.250000 0.845014
O O6 0.445759 0.104802 0.831549
O O7 0.045495 0.127279 0.884305
O O8 0.081887 0.158705 0.773865
O O9 0.598824 0.032787 0.323901
O O10 0.336135 0.604197 0.756264
O O11 0.471579 0.466156 0.711671
O O12 0.250000 0.750000 0.405857
O O13 0.027022 0.831267 0.332364
O O14 0.750000 0.750000 0.398943
#
# Coordination Sequence:
#
# PCOD9433340 Si02
#       6
#     8   8   8   8   8   8
#     4  12  26  50  80 102 132 183 244 295 362 431
#     4  11  24  40  64 102 147 185 231 282 341 407
#     4  11  23  46  72 102 133 183 233 285 347 425
#     4  11  22  39  68 100 139 192 239 272 327 438
#     4  12  28  45  71 107 149 178 228 299 364 414
#     4  11  23  36  66  96 148 188 235 266 344 414
#
# _framework density 20.939211
#
# number of rings (size 3 to 8) (size 9 to 14) (size 15 to 20)
#    0.000    0.667    5.000    2.000    7.000    2.000 
#    0.000    2.500    0.000    0.000    0.000    0.000 
#    0.000    0.000    0.000    0.000    0.000    0.000 
#
# Total GULP energy -267434.492208 kJ/mol
# GULP energy per Si atom -5571.551921 kJ/mol
# Density = 2.089155 g / cm^3
# Si number density = 20.939211 Si / 1000 Ang^3
#
#
#
# Elastic Constant Matrix: (Units=GPa)
#
#
# Indices 1 2 3 4 5 6 
#
# 1 119.9770 66.8113 39.2893 0.0000 0.0000 0.0000
# 2 66.8113 179.8884 59.0782 0.0000 0.0000 0.0000
# 3 39.2893 59.0782 80.2472 0.0000 0.0000 0.0000
# 4 0.0000 0.0000 0.0000 21.1942 0.0000 0.0000
# 5 0.0000 0.0000 0.0000 0.0000 21.5160 0.0000
# 6 0.0000 0.0000 0.0000 0.0000 0.0000 29.9407
#
#
#
# Elastic Compliance Matrix: (Units=1/GPa)
#
#
# Indices 1 2 3 4 5 6 
#
# 1 0.011084 -0.003079 -0.003160 0.000000 0.000000 0.000000
# 2 -0.003079 0.008187 -0.004520 0.000000 0.000000 0.000000
# 3 -0.003160 -0.004520 0.017336 0.000000 0.000000 0.000000
# 4 0.000000 0.000000 0.000000 0.047183 0.000000 0.000000
# 5 0.000000 0.000000 0.000000 0.000000 0.046477 0.000000
# 6 0.000000 0.000000 0.000000 0.000000 0.000000 0.033399
#
#
# Mechanical properties :
#
#
# Convention : Reuss Voigt Hill
#
# Bulk Modulus (GPa) = 66.27060 78.94113 72.60586
# Shear Modulus (GPa) = 26.28617 28.85912 27.57264
#
# Velocity S-wave (km/s) = 3.54694 3.71648 3.63270
# Velocity P-wave (km/s) = 6.96363 7.49655 7.23500
#
# Compressibility (1/GPa) = 0.01508965
#
# Stress axis : x y z
#
# Youngs Moduli (GPa) = 90.21707 122.14667 57.68270
#
# Poissons Ratio (x) = 0.37608 0.18229
# Poissons Ratio (y) = 0.27777 0.26071
# Poissons Ratio (z) = 0.28511 0.55207
#
# Static dielectric constant tensor:
#      x y z
#    x 1.911790 0.000000 0.000000 
#    y 0.000000 1.794410 0.000000 
#    z 0.000000 0.000000 1.845880 
# 
# From -- ./inp_files/21656.got.cif
#   From: 2010.05.17/outbox.cif.g08.bks.cpg/sg56_11_cif.got.tgz:21656.got - 2010.06.03 13:42:01.
