data_PCOD9433494
_publ_section_title
;
Structure prediction by ZEFSAII (Michael W. Deem and Ramdas Pophale) SiO2 
 PCOD9433494
Probable space group: P C C N
;
_chemical_formula_sum "Si O2"
_cell_formula_units_Z 48
_cell_length_a 18.022757
_cell_length_b 9.131964
_cell_length_c 14.366978
_cell_angle_alpha 90.000000
_cell_angle_beta 90.000000
_cell_angle_gamma 90.000000
_cell_volume 2364.562755
_symmetry_space_group_name_H-M "P C C N"
_symmetry_group_IT_number 56
_symmetry_cell_setting 'orthorhombic'
loop_
_space_group_symop_operation_xyz
x,y,z
1/2-x,1/2-y,z
1/2+x,-y,1/2-z
-x,1/2+y,1/2-z
-x,-y,-z
1/2+x,1/2+y,-z
1/2-x,y,1/2+z
x,1/2-y,1/2+z
loop_
_atom_site_type_symbol
_atom_site_label
_atom_site_fract_x
_atom_site_fract_y
_atom_site_fract_z
Si Si1 0.654605 0.387769 0.599183
Si Si2 0.329953 0.168438 0.565123
Si Si3 0.173715 0.945558 0.898328
Si Si4 0.558772 0.591312 0.231062
Si Si5 0.924372 0.549591 0.949354
Si Si6 0.419027 0.076625 0.739580
O O1 0.637971 0.215696 0.601684
O O2 0.740003 0.419093 0.622044
O O3 0.636785 0.445449 0.495994
O O4 0.608049 0.479075 0.674300
O O5 0.250000 0.250000 0.565155
O O6 0.392887 0.286357 0.533907
O O7 0.353668 0.112507 0.666985
O O8 0.330223 0.033213 0.494726
O O9 0.131879 0.042662 0.822772
O O10 0.566303 0.541875 0.338669
O O11 0.551522 0.765729 0.227512
O O12 0.486306 0.510706 0.191611
O O13 0.000000 0.500000 0.000000
#
# Coordination Sequence:
#
# PCOD9433494 Si02
#       6
#     8   8   8   8   8   8
#     4  11  24  45  67  98 140 184 228 294 348 411
#     4  11  25  46  72 104 135 185 239 286 355 428
#     4  11  26  42  68 101 136 182 238 285 351 416
#     4  11  25  41  68 103 132 184 230 290 350 414
#     4  11  23  44  70  98 137 181 227 288 351 415
#     4  11  25  43  70 100 142 180 236 290 351 422
#
# _framework density 20.299735999999999
#
# number of rings (size 3 to 8) (size 9 to 14) (size 15 to 20)
#    0.000    1.000    3.333    2.000    7.000    3.333 
#    0.000    3.333    0.000    0.000    0.000    0.000 
#    0.000    0.000    0.000    0.000    0.000    0.000 
#
# Total GULP energy -268216.001331 kJ/mol
# GULP energy per Si atom -5587.833361 kJ/mol
# Density = 2.025353 g / cm^3
# Si number density = 20.299736 Si / 1000 Ang^3
#
#
#
# Elastic Constant Matrix: (Units=GPa)
#
#
# Indices 1 2 3 4 5 6 
#
# 1 71.1755 57.0008 28.2091 0.0000 0.0000 0.0000
# 2 57.0008 132.5161 44.6820 0.0000 0.0000 0.0000
# 3 28.2091 44.6820 56.3830 0.0000 0.0000 0.0000
# 4 0.0000 0.0000 0.0000 29.0371 0.0000 0.0000
# 5 0.0000 0.0000 0.0000 0.0000 36.4344 0.0000
# 6 0.0000 0.0000 0.0000 0.0000 0.0000 31.1013
#
#
#
# Elastic Compliance Matrix: (Units=1/GPa)
#
#
# Indices 1 2 3 4 5 6 
#
# 1 0.022371 -0.007981 -0.004867 0.000000 0.000000 0.000000
# 2 -0.007981 0.013146 -0.006424 0.000000 0.000000 0.000000
# 3 -0.004867 -0.006424 0.025262 0.000000 0.000000 0.000000
# 4 0.000000 0.000000 0.000000 0.034439 0.000000 0.000000
# 5 0.000000 0.000000 0.000000 0.000000 0.027447 0.000000
# 6 0.000000 0.000000 0.000000 0.000000 0.000000 0.032153
#
#
# Mechanical properties :
#
#
# Convention : Reuss Voigt Hill
#
# Bulk Modulus (GPa) = 44.97946 57.76204 51.37075
# Shear Modulus (GPa) = 24.90368 27.99341 26.44855
#
# Velocity S-wave (km/s) = 3.50637 3.71752 3.61349
# Velocity P-wave (km/s) = 6.21278 6.85150 6.53994
#
# Compressibility (1/GPa) = 0.02223237
#
# Stress axis : x y z
#
# Youngs Moduli (GPa) = 44.70114 76.07121 39.58505
#
# Poissons Ratio (x) = 0.60716 0.19267
# Poissons Ratio (y) = 0.35678 0.25431
# Poissons Ratio (z) = 0.21757 0.48870
#
# Static dielectric constant tensor:
#      x y z
#    x 1.746010 0.000000 0.000000 
#    y 0.000000 1.713480 0.000000 
#    z 0.000000 0.000000 1.705210 
# 
# From -- ./inp_files/10625.got.cif
#   From: 2010.05.17/outbox.cif.g08.bks.cpg/sg56_6_cif.got.tgz:10625.got - 2010.06.03 13:42:01.
