data_PCOD9433085
_publ_section_title
;
Structure prediction by ZEFSAII (Michael W. Deem and Ramdas Pophale) SiO2 
 PCOD9433085
Probable space group: P C C N
;
_chemical_formula_sum "Si O2"
_cell_formula_units_Z 36
_cell_length_a 9.155486
_cell_length_b 7.756583
_cell_length_c 22.597886
_cell_angle_alpha 90.000000
_cell_angle_beta 90.000000
_cell_angle_gamma 90.000000
_cell_volume 1604.795361
_symmetry_space_group_name_H-M "P C C N"
_symmetry_group_IT_number 56
_symmetry_cell_setting 'orthorhombic'
loop_
_space_group_symop_operation_xyz
x,y,z
1/2-x,1/2-y,z
1/2+x,-y,1/2-z
-x,1/2+y,1/2-z
-x,-y,-z
1/2+x,1/2+y,-z
1/2-x,y,1/2+z
x,1/2-y,1/2+z
loop_
_atom_site_type_symbol
_atom_site_label
_atom_site_fract_x
_atom_site_fract_y
_atom_site_fract_z
Si Si1 0.750555 0.540698 0.941085
Si Si2 0.980073 0.386508 0.626234
Si Si3 0.743366 0.546100 0.713063
Si Si4 0.418042 0.052356 0.174555
Si Si5 0.750000 0.250000 0.037556
O O1 0.750000 0.750000 0.952380
O O2 0.593935 0.501307 0.910691
O O3 0.869673 0.495658 0.890847
O O4 0.767326 0.420372 0.997596
O O5 0.859559 0.479664 0.665086
O O6 0.890095 0.273363 0.579193
O O7 0.075377 0.260540 0.667758
O O8 0.750000 0.750000 0.712504
O O9 0.803909 0.486377 0.776754
O O10 0.580512 0.491955 0.696016
#
# Coordination Sequence:
#
# PCOD9433085 Si02
#       5
#     8   8   8   8   4
#     4  10  25  44  72 100 144 184 240 287 351 414
#     4  11  24  48  65 101 145 182 231 295 352 417
#     4  12  24  40  72 101 137 177 234 288 367 428
#     4  11  23  46  66 103 137 181 226 298 354 428
#     4  12  24  46  72 102 142 196 234 296 338 420
#
# _framework density 22.432767999999999
#
# number of rings (size 3 to 8) (size 9 to 14) (size 15 to 20)
#    0.000    0.889    2.222    5.333    3.111    4.444 
#    4.000    0.000    0.000    0.000    0.000    0.000 
#    0.000    0.000    0.000    0.000    0.000    0.000 
#
# Total GULP energy -201394.443567 kJ/mol
# GULP energy per Si atom -5594.290099 kJ/mol
# Density = 2.238171 g / cm^3
# Si number density = 22.432768 Si / 1000 Ang^3
#
#
#
# Elastic Constant Matrix: (Units=GPa)
#
#
# Indices 1 2 3 4 5 6 
#
# 1 122.5512 7.0066 53.4659 0.0000 0.0000 0.0000
# 2 7.0066 61.0973 51.1455 0.0000 0.0000 0.0000
# 3 53.4659 51.1455 133.7966 0.0000 0.0000 0.0000
# 4 0.0000 0.0000 0.0000 35.7148 0.0000 0.0000
# 5 0.0000 0.0000 0.0000 0.0000 35.9843 0.0000
# 6 0.0000 0.0000 0.0000 0.0000 0.0000 25.0155
#
#
#
# Elastic Compliance Matrix: (Units=1/GPa)
#
#
# Indices 1 2 3 4 5 6 
#
# 1 0.010326 0.003338 -0.005402 0.000000 0.000000 0.000000
# 2 0.003338 0.025149 -0.010947 0.000000 0.000000 0.000000
# 3 -0.005402 -0.010947 0.013818 0.000000 0.000000 0.000000
# 4 0.000000 0.000000 0.000000 0.028000 0.000000 0.000000
# 5 0.000000 0.000000 0.000000 0.000000 0.027790 0.000000
# 6 0.000000 0.000000 0.000000 0.000000 0.000000 0.039975
#
#
# Mechanical properties :
#
#
# Convention : Reuss Voigt Hill
#
# Bulk Modulus (GPa) = 42.97524 60.07569 51.52546
# Shear Modulus (GPa) = 27.95849 33.06473 30.51161
#
# Velocity S-wave (km/s) = 3.53416 3.84337 3.69200
# Velocity P-wave (km/s) = 5.98771 6.82157 6.41819
#
# Compressibility (1/GPa) = 0.02326921
#
# Stress axis : x y z
#
# Youngs Moduli (GPa) = 96.84367 39.76336 72.37120
#
# Poissons Ratio (x) = -0.13274 0.39098
# Poissons Ratio (y) = -0.32329 0.79228
# Poissons Ratio (z) = 0.52319 0.43531
#
# Static dielectric constant tensor:
#      x y z
#    x 1.890420 0.000000 0.000000 
#    y 0.000000 1.848830 0.000000 
#    z 0.000000 0.000000 1.823560 
# 
# From -- ./inp_files/17878.got.cif
#   From: 2010.05.17/outbox.cif.g08.bks.cpg/sg56_9_cif.got.tgz:17878.got - 2010.06.03 13:42:01.
