data_PCOD9433680
_publ_section_title
;
Structure prediction by ZEFSAII (Michael W. Deem and Ramdas Pophale) SiO2 
 PCOD9433680
Probable space group: P C C N
;
_chemical_formula_sum "Si O2"
_cell_formula_units_Z 40
_cell_length_a 8.623617
_cell_length_b 12.516412
_cell_length_c 16.999736
_cell_angle_alpha 90.000000
_cell_angle_beta 90.000000
_cell_angle_gamma 90.000000
_cell_volume 1834.896141
_symmetry_space_group_name_H-M "P C C N"
_symmetry_group_IT_number 56
_symmetry_cell_setting 'orthorhombic'
loop_
_space_group_symop_operation_xyz
x,y,z
1/2-x,1/2-y,z
1/2+x,-y,1/2-z
-x,1/2+y,1/2-z
-x,-y,-z
1/2+x,1/2+y,-z
1/2-x,y,1/2+z
x,1/2-y,1/2+z
loop_
_atom_site_type_symbol
_atom_site_label
_atom_site_fract_x
_atom_site_fract_y
_atom_site_fract_z
Si Si1 0.624914 0.389019 0.675953
Si Si2 0.539810 0.334831 0.120413
Si Si3 0.938250 0.444814 0.920676
Si Si4 0.112243 0.547688 0.650558
Si Si5 0.428476 0.214130 0.444542
O O1 0.781212 0.372749 0.625452
O O2 0.530166 0.280054 0.661835
O O3 0.525929 0.489597 0.647323
O O4 0.665597 0.402495 0.767104
O O5 0.442982 0.427031 0.162025
O O6 0.480391 0.321214 0.031672
O O7 0.755099 0.454868 0.909465
O O8 0.977536 0.320271 0.921601
O O9 0.000000 0.500000 0.000000
O O10 0.974218 0.618723 0.614084
O O11 0.250000 0.250000 0.443884
#
# Coordination Sequence:
#
# PCOD9433680 Si02
#       5
#     8   8   8   8   8
#     4  11  26  45  73 105 145 191 234 307 363 429
#     4  11  25  48  69 102 145 186 242 291 363 428
#     4  12  24  45  74 106 142 192 244 295 367 431
#     4  12  27  44  75 107 147 186 243 304 360 431
#     4  12  26  46  73 105 141 196 244 295 354 435
#
# _framework density 21.799598
#
# number of rings (size 3 to 8) (size 9 to 14) (size 15 to 20)
#    0.000    0.400    2.000    6.000   11.200    0.000 
#    0.000    0.000    0.000    0.000    0.000    0.000 
#    0.000    0.000    0.000    0.000    0.000    0.000 
#
# Total GULP energy -224014.056475 kJ/mol
# GULP energy per Si atom -5600.351412 kJ/mol
# Density = 2.174998 g / cm^3
# Si number density = 21.799598 Si / 1000 Ang^3
#
#
#
# Elastic Constant Matrix: (Units=GPa)
#
#
# Indices 1 2 3 4 5 6 
#
# 1 101.6656 -8.0849 28.9051 0.0000 0.0000 0.0000
# 2 -8.0849 24.1003 11.3052 0.0000 0.0000 0.0000
# 3 28.9051 11.3052 78.2716 0.0000 0.0000 0.0000
# 4 0.0000 0.0000 0.0000 15.4219 0.0000 0.0000
# 5 0.0000 0.0000 0.0000 0.0000 9.3115 0.0000
# 6 0.0000 0.0000 0.0000 0.0000 0.0000 37.6061
#
#
#
# Elastic Compliance Matrix: (Units=1/GPa)
#
#
# Indices 1 2 3 4 5 6 
#
# 1 0.011862 0.006473 -0.005316 0.000000 0.000000 0.000000
# 2 0.006473 0.048041 -0.009329 0.000000 0.000000 0.000000
# 3 -0.005316 -0.009329 0.016086 0.000000 0.000000 0.000000
# 4 0.000000 0.000000 0.000000 0.064843 0.000000 0.000000
# 5 0.000000 0.000000 0.000000 0.000000 0.107394 0.000000
# 6 0.000000 0.000000 0.000000 0.000000 0.000000 0.026591
#
#
# Mechanical properties :
#
#
# Convention : Reuss Voigt Hill
#
# Bulk Modulus (GPa) = 16.76564 29.80982 23.28773
# Shear Modulus (GPa) = 16.07494 23.92873 20.00184
#
# Velocity S-wave (km/s) = 2.71845 3.31670 3.03237
# Velocity P-wave (km/s) = 4.19056 5.32649 4.79230
#
# Compressibility (1/GPa) = 0.05964580
#
# Stress axis : x y z
#
# Youngs Moduli (GPa) = 84.30137 20.81561 62.16400
#
# Poissons Ratio (x) = -0.13474 0.33043
# Poissons Ratio (y) = -0.54567 0.57994
# Poissons Ratio (z) = 0.44811 0.19419
#
# Static dielectric constant tensor:
#      x y z
#    x 1.796720 0.000000 0.000000 
#    y 0.000000 1.770210 0.000000 
#    z 0.000000 0.000000 1.785080 
# 
# From -- ./inp_files/14456.got.cif
#   From: 2010.05.17/outbox.cif.g08.bks.cpg/sg56_8_cif.got.tgz:14456.got - 2010.06.03 13:42:01.
