data_PCOD9433895
_publ_section_title
;
Structure prediction by ZEFSAII (Michael W. Deem and Ramdas Pophale) SiO2 
 PCOD9433895
Probable space group: P C C N
;
_chemical_formula_sum "Si O2"
_cell_formula_units_Z 48
_cell_length_a 7.234343
_cell_length_b 19.936261
_cell_length_c 11.434716
_cell_angle_alpha 90.000000
_cell_angle_beta 90.000000
_cell_angle_gamma 90.000000
_cell_volume 1649.180494
_symmetry_space_group_name_H-M "P C C N"
_symmetry_group_IT_number 56
_symmetry_cell_setting 'orthorhombic'
loop_
_space_group_symop_operation_xyz
x,y,z
1/2-x,1/2-y,z
1/2+x,-y,1/2-z
-x,1/2+y,1/2-z
-x,-y,-z
1/2+x,1/2+y,-z
1/2-x,y,1/2+z
x,1/2-y,1/2+z
loop_
_atom_site_type_symbol
_atom_site_label
_atom_site_fract_x
_atom_site_fract_y
_atom_site_fract_z
Si Si1 0.164115 0.823510 0.782282
Si Si2 0.756216 0.331569 0.471440
Si Si3 0.728679 0.008118 0.608530
Si Si4 0.321987 0.350083 0.903422
Si Si5 0.739616 0.840196 0.850632
Si Si6 0.795984 0.992673 0.861789
O O1 0.250000 0.750000 0.768964
O O2 0.152312 0.849644 0.649086
O O3 0.955457 0.824150 0.828545
O O4 0.279444 0.853962 0.893463
O O5 0.750000 0.250000 0.480622
O O6 0.965811 0.353062 0.442603
O O7 0.748448 0.926566 0.608503
O O8 0.796657 0.028092 0.736852
O O9 0.787968 0.027477 0.476957
O O10 0.510154 0.022392 0.614247
O O11 0.338331 0.317244 0.774836
O O12 0.205937 0.319493 0.013598
O O13 0.703509 0.919950 0.852013
#
# Coordination Sequence:
#
# PCOD9433895 Si02
#       6
#     8   8   8   8   8   8
#     4   9  18  33  51  71  96 125 160 202 246 292
#     4   9  18  33  51  71  96 125 160 202 246 292
#     4   9  18  32  49  72 102 132 164 202 242 289
#     4   9  18  33  52  73  98 130 166 203 245 292
#     4   9  18  33  52  73  98 130 166 203 245 292
#     4   9  18  32  49  72 102 132 164 202 242 289
#
# _framework density 29.105366
#
# number of rings (size 3 to 8) (size 9 to 14) (size 15 to 20)
#    0.000    3.000    0.000    0.000    0.000    3.333 
#    0.000    3.333    0.000   18.000    0.000    0.000 
#    0.000    0.000    0.000    0.000    0.000    0.000 
#
# Total GULP energy -268159.930489 kJ/mol
# GULP energy per Si atom -5586.665219 kJ/mol
# Density = 2.903912 g / cm^3
# Si number density = 29.105366 Si / 1000 Ang^3
#
#
#
# Elastic Constant Matrix: (Units=GPa)
#
#
# Indices 1 2 3 4 5 6 
#
# 1 52.3783 -7.7798 33.8699 0.0000 0.0000 0.0000
# 2 -7.7798 99.8639 65.2184 0.0000 0.0000 0.0000
# 3 33.8699 65.2184 380.0998 0.0000 0.0000 0.0000
# 4 0.0000 0.0000 0.0000 106.5860 0.0000 0.0000
# 5 0.0000 0.0000 0.0000 0.0000 47.9968 0.0000
# 6 0.0000 0.0000 0.0000 0.0000 0.0000 19.7459
#
#
#
# Elastic Compliance Matrix: (Units=1/GPa)
#
#
# Indices 1 2 3 4 5 6 
#
# 1 0.021152 0.003242 -0.002441 0.000000 0.000000 0.000000
# 2 0.003242 0.011774 -0.002309 0.000000 0.000000 0.000000
# 3 -0.002441 -0.002309 0.003245 0.000000 0.000000 0.000000
# 4 0.000000 0.000000 0.000000 0.009382 0.000000 0.000000
# 5 0.000000 0.000000 0.000000 0.000000 0.020835 0.000000
# 6 0.000000 0.000000 0.000000 0.000000 0.000000 0.050644
#
#
# Mechanical properties :
#
#
# Convention : Reuss Voigt Hill
#
# Bulk Modulus (GPa) = 30.16194 79.43991 54.80093
# Shear Modulus (GPa) = 38.13913 64.26796 51.20355
#
# Velocity S-wave (km/s) = 3.62385 4.70416 4.19889
# Velocity P-wave (km/s) = 5.28159 7.54046 6.50975
#
# Compressibility (1/GPa) = 0.03315436
#
# Stress axis : x y z
#
# Youngs Moduli (GPa) = 47.27704 84.93120 308.20296
#
# Poissons Ratio (x) = -0.27535 0.75235
# Poissons Ratio (y) = -0.15327 0.71168
# Poissons Ratio (z) = 0.11541 0.19612
#
# Static dielectric constant tensor:
#      x y z
#    x 2.307920 0.000000 0.000000 
#    y 0.000000 2.345070 0.000000 
#    z 0.000000 0.000000 2.372600 
# 
# From -- ./inp_files/6476.got.cif
#   From: 2010.05.17/outbox.cif.g08.bks.cpg/sg56_4_cif.got.tgz:6476.got - 2010.06.03 13:42:01.
