data_PCOD9433263
_publ_section_title
;
Structure prediction by ZEFSAII (Michael W. Deem and Ramdas Pophale) SiO2 
 PCOD9433263
Probable space group: P C C N
;
_chemical_formula_sum "Si O2"
_cell_formula_units_Z 64
_cell_length_a 33.671112
_cell_length_b 4.988026
_cell_length_c 17.110648
_cell_angle_alpha 90.000000
_cell_angle_beta 90.000000
_cell_angle_gamma 90.000000
_cell_volume 2873.774091
_symmetry_space_group_name_H-M "P C C N"
_symmetry_group_IT_number 56
_symmetry_cell_setting 'orthorhombic'
loop_
_space_group_symop_operation_xyz
x,y,z
1/2-x,1/2-y,z
1/2+x,-y,1/2-z
-x,1/2+y,1/2-z
-x,-y,-z
1/2+x,1/2+y,-z
1/2-x,y,1/2+z
x,1/2-y,1/2+z
loop_
_atom_site_type_symbol
_atom_site_label
_atom_site_fract_x
_atom_site_fract_y
_atom_site_fract_z
Si Si1 0.723356 0.488930 0.732143
Si Si2 0.706872 0.180358 0.411579
Si Si3 0.846169 0.682094 0.940625
Si Si4 0.523014 0.953199 0.730448
Si Si5 0.040206 0.048783 0.951963
Si Si6 0.407731 0.567404 0.447099
Si Si7 0.133824 0.983065 0.289620
Si Si8 0.893565 0.989223 0.296657
O O1 0.750000 0.250000 0.700616
O O2 0.715139 0.433783 0.824459
O O3 0.680428 0.494372 0.692745
O O4 0.750000 0.750000 0.724958
O O5 0.750000 0.250000 0.448002
O O6 0.685426 0.465641 0.409515
O O7 0.677206 0.961420 0.449979
O O8 0.880394 0.662668 0.874787
O O9 0.868506 0.561393 0.014922
O O10 0.487086 0.142406 0.757032
O O11 0.531815 0.006351 0.639649
O O12 0.559880 0.025231 0.785659
O O13 0.074699 0.843862 0.980171
O O14 0.057546 0.347923 0.955923
O O15 0.000000 0.000000 0.000000
O O16 0.394373 0.616840 0.358416
O O17 0.120650 0.283132 0.269790
O O18 0.127060 0.774879 0.218339
#
# Coordination Sequence:
#
# PCOD9433263 Si02
#       8
#     8   8   8   8   8   8   8   8
#     4  11  21  36  63  96 127 163 213 265 324 381
#     4  11  22  40  65  98 136 168 217 280 331 383
#     4  12  24  41  67 102 127 180 227 270 325 401
#     4  12  26  43  69 100 133 172 218 282 337 387
#     4  12  27  47  67  96 135 179 220 272 345 407
#     4  12  26  47  67  95 137 179 219 272 338 404
#     4  12  22  44  66  93 131 175 214 275 326 392
#     4  12  23  42  67  95 133 169 230 272 320 390
#
# _framework density 22.270365000000002
#
# number of rings (size 3 to 8) (size 9 to 14) (size 15 to 20)
#    0.000    0.250    5.000    5.250    3.500    0.000 
#    0.000    1.875    0.000    0.000    0.000    0.000 
#    0.000    0.000    0.000    0.000    0.000    0.000 
#
# Total GULP energy -357915.372097 kJ/mol
# GULP energy per Si atom -5592.427689 kJ/mol
# Density = 2.221968 g / cm^3
# Si number density = 22.270365 Si / 1000 Ang^3
#
#
#
# Elastic Constant Matrix: (Units=GPa)
#
#
# Indices 1 2 3 4 5 6 
#
# 1 63.0541 8.8093 0.2239 0.0000 0.0000 0.0000
# 2 8.8093 94.2953 -6.2113 0.0000 0.0000 0.0000
# 3 0.2239 -6.2113 34.2921 0.0000 0.0000 0.0000
# 4 0.0000 0.0000 0.0000 16.7097 0.0000 0.0000
# 5 0.0000 0.0000 0.0000 0.0000 19.4441 0.0000
# 6 0.0000 0.0000 0.0000 0.0000 0.0000 48.3270
#
#
#
# Elastic Compliance Matrix: (Units=1/GPa)
#
#
# Indices 1 2 3 4 5 6 
#
# 1 0.016074 -0.001527 -0.000381 0.000000 0.000000 0.000000
# 2 -0.001527 0.010878 0.001980 0.000000 0.000000 0.000000
# 3 -0.000381 0.001980 0.029522 0.000000 0.000000 0.000000
# 4 0.000000 0.000000 0.000000 0.059845 0.000000 0.000000
# 5 0.000000 0.000000 0.000000 0.000000 0.051429 0.000000
# 6 0.000000 0.000000 0.000000 0.000000 0.000000 0.020692
#
#
# Mechanical properties :
#
#
# Convention : Reuss Voigt Hill
#
# Bulk Modulus (GPa) = 17.66207 21.92060 19.79133
# Shear Modulus (GPa) = 24.13472 29.48415 26.80943
#
# Velocity S-wave (km/s) = 3.29555 3.64252 3.47337
# Velocity P-wave (km/s) = 4.73591 5.24927 4.99919
#
# Compressibility (1/GPa) = 0.05661851
#
# Stress axis : x y z
#
# Youngs Moduli (GPa) = 62.21207 91.92814 33.87261
#
# Poissons Ratio (x) = 0.14036 0.01292
# Poissons Ratio (y) = 0.09499 -0.06708
# Poissons Ratio (z) = 0.02373 -0.18205
#
# Static dielectric constant tensor:
#      x y z
#    x 1.856060 0.000000 0.000000 
#    y 0.000000 1.796140 0.000000 
#    z 0.000000 0.000000 1.843200 
# 
# From -- ./inp_files/17142.got.cif
#   From: 2010.05.17/outbox.cif.g08.bks.cpg/sg56_9_cif.got.tgz:17142.got - 2010.06.03 13:42:01.
