data_PCOD9433437
_publ_section_title
;
Structure prediction by ZEFSAII (Michael W. Deem and Ramdas Pophale) SiO2 
 PCOD9433437
Probable space group: P C C N
;
_chemical_formula_sum "Si O2"
_cell_formula_units_Z 40
_cell_length_a 4.937697
_cell_length_b 13.111750
_cell_length_c 26.520077
_cell_angle_alpha 90.000000
_cell_angle_beta 90.000000
_cell_angle_gamma 90.000000
_cell_volume 1716.958811
_symmetry_space_group_name_H-M "P C C N"
_symmetry_group_IT_number 56
_symmetry_cell_setting 'orthorhombic'
loop_
_space_group_symop_operation_xyz
x,y,z
1/2-x,1/2-y,z
1/2+x,-y,1/2-z
-x,1/2+y,1/2-z
-x,-y,-z
1/2+x,1/2+y,-z
1/2-x,y,1/2+z
x,1/2-y,1/2+z
loop_
_atom_site_type_symbol
_atom_site_label
_atom_site_fract_x
_atom_site_fract_y
_atom_site_fract_z
Si Si1 0.144097 0.136157 0.636378
Si Si2 0.595683 0.474399 0.716476
Si Si3 0.929982 0.546425 0.626002
Si Si4 0.750000 0.750000 0.091102
Si Si5 0.250000 0.750000 0.023723
Si Si6 0.186343 0.938003 0.461471
O O1 0.250000 0.250000 0.630131
O O2 0.977027 0.110389 0.585868
O O3 0.356239 0.041365 0.641452
O O4 0.986291 0.131512 0.689944
O O5 0.346266 0.525387 0.745470
O O6 0.690125 0.533191 0.666380
O O7 0.927652 0.668487 0.622660
O O8 0.879317 0.515441 0.568004
O O9 0.507250 0.790709 0.055437
O O10 0.165492 0.844967 0.988936
O O11 0.000000 0.000000 0.500000
#
# Coordination Sequence:
#
# PCOD9433437 Si02
#       6
#     8   8   8   4   4   8
#     4  11  25  45  76 109 148 196 250 317 379 452
#     4  11  24  50  75 104 140 181 238 303 372 446
#     4  11  25  46  71 104 147 186 244 298 368 438
#     4  12  28  44  70 102 144 198 238 294 358 440
#     4  12  26  42  68 102 142 196 246 284 360 430
#     4  11  23  40  67 103 145 195 239 302 353 437
#
# _framework density 23.297003
#
# number of rings (size 3 to 8) (size 9 to 14) (size 15 to 20)
#    0.000    0.800    4.000    2.400    7.000    4.000 
#    1.800    2.000    0.000    0.000    0.000    0.000 
#    0.000    0.000    0.000    0.000    0.000    0.000 
#
# Total GULP energy -222948.139190 kJ/mol
# GULP energy per Si atom -5573.703480 kJ/mol
# Density = 2.324398 g / cm^3
# Si number density = 23.297003 Si / 1000 Ang^3
#
#
#
# Elastic Constant Matrix: (Units=GPa)
#
#
# Indices 1 2 3 4 5 6 
#
# 1 95.1660 26.6821 31.7837 0.0000 0.0000 0.0000
# 2 26.6821 116.9582 29.7630 0.0000 0.0000 0.0000
# 3 31.7837 29.7630 109.3609 0.0000 0.0000 0.0000
# 4 0.0000 0.0000 0.0000 8.0141 0.0000 0.0000
# 5 0.0000 0.0000 0.0000 0.0000 50.9674 0.0000
# 6 0.0000 0.0000 0.0000 0.0000 0.0000 25.5795
#
#
#
# Elastic Compliance Matrix: (Units=1/GPa)
#
#
# Indices 1 2 3 4 5 6 
#
# 1 0.012057 -0.001997 -0.002961 0.000000 0.000000 0.000000
# 2 -0.001997 0.009517 -0.002010 0.000000 0.000000 0.000000
# 3 -0.002961 -0.002010 0.010551 0.000000 0.000000 0.000000
# 4 0.000000 0.000000 0.000000 0.124780 0.000000 0.000000
# 5 0.000000 0.000000 0.000000 0.000000 0.019620 0.000000
# 6 0.000000 0.000000 0.000000 0.000000 0.000000 0.039094
#
#
# Mechanical properties :
#
#
# Convention : Reuss Voigt Hill
#
# Bulk Modulus (GPa) = 54.97386 55.32698 55.15042
# Shear Modulus (GPa) = 21.22086 32.46264 26.84175
#
# Velocity S-wave (km/s) = 3.02136 3.73691 3.39802
# Velocity P-wave (km/s) = 5.98495 6.51302 6.25456
#
# Compressibility (1/GPa) = 0.01819046
#
# Stress axis : x y z
#
# Youngs Moduli (GPa) = 82.94171 105.07405 94.77424
#
# Poissons Ratio (x) = 0.20985 0.28058
# Poissons Ratio (y) = 0.16565 0.19047
# Poissons Ratio (z) = 0.24555 0.21117
#
# Static dielectric constant tensor:
#      x y z
#    x 2.033570 0.000000 0.000000 
#    y 0.000000 2.071580 0.000000 
#    z 0.000000 0.000000 1.906800 
# 
# From -- ./inp_files/21561.got.cif
#   From: 2010.05.17/outbox.cif.g08.bks.cpg/sg56_11_cif.got.tgz:21561.got - 2010.06.03 13:42:01.
