data_PCOD9433360
_publ_section_title
;
Structure prediction by ZEFSAII (Michael W. Deem and Ramdas Pophale) SiO2 
 PCOD9433360
Probable space group: P C C N
;
_chemical_formula_sum "Si O2"
_cell_formula_units_Z 32
_cell_length_a 7.738637
_cell_length_b 10.986990
_cell_length_c 15.561577
_cell_angle_alpha 90.000000
_cell_angle_beta 90.000000
_cell_angle_gamma 90.000000
_cell_volume 1323.112617
_symmetry_space_group_name_H-M "P C C N"
_symmetry_group_IT_number 56
_symmetry_cell_setting 'orthorhombic'
loop_
_space_group_symop_operation_xyz
x,y,z
1/2-x,1/2-y,z
1/2+x,-y,1/2-z
-x,1/2+y,1/2-z
-x,-y,-z
1/2+x,1/2+y,-z
1/2-x,y,1/2+z
x,1/2-y,1/2+z
loop_
_atom_site_type_symbol
_atom_site_label
_atom_site_fract_x
_atom_site_fract_y
_atom_site_fract_z
Si Si1 0.045162 0.764313 0.910063
Si Si2 0.167851 0.453468 0.152644
Si Si3 0.426696 0.340185 0.275677
Si Si4 0.583509 0.338804 0.909517
O O1 0.250000 0.750000 0.917695
O O2 0.921591 0.644906 0.910095
O O3 0.025452 0.811734 0.813254
O O4 0.001965 0.840879 0.995510
O O5 0.244925 0.382445 0.234753
O O6 0.328621 0.534403 0.118655
O O7 0.016093 0.543298 0.180864
O O8 0.457374 0.232364 0.344405
O O9 0.750000 0.250000 0.909583
#
# Coordination Sequence:
#
# PCOD9433360 Si02
#       4
#     8   8   8   8
#     4  11  23  41  66  97 135 179 232 284 339 412
#     4  11  23  41  67  97 137 186 227 284 346 394
#     4  11  22  41  65  96 135 180 237 283 340 412
#     4   9  22  41  65  97 134 180 236 285 340 413
#
# _framework density 24.185392
#
# number of rings (size 3 to 8) (size 9 to 14) (size 15 to 20)
#    0.000    1.500    0.000    6.000    0.000   12.000 
#    0.000    7.500    0.000    0.000    0.000    0.000 
#    0.000    0.000    0.000    0.000    0.000    0.000 
#
# Total GULP energy -178539.998245 kJ/mol
# GULP energy per Si atom -5579.374945 kJ/mol
# Density = 2.413035 g / cm^3
# Si number density = 24.185392 Si / 1000 Ang^3
#
#
#
# Elastic Constant Matrix: (Units=GPa)
#
#
# Indices 1 2 3 4 5 6 
#
# 1 93.5709 44.9615 20.3129 0.0000 0.0000 0.0000
# 2 44.9615 100.4378 39.8683 0.0000 0.0000 0.0000
# 3 20.3129 39.8683 125.4517 0.0000 0.0000 0.0000
# 4 0.0000 0.0000 0.0000 38.5765 0.0000 0.0000
# 5 0.0000 0.0000 0.0000 0.0000 33.4800 0.0000
# 6 0.0000 0.0000 0.0000 0.0000 0.0000 29.9041
#
#
#
# Elastic Compliance Matrix: (Units=1/GPa)
#
#
# Indices 1 2 3 4 5 6 
#
# 1 0.013626 -0.005978 -0.000306 0.000000 0.000000 0.000000
# 2 -0.005978 0.014016 -0.003486 0.000000 0.000000 0.000000
# 3 -0.000306 -0.003486 0.009129 0.000000 0.000000 0.000000
# 4 0.000000 0.000000 0.000000 0.025922 0.000000 0.000000
# 5 0.000000 0.000000 0.000000 0.000000 0.029869 0.000000
# 6 0.000000 0.000000 0.000000 0.000000 0.000000 0.033440
#
#
# Mechanical properties :
#
#
# Convention : Reuss Voigt Hill
#
# Bulk Modulus (GPa) = 58.04067 58.86064 58.45065
# Shear Modulus (GPa) = 33.04953 34.67996 33.86475
#
# Velocity S-wave (km/s) = 3.70064 3.79082 3.74600
# Velocity P-wave (km/s) = 6.50461 6.59929 6.55212
#
# Compressibility (1/GPa) = 0.01722930
#
# Stress axis : x y z
#
# Youngs Moduli (GPa) = 73.38827 71.34451 109.54332
#
# Poissons Ratio (x) = 0.42651 0.03357
# Poissons Ratio (y) = 0.43873 0.38192
# Poissons Ratio (z) = 0.02249 0.24874
#
# Static dielectric constant tensor:
#      x y z
#    x 1.889870 0.000000 0.000000 
#    y 0.000000 2.071100 0.000000 
#    z 0.000000 0.000000 1.905910 
# 
# From -- ./inp_files/10069.got.cif
#   From: 2010.05.17/outbox.cif.g08.bks.cpg/sg56_6_cif.got.tgz:10069.got - 2010.06.03 13:42:01.
