data_PCOD9433188
_publ_section_title
;
Structure prediction by ZEFSAII (Michael W. Deem and Ramdas Pophale) SiO2 
 PCOD9433188
Probable space group: P C C N
;
_chemical_formula_sum "Si O2"
_cell_formula_units_Z 64
_cell_length_a 17.452044
_cell_length_b 14.450673
_cell_length_c 13.730611
_cell_angle_alpha 90.000000
_cell_angle_beta 90.000000
_cell_angle_gamma 90.000000
_cell_volume 3462.774704
_symmetry_space_group_name_H-M "P C C N"
_symmetry_group_IT_number 56
_symmetry_cell_setting 'orthorhombic'
loop_
_space_group_symop_operation_xyz
x,y,z
1/2-x,1/2-y,z
1/2+x,-y,1/2-z
-x,1/2+y,1/2-z
-x,-y,-z
1/2+x,1/2+y,-z
1/2-x,y,1/2+z
x,1/2-y,1/2+z
loop_
_atom_site_type_symbol
_atom_site_label
_atom_site_fract_x
_atom_site_fract_y
_atom_site_fract_z
Si Si1 0.518536 0.372615 0.637742
Si Si2 0.190611 0.173806 0.986149
Si Si3 0.093653 0.958520 0.681143
Si Si4 0.848756 0.476135 0.039475
Si Si5 0.470490 0.198469 0.760950
Si Si6 0.079246 0.179702 0.467356
Si Si7 0.210784 0.478585 0.340703
Si Si8 0.798894 0.655218 0.302999
O O1 0.454989 0.446281 0.673126
O O2 0.598516 0.423097 0.618720
O O3 0.510738 0.281638 0.703154
O O4 0.494119 0.346271 0.528388
O O5 0.250000 0.250000 0.944182
O O6 0.125780 0.243073 0.024293
O O7 0.168832 0.098952 0.906721
O O8 0.220451 0.127593 0.085277
O O9 0.132349 0.947163 0.572948
O O10 0.031862 0.881186 0.712699
O O11 0.155162 0.967517 0.767952
O O12 0.873301 0.584942 0.045489
O O13 0.762820 0.467242 0.080574
O O14 0.440504 0.227856 0.866751
O O15 0.390390 0.165131 0.712628
O O16 0.267435 0.421015 0.270582
O O17 0.750000 0.750000 0.287384
#
# Coordination Sequence:
#
# PCOD9433188 Si02
#       8
#     8   8   8   8   8   8   8   8
#     4  11  21  38  64  88 119 162 205 246 305 374
#     4  11  20  32  53  90 128 157 190 243 321 375
#     4  11  23  39  62  95 118 159 212 251 308 376
#     4  11  21  40  62  85 122 165 204 245 306 381
#     4  12  21  38  63  88 123 159 203 256 299 366
#     4  11  18  35  59  89 121 155 195 246 301 383
#     4  12  22  35  58  86 127 161 202 261 302 358
#     4  11  21  33  55  91 125 158 195 244 319 380
#
# _framework density 18.482288
#
# number of rings (size 3 to 8) (size 9 to 14) (size 15 to 20)
#    0.000    0.750    6.250    4.125    3.500    0.000 
#    0.000    1.250    5.500    1.500    0.000    0.000 
#    0.000    0.000    0.000    0.000    0.000    0.000 
#
# Total GULP energy -356618.539269 kJ/mol
# GULP energy per Si atom -5572.164676 kJ/mol
# Density = 1.844022 g / cm^3
# Si number density = 18.482288 Si / 1000 Ang^3
#
#
#
# Elastic Constant Matrix: (Units=GPa)
#
#
# Indices 1 2 3 4 5 6 
#
# 1 90.2620 32.4830 28.7156 0.0000 0.0000 0.0000
# 2 32.4830 42.3233 25.4377 0.0000 0.0000 0.0000
# 3 28.7156 25.4377 99.1774 0.0000 0.0000 0.0000
# 4 0.0000 0.0000 0.0000 21.0328 0.0000 0.0000
# 5 0.0000 0.0000 0.0000 0.0000 28.4577 0.0000
# 6 0.0000 0.0000 0.0000 0.0000 0.0000 26.5627
#
#
#
# Elastic Compliance Matrix: (Units=1/GPa)
#
#
# Indices 1 2 3 4 5 6 
#
# 1 0.015546 -0.010908 -0.001704 0.000000 0.000000 0.000000
# 2 -0.010908 0.035587 -0.005969 0.000000 0.000000 0.000000
# 3 -0.001704 -0.005969 0.012107 0.000000 0.000000 0.000000
# 4 0.000000 0.000000 0.000000 0.047545 0.000000 0.000000
# 5 0.000000 0.000000 0.000000 0.000000 0.035140 0.000000
# 6 0.000000 0.000000 0.000000 0.000000 0.000000 0.037647
#
#
# Mechanical properties :
#
#
# Convention : Reuss Voigt Hill
#
# Bulk Modulus (GPa) = 38.34480 45.00393 41.67436
# Shear Modulus (GPa) = 21.79347 24.88575 23.33961
#
# Velocity S-wave (km/s) = 3.43761 3.67340 3.55746
# Velocity P-wave (km/s) = 6.04549 6.51110 6.28261
#
# Compressibility (1/GPa) = 0.02607916
#
# Stress axis : x y z
#
# Youngs Moduli (GPa) = 64.32406 28.10003 82.59519
#
# Poissons Ratio (x) = 0.30651 0.14070
# Poissons Ratio (y) = 0.70164 0.49304
# Poissons Ratio (z) = 0.10958 0.16774
#
# Static dielectric constant tensor:
#      x y z
#    x 1.704490 0.000000 0.000000 
#    y 0.000000 1.637430 0.000000 
#    z 0.000000 0.000000 1.663450 
# 
# From -- ./inp_files/12914.got.cif
#   From: 2010.05.17/outbox.cif.g08.bks.cpg/sg56_7_cif.got.tgz:12914.got - 2010.06.03 13:42:01.
