data_PCOD9433753
_publ_section_title
;
Structure prediction by ZEFSAII (Michael W. Deem and Ramdas Pophale) SiO2 
 PCOD9433753
Probable space group: P C C N
;
_chemical_formula_sum "Si O2"
_cell_formula_units_Z 32
_cell_length_a 19.526156
_cell_length_b 5.034333
_cell_length_c 14.410492
_cell_angle_alpha 90.000000
_cell_angle_beta 90.000000
_cell_angle_gamma 90.000000
_cell_volume 1416.568246
_symmetry_space_group_name_H-M "P C C N"
_symmetry_group_IT_number 56
_symmetry_cell_setting 'orthorhombic'
loop_
_space_group_symop_operation_xyz
x,y,z
1/2-x,1/2-y,z
1/2+x,-y,1/2-z
-x,1/2+y,1/2-z
-x,-y,-z
1/2+x,1/2+y,-z
1/2-x,y,1/2+z
x,1/2-y,1/2+z
loop_
_atom_site_type_symbol
_atom_site_label
_atom_site_fract_x
_atom_site_fract_y
_atom_site_fract_z
Si Si1 0.625850 0.551044 0.658335
Si Si2 0.317535 0.931472 0.442874
Si Si3 0.024266 0.526949 0.106159
Si Si4 0.878537 0.523531 0.364109
O O1 0.629024 0.284186 0.596658
O O2 0.544121 0.594140 0.663988
O O3 0.653670 0.511791 0.762061
O O4 0.666484 0.796760 0.612502
O O5 0.250000 0.750000 0.430324
O O6 0.326347 0.016185 0.549779
O O7 0.069451 0.270220 0.129630
O O8 0.075425 0.767259 0.120501
O O9 0.000000 0.500000 0.000000
#
# Coordination Sequence:
#
# PCOD9433753 Si02
#       4
#     8   8   8   8
#     4  12  25  43  70 102 138 179 230 284 352 416
#     4  12  26  46  67  96 135 184 235 284 336 409
#     4  12  21  41  71 102 142 179 218 288 362 419
#     4  12  24  43  69 102 138 181 227 287 353 418
#
# _framework density 22.589801999999999
#
# number of rings (size 3 to 8) (size 9 to 14) (size 15 to 20)
#    0.000    0.000    5.000    6.000    0.000    1.000 
#    0.000    5.000    0.000    0.000    0.000    0.000 
#    0.000    0.000    0.000    0.000    0.000    0.000 
#
# Total GULP energy -178892.925040 kJ/mol
# GULP energy per Si atom -5590.403908 kJ/mol
# Density = 2.253839 g / cm^3
# Si number density = 22.589802 Si / 1000 Ang^3
#
#
#
# Elastic Constant Matrix: (Units=GPa)
#
#
# Indices 1 2 3 4 5 6 
#
# 1 31.1360 11.5868 3.0142 0.0000 0.0000 0.0000
# 2 11.5868 172.2015 54.2109 0.0000 0.0000 0.0000
# 3 3.0142 54.2109 171.3044 0.0000 0.0000 0.0000
# 4 0.0000 0.0000 0.0000 21.9546 0.0000 0.0000
# 5 0.0000 0.0000 0.0000 0.0000 5.5534 0.0000
# 6 0.0000 0.0000 0.0000 0.0000 0.0000 38.3859
#
#
#
# Elastic Compliance Matrix: (Units=1/GPa)
#
#
# Indices 1 2 3 4 5 6 
#
# 1 0.032945 -0.002259 0.000135 0.000000 0.000000 0.000000
# 2 -0.002259 0.006605 -0.002050 0.000000 0.000000 0.000000
# 3 0.000135 -0.002050 0.006484 0.000000 0.000000 0.000000
# 4 0.000000 0.000000 0.000000 0.045548 0.000000 0.000000
# 5 0.000000 0.000000 0.000000 0.000000 0.180071 0.000000
# 6 0.000000 0.000000 0.000000 0.000000 0.000000 0.026051
#
#
# Mechanical properties :
#
#
# Convention : Reuss Voigt Hill
#
# Bulk Modulus (GPa) = 26.53592 56.91841 41.72717
# Shear Modulus (GPa) = 15.69295 33.56745 24.63020
#
# Velocity S-wave (km/s) = 2.63856 3.85899 3.30559
# Velocity P-wave (km/s) = 4.58858 6.71617 5.75161
#
# Compressibility (1/GPa) = 0.03768477
#
# Stress axis : x y z
#
# Youngs Moduli (GPa) = 30.35375 151.40867 154.22502
#
# Poissons Ratio (x) = 0.34208 -0.02087
# Poissons Ratio (y) = 0.06858 0.31621
# Poissons Ratio (z) = -0.00411 0.31044
#
# Static dielectric constant tensor:
#      x y z
#    x 1.289490 0.000000 0.000000 
#    y 0.000000 1.783380 0.000000 
#    z 0.000000 0.000000 1.922590 
# 
# From -- ./inp_files/9454.got.cif
#   From: 2010.05.17/outbox.cif.g08.bks.cpg/sg56_5_cif.got.tgz:9454.got - 2010.06.03 13:42:01.
