data_PCOD9433104
_publ_section_title
;
Structure prediction by ZEFSAII (Michael W. Deem and Ramdas Pophale) SiO2 
 PCOD9433104
Probable space group: P C C N
;
_chemical_formula_sum "Si O2"
_cell_formula_units_Z 48
_cell_length_a 17.457215
_cell_length_b 5.576071
_cell_length_c 22.312845
_cell_angle_alpha 90.000000
_cell_angle_beta 90.000000
_cell_angle_gamma 90.000000
_cell_volume 2171.991914
_symmetry_space_group_name_H-M "P C C N"
_symmetry_group_IT_number 56
_symmetry_cell_setting 'orthorhombic'
loop_
_space_group_symop_operation_xyz
x,y,z
1/2-x,1/2-y,z
1/2+x,-y,1/2-z
-x,1/2+y,1/2-z
-x,-y,-z
1/2+x,1/2+y,-z
1/2-x,y,1/2+z
x,1/2-y,1/2+z
loop_
_atom_site_type_symbol
_atom_site_label
_atom_site_fract_x
_atom_site_fract_y
_atom_site_fract_z
Si Si1 0.556772 0.706476 0.184458
Si Si2 0.595119 0.298963 0.750832
Si Si3 0.031986 0.296424 0.043597
Si Si4 0.750000 0.250000 0.813185
Si Si5 0.106297 0.013568 0.935517
Si Si6 0.686522 0.945961 0.919672
Si Si7 0.250000 0.750000 0.476524
O O1 0.464988 0.693565 0.193732
O O2 0.586651 0.461651 0.218068
O O3 0.590342 0.697968 0.117659
O O4 0.577149 0.964594 0.212105
O O5 0.680460 0.334673 0.773497
O O6 0.098611 0.376173 0.088034
O O7 0.958444 0.187684 0.075879
O O8 0.000000 0.500000 0.000000
O O9 0.079090 0.116378 0.999729
O O10 0.783549 0.445218 0.858421
O O11 0.193123 0.919362 0.938948
O O12 0.750000 0.750000 0.935944
O O13 0.691805 0.119942 0.977293
#
# Coordination Sequence:
#
# PCOD9433104 Si02
#       7
#     8   8   8   4   8   8   4
#     4  10  25  46  73  96 139 184 237 291 358 411
#     4  10  25  48  68 103 133 178 241 305 344 421
#     4  11  24  40  67 103 143 178 232 275 348 446
#     4  11  28  41  74 100 134 177 236 295 362 414
#     4  11  25  40  69  99 134 189 226 286 346 435
#     4  11  24  41  65 100 142 183 212 294 351 420
#     4  11  22  43  58 102 140 173 234 267 348 422
#
# _framework density 22.099529
#
# number of rings (size 3 to 8) (size 9 to 14) (size 15 to 20)
#    0.000    1.333    3.333    0.000    9.333    2.000 
#    0.000    1.667    0.000    0.000    0.000    0.000 
#    0.000    0.000    0.000    0.000    0.000    0.000 
#
# Total GULP energy -268076.686407 kJ/mol
# GULP energy per Si atom -5584.930967 kJ/mol
# Density = 2.204923 g / cm^3
# Si number density = 22.099529 Si / 1000 Ang^3
#
#
#
# Elastic Constant Matrix: (Units=GPa)
#
#
# Indices 1 2 3 4 5 6 
#
# 1 154.1714 24.4701 24.7937 0.0000 0.0000 0.0000
# 2 24.4701 74.4398 1.7756 0.0000 0.0000 0.0000
# 3 24.7937 1.7756 42.9453 0.0000 0.0000 0.0000
# 4 0.0000 0.0000 0.0000 -15.0269 0.0000 0.0000
# 5 0.0000 0.0000 0.0000 0.0000 1.8406 0.0000
# 6 0.0000 0.0000 0.0000 0.0000 0.0000 33.8485
#
#
#
# Elastic Compliance Matrix: (Units=1/GPa)
#
#
# Indices 1 2 3 4 5 6 
#
# 1 0.007549 -0.002380 -0.004260 0.000000 0.000000 0.000000
# 2 -0.002380 0.014197 0.000787 0.000000 0.000000 0.000000
# 3 -0.004260 0.000787 0.025712 0.000000 0.000000 0.000000
# 4 0.000000 0.000000 0.000000 -0.066547 0.000000 0.000000
# 5 0.000000 0.000000 0.000000 0.000000 0.543311 0.000000
# 6 0.000000 0.000000 0.000000 0.000000 0.000000 0.029543
#
#
# Mechanical properties :
#
#
# Convention : Reuss Voigt Hill
#
# Bulk Modulus (GPa) = 27.96973 41.51502 34.74238
# Shear Modulus (GPa) = 8.65967 18.83357 13.74662
#
# Velocity S-wave (km/s) = 1.98166 2.92244 2.49676
# Velocity P-wave (km/s) = 4.23317 5.49671 4.90579
#
# Compressibility (1/GPa) = 0.03575294
#
# Stress axis : x y z
#
# Youngs Moduli (GPa) = 132.46580 70.43615 38.89188
#
# Poissons Ratio (x) = 0.16764 0.16568
# Poissons Ratio (y) = 0.31526 -0.03061
# Poissons Ratio (z) = 0.56430 -0.05544
#
# Static dielectric constant tensor:
#      x y z
#    x 1.753230 0.000000 0.000000 
#    y 0.000000 2.184950 0.000000 
#    z 0.000000 0.000000 1.842320 
# 
# From -- ./inp_files/21250.got.cif
#   From: 2010.05.17/outbox.cif.g08.bks.cpg/sg56_11_cif.got.tgz:21250.got - 2010.06.03 13:42:01.
