data_PCOD9433071
_publ_section_title
;
Structure prediction by ZEFSAII (Michael W. Deem and Ramdas Pophale) SiO2 
 PCOD9433071
Probable space group: P C C N
;
_chemical_formula_sum "Si O2"
_cell_formula_units_Z 56
_cell_length_a 5.990749
_cell_length_b 20.491795
_cell_length_c 23.510882
_cell_angle_alpha 90.000000
_cell_angle_beta 90.000000
_cell_angle_gamma 90.000000
_cell_volume 2886.224097
_symmetry_space_group_name_H-M "P C C N"
_symmetry_group_IT_number 56
_symmetry_cell_setting 'orthorhombic'
loop_
_space_group_symop_operation_xyz
x,y,z
1/2-x,1/2-y,z
1/2+x,-y,1/2-z
-x,1/2+y,1/2-z
-x,-y,-z
1/2+x,1/2+y,-z
1/2-x,y,1/2+z
x,1/2-y,1/2+z
loop_
_atom_site_type_symbol
_atom_site_label
_atom_site_fract_x
_atom_site_fract_y
_atom_site_fract_z
Si Si1 0.001691 0.284015 0.023732
Si Si2 0.323114 0.678441 0.356928
Si Si3 0.956008 0.923488 0.868889
Si Si4 0.013875 0.096387 0.439090
Si Si5 0.229634 0.009952 0.030808
Si Si6 0.075430 0.073290 0.717611
Si Si7 0.268400 0.038930 0.833256
O O1 0.250000 0.250000 0.021233
O O2 0.750000 0.250000 0.017876
O O3 0.979553 0.312848 0.087820
O O4 0.008008 0.336425 0.972521
O O5 0.250000 0.750000 0.336525
O O6 0.431872 0.632698 0.308648
O O7 0.102727 0.640319 0.377985
O O8 0.784147 0.937691 0.918928
O O9 0.817655 0.920691 0.811159
O O10 0.123432 0.984781 0.866413
O O11 0.129834 0.044140 0.481128
O O12 0.126995 0.089743 0.377781
O O13 0.778017 0.059363 0.438760
O O14 0.000000 0.000000 0.000000
O O15 0.115264 0.070964 0.784784
O O16 0.958771 0.005756 0.697217
#
# Coordination Sequence:
#
# PCOD9433071 Si02
#       7
#     8   8   8   8   8   8   8
#     4  11  27  46  71 100 140 185 228 282 349 417
#     4  10  25  41  66  98 127 178 228 281 338 403
#     4  11  21  37  63  94 133 165 212 276 340 408
#     4  11  24  38  62  99 133 169 221 271 343 416
#     4  11  21  34  62  99 131 162 205 276 341 406
#     4  11  22  39  65  93 133 167 225 275 340 406
#     4  11  22  39  61  98 128 173 213 276 348 401
#
# _framework density 19.402512000000002
#
# number of rings (size 3 to 8) (size 9 to 14) (size 15 to 20)
#    0.000    1.143    4.286    1.714   14.000    0.000 
#    0.000    0.000    3.143    0.000    0.000    0.000 
#    0.000    0.000    0.000    0.000    0.000    0.000 
#
# Total GULP energy -311971.206487 kJ/mol
# GULP energy per Si atom -5570.914402 kJ/mol
# Density = 1.935835 g / cm^3
# Si number density = 19.402512 Si / 1000 Ang^3
#
#
#
# Elastic Constant Matrix: (Units=GPa)
#
#
# Indices 1 2 3 4 5 6 
#
# 1 33.2182 19.6665 10.5202 0.0000 0.0000 0.0000
# 2 19.6665 92.2501 45.8277 0.0000 0.0000 0.0000
# 3 10.5202 45.8277 115.4918 0.0000 0.0000 0.0000
# 4 0.0000 0.0000 0.0000 15.5338 0.0000 0.0000
# 5 0.0000 0.0000 0.0000 0.0000 29.1771 0.0000
# 6 0.0000 0.0000 0.0000 0.0000 0.0000 31.7191
#
#
#
# Elastic Compliance Matrix: (Units=1/GPa)
#
#
# Indices 1 2 3 4 5 6 
#
# 1 0.034460 -0.007208 -0.000279 0.000000 0.000000 0.000000
# 2 -0.007208 0.015009 -0.005299 0.000000 0.000000 0.000000
# 3 -0.000279 -0.005299 0.010787 0.000000 0.000000 0.000000
# 4 0.000000 0.000000 0.000000 0.064376 0.000000 0.000000
# 5 0.000000 0.000000 0.000000 0.000000 0.034273 0.000000
# 6 0.000000 0.000000 0.000000 0.000000 0.000000 0.031527
#
#
# Mechanical properties :
#
#
# Convention : Reuss Voigt Hill
#
# Bulk Modulus (GPa) = 28.83179 43.66544 36.24861
# Shear Modulus (GPa) = 21.97180 26.28239 24.12709
#
# Velocity S-wave (km/s) = 3.36880 3.68446 3.53016
# Velocity P-wave (km/s) = 5.47940 6.37607 5.94466
#
# Compressibility (1/GPa) = 0.03468394
#
# Stress axis : x y z
#
# Youngs Moduli (GPa) = 29.01949 66.62572 92.70624
#
# Poissons Ratio (x) = 0.48023 0.02585
# Poissons Ratio (y) = 0.20917 0.49127
# Poissons Ratio (z) = 0.00809 0.35306
#
# Static dielectric constant tensor:
#      x y z
#    x 3.446500 0.000000 0.000000 
#    y 0.000000 2.144730 0.000000 
#    z 0.000000 0.000000 1.684840 
# 
# From -- ./inp_files/20123.got.cif
#   From: 2010.05.17/outbox.cif.g08.bks.cpg/sg56_11_cif.got.tgz:20123.got - 2010.06.03 13:42:01.
