data_PCOD9433719
_publ_section_title
;
Structure prediction by ZEFSAII (Michael W. Deem and Ramdas Pophale) SiO2 
 PCOD9433719
Probable space group: P C C N
;
_chemical_formula_sum "Si O2"
_cell_formula_units_Z 32
_cell_length_a 10.883938
_cell_length_b 4.937005
_cell_length_c 22.938868
_cell_angle_alpha 90.000000
_cell_angle_beta 90.000000
_cell_angle_gamma 90.000000
_cell_volume 1232.598425
_symmetry_space_group_name_H-M "P C C N"
_symmetry_group_IT_number 56
_symmetry_cell_setting 'orthorhombic'
loop_
_space_group_symop_operation_xyz
x,y,z
1/2-x,1/2-y,z
1/2+x,-y,1/2-z
-x,1/2+y,1/2-z
-x,-y,-z
1/2+x,1/2+y,-z
1/2-x,y,1/2+z
x,1/2-y,1/2+z
loop_
_atom_site_type_symbol
_atom_site_label
_atom_site_fract_x
_atom_site_fract_y
_atom_site_fract_z
Si Si1 0.372810 0.100883 0.443171
Si Si2 0.369117 0.935725 0.574118
Si Si3 0.750000 0.750000 0.328707
Si Si4 0.250000 0.750000 0.367003
Si Si5 0.588341 0.072279 0.741438
O O1 0.250000 0.250000 0.420459
O O2 0.501478 0.216729 0.421920
O O3 0.373001 0.094704 0.512826
O O4 0.356397 0.797873 0.417548
O O5 0.250000 0.750000 0.572187
O O6 0.351998 0.127773 0.628773
O O7 0.815483 0.972673 0.289582
O O8 0.168428 0.586609 0.317826
O O9 0.477952 0.853312 0.742894
#
# Coordination Sequence:
#
# PCOD9433719 Si02
#       5
#     8   8   4   4   8
#     4  11  26  48  76 115 159 206 263 330 405 485
#     4  11  26  48  77 115 157 208 264 328 406 484
#     4  12  28  50  78 114 158 214 270 330 406 492
#     4  12  28  50  76 116 156 214 268 328 408 488
#     4  12  30  52  78 114 164 220 280 342 408 482
#
# _framework density 25.961417000000001
#
# number of rings (size 3 to 8) (size 9 to 14) (size 15 to 20)
#    0.000    0.500    2.500    3.000   14.000    3.000 
#    0.000    0.000    0.000    0.000    0.000    0.000 
#    0.000    0.000    0.000    0.000    0.000    0.000 
#
# Total GULP energy -178631.340853 kJ/mol
# GULP energy per Si atom -5582.229402 kJ/mol
# Density = 2.590233 g / cm^3
# Si number density = 25.961417 Si / 1000 Ang^3
#
#
#
# Elastic Constant Matrix: (Units=GPa)
#
#
# Indices 1 2 3 4 5 6 
#
# 1 212.2874 41.7447 33.3426 0.0000 0.0000 0.0000
# 2 41.7447 51.2586 0.0727 0.0000 0.0000 0.0000
# 3 33.3426 0.0727 164.3028 0.0000 0.0000 0.0000
# 4 0.0000 0.0000 0.0000 -2.1648 0.0000 0.0000
# 5 0.0000 0.0000 0.0000 0.0000 18.8509 0.0000
# 6 0.0000 0.0000 0.0000 0.0000 0.0000 62.6508
#
#
#
# Elastic Compliance Matrix: (Units=1/GPa)
#
#
# Indices 1 2 3 4 5 6 
#
# 1 0.005829 -0.004746 -0.001181 0.000000 0.000000 0.000000
# 2 -0.004746 0.023372 0.000953 0.000000 0.000000 0.000000
# 3 -0.001181 0.000953 0.006326 0.000000 0.000000 0.000000
# 4 0.000000 0.000000 0.000000 -0.461933 0.000000 0.000000
# 5 0.000000 0.000000 0.000000 0.000000 0.053048 0.000000
# 6 0.000000 0.000000 0.000000 0.000000 0.000000 0.015961
#
#
# Mechanical properties :
#
#
# Convention : Reuss Voigt Hill
#
# Bulk Modulus (GPa) = 39.09364 64.24098 51.66731
# Shear Modulus (GPa) = -14.75264 39.37996 12.31366
#
# Velocity S-wave (km/s) = -2.38639 3.89892 2.18022
# Velocity P-wave (km/s) = 2.73823 6.71322 5.12665
#
# Compressibility (1/GPa) = 0.02557961
#
# Stress axis : x y z
#
# Youngs Moduli (GPa) = 171.54840 42.78553 158.08931
#
# Poissons Ratio (x) = 0.20304 0.18668
# Poissons Ratio (y) = 0.81411 -0.15061
# Poissons Ratio (z) = 0.20257 -0.04076
#
# Static dielectric constant tensor:
#      x y z
#    x 2.075590 0.000000 0.000000 
#    y 0.000000 2.894240 0.000000 
#    z 0.000000 0.000000 1.975060 
# 
# From -- ./inp_files/20762.got.cif
#   From: 2010.05.17/outbox.cif.g08.bks.cpg/sg56_11_cif.got.tgz:20762.got - 2010.06.03 13:42:01.
