data_PCOD9433862
_publ_section_title
;
Structure prediction by ZEFSAII (Michael W. Deem and Ramdas Pophale) SiO2 
 PCOD9433862
Probable space group: P C C N
;
_chemical_formula_sum "Si O2"
_cell_formula_units_Z 36
_cell_length_a 10.559050
_cell_length_b 11.070585
_cell_length_c 12.707835
_cell_angle_alpha 90.000000
_cell_angle_beta 90.000000
_cell_angle_gamma 90.000000
_cell_volume 1485.480600
_symmetry_space_group_name_H-M "P C C N"
_symmetry_group_IT_number 56
_symmetry_cell_setting 'orthorhombic'
loop_
_space_group_symop_operation_xyz
x,y,z
1/2-x,1/2-y,z
1/2+x,-y,1/2-z
-x,1/2+y,1/2-z
-x,-y,-z
1/2+x,1/2+y,-z
1/2-x,y,1/2+z
x,1/2-y,1/2+z
loop_
_atom_site_type_symbol
_atom_site_label
_atom_site_fract_x
_atom_site_fract_y
_atom_site_fract_z
Si Si1 0.339957 0.651821 0.040019
Si Si2 0.365325 0.477821 0.442015
Si Si3 0.750000 0.750000 0.470252
Si Si4 0.512948 0.702753 0.846869
Si Si5 0.522977 0.048083 0.264804
O O1 0.250000 0.750000 0.095522
O O2 0.435247 0.591547 0.120873
O O3 0.244779 0.552746 0.996243
O O4 0.414132 0.713782 0.943250
O O5 0.500000 0.500000 0.500000
O O6 0.330895 0.338996 0.458012
O O7 0.370230 0.515949 0.320917
O O8 0.849619 0.678261 0.397694
O O9 0.533505 0.829782 0.786751
O O10 0.464600 0.586247 0.780878
#
# Coordination Sequence:
#
# PCOD9433862 Si02
#       5
#     8   8   4   8   8
#     4  12  27  51  78 113 160 207 270 329 401 488
#     4  12  27  51  76 117 162 206 270 340 399 489
#     4  12  26  52  78 112 170 202 266 346 406 472
#     4  12  29  51  79 122 159 215 269 336 403 495
#     4  12  29  48  83 114 160 216 270 323 417 476
#
# _framework density 24.234582
#
# number of rings (size 3 to 8) (size 9 to 14) (size 15 to 20)
#    0.000    0.000    6.667    0.667    9.333    2.667 
#    0.000    0.000    0.000    0.000    0.000    0.000 
#    0.000    0.000    0.000    0.000    0.000    0.000 
#
# Total GULP energy -201298.774979 kJ/mol
# GULP energy per Si atom -5591.632638 kJ/mol
# Density = 2.417942 g / cm^3
# Si number density = 24.234582 Si / 1000 Ang^3
#
#
#
# Elastic Constant Matrix: (Units=GPa)
#
#
# Indices 1 2 3 4 5 6 
#
# 1 71.9277 11.1962 2.4199 0.0000 0.0000 0.0000
# 2 11.1962 149.2134 24.7098 0.0000 0.0000 0.0000
# 3 2.4199 24.7098 76.4846 0.0000 0.0000 0.0000
# 4 0.0000 0.0000 0.0000 45.8549 0.0000 0.0000
# 5 0.0000 0.0000 0.0000 0.0000 15.1748 0.0000
# 6 0.0000 0.0000 0.0000 0.0000 0.0000 44.3998
#
#
#
# Elastic Compliance Matrix: (Units=1/GPa)
#
#
# Indices 1 2 3 4 5 6 
#
# 1 0.014068 -0.001037 -0.000110 0.000000 0.000000 0.000000
# 2 -0.001037 0.007157 -0.002279 0.000000 0.000000 0.000000
# 3 -0.000110 -0.002279 0.013814 0.000000 0.000000 0.000000
# 4 0.000000 0.000000 0.000000 0.021808 0.000000 0.000000
# 5 0.000000 0.000000 0.000000 0.000000 0.065899 0.000000
# 6 0.000000 0.000000 0.000000 0.000000 0.000000 0.022523
#
#
# Mechanical properties :
#
#
# Convention : Reuss Voigt Hill
#
# Bulk Modulus (GPa) = 35.47857 41.58640 38.53249
# Shear Modulus (GPa) = 30.95631 38.37252 34.66442
#
# Velocity S-wave (km/s) = 3.57790 3.98349 3.78613
# Velocity P-wave (km/s) = 5.63382 6.19312 5.92008
#
# Compressibility (1/GPa) = 0.02818603
#
# Stress axis : x y z
#
# Youngs Moduli (GPa) = 71.08320 139.72090 72.38812
#
# Poissons Ratio (x) = 0.14494 0.00796
# Poissons Ratio (y) = 0.07374 0.16500
# Poissons Ratio (z) = 0.00782 0.31848
#
# Static dielectric constant tensor:
#      x y z
#    x 1.917910 0.000000 0.000000 
#    y 0.000000 2.028170 0.000000 
#    z 0.000000 0.000000 1.912800 
# 
# From -- ./inp_files/6821.got.cif
#   From: 2010.05.17/outbox.cif.g08.bks.cpg/sg56_4_cif.got.tgz:6821.got - 2010.06.03 13:42:01.
