data_PCOD9433135
_publ_section_title
;
Structure prediction by ZEFSAII (Michael W. Deem and Ramdas Pophale) SiO2 
 PCOD9433135
Probable space group: P C C N
;
_chemical_formula_sum "Si O2"
_cell_formula_units_Z 60
_cell_length_a 18.884099
_cell_length_b 5.550870
_cell_length_c 26.581734
_cell_angle_alpha 90.000000
_cell_angle_beta 90.000000
_cell_angle_gamma 90.000000
_cell_volume 2786.381851
_symmetry_space_group_name_H-M "P C C N"
_symmetry_group_IT_number 56
_symmetry_cell_setting 'orthorhombic'
loop_
_space_group_symop_operation_xyz
x,y,z
1/2-x,1/2-y,z
1/2+x,-y,1/2-z
-x,1/2+y,1/2-z
-x,-y,-z
1/2+x,1/2+y,-z
1/2-x,y,1/2+z
x,1/2-y,1/2+z
loop_
_atom_site_type_symbol
_atom_site_label
_atom_site_fract_x
_atom_site_fract_y
_atom_site_fract_z
Si Si1 0.179909 0.407431 0.036891
Si Si2 0.468372 0.249215 0.020394
Si Si3 0.550549 0.497992 0.293890
Si Si4 0.939595 0.647200 0.680165
Si Si5 0.250000 0.750000 0.960977
Si Si6 0.666819 0.225748 0.864324
Si Si7 0.441796 0.393810 0.126500
Si Si8 0.288824 0.503149 0.862868
O O1 0.250000 0.250000 0.041908
O O2 0.115941 0.257548 0.013345
O O3 0.162101 0.528942 0.090925
O O4 0.195488 0.619698 0.997492
O O5 0.472760 0.242158 0.080835
O O6 0.500000 0.500000 0.000000
O O7 0.500000 0.000000 0.000000
O O8 0.470069 0.413791 0.306909
O O9 0.554516 0.518260 0.234302
O O10 0.614621 0.336914 0.317629
O O11 0.565448 0.745059 0.322630
O O12 0.865762 0.557427 0.658330
O O13 0.997189 0.582760 0.638195
O O14 0.286608 0.562436 0.922500
O O15 0.750000 0.250000 0.851502
O O16 0.631485 0.470900 0.885539
O O17 0.250000 0.250000 0.853580
O O18 0.250000 0.750000 0.842012
#
# Coordination Sequence:
#
# PCOD9433135 Si02
#       8
#     8   8   8   8   4   8   8   8
#     4  12  25  45  75 104 152 199 251 303 381 461
#     4  12  29  46  71 111 151 194 249 313 371 438
#     4  11  24  44  72 108 138 199 245 304 386 449
#     4  11  25  46  77 101 151 192 251 308 376 455
#     4  10  26  44  74 106 150 202 256 292 390 440
#     4  11  24  44  72 106 146 190 244 314 370 449
#     4  11  25  47  69 105 145 192 251 295 382 445
#     4  10  26  49  71 109 146 195 254 310 373 443
#
# _framework density 21.533303
#
# number of rings (size 3 to 8) (size 9 to 14) (size 15 to 20)
#    0.400    0.533    3.333    2.000    7.467    1.600 
#    2.400    0.000    0.000    0.000    0.000    0.000 
#    0.000    0.000    0.000    0.000    0.000    0.000 
#
# Total GULP energy -334458.596383 kJ/mol
# GULP energy per Si atom -5574.309940 kJ/mol
# Density = 2.148429 g / cm^3
# Si number density = 21.533303 Si / 1000 Ang^3
#
#
#
# Elastic Constant Matrix: (Units=GPa)
#
#
# Indices 1 2 3 4 5 6 
#
# 1 148.7749 66.3444 39.7318 0.0000 0.0000 0.0000
# 2 66.3444 114.6127 18.5739 0.0000 0.0000 0.0000
# 3 39.7318 18.5739 61.0408 0.0000 0.0000 0.0000
# 4 0.0000 0.0000 0.0000 48.6476 0.0000 0.0000
# 5 0.0000 0.0000 0.0000 0.0000 26.2257 0.0000
# 6 0.0000 0.0000 0.0000 0.0000 0.0000 46.5235
#
#
#
# Elastic Compliance Matrix: (Units=1/GPa)
#
#
# Indices 1 2 3 4 5 6 
#
# 1 0.010428 -0.005192 -0.005208 0.000000 0.000000 0.000000
# 2 -0.005192 0.011763 -0.000200 0.000000 0.000000 0.000000
# 3 -0.005208 -0.000200 0.019833 0.000000 0.000000 0.000000
# 4 0.000000 0.000000 0.000000 0.020556 0.000000 0.000000
# 5 0.000000 0.000000 0.000000 0.000000 0.038130 0.000000
# 6 0.000000 0.000000 0.000000 0.000000 0.000000 0.021495
#
#
# Mechanical properties :
#
#
# Convention : Reuss Voigt Hill
#
# Bulk Modulus (GPa) = 48.01994 63.74761 55.88377
# Shear Modulus (GPa) = 33.25687 37.59791 35.42739
#
# Velocity S-wave (km/s) = 3.93420 4.18309 4.06055
# Velocity P-wave (km/s) = 6.55637 7.28007 6.92768
#
# Compressibility (1/GPa) = 0.02082468
#
# Stress axis : x y z
#
# Youngs Moduli (GPa) = 95.89849 85.01271 50.42138
#
# Poissons Ratio (x) = 0.44140 0.26257
# Poissons Ratio (y) = 0.49793 0.01007
# Poissons Ratio (z) = 0.49939 0.01697
#
# Static dielectric constant tensor:
#      x y z
#    x 1.817580 0.000000 0.000000 
#    y 0.000000 1.827980 0.000000 
#    z 0.000000 0.000000 1.787970 
# 
# From -- ./inp_files/22533.got.cif
#   From: 2010.05.17/outbox.cif.g08.bks.cpg/sg56_12_cif.got.tgz:22533.got - 2010.06.03 13:42:01.
