data_PCOD9433769
_publ_section_title
;
Structure prediction by ZEFSAII (Michael W. Deem and Ramdas Pophale) SiO2 
 PCOD9433769
Probable space group: P C C N
;
_chemical_formula_sum "Si O2"
_cell_formula_units_Z 28
_cell_length_a 7.610921
_cell_length_b 13.009034
_cell_length_c 11.731205
_cell_angle_alpha 90.000000
_cell_angle_beta 90.000000
_cell_angle_gamma 90.000000
_cell_volume 1161.515172
_symmetry_space_group_name_H-M "P C C N"
_symmetry_group_IT_number 56
_symmetry_cell_setting 'orthorhombic'
loop_
_space_group_symop_operation_xyz
x,y,z
1/2-x,1/2-y,z
1/2+x,-y,1/2-z
-x,1/2+y,1/2-z
-x,-y,-z
1/2+x,1/2+y,-z
1/2-x,y,1/2+z
x,1/2-y,1/2+z
loop_
_atom_site_type_symbol
_atom_site_label
_atom_site_fract_x
_atom_site_fract_y
_atom_site_fract_z
Si Si1 0.435263 0.423150 0.806239
Si Si2 0.558262 0.276345 0.978740
Si Si3 0.250000 0.250000 0.150540
Si Si4 0.572039 0.940016 0.107885
O O1 0.575904 0.367301 0.886604
O O2 0.341555 0.337807 0.725750
O O3 0.279930 0.457444 0.888839
O O4 0.502797 0.511920 0.725043
O O5 0.750000 0.250000 0.027699
O O6 0.482571 0.177685 0.910049
O O7 0.407237 0.295081 0.072257
O O8 0.500000 0.000000 0.000000
#
# Coordination Sequence:
#
# PCOD9433769 Si02
#       4
#     8   8   4   8
#     4  12  24  46  73 102 151 191 235 304 365 425
#     4  12  25  45  71 105 142 189 241 297 367 425
#     4  12  22  48  72  96 148 192 234 298 364 432
#     4  12  24  44  71 106 141 188 247 293 358 439
#
# _framework density 24.106442999999999
#
# number of rings (size 3 to 8) (size 9 to 14) (size 15 to 20)
#    0.000    0.000    8.571    1.714    0.000    3.429 
#    0.000    5.714    0.000    0.000    0.000    0.000 
#    0.000    0.000    0.000    0.000    0.000    0.000 
#
# Total GULP energy -156941.966090 kJ/mol
# GULP energy per Si atom -5605.070218 kJ/mol
# Density = 2.405158 g / cm^3
# Si number density = 24.106443 Si / 1000 Ang^3
#
#
#
# Elastic Constant Matrix: (Units=GPa)
#
#
# Indices 1 2 3 4 5 6 
#
# 1 96.1189 -22.3357 22.0599 0.0000 0.0000 0.0000
# 2 -22.3357 45.4403 23.4457 0.0000 0.0000 0.0000
# 3 22.0599 23.4457 94.2677 0.0000 0.0000 0.0000
# 4 0.0000 0.0000 0.0000 24.7016 0.0000 0.0000
# 5 0.0000 0.0000 0.0000 0.0000 43.3771 0.0000
# 6 0.0000 0.0000 0.0000 0.0000 0.0000 28.5169
#
#
#
# Elastic Compliance Matrix: (Units=1/GPa)
#
#
# Indices 1 2 3 4 5 6 
#
# 1 0.014003 0.009836 -0.005723 0.000000 0.000000 0.000000
# 2 0.009836 0.032156 -0.010299 0.000000 0.000000 0.000000
# 3 -0.005723 -0.010299 0.014509 0.000000 0.000000 0.000000
# 4 0.000000 0.000000 0.000000 0.040483 0.000000 0.000000
# 5 0.000000 0.000000 0.000000 0.000000 0.023054 0.000000
# 6 0.000000 0.000000 0.000000 0.000000 0.000000 0.035067
#
#
# Mechanical properties :
#
#
# Convention : Reuss Voigt Hill
#
# Bulk Modulus (GPa) = 20.70625 31.35185 26.02905
# Shear Modulus (GPa) = 26.63215 33.49625 30.06420
#
# Velocity S-wave (km/s) = 3.32742 3.73166 3.53532
# Velocity P-wave (km/s) = 4.83430 5.62147 5.24268
#
# Compressibility (1/GPa) = 0.04829461
#
# Stress axis : x y z
#
# Youngs Moduli (GPa) = 71.41350 31.09855 68.92273
#
# Poissons Ratio (x) = -0.30589 0.39446
# Poissons Ratio (y) = -0.70242 0.70986
# Poissons Ratio (z) = 0.40872 0.32030
#
# Static dielectric constant tensor:
#      x y z
#    x 1.930400 0.000000 0.000000 
#    y 0.000000 1.981780 0.000000 
#    z 0.000000 0.000000 1.905350 
# 
# From -- ./inp_files/5889.got.cif
#   From: 2010.05.17/outbox.cif.g08.bks.cpg/sg56_3_cif.got.tgz:5889.got - 2010.06.03 13:42:01.
