data_PCOD9433488
_publ_section_title
;
Structure prediction by ZEFSAII (Michael W. Deem and Ramdas Pophale) SiO2 
 PCOD9433488
Probable space group: P C C N
;
_chemical_formula_sum "Si O2"
_cell_formula_units_Z 64
_cell_length_a 8.444670
_cell_length_b 15.423056
_cell_length_c 23.004962
_cell_angle_alpha 90.000000
_cell_angle_beta 90.000000
_cell_angle_gamma 90.000000
_cell_volume 2996.226485
_symmetry_space_group_name_H-M "P C C N"
_symmetry_group_IT_number 56
_symmetry_cell_setting 'orthorhombic'
loop_
_space_group_symop_operation_xyz
x,y,z
1/2-x,1/2-y,z
1/2+x,-y,1/2-z
-x,1/2+y,1/2-z
-x,-y,-z
1/2+x,1/2+y,-z
1/2-x,y,1/2+z
x,1/2-y,1/2+z
loop_
_atom_site_type_symbol
_atom_site_label
_atom_site_fract_x
_atom_site_fract_y
_atom_site_fract_z
Si Si1 0.045287 0.015030 0.794351
Si Si2 0.114364 0.686762 0.688164
Si Si3 0.055864 0.256328 0.030296
Si Si4 0.569302 0.770771 0.099382
Si Si5 0.404541 0.439123 0.320149
Si Si6 0.934296 0.594415 0.880808
Si Si7 0.926619 0.611289 0.386801
Si Si8 0.583679 0.760349 0.788928
O O1 0.222671 0.054298 0.797649
O O2 0.903263 0.086976 0.792905
O O3 0.012677 0.955101 0.737506
O O4 0.026789 0.960317 0.853570
O O5 0.250000 0.750000 0.664941
O O6 0.995260 0.689407 0.634492
O O7 0.056716 0.740619 0.744229
O O8 0.250000 0.250000 0.034652
O O9 0.007032 0.336314 0.071610
O O10 0.007177 0.163010 0.057366
O O11 0.999581 0.276566 0.965311
O O12 0.750000 0.750000 0.088270
O O13 0.560212 0.852365 0.143090
O O14 0.453605 0.514878 0.365563
O O15 0.750994 0.574173 0.896824
O O16 0.922679 0.648071 0.820894
O O17 0.914412 0.688700 0.338899
O O18 0.750000 0.750000 0.755943
#
# Coordination Sequence:
#
# PCOD9433488 Si02
#       8
#     8   8   8   8   8   8   8   8
#     4  12  26  40  58  99 132 166 209 261 331 384
#     4  12  26  39  58  87 127 170 213 264 321 383
#     4   8  18  40  70  91 116 164 221 260 311 379
#     4  11  23  44  65  86 124 173 217 263 317 380
#     4  12  25  39  63  95 135 166 210 266 316 395
#     4   9  18  37  64  95 119 159 207 260 308 377
#     4   9  19  37  64  90 122 159 207 263 313 376
#     4   9  18  35  59  87 121 162 204 249 314 379
#
# _framework density 21.360201
#
# number of rings (size 3 to 8) (size 9 to 14) (size 15 to 20)
#    0.000    1.750    2.500    3.375    7.000    0.500 
#    0.000    3.750    0.000    0.000    0.000    0.000 
#    0.000    0.000    0.000    0.000    0.000    0.000 
#
# Total GULP energy -356592.461295 kJ/mol
# GULP energy per Si atom -5571.757208 kJ/mol
# Density = 2.131158 g / cm^3
# Si number density = 21.360201 Si / 1000 Ang^3
#
#
#
# Elastic Constant Matrix: (Units=GPa)
#
#
# Indices 1 2 3 4 5 6 
#
# 1 31.5057 7.7499 11.1508 0.0000 0.0000 0.0000
# 2 7.7499 98.6730 37.0304 0.0000 0.0000 0.0000
# 3 11.1508 37.0304 116.7885 0.0000 0.0000 0.0000
# 4 0.0000 0.0000 0.0000 78.9073 0.0000 0.0000
# 5 0.0000 0.0000 0.0000 0.0000 -2.8230 0.0000
# 6 0.0000 0.0000 0.0000 0.0000 0.0000 24.0855
#
#
#
# Elastic Compliance Matrix: (Units=1/GPa)
#
#
# Indices 1 2 3 4 5 6 
#
# 1 0.033072 -0.001603 -0.002649 0.000000 0.000000 0.000000
# 2 -0.001603 0.011581 -0.003519 0.000000 0.000000 0.000000
# 3 -0.002649 -0.003519 0.009931 0.000000 0.000000 0.000000
# 4 0.000000 0.000000 0.000000 0.012673 0.000000 0.000000
# 5 0.000000 0.000000 0.000000 0.000000 -0.354228 0.000000
# 6 0.000000 0.000000 0.000000 0.000000 0.000000 0.041519
#
#
# Mechanical properties :
#
#
# Convention : Reuss Voigt Hill
#
# Bulk Modulus (GPa) = 25.61380 39.86991 32.74185
# Shear Modulus (GPa) = -23.05266 32.76969 4.85851
#
# Velocity S-wave (km/s) = -3.28873 3.92107 1.50980
# Velocity P-wave (km/s) = 1.55037 6.26145 4.28964
#
# Compressibility (1/GPa) = 0.03904146
#
# Stress axis : x y z
#
# Youngs Moduli (GPa) = 30.23671 86.34824 100.69273
#
# Poissons Ratio (x) = 0.13844 0.26677
# Poissons Ratio (y) = 0.04848 0.35433
# Poissons Ratio (z) = 0.08011 0.30385
#
# Static dielectric constant tensor:
#      x y z
#    x 1.876620 0.000000 0.000000 
#    y 0.000000 1.804440 0.000000 
#    z 0.000000 0.000000 1.764890 
# 
# From -- ./inp_files/20657.got.cif
#   From: 2010.05.17/outbox.cif.g08.bks.cpg/sg56_11_cif.got.tgz:20657.got - 2010.06.03 13:42:01.
