data_PCOD9433454
_publ_section_title
;
Structure prediction by ZEFSAII (Michael W. Deem and Ramdas Pophale) SiO2 
 PCOD9433454
Probable space group: P C C N
;
_chemical_formula_sum "Si O2"
_cell_formula_units_Z 32
_cell_length_a 16.278515
_cell_length_b 4.832074
_cell_length_c 17.571817
_cell_angle_alpha 90.000000
_cell_angle_beta 90.000000
_cell_angle_gamma 90.000000
_cell_volume 1382.181362
_symmetry_space_group_name_H-M "P C C N"
_symmetry_group_IT_number 56
_symmetry_cell_setting 'orthorhombic'
loop_
_space_group_symop_operation_xyz
x,y,z
1/2-x,1/2-y,z
1/2+x,-y,1/2-z
-x,1/2+y,1/2-z
-x,-y,-z
1/2+x,1/2+y,-z
1/2-x,y,1/2+z
x,1/2-y,1/2+z
loop_
_atom_site_type_symbol
_atom_site_label
_atom_site_fract_x
_atom_site_fract_y
_atom_site_fract_z
Si Si1 0.421615 0.450227 0.446478
Si Si2 0.309437 0.501156 0.170809
Si Si3 0.452310 0.278497 0.276119
Si Si4 0.666091 0.072663 0.494608
O O1 0.500000 0.500000 0.500000
O O2 0.445150 0.335955 0.364911
O O3 0.385495 0.756814 0.443972
O O4 0.353291 0.243922 0.483131
O O5 0.250000 0.250000 0.145491
O O6 0.370699 0.384373 0.233615
O O7 0.358382 0.592724 0.094743
O O8 0.250000 0.750000 0.196528
O O9 0.527204 0.463399 0.243614
O O10 0.750000 0.250000 0.495124
#
# Coordination Sequence:
#
# PCOD9433454 Si02
#       4
#     8   8   8   8
#     4  12  24  41  66  95 127 168 216 268 319 382
#     4  11  23  42  65  92 127 169 210 260 323 388
#     4  12  25  43  65  94 131 171 215 266 321 385
#     4  11  23  42  65  93 127 166 211 264 324 385
#
# _framework density 23.151810999999999
#
# number of rings (size 3 to 8) (size 9 to 14) (size 15 to 20)
#    0.000    0.500    0.000   10.500    0.000    3.000 
#    0.000    0.000    0.000    0.000    0.000    0.000 
#    0.000    0.000    0.000    0.000    0.000    0.000 
#
# Total GULP energy -178803.185295 kJ/mol
# GULP energy per Si atom -5587.599540 kJ/mol
# Density = 2.309912 g / cm^3
# Si number density = 23.151811 Si / 1000 Ang^3
#
#
#
# Elastic Constant Matrix: (Units=GPa)
#
#
# Indices 1 2 3 4 5 6 
#
# 1 51.3277 19.1876 37.3349 0.0000 0.0000 0.0000
# 2 19.1876 110.7020 -8.3301 0.0000 0.0000 0.0000
# 3 37.3349 -8.3301 129.7232 0.0000 0.0000 0.0000
# 4 0.0000 0.0000 0.0000 11.8318 0.0000 0.0000
# 5 0.0000 0.0000 0.0000 0.0000 17.4552 0.0000
# 6 0.0000 0.0000 0.0000 0.0000 0.0000 43.2852
#
#
#
# Elastic Compliance Matrix: (Units=1/GPa)
#
#
# Indices 1 2 3 4 5 6 
#
# 1 0.027508 -0.005390 -0.008263 0.000000 0.000000 0.000000
# 2 -0.005390 0.010133 0.002202 0.000000 0.000000 0.000000
# 3 -0.008263 0.002202 0.010228 0.000000 0.000000 0.000000
# 4 0.000000 0.000000 0.000000 0.084518 0.000000 0.000000
# 5 0.000000 0.000000 0.000000 0.000000 0.057290 0.000000
# 6 0.000000 0.000000 0.000000 0.000000 0.000000 0.023103
#
#
# Mechanical properties :
#
#
# Convention : Reuss Voigt Hill
#
# Bulk Modulus (GPa) = 40.05178 43.12643 41.58910
# Shear Modulus (GPa) = 20.49154 30.75180 25.62167
#
# Velocity S-wave (km/s) = 2.97828 3.64849 3.33029
# Velocity P-wave (km/s) = 5.40038 6.03463 5.72629
#
# Compressibility (1/GPa) = 0.02496768
#
# Stress axis : x y z
#
# Youngs Moduli (GPa) = 36.35332 98.68642 97.76861
#
# Poissons Ratio (x) = 0.53188 0.80786
# Poissons Ratio (y) = 0.19593 -0.21527
# Poissons Ratio (z) = 0.30039 -0.21729
#
# Static dielectric constant tensor:
#      x y z
#    x 1.912650 0.000000 0.000000 
#    y 0.000000 1.838780 0.000000 
#    z 0.000000 0.000000 1.800050 
# 
# From -- ./inp_files/9420.got.cif
#   From: 2010.05.17/outbox.cif.g08.bks.cpg/sg56_5_cif.got.tgz:9420.got - 2010.06.03 13:42:01.
