data_PCOD9434031
_publ_section_title
;
Structure prediction by ZEFSAII (Michael W. Deem and Ramdas Pophale) SiO2 
 PCOD9434031
Probable space group: P B C M
;
_chemical_formula_sum "Si O2"
_cell_formula_units_Z 56
_cell_length_a 14.918570
_cell_length_b 27.834815
_cell_length_c 7.458269
_cell_angle_alpha 90.000000
_cell_angle_beta 90.000000
_cell_angle_gamma 90.000000
_cell_volume 3097.088237
_symmetry_space_group_name_H-M "P B C M"
_symmetry_group_IT_number 57
_symmetry_cell_setting 'orthorhombic'
loop_
_space_group_symop_operation_xyz
x,y,z
-x,-y,1/2+z
x,1/2-y,-z
-x,1/2+y,1/2-z
-x,-y,-z
x,y,1/2-z
-x,1/2+y,z
x,1/2-y,1/2+z
loop_
_atom_site_type_symbol
_atom_site_label
_atom_site_fract_x
_atom_site_fract_y
_atom_site_fract_z
Si Si1 0.939857 0.072971 0.958821
Si Si2 0.674789 0.942847 0.470137
Si Si3 0.529798 0.874557 0.046931
Si Si4 0.608211 0.455038 0.541045
Si Si5 0.124137 0.034555 0.531942
Si Si6 0.378571 0.806204 0.464696
Si Si7 0.235717 0.617549 0.532309
O O1 0.950813 0.085314 0.750000
O O2 0.865204 0.109085 0.034151
O O3 0.040119 0.066644 0.032520
O O4 0.896172 0.019775 0.971386
O O5 0.673011 0.943048 0.250000
O O6 0.620842 0.895994 0.532914
O O7 0.778127 0.947593 0.524401
O O8 0.622786 0.991254 0.527575
O O9 0.551196 0.859367 0.250000
O O10 0.467941 0.832979 0.963673
O O11 0.463579 0.920813 0.052271
O O12 0.583556 0.457125 0.750000
O O13 0.702839 0.427429 0.524148
O O14 0.122708 0.033545 0.750000
O O15 0.375929 0.750000 0.500000
O O16 0.380879 0.813026 0.250000
O O17 0.290917 0.835527 0.527876
O O18 0.233187 0.617549 0.750000
#
# Coordination Sequence:
#
# PCOD9434031 Si02
#       7
#     8   8   8   8   8   8   8
#     4   9  16  26  41  60  84 114 143 168 198 235
#     4   9  16  26  40  59  85 114 142 169 198 234
#     4   9  18  31  43  57  81 112 138 167 208 253
#     4  10  17  25  39  61  85 111 141 173 198 232
#     4   9  16  26  40  60  86 114 143 171 194 226
#     4   9  18  31  46  61  79 101 133 175 217 258
#     4   9  17  29  43  61  85 114 140 167 207 253
#
# _framework density 18.081499999999998
#
# number of rings (size 3 to 8) (size 9 to 14) (size 15 to 20)
#    0.000    2.857    1.429    1.714    0.000    2.286 
#    0.000    1.429    0.000    0.000    0.000    1.000 
#    0.000    0.000    0.000    0.000    0.000    0.000 
#
# Total GULP energy -312073.442113 kJ/mol
# GULP energy per Si atom -5572.740038 kJ/mol
# Density = 1.804035 g / cm^3
# Si number density = 18.081500 Si / 1000 Ang^3
#
#
#
# Elastic Constant Matrix: (Units=GPa)
#
#
# Indices 1 2 3 4 5 6 
#
# 1 83.0526 41.2455 -5.7607 0.0000 0.0000 0.0000
# 2 41.2455 97.7422 -3.4525 0.0000 0.0000 0.0000
# 3 -5.7607 -3.4525 58.4107 0.0000 0.0000 0.0000
# 4 0.0000 0.0000 0.0000 10.1901 0.0000 0.0000
# 5 0.0000 0.0000 0.0000 0.0000 7.4961 0.0000
# 6 0.0000 0.0000 0.0000 0.0000 0.0000 16.2561
#
#
#
# Elastic Compliance Matrix: (Units=1/GPa)
#
#
# Indices 1 2 3 4 5 6 
#
# 1 0.015307 -0.006419 0.001130 0.000000 0.000000 0.000000
# 2 -0.006419 0.012945 0.000132 0.000000 0.000000 0.000000
# 3 0.001130 0.000132 0.017239 0.000000 0.000000 0.000000
# 4 0.000000 0.000000 0.000000 0.098134 0.000000 0.000000
# 5 0.000000 0.000000 0.000000 0.000000 0.133403 0.000000
# 6 0.000000 0.000000 0.000000 0.000000 0.000000 0.061516
#
#
# Mechanical properties :
#
#
# Convention : Reuss Voigt Hill
#
# Bulk Modulus (GPa) = 28.42799 33.69669 31.06234
# Shear Modulus (GPa) = 13.86640 20.59999 17.23320
#
# Velocity S-wave (km/s) = 2.77227 3.37899 3.09056
# Velocity P-wave (km/s) = 5.09937 5.82236 5.47282
#
# Compressibility (1/GPa) = 0.03517660
#
# Stress axis : x y z
#
# Youngs Moduli (GPa) = 65.32992 77.25286 58.00663
#
# Poissons Ratio (x) = 0.49591 -0.06556
# Poissons Ratio (y) = 0.41937 -0.00766
# Poissons Ratio (z) = -0.07384 -0.01020
#
# Static dielectric constant tensor:
#      x y z
#    x 1.671390 0.000000 0.000000 
#    y 0.000000 1.591620 0.000000 
#    z 0.000000 0.000000 1.674980 
# 
# From -- ./inp_files/5893.got.cif
#   From: 2010.05.17/outbox.cif.g08.bks.cpg/sg57_3_cif.got.tgz:5893.got - 2010.06.03 13:58:18.
