data_PCOD9434872
_publ_section_title
;
Structure prediction by ZEFSAII (Michael W. Deem and Ramdas Pophale) SiO2 
 PCOD9434872
Probable space group: P B C M
;
_chemical_formula_sum "Si O2"
_cell_formula_units_Z 48
_cell_length_a 11.810466
_cell_length_b 27.608380
_cell_length_c 8.571367
_cell_angle_alpha 90.000000
_cell_angle_beta 90.000000
_cell_angle_gamma 90.000000
_cell_volume 2794.847066
_symmetry_space_group_name_H-M "P B C M"
_symmetry_group_IT_number 57
_symmetry_cell_setting 'orthorhombic'
loop_
_space_group_symop_operation_xyz
x,y,z
-x,-y,1/2+z
x,1/2-y,-z
-x,1/2+y,1/2-z
-x,-y,-z
x,y,1/2-z
-x,1/2+y,z
x,1/2-y,1/2+z
loop_
_atom_site_type_symbol
_atom_site_label
_atom_site_fract_x
_atom_site_fract_y
_atom_site_fract_z
Si Si1 0.876386 0.056040 0.061134
Si Si2 0.139386 0.048867 0.063590
Si Si3 0.495046 0.304254 0.562572
Si Si4 0.318931 0.378243 0.425943
Si Si5 0.468920 0.949541 0.426677
Si Si6 0.308661 0.625590 0.431814
O O1 0.869562 0.055404 0.250000
O O2 0.809539 0.104111 0.004320
O O3 0.008419 0.057130 0.015819
O O4 0.827769 0.004378 0.002040
O O5 0.145226 0.046251 0.250000
O O6 0.216167 0.093408 0.006771
O O7 0.492309 0.250000 0.500000
O O8 0.498537 0.304824 0.750000
O O9 0.383359 0.333878 0.509636
O O10 0.610181 0.331782 0.503045
O O11 0.287129 0.363850 0.250000
O O12 0.417526 0.418287 0.417461
O O13 0.421786 0.953249 0.250000
O O14 0.386875 0.921344 0.543008
O O15 0.500000 0.000000 0.500000
O O16 0.291058 0.636888 0.250000
#
# Coordination Sequence:
#
# PCOD9434872 Si02
#       6
#     8   8   8   8   8   8
#     4   9  18  32  48  69 100 136 169 200 237 283
#     4  10  19  30  47  72 101 134 170 204 238 280
#     4  10  20  35  55  76  96 120 154 198 249 299
#     4  10  20  33  48  68  96 128 162 199 240 287
#     4  10  19  28  41  64  94 125 155 192 236 283
#     4   9  18  32  49  68  92 124 159 194 236 288
#
# _framework density 17.174462999999999
#
# number of rings (size 3 to 8) (size 9 to 14) (size 15 to 20)
#    0.000    2.333    0.000    3.000    0.000    8.000 
#    0.000    0.000    0.000    1.000    0.000    2.333 
#    0.000    0.000    0.000    0.000    0.000    0.000 
#
# Total GULP energy -267265.815366 kJ/mol
# GULP energy per Si atom -5568.037820 kJ/mol
# Density = 1.713537 g / cm^3
# Si number density = 17.174463 Si / 1000 Ang^3
#
#
#
# Elastic Constant Matrix: (Units=GPa)
#
#
# Indices 1 2 3 4 5 6 
#
# 1 77.8776 48.1055 13.5623 0.0000 0.0000 0.0000
# 2 48.1055 124.5207 24.5263 0.0000 0.0000 0.0000
# 3 13.5623 24.5263 32.3366 0.0000 0.0000 0.0000
# 4 0.0000 0.0000 0.0000 19.5731 0.0000 0.0000
# 5 0.0000 0.0000 0.0000 0.0000 19.1512 0.0000
# 6 0.0000 0.0000 0.0000 0.0000 0.0000 25.0650
#
#
#
# Elastic Compliance Matrix: (Units=1/GPa)
#
#
# Indices 1 2 3 4 5 6 
#
# 1 0.017040 -0.006084 -0.002532 0.000000 0.000000 0.000000
# 2 -0.006084 0.011614 -0.006257 0.000000 0.000000 0.000000
# 3 -0.002532 -0.006257 0.036732 0.000000 0.000000 0.000000
# 4 0.000000 0.000000 0.000000 0.051091 0.000000 0.000000
# 5 0.000000 0.000000 0.000000 0.000000 0.052216 0.000000
# 6 0.000000 0.000000 0.000000 0.000000 0.000000 0.039896
#
#
# Mechanical properties :
#
#
# Convention : Reuss Voigt Hill
#
# Bulk Modulus (GPa) = 28.05859 45.23590 36.64725
# Shear Modulus (GPa) = 19.98285 22.66058 21.32171
#
# Velocity S-wave (km/s) = 3.41474 3.63634 3.52728
# Velocity P-wave (km/s) = 5.64979 6.63528 6.16227
#
# Compressibility (1/GPa) = 0.03563970
#
# Stress axis : x y z
#
# Youngs Moduli (GPa) = 58.68597 86.10556 27.22402
#
# Poissons Ratio (x) = 0.52388 0.06893
# Poissons Ratio (y) = 0.35706 0.17034
# Poissons Ratio (z) = 0.14859 0.53875
#
# Static dielectric constant tensor:
#      x y z
#    x 1.615090 0.000000 0.000000 
#    y 0.000000 1.541490 0.000000 
#    z 0.000000 0.000000 1.615020 
# 
# From -- ./inp_files/3138.got.cif
#   From: 2010.05.17/outbox.cif.g08.bks.cpg/sg57_2_cif.got.tgz:3138.got - 2010.06.03 13:58:18.
