data_PCOD9434370
_publ_section_title
;
Structure prediction by ZEFSAII (Michael W. Deem and Ramdas Pophale) SiO2 
 PCOD9434370
Probable space group: P B C M
;
_chemical_formula_sum "Si O2"
_cell_formula_units_Z 64
_cell_length_a 16.644286
_cell_length_b 25.919898
_cell_length_c 8.600473
_cell_angle_alpha 90.000000
_cell_angle_beta 90.000000
_cell_angle_gamma 90.000000
_cell_volume 3710.400541
_symmetry_space_group_name_H-M "P B C M"
_symmetry_group_IT_number 57
_symmetry_cell_setting 'orthorhombic'
loop_
_space_group_symop_operation_xyz
x,y,z
-x,-y,1/2+z
x,1/2-y,-z
-x,1/2+y,1/2-z
-x,-y,-z
x,y,1/2-z
-x,1/2+y,z
x,1/2-y,1/2+z
loop_
_atom_site_type_symbol
_atom_site_label
_atom_site_fract_x
_atom_site_fract_y
_atom_site_fract_z
Si Si1 0.937802 0.542364 0.063700
Si Si2 0.195896 0.969924 0.061291
Si Si3 0.660120 0.307954 0.564899
Si Si4 0.486217 0.191510 0.565347
Si Si5 0.929734 0.114197 0.064531
Si Si6 0.466455 0.083789 0.435801
Si Si7 0.179637 0.693362 0.568424
Si Si8 0.381103 0.523069 0.562463
O O1 0.942224 0.540613 0.250000
O O2 0.848075 0.524586 0.022906
O O3 0.981378 0.595151 0.017408
O O4 0.000000 0.500000 0.000000
O O5 0.192553 0.962546 0.250000
O O6 0.288886 0.967506 0.014642
O O7 0.137081 0.928666 0.981686
O O8 0.669745 0.250000 0.500000
O O9 0.652566 0.308688 0.750000
O O10 0.576933 0.323133 0.487248
O O11 0.742855 0.333858 0.511579
O O12 0.469142 0.250000 0.500000
O O13 0.481303 0.195251 0.750000
O O14 0.441872 0.139509 0.506348
O O15 0.926708 0.122574 0.250000
O O16 0.900418 0.163292 0.971646
O O17 0.468349 0.089634 0.250000
O O18 0.553714 0.062105 0.490387
O O19 0.407809 0.035722 0.476288
O O20 0.170620 0.750000 0.500000
O O21 0.196206 0.695571 0.750000
O O22 0.385747 0.528222 0.750000
#
# Coordination Sequence:
#
# PCOD9434370 Si02
#       8
#     8   8   8   8   8   8   8   8
#     4   8  15  28  46  67  93 120 149 189 231 272
#     4   9  17  31  50  71  94 123 160 197 236 282
#     4  10  18  30  45  63  88 118 153 193 231 272
#     4  11  21  34  51  71  95 125 161 200 244 291
#     4  10  19  30  45  69  97 126 158 193 235 280
#     4  10  20  34  50  70  99 131 164 204 246 289
#     4  11  21  33  46  63  90 125 160 196 232 275
#     4   9  19  34  51  71  97 130 167 204 245 292
#
# _framework density 17.248812000000001
#
# number of rings (size 3 to 8) (size 9 to 14) (size 15 to 20)
#    0.000    2.250    0.000    5.625    1.750    1.500 
#    0.000    0.000    0.000    0.000    0.000    0.875 
#    0.000    0.000    0.000    0.000    0.000    0.000 
#
# Total GULP energy -356333.624779 kJ/mol
# GULP energy per Si atom -5567.712887 kJ/mol
# Density = 1.720955 g / cm^3
# Si number density = 17.248812 Si / 1000 Ang^3
#
#
#
# Elastic Constant Matrix: (Units=GPa)
#
#
# Indices 1 2 3 4 5 6 
#
# 1 44.4896 11.4031 6.3555 0.0000 0.0000 0.0000
# 2 11.4031 89.6026 29.7092 0.0000 0.0000 0.0000
# 3 6.3555 29.7092 66.1369 0.0000 0.0000 0.0000
# 4 0.0000 0.0000 0.0000 22.5634 0.0000 0.0000
# 5 0.0000 0.0000 0.0000 0.0000 14.5598 0.0000
# 6 0.0000 0.0000 0.0000 0.0000 0.0000 22.1072
#
#
#
# Elastic Compliance Matrix: (Units=1/GPa)
#
#
# Indices 1 2 3 4 5 6 
#
# 1 0.023299 -0.002612 -0.001066 0.000000 0.000000 0.000000
# 2 -0.002612 0.013406 -0.005771 0.000000 0.000000 0.000000
# 3 -0.001066 -0.005771 0.017815 0.000000 0.000000 0.000000
# 4 0.000000 0.000000 0.000000 0.044320 0.000000 0.000000
# 5 0.000000 0.000000 0.000000 0.000000 0.068682 0.000000
# 6 0.000000 0.000000 0.000000 0.000000 0.000000 0.045234
#
#
# Mechanical properties :
#
#
# Convention : Reuss Voigt Hill
#
# Bulk Modulus (GPa) = 28.07191 32.79609 30.43400
# Shear Modulus (GPa) = 20.53152 22.03015 21.28083
#
# Velocity S-wave (km/s) = 3.45384 3.57767 3.51630
# Velocity P-wave (km/s) = 5.67586 6.01008 5.84536
#
# Compressibility (1/GPa) = 0.03562280
#
# Stress axis : x y z
#
# Youngs Moduli (GPa) = 42.92064 74.59163 56.13228
#
# Poissons Ratio (x) = 0.19481 0.05982
# Poissons Ratio (y) = 0.11210 0.32395
# Poissons Ratio (z) = 0.04574 0.43049
#
# Static dielectric constant tensor:
#      x y z
#    x 1.626870 0.000000 0.000000 
#    y 0.000000 1.622500 0.000000 
#    z 0.000000 0.000000 1.581730 
# 
# From -- ./inp_files/7420.got.cif
#   From: 2010.05.17/outbox.cif.g08.bks.cpg/sg57_4_cif.got.tgz:7420.got - 2010.06.03 13:58:18.
