data_PCOD9434517
_publ_section_title
;
Structure prediction by ZEFSAII (Michael W. Deem and Ramdas Pophale) SiO2 
 PCOD9434517
Probable space group: P B C M
;
_chemical_formula_sum "Si O2"
_cell_formula_units_Z 56
_cell_length_a 9.798126
_cell_length_b 18.431814
_cell_length_c 17.891147
_cell_angle_alpha 90.000000
_cell_angle_beta 90.000000
_cell_angle_gamma 90.000000
_cell_volume 3231.091697
_symmetry_space_group_name_H-M "P B C M"
_symmetry_group_IT_number 57
_symmetry_cell_setting 'orthorhombic'
loop_
_space_group_symop_operation_xyz
x,y,z
-x,-y,1/2+z
x,1/2-y,-z
-x,1/2+y,1/2-z
-x,-y,-z
x,y,1/2-z
-x,1/2+y,z
x,1/2-y,1/2+z
loop_
_atom_site_type_symbol
_atom_site_label
_atom_site_fract_x
_atom_site_fract_y
_atom_site_fract_z
Si Si1 0.174768 0.483123 0.084732
Si Si2 0.242429 0.676564 0.540463
Si Si3 0.130418 0.969494 0.418153
Si Si4 0.430996 0.741418 0.837074
Si Si5 0.394957 0.895387 0.593584
Si Si6 0.635085 0.873289 0.336867
Si Si7 0.593134 0.002283 0.836364
O O1 0.267940 0.551039 0.111211
O O2 0.249321 0.410974 0.113688
O O3 0.018814 0.489214 0.111047
O O4 0.165006 0.487214 0.994559
O O5 0.193382 0.750000 0.500000
O O6 0.132361 0.614994 0.556804
O O7 0.314800 0.702318 0.615385
O O8 0.356604 0.638204 0.487147
O O9 0.253610 0.980640 0.360858
O O10 0.414948 0.726560 0.750000
O O11 0.416373 0.826191 0.853937
O O12 0.575826 0.705103 0.859585
O O13 0.526762 0.945468 0.605443
O O14 0.679385 0.871159 0.250000
O O15 0.503726 0.927024 0.340673
O O16 0.586117 0.976492 0.750000
#
# Coordination Sequence:
#
# PCOD9434517 Si02
#       7
#     8   8   8   8   8   8   8
#     4   9  20  34  52  76 104 138 176 212 268 317
#     4   9  18  31  52  79 103 135 179 216 265 315
#     4  10  19  33  54  76 104 139 173 220 262 315
#     4  10  18  31  52  76 104 133 172 219 264 310
#     4   9  19  33  53  76 104 138 173 219 262 318
#     4   9  18  31  51  76 101 131 171 216 261 315
#     4  10  19  31  51  79 103 133 174 217 265 310
#
# _framework density 17.331603000000001
#
# number of rings (size 3 to 8) (size 9 to 14) (size 15 to 20)
#    0.000    2.571    1.429    0.429    2.000    2.857 
#    0.000    0.000   12.571    0.000    0.000    0.000 
#    0.000    0.000    0.000    0.000    0.000    0.000 
#
# Total GULP energy -311895.713481 kJ/mol
# GULP energy per Si atom -5569.566312 kJ/mol
# Density = 1.729216 g / cm^3
# Si number density = 17.331603 Si / 1000 Ang^3
#
#
#
# Elastic Constant Matrix: (Units=GPa)
#
#
# Indices 1 2 3 4 5 6 
#
# 1 106.1680 34.4805 24.0874 0.0000 0.0000 0.0000
# 2 34.4805 79.0787 24.0841 0.0000 0.0000 0.0000
# 3 24.0874 24.0841 29.0240 0.0000 0.0000 0.0000
# 4 0.0000 0.0000 0.0000 20.2208 0.0000 0.0000
# 5 0.0000 0.0000 0.0000 0.0000 16.7442 0.0000
# 6 0.0000 0.0000 0.0000 0.0000 0.0000 17.2389
#
#
#
# Elastic Compliance Matrix: (Units=1/GPa)
#
#
# Indices 1 2 3 4 5 6 
#
# 1 0.012103 -0.002968 -0.007581 0.000000 0.000000 0.000000
# 2 -0.002968 0.017650 -0.012183 0.000000 0.000000 0.000000
# 3 -0.007581 -0.012183 0.050855 0.000000 0.000000 0.000000
# 4 0.000000 0.000000 0.000000 0.049454 0.000000 0.000000
# 5 0.000000 0.000000 0.000000 0.000000 0.059722 0.000000
# 6 0.000000 0.000000 0.000000 0.000000 0.000000 0.058008
#
#
# Mechanical properties :
#
#
# Convention : Reuss Voigt Hill
#
# Bulk Modulus (GPa) = 28.45450 42.17497 35.31474
# Shear Modulus (GPa) = 16.39490 19.61537 18.00514
#
# Velocity S-wave (km/s) = 3.07897 3.36783 3.22663
# Velocity P-wave (km/s) = 5.39383 6.28570 5.85677
#
# Compressibility (1/GPa) = 0.03514382
#
# Stress axis : x y z
#
# Youngs Moduli (GPa) = 82.62319 56.65642 19.66357
#
# Poissons Ratio (x) = 0.16817 0.14908
# Poissons Ratio (y) = 0.24525 0.23956
# Poissons Ratio (z) = 0.62641 0.69023
#
# Static dielectric constant tensor:
#      x y z
#    x 1.566920 0.000000 0.000000 
#    y 0.000000 1.627490 0.000000 
#    z 0.000000 0.000000 1.602640 
# 
# From -- ./inp_files/24515.got.cif
#   From: 2010.05.17/outbox.cif.g08.bks.cpg/sg57_13_cif.got.tgz:24515.got - 2010.06.03 13:58:18.
