data_PCOD9434306
_publ_section_title
;
Structure prediction by ZEFSAII (Michael W. Deem and Ramdas Pophale) SiO2 
 PCOD9434306
Probable space group: P B C M
;
_chemical_formula_sum "Si O2"
_cell_formula_units_Z 48
_cell_length_a 15.909106
_cell_length_b 21.905834
_cell_length_c 8.598496
_cell_angle_alpha 90.000000
_cell_angle_beta 90.000000
_cell_angle_gamma 90.000000
_cell_volume 2996.595075
_symmetry_space_group_name_H-M "P B C M"
_symmetry_group_IT_number 57
_symmetry_cell_setting 'orthorhombic'
loop_
_space_group_symop_operation_xyz
x,y,z
-x,-y,1/2+z
x,1/2-y,-z
-x,1/2+y,1/2-z
-x,-y,-z
x,y,1/2-z
-x,1/2+y,z
x,1/2-y,1/2+z
loop_
_atom_site_type_symbol
_atom_site_label
_atom_site_fract_x
_atom_site_fract_y
_atom_site_fract_z
Si Si1 0.160590 0.403166 0.563087
Si Si2 0.018899 0.567783 0.437457
Si Si3 0.383048 0.958125 0.562212
Si Si4 0.197168 0.539308 0.061878
Si Si5 0.559991 0.910890 0.936091
Si Si6 0.693400 0.681900 0.934658
O O1 0.166094 0.402124 0.750000
O O2 0.185886 0.470966 0.505024
O O3 0.225017 0.354575 0.495253
O O4 0.062735 0.393326 0.514723
O O5 0.017580 0.566725 0.250000
O O6 0.115496 0.578977 0.486026
O O7 0.000000 0.500000 0.500000
O O8 0.385520 0.964594 0.750000
O O9 0.289532 0.937400 0.516835
O O10 0.461627 0.915478 0.518448
O O11 0.400241 0.024705 0.490152
O O12 0.195671 0.534517 0.250000
O O13 0.566118 0.906569 0.750000
O O14 0.612424 0.856482 0.010301
O O15 0.695497 0.683418 0.750000
O O16 0.691736 0.750000 0.000000
#
# Coordination Sequence:
#
# PCOD9434306 Si02
#       6
#     8   8   8   8   8   8
#     4  10  18  29  44  66  94 124 155 192 231 274
#     4   8  15  25  40  63  93 123 152 182 219 264
#     4   9  17  28  46  70  98 129 158 189 232 281
#     4   9  15  26  44  68  96 128 157 184 222 273
#     4  10  19  31  46  68  96 125 158 196 236 281
#     4  12  24  37  51  67  89 122 161 201 243 288
#
# _framework density 16.018180000000001
#
# number of rings (size 3 to 8) (size 9 to 14) (size 15 to 20)
#    0.000    2.333    1.667    2.500    0.000    1.333 
#    0.000    0.000    0.000    0.000    0.000    1.167 
#    0.000    0.000    0.000    0.000    0.000    0.000 
#
# Total GULP energy -267320.276285 kJ/mol
# GULP energy per Si atom -5569.172423 kJ/mol
# Density = 1.598172 g / cm^3
# Si number density = 16.018180 Si / 1000 Ang^3
#
#
#
# Elastic Constant Matrix: (Units=GPa)
#
#
# Indices 1 2 3 4 5 6 
#
# 1 197.6344 59.2563 41.1796 0.0000 0.0000 0.0000
# 2 59.2563 67.6028 22.3427 0.0000 0.0000 0.0000
# 3 41.1796 22.3427 34.0045 0.0000 0.0000 0.0000
# 4 0.0000 0.0000 0.0000 19.9025 0.0000 0.0000
# 5 0.0000 0.0000 0.0000 0.0000 16.4565 0.0000
# 6 0.0000 0.0000 0.0000 0.0000 0.0000 12.2216
#
#
#
# Elastic Compliance Matrix: (Units=1/GPa)
#
#
# Indices 1 2 3 4 5 6 
#
# 1 0.007802 -0.004747 -0.006329 0.000000 0.000000 0.000000
# 2 -0.004747 0.021784 -0.008565 0.000000 0.000000 0.000000
# 3 -0.006329 -0.008565 0.042700 0.000000 0.000000 0.000000
# 4 0.000000 0.000000 0.000000 0.050245 0.000000 0.000000
# 5 0.000000 0.000000 0.000000 0.000000 0.060766 0.000000
# 6 0.000000 0.000000 0.000000 0.000000 0.000000 0.081822
#
#
# Mechanical properties :
#
#
# Convention : Reuss Voigt Hill
#
# Bulk Modulus (GPa) = 30.29908 60.53321 45.41615
# Shear Modulus (GPa) = 15.85282 21.48033 18.66657
#
# Velocity S-wave (km/s) = 3.14933 3.66594 3.41741
# Velocity P-wave (km/s) = 5.67282 7.46935 6.63219
#
# Compressibility (1/GPa) = 0.03300430
#
# Stress axis : x y z
#
# Youngs Moduli (GPa) = 128.17508 45.90610 23.41923
#
# Poissons Ratio (x) = 0.21791 0.14822
# Poissons Ratio (y) = 0.60842 0.20058
# Poissons Ratio (z) = 0.81124 0.39317
#
# Static dielectric constant tensor:
#      x y z
#    x 1.617890 0.000000 0.000000 
#    y 0.000000 1.471380 0.000000 
#    z 0.000000 0.000000 1.533550 
# 
# From -- ./inp_files/6694.got.cif
#   From: 2010.05.17/outbox.cif.g08.bks.cpg/sg57_4_cif.got.tgz:6694.got - 2010.06.03 13:58:18.
