data_PCOD9434972
_publ_section_title
;
Structure prediction by ZEFSAII (Michael W. Deem and Ramdas Pophale) SiO2 
 PCOD9434972
Probable space group: P B C M
;
_chemical_formula_sum "Si O2"
_cell_formula_units_Z 40
_cell_length_a 15.909802
_cell_length_b 13.360094
_cell_length_c 7.593474
_cell_angle_alpha 90.000000
_cell_angle_beta 90.000000
_cell_angle_gamma 90.000000
_cell_volume 1614.041878
_symmetry_space_group_name_H-M "P B C M"
_symmetry_group_IT_number 57
_symmetry_cell_setting 'orthorhombic'
loop_
_space_group_symop_operation_xyz
x,y,z
-x,-y,1/2+z
x,1/2-y,-z
-x,1/2+y,1/2-z
-x,-y,-z
x,y,1/2-z
-x,1/2+y,z
x,1/2-y,1/2+z
loop_
_atom_site_type_symbol
_atom_site_label
_atom_site_fract_x
_atom_site_fract_y
_atom_site_fract_z
Si Si1 0.560406 0.860289 0.542847
Si Si2 0.376474 0.570902 0.538436
Si Si3 0.198225 0.913892 0.043574
Si Si4 0.982783 0.384734 0.460773
Si Si5 0.164682 0.143763 0.960596
O O1 0.591598 0.750000 0.500000
O O2 0.566382 0.871341 0.750000
O O3 0.462033 0.869953 0.495314
O O4 0.606871 0.958022 0.466629
O O5 0.366954 0.565725 0.750000
O O6 0.288987 0.614904 0.468040
O O7 0.195812 0.888549 0.250000
O O8 0.111503 0.868454 0.967396
O O9 0.195959 0.036290 0.030648
O O10 0.981447 0.366290 0.250000
O O11 0.000000 0.500000 0.500000
O O12 0.069725 0.343375 0.536488
O O13 0.161990 0.132041 0.750000
O O14 0.208889 0.250000 0.000000
#
# Coordination Sequence:
#
# PCOD9434972 Si02
#       5
#     8   8   8   8   8
#     4  10  20  35  55  77 103 136 171 209 255 308
#     4   9  19  35  55  79 105 134 169 210 258 310
#     4   9  17  32  52  72  96 125 159 202 250 296
#     4   8  15  28  46  65  88 121 156 190 230 278
#     4  10  19  30  45  68  97 129 165 202 243 290
#
# _framework density 24.782505
#
# number of rings (size 3 to 8) (size 9 to 14) (size 15 to 20)
#    0.000    2.800    0.000    1.200    0.000    3.200 
#    0.000    3.000    0.000    2.400    0.000    0.000 
#    0.000    0.000    0.000    0.000    0.000    0.000 
#
# Total GULP energy -222989.878005 kJ/mol
# GULP energy per Si atom -5574.746950 kJ/mol
# Density = 2.472610 g / cm^3
# Si number density = 24.782505 Si / 1000 Ang^3
#
#
#
# Elastic Constant Matrix: (Units=GPa)
#
#
# Indices 1 2 3 4 5 6 
#
# 1 130.0145 2.1475 13.5314 0.0000 0.0000 0.0000
# 2 2.1475 72.0403 -23.5502 0.0000 0.0000 0.0000
# 3 13.5314 -23.5502 74.2003 0.0000 0.0000 0.0000
# 4 0.0000 0.0000 0.0000 16.9120 0.0000 0.0000
# 5 0.0000 0.0000 0.0000 0.0000 2.1900 0.0000
# 6 0.0000 0.0000 0.0000 0.0000 0.0000 -11.5943
#
#
#
# Elastic Compliance Matrix: (Units=1/GPa)
#
#
# Indices 1 2 3 4 5 6 
#
# 1 0.007880 -0.000786 -0.001687 0.000000 0.000000 0.000000
# 2 -0.000786 0.015567 0.005084 0.000000 0.000000 0.000000
# 3 -0.001687 0.005084 0.015398 0.000000 0.000000 0.000000
# 4 0.000000 0.000000 0.000000 0.059130 0.000000 0.000000
# 5 0.000000 0.000000 0.000000 0.000000 0.456630 0.000000
# 6 0.000000 0.000000 0.000000 0.000000 0.000000 -0.086249
#
#
# Mechanical properties :
#
#
# Convention : Reuss Voigt Hill
#
# Bulk Modulus (GPa) = 22.69269 28.94584 25.81926
# Shear Modulus (GPa) = 10.46415 20.44328 15.45372
#
# Velocity S-wave (km/s) = 2.05708 2.87524 2.49985
# Velocity P-wave (km/s) = 3.84951 4.76738 4.33282
#
# Compressibility (1/GPa) = 0.04406706
#
# Stress axis : x y z
#
# Youngs Moduli (GPa) = 126.90405 64.24041 64.94269
#
# Poissons Ratio (x) = 0.05051 0.10953
# Poissons Ratio (y) = 0.09978 -0.33017
# Poissons Ratio (z) = 0.21403 -0.32660
#
# Static dielectric constant tensor:
#      x y z
#    x 2.040710 0.000000 0.000000 
#    y 0.000000 1.946260 0.000000 
#    z 0.000000 0.000000 1.934150 
# 
# From -- ./inp_files/6364.got.cif
#   From: 2010.05.17/outbox.cif.g08.bks.cpg/sg57_4_cif.got.tgz:6364.got - 2010.06.03 13:58:18.
