data_PCOD9434579
_publ_section_title
;
Structure prediction by ZEFSAII (Michael W. Deem and Ramdas Pophale) SiO2 
 PCOD9434579
Probable space group: P B C M
;
_chemical_formula_sum "Si O2"
_cell_formula_units_Z 52
_cell_length_a 14.992620
_cell_length_b 21.253837
_cell_length_c 7.431587
_cell_angle_alpha 90.000000
_cell_angle_beta 90.000000
_cell_angle_gamma 90.000000
_cell_volume 2368.080412
_symmetry_space_group_name_H-M "P B C M"
_symmetry_group_IT_number 57
_symmetry_cell_setting 'orthorhombic'
loop_
_space_group_symop_operation_xyz
x,y,z
-x,-y,1/2+z
x,1/2-y,-z
-x,1/2+y,1/2-z
-x,-y,-z
x,y,1/2-z
-x,1/2+y,z
x,1/2-y,1/2+z
loop_
_atom_site_type_symbol
_atom_site_label
_atom_site_fract_x
_atom_site_fract_y
_atom_site_fract_z
Si Si1 0.871433 0.036459 0.464727
Si Si2 0.992985 0.642684 0.028393
Si Si3 0.375199 0.054359 0.462277
Si Si4 0.809943 0.600025 0.046403
Si Si5 0.875382 0.250000 0.000000
Si Si6 0.429665 0.915447 0.467009
Si Si7 0.741260 0.350944 0.037343
O O1 0.872516 0.027923 0.250000
O O2 0.789870 0.082082 0.516435
O O3 0.958746 0.076465 0.516502
O O4 0.853950 0.969475 0.551288
O O5 0.998330 0.649723 0.250000
O O6 0.890265 0.641809 0.969764
O O7 0.052294 0.697372 0.941761
O O8 0.357025 0.045945 0.250000
O O9 0.287242 0.088174 0.538009
O O10 0.467462 0.091840 0.482092
O O11 0.396702 0.984265 0.534910
O O12 0.796043 0.623255 0.250000
O O13 0.801755 0.300888 0.934606
O O14 0.425461 0.917277 0.250000
O O15 0.359659 0.862299 0.523921
O O16 0.744274 0.333716 0.250000
#
# Coordination Sequence:
#
# PCOD9434579 Si02
#       7
#     8   8   8   8   4   8   8
#     4  10  19  30  47  76 106 131 169 209 249 298
#     4   9  19  33  49  71  99 133 170 212 252 299
#     4   9  17  29  47  73 101 132 166 197 242 303
#     4  10  18  32  51  71 103 138 168 201 253 313
#     4  10  20  34  54  78  98 128 176 220 254 294
#     4   9  17  30  48  72 100 132 165 200 248 300
#     4  10  19  34  54  74 103 139 171 208 259 311
#
# _framework density 21.958714000000001
#
# number of rings (size 3 to 8) (size 9 to 14) (size 15 to 20)
#    0.000    2.462    1.538    1.385    0.000    1.846 
#    0.000    3.846    0.000    0.923    0.000    4.308 
#    0.000    0.000    0.000    0.000    0.000    0.000 
#
# Total GULP energy -289573.067538 kJ/mol
# GULP energy per Si atom -5568.712837 kJ/mol
# Density = 2.190873 g / cm^3
# Si number density = 21.958714 Si / 1000 Ang^3
#
#
#
# Elastic Constant Matrix: (Units=GPa)
#
#
# Indices 1 2 3 4 5 6 
#
# 1 234.1436 47.3104 10.6603 0.0000 0.0000 0.0000
# 2 47.3104 55.2838 -0.5220 0.0000 0.0000 0.0000
# 3 10.6603 -0.5220 91.8006 0.0000 0.0000 0.0000
# 4 0.0000 0.0000 0.0000 794.5933 0.0000 0.0000
# 5 0.0000 0.0000 0.0000 0.0000 -64.2218 0.0000
# 6 0.0000 0.0000 0.0000 0.0000 0.0000 22.1532
#
#
#
# Elastic Compliance Matrix: (Units=1/GPa)
#
#
# Indices 1 2 3 4 5 6 
#
# 1 0.005200 -0.004456 -0.000629 0.000000 0.000000 0.000000
# 2 -0.004456 0.021908 0.000642 0.000000 0.000000 0.000000
# 3 -0.000629 0.000642 0.010970 0.000000 0.000000 0.000000
# 4 0.000000 0.000000 0.000000 0.001259 0.000000 0.000000
# 5 0.000000 0.000000 0.000000 0.000000 -0.015571 0.000000
# 6 0.000000 0.000000 0.000000 0.000000 0.000000 0.045140
#
#
# Mechanical properties :
#
#
# Convention : Reuss Voigt Hill
#
# Bulk Modulus (GPa) = 34.25659 55.12504 44.69081
# Shear Modulus (GPa) = 57.12875 172.09024 114.60949
#
# Velocity S-wave (km/s) = 5.10616 8.86228 7.23232
# Velocity P-wave (km/s) = 7.09917 11.39642 9.49412
#
# Compressibility (1/GPa) = 0.02919147
#
# Stress axis : x y z
#
# Youngs Moduli (GPa) = 192.31275 45.64597 91.15866
#
# Poissons Ratio (x) = 0.20339 0.05735
# Poissons Ratio (y) = 0.85692 -0.05852
# Poissons Ratio (z) = 0.12100 -0.02930
#
# Static dielectric constant tensor:
#      x y z
#    x 1.842670 0.000000 0.000000 
#    y 0.000000 1.760040 0.000000 
#    z 0.000000 0.000000 1.884220 
# 
# From -- ./inp_files/5386.got.cif
#   From: 2010.05.17/outbox.cif.g08.bks.cpg/sg57_3_cif.got.tgz:5386.got - 2010.06.03 13:58:18.
