data_PCOD9434002
_publ_section_title
;
Structure prediction by ZEFSAII (Michael W. Deem and Ramdas Pophale) SiO2 
 PCOD9434002
Probable space group: P B C M
;
_chemical_formula_sum "Si O2"
_cell_formula_units_Z 48
_cell_length_a 15.419754
_cell_length_b 10.154935
_cell_length_c 14.582445
_cell_angle_alpha 90.000000
_cell_angle_beta 90.000000
_cell_angle_gamma 90.000000
_cell_volume 2283.415476
_symmetry_space_group_name_H-M "P B C M"
_symmetry_group_IT_number 57
_symmetry_cell_setting 'orthorhombic'
loop_
_space_group_symop_operation_xyz
x,y,z
-x,-y,1/2+z
x,1/2-y,-z
-x,1/2+y,1/2-z
-x,-y,-z
x,y,1/2-z
-x,1/2+y,z
x,1/2-y,1/2+z
loop_
_atom_site_type_symbol
_atom_site_label
_atom_site_fract_x
_atom_site_fract_y
_atom_site_fract_z
Si Si1 0.739496 0.898534 0.968174
Si Si2 0.766344 0.151094 0.086663
Si Si3 0.414592 0.753219 0.886772
Si Si4 0.451544 0.033894 0.404367
Si Si5 0.908835 0.525743 0.138845
Si Si6 0.048895 0.766045 0.643117
O O1 0.643246 0.909408 0.926642
O O2 0.813169 0.943833 0.897309
O O3 0.755255 0.750000 0.000000
O O4 0.746360 0.005087 0.050123
O O5 0.681903 0.202928 0.139845
O O6 0.858182 0.162540 0.135815
O O7 0.774468 0.250000 0.000000
O O8 0.486815 0.858288 0.859045
O O9 0.437849 0.606461 0.857003
O O10 0.413181 0.750000 0.000000
O O11 0.500000 0.000000 0.500000
O O12 0.908239 0.523083 0.250000
O O13 0.939797 0.381576 0.105069
O O14 0.974256 0.639345 0.105395
O O15 0.027368 0.748618 0.750000
#
# Coordination Sequence:
#
# PCOD9434002 Si02
#       6
#     8   8   8   8   8   8
#     4  12  23  34  55  89 113 145 188 235 282 320
#     4  11  19  36  54  81 113 136 182 234 273 319
#     4   9  16  27  47  74 108 145 169 221 271 321
#     4  10  16  29  48  78 113 142 178 219 274 330
#     4  10  23  42  59  79 110 149 189 226 281 347
#     4  10  22  40  60  78 106 150 184 222 284 343
#
# _framework density 21.021142999999999
#
# number of rings (size 3 to 8) (size 9 to 14) (size 15 to 20)
#    0.000    1.667    6.667    1.500    2.333    1.333 
#    0.000    0.000    0.000    1.000    0.000    0.000 
#    0.000    0.000    0.000    0.000    0.000    0.000 
#
# Total GULP energy -268072.520508 kJ/mol
# GULP energy per Si atom -5584.844177 kJ/mol
# Density = 2.097330 g / cm^3
# Si number density = 21.021143 Si / 1000 Ang^3
#
#
#
# Elastic Constant Matrix: (Units=GPa)
#
#
# Indices 1 2 3 4 5 6 
#
# 1 156.7977 38.6680 15.0063 0.0000 0.0000 0.0000
# 2 38.6680 127.3496 13.1739 0.0000 0.0000 0.0000
# 3 15.0063 13.1739 47.3736 0.0000 0.0000 0.0000
# 4 0.0000 0.0000 0.0000 1.4296 0.0000 0.0000
# 5 0.0000 0.0000 0.0000 0.0000********** 0.0000
# 6 0.0000 0.0000 0.0000 0.0000 0.0000 39.7250
#
#
#
# Elastic Compliance Matrix: (Units=1/GPa)
#
#
# Indices 1 2 3 4 5 6 
#
# 1 0.007021 -0.001958 -0.001680 0.000000 0.000000 0.000000
# 2 -0.001958 0.008631 -0.001780 0.000000 0.000000 0.000000
# 3 -0.001680 -0.001780 0.022136 0.000000 0.000000 0.000000
# 4 0.000000 0.000000 0.000000 0.699483 0.000000 0.000000
# 5 0.000000 0.000000 0.000000 0.000000 -0.000094 0.000000
# 6 0.000000 0.000000 0.000000 0.000000 0.000000 0.025173
#
#
# Mechanical properties :
#
#
# Convention : Reuss Voigt Hill
#
# Bulk Modulus (GPa) = 37.10175 51.69082 44.39628
# Shear Modulus (GPa) = 6.39247 -2095.63488 -1044.62120
#
# Velocity S-wave (km/s) = 1.74573 -31.60826 -22.31630
# Velocity P-wave (km/s) = 4.66385 36.15890 25.35463
#
# Compressibility (1/GPa) = 0.02695291
#
# Stress axis : x y z
#
# Youngs Moduli (GPa) = 142.42392 115.86011 45.17568
#
# Poissons Ratio (x) = 0.22687 0.07588
# Poissons Ratio (y) = 0.27889 0.08041
# Poissons Ratio (z) = 0.23921 0.20622
#
# Static dielectric constant tensor:
#      x y z
#    x 1.729380 0.000000 0.000000 
#    y 0.000000 1.760990 0.000000 
#    z 0.000000 0.000000 1.781350 
# 
# From -- ./inp_files/25257.got.cif
#   From: 2010.05.17/outbox.cif.g08.bks.cpg/sg57_13_cif.got.tgz:25257.got - 2010.06.03 13:58:18.
