data_PCOD9434755
_publ_section_title
;
Structure prediction by ZEFSAII (Michael W. Deem and Ramdas Pophale) SiO2 
 PCOD9434755
Probable space group: P B C M
;
_chemical_formula_sum "Si O2"
_cell_formula_units_Z 64
_cell_length_a 11.021515
_cell_length_b 11.889537
_cell_length_c 24.658263
_cell_angle_alpha 90.000000
_cell_angle_beta 90.000000
_cell_angle_gamma 90.000000
_cell_volume 3231.236300
_symmetry_space_group_name_H-M "P B C M"
_symmetry_group_IT_number 57
_symmetry_cell_setting 'orthorhombic'
loop_
_space_group_symop_operation_xyz
x,y,z
-x,-y,1/2+z
x,1/2-y,-z
-x,1/2+y,1/2-z
-x,-y,-z
x,y,1/2-z
-x,1/2+y,z
x,1/2-y,1/2+z
loop_
_atom_site_type_symbol
_atom_site_label
_atom_site_fract_x
_atom_site_fract_y
_atom_site_fract_z
Si Si1 0.122951 0.431253 0.989113
Si Si2 0.338956 0.596128 0.106902
Si Si3 0.586710 0.029189 0.628744
Si Si4 0.713937 0.207525 0.689110
Si Si5 0.624160 0.070035 0.510972
Si Si6 0.160656 0.382349 0.392576
Si Si7 0.815922 0.636146 0.370987
Si Si8 0.949584 0.047632 0.688268
O O1 0.117816 0.380372 0.929075
O O2 0.248685 0.502142 0.987245
O O3 0.135361 0.358274 0.043743
O O4 0.000000 0.500000 0.000000
O O5 0.463830 0.540766 0.127436
O O6 0.292094 0.693140 0.145906
O O7 0.359623 0.639187 0.044762
O O8 0.247326 0.490589 0.107036
O O9 0.607972 0.117264 0.676582
O O10 0.602073 0.102576 0.573342
O O11 0.693653 0.936985 0.628896
O O12 0.705077 0.251812 0.750000
O O13 0.836868 0.134294 0.684232
O O14 0.500000 0.000000 0.500000
O O15 0.210733 0.267909 0.366211
O O16 0.044156 0.416296 0.357505
O O17 0.900148 0.576943 0.326112
O O18 0.996536 0.051239 0.750000
#
# Coordination Sequence:
#
# PCOD9434755 Si02
#       8
#     8   8   8   8   8   8   8   8
#     4  10  18  34  59  89 124 156 195 244 301 361
#     4  10  22  38  62  92 122 153 200 251 300 367
#     4   9  20  40  65  86 123 159 197 244 304 371
#     4  10  23  41  61  84 117 161 204 256 307 350
#     4   8  17  35  56  89 122 155 192 237 298 367
#     4  11  23  36  61  93 120 155 200 248 302 364
#     4  10  21  39  62  88 122 161 195 244 306 368
#     4  10  23  42  60  83 118 160 206 252 304 361
#
# _framework density 19.806660000000001
#
# number of rings (size 3 to 8) (size 9 to 14) (size 15 to 20)
#    0.000    2.250    1.250    0.375    3.500    2.000 
#    0.000    0.000    0.000    0.000    0.000    0.000 
#    0.000    0.000    0.000    0.000    0.000    0.000 
#
# Total GULP energy -356454.977752 kJ/mol
# GULP energy per Si atom -5569.609027 kJ/mol
# Density = 1.976158 g / cm^3
# Si number density = 19.806660 Si / 1000 Ang^3
#
#
#
# Elastic Constant Matrix: (Units=GPa)
#
#
# Indices 1 2 3 4 5 6 
#
# 1 57.6313 -2.0531 13.0706 0.0000 0.0000 0.0000
# 2 -2.0531 77.8467 11.2924 0.0000 0.0000 0.0000
# 3 13.0706 11.2924 84.6491 0.0000 0.0000 0.0000
# 4 0.0000 0.0000 0.0000 29.1216 0.0000 0.0000
# 5 0.0000 0.0000 0.0000 0.0000 18.3834 0.0000
# 6 0.0000 0.0000 0.0000 0.0000 0.0000 3.9715
#
#
#
# Elastic Compliance Matrix: (Units=1/GPa)
#
#
# Indices 1 2 3 4 5 6 
#
# 1 0.018043 0.000897 -0.002906 0.000000 0.000000 0.000000
# 2 0.000897 0.013144 -0.001892 0.000000 0.000000 0.000000
# 3 -0.002906 -0.001892 0.012515 0.000000 0.000000 0.000000
# 4 0.000000 0.000000 0.000000 0.034339 0.000000 0.000000
# 5 0.000000 0.000000 0.000000 0.000000 0.054397 0.000000
# 6 0.000000 0.000000 0.000000 0.000000 0.000000 0.251797
#
#
# Mechanical properties :
#
#
# Convention : Reuss Voigt Hill
#
# Bulk Modulus (GPa) = 27.85479 29.41632 28.63556
# Shear Modulus (GPa) = 12.37621 23.48310 17.92966
#
# Velocity S-wave (km/s) = 2.50241 3.44701 3.01197
# Velocity P-wave (km/s) = 4.73744 5.54315 5.15606
#
# Compressibility (1/GPa) = 0.03590046
#
# Stress axis : x y z
#
# Youngs Moduli (GPa) = 55.42423 76.08101 79.90706
#
# Poissons Ratio (x) = -0.06827 0.23218
# Poissons Ratio (y) = -0.04974 0.15118
# Poissons Ratio (z) = 0.16104 0.14394
#
# Static dielectric constant tensor:
#      x y z
#    x 1.666930 0.000000 0.000000 
#    y 0.000000 1.702500 0.000000 
#    z 0.000000 0.000000 1.729110 
# 
# From -- ./inp_files/27308.got.cif
#   From: 2010.05.17/outbox.cif.g08.bks.cpg/sg57_14_cif.got.tgz:27308.got - 2010.06.03 13:58:18.
