data_PCOD9434384
_publ_section_title
;
Structure prediction by ZEFSAII (Michael W. Deem and Ramdas Pophale) SiO2 
 PCOD9434384
Probable space group: P B C M
;
_chemical_formula_sum "Si O2"
_cell_formula_units_Z 56
_cell_length_a 19.269819
_cell_length_b 18.704916
_cell_length_c 8.605542
_cell_angle_alpha 90.000000
_cell_angle_beta 90.000000
_cell_angle_gamma 90.000000
_cell_volume 3101.784534
_symmetry_space_group_name_H-M "P B C M"
_symmetry_group_IT_number 57
_symmetry_cell_setting 'orthorhombic'
loop_
_space_group_symop_operation_xyz
x,y,z
-x,-y,1/2+z
x,1/2-y,-z
-x,1/2+y,1/2-z
-x,-y,-z
x,y,1/2-z
-x,1/2+y,z
x,1/2-y,1/2+z
loop_
_atom_site_type_symbol
_atom_site_label
_atom_site_fract_x
_atom_site_fract_y
_atom_site_fract_z
Si Si1 0.351221 0.418019 0.561423
Si Si2 0.221056 0.830690 0.565094
Si Si3 0.922426 0.168623 0.936338
Si Si4 0.073746 0.331407 0.436300
Si Si5 0.217362 0.169289 0.063271
Si Si6 0.502695 0.418717 0.936809
Si Si7 0.647832 0.415267 0.063662
O O1 0.349818 0.417270 0.750000
O O2 0.284566 0.374284 0.507683
O O3 0.427226 0.388000 0.516382
O O4 0.347009 0.501244 0.515026
O O5 0.225310 0.750000 0.500000
O O6 0.220022 0.828136 0.750000
O O7 0.148029 0.863431 0.505188
O O8 0.287356 0.873329 0.504809
O O9 0.916988 0.170674 0.750000
O O10 0.998088 0.136644 0.977555
O O11 0.923859 0.250000 0.000000
O O12 0.072493 0.250000 0.500000
O O13 0.079064 0.329230 0.250000
O O14 0.144222 0.363348 0.505514
O O15 0.216451 0.171231 0.250000
O O16 0.221993 0.250000 0.000000
O O17 0.506925 0.419629 0.750000
O O18 0.500000 0.500000 0.000000
O O19 0.573297 0.386656 0.004901
O O20 0.649146 0.412185 0.250000
#
# Coordination Sequence:
#
# PCOD9434384 Si02
#       7
#     8   8   8   8   8   8   8
#     4   8  17  32  51  71  95 127 161 198 240 286
#     4  11  21  33  50  74 101 128 158 195 240 288
#     4   9  16  27  44  66  93 124 158 195 234 277
#     4   9  16  26  42  66  93 123 158 196 235 275
#     4  10  18  30  47  70  98 128 159 194 238 283
#     4   9  16  30  50  72  95 123 162 204 243 286
#     4  10  19  34  53  73  96 125 162 202 244 289
#
# _framework density 18.054124000000002
#
# number of rings (size 3 to 8) (size 9 to 14) (size 15 to 20)
#    0.000    2.571    0.000    6.000    0.000    1.714 
#    0.000    9.286    0.000    2.571    0.000    0.000 
#    0.000    0.000    0.000    0.000    0.000    0.000 
#
# Total GULP energy -311889.728754 kJ/mol
# GULP energy per Si atom -5569.459442 kJ/mol
# Density = 1.801303 g / cm^3
# Si number density = 18.054124 Si / 1000 Ang^3
#
#
#
# Elastic Constant Matrix: (Units=GPa)
#
#
# Indices 1 2 3 4 5 6 
#
# 1 242.0712 48.7517 61.3371 0.0000 0.0000 0.0000
# 2 48.7517 23.6871 14.9128 0.0000 0.0000 0.0000
# 3 61.3371 14.9128 85.1655 0.0000 0.0000 0.0000
# 4 0.0000 0.0000 0.0000 14.0818 0.0000 0.0000
# 5 0.0000 0.0000 0.0000 0.0000 29.8400 0.0000
# 6 0.0000 0.0000 0.0000 0.0000 0.0000 64.8424
#
#
#
# Elastic Compliance Matrix: (Units=1/GPa)
#
#
# Indices 1 2 3 4 5 6 
#
# 1 0.007732 -0.013944 -0.003127 0.000000 0.000000 0.000000
# 2 -0.013944 0.072597 -0.002669 0.000000 0.000000 0.000000
# 3 -0.003127 -0.002669 0.014461 0.000000 0.000000 0.000000
# 4 0.000000 0.000000 0.000000 0.071014 0.000000 0.000000
# 5 0.000000 0.000000 0.000000 0.000000 0.033512 0.000000
# 6 0.000000 0.000000 0.000000 0.000000 0.000000 0.015422
#
#
# Mechanical properties :
#
#
# Convention : Reuss Voigt Hill
#
# Bulk Modulus (GPa) = 18.08011 66.76967 42.42489
# Shear Modulus (GPa) = 18.33826 36.81431 27.57628
#
# Velocity S-wave (km/s) = 3.19052 4.52055 3.91247
# Velocity P-wave (km/s) = 4.85888 8.01938 6.63020
#
# Compressibility (1/GPa) = 0.05530940
#
# Stress axis : x y z
#
# Youngs Moduli (GPa) = 129.34012 13.77468 69.15106
#
# Poissons Ratio (x) = 0.19208 0.21621
# Poissons Ratio (y) = 1.80355 0.18458
# Poissons Ratio (z) = 0.40440 0.03677
#
# Static dielectric constant tensor:
#      x y z
#    x 1.697210 0.000000 0.000000 
#    y 0.000000 1.585480 0.000000 
#    z 0.000000 0.000000 1.606880 
# 
# From -- ./inp_files/7093.got.cif
#   From: 2010.05.17/outbox.cif.g08.bks.cpg/sg57_4_cif.got.tgz:7093.got - 2010.06.03 13:58:18.
