data_PCOD9434843
_publ_section_title
;
Structure prediction by ZEFSAII (Michael W. Deem and Ramdas Pophale) SiO2 
 PCOD9434843
Probable space group: P B C M
;
_chemical_formula_sum "Si O2"
_cell_formula_units_Z 36
_cell_length_a 5.455015
_cell_length_b 16.507180
_cell_length_c 20.392600
_cell_angle_alpha 90.000000
_cell_angle_beta 90.000000
_cell_angle_gamma 90.000000
_cell_volume 1836.290709
_symmetry_space_group_name_H-M "P B C M"
_symmetry_group_IT_number 57
_symmetry_cell_setting 'orthorhombic'
loop_
_space_group_symop_operation_xyz
x,y,z
-x,-y,1/2+z
x,1/2-y,-z
-x,1/2+y,1/2-z
-x,-y,-z
x,y,1/2-z
-x,1/2+y,z
x,1/2-y,1/2+z
loop_
_atom_site_type_symbol
_atom_site_label
_atom_site_fract_x
_atom_site_fract_y
_atom_site_fract_z
Si Si1 0.447532 0.120556 0.947317
Si Si2 0.809183 0.044049 0.453150
Si Si3 0.454091 0.261527 0.176811
Si Si4 0.943682 0.184743 0.366994
Si Si5 0.923742 0.750000 0.500000
O O1 0.477759 0.171630 0.880720
O O2 0.247989 0.171853 0.988633
O O3 0.363682 0.029333 0.929978
O O4 0.665752 0.105900 0.998918
O O5 0.926351 0.093132 0.393284
O O6 0.000000 0.000000 0.500000
O O7 0.437464 0.296718 0.250000
O O8 0.699738 0.207271 0.172460
O O9 0.204622 0.209930 0.163904
O O10 0.930731 0.237961 0.433573
#
# Coordination Sequence:
#
# PCOD9434843 Si02
#       5
#     8   8   8   8   4
#     4  10  22  36  63  93 132 157 206 260 320 375
#     4  11  21  37  62 101 126 154 194 269 338 370
#     4  11  25  44  63  87 124 177 220 248 292 376
#     4  11  22  39  65  90 125 156 210 259 313 363
#     4  10  18  38  60  96 116 160 200 262 322 354
#
# _framework density 19.604738000000001
#
# number of rings (size 3 to 8) (size 9 to 14) (size 15 to 20)
#    0.000    1.333    2.222    4.667    6.222    0.889 
#    0.000    2.222    0.000    0.000    0.000    0.000 
#    0.000    0.000    0.000    0.000    0.000    0.000 
#
# Total GULP energy -200849.618157 kJ/mol
# GULP energy per Si atom -5579.156060 kJ/mol
# Density = 1.956012 g / cm^3
# Si number density = 19.604738 Si / 1000 Ang^3
#
#
#
# Elastic Constant Matrix: (Units=GPa)
#
#
# Indices 1 2 3 4 5 6 
#
# 1 114.8450 40.6476 42.2401 0.0000 0.0000 0.0000
# 2 40.6476 89.2327 33.3451 0.0000 0.0000 0.0000
# 3 42.2401 33.3451 107.5092 0.0000 0.0000 0.0000
# 4 0.0000 0.0000 0.0000 20.9536 0.0000 0.0000
# 5 0.0000 0.0000 0.0000 0.0000 12.1863 0.0000
# 6 0.0000 0.0000 0.0000 0.0000 0.0000 42.7260
#
#
#
# Elastic Compliance Matrix: (Units=1/GPa)
#
#
# Indices 1 2 3 4 5 6 
#
# 1 0.011283 -0.003940 -0.003211 0.000000 0.000000 0.000000
# 2 -0.003940 0.014051 -0.002810 0.000000 0.000000 0.000000
# 3 -0.003211 -0.002810 0.011435 0.000000 0.000000 0.000000
# 4 0.000000 0.000000 0.000000 0.047724 0.000000 0.000000
# 5 0.000000 0.000000 0.000000 0.000000 0.082060 0.000000
# 6 0.000000 0.000000 0.000000 0.000000 0.000000 0.023405
#
#
# Mechanical properties :
#
#
# Convention : Reuss Voigt Hill
#
# Bulk Modulus (GPa) = 59.35784 60.45026 59.90405
# Shear Modulus (GPa) = 23.20232 28.19679 25.69956
#
# Velocity S-wave (km/s) = 3.44394 3.79656 3.62454
# Velocity P-wave (km/s) = 6.79392 7.07954 6.93820
#
# Compressibility (1/GPa) = 0.01684698
#
# Stress axis : x y z
#
# Youngs Moduli (GPa) = 88.63057 71.16712 87.45242
#
# Poissons Ratio (x) = 0.28037 0.28081
# Poissons Ratio (y) = 0.34917 0.24577
# Poissons Ratio (z) = 0.28460 0.20000
#
# Static dielectric constant tensor:
#      x y z
#    x 1.756790 0.000000 0.000000 
#    y 0.000000 1.717980 0.000000 
#    z 0.000000 0.000000 1.688870 
# 
# From -- ./inp_files/23466.got.cif
#   From: 2010.05.17/outbox.cif.g08.bks.cpg/sg57_12_cif.got.tgz:23466.got - 2010.06.03 13:58:18.
