data_PCOD9434895
_publ_section_title
;
Structure prediction by ZEFSAII (Michael W. Deem and Ramdas Pophale) SiO2 
 PCOD9434895
Probable space group: P B C M
;
_chemical_formula_sum "Si O2"
_cell_formula_units_Z 48
_cell_length_a 11.794883
_cell_length_b 27.253666
_cell_length_c 8.860404
_cell_angle_alpha 90.000000
_cell_angle_beta 90.000000
_cell_angle_gamma 90.000000
_cell_volume 2848.210551
_symmetry_space_group_name_H-M "P B C M"
_symmetry_group_IT_number 57
_symmetry_cell_setting 'orthorhombic'
loop_
_space_group_symop_operation_xyz
x,y,z
-x,-y,1/2+z
x,1/2-y,-z
-x,1/2+y,1/2-z
-x,-y,-z
x,y,1/2-z
-x,1/2+y,z
x,1/2-y,1/2+z
loop_
_atom_site_type_symbol
_atom_site_label
_atom_site_fract_x
_atom_site_fract_y
_atom_site_fract_z
Si Si1 0.355266 0.802410 0.568654
Si Si2 0.015507 0.053697 0.567639
Si Si3 0.015941 0.202452 0.919640
Si Si4 0.787062 0.622301 0.579851
Si Si5 0.620410 0.697280 0.429990
Si Si6 0.846538 0.367240 0.928990
O O1 0.318041 0.750000 0.500000
O O2 0.345995 0.798488 0.750000
O O3 0.487542 0.809046 0.529717
O O4 0.278634 0.849166 0.523295
O O5 0.015403 0.053510 0.750000
O O6 0.912270 0.088515 0.511530
O O7 0.138214 0.076590 0.519344
O O8 0.000000 0.000000 0.500000
O O9 0.972984 0.211769 0.750000
O O10 0.114651 0.163015 0.908763
O O11 0.062622 0.250000 0.000000
O O12 0.920780 0.180196 0.027407
O O13 0.746334 0.610987 0.750000
O O14 0.690305 0.650108 0.487095
O O15 0.656482 0.750000 0.500000
O O16 0.631437 0.701049 0.250000
O O17 0.848196 0.376639 0.750000
#
# Coordination Sequence:
#
# PCOD9434895 Si02
#       6
#     8   8   8   8   8   8
#     4   9  19  32  47  71 102 136 170 203 238 279
#     4  10  21  37  56  77  99 123 157 202 253 303
#     4  10  19  29  42  65  97 128 160 198 241 290
#     4   9  19  33  48  69  96 125 158 198 242 289
#     4  10  19  31  48  71 101 136 171 203 236 280
#     4  10  19  32  50  71  97 128 162 200 244 292
#
# _framework density 16.852687
#
# number of rings (size 3 to 8) (size 9 to 14) (size 15 to 20)
#    0.000    2.333    0.000    4.000    0.000    8.667 
#    0.000    0.000    0.000    1.000    0.000    0.000 
#    0.000    0.000    0.000    0.000    0.000    0.000 
#
# Total GULP energy -267299.948746 kJ/mol
# GULP energy per Si atom -5568.748932 kJ/mol
# Density = 1.681433 g / cm^3
# Si number density = 16.852687 Si / 1000 Ang^3
#
#
#
# Elastic Constant Matrix: (Units=GPa)
#
#
# Indices 1 2 3 4 5 6 
#
# 1 85.1371 48.2022 28.0772 0.0000 0.0000 0.0000
# 2 48.2022 86.7584 34.0599 0.0000 0.0000 0.0000
# 3 28.0772 34.0599 42.7840 0.0000 0.0000 0.0000
# 4 0.0000 0.0000 0.0000 25.0881 0.0000 0.0000
# 5 0.0000 0.0000 0.0000 0.0000 11.9783 0.0000
# 6 0.0000 0.0000 0.0000 0.0000 0.0000 24.2691
#
#
#
# Elastic Compliance Matrix: (Units=1/GPa)
#
#
# Indices 1 2 3 4 5 6 
#
# 1 0.018016 -0.007808 -0.005607 0.000000 0.000000 0.000000
# 2 -0.007808 0.020150 -0.010917 0.000000 0.000000 0.000000
# 3 -0.005607 -0.010917 0.035744 0.000000 0.000000 0.000000
# 4 0.000000 0.000000 0.000000 0.039859 0.000000 0.000000
# 5 0.000000 0.000000 0.000000 0.000000 0.083484 0.000000
# 6 0.000000 0.000000 0.000000 0.000000 0.000000 0.041205
#
#
# Mechanical properties :
#
#
# Convention : Reuss Voigt Hill
#
# Bulk Modulus (GPa) = 39.61148 48.37311 43.99230
# Shear Modulus (GPa) = 16.91830 19.22313 18.07072
#
# Velocity S-wave (km/s) = 3.17186 3.38103 3.27811
# Velocity P-wave (km/s) = 6.08029 6.63382 6.36308
#
# Compressibility (1/GPa) = 0.02524521
#
# Stress axis : x y z
#
# Youngs Moduli (GPa) = 55.50761 49.62687 27.97678
#
# Poissons Ratio (x) = 0.38749 0.15686
# Poissons Ratio (y) = 0.43341 0.30543
# Poissons Ratio (z) = 0.31122 0.54180
#
# Static dielectric constant tensor:
#      x y z
#    x 1.600000 0.000000 0.000000 
#    y 0.000000 1.594570 0.000000 
#    z 0.000000 0.000000 1.590410 
# 
# From -- ./inp_files/3111.got.cif
#   From: 2010.05.17/outbox.cif.g08.bks.cpg/sg57_2_cif.got.tgz:3111.got - 2010.06.03 13:58:18.
