data_PCOD9434025
_publ_section_title
;
Structure prediction by ZEFSAII (Michael W. Deem and Ramdas Pophale) SiO2 
 PCOD9434025
Probable space group: P B C M
;
_chemical_formula_sum "Si O2"
_cell_formula_units_Z 32
_cell_length_a 16.816559
_cell_length_b 5.429703
_cell_length_c 14.496089
_cell_angle_alpha 90.000000
_cell_angle_beta 90.000000
_cell_angle_gamma 90.000000
_cell_volume 1323.622243
_symmetry_space_group_name_H-M "P B C M"
_symmetry_group_IT_number 57
_symmetry_cell_setting 'orthorhombic'
loop_
_space_group_symop_operation_xyz
x,y,z
-x,-y,1/2+z
x,1/2-y,-z
-x,1/2+y,1/2-z
-x,-y,-z
x,y,1/2-z
-x,1/2+y,z
x,1/2-y,1/2+z
loop_
_atom_site_type_symbol
_atom_site_label
_atom_site_fract_x
_atom_site_fract_y
_atom_site_fract_z
Si Si1 0.030364 0.535281 0.394169
Si Si2 0.788425 0.287964 0.892578
Si Si3 0.273772 0.287067 0.894981
Si Si4 0.455807 0.386432 0.862037
O O1 0.120618 0.626298 0.389589
O O2 0.000000 0.500000 0.500000
O O3 0.020001 0.262441 0.354258
O O4 0.737910 0.515468 0.853436
O O5 0.773436 0.017049 0.852720
O O6 0.765203 0.250000 0.000000
O O7 0.365619 0.361757 0.895185
O O8 0.243672 0.250000 0.000000
O O9 0.453853 0.386603 0.750000
O O10 0.495616 0.643304 0.891349
#
# Coordination Sequence:
#
# PCOD9434025 Si02
#       4
#     8   8   8   8
#     4  10  17  24  41  63  95 143 167 201 234 297
#     4  10  18  29  43  68 107 139 163 198 256 297
#     4  10  21  32  49  75 106 136 158 209 255 311
#     4  10  21  38  58  76  97 129 173 215 250 300
#
# _framework density 24.176083999999999
#
# number of rings (size 3 to 8) (size 9 to 14) (size 15 to 20)
#    0.000    2.000    2.500    3.000    7.000    1.000 
#    0.000    0.000    0.000    0.000    0.000    0.000 
#    0.000   20.000    0.000    0.000    0.000    0.000 
#
# Total GULP energy -178807.858760 kJ/mol
# GULP energy per Si atom -5587.745586 kJ/mol
# Density = 2.412106 g / cm^3
# Si number density = 24.176084 Si / 1000 Ang^3
#
#
#
# Elastic Constant Matrix: (Units=GPa)
#
#
# Indices 1 2 3 4 5 6 
#
# 1 115.4755 63.9528 -7.6788 0.0000 0.0000 0.0000
# 2 63.9528 263.7986 22.7597 0.0000 0.0000 0.0000
# 3 -7.6788 22.7597 91.5266 0.0000 0.0000 0.0000
# 4 0.0000 0.0000 0.0000 -22.0429 0.0000 0.0000
# 5 0.0000 0.0000 0.0000 0.0000 -68.4277 0.0000
# 6 0.0000 0.0000 0.0000 0.0000 0.0000 58.0952
#
#
#
# Elastic Compliance Matrix: (Units=1/GPa)
#
#
# Indices 1 2 3 4 5 6 
#
# 1 0.010201 -0.002603 0.001503 0.000000 0.000000 0.000000
# 2 -0.002603 0.004538 -0.001347 0.000000 0.000000 0.000000
# 3 0.001503 -0.001347 0.011387 0.000000 0.000000 0.000000
# 4 0.000000 0.000000 0.000000 -0.045366 0.000000 0.000000
# 5 0.000000 0.000000 0.000000 0.000000 -0.014614 0.000000
# 6 0.000000 0.000000 0.000000 0.000000 0.000000 0.017213
#
#
# Mechanical properties :
#
#
# Convention : Reuss Voigt Hill
#
# Bulk Modulus (GPa) = 47.09645 69.87422 58.48534
# Shear Modulus (GPa) = -1070.62625 19.64270 -525.49177
#
# Velocity S-wave (km/s) = -21.06672 2.85350 -14.75913
# Velocity P-wave (km/s) = 23.92110 6.31044 16.31560
#
# Compressibility (1/GPa) = 0.02123302
#
# Stress axis : x y z
#
# Youngs Moduli (GPa) = 98.02693 220.36314 87.82101
#
# Poissons Ratio (x) = 0.57356 -0.13200
# Poissons Ratio (y) = 0.25514 0.11828
# Poissons Ratio (z) = -0.14734 0.29679
#
# Static dielectric constant tensor:
#      x y z
#    x 1.849460 0.000000 0.000000 
#    y 0.000000 2.014580 0.000000 
#    z 0.000000 0.000000 1.878620 
# 
# From -- ./inp_files/22228.got.cif
#   From: 2010.05.17/outbox.cif.g08.bks.cpg/sg57_12_cif.got.tgz:22228.got - 2010.06.03 13:58:18.
