data_PCOD9434436
_publ_section_title
;
Structure prediction by ZEFSAII (Michael W. Deem and Ramdas Pophale) SiO2 
 PCOD9434436
Probable space group: P B C M
;
_chemical_formula_sum "Si O2"
_cell_formula_units_Z 64
_cell_length_a 20.094695
_cell_length_b 20.045435
_cell_length_c 8.898389
_cell_angle_alpha 90.000000
_cell_angle_beta 90.000000
_cell_angle_gamma 90.000000
_cell_volume 3584.332510
_symmetry_space_group_name_H-M "P B C M"
_symmetry_group_IT_number 57
_symmetry_cell_setting 'orthorhombic'
loop_
_space_group_symop_operation_xyz
x,y,z
-x,-y,1/2+z
x,1/2-y,-z
-x,1/2+y,1/2-z
-x,-y,-z
x,y,1/2-z
-x,1/2+y,z
x,1/2-y,1/2+z
loop_
_atom_site_type_symbol
_atom_site_label
_atom_site_fract_x
_atom_site_fract_y
_atom_site_fract_z
Si Si1 0.626092 0.424060 0.569506
Si Si2 0.154345 0.181176 0.926532
Si Si3 0.744639 0.591373 0.074748
Si Si4 0.485658 0.823446 0.931686
Si Si5 0.589888 0.936714 0.574240
Si Si6 0.776106 0.451314 0.929873
Si Si7 0.914321 0.432164 0.423422
Si Si8 0.049300 0.410500 0.578253
O O1 0.624889 0.429469 0.750000
O O2 0.584336 0.358720 0.527104
O O3 0.591755 0.491538 0.506803
O O4 0.703783 0.422236 0.523577
O O5 0.164000 0.186883 0.750000
O O6 0.133127 0.250000 0.000000
O O7 0.221465 0.156262 0.007076
O O8 0.098295 0.127565 0.967510
O O9 0.763197 0.583121 0.250000
O O10 0.665183 0.590583 0.063710
O O11 0.771238 0.528316 0.981258
O O12 0.489547 0.818030 0.750000
O O13 0.540389 0.878823 0.980264
O O14 0.493939 0.750000 0.000000
O O15 0.574336 0.948828 0.750000
O O16 0.782697 0.447004 0.750000
O O17 0.841087 0.421371 0.008905
O O18 0.917797 0.410255 0.250000
O O19 0.930189 0.511630 0.425085
O O20 0.973699 0.402269 0.522903
O O21 0.057563 0.387121 0.750000
#
# Coordination Sequence:
#
# PCOD9434436 Si02
#       8
#     8   8   8   8   8   8   8   8
#     4   9  19  34  54  80 109 140 179 225 274 327
#     4  12  24  37  53  72 102 143 182 216 256 310
#     4  10  19  33  50  74 105 135 171 214 260 312
#     4  10  21  37  54  77 108 142 181 226 273 326
#     4   9  19  34  55  80 108 140 178 225 272 323
#     4  10  18  30  51  78 106 136 169 214 268 317
#     4  10  19  31  52  79 108 136 167 214 264 310
#     4  10  20  34  52  76 106 136 172 215 260 307
#
# _framework density 17.855485999999999
#
# number of rings (size 3 to 8) (size 9 to 14) (size 15 to 20)
#    0.000    2.000    1.250    3.000    0.000    3.500 
#    0.000    1.250    0.000    0.750    0.000    3.500 
#    0.000    0.000    0.000    0.000    0.000    0.000 
#
# Total GULP energy -357070.474609 kJ/mol
# GULP energy per Si atom -5579.226166 kJ/mol
# Density = 1.781485 g / cm^3
# Si number density = 17.855486 Si / 1000 Ang^3
#
#
#
# Elastic Constant Matrix: (Units=GPa)
#
#
# Indices 1 2 3 4 5 6 
#
# 1 78.0377 19.3344 18.8406 0.0000 0.0000 0.0000
# 2 19.3344 44.3754 10.2962 0.0000 0.0000 0.0000
# 3 18.8406 10.2962 44.9290 0.0000 0.0000 0.0000
# 4 0.0000 0.0000 0.0000 23.2490 0.0000 0.0000
# 5 0.0000 0.0000 0.0000 0.0000 22.2049 0.0000
# 6 0.0000 0.0000 0.0000 0.0000 0.0000 7.6868
#
#
#
# Elastic Compliance Matrix: (Units=1/GPa)
#
#
# Indices 1 2 3 4 5 6 
#
# 1 0.015439 -0.005518 -0.005210 0.000000 0.000000 0.000000
# 2 -0.005518 0.025773 -0.003592 0.000000 0.000000 0.000000
# 3 -0.005210 -0.003592 0.025265 0.000000 0.000000 0.000000
# 4 0.000000 0.000000 0.000000 0.043013 0.000000 0.000000
# 5 0.000000 0.000000 0.000000 0.000000 0.045035 0.000000
# 6 0.000000 0.000000 0.000000 0.000000 0.000000 0.130092
#
#
# Mechanical properties :
#
#
# Convention : Reuss Voigt Hill
#
# Bulk Modulus (GPa) = 26.42920 29.36496 27.89708
# Shear Modulus (GPa) = 15.34355 18.55288 16.94822
#
# Velocity S-wave (km/s) = 2.93459 3.22694 3.08423
# Velocity P-wave (km/s) = 5.12994 5.51052 5.32363
#
# Compressibility (1/GPa) = 0.03783694
#
# Stress axis : x y z
#
# Youngs Moduli (GPa) = 64.76996 38.80062 39.58012
#
# Poissons Ratio (x) = 0.21411 0.20620
# Poissons Ratio (y) = 0.35741 0.14218
# Poissons Ratio (z) = 0.33743 0.13938
#
# Static dielectric constant tensor:
#      x y z
#    x 1.637710 0.000000 0.000000 
#    y 0.000000 1.659470 0.000000 
#    z 0.000000 0.000000 1.602190 
# 
# From -- ./inp_files/8530.got.cif
#   From: 2010.05.17/outbox.cif.g08.bks.cpg/sg57_5_cif.got.tgz:8530.got - 2010.06.03 13:58:18.
