data_PCOD9434981
_publ_section_title
;
Structure prediction by ZEFSAII (Michael W. Deem and Ramdas Pophale) SiO2 
 PCOD9434981
Probable space group: P B C M
;
_chemical_formula_sum "Si O2"
_cell_formula_units_Z 64
_cell_length_a 17.834433
_cell_length_b 9.276512
_cell_length_c 19.336330
_cell_angle_alpha 90.000000
_cell_angle_beta 90.000000
_cell_angle_gamma 90.000000
_cell_volume 3199.028186
_symmetry_space_group_name_H-M "P B C M"
_symmetry_group_IT_number 57
_symmetry_cell_setting 'orthorhombic'
loop_
_space_group_symop_operation_xyz
x,y,z
-x,-y,1/2+z
x,1/2-y,-z
-x,1/2+y,1/2-z
-x,-y,-z
x,y,1/2-z
-x,1/2+y,z
x,1/2-y,1/2+z
loop_
_atom_site_type_symbol
_atom_site_label
_atom_site_fract_x
_atom_site_fract_y
_atom_site_fract_z
Si Si1 0.873161 0.620379 0.330382
Si Si2 0.990734 0.865144 0.049591
Si Si3 0.267034 0.202094 0.665812
Si Si4 0.434668 0.701508 0.666354
Si Si5 0.138849 0.706362 0.630459
Si Si6 0.280764 0.636589 0.165953
Si Si7 0.963037 0.046110 0.172932
Si Si8 0.416737 0.129874 0.334585
O O1 0.878129 0.660197 0.250000
O O2 0.808300 0.719977 0.360892
O O3 0.851389 0.451507 0.336902
O O4 0.959603 0.618170 0.353561
O O5 0.074833 0.815038 0.072001
O O6 0.948082 0.922061 0.117660
O O7 0.952222 0.750000 0.000000
O O8 0.000000 0.000000 0.000000
O O9 0.265725 0.210118 0.750000
O O10 0.272948 0.032850 0.649917
O O11 0.340072 0.292033 0.643471
O O12 0.439486 0.694390 0.750000
O O13 0.363101 0.801291 0.651135
O O14 0.511371 0.776943 0.642738
O O15 0.423398 0.536605 0.642691
O O16 0.098606 0.830940 0.675121
O O17 0.220669 0.773026 0.621551
O O18 0.267677 0.655854 0.250000
O O19 0.974932 0.986246 0.250000
O O20 0.416587 0.128838 0.250000
#
# Coordination Sequence:
#
# PCOD9434981 Si02
#       8
#     8   8   8   8   8   8   8   8
#     4   9  18  31  46  70 103 138 176 232 288 335
#     4  11  23  45  63  83 113 153 195 240 301 362
#     4   9  17  28  42  64 102 141 183 231 289 350
#     4   9  16  25  40  61  94 137 187 234 282 343
#     4  11  21  35  57  75 105 143 191 236 291 352
#     4  10  19  30  45  70 104 140 179 237 296 344
#     4  10  21  36  61  89 115 147 198 247 290 350
#     4   9  15  24  39  60  88 137 190 227 270 345
#
# _framework density 20.006074999999999
#
# number of rings (size 3 to 8) (size 9 to 14) (size 15 to 20)
#    0.000    2.250    1.250    2.625    0.000    8.000 
#    0.000    3.750    0.000    0.000    0.000    0.000 
#    0.000    0.000    0.000   18.000    0.000    7.750 
#
# Total GULP energy -356801.026888 kJ/mol
# GULP energy per Si atom -5575.016045 kJ/mol
# Density = 1.996054 g / cm^3
# Si number density = 20.006075 Si / 1000 Ang^3
#
#
#
# Elastic Constant Matrix: (Units=GPa)
#
#
# Indices 1 2 3 4 5 6 
#
# 1 134.9982 42.8312 1.0482 0.0000 0.0000 0.0000
# 2 42.8312 105.8233 7.1048 0.0000 0.0000 0.0000
# 3 1.0482 7.1048 54.3327 0.0000 0.0000 0.0000
# 4 0.0000 0.0000 0.0000 16.2239 0.0000 0.0000
# 5 0.0000 0.0000 0.0000 0.0000 9.6134 0.0000
# 6 0.0000 0.0000 0.0000 0.0000 0.0000 42.2513
#
#
#
# Elastic Compliance Matrix: (Units=1/GPa)
#
#
# Indices 1 2 3 4 5 6 
#
# 1 0.008503 -0.003461 0.000289 0.000000 0.000000 0.000000
# 2 -0.003461 0.010942 -0.001364 0.000000 0.000000 0.000000
# 3 0.000289 -0.001364 0.018578 0.000000 0.000000 0.000000
# 4 0.000000 0.000000 0.000000 0.061637 0.000000 0.000000
# 5 0.000000 0.000000 0.000000 0.000000 0.104021 0.000000
# 6 0.000000 0.000000 0.000000 0.000000 0.000000 0.023668
#
#
# Mechanical properties :
#
#
# Convention : Reuss Voigt Hill
#
# Bulk Modulus (GPa) = 34.54202 44.12473 39.33338
# Shear Modulus (GPa) = 20.31915 29.89572 25.10743
#
# Velocity S-wave (km/s) = 3.19038 3.86985 3.54643
# Velocity P-wave (km/s) = 5.55649 6.48623 6.03928
#
# Compressibility (1/GPa) = 0.02895024
#
# Stress axis : x y z
#
# Youngs Moduli (GPa) = 117.60061 91.38990 53.82734
#
# Poissons Ratio (x) = 0.31630 -0.01553
# Poissons Ratio (y) = 0.40702 0.07342
# Poissons Ratio (z) = -0.03393 0.12466
#
# Static dielectric constant tensor:
#      x y z
#    x 1.712890 0.000000 0.000000 
#    y 0.000000 1.757500 0.000000 
#    z 0.000000 0.000000 1.702230 
# 
# From -- ./inp_files/25628.got.cif
#   From: 2010.05.17/outbox.cif.g08.bks.cpg/sg57_13_cif.got.tgz:25628.got - 2010.06.03 13:58:18.
