data_PCOD9434459
_publ_section_title
;
Structure prediction by ZEFSAII (Michael W. Deem and Ramdas Pophale) SiO2 
 PCOD9434459
Probable space group: P B C M
;
_chemical_formula_sum "Si O2"
_cell_formula_units_Z 52
_cell_length_a 9.378431
_cell_length_b 13.788963
_cell_length_c 20.746609
_cell_angle_alpha 90.000000
_cell_angle_beta 90.000000
_cell_angle_gamma 90.000000
_cell_volume 2682.927370
_symmetry_space_group_name_H-M "P B C M"
_symmetry_group_IT_number 57
_symmetry_cell_setting 'orthorhombic'
loop_
_space_group_symop_operation_xyz
x,y,z
-x,-y,1/2+z
x,1/2-y,-z
-x,1/2+y,1/2-z
-x,-y,-z
x,y,1/2-z
-x,1/2+y,z
x,1/2-y,1/2+z
loop_
_atom_site_type_symbol
_atom_site_label
_atom_site_fract_x
_atom_site_fract_y
_atom_site_fract_z
Si Si1 0.204308 0.980452 0.175969
Si Si2 0.589879 0.432480 0.068940
Si Si3 0.700224 0.010130 0.064182
Si Si4 0.946357 0.616401 0.617242
Si Si5 0.568476 0.750000 0.500000
Si Si6 0.078860 0.857508 0.516602
Si Si7 0.189301 0.320936 0.600013
O O1 0.248435 0.976333 0.250000
O O2 0.214375 0.091210 0.149396
O O3 0.307890 0.917751 0.129348
O O4 0.043570 0.937338 0.169389
O O5 0.457080 0.498619 0.091422
O O6 0.526274 0.336690 0.032476
O O7 0.670935 0.492894 0.012999
O O8 0.803216 0.102042 0.064690
O O9 0.796683 0.930826 0.097917
O O10 0.898741 0.727807 0.628348
O O11 0.044117 0.599125 0.553273
O O12 0.673142 0.712759 0.442074
O O13 0.124273 0.750000 0.500000
O O14 0.925697 0.859802 0.549128
#
# Coordination Sequence:
#
# PCOD9434459 Si02
#       7
#     8   8   8   8   4   8   8
#     4  12  27  46  63  88 137 188 226 262 314 403
#     4  11  24  37  62  99 136 173 207 265 346 402
#     4  11  19  36  62  97 130 158 205 282 340 387
#     4  11  20  38  67  95 126 165 215 272 327 388
#     4  12  22  38  68 106 136 160 212 288 358 402
#     4  10  18  30  61 100 128 150 194 278 341 376
#     4  11  21  39  69 103 128 166 214 277 349 386
#
# _framework density 19.381813999999999
#
# number of rings (size 3 to 8) (size 9 to 14) (size 15 to 20)
#    0.000    0.923    6.923    3.231    1.077    0.615 
#    0.000    1.538    0.000    0.000    0.000    0.000 
#    0.000    0.000    0.000    0.000    0.000    0.000 
#
# Total GULP energy -289529.530222 kJ/mol
# GULP energy per Si atom -5567.875581 kJ/mol
# Density = 1.933770 g / cm^3
# Si number density = 19.381814 Si / 1000 Ang^3
#
#
#
# Elastic Constant Matrix: (Units=GPa)
#
#
# Indices 1 2 3 4 5 6 
#
# 1 110.0297 34.9005 34.0801 0.0000 0.0000 0.0000
# 2 34.9005 85.9415 22.1865 0.0000 0.0000 0.0000
# 3 34.0801 22.1865 83.8381 0.0000 0.0000 0.0000
# 4 0.0000 0.0000 0.0000 12.9852 0.0000 0.0000
# 5 0.0000 0.0000 0.0000 0.0000 15.2061 0.0000
# 6 0.0000 0.0000 0.0000 0.0000 0.0000 33.0813
#
#
#
# Elastic Compliance Matrix: (Units=1/GPa)
#
#
# Indices 1 2 3 4 5 6 
#
# 1 0.011388 -0.003681 -0.003655 0.000000 0.000000 0.000000
# 2 -0.003681 0.013679 -0.002124 0.000000 0.000000 0.000000
# 3 -0.003655 -0.002124 0.013976 0.000000 0.000000 0.000000
# 4 0.000000 0.000000 0.000000 0.077011 0.000000 0.000000
# 5 0.000000 0.000000 0.000000 0.000000 0.065763 0.000000
# 6 0.000000 0.000000 0.000000 0.000000 0.000000 0.030229
#
#
# Mechanical properties :
#
#
# Convention : Reuss Voigt Hill
#
# Bulk Modulus (GPa) = 49.69423 51.34925 50.52174
# Shear Modulus (GPa) = 21.03736 24.83067 22.93401
#
# Velocity S-wave (km/s) = 3.29814 3.58317 3.44361
# Velocity P-wave (km/s) = 6.34026 6.60832 6.47568
#
# Compressibility (1/GPa) = 0.02012306
#
# Stress axis : x y z
#
# Youngs Moduli (GPa) = 87.81025 73.10524 71.55366
#
# Poissons Ratio (x) = 0.26911 0.26154
# Poissons Ratio (y) = 0.32324 0.15195
# Poissons Ratio (z) = 0.32096 0.15524
#
# Static dielectric constant tensor:
#      x y z
#    x 1.746840 0.000000 0.000000 
#    y 0.000000 1.788770 0.000000 
#    z 0.000000 0.000000 1.603850 
# 
# From -- ./inp_files/24371.got.cif
#   From: 2010.05.17/outbox.cif.g08.bks.cpg/sg57_13_cif.got.tgz:24371.got - 2010.06.03 13:58:18.
