data_PCOD9434940
_publ_section_title
;
Structure prediction by ZEFSAII (Michael W. Deem and Ramdas Pophale) SiO2 
 PCOD9434940
Probable space group: P B C M
;
_chemical_formula_sum "Si O2"
_cell_formula_units_Z 56
_cell_length_a 16.966049
_cell_length_b 25.162029
_cell_length_c 7.770662
_cell_angle_alpha 90.000000
_cell_angle_beta 90.000000
_cell_angle_gamma 90.000000
_cell_volume 3317.297294
_symmetry_space_group_name_H-M "P B C M"
_symmetry_group_IT_number 57
_symmetry_cell_setting 'orthorhombic'
loop_
_space_group_symop_operation_xyz
x,y,z
-x,-y,1/2+z
x,1/2-y,-z
-x,1/2+y,1/2-z
-x,-y,-z
x,y,1/2-z
-x,1/2+y,z
x,1/2-y,1/2+z
loop_
_atom_site_type_symbol
_atom_site_label
_atom_site_fract_x
_atom_site_fract_y
_atom_site_fract_z
Si Si1 0.964271 0.057892 0.543070
Si Si2 0.581751 0.690047 0.955043
Si Si3 0.804457 0.017716 0.954899
Si Si4 0.511085 0.920066 0.546877
Si Si5 0.629992 0.008315 0.951948
Si Si6 0.761218 0.690203 0.543192
Si Si7 0.874938 0.597338 0.959364
O O1 0.960045 0.062848 0.750000
O O2 0.874572 0.055775 0.475778
O O3 0.033478 0.097308 0.482784
O O4 0.000000 0.000000 0.500000
O O5 0.584174 0.686289 0.750000
O O6 0.671597 0.682906 0.022766
O O7 0.556287 0.750000 0.000000
O O8 0.528900 0.641548 0.018983
O O9 0.800438 0.028025 0.750000
O O10 0.715990 0.020603 0.027240
O O11 0.834853 0.957592 0.982226
O O12 0.505415 0.930411 0.750000
O O13 0.430816 0.943067 0.468706
O O14 0.583369 0.956663 0.477082
O O15 0.642862 0.997118 0.750000
O O16 0.785815 0.750000 0.500000
O O17 0.757927 0.685456 0.750000
O O18 0.822053 0.646213 0.479146
O O19 0.874841 0.597148 0.750000
#
# Coordination Sequence:
#
# PCOD9434940 Si02
#       7
#     8   8   8   8   8   8   8
#     4   8  14  24  38  57  81 106 133 164 196 236
#     4  10  19  31  46  63  85 112 142 175 210 250
#     4   9  16  26  41  61  83 109 140 169 201 244
#     4  10  19  30  44  63  86 112 143 177 215 257
#     4   9  18  30  43  61  87 116 144 176 213 256
#     4   9  18  29  41  59  82 109 139 168 199 238
#     4   9  16  26  40  59  84 111 136 166 205 243
#
# _framework density 16.881212999999999
#
# number of rings (size 3 to 8) (size 9 to 14) (size 15 to 20)
#    0.000    2.857    0.000    1.714    0.000    2.286 
#    0.000    0.000    0.000    0.000    0.000    1.000 
#    0.000    2.286    0.000    0.000    0.000    0.000 
#
# Total GULP energy -311828.212724 kJ/mol
# GULP energy per Si atom -5568.360942 kJ/mol
# Density = 1.684279 g / cm^3
# Si number density = 16.881213 Si / 1000 Ang^3
#
#
#
# Elastic Constant Matrix: (Units=GPa)
#
#
# Indices 1 2 3 4 5 6 
#
# 1 130.0414 39.1929 -4.3803 0.0000 0.0000 0.0000
# 2 39.1929 67.2481 -16.1324 0.0000 0.0000 0.0000
# 3 -4.3803 -16.1324 21.4028 0.0000 0.0000 0.0000
# 4 0.0000 0.0000 0.0000 13.4498 0.0000 0.0000
# 5 0.0000 0.0000 0.0000 0.0000 4.0464 0.0000
# 6 0.0000 0.0000 0.0000 0.0000 0.0000 23.4432
#
#
#
# Elastic Compliance Matrix: (Units=1/GPa)
#
#
# Indices 1 2 3 4 5 6 
#
# 1 0.009455 -0.006160 -0.002708 0.000000 0.000000 0.000000
# 2 -0.006160 0.022166 0.015447 0.000000 0.000000 0.000000
# 3 -0.002708 0.015447 0.057812 0.000000 0.000000 0.000000
# 4 0.000000 0.000000 0.000000 0.074351 0.000000 0.000000
# 5 0.000000 0.000000 0.000000 0.000000 0.247133 0.000000
# 6 0.000000 0.000000 0.000000 0.000000 0.000000 0.042656
#
#
# Mechanical properties :
#
#
# Convention : Reuss Voigt Hill
#
# Bulk Modulus (GPa) = 9.74749 28.45029 19.09889
# Shear Modulus (GPa) = 10.53489 21.52202 16.02846
#
# Velocity S-wave (km/s) = 2.50083 3.57446 3.08471
# Velocity P-wave (km/s) = 3.75840 5.82456 4.90159
#
# Compressibility (1/GPa) = 0.10259047
#
# Stress axis : x y z
#
# Youngs Moduli (GPa) = 105.76101 45.11356 17.29750
#
# Poissons Ratio (x) = 0.27791 0.04685
# Poissons Ratio (y) = 0.65152 -0.26720
# Poissons Ratio (z) = 0.28643 -0.69687
#
# Static dielectric constant tensor:
#      x y z
#    x 1.622680 0.000000 0.000000 
#    y 0.000000 1.547280 0.000000 
#    z 0.000000 0.000000 1.601990 
# 
# From -- ./inp_files/7048.got.cif
#   From: 2010.05.17/outbox.cif.g08.bks.cpg/sg57_4_cif.got.tgz:7048.got - 2010.06.03 13:58:18.
