data_PCOD9434378
_publ_section_title
;
Structure prediction by ZEFSAII (Michael W. Deem and Ramdas Pophale) SiO2 
 PCOD9434378
Probable space group: P B C M
;
_chemical_formula_sum "Si O2"
_cell_formula_units_Z 48
_cell_length_a 11.815653
_cell_length_b 30.513107
_cell_length_c 8.954531
_cell_angle_alpha 90.000000
_cell_angle_beta 90.000000
_cell_angle_gamma 90.000000
_cell_volume 3228.397516
_symmetry_space_group_name_H-M "P B C M"
_symmetry_group_IT_number 57
_symmetry_cell_setting 'orthorhombic'
loop_
_space_group_symop_operation_xyz
x,y,z
-x,-y,1/2+z
x,1/2-y,-z
-x,1/2+y,1/2-z
-x,-y,-z
x,y,1/2-z
-x,1/2+y,z
x,1/2-y,1/2+z
loop_
_atom_site_type_symbol
_atom_site_label
_atom_site_fract_x
_atom_site_fract_y
_atom_site_fract_z
Si Si1 0.546951 0.120644 0.075203
Si Si2 0.359966 0.702540 0.571938
Si Si3 0.203154 0.637645 0.076244
Si Si4 0.426877 0.461018 0.428869
Si Si5 0.944927 0.067602 0.572990
Si Si6 0.831866 0.983463 0.427995
O O1 0.518896 0.124762 0.250000
O O2 0.681278 0.108209 0.066687
O O3 0.548687 0.167841 0.993904
O O4 0.472220 0.084468 0.995529
O O5 0.373604 0.750000 0.500000
O O6 0.364482 0.704176 0.750000
O O7 0.242085 0.680396 0.515743
O O8 0.186910 0.648383 0.250000
O O9 0.100557 0.610501 0.009521
O O10 0.500000 0.500000 0.500000
O O11 0.440341 0.461246 0.250000
O O12 0.294870 0.468867 0.463572
O O13 0.931252 0.072943 0.750000
O O14 0.074418 0.053912 0.540989
O O15 0.870786 0.026401 0.516744
O O16 0.838106 0.993188 0.250000
#
# Coordination Sequence:
#
# PCOD9434378 Si02
#       6
#     8   8   8   8   8   8
#     4   9  19  32  46  68  97 125 156 195 238 285
#     4  10  18  31  50  74 100 126 156 192 240 291
#     4   9  18  30  46  68  96 123 150 191 238 279
#     4  11  21  32  46  65  94 130 166 205 244 286
#     4  10  18  30  47  66  88 122 164 200 237 282
#     4   9  20  33  44  62  92 126 162 202 240 279
#
# _framework density 14.868057
#
# number of rings (size 3 to 8) (size 9 to 14) (size 15 to 20)
#    1.000    1.333    0.000    4.000    0.000    6.000 
#    0.000    0.000    0.000    0.000    0.000    1.167 
#    0.000    0.000    0.000    0.000    0.000    0.000 
#
# Total GULP energy -267240.452041 kJ/mol
# GULP energy per Si atom -5567.509418 kJ/mol
# Density = 1.483422 g / cm^3
# Si number density = 14.868057 Si / 1000 Ang^3
#
#
#
# Elastic Constant Matrix: (Units=GPa)
#
#
# Indices 1 2 3 4 5 6 
#
# 1 80.3550 53.2840 55.2764 0.0000 0.0000 0.0000
# 2 53.2840 111.7114 63.4081 0.0000 0.0000 0.0000
# 3 55.2764 63.4081 106.8877 0.0000 0.0000 0.0000
# 4 0.0000 0.0000 0.0000 29.4200 0.0000 0.0000
# 5 0.0000 0.0000 0.0000 0.0000 20.9900 0.0000
# 6 0.0000 0.0000 0.0000 0.0000 0.0000 20.2361
#
#
#
# Elastic Compliance Matrix: (Units=1/GPa)
#
#
# Indices 1 2 3 4 5 6 
#
# 1 0.021691 -0.005999 -0.007659 0.000000 0.000000 0.000000
# 2 -0.005999 0.015155 -0.005888 0.000000 0.000000 0.000000
# 3 -0.007659 -0.005888 0.016809 0.000000 0.000000 0.000000
# 4 0.000000 0.000000 0.000000 0.033990 0.000000 0.000000
# 5 0.000000 0.000000 0.000000 0.000000 0.047642 0.000000
# 6 0.000000 0.000000 0.000000 0.000000 0.000000 0.049417
#
#
# Mechanical properties :
#
#
# Convention : Reuss Voigt Hill
#
# Bulk Modulus (GPa) = 68.66261 71.43236 70.04748
# Shear Modulus (GPa) = 21.86743 22.59493 22.23118
#
# Velocity S-wave (km/s) = 3.83922 3.90256 3.87102
# Velocity P-wave (km/s) = 8.12000 8.27376 8.19724
#
# Compressibility (1/GPa) = 0.01456397
#
# Stress axis : x y z
#
# Youngs Moduli (GPa) = 46.10142 65.98420 59.49154
#
# Poissons Ratio (x) = 0.39585 0.45563
# Poissons Ratio (y) = 0.27657 0.35028
# Poissons Ratio (z) = 0.35308 0.38851
#
# Static dielectric constant tensor:
#      x y z
#    x 1.487950 0.000000 0.000000 
#    y 0.000000 1.475680 0.000000 
#    z 0.000000 0.000000 1.493330 
# 
# From -- ./inp_files/3516.got.cif
#   From: 2010.05.17/outbox.cif.g08.bks.cpg/sg57_2_cif.got.tgz:3516.got - 2010.06.03 13:58:18.
