data_PCOD9434860
_publ_section_title
;
Structure prediction by ZEFSAII (Michael W. Deem and Ramdas Pophale) SiO2 
 PCOD9434860
Probable space group: P B C M
;
_chemical_formula_sum "Si O2"
_cell_formula_units_Z 56
_cell_length_a 19.275630
_cell_length_b 5.154854
_cell_length_c 26.271732
_cell_angle_alpha 90.000000
_cell_angle_beta 90.000000
_cell_angle_gamma 90.000000
_cell_volume 2610.439641
_symmetry_space_group_name_H-M "P B C M"
_symmetry_group_IT_number 57
_symmetry_cell_setting 'orthorhombic'
loop_
_space_group_symop_operation_xyz
x,y,z
-x,-y,1/2+z
x,1/2-y,-z
-x,1/2+y,1/2-z
-x,-y,-z
x,y,1/2-z
-x,1/2+y,z
x,1/2-y,1/2+z
loop_
_atom_site_type_symbol
_atom_site_label
_atom_site_fract_x
_atom_site_fract_y
_atom_site_fract_z
Si Si1 0.048147 0.067637 0.640445
Si Si2 0.845033 0.250000 0.500000
Si Si3 0.788673 0.452328 0.191774
Si Si4 0.299996 0.040849 0.661195
Si Si5 0.540008 0.538336 0.811144
Si Si6 0.263930 0.353584 0.449844
Si Si7 0.046319 0.339422 0.250000
Si Si8 0.142594 0.446282 0.908120
O O1 0.103353 0.175169 0.600656
O O2 0.988070 0.290071 0.636656
O O3 0.081935 0.099681 0.696633
O O4 0.794178 0.450579 0.528725
O O5 0.887712 0.392489 0.455232
O O6 0.814948 0.452689 0.250000
O O7 0.746430 0.717800 0.180849
O O8 0.846874 0.426249 0.147369
O O9 0.735569 0.215849 0.183618
O O10 0.379224 0.069836 0.677470
O O11 0.299760 0.029306 0.599513
O O12 0.533820 0.534530 0.750000
O O13 0.506999 0.272921 0.830825
O O14 0.303530 0.250000 0.500000
O O15 0.220290 0.114195 0.426735
O O16 0.982440 0.546938 0.250000
#
# Coordination Sequence:
#
# PCOD9434860 Si02
#       8
#     8   4   8   8   8   8   4   8
#     4  10  22  37  57  80 112 150 192 232 282 351
#     4  10  18  40  60  82 112 146 198 240 294 348
#     4  11  22  35  57  90 121 150 185 244 305 346
#     4  11  21  38  58  88 120 155 197 237 290 342
#     4  10  20  34  54  81 117 162 196 225 273 339
#     4   9  20  37  61  86 110 150 193 249 296 346
#     4   8  16  34  52  74 102 144 186 220 260 328
#     4  10  22  36  60  83 117 147 193 240 298 349
#
# _framework density 21.452323
#
# number of rings (size 3 to 8) (size 9 to 14) (size 15 to 20)
#    0.000    2.000    1.429    2.143    3.000    1.143 
#    0.000    0.714    0.000    0.857    0.000    0.000 
#    0.000    0.000    0.000    0.000    0.000    0.000 
#
# Total GULP energy -312728.973612 kJ/mol
# GULP energy per Si atom -5584.445957 kJ/mol
# Density = 2.140350 g / cm^3
# Si number density = 21.452323 Si / 1000 Ang^3
#
#
#
# Elastic Constant Matrix: (Units=GPa)
#
#
# Indices 1 2 3 4 5 6 
#
# 1 -75.8876 -92.5634 -70.1011 0.0000 0.0000 0.0000
# 2 -92.5634 -9.3998 -28.4112 0.0000 0.0000 0.0000
# 3 -70.1011 -28.4112 62.3126 0.0000 0.0000 0.0000
# 4 0.0000 0.0000 0.0000 25.7330 0.0000 0.0000
# 5 0.0000 0.0000 0.0000 0.0000 24.9731 0.0000
# 6 0.0000 0.0000 0.0000 0.0000 0.0000 26.1152
#
#
#
# Elastic Compliance Matrix: (Units=1/GPa)
#
#
# Indices 1 2 3 4 5 6 
#
# 1 0.001855 -0.010336 -0.002625 0.000000 0.000000 0.000000
# 2 -0.010336 0.012845 -0.005772 0.000000 0.000000 0.000000
# 3 -0.002625 -0.005772 0.010463 0.000000 0.000000 0.000000
# 4 0.000000 0.000000 0.000000 0.038861 0.000000 0.000000
# 5 0.000000 0.000000 0.000000 0.000000 0.040043 0.000000
# 6 0.000000 0.000000 0.000000 0.000000 0.000000 0.038292
#
#
# Mechanical properties :
#
#
# Convention : Reuss Voigt Hill
#
# Bulk Modulus (GPa) = -81.28178 -45.01404 -63.14791
# Shear Modulus (GPa) = 28.45356 26.57098 27.51227
#
# Velocity S-wave (km/s) = 3.64588 3.52320 3.58506
# Velocity P-wave (km/s) = 4.49984 2.11619 3.51616
#
# Compressibility (1/GPa) = -0.01230288
#
# Stress axis : x y z
#
# Youngs Moduli (GPa) = 538.94267 77.85040 95.57456
#
# Poissons Ratio (x) = 0.80469 0.25092
# Poissons Ratio (y) = 5.57068 0.55161
# Poissons Ratio (z) = 1.41494 0.44932
#
# Static dielectric constant tensor:
#      x y z
#    x 1.734940 0.000000 0.000000 
#    y 0.000000 2.010940 0.000000 
#    z 0.000000 0.000000 1.851460 
# 
# From -- ./inp_files/27658.got.cif
#   From: 2010.05.17/outbox.cif.g08.bks.cpg/sg57_14_cif.got.tgz:27658.got - 2010.06.03 13:58:18.
