data_PCOD9434371
_publ_section_title
;
Structure prediction by ZEFSAII (Michael W. Deem and Ramdas Pophale) SiO2 
 PCOD9434371
Probable space group: P B C M
;
_chemical_formula_sum "Si O2"
_cell_formula_units_Z 64
_cell_length_a 15.079596
_cell_length_b 31.088743
_cell_length_c 7.521444
_cell_angle_alpha 90.000000
_cell_angle_beta 90.000000
_cell_angle_gamma 90.000000
_cell_volume 3526.095704
_symmetry_space_group_name_H-M "P B C M"
_symmetry_group_IT_number 57
_symmetry_cell_setting 'orthorhombic'
loop_
_space_group_symop_operation_xyz
x,y,z
-x,-y,1/2+z
x,1/2-y,-z
-x,1/2+y,1/2-z
-x,-y,-z
x,y,1/2-z
-x,1/2+y,z
x,1/2-y,1/2+z
loop_
_atom_site_type_symbol
_atom_site_label
_atom_site_fract_x
_atom_site_fract_y
_atom_site_fract_z
Si Si1 0.554742 0.611531 0.045460
Si Si2 0.380689 0.562116 0.959007
Si Si3 0.332905 0.468303 0.967922
Si Si4 0.958261 0.068158 0.043602
Si Si5 0.207324 0.616532 0.465840
Si Si6 0.501426 0.702101 0.036445
Si Si7 0.871162 0.976722 0.533522
Si Si8 0.298528 0.702510 0.037581
O O1 0.583911 0.616100 0.250000
O O2 0.616068 0.573992 0.967529
O O3 0.551348 0.659634 0.967830
O O4 0.454969 0.592385 0.044139
O O5 0.400805 0.561354 0.750000
O O6 0.378136 0.513061 0.026401
O O7 0.283522 0.582479 0.983889
O O8 0.335841 0.469053 0.750000
O O9 0.229725 0.468573 0.019721
O O10 0.971231 0.079506 0.250000
O O11 0.888896 0.102133 0.966069
O O12 0.056046 0.058129 0.970783
O O13 0.906141 0.022731 0.032382
O O14 0.203771 0.616605 0.250000
O O15 0.240470 0.662966 0.528967
O O16 0.497497 0.697846 0.250000
O O17 0.399711 0.700558 0.968008
O O18 0.536927 0.750000 0.000000
O O19 0.873855 0.978248 0.750000
O O20 0.304047 0.697785 0.250000
O O21 0.262965 0.750000 0.000000
#
# Coordination Sequence:
#
# PCOD9434371 Si02
#       8
#     8   8   8   8   8   8   8   8
#     4  10  19  33  47  61  85 121 152 176 216 264
#     4  11  20  29  42  65  91 119 150 182 212 245
#     4   9  18  30  45  63  89 120 150 183 214 250
#     4   9  17  27  45  66  86 115 145 175 213 254
#     4  10  18  30  45  64  89 119 149 176 213 264
#     4   9  17  29  45  62  81 108 141 180 220 257
#     4   9  16  29  44  64  90 113 143 181 214 246
#     4   9  17  29  43  61  84 110 142 180 218 258
#
# _framework density 18.150389000000001
#
# number of rings (size 3 to 8) (size 9 to 14) (size 15 to 20)
#    0.000    2.500    2.500    0.750    0.000    1.000 
#    0.000    1.250    0.000    0.000    0.000    0.875 
#    0.000    0.000    0.000    0.000    0.000    0.000 
#
# Total GULP energy -356872.990668 kJ/mol
# GULP energy per Si atom -5576.140479 kJ/mol
# Density = 1.810908 g / cm^3
# Si number density = 18.150389 Si / 1000 Ang^3
#
#
#
# Elastic Constant Matrix: (Units=GPa)
#
#
# Indices 1 2 3 4 5 6 
#
# 1 40.7789 30.9799 -6.4646 0.0000 0.0000 0.0000
# 2 30.9799 151.2521 -0.8930 0.0000 0.0000 0.0000
# 3 -6.4646 -0.8930 50.0904 0.0000 0.0000 0.0000
# 4 0.0000 0.0000 0.0000 8.0134 0.0000 0.0000
# 5 0.0000 0.0000 0.0000 0.0000 1.7951 0.0000
# 6 0.0000 0.0000 0.0000 0.0000 0.0000 24.3848
#
#
#
# Elastic Compliance Matrix: (Units=1/GPa)
#
#
# Indices 1 2 3 4 5 6 
#
# 1 0.029722 -0.006066 0.003728 0.000000 0.000000 0.000000
# 2 -0.006066 0.007850 -0.000643 0.000000 0.000000 0.000000
# 3 0.003728 -0.000643 0.020434 0.000000 0.000000 0.000000
# 4 0.000000 0.000000 0.000000 0.124791 0.000000 0.000000
# 5 0.000000 0.000000 0.000000 0.000000 0.557069 0.000000
# 6 0.000000 0.000000 0.000000 0.000000 0.000000 0.041009
#
#
# Mechanical properties :
#
#
# Convention : Reuss Voigt Hill
#
# Bulk Modulus (GPa) = 19.21470 32.15176 25.68323
# Shear Modulus (GPa) = 6.21749 21.40528 13.81138
#
# Velocity S-wave (km/s) = 1.85283 3.43786 2.76151
# Velocity P-wave (km/s) = 3.89701 5.78887 4.93446
#
# Compressibility (1/GPa) = 0.05204349
#
# Stress axis : x y z
#
# Youngs Moduli (GPa) = 33.64564 127.38745 48.93919
#
# Poissons Ratio (x) = 0.77269 -0.18243
# Poissons Ratio (y) = 0.20408 0.03146
# Poissons Ratio (z) = -0.12542 0.08189
#
# Static dielectric constant tensor:
#      x y z
#    x 1.614780 0.000000 0.000000 
#    y 0.000000 1.643860 0.000000 
#    z 0.000000 0.000000 1.683410 
# 
# From -- ./inp_files/6043.got.cif
#   From: 2010.05.17/outbox.cif.g08.bks.cpg/sg57_4_cif.got.tgz:6043.got - 2010.06.03 13:58:18.
