data_PCOD9434882
_publ_section_title
;
Structure prediction by ZEFSAII (Michael W. Deem and Ramdas Pophale) SiO2 
 PCOD9434882
Probable space group: P B C M
;
_chemical_formula_sum "Si O2"
_cell_formula_units_Z 56
_cell_length_a 25.541884
_cell_length_b 5.542650
_cell_length_c 18.510081
_cell_angle_alpha 90.000000
_cell_angle_beta 90.000000
_cell_angle_gamma 90.000000
_cell_volume 2620.467046
_symmetry_space_group_name_H-M "P B C M"
_symmetry_group_IT_number 57
_symmetry_cell_setting 'orthorhombic'
loop_
_space_group_symop_operation_xyz
x,y,z
-x,-y,1/2+z
x,1/2-y,-z
-x,1/2+y,1/2-z
-x,-y,-z
x,y,1/2-z
-x,1/2+y,z
x,1/2-y,1/2+z
loop_
_atom_site_type_symbol
_atom_site_label
_atom_site_fract_x
_atom_site_fract_y
_atom_site_fract_z
Si Si1 0.718961 0.891837 0.750000
Si Si2 0.529297 0.750410 0.912595
Si Si3 0.973246 0.756756 0.587747
Si Si4 0.804694 0.254433 0.582832
Si Si5 0.354320 0.357033 0.608383
Si Si6 0.149336 0.253903 0.588114
Si Si7 0.682164 0.355878 0.593151
Si Si8 0.715739 0.108052 0.250000
O O1 0.682108 0.887432 0.820796
O O2 0.747868 0.637870 0.750000
O O3 0.748146 0.145666 0.750000
O O4 0.505589 0.487052 0.894676
O O5 0.585750 0.792194 0.877143
O O6 0.536809 0.750000 0.000000
O O7 0.977298 0.750000 0.500000
O O8 0.911890 0.772810 0.605062
O O9 0.997755 0.501576 0.612681
O O10 0.824815 0.250000 0.500000
O O11 0.828322 0.498835 0.615620
O O12 0.742481 0.290350 0.579698
O O13 0.820260 0.993734 0.613664
O O14 0.351131 0.621893 0.572038
O O15 0.331820 0.122510 0.567257
O O16 0.155320 0.250000 0.500000
O O17 0.679372 0.386130 0.679936
#
# Coordination Sequence:
#
# PCOD9434882 Si02
#       8
#     4   8   8   8   8   8   8   4
#     4   8  16  30  48  69  90 110 136 175 220 260
#     4  10  21  36  51  68  92 120 147 178 219 259
#     4   9  15  23  37  55  74 106 153 188 209 246
#     4  10  19  29  41  61  90 120 146 173 214 262
#     4  10  19  33  51  69  89 113 145 181 216 257
#     4   9  17  28  39  55  86 121 146 178 222 258
#     4  10  19  31  49  69  89 116 148 180 213 258
#     4   8  16  30  46  65  88 114 142 177 220 252
#
# _framework density 21.370235000000001
#
# number of rings (size 3 to 8) (size 9 to 14) (size 15 to 20)
#    0.000    2.571    0.000    2.571    0.000    4.571 
#    0.000    0.714    0.000    0.000    0.000    0.000 
#    0.000    0.000    0.000   12.857    0.000    5.714 
#
# Total GULP energy -312109.663260 kJ/mol
# GULP energy per Si atom -5573.386844 kJ/mol
# Density = 2.132160 g / cm^3
# Si number density = 21.370235 Si / 1000 Ang^3
#
#
#
# Elastic Constant Matrix: (Units=GPa)
#
#
# Indices 1 2 3 4 5 6 
#
# 1 86.5755 63.0158 -12.0390 0.0000 0.0000 0.0000
# 2 63.0158 252.3218 14.0319 0.0000 0.0000 0.0000
# 3 -12.0390 14.0319 49.2053 0.0000 0.0000 0.0000
# 4 0.0000 0.0000 0.0000 16.5286 0.0000 0.0000
# 5 0.0000 0.0000 0.0000 0.0000 5.3317 0.0000
# 6 0.0000 0.0000 0.0000 0.0000 0.0000 42.2538
#
#
#
# Elastic Compliance Matrix: (Units=1/GPa)
#
#
# Indices 1 2 3 4 5 6 
#
# 1 0.015186 -0.004064 0.004875 0.000000 0.000000 0.000000
# 2 -0.004064 0.005115 -0.002453 0.000000 0.000000 0.000000
# 3 0.004875 -0.002453 0.022215 0.000000 0.000000 0.000000
# 4 0.000000 0.000000 0.000000 0.060501 0.000000 0.000000
# 5 0.000000 0.000000 0.000000 0.000000 0.187558 0.000000
# 6 0.000000 0.000000 0.000000 0.000000 0.000000 0.023666
#
#
# Mechanical properties :
#
#
# Convention : Reuss Voigt Hill
#
# Bulk Modulus (GPa) = 25.48948 57.56888 41.52918
# Shear Modulus (GPa) = 15.12388 34.36242 24.74315
#
# Velocity S-wave (km/s) = 2.66316 4.01428 3.40638
# Velocity P-wave (km/s) = 4.62710 6.96299 5.91157
#
# Compressibility (1/GPa) = 0.03923187
#
# Stress axis : x y z
#
# Youngs Moduli (GPa) = 65.84855 195.52253 45.01438
#
# Poissons Ratio (x) = 0.79456 -0.21942
# Poissons Ratio (y) = 0.26759 0.11041
# Poissons Ratio (z) = -0.32098 0.47957
#
# Static dielectric constant tensor:
#      x y z
#    x 1.721790 0.000000 0.000000 
#    y 0.000000 1.875290 0.000000 
#    z 0.000000 0.000000 1.819270 
# 
# From -- ./inp_files/25854.got.cif
#   From: 2010.05.17/outbox.cif.g08.bks.cpg/sg57_13_cif.got.tgz:25854.got - 2010.06.03 13:58:18.
