data_PCOD9434476
_publ_section_title
;
Structure prediction by ZEFSAII (Michael W. Deem and Ramdas Pophale) SiO2 
 PCOD9434476
Probable space group: P B C M
;
_chemical_formula_sum "Si O2"
_cell_formula_units_Z 48
_cell_length_a 12.983349
_cell_length_b 26.115363
_cell_length_c 8.595843
_cell_angle_alpha 90.000000
_cell_angle_beta 90.000000
_cell_angle_gamma 90.000000
_cell_volume 2914.548407
_symmetry_space_group_name_H-M "P B C M"
_symmetry_group_IT_number 57
_symmetry_cell_setting 'orthorhombic'
loop_
_space_group_symop_operation_xyz
x,y,z
-x,-y,1/2+z
x,1/2-y,-z
-x,1/2+y,1/2-z
-x,-y,-z
x,y,1/2-z
-x,1/2+y,z
x,1/2-y,1/2+z
loop_
_atom_site_type_symbol
_atom_site_label
_atom_site_fract_x
_atom_site_fract_y
_atom_site_fract_z
Si Si1 0.997018 0.808151 0.064408
Si Si2 0.616190 0.999092 0.062974
Si Si3 0.618523 0.613473 0.563107
Si Si4 0.781900 0.692348 0.434990
Si Si5 0.385872 0.888639 0.938315
Si Si6 0.787221 0.307737 0.936814
O O1 0.997605 0.807652 0.250000
O O2 0.996697 0.750000 0.000000
O O3 0.889227 0.829937 0.002864
O O4 0.104509 0.829661 0.000699
O O5 0.614199 0.997988 0.250000
O O6 0.658405 0.054951 0.017438
O O7 0.658118 0.943546 0.014179
O O8 0.500000 0.000000 0.000000
O O9 0.624179 0.617682 0.750000
O O10 0.687820 0.656943 0.486747
O O11 0.499188 0.617594 0.511228
O O12 0.768614 0.750000 0.500000
O O13 0.789720 0.695261 0.250000
O O14 0.396898 0.887535 0.750000
O O15 0.307434 0.843947 0.983357
O O16 0.792890 0.305538 0.750000
O O17 0.773899 0.250000 0.000000
#
# Coordination Sequence:
#
# PCOD9434476 Si02
#       6
#     8   8   8   8   8   8
#     4  10  18  31  50  70  93 121 158 197 233 277
#     4   8  15  29  48  68  91 122 161 200 235 276
#     4  10  19  31  49  73  99 126 158 197 241 286
#     4  11  21  34  51  71  97 126 158 194 235 284
#     4   9  18  32  49  70  97 130 164 198 237 281
#     4  10  19  31  48  70  97 127 159 194 234 280
#
# _framework density 16.469104000000002
#
# number of rings (size 3 to 8) (size 9 to 14) (size 15 to 20)
#    0.000    2.333    0.000    6.000    0.000    2.667 
#    0.000    1.667    0.000    1.000    0.000    0.000 
#    0.000    0.000    0.000    0.000    0.000    0.000 
#
# Total GULP energy -267338.584514 kJ/mol
# GULP energy per Si atom -5569.553844 kJ/mol
# Density = 1.643162 g / cm^3
# Si number density = 16.469104 Si / 1000 Ang^3
#
#
#
# Elastic Constant Matrix: (Units=GPa)
#
#
# Indices 1 2 3 4 5 6 
#
# 1 100.2298 61.9635 39.3251 0.0000 0.0000 0.0000
# 2 61.9635 103.4635 35.5040 0.0000 0.0000 0.0000
# 3 39.3251 35.5040 80.4748 0.0000 0.0000 0.0000
# 4 0.0000 0.0000 0.0000 17.2483 0.0000 0.0000
# 5 0.0000 0.0000 0.0000 0.0000 23.7484 0.0000
# 6 0.0000 0.0000 0.0000 0.0000 0.0000 -2.0929
#
#
#
# Elastic Compliance Matrix: (Units=1/GPa)
#
#
# Indices 1 2 3 4 5 6 
#
# 1 0.017140 -0.008709 -0.004533 0.000000 0.000000 0.000000
# 2 -0.008709 0.015815 -0.002721 0.000000 0.000000 0.000000
# 3 -0.004533 -0.002721 0.015842 0.000000 0.000000 0.000000
# 4 0.000000 0.000000 0.000000 0.057977 0.000000 0.000000
# 5 0.000000 0.000000 0.000000 0.000000 0.042108 0.000000
# 6 0.000000 0.000000 0.000000 0.000000 0.000000 -0.477796
#
#
# Mechanical properties :
#
#
# Convention : Reuss Voigt Hill
#
# Bulk Modulus (GPa) = 59.27983 61.97257 60.62620
# Shear Modulus (GPa) = -17.16070 17.60579 0.22255
#
# Velocity S-wave (km/s) = -3.23149 3.27313 0.36800
# Velocity P-wave (km/s) = 4.70630 7.21081 6.08872
#
# Compressibility (1/GPa) = 0.01686914
#
# Stress axis : x y z
#
# Youngs Moduli (GPa) = 58.34323 63.23084 63.12291
#
# Poissons Ratio (x) = 0.55070 0.28615
# Poissons Ratio (y) = 0.50813 0.17178
# Poissons Ratio (z) = 0.26448 0.17207
#
# Static dielectric constant tensor:
#      x y z
#    x 1.551290 0.000000 0.000000 
#    y 0.000000 1.559630 0.000000 
#    z 0.000000 0.000000 1.556870 
# 
# From -- ./inp_files/3322.got.cif
#   From: 2010.05.17/outbox.cif.g08.bks.cpg/sg57_2_cif.got.tgz:3322.got - 2010.06.03 13:58:18.
