data_PCOD9435831
_publ_section_title
;
Structure prediction by ZEFSAII (Michael W. Deem and Ramdas Pophale) SiO2 
 PCOD9435831
Probable space group: P B C M
;
_chemical_formula_sum "Si O2"
_cell_formula_units_Z 40
_cell_length_a 7.268793
_cell_length_b 17.911494
_cell_length_c 14.937086
_cell_angle_alpha 90.000000
_cell_angle_beta 90.000000
_cell_angle_gamma 90.000000
_cell_volume 1944.733049
_symmetry_space_group_name_H-M "P B C M"
_symmetry_group_IT_number 57
_symmetry_cell_setting 'orthorhombic'
loop_
_space_group_symop_operation_xyz
x,y,z
-x,-y,1/2+z
x,1/2-y,-z
-x,1/2+y,1/2-z
-x,-y,-z
x,y,1/2-z
-x,1/2+y,z
x,1/2-y,1/2+z
loop_
_atom_site_type_symbol
_atom_site_label
_atom_site_fract_x
_atom_site_fract_y
_atom_site_fract_z
Si Si1 0.584306 0.117136 0.848305
Si Si2 0.254038 0.564786 0.352449
Si Si3 0.308116 0.724484 0.404155
Si Si4 0.418639 0.391934 0.963903
Si Si5 0.141670 0.481143 0.855022
O O1 0.505971 0.101653 0.750000
O O2 0.666819 0.200493 0.849776
O O3 0.748811 0.058456 0.865812
O O4 0.442014 0.112495 0.930100
O O5 0.315413 0.554221 0.250000
O O6 0.204014 0.653289 0.363250
O O7 0.420092 0.554876 0.421765
O O8 0.075631 0.516117 0.371838
O O9 0.229572 0.750000 0.500000
O O10 0.508864 0.687209 0.424660
O O11 0.233486 0.421448 0.921159
O O12 0.163904 0.458797 0.750000
#
# Coordination Sequence:
#
# PCOD9435831 Si02
#       5
#     8   8   8   8   8
#     4  10  19  33  55  80 109 139 174 222 270 305
#     4   9  18  33  56  78 102 138 177 211 257 318
#     4   8  17  34  54  77 101 141 175 208 265 315
#     4   9  19  35  56  75 106 144 177 210 263 317
#     4  10  20  33  55  83 105 136 180 221 259 312
#
# _framework density 20.568375
#
# number of rings (size 3 to 8) (size 9 to 14) (size 15 to 20)
#    1.200    1.600    0.000    1.800    0.000    0.800 
#    0.000    3.000    4.400    1.200    0.000    0.000 
#    0.000    0.000    0.000    0.000    0.000    0.000 
#
# Total GULP energy -222824.927182 kJ/mol
# GULP energy per Si atom -5570.623180 kJ/mol
# Density = 2.052156 g / cm^3
# Si number density = 20.568375 Si / 1000 Ang^3
#
#
#
# Elastic Constant Matrix: (Units=GPa)
#
#
# Indices 1 2 3 4 5 6 
#
# 1 41.0260 1.0195 31.0676 0.0000 0.0000 0.0000
# 2 1.0195 98.1385 7.2068 0.0000 0.0000 0.0000
# 3 31.0676 7.2068 108.9588 0.0000 0.0000 0.0000
# 4 0.0000 0.0000 0.0000 -1.1377 0.0000 0.0000
# 5 0.0000 0.0000 0.0000 0.0000 31.6934 0.0000
# 6 0.0000 0.0000 0.0000 0.0000 0.0000 15.2005
#
#
#
# Elastic Compliance Matrix: (Units=1/GPa)
#
#
# Indices 1 2 3 4 5 6 
#
# 1 0.031098 0.000330 -0.008889 0.000000 0.000000 0.000000
# 2 0.000330 0.010243 -0.000771 0.000000 0.000000 0.000000
# 3 -0.008889 -0.000771 0.011763 0.000000 0.000000 0.000000
# 4 0.000000 0.000000 0.000000 -0.878972 0.000000 0.000000
# 5 0.000000 0.000000 0.000000 0.000000 0.031552 0.000000
# 6 0.000000 0.000000 0.000000 0.000000 0.000000 0.065787
#
#
# Mechanical properties :
#
#
# Convention : Reuss Voigt Hill
#
# Bulk Modulus (GPa) = 29.03363 36.30125 32.66744
# Shear Modulus (GPa) = -7.15936 23.07318 7.95691
#
# Velocity S-wave (km/s) = -1.86770 3.35293 1.96899
# Velocity P-wave (km/s) = 3.08143 5.71637 4.59196
#
# Compressibility (1/GPa) = 0.03444282
#
# Stress axis : x y z
#
# Youngs Moduli (GPa) = 32.15661 97.62851 85.01030
#
# Poissons Ratio (x) = -0.03219 0.75564
# Poissons Ratio (y) = -0.01060 0.06558
# Poissons Ratio (z) = 0.28583 0.07532
#
# Static dielectric constant tensor:
#      x y z
#    x 1.701440 0.000000 0.000000 
#    y 0.000000 1.782700 0.000000 
#    z 0.000000 0.000000 1.787480 
# 
# From -- ./inp_files/16497.got.cif
#   From: 2010.05.17/outbox.cif.g08.bks.cpg/sg57_9_cif.got.tgz:16497.got - 2010.06.03 13:58:18.
