data_PCOD9435433
_publ_section_title
;
Structure prediction by ZEFSAII (Michael W. Deem and Ramdas Pophale) SiO2 
 PCOD9435433
Probable space group: P B C M
;
_chemical_formula_sum "Si O2"
_cell_formula_units_Z 48
_cell_length_a 32.376319
_cell_length_b 9.187328
_cell_length_c 8.525578
_cell_angle_alpha 90.000000
_cell_angle_beta 90.000000
_cell_angle_gamma 90.000000
_cell_volume 2535.949051
_symmetry_space_group_name_H-M "P B C M"
_symmetry_group_IT_number 57
_symmetry_cell_setting 'orthorhombic'
loop_
_space_group_symop_operation_xyz
x,y,z
-x,-y,1/2+z
x,1/2-y,-z
-x,1/2+y,1/2-z
-x,-y,-z
x,y,1/2-z
-x,1/2+y,z
x,1/2-y,1/2+z
loop_
_atom_site_type_symbol
_atom_site_label
_atom_site_fract_x
_atom_site_fract_y
_atom_site_fract_z
Si Si1 0.780899 0.084486 0.439601
Si Si2 0.129002 0.915897 0.939215
Si Si3 0.039403 0.585152 0.438140
Si Si4 0.699167 0.585977 0.938956
Si Si5 0.380302 0.914413 0.062430
Si Si6 0.460070 0.414569 0.062371
O O1 0.776414 0.250000 0.500000
O O2 0.780411 0.089718 0.250000
O O3 0.826198 0.024964 0.489984
O O4 0.742483 0.986583 0.490355
O O5 0.128972 0.915059 0.750000
O O6 0.084440 0.978508 0.988849
O O7 0.128925 0.750000 0.000000
O O8 0.037496 0.750000 0.500000
O O9 0.038251 0.586456 0.250000
O O10 0.000000 0.500000 0.500000
O O11 0.697462 0.585580 0.750000
O O12 0.695963 0.750000 0.000000
O O13 0.661458 0.491099 0.004021
O O14 0.381461 0.913823 0.250000
O O15 0.382057 0.750000 0.000000
O O16 0.419207 0.004181 0.997758
O O17 0.460446 0.413661 0.250000
O O18 0.460617 0.250000 0.000000
O O19 0.500000 0.500000 0.000000
#
# Coordination Sequence:
#
# PCOD9435433 Si02
#       6
#     8   8   8   8   8   8
#     4   9  18  33  55  80 106 136 177 224 274 328
#     4   8  15  29  49  73 100 133 172 219 268 323
#     4  10  19  32  51  74 103 137 177 221 271 326
#     4  11  23  39  58  83 115 152 189 231 281 336
#     4  12  25  43  65  91 121 156 197 242 288 339
#     4  12  25  44  67  95 128 164 203 245 293 344
#
# _framework density 18.927826
#
# number of rings (size 3 to 8) (size 9 to 14) (size 15 to 20)
#    0.000    1.667    0.000    5.500    0.000    3.333 
#    0.000    0.833    0.000    2.000    0.000    0.000 
#    0.000    0.000    0.000    0.000    0.000    0.000 
#
# Total GULP energy -268004.576161 kJ/mol
# GULP energy per Si atom -5583.428670 kJ/mol
# Density = 1.888475 g / cm^3
# Si number density = 18.927826 Si / 1000 Ang^3
#
#
#
# Elastic Constant Matrix: (Units=GPa)
#
#
# Indices 1 2 3 4 5 6 
#
# 1 234.0848 99.7298 64.0209 0.0000 0.0000 0.0000
# 2 99.7298 128.4268 44.2152 0.0000 0.0000 0.0000
# 3 64.0209 44.2152 102.3696 0.0000 0.0000 0.0000
# 4 0.0000 0.0000 0.0000 31.7410 0.0000 0.0000
# 5 0.0000 0.0000 0.0000 0.0000 26.9419 0.0000
# 6 0.0000 0.0000 0.0000 0.0000 0.0000 35.7898
#
#
#
# Elastic Compliance Matrix: (Units=1/GPa)
#
#
# Indices 1 2 3 4 5 6 
#
# 1 0.006825 -0.004499 -0.002325 0.000000 0.000000 0.000000
# 2 -0.004499 0.012113 -0.002418 0.000000 0.000000 0.000000
# 3 -0.002325 -0.002418 0.012267 0.000000 0.000000 0.000000
# 4 0.000000 0.000000 0.000000 0.031505 0.000000 0.000000
# 5 0.000000 0.000000 0.000000 0.000000 0.037117 0.000000
# 6 0.000000 0.000000 0.000000 0.000000 0.000000 0.027941
#
#
# Mechanical properties :
#
#
# Convention : Reuss Voigt Hill
#
# Bulk Modulus (GPa) = 78.61440 97.86810 88.24125
# Shear Modulus (GPa) = 33.22454 36.02225 34.62340
#
# Velocity S-wave (km/s) = 4.19421 4.36723 4.28159
# Velocity P-wave (km/s) = 8.06716 8.78911 8.43586
#
# Compressibility (1/GPa) = 0.01272032
#
# Stress axis : x y z
#
# Youngs Moduli (GPa) = 146.52771 82.55640 81.52121
#
# Poissons Ratio (x) = 0.37145 0.18952
# Poissons Ratio (y) = 0.65927 0.19712
# Poissons Ratio (z) = 0.34064 0.19962
#
# Static dielectric constant tensor:
#      x y z
#    x 1.693240 0.000000 0.000000 
#    y 0.000000 1.772770 0.000000 
#    z 0.000000 0.000000 1.645540 
# 
# From -- ./inp_files/9988.got.cif
#   From: 2010.05.17/outbox.cif.g08.bks.cpg/sg57_5_cif.got.tgz:9988.got - 2010.06.03 13:58:18.
