data_PCOD9435202
_publ_section_title
;
Structure prediction by ZEFSAII (Michael W. Deem and Ramdas Pophale) SiO2 
 PCOD9435202
Probable space group: P B C M
;
_chemical_formula_sum "Si O2"
_cell_formula_units_Z 48
_cell_length_a 7.447735
_cell_length_b 19.150930
_cell_length_c 16.114547
_cell_angle_alpha 90.000000
_cell_angle_beta 90.000000
_cell_angle_gamma 90.000000
_cell_volume 2298.434785
_symmetry_space_group_name_H-M "P B C M"
_symmetry_group_IT_number 57
_symmetry_cell_setting 'orthorhombic'
loop_
_space_group_symop_operation_xyz
x,y,z
-x,-y,1/2+z
x,1/2-y,-z
-x,1/2+y,1/2-z
-x,-y,-z
x,y,1/2-z
-x,1/2+y,z
x,1/2-y,1/2+z
loop_
_atom_site_type_symbol
_atom_site_label
_atom_site_fract_x
_atom_site_fract_y
_atom_site_fract_z
Si Si1 0.519410 0.829434 0.501180
Si Si2 0.932641 0.566666 0.151908
Si Si3 0.968989 0.908775 0.342354
Si Si4 0.040259 0.169217 0.006720
Si Si5 0.555615 0.901806 0.163112
Si Si6 0.471737 0.039783 0.088358
O O1 0.460581 0.750000 0.500000
O O2 0.739102 0.830711 0.505265
O O3 0.467629 0.864889 0.414573
O O4 0.456604 0.882027 0.573450
O O5 0.927614 0.585553 0.250000
O O6 0.005582 0.626958 0.090870
O O7 0.733511 0.548792 0.117270
O O8 0.031327 0.492204 0.143997
O O9 0.050340 0.896993 0.250000
O O10 0.034880 0.871967 0.426353
O O11 0.764395 0.882514 0.336666
O O12 0.985737 0.250000 0.000000
O O13 0.472202 0.881519 0.250000
O O14 0.552042 0.985224 0.152489
O O15 0.500000 0.000000 0.000000
#
# Coordination Sequence:
#
# PCOD9435202 Si02
#       6
#     8   8   8   8   8   8
#     4   8  15  28  43  63  90 116 145 185 229 271
#     4  10  19  31  49  73  97 124 158 198 238 279
#     4   9  18  31  49  70  94 125 160 196 236 281
#     4   9  17  29  46  69  96 123 156 197 239 281
#     4   9  16  28  46  67  88 116 152 188 225 269
#     4   9  17  29  47  68  91 120 152 190 231 273
#
# _framework density 20.883778
#
# number of rings (size 3 to 8) (size 9 to 14) (size 15 to 20)
#    0.000    3.000    0.000    2.000    0.000    0.667 
#    0.000    9.167    0.000    9.000    0.000    7.000 
#    0.000    0.000    0.000    0.000    0.000    0.000 
#
# Total GULP energy -267211.304321 kJ/mol
# GULP energy per Si atom -5566.902173 kJ/mol
# Density = 2.083625 g / cm^3
# Si number density = 20.883778 Si / 1000 Ang^3
#
#
#
# Elastic Constant Matrix: (Units=GPa)
#
#
# Indices 1 2 3 4 5 6 
#
# 1 57.0163 -1.7219 6.5257 0.0000 0.0000 0.0000
# 2 -1.7219 144.4267 82.6214 0.0000 0.0000 0.0000
# 3 6.5257 82.6214 138.0639 0.0000 0.0000 0.0000
# 4 0.0000 0.0000 0.0000 16.7362 0.0000 0.0000
# 5 0.0000 0.0000 0.0000 0.0000 -0.3605 0.0000
# 6 0.0000 0.0000 0.0000 0.0000 0.0000 16.7332
#
#
#
# Elastic Compliance Matrix: (Units=1/GPa)
#
#
# Indices 1 2 3 4 5 6 
#
# 1 0.017739 0.001051 -0.001467 0.000000 0.000000 0.000000
# 2 0.001051 0.010590 -0.006387 0.000000 0.000000 0.000000
# 3 -0.001467 -0.006387 0.011135 0.000000 0.000000 0.000000
# 4 0.000000 0.000000 0.000000 0.059751 0.000000 0.000000
# 5 0.000000 0.000000 0.000000 0.000000 -2.773813 0.000000
# 6 0.000000 0.000000 0.000000 0.000000 0.000000 0.059761
#
#
# Mechanical properties :
#
#
# Convention : Reuss Voigt Hill
#
# Bulk Modulus (GPa) = 38.67542 57.15083 47.91313
# Shear Modulus (GPa) = -1.92856 23.42722 10.74933
#
# Velocity S-wave (km/s) = -0.96202 3.35295 2.27121
# Velocity P-wave (km/s) = 4.16240 6.51270 5.46538
#
# Compressibility (1/GPa) = 0.02585621
#
# Stress axis : x y z
#
# Youngs Moduli (GPa) = 56.37453 94.42532 89.80937
#
# Poissons Ratio (x) = -0.09923 0.13178
# Poissons Ratio (y) = -0.05924 0.57364
# Poissons Ratio (z) = 0.08272 0.60312
#
# Static dielectric constant tensor:
#      x y z
#    x 1.828910 0.000000 0.000000 
#    y 0.000000 1.735870 0.000000 
#    z 0.000000 0.000000 1.184730 
# 
# From -- ./inp_files/17819.got.cif
#   From: 2010.05.17/outbox.cif.g08.bks.cpg/sg57_9_cif.got.tgz:17819.got - 2010.06.03 13:58:18.
