data_PCOD9435722
_publ_section_title
;
Structure prediction by ZEFSAII (Michael W. Deem and Ramdas Pophale) SiO2 
 PCOD9435722
Probable space group: P B C M
;
_chemical_formula_sum "Si O2"
_cell_formula_units_Z 64
_cell_length_a 22.180999
_cell_length_b 18.049127
_cell_length_c 8.620295
_cell_angle_alpha 90.000000
_cell_angle_beta 90.000000
_cell_angle_gamma 90.000000
_cell_volume 3451.115000
_symmetry_space_group_name_H-M "P B C M"
_symmetry_group_IT_number 57
_symmetry_cell_setting 'orthorhombic'
loop_
_space_group_symop_operation_xyz
x,y,z
-x,-y,1/2+z
x,1/2-y,-z
-x,1/2+y,1/2-z
-x,-y,-z
x,y,1/2-z
-x,1/2+y,z
x,1/2-y,1/2+z
loop_
_atom_site_type_symbol
_atom_site_label
_atom_site_fract_x
_atom_site_fract_y
_atom_site_fract_z
Si Si1 0.243185 0.889873 0.064636
Si Si2 0.935374 0.477346 0.436294
Si Si3 0.279679 0.167453 0.436988
Si Si4 0.498592 0.669782 0.436842
Si Si5 0.373194 0.600673 0.064350
Si Si6 0.878062 0.171366 0.065762
Si Si7 0.812869 0.951602 0.562203
Si Si8 0.606796 0.563801 0.062492
O O1 0.237988 0.882164 0.250000
O O2 0.226772 0.975520 0.024162
O O3 0.310506 0.873704 0.010231
O O4 0.191310 0.841847 0.984856
O O5 0.936332 0.477804 0.250000
O O6 0.915530 0.396318 0.493590
O O7 0.880988 0.531916 0.489524
O O8 0.000000 0.500000 0.500000
O O9 0.283128 0.250000 0.500000
O O10 0.278007 0.170954 0.250000
O O11 0.221032 0.121701 0.493100
O O12 0.337837 0.118022 0.478319
O O13 0.516373 0.750000 0.500000
O O14 0.499926 0.672568 0.250000
O O15 0.431097 0.648247 0.486736
O O16 0.545524 0.605805 0.483783
O O17 0.368332 0.604757 0.250000
O O18 0.385261 0.515878 0.014440
O O19 0.882767 0.169712 0.250000
O O20 0.898480 0.250000 0.000000
O O21 0.814071 0.948216 0.750000
O O22 0.607392 0.553921 0.250000
#
# Coordination Sequence:
#
# PCOD9435722 Si02
#       8
#     8   8   8   8   8   8   8   8
#     4  10  19  36  59  82 110 149 188 231 288 342
#     4  10  20  37  61  88 118 159 204 242 287 340
#     4  10  19  33  53  80 108 140 180 226 281 339
#     4  10  23  39  54  76 107 143 184 234 286 344
#     4  11  22  35  54  83 112 141 187 237 283 342
#     4  11  22  38  60  90 123 156 196 243 293 348
#     4   8  16  33  55  77 107 144 183 225 274 335
#     4  10  20  37  58  77 104 143 187 230 284 345
#
# _framework density 18.544730000000001
#
# number of rings (size 3 to 8) (size 9 to 14) (size 15 to 20)
#    0.000    2.000    1.250    3.750    0.000    2.500 
#    0.000    3.125    0.000    1.500    0.000    0.000 
#    0.000    0.000    0.000    0.000    0.000    0.000 
#
# Total GULP energy -357400.191896 kJ/mol
# GULP energy per Si atom -5584.377998 kJ/mol
# Density = 1.850252 g / cm^3
# Si number density = 18.544730 Si / 1000 Ang^3
#
#
#
# Elastic Constant Matrix: (Units=GPa)
#
#
# Indices 1 2 3 4 5 6 
#
# 1 109.8797 6.7501 22.3654 0.0000 0.0000 0.0000
# 2 6.7501 46.2704 7.5863 0.0000 0.0000 0.0000
# 3 22.3654 7.5863 44.9944 0.0000 0.0000 0.0000
# 4 0.0000 0.0000 0.0000 27.7680 0.0000 0.0000
# 5 0.0000 0.0000 0.0000 0.0000 27.0717 0.0000
# 6 0.0000 0.0000 0.0000 0.0000 0.0000 16.7790
#
#
#
# Elastic Compliance Matrix: (Units=1/GPa)
#
#
# Indices 1 2 3 4 5 6 
#
# 1 0.010146 -0.000672 -0.004930 0.000000 0.000000 0.000000
# 2 -0.000672 0.022271 -0.003421 0.000000 0.000000 0.000000
# 3 -0.004930 -0.003421 0.025252 0.000000 0.000000 0.000000
# 4 0.000000 0.000000 0.000000 0.036013 0.000000 0.000000
# 5 0.000000 0.000000 0.000000 0.000000 0.036939 0.000000
# 6 0.000000 0.000000 0.000000 0.000000 0.000000 0.059598
#
#
# Mechanical properties :
#
#
# Convention : Reuss Voigt Hill
#
# Bulk Modulus (GPa) = 25.23758 30.50535 27.87146
# Shear Modulus (GPa) = 22.57624 25.28659 23.93141
#
# Velocity S-wave (km/s) = 3.49290 3.69663 3.59621
# Velocity P-wave (km/s) = 5.46861 5.89113 5.68380
#
# Compressibility (1/GPa) = 0.03962346
#
# Stress axis : x y z
#
# Youngs Moduli (GPa) = 98.56523 44.90142 39.60045
#
# Poissons Ratio (x) = 0.03017 0.19522
# Poissons Ratio (y) = 0.06622 0.13548
# Poissons Ratio (z) = 0.48591 0.15361
#
# Static dielectric constant tensor:
#      x y z
#    x 1.643090 0.000000 0.000000 
#    y 0.000000 1.612230 0.000000 
#    z 0.000000 0.000000 1.626770 
# 
# From -- ./inp_files/8622.got.cif
#   From: 2010.05.17/outbox.cif.g08.bks.cpg/sg57_5_cif.got.tgz:8622.got - 2010.06.03 13:58:18.
