data_PCOD9435789
_publ_section_title
;
Structure prediction by ZEFSAII (Michael W. Deem and Ramdas Pophale) SiO2 
 PCOD9435789
Probable space group: P B C M
;
_chemical_formula_sum "Si O2"
_cell_formula_units_Z 56
_cell_length_a 21.584209
_cell_length_b 15.874141
_cell_length_c 8.592398
_cell_angle_alpha 90.000000
_cell_angle_beta 90.000000
_cell_angle_gamma 90.000000
_cell_volume 2944.020003
_symmetry_space_group_name_H-M "P B C M"
_symmetry_group_IT_number 57
_symmetry_cell_setting 'orthorhombic'
loop_
_space_group_symop_operation_xyz
x,y,z
-x,-y,1/2+z
x,1/2-y,-z
-x,1/2+y,1/2-z
-x,-y,-z
x,y,1/2-z
-x,1/2+y,z
x,1/2-y,1/2+z
loop_
_atom_site_type_symbol
_atom_site_label
_atom_site_fract_x
_atom_site_fract_y
_atom_site_fract_z
Si Si1 0.904287 0.837998 0.063287
Si Si2 0.380017 0.661360 0.063436
Si Si3 0.288660 0.510601 0.437897
Si Si4 0.492870 0.405259 0.436899
Si Si5 0.643084 0.658308 0.937778
Si Si6 0.152705 0.511735 0.936742
Si Si7 0.028884 0.586549 0.937379
O O1 0.900583 0.839384 0.250000
O O2 0.977016 0.846358 0.013625
O O3 0.879068 0.750000 0.000000
O O4 0.869594 0.920363 0.998678
O O5 0.382290 0.663070 0.250000
O O6 0.337419 0.582582 0.014639
O O7 0.355696 0.750000 0.000000
O O8 0.448846 0.646610 0.998751
O O9 0.287012 0.509944 0.250000
O O10 0.312924 0.418607 0.489123
O O11 0.220680 0.529302 0.500477
O O12 0.500000 0.500000 0.500000
O O13 0.493689 0.407599 0.250000
O O14 0.427141 0.365741 0.486234
O O15 0.644262 0.660550 0.750000
O O16 0.660317 0.750000 0.000000
O O17 0.153518 0.508965 0.750000
O O18 0.100580 0.580696 0.986857
O O19 0.028658 0.586232 0.750000
O O20 0.000000 0.500000 0.000000
#
# Coordination Sequence:
#
# PCOD9435789 Si02
#       7
#     8   8   8   8   8   8   8
#     4  10  19  33  54  81 112 145 179 223 277 329
#     4  11  23  41  62  86 115 150 194 245 296 351
#     4  10  22  41  58  78 116 157 194 238 288 343
#     4  11  21  37  61  88 117 150 188 239 297 351
#     4  10  22  39  57  82 114 149 188 233 286 343
#     4  10  20  35  56  81 108 143 187 229 275 333
#     4   8  16  31  51  75 103 133 170 216 262 315
#
# _framework density 19.021609999999999
#
# number of rings (size 3 to 8) (size 9 to 14) (size 15 to 20)
#    0.000    2.000    1.429    2.143    0.000    5.714 
#    0.000    2.143    0.000    3.429    0.000    0.000 
#    0.000    0.000    0.000    0.000    0.000    0.000 
#
# Total GULP energy -312449.565340 kJ/mol
# GULP energy per Si atom -5579.456524 kJ/mol
# Density = 1.897832 g / cm^3
# Si number density = 19.021610 Si / 1000 Ang^3
#
#
#
# Elastic Constant Matrix: (Units=GPa)
#
#
# Indices 1 2 3 4 5 6 
#
# 1 86.6114 -5.8849 13.4711 0.0000 0.0000 0.0000
# 2 -5.8849 66.0880 10.4268 0.0000 0.0000 0.0000
# 3 13.4711 10.4268 22.2790 0.0000 0.0000 0.0000
# 4 0.0000 0.0000 0.0000 26.0748 0.0000 0.0000
# 5 0.0000 0.0000 0.0000 0.0000 29.4059 0.0000
# 6 0.0000 0.0000 0.0000 0.0000 0.0000 12.1703
#
#
#
# Elastic Compliance Matrix: (Units=1/GPa)
#
#
# Indices 1 2 3 4 5 6 
#
# 1 0.013151 0.002619 -0.009178 0.000000 0.000000 0.000000
# 2 0.002619 0.016859 -0.009474 0.000000 0.000000 0.000000
# 3 -0.009178 -0.009474 0.054869 0.000000 0.000000 0.000000
# 4 0.000000 0.000000 0.000000 0.038351 0.000000 0.000000
# 5 0.000000 0.000000 0.000000 0.000000 0.034007 0.000000
# 6 0.000000 0.000000 0.000000 0.000000 0.000000 0.082167
#
#
# Mechanical properties :
#
#
# Convention : Reuss Voigt Hill
#
# Bulk Modulus (GPa) = 18.93441 23.44493 21.18967
# Shear Modulus (GPa) = 17.29660 23.99456 20.64558
#
# Velocity S-wave (km/s) = 3.01875 3.55552 3.29808
# Velocity P-wave (km/s) = 4.70386 5.40443 5.06627
#
# Compressibility (1/GPa) = 0.05281391
#
# Stress axis : x y z
#
# Youngs Moduli (GPa) = 76.03848 59.31444 18.22534
#
# Poissons Ratio (x) = -0.15535 0.16727
# Poissons Ratio (y) = -0.19915 0.17267
# Poissons Ratio (z) = 0.69786 0.56194
#
# Static dielectric constant tensor:
#      x y z
#    x 1.675850 0.000000 0.000000 
#    y 0.000000 1.650370 0.000000 
#    z 0.000000 0.000000 1.638380 
# 
# From -- ./inp_files/8155.got.cif
#   From: 2010.05.17/outbox.cif.g08.bks.cpg/sg57_5_cif.got.tgz:8155.got - 2010.06.03 13:58:18.
