data_PCOD9435871
_publ_section_title
;
Structure prediction by ZEFSAII (Michael W. Deem and Ramdas Pophale) SiO2 
 PCOD9435871
Probable space group: P B C M
;
_chemical_formula_sum "Si O2"
_cell_formula_units_Z 56
_cell_length_a 13.035279
_cell_length_b 10.977050
_cell_length_c 21.796177
_cell_angle_alpha 90.000000
_cell_angle_beta 90.000000
_cell_angle_gamma 90.000000
_cell_volume 3118.791195
_symmetry_space_group_name_H-M "P B C M"
_symmetry_group_IT_number 57
_symmetry_cell_setting 'orthorhombic'
loop_
_space_group_symop_operation_xyz
x,y,z
-x,-y,1/2+z
x,1/2-y,-z
-x,1/2+y,1/2-z
-x,-y,-z
x,y,1/2-z
-x,1/2+y,z
x,1/2-y,1/2+z
loop_
_atom_site_type_symbol
_atom_site_label
_atom_site_fract_x
_atom_site_fract_y
_atom_site_fract_z
Si Si1 0.791950 0.447900 0.906833
Si Si2 0.451973 0.902281 0.317286
Si Si3 0.777169 0.620023 0.475174
Si Si4 0.380004 0.120236 0.119471
Si Si5 0.593245 0.217412 0.427503
Si Si6 0.689723 0.867944 0.179871
Si Si7 0.993988 0.372829 0.538791
O O1 0.698714 0.352926 0.912942
O O2 0.767380 0.537312 0.850620
O O3 0.905196 0.389085 0.910726
O O4 0.787665 0.532847 0.967002
O O5 0.431149 0.845475 0.250000
O O6 0.418447 0.824092 0.376391
O O7 0.574299 0.922277 0.320826
O O8 0.398719 0.032188 0.323818
O O9 0.737766 0.750000 0.500000
O O10 0.697045 0.562657 0.429031
O O11 0.886984 0.643729 0.443064
O O12 0.489428 0.141426 0.086770
O O13 0.326834 0.244962 0.141139
O O14 0.592812 0.250000 0.500000
O O15 0.717096 0.841003 0.250000
O O16 0.968388 0.250000 0.500000
O O17 0.000000 0.500000 0.500000
#
# Coordination Sequence:
#
# PCOD9435871 Si02
#       7
#     8   8   8   8   8   8   8
#     4  11  20  36  56  82 114 148 186 230 291 348
#     4  10  22  38  54  79 116 160 198 230 285 360
#     4  10  19  33  56  86 115 142 182 232 292 343
#     4  11  20  34  56  81 114 147 186 237 289 345
#     4  11  23  33  53  86 120 148 184 241 295 342
#     4  10  21  35  54  80 108 151 198 237 279 341
#     4   9  20  36  58  86 113 147 186 229 283 351
#
# _framework density 17.955673999999998
#
# number of rings (size 3 to 8) (size 9 to 14) (size 15 to 20)
#    0.000    1.714    2.857    2.143    2.000    3.429 
#    0.000    0.000    0.000    1.714    0.000    0.000 
#    0.000    0.000    0.000    0.000    0.000    0.000 
#
# Total GULP energy -311954.003614 kJ/mol
# GULP energy per Si atom -5570.607207 kJ/mol
# Density = 1.791481 g / cm^3
# Si number density = 17.955674 Si / 1000 Ang^3
#
#
#
# Elastic Constant Matrix: (Units=GPa)
#
#
# Indices 1 2 3 4 5 6 
#
# 1 65.5053 10.4279 24.4106 0.0000 0.0000 0.0000
# 2 10.4279 43.3868 13.9392 0.0000 0.0000 0.0000
# 3 24.4106 13.9392 89.3656 0.0000 0.0000 0.0000
# 4 0.0000 0.0000 0.0000 20.6032 0.0000 0.0000
# 5 0.0000 0.0000 0.0000 0.0000 17.8766 0.0000
# 6 0.0000 0.0000 0.0000 0.0000 0.0000 26.2918
#
#
#
# Elastic Compliance Matrix: (Units=1/GPa)
#
#
# Indices 1 2 3 4 5 6 
#
# 1 0.017309 -0.002780 -0.004294 0.000000 0.000000 0.000000
# 2 -0.002780 0.024711 -0.003095 0.000000 0.000000 0.000000
# 3 -0.004294 -0.003095 0.012846 0.000000 0.000000 0.000000
# 4 0.000000 0.000000 0.000000 0.048536 0.000000 0.000000
# 5 0.000000 0.000000 0.000000 0.000000 0.055939 0.000000
# 6 0.000000 0.000000 0.000000 0.000000 0.000000 0.038035
#
#
# Mechanical properties :
#
#
# Convention : Reuss Voigt Hill
#
# Bulk Modulus (GPa) = 28.96343 32.86811 30.91577
# Shear Modulus (GPa) = 21.81277 22.91967 22.36622
#
# Velocity S-wave (km/s) = 3.48920 3.57663 3.53318
# Velocity P-wave (km/s) = 5.69194 5.94990 5.82235
#
# Compressibility (1/GPa) = 0.03452630
#
# Stress axis : x y z
#
# Youngs Moduli (GPa) = 57.77399 40.46769 77.84693
#
# Poissons Ratio (x) = 0.11252 0.33430
# Poissons Ratio (y) = 0.16064 0.24093
# Poissons Ratio (z) = 0.24810 0.12524
#
# Static dielectric constant tensor:
#      x y z
#    x 1.622160 0.000000 0.000000 
#    y 0.000000 0.601510 0.000000 
#    z 0.000000 0.000000 1.614480 
# 
# From -- ./inp_files/25035.got.cif
#   From: 2010.05.17/outbox.cif.g08.bks.cpg/sg57_13_cif.got.tgz:25035.got - 2010.06.03 13:58:18.
