data_PCOD9435463
_publ_section_title
;
Structure prediction by ZEFSAII (Michael W. Deem and Ramdas Pophale) SiO2 
 PCOD9435463
Probable space group: P B C M
;
_chemical_formula_sum "Si O2"
_cell_formula_units_Z 48
_cell_length_a 32.570957
_cell_length_b 9.733794
_cell_length_c 8.637969
_cell_angle_alpha 90.000000
_cell_angle_beta 90.000000
_cell_angle_gamma 90.000000
_cell_volume 2738.572931
_symmetry_space_group_name_H-M "P B C M"
_symmetry_group_IT_number 57
_symmetry_cell_setting 'orthorhombic'
loop_
_space_group_symop_operation_xyz
x,y,z
-x,-y,1/2+z
x,1/2-y,-z
-x,1/2+y,1/2-z
-x,-y,-z
x,y,1/2-z
-x,1/2+y,z
x,1/2-y,1/2+z
loop_
_atom_site_type_symbol
_atom_site_label
_atom_site_fract_x
_atom_site_fract_y
_atom_site_fract_z
Si Si1 0.963752 0.405805 0.064912
Si Si2 0.464755 0.096937 0.435277
Si Si3 0.789157 0.094703 0.436330
Si Si4 0.628048 0.903490 0.564519
Si Si5 0.300704 0.905043 0.564013
Si Si6 0.122086 0.593641 0.063447
O O1 0.964741 0.400767 0.250000
O O2 0.967539 0.250000 0.000000
O O3 0.919592 0.464178 0.008733
O O4 0.000000 0.500000 0.000000
O O5 0.470292 0.250000 0.500000
O O6 0.466943 0.100082 0.250000
O O7 0.418389 0.051896 0.479399
O O8 0.500000 0.000000 0.500000
O O9 0.789098 0.250000 0.500000
O O10 0.789517 0.100974 0.250000
O O11 0.744616 0.037082 0.482665
O O12 0.833345 0.031241 0.481222
O O13 0.633895 0.750000 0.500000
O O14 0.630399 0.900062 0.750000
O O15 0.662633 0.003268 0.499491
O O16 0.303905 0.750000 0.500000
O O17 0.302535 0.900743 0.750000
O O18 0.118446 0.595258 0.250000
O O19 0.123420 0.750000 0.000000
#
# Coordination Sequence:
#
# PCOD9435463 Si02
#       6
#     8   8   8   8   8   8
#     4  11  21  34  51  74 101 132 168 207 251 301
#     4  10  21  37  57  79 104 133 169 209 253 300
#     4   8  15  26  43  68  98 128 161 202 248 291
#     4  10  21  37  55  76 102 136 172 208 250 301
#     4  10  19  32  51  77 106 136 169 209 251 294
#     4   9  15  26  44  68  96 127 162 203 247 295
#
# _framework density 17.527377000000001
#
# number of rings (size 3 to 8) (size 9 to 14) (size 15 to 20)
#    0.000    2.333    0.000    4.500    0.000    4.000 
#    0.000    0.000    0.000    1.000    0.000    4.667 
#    0.000    0.000    0.000    0.000    0.000    0.000 
#
# Total GULP energy -267446.369171 kJ/mol
# GULP energy per Si atom -5571.799358 kJ/mol
# Density = 1.748748 g / cm^3
# Si number density = 17.527377 Si / 1000 Ang^3
#
#
#
# Elastic Constant Matrix: (Units=GPa)
#
#
# Indices 1 2 3 4 5 6 
#
# 1 231.4434 78.4071 68.8459 0.0000 0.0000 0.0000
# 2 78.4071 43.2160 27.7614 0.0000 0.0000 0.0000
# 3 68.8459 27.7614 82.5663 0.0000 0.0000 0.0000
# 4 0.0000 0.0000 0.0000 26.2180 0.0000 0.0000
# 5 0.0000 0.0000 0.0000 0.0000 26.2162 0.0000
# 6 0.0000 0.0000 0.0000 0.0000 0.0000 27.5896
#
#
#
# Elastic Compliance Matrix: (Units=1/GPa)
#
#
# Indices 1 2 3 4 5 6 
#
# 1 0.011917 -0.019436 -0.003402 0.000000 0.000000 0.000000
# 2 -0.019436 0.061213 -0.004376 0.000000 0.000000 0.000000
# 3 -0.003402 -0.004376 0.016419 0.000000 0.000000 0.000000
# 4 0.000000 0.000000 0.000000 0.038142 0.000000 0.000000
# 5 0.000000 0.000000 0.000000 0.000000 0.038144 0.000000
# 6 0.000000 0.000000 0.000000 0.000000 0.000000 0.036246
#
#
# Mechanical properties :
#
#
# Convention : Reuss Voigt Hill
#
# Bulk Modulus (GPa) = 28.47169 78.58383 53.52776
# Shear Modulus (GPa) = 18.64182 28.15219 23.39701
#
# Velocity S-wave (km/s) = 3.26480 4.01207 3.65757
# Velocity P-wave (km/s) = 5.52189 8.14828 6.96009
#
# Compressibility (1/GPa) = 0.03512261
#
# Stress axis : x y z
#
# Youngs Moduli (GPa) = 83.91433 16.33648 60.90442
#
# Poissons Ratio (x) = 0.31751 0.20718
# Poissons Ratio (y) = 1.63093 0.26650
# Poissons Ratio (z) = 0.28545 0.07148
#
# Static dielectric constant tensor:
#      x y z
#    x 1.661930 0.000000 0.000000 
#    y 0.000000 1.550900 0.000000 
#    z 0.000000 0.000000 1.587870 
# 
# From -- ./inp_files/10232.got.cif
#   From: 2010.05.17/outbox.cif.g08.bks.cpg/sg57_6_cif.got.tgz:10232.got - 2010.06.03 13:58:18.
