data_PCOD9435682
_publ_section_title
;
Structure prediction by ZEFSAII (Michael W. Deem and Ramdas Pophale) SiO2 
 PCOD9435682
Probable space group: P B C M
;
_chemical_formula_sum "Si O2"
_cell_formula_units_Z 48
_cell_length_a 9.273522
_cell_length_b 32.165245
_cell_length_c 9.142901
_cell_angle_alpha 90.000000
_cell_angle_beta 90.000000
_cell_angle_gamma 90.000000
_cell_volume 2727.191204
_symmetry_space_group_name_H-M "P B C M"
_symmetry_group_IT_number 57
_symmetry_cell_setting 'orthorhombic'
loop_
_space_group_symop_operation_xyz
x,y,z
-x,-y,1/2+z
x,1/2-y,-z
-x,1/2+y,1/2-z
-x,-y,-z
x,y,1/2-z
-x,1/2+y,z
x,1/2-y,1/2+z
loop_
_atom_site_type_symbol
_atom_site_label
_atom_site_fract_x
_atom_site_fract_y
_atom_site_fract_z
Si Si1 0.196047 0.343902 0.578238
Si Si2 0.389625 0.627185 0.924327
Si Si3 0.466818 0.293094 0.922437
Si Si4 0.091935 0.035025 0.079947
Si Si5 0.661194 0.578391 0.576867
Si Si6 0.907571 0.120240 0.081781
O O1 0.213894 0.357434 0.750000
O O2 0.296073 0.303827 0.560447
O O3 0.261937 0.378591 0.471662
O O4 0.025141 0.343450 0.552624
O O5 0.399352 0.633199 0.750000
O O6 0.494770 0.588144 0.961344
O O7 0.449789 0.668116 0.005658
O O8 0.227458 0.619962 0.975900
O O9 0.498201 0.291257 0.750000
O O10 0.502000 0.250000 0.000000
O O11 0.110190 0.024924 0.250000
O O12 0.999679 0.077765 0.069725
O O13 0.247507 0.043559 0.007055
O O14 0.000000 0.000000 0.000000
O O15 0.673601 0.571879 0.750000
O O16 0.857307 0.123938 0.250000
#
# Coordination Sequence:
#
# PCOD9435682 Si02
#       6
#     8   8   8   8   8   8
#     4   8  16  31  50  71  95 127 165 202 242 289
#     4  10  20  33  51  76 103 134 171 206 246 299
#     4  10  19  33  53  75 101 131 165 206 250 295
#     4  10  20  34  53  76 101 130 167 209 254 300
#     4   9  17  30  49  72  98 128 165 205 243 291
#     4   9  18  33  52  74 100 130 164 204 250 298
#
# _framework density 17.600525000000001
#
# number of rings (size 3 to 8) (size 9 to 14) (size 15 to 20)
#    0.000    2.667    0.000    3.000    0.000    6.000 
#    0.000    1.667    0.000    2.000    0.000    0.000 
#    0.000    0.000    0.000    0.000    0.000    0.000 
#
# Total GULP energy -267346.071994 kJ/mol
# GULP energy per Si atom -5569.709833 kJ/mol
# Density = 1.756047 g / cm^3
# Si number density = 17.600525 Si / 1000 Ang^3
#
#
#
# Elastic Constant Matrix: (Units=GPa)
#
#
# Indices 1 2 3 4 5 6 
#
# 1 71.4159 -10.9814 28.6998 0.0000 0.0000 0.0000
# 2 -10.9814 13.3617 3.9118 0.0000 0.0000 0.0000
# 3 28.6998 3.9118 67.3191 0.0000 0.0000 0.0000
# 4 0.0000 0.0000 0.0000 26.2703 0.0000 0.0000
# 5 0.0000 0.0000 0.0000 0.0000 30.1298 0.0000
# 6 0.0000 0.0000 0.0000 0.0000 0.0000 6.8239
#
#
#
# Elastic Compliance Matrix: (Units=1/GPa)
#
#
# Indices 1 2 3 4 5 6 
#
# 1 0.021277 0.020491 -0.010262 0.000000 0.000000 0.000000
# 2 0.020491 0.095870 -0.014307 0.000000 0.000000 0.000000
# 3 -0.010262 -0.014307 0.020061 0.000000 0.000000 0.000000
# 4 0.000000 0.000000 0.000000 0.038066 0.000000 0.000000
# 5 0.000000 0.000000 0.000000 0.000000 0.033190 0.000000
# 6 0.000000 0.000000 0.000000 0.000000 0.000000 0.146544
#
#
# Mechanical properties :
#
#
# Convention : Reuss Voigt Hill
#
# Bulk Modulus (GPa) = 7.74876 21.70635 14.72756
# Shear Modulus (GPa) = 12.30983 21.34258 16.82621
#
# Velocity S-wave (km/s) = 2.64749 3.48603 3.09529
# Velocity P-wave (km/s) = 3.70914 5.34442 4.60003
#
# Compressibility (1/GPa) = 0.12905288
#
# Stress axis : x y z
#
# Youngs Moduli (GPa) = 46.99870 10.43083 49.84847
#
# Poissons Ratio (x) = -0.21374 0.51153
# Poissons Ratio (y) = -0.96305 0.71317
# Poissons Ratio (z) = 0.48229 0.14923
#
# Static dielectric constant tensor:
#      x y z
#    x 1.627360 0.000000 0.000000 
#    y 0.000000 1.598340 0.000000 
#    z 0.000000 0.000000 1.593370 
# 
# From -- ./inp_files/2005.got.cif
#   From: 2010.05.17/outbox.cif.g08.bks.cpg/sg57_2_cif.got.tgz:2005.got - 2010.06.03 13:58:18.
