data_PCOD9435862
_publ_section_title
;
Structure prediction by ZEFSAII (Michael W. Deem and Ramdas Pophale) SiO2 
 PCOD9435862
Probable space group: P B C M
;
_chemical_formula_sum "Si O2"
_cell_formula_units_Z 48
_cell_length_a 32.389746
_cell_length_b 9.253238
_cell_length_c 8.532072
_cell_angle_alpha 90.000000
_cell_angle_beta 90.000000
_cell_angle_gamma 90.000000
_cell_volume 2557.147542
_symmetry_space_group_name_H-M "P B C M"
_symmetry_group_IT_number 57
_symmetry_cell_setting 'orthorhombic'
loop_
_space_group_symop_operation_xyz
x,y,z
-x,-y,1/2+z
x,1/2-y,-z
-x,1/2+y,1/2-z
-x,-y,-z
x,y,1/2-z
-x,1/2+y,z
x,1/2-y,1/2+z
loop_
_atom_site_type_symbol
_atom_site_label
_atom_site_fract_x
_atom_site_fract_y
_atom_site_fract_z
Si Si1 0.789883 0.585689 0.938881
Si Si2 0.300500 0.414707 0.061449
Si Si3 0.879803 0.914205 0.060440
Si Si4 0.539447 0.586947 0.438204
Si Si5 0.378873 0.587552 0.937843
Si Si6 0.960680 0.412431 0.938415
O O1 0.789809 0.586401 0.750000
O O2 0.745065 0.526776 0.988009
O O3 0.834567 0.525685 0.989357
O O4 0.790066 0.750000 0.000000
O O5 0.302269 0.411518 0.250000
O O6 0.304480 0.250000 0.000000
O O7 0.337446 0.510980 0.997564
O O8 0.880409 0.909502 0.250000
O O9 0.918441 0.009418 0.008132
O O10 0.883893 0.750000 0.000000
O O11 0.539052 0.750000 0.500000
O O12 0.500000 0.500000 0.500000
O O13 0.538328 0.589100 0.250000
O O14 0.581279 0.505305 0.488864
O O15 0.378337 0.590296 0.750000
O O16 0.381971 0.750000 0.000000
O O17 0.961430 0.412147 0.750000
O O18 0.962174 0.250000 0.000000
O O19 0.000000 0.500000 0.000000
#
# Coordination Sequence:
#
# PCOD9435862 Si02
#       6
#     8   8   8   8   8   8
#     4   8  15  29  50  77 107 139 177 220 266 317
#     4  10  19  33  56  83 112 146 185 229 273 321
#     4   9  18  33  54  79 107 139 176 219 267 320
#     4  11  24  41  63  89 117 149 185 227 274 326
#     4  11  24  40  58  82 113 149 188 230 277 328
#     4  11  23  38  56  78 106 140 178 221 269 322
#
# _framework density 18.770917000000001
#
# number of rings (size 3 to 8) (size 9 to 14) (size 15 to 20)
#    0.000    2.000    0.000    3.500    0.000    8.667 
#    0.000    0.833    0.000    2.000    0.000    0.000 
#    0.000    0.000    0.000    0.000    0.000    0.000 
#
# Total GULP energy -267882.672713 kJ/mol
# GULP energy per Si atom -5580.889015 kJ/mol
# Density = 1.872819 g / cm^3
# Si number density = 18.770917 Si / 1000 Ang^3
#
#
#
# Elastic Constant Matrix: (Units=GPa)
#
#
# Indices 1 2 3 4 5 6 
#
# 1 240.8907 110.0343 44.3976 0.0000 0.0000 0.0000
# 2 110.0343 133.9137 29.0020 0.0000 0.0000 0.0000
# 3 44.3976 29.0020 36.0391 0.0000 0.0000 0.0000
# 4 0.0000 0.0000 0.0000 32.1052 0.0000 0.0000
# 5 0.0000 0.0000 0.0000 0.0000 26.5468 0.0000
# 6 0.0000 0.0000 0.0000 0.0000 0.0000 33.5837
#
#
#
# Elastic Compliance Matrix: (Units=1/GPa)
#
#
# Indices 1 2 3 4 5 6 
#
# 1 0.007339 -0.004932 -0.005072 0.000000 0.000000 0.000000
# 2 -0.004932 0.012358 -0.003869 0.000000 0.000000 0.000000
# 3 -0.005072 -0.003869 0.037110 0.000000 0.000000 0.000000
# 4 0.000000 0.000000 0.000000 0.031148 0.000000 0.000000
# 5 0.000000 0.000000 0.000000 0.000000 0.037669 0.000000
# 6 0.000000 0.000000 0.000000 0.000000 0.000000 0.029776
#
#
# Mechanical properties :
#
#
# Convention : Reuss Voigt Hill
#
# Bulk Modulus (GPa) = 34.41131 86.41238 60.41185
# Shear Modulus (GPa) = 25.92924 33.60779 29.76852
#
# Velocity S-wave (km/s) = 3.72069 4.23592 3.98664
# Velocity P-wave (km/s) = 6.06878 8.37014 7.31059
#
# Compressibility (1/GPa) = 0.02906021
#
# Stress axis : x y z
#
# Youngs Moduli (GPa) = 136.26266 80.92121 26.94699
#
# Poissons Ratio (x) = 0.39907 0.13668
# Poissons Ratio (y) = 0.67200 0.10427
# Poissons Ratio (z) = 0.69115 0.31311
#
# Static dielectric constant tensor:
#      x y z
#    x 1.689380 0.000000 0.000000 
#    y 0.000000 1.591380 0.000000 
#    z 0.000000 0.000000 1.641630 
# 
# From -- ./inp_files/9937.got.cif
#   From: 2010.05.17/outbox.cif.g08.bks.cpg/sg57_5_cif.got.tgz:9937.got - 2010.06.03 13:58:18.
