data_PCOD9435980
_publ_section_title
;
Structure prediction by ZEFSAII (Michael W. Deem and Ramdas Pophale) SiO2 
 PCOD9435980
Probable space group: P B C M
;
_chemical_formula_sum "Si O2"
_cell_formula_units_Z 56
_cell_length_a 22.452355
_cell_length_b 14.470262
_cell_length_c 8.498832
_cell_angle_alpha 90.000000
_cell_angle_beta 90.000000
_cell_angle_gamma 90.000000
_cell_volume 2761.197931
_symmetry_space_group_name_H-M "P B C M"
_symmetry_group_IT_number 57
_symmetry_cell_setting 'orthorhombic'
loop_
_space_group_symop_operation_xyz
x,y,z
-x,-y,1/2+z
x,1/2-y,-z
-x,1/2+y,1/2-z
-x,-y,-z
x,y,1/2-z
-x,1/2+y,z
x,1/2-y,1/2+z
loop_
_atom_site_type_symbol
_atom_site_label
_atom_site_fract_x
_atom_site_fract_y
_atom_site_fract_z
Si Si1 0.934980 0.979914 0.933424
Si Si2 0.130465 0.846817 0.934910
Si Si3 0.829709 0.646323 0.059223
Si Si4 0.737301 0.341264 0.063667
Si Si5 0.535196 0.352749 0.563155
Si Si6 0.418844 0.053129 0.562895
Si Si7 0.706475 0.950342 0.936909
O O1 0.942626 0.961375 0.750000
O O2 0.891417 0.899996 0.999285
O O3 0.897259 0.071730 0.964572
O O4 0.000000 0.000000 0.000000
O O5 0.118610 0.857877 0.750000
O O6 0.106416 0.750000 0.000000
O O7 0.200895 0.846018 0.968264
O O8 0.830834 0.643252 0.250000
O O9 0.770215 0.590397 0.010059
O O10 0.825095 0.750000 0.000000
O O11 0.749784 0.331071 0.250000
O O12 0.707204 0.439293 0.039580
O O13 0.704624 0.250000 0.000000
O O14 0.549649 0.250000 0.500000
O O15 0.541908 0.348267 0.750000
O O16 0.467708 0.381500 0.517613
O O17 0.570851 0.445730 0.508402
O O18 0.428718 0.055304 0.750000
O O19 0.352230 0.084936 0.522695
O O20 0.701390 0.932515 0.750000
#
# Coordination Sequence:
#
# PCOD9435980 Si02
#       7
#     8   8   8   8   8   8   8
#     4  11  23  42  63  88 121 155 199 250 303 363
#     4  11  21  35  58  86 114 149 190 237 294 354
#     4  10  23  43  64  87 120 158 200 248 299 355
#     4  10  19  34  55  82 116 152 190 237 293 355
#     4  10  21  39  62  87 120 160 203 250 304 356
#     4  10  22  38  59  90 122 157 204 253 299 357
#     4  10  21  39  60  84 122 164 197 246 305 356
#
# _framework density 20.281051999999999
#
# number of rings (size 3 to 8) (size 9 to 14) (size 15 to 20)
#    0.000    1.714    1.429    3.857    0.000    6.286 
#    0.000    5.714    0.000    0.000    0.000    0.000 
#    0.000    0.000    0.000    0.000    0.000    0.000 
#
# Total GULP energy -312556.833128 kJ/mol
# GULP energy per Si atom -5581.372020 kJ/mol
# Density = 2.023489 g / cm^3
# Si number density = 20.281052 Si / 1000 Ang^3
#
#
#
# Elastic Constant Matrix: (Units=GPa)
#
#
# Indices 1 2 3 4 5 6 
#
# 1 103.4731 21.8300 14.7062 0.0000 0.0000 0.0000
# 2 21.8300 84.1545 4.8734 0.0000 0.0000 0.0000
# 3 14.7062 4.8734 8.4253 0.0000 0.0000 0.0000
# 4 0.0000 0.0000 0.0000 34.0486 0.0000 0.0000
# 5 0.0000 0.0000 0.0000 0.0000 16.2225 0.0000
# 6 0.0000 0.0000 0.0000 0.0000 0.0000 -4.7104
#
#
#
# Elastic Compliance Matrix: (Units=1/GPa)
#
#
# Indices 1 2 3 4 5 6 
#
# 1 0.013224 -0.002166 -0.021829 0.000000 0.000000 0.000000
# 2 -0.002166 0.012650 -0.003536 0.000000 0.000000 0.000000
# 3 -0.021829 -0.003536 0.158838 0.000000 0.000000 0.000000
# 4 0.000000 0.000000 0.000000 0.029370 0.000000 0.000000
# 5 0.000000 0.000000 0.000000 0.000000 0.061643 0.000000
# 6 0.000000 0.000000 0.000000 0.000000 0.000000 -0.212298
#
#
# Mechanical properties :
#
#
# Convention : Reuss Voigt Hill
#
# Bulk Modulus (GPa) = 7.71311 30.98577 19.34944
# Shear Modulus (GPa) = 30.92073 19.42170 25.17121
#
# Velocity S-wave (km/s) = 3.90886 3.09791 3.52677
# Velocity P-wave (km/s) = 4.91769 5.30165 5.11327
#
# Compressibility (1/GPa) = 0.12964937
#
# Stress axis : x y z
#
# Youngs Moduli (GPa) = 75.62106 79.05400 6.29573
#
# Poissons Ratio (x) = 0.17125 0.13743
# Poissons Ratio (y) = 0.16381 0.02226
# Poissons Ratio (z) = 1.65073 0.27951
#
# Static dielectric constant tensor:
#      x y z
#    x 1.749380 0.000000 0.000000 
#    y 0.000000 1.716820 0.000000 
#    z 0.000000 0.000000 1.697810 
# 
# From -- ./inp_files/8064.got.cif
#   From: 2010.05.17/outbox.cif.g08.bks.cpg/sg57_5_cif.got.tgz:8064.got - 2010.06.03 13:58:18.
