data_PCOD9435145
_publ_section_title
;
Structure prediction by ZEFSAII (Michael W. Deem and Ramdas Pophale) SiO2 
 PCOD9435145
Probable space group: P B C M
;
_chemical_formula_sum "Si O2"
_cell_formula_units_Z 64
_cell_length_a 25.401561
_cell_length_b 14.784060
_cell_length_c 9.300194
_cell_angle_alpha 90.000000
_cell_angle_beta 90.000000
_cell_angle_gamma 90.000000
_cell_volume 3492.578132
_symmetry_space_group_name_H-M "P B C M"
_symmetry_group_IT_number 57
_symmetry_cell_setting 'orthorhombic'
loop_
_space_group_symop_operation_xyz
x,y,z
-x,-y,1/2+z
x,1/2-y,-z
-x,1/2+y,1/2-z
-x,-y,-z
x,y,1/2-z
-x,1/2+y,z
x,1/2-y,1/2+z
loop_
_atom_site_type_symbol
_atom_site_label
_atom_site_fract_x
_atom_site_fract_y
_atom_site_fract_z
Si Si1 0.112576 0.173200 0.588609
Si Si2 0.752671 0.166906 0.417753
Si Si3 0.946233 0.481549 0.915823
Si Si4 0.423138 0.005450 0.578476
Si Si5 0.514114 0.348608 0.423030
Si Si6 0.793106 0.600542 0.412133
Si Si7 0.698268 0.527841 0.917881
Si Si8 0.149073 0.595272 0.914395
O O1 0.082824 0.250000 0.500000
O O2 0.119614 0.204766 0.750000
O O3 0.168166 0.156339 0.512653
O O4 0.082726 0.078518 0.589192
O O5 0.726227 0.250000 0.500000
O O6 0.759272 0.187057 0.250000
O O7 0.809066 0.151106 0.492890
O O8 0.719433 0.075077 0.431062
O O9 0.954397 0.451860 0.750000
O O10 0.906197 0.417150 0.003447
O O11 0.000000 0.500000 0.000000
O O12 0.426413 0.985138 0.750000
O O13 0.460723 0.092244 0.551676
O O14 0.362956 0.029476 0.544000
O O15 0.442642 0.917504 0.490530
O O16 0.513745 0.250000 0.500000
O O17 0.520790 0.338133 0.250000
O O18 0.789231 0.635082 0.250000
O O19 0.736424 0.586915 0.483417
O O20 0.822417 0.502893 0.406138
O O21 0.704537 0.553613 0.750000
O O22 0.142464 0.627508 0.750000
#
# Coordination Sequence:
#
# PCOD9435145 Si02
#       8
#     8   8   8   8   8   8   8   8
#     4  10  20  34  53  76 102 131 165 206 251 298
#     4  10  19  31  48  71 100 133 168 208 255 307
#     4  10  20  34  53  76 100 129 166 207 252 302
#     4   9  19  36  56  79 107 142 183 226 273 321
#     4  10  20  35  56  79 106 141 182 227 273 325
#     4   9  17  30  50  74  99 129 163 198 241 296
#     4   9  18  33  52  74 103 136 170 212 259 307
#     4   9  17  31  50  70  94 126 164 202 242 295
#
# _framework density 18.324570000000001
#
# number of rings (size 3 to 8) (size 9 to 14) (size 15 to 20)
#    0.000    2.500    0.000    2.250    0.000    6.500 
#    0.000    2.500    0.000    3.000    0.000    0.000 
#    0.000    0.000    0.000    0.000    0.000    0.000 
#
# Total GULP energy -356755.682859 kJ/mol
# GULP energy per Si atom -5574.307545 kJ/mol
# Density = 1.828286 g / cm^3
# Si number density = 18.324570 Si / 1000 Ang^3
#
#
#
# Elastic Constant Matrix: (Units=GPa)
#
#
# Indices 1 2 3 4 5 6 
#
# 1 109.1792 1.0527 45.6777 0.0000 0.0000 0.0000
# 2 1.0527 52.9943 26.8501 0.0000 0.0000 0.0000
# 3 45.6777 26.8501 124.6425 0.0000 0.0000 0.0000
# 4 0.0000 0.0000 0.0000 26.2400 0.0000 0.0000
# 5 0.0000 0.0000 0.0000 0.0000 25.0408 0.0000
# 6 0.0000 0.0000 0.0000 0.0000 0.0000 6.5261
#
#
#
# Elastic Compliance Matrix: (Units=1/GPa)
#
#
# Indices 1 2 3 4 5 6 
#
# 1 0.011013 0.002050 -0.004477 0.000000 0.000000 0.000000
# 2 0.002050 0.021563 -0.005396 0.000000 0.000000 0.000000
# 3 -0.004477 -0.005396 0.010826 0.000000 0.000000 0.000000
# 4 0.000000 0.000000 0.000000 0.038110 0.000000 0.000000
# 5 0.000000 0.000000 0.000000 0.000000 0.039935 0.000000
# 6 0.000000 0.000000 0.000000 0.000000 0.000000 0.153230
#
#
# Mechanical properties :
#
#
# Convention : Reuss Voigt Hill
#
# Bulk Modulus (GPa) = 36.03027 48.21966 42.12497
# Shear Modulus (GPa) = 16.69025 25.77708 21.23367
#
# Velocity S-wave (km/s) = 3.02124 3.75466 3.40774
# Velocity P-wave (km/s) = 5.64584 6.72071 6.20659
#
# Compressibility (1/GPa) = 0.02775444
#
# Stress axis : x y z
#
# Youngs Moduli (GPa) = 90.80416 46.37507 92.36832
#
# Poissons Ratio (x) = -0.09506 0.41357
# Poissons Ratio (y) = -0.18613 0.49844
# Poissons Ratio (z) = 0.40656 0.25025
#
# Static dielectric constant tensor:
#      x y z
#    x 1.606670 0.000000 0.000000 
#    y 0.000000 1.669090 0.000000 
#    z 0.000000 0.000000 1.638550 
# 
# From -- ./inp_files/9514.got.cif
#   From: 2010.05.17/outbox.cif.g08.bks.cpg/sg57_5_cif.got.tgz:9514.got - 2010.06.03 13:58:18.
