data_PCOD9435058
_publ_section_title
;
Structure prediction by ZEFSAII (Michael W. Deem and Ramdas Pophale) SiO2 
 PCOD9435058
Probable space group: P B C M
;
_chemical_formula_sum "Si O2"
_cell_formula_units_Z 56
_cell_length_a 17.435043
_cell_length_b 22.132258
_cell_length_c 7.990829
_cell_angle_alpha 90.000000
_cell_angle_beta 90.000000
_cell_angle_gamma 90.000000
_cell_volume 3083.476083
_symmetry_space_group_name_H-M "P B C M"
_symmetry_group_IT_number 57
_symmetry_cell_setting 'orthorhombic'
loop_
_space_group_symop_operation_xyz
x,y,z
-x,-y,1/2+z
x,1/2-y,-z
-x,1/2+y,1/2-z
-x,-y,-z
x,y,1/2-z
-x,1/2+y,z
x,1/2-y,1/2+z
loop_
_atom_site_type_symbol
_atom_site_label
_atom_site_fract_x
_atom_site_fract_y
_atom_site_fract_z
Si Si1 0.542012 0.181699 0.051994
Si Si2 0.705062 0.513566 0.455009
Si Si3 0.139706 0.680986 0.949885
Si Si4 0.300110 0.625126 0.547997
Si Si5 0.875443 0.531674 0.446510
Si Si6 0.544518 0.938304 0.547722
Si Si7 0.031311 0.582669 0.447342
O O1 0.533262 0.179932 0.250000
O O2 0.494229 0.123740 0.983286
O O3 0.521393 0.250000 0.000000
O O4 0.630267 0.166973 0.008951
O O5 0.707157 0.513309 0.250000
O O6 0.689686 0.444226 0.507110
O O7 0.789388 0.533325 0.516232
O O8 0.632785 0.553632 0.507227
O O9 0.136674 0.674816 0.750000
O O10 0.217845 0.649049 0.010591
O O11 0.142672 0.750000 0.000000
O O12 0.066193 0.647916 0.025015
O O13 0.299830 0.625521 0.750000
O O14 0.868037 0.545624 0.250000
O O15 0.910593 0.464503 0.466268
O O16 0.945015 0.572797 0.513969
O O17 0.543696 0.936173 0.750000
O O18 0.500000 0.000000 0.500000
O O19 0.031008 0.567828 0.250000
#
# Coordination Sequence:
#
# PCOD9435058 Si02
#       7
#     8   8   8   8   8   8   8
#     4  11  23  36  52  76 105 139 177 215 259 311
#     4   9  16  31  54  77 103 134 167 207 258 306
#     4  11  22  35  50  71 102 138 174 206 247 303
#     4  10  19  33  54  76 103 139 171 206 254 308
#     4   9  17  32  52  74  99 131 167 203 248 300
#     4  10  20  34  54  78 103 134 173 216 261 309
#     4  10  19  30  49  75 102 131 166 206 249 294
#
# _framework density 18.161322999999999
#
# number of rings (size 3 to 8) (size 9 to 14) (size 15 to 20)
#    0.000    2.000    2.857    1.714    0.000    3.429 
#    0.000    0.714    0.000    0.857    0.000    2.000 
#    0.000    0.000    0.000    0.000    0.000    0.000 
#
# Total GULP energy -312344.867463 kJ/mol
# GULP energy per Si atom -5577.586919 kJ/mol
# Density = 1.811999 g / cm^3
# Si number density = 18.161323 Si / 1000 Ang^3
#
#
#
# Elastic Constant Matrix: (Units=GPa)
#
#
# Indices 1 2 3 4 5 6 
#
# 1 137.4800 62.0467 8.4204 0.0000 0.0000 0.0000
# 2 62.0467 114.2082 7.6717 0.0000 0.0000 0.0000
# 3 8.4204 7.6717 15.6302 0.0000 0.0000 0.0000
# 4 0.0000 0.0000 0.0000 17.3656 0.0000 0.0000
# 5 0.0000 0.0000 0.0000 0.0000 9.8694 0.0000
# 6 0.0000 0.0000 0.0000 0.0000 0.0000 23.6210
#
#
#
# Elastic Compliance Matrix: (Units=1/GPa)
#
#
# Indices 1 2 3 4 5 6 
#
# 1 0.009749 -0.005112 -0.002743 0.000000 0.000000 0.000000
# 2 -0.005112 0.011735 -0.003006 0.000000 0.000000 0.000000
# 3 -0.002743 -0.003006 0.066932 0.000000 0.000000 0.000000
# 4 0.000000 0.000000 0.000000 0.057585 0.000000 0.000000
# 5 0.000000 0.000000 0.000000 0.000000 0.101323 0.000000
# 6 0.000000 0.000000 0.000000 0.000000 0.000000 0.042335
#
#
# Mechanical properties :
#
#
# Convention : Reuss Voigt Hill
#
# Bulk Modulus (GPa) = 14.99386 47.06623 31.03004
# Shear Modulus (GPa) = 14.98747 22.78318 18.88532
#
# Velocity S-wave (km/s) = 2.87582 3.54572 3.22819
# Velocity P-wave (km/s) = 4.39328 6.53718 5.56937
#
# Compressibility (1/GPa) = 0.06669397
#
# Stress axis : x y z
#
# Youngs Moduli (GPa) = 102.57499 85.21402 14.94064
#
# Poissons Ratio (x) = 0.43563 0.04098
# Poissons Ratio (y) = 0.52438 0.04491
# Poissons Ratio (z) = 0.28135 0.25614
#
# Static dielectric constant tensor:
#      x y z
#    x 1.648270 0.000000 0.000000 
#    y 0.000000 1.611550 0.000000 
#    z 0.000000 0.000000 1.650800 
# 
# From -- ./inp_files/7079.got.cif
#   From: 2010.05.17/outbox.cif.g08.bks.cpg/sg57_4_cif.got.tgz:7079.got - 2010.06.03 13:58:18.
