data_PCOD9435253
_publ_section_title
;
Structure prediction by ZEFSAII (Michael W. Deem and Ramdas Pophale) SiO2 
 PCOD9435253
Probable space group: P B C M
;
_chemical_formula_sum "Si O2"
_cell_formula_units_Z 64
_cell_length_a 25.497701
_cell_length_b 15.093344
_cell_length_c 7.683056
_cell_angle_alpha 90.000000
_cell_angle_beta 90.000000
_cell_angle_gamma 90.000000
_cell_volume 2956.790084
_symmetry_space_group_name_H-M "P B C M"
_symmetry_group_IT_number 57
_symmetry_cell_setting 'orthorhombic'
loop_
_space_group_symop_operation_xyz
x,y,z
-x,-y,1/2+z
x,1/2-y,-z
-x,1/2+y,1/2-z
-x,-y,-z
x,y,1/2-z
-x,1/2+y,z
x,1/2-y,1/2+z
loop_
_atom_site_type_symbol
_atom_site_label
_atom_site_fract_x
_atom_site_fract_y
_atom_site_fract_z
Si Si1 0.486397 0.101407 0.041407
Si Si2 0.684340 0.020592 0.950942
Si Si3 0.909778 0.650910 0.459483
Si Si4 0.873480 0.466987 0.046241
Si Si5 0.402485 0.654649 0.457563
Si Si6 0.970078 0.150169 0.042615
Si Si7 0.223616 0.853760 0.039938
Si Si8 0.370370 0.350331 0.959779
O O1 0.484539 0.112106 0.250000
O O2 0.537665 0.152964 0.976048
O O3 0.429659 0.130700 0.973158
O O4 0.500000 0.000000 0.000000
O O5 0.699531 0.005525 0.750000
O O6 0.728753 0.084743 0.027445
O O7 0.669588 0.925093 0.027933
O O8 0.630758 0.076709 0.958258
O O9 0.890727 0.750000 0.500000
O O10 0.911940 0.644301 0.250000
O O11 0.877309 0.566634 0.526703
O O12 0.970123 0.642899 0.523690
O O13 0.860820 0.476580 0.250000
O O14 0.829961 0.399801 0.974247
O O15 0.930222 0.421408 0.031390
O O16 0.378561 0.750000 0.500000
O O17 0.402067 0.641114 0.250000
O O18 0.970586 0.139608 0.250000
O O19 0.951807 0.250000 0.000000
O O20 0.224544 0.856928 0.250000
O O21 0.227697 0.750000 0.000000
O O22 0.372128 0.360508 0.750000
O O23 0.355640 0.250000 0.000000
#
# Coordination Sequence:
#
# PCOD9435253 Si02
#       8
#     8   8   8   8   8   8   8   8
#     4  10  20  34  53  79 109 143 177 214 260 314
#     4  10  21  39  59  78 105 140 179 223 269 316
#     4   9  19  34  52  76 109 146 182 221 265 318
#     4  10  20  35  54  78 108 142 181 225 273 321
#     4  11  22  34  53  81 109 140 176 215 263 317
#     4  10  19  31  50  78 110 145 182 220 267 322
#     4  10  22  39  59  81 106 138 175 220 272 324
#     4  10  21  37  57  80 108 142 178 217 264 315
#
# _framework density 21.645095000000001
#
# number of rings (size 3 to 8) (size 9 to 14) (size 15 to 20)
#    0.000    2.000    1.250    2.250    0.000    5.500 
#    0.000    0.625    0.000    0.000    0.000    0.000 
#    0.000    0.000    0.000    0.000    0.000    0.000 
#
# Total GULP energy -357350.505639 kJ/mol
# GULP energy per Si atom -5583.601651 kJ/mol
# Density = 2.159583 g / cm^3
# Si number density = 21.645095 Si / 1000 Ang^3
#
#
#
# Elastic Constant Matrix: (Units=GPa)
#
#
# Indices 1 2 3 4 5 6 
#
# 1 68.9593 67.0851 8.6700 0.0000 0.0000 0.0000
# 2 67.0851 203.5960 -5.2462 0.0000 0.0000 0.0000
# 3 8.6700 -5.2462 40.2453 0.0000 0.0000 0.0000
# 4 0.0000 0.0000 0.0000 25.9717 0.0000 0.0000
# 5 0.0000 0.0000 0.0000 0.0000 9.6409 0.0000
# 6 0.0000 0.0000 0.0000 0.0000 0.0000 28.9903
#
#
#
# Elastic Compliance Matrix: (Units=1/GPa)
#
#
# Indices 1 2 3 4 5 6 
#
# 1 0.022646 -0.007613 -0.005871 0.000000 0.000000 0.000000
# 2 -0.007613 0.007488 0.002616 0.000000 0.000000 0.000000
# 3 -0.005871 0.002616 0.026453 0.000000 0.000000 0.000000
# 4 0.000000 0.000000 0.000000 0.038503 0.000000 0.000000
# 5 0.000000 0.000000 0.000000 0.000000 0.103725 0.000000
# 6 0.000000 0.000000 0.000000 0.000000 0.000000 0.034494
#
#
# Mechanical properties :
#
#
# Convention : Reuss Voigt Hill
#
# Bulk Modulus (GPa) = 28.69359 50.42425 39.55892
# Shear Modulus (GPa) = 18.75033 29.07336 23.91185
#
# Velocity S-wave (km/s) = 2.94643 3.66892 3.32734
# Velocity P-wave (km/s) = 4.98602 6.42608 5.75130
#
# Compressibility (1/GPa) = 0.03485098
#
# Stress axis : x y z
#
# Youngs Moduli (GPa) = 44.15883 133.55421 37.80228
#
# Poissons Ratio (x) = 1.01675 0.22193
# Poissons Ratio (y) = 0.33618 -0.09889
# Poissons Ratio (z) = 0.25925 -0.34939
#
# Static dielectric constant tensor:
#      x y z
#    x 1.800100 0.000000 0.000000 
#    y 0.000000 1.553190 0.000000 
#    z 0.000000 0.000000 1.826130 
# 
# From -- ./inp_files/9340.got.cif
#   From: 2010.05.17/outbox.cif.g08.bks.cpg/sg57_5_cif.got.tgz:9340.got - 2010.06.03 13:58:18.
