data_PCOD9435024
_publ_section_title
;
Structure prediction by ZEFSAII (Michael W. Deem and Ramdas Pophale) SiO2 
 PCOD9435024
Probable space group: P B C M
;
_chemical_formula_sum "Si O2"
_cell_formula_units_Z 64
_cell_length_a 16.155084
_cell_length_b 29.297231
_cell_length_c 8.676559
_cell_angle_alpha 90.000000
_cell_angle_beta 90.000000
_cell_angle_gamma 90.000000
_cell_volume 4106.608674
_symmetry_space_group_name_H-M "P B C M"
_symmetry_group_IT_number 57
_symmetry_cell_setting 'orthorhombic'
loop_
_space_group_symop_operation_xyz
x,y,z
-x,-y,1/2+z
x,1/2-y,-z
-x,1/2+y,1/2-z
-x,-y,-z
x,y,1/2-z
-x,1/2+y,z
x,1/2-y,1/2+z
loop_
_atom_site_type_symbol
_atom_site_label
_atom_site_fract_x
_atom_site_fract_y
_atom_site_fract_z
Si Si1 0.662640 0.645790 0.063991
Si Si2 0.594605 0.548703 0.435658
Si Si3 0.658264 0.141713 0.565199
Si Si4 0.495499 0.699039 0.435181
Si Si5 0.000541 0.698692 0.935593
Si Si6 0.599720 0.450843 0.933874
Si Si7 0.818322 0.301441 0.063617
Si Si8 0.180946 0.198471 0.564953
O O1 0.667475 0.646888 0.250000
O O2 0.644965 0.593568 0.017114
O O3 0.582327 0.675654 0.019031
O O4 0.745045 0.667496 0.995786
O O5 0.598276 0.544644 0.250000
O O6 0.497576 0.555631 0.476600
O O7 0.623038 0.501359 0.509902
O O8 0.654239 0.143284 0.750000
O O9 0.580431 0.169178 0.497111
O O10 0.651092 0.089765 0.509540
O O11 0.742627 0.166719 0.514226
O O12 0.490551 0.750000 0.500000
O O13 0.491777 0.699910 0.250000
O O14 0.000463 0.699890 0.750000
O O15 0.090506 0.679845 0.983129
O O16 0.910515 0.679852 0.982131
O O17 0.000706 0.750000 0.000000
O O18 0.605613 0.447749 0.750000
O O19 0.816481 0.298712 0.250000
O O20 0.808616 0.250000 0.000000
O O21 0.189614 0.250000 0.500000
O O22 0.184484 0.200917 0.750000
#
# Coordination Sequence:
#
# PCOD9435024 Si02
#       8
#     8   8   8   8   8   8   8   8
#     4  10  20  34  49  67  94 125 157 192 231 277
#     4   9  18  34  51  69  91 120 155 194 237 279
#     4  11  21  32  48  70  94 126 161 194 232 278
#     4  11  22  35  46  63  93 130 164 193 228 271
#     4   8  15  29  46  65  91 120 153 194 234 275
#     4  10  19  33  51  71  93 120 154 196 239 279
#     4   9  18  31  47  68  94 125 159 193 233 276
#     4  10  19  30  47  70  95 125 159 194 234 276
#
# _framework density 15.584636
#
# number of rings (size 3 to 8) (size 9 to 14) (size 15 to 20)
#    0.000    2.250    1.250    2.250    0.000    5.500 
#    0.000    0.000    0.000    0.000    0.000    0.875 
#    0.000    0.000    0.000    0.000    0.000    0.000 
#
# Total GULP energy -356789.520644 kJ/mol
# GULP energy per Si atom -5574.836260 kJ/mol
# Density = 1.554916 g / cm^3
# Si number density = 15.584636 Si / 1000 Ang^3
#
#
#
# Elastic Constant Matrix: (Units=GPa)
#
#
# Indices 1 2 3 4 5 6 
#
# 1 136.3174 62.0655 28.5849 0.0000 0.0000 0.0000
# 2 62.0655 103.1945 25.0116 0.0000 0.0000 0.0000
# 3 28.5849 25.0116 22.5027 0.0000 0.0000 0.0000
# 4 0.0000 0.0000 0.0000 19.2849 0.0000 0.0000
# 5 0.0000 0.0000 0.0000 0.0000 12.2143 0.0000
# 6 0.0000 0.0000 0.0000 0.0000 0.0000 5.9032
#
#
#
# Elastic Compliance Matrix: (Units=1/GPa)
#
#
# Indices 1 2 3 4 5 6 
#
# 1 0.011385 -0.004575 -0.009378 0.000000 0.000000 0.000000
# 2 -0.004575 0.015102 -0.010974 0.000000 0.000000 0.000000
# 3 -0.009378 -0.010974 0.068550 0.000000 0.000000 0.000000
# 4 0.000000 0.000000 0.000000 0.051854 0.000000 0.000000
# 5 0.000000 0.000000 0.000000 0.000000 0.081871 0.000000
# 6 0.000000 0.000000 0.000000 0.000000 0.000000 0.169399
#
#
# Mechanical properties :
#
#
# Convention : Reuss Voigt Hill
#
# Bulk Modulus (GPa) = 22.13231 54.81541 38.47386
# Shear Modulus (GPa) = 10.79737 17.23731 14.01734
#
# Velocity S-wave (km/s) = 2.63501 3.32933 3.00231
# Velocity P-wave (km/s) = 4.84663 7.07307 6.06293
#
# Compressibility (1/GPa) = 0.04518282
#
# Stress axis : x y z
#
# Youngs Moduli (GPa) = 87.83429 66.21782 14.58799
#
# Poissons Ratio (x) = 0.30292 0.13680
# Poissons Ratio (y) = 0.40180 0.16010
# Poissons Ratio (z) = 0.82369 0.72670
#
# Static dielectric constant tensor:
#      x y z
#    x 1.540840 0.000000 0.000000 
#    y 0.000000 1.490520 0.000000 
#    z 0.000000 0.000000 1.523770 
# 
# From -- ./inp_files/5981.got.cif
#   From: 2010.05.17/outbox.cif.g08.bks.cpg/sg57_3_cif.got.tgz:5981.got - 2010.06.03 13:58:18.
