data_PCOD9435213
_publ_section_title
;
Structure prediction by ZEFSAII (Michael W. Deem and Ramdas Pophale) SiO2 
 PCOD9435213
Probable space group: P B C M
;
_chemical_formula_sum "Si O2"
_cell_formula_units_Z 64
_cell_length_a 15.049358
_cell_length_b 27.913959
_cell_length_c 8.872920
_cell_angle_alpha 90.000000
_cell_angle_beta 90.000000
_cell_angle_gamma 90.000000
_cell_volume 3727.399783
_symmetry_space_group_name_H-M "P B C M"
_symmetry_group_IT_number 57
_symmetry_cell_setting 'orthorhombic'
loop_
_space_group_symop_operation_xyz
x,y,z
-x,-y,1/2+z
x,1/2-y,-z
-x,1/2+y,1/2-z
-x,-y,-z
x,y,1/2-z
-x,1/2+y,z
x,1/2-y,1/2+z
loop_
_atom_site_type_symbol
_atom_site_label
_atom_site_fract_x
_atom_site_fract_y
_atom_site_fract_z
Si Si1 0.531686 0.386220 0.430559
Si Si2 0.847915 0.919542 0.929623
Si Si3 0.659151 0.579745 0.569529
Si Si4 0.351650 0.697640 0.069668
Si Si5 0.853777 0.302411 0.930435
Si Si6 0.651346 0.032724 0.429366
Si Si7 0.840385 0.468694 0.430490
Si Si8 0.974930 0.115435 0.930142
O O1 0.537643 0.383772 0.250000
O O2 0.427938 0.390310 0.472481
O O3 0.582084 0.341466 0.502916
O O4 0.581096 0.434002 0.487285
O O5 0.852735 0.915031 0.750000
O O6 0.860359 0.976025 0.969103
O O7 0.749927 0.906247 0.987650
O O8 0.926370 0.889942 0.005895
O O9 0.672334 0.582864 0.750000
O O10 0.640168 0.523626 0.535181
O O11 0.359770 0.699716 0.250000
O O12 0.248955 0.684362 0.033462
O O13 0.367905 0.750000 0.000000
O O14 0.862301 0.300545 0.750000
O O15 0.869471 0.250000 0.000000
O O16 0.920824 0.340770 0.998957
O O17 0.643762 0.039335 0.250000
O O18 0.750433 0.045819 0.484342
O O19 0.824624 0.466308 0.250000
O O20 0.919982 0.432940 0.468283
O O21 0.976954 0.120062 0.750000
#
# Coordination Sequence:
#
# PCOD9435213 Si02
#       8
#     8   8   8   8   8   8   8   8
#     4  11  21  33  52  76 104 138 175 214 256 306
#     4  10  20  34  52  74 102 137 177 219 258 300
#     4   9  20  36  51  71 102 140 178 216 259 304
#     4  10  21  37  57  81 108 136 167 207 255 307
#     4  10  21  37  56  79 106 134 166 206 253 305
#     4  10  19  31  49  74 105 139 175 215 257 304
#     4   9  19  33  49  73 105 140 175 211 255 306
#     4  11  21  33  52  76 104 138 173 210 254 306
#
# _framework density 17.170145999999999
#
# number of rings (size 3 to 8) (size 9 to 14) (size 15 to 20)
#    0.000    2.000    0.000    3.750    0.000    6.500 
#    0.000    0.000    0.000    0.750    0.000    1.750 
#    0.000    0.000    0.000    0.000    0.000    0.000 
#
# Total GULP energy -357473.818925 kJ/mol
# GULP energy per Si atom -5585.528421 kJ/mol
# Density = 1.713107 g / cm^3
# Si number density = 17.170146 Si / 1000 Ang^3
#
#
#
# Elastic Constant Matrix: (Units=GPa)
#
#
# Indices 1 2 3 4 5 6 
#
# 1 158.8178 84.2972 68.5546 0.0000 0.0000 0.0000
# 2 84.2972 77.0177 45.8732 0.0000 0.0000 0.0000
# 3 68.5546 45.8732 57.5853 0.0000 0.0000 0.0000
# 4 0.0000 0.0000 0.0000 28.6917 0.0000 0.0000
# 5 0.0000 0.0000 0.0000 0.0000 29.0727 0.0000
# 6 0.0000 0.0000 0.0000 0.0000 0.0000 28.6713
#
#
#
# Elastic Compliance Matrix: (Units=1/GPa)
#
#
# Indices 1 2 3 4 5 6 
#
# 1 0.018040 -0.013231 -0.010936 0.000000 0.000000 0.000000
# 2 -0.013231 0.034411 -0.011661 0.000000 0.000000 0.000000
# 3 -0.010936 -0.011661 0.039674 0.000000 0.000000 0.000000
# 4 0.000000 0.000000 0.000000 0.034853 0.000000 0.000000
# 5 0.000000 0.000000 0.000000 0.000000 0.034397 0.000000
# 6 0.000000 0.000000 0.000000 0.000000 0.000000 0.034878
#
#
# Mechanical properties :
#
#
# Convention : Reuss Voigt Hill
#
# Bulk Modulus (GPa) = 48.85465 76.76340 62.80903
# Shear Modulus (GPa) = 18.19944 23.60019 20.89981
#
# Velocity S-wave (km/s) = 3.25921 3.71143 3.49265
# Velocity P-wave (km/s) = 6.53286 7.94801 7.27493
#
# Compressibility (1/GPa) = 0.02046888
#
# Stress axis : x y z
#
# Youngs Moduli (GPa) = 55.43157 29.06011 25.20530
#
# Poissons Ratio (x) = 0.38451 0.27565
# Poissons Ratio (y) = 0.73344 0.29391
# Poissons Ratio (z) = 0.60622 0.33886
#
# Static dielectric constant tensor:
#      x y z
#    x 1.567130 0.000000 0.000000 
#    y 0.000000 1.561620 0.000000 
#    z 0.000000 0.000000 1.569140 
# 
# From -- ./inp_files/5702.got.cif
#   From: 2010.05.17/outbox.cif.g08.bks.cpg/sg57_3_cif.got.tgz:5702.got - 2010.06.03 13:58:18.
