data_PCOD9435209
_publ_section_title
;
Structure prediction by ZEFSAII (Michael W. Deem and Ramdas Pophale) SiO2 
 PCOD9435209
Probable space group: P B C M
;
_chemical_formula_sum "Si O2"
_cell_formula_units_Z 64
_cell_length_a 27.256496
_cell_length_b 14.270435
_cell_length_c 7.602564
_cell_angle_alpha 90.000000
_cell_angle_beta 90.000000
_cell_angle_gamma 90.000000
_cell_volume 2957.108913
_symmetry_space_group_name_H-M "P B C M"
_symmetry_group_IT_number 57
_symmetry_cell_setting 'orthorhombic'
loop_
_space_group_symop_operation_xyz
x,y,z
-x,-y,1/2+z
x,1/2-y,-z
-x,1/2+y,1/2-z
-x,-y,-z
x,y,1/2-z
-x,1/2+y,z
x,1/2-y,1/2+z
loop_
_atom_site_type_symbol
_atom_site_label
_atom_site_fract_x
_atom_site_fract_y
_atom_site_fract_z
Si Si1 0.374669 0.640584 0.462011
Si Si2 0.518240 0.361512 0.960643
Si Si3 0.123318 0.453090 0.456162
Si Si4 0.222606 0.140158 0.962111
Si Si5 0.684449 0.526748 0.545708
Si Si6 0.974613 0.859162 0.460907
Si Si7 0.915709 0.358314 0.459149
Si Si8 0.587864 0.638998 0.460328
O O1 0.367915 0.750000 0.500000
O O2 0.376225 0.631195 0.250000
O O3 0.428521 0.608063 0.529577
O O4 0.332259 0.572900 0.531580
O O5 0.517927 0.373803 0.750000
O O6 0.465521 0.397197 0.027428
O O7 0.517572 0.250000 0.000000
O O8 0.122166 0.428269 0.250000
O O9 0.171693 0.403999 0.530007
O O10 0.071682 0.416141 0.532690
O O11 0.122042 0.565015 0.471654
O O12 0.222498 0.131641 0.750000
O O13 0.269742 0.083147 0.031163
O O14 0.226127 0.250000 0.000000
O O15 0.696746 0.510079 0.750000
O O16 0.635142 0.588773 0.537844
O O17 0.965901 0.750000 0.500000
O O18 0.976924 0.872009 0.250000
O O19 0.029251 0.880943 0.530415
O O20 0.905188 0.250000 0.500000
O O21 0.916777 0.367415 0.250000
O O22 0.590431 0.750000 0.500000
O O23 0.589412 0.627344 0.250000
#
# Coordination Sequence:
#
# PCOD9435209 Si02
#       8
#     8   8   8   8   8   8   8   8
#     4   9  18  34  54  74 100 132 167 209 256 305
#     4   8  15  28  46  70  99 130 163 202 250 303
#     4  10  20  35  54  77 106 140 178 220 264 308
#     4  10  22  39  58  79 105 136 171 213 258 303
#     4  10  21  36  53  75 103 136 172 212 259 305
#     4   9  18  31  50  78 110 142 176 216 262 311
#     4  10  20  34  53  79 110 143 177 214 258 309
#     4  10  19  31  49  74 103 134 169 208 253 308
#
# _framework density 21.642759000000002
#
# number of rings (size 3 to 8) (size 9 to 14) (size 15 to 20)
#    0.000    2.500    0.000    1.875    0.000    4.500 
#    0.000    0.625    0.000    1.500    0.000    0.000 
#    0.000    0.000    0.000    0.000    0.000    0.000 
#
# Total GULP energy -357238.483039 kJ/mol
# GULP energy per Si atom -5581.851297 kJ/mol
# Density = 2.159350 g / cm^3
# Si number density = 21.642759 Si / 1000 Ang^3
#
#
#
# Elastic Constant Matrix: (Units=GPa)
#
#
# Indices 1 2 3 4 5 6 
#
# 1 98.3680 84.0058 -3.2674 0.0000 0.0000 0.0000
# 2 84.0058 122.2732 -14.3561 0.0000 0.0000 0.0000
# 3 -3.2674 -14.3561 54.1638 0.0000 0.0000 0.0000
# 4 0.0000 0.0000 0.0000 22.8434 0.0000 0.0000
# 5 0.0000 0.0000 0.0000 0.0000 3.3743 0.0000
# 6 0.0000 0.0000 0.0000 0.0000 0.0000 40.0665
#
#
#
# Elastic Compliance Matrix: (Units=1/GPa)
#
#
# Indices 1 2 3 4 5 6 
#
# 1 0.025110 -0.017622 -0.003156 0.000000 0.000000 0.000000
# 2 -0.017622 0.020808 0.004452 0.000000 0.000000 0.000000
# 3 -0.003156 0.004452 0.019452 0.000000 0.000000 0.000000
# 4 0.000000 0.000000 0.000000 0.043776 0.000000 0.000000
# 5 0.000000 0.000000 0.000000 0.000000 0.296354 0.000000
# 6 0.000000 0.000000 0.000000 0.000000 0.000000 0.024958
#
#
# Mechanical properties :
#
#
# Convention : Reuss Voigt Hill
#
# Bulk Modulus (GPa) = 30.56361 45.28550 37.92455
# Shear Modulus (GPa) = 10.54812 27.15169 18.84991
#
# Velocity S-wave (km/s) = 2.21005 3.54579 2.95440
# Velocity P-wave (km/s) = 4.54587 6.14272 5.40361
#
# Compressibility (1/GPa) = 0.03271865
#
# Stress axis : x y z
#
# Youngs Moduli (GPa) = 39.82420 48.05799 51.40808
#
# Poissons Ratio (x) = 0.84689 0.16225
# Poissons Ratio (y) = 0.70179 -0.22888
# Poissons Ratio (z) = 0.12569 -0.21396
#
# Static dielectric constant tensor:
#      x y z
#    x 1.816150 0.000000 0.000000 
#    y 0.000000 1.786400 0.000000 
#    z 0.000000 0.000000 1.832200 
# 
# From -- ./inp_files/9428.got.cif
#   From: 2010.05.17/outbox.cif.g08.bks.cpg/sg57_5_cif.got.tgz:9428.got - 2010.06.03 13:58:18.
