data_PCOD9435883
_publ_section_title
;
Structure prediction by ZEFSAII (Michael W. Deem and Ramdas Pophale) SiO2 
 PCOD9435883
Probable space group: P B C M
;
_chemical_formula_sum "Si O2"
_cell_formula_units_Z 24
_cell_length_a 12.045104
_cell_length_b 16.599054
_cell_length_c 5.295292
_cell_angle_alpha 90.000000
_cell_angle_beta 90.000000
_cell_angle_gamma 90.000000
_cell_volume 1058.726553
_symmetry_space_group_name_H-M "P B C M"
_symmetry_group_IT_number 57
_symmetry_cell_setting 'orthorhombic'
loop_
_space_group_symop_operation_xyz
x,y,z
-x,-y,1/2+z
x,1/2-y,-z
-x,1/2+y,1/2-z
-x,-y,-z
x,y,1/2-z
-x,1/2+y,z
x,1/2-y,1/2+z
loop_
_atom_site_type_symbol
_atom_site_label
_atom_site_fract_x
_atom_site_fract_y
_atom_site_fract_z
Si Si1 0.821182 0.521667 0.750000
Si Si2 0.440787 0.292832 0.250000
Si Si3 0.709064 0.204844 0.750000
Si Si4 0.569132 0.979248 0.250000
Si Si5 0.922818 0.693437 0.750000
Si Si6 0.127659 0.930668 0.250000
O O1 0.694381 0.488793 0.750000
O O2 0.834996 0.618800 0.750000
O O3 0.876463 0.485201 0.499107
O O4 0.399303 0.250000 0.500000
O O5 0.575631 0.290420 0.250000
O O6 0.412845 0.384756 0.250000
O O7 0.749497 0.250000 0.500000
O O8 0.753967 0.115000 0.750000
O O9 0.500000 0.000000 0.500000
O O10 0.915500 0.750000 0.500000
O O11 0.037483 0.641230 0.750000
#
# Coordination Sequence:
#
# PCOD9435883 Si02
#       6
#     4   4   4   4   4   4
#     4  12  26  43  69  98 134 176 222 277 331 394
#     4  10  21  36  57  84 120 163 212 264 319 378
#     4  10  19  33  56  88 122 163 211 265 320 374
#     4  12  25  43  66  96 133 179 228 276 329 390
#     4  12  26  46  71 102 135 174 219 269 333 408
#     4  12  23  43  67  98 134 173 218 275 336 396
#
# _framework density 22.668742999999999
#
# number of rings (size 3 to 8) (size 9 to 14) (size 15 to 20)
#    0.000    0.667    0.000    9.000    0.000    4.000 
#    0.000    0.000    0.000    0.000    0.000    0.000 
#    0.000    0.000    0.000    0.000    0.000    0.000 
#
# Total GULP energy -134324.024932 kJ/mol
# GULP energy per Si atom -5596.834372 kJ/mol
# Density = 2.261715 g / cm^3
# Si number density = 22.668743 Si / 1000 Ang^3
#
#
#
# Elastic Constant Matrix: (Units=GPa)
#
#
# Indices 1 2 3 4 5 6 
#
# 1 95.9990 17.7544 62.8502 0.0000 0.0000 0.0000
# 2 17.7544 140.5154 95.4122 0.0000 0.0000 0.0000
# 3 62.8502 95.4122 245.1951 0.0000 0.0000 0.0000
# 4 0.0000 0.0000 0.0000 49.5511 0.0000 0.0000
# 5 0.0000 0.0000 0.0000 0.0000 7.2017 0.0000
# 6 0.0000 0.0000 0.0000 0.0000 0.0000 43.5532
#
#
#
# Elastic Compliance Matrix: (Units=1/GPa)
#
#
# Indices 1 2 3 4 5 6 
#
# 1 0.012586 0.000816 -0.003544 0.000000 0.000000 0.000000
# 2 0.000816 0.009725 -0.003993 0.000000 0.000000 0.000000
# 3 -0.003544 -0.003993 0.006541 0.000000 0.000000 0.000000
# 4 0.000000 0.000000 0.000000 0.020181 0.000000 0.000000
# 5 0.000000 0.000000 0.000000 0.000000 0.138856 0.000000
# 6 0.000000 0.000000 0.000000 0.000000 0.000000 0.022960
#
#
# Mechanical properties :
#
#
# Convention : Reuss Voigt Hill
#
# Bulk Modulus (GPa) = 64.89544 92.63813 78.76678
# Shear Modulus (GPa) = 21.79327 40.44071 31.11699
#
# Velocity S-wave (km/s) = 3.10398 4.22831 3.70899
# Velocity P-wave (km/s) = 6.44485 8.04940 7.29140
#
# Compressibility (1/GPa) = 0.01540940
#
# Stress axis : x y z
#
# Youngs Moduli (GPa) = 79.45428 102.82550 152.88929
#
# Poissons Ratio (x) = -0.08390 0.54178
# Poissons Ratio (y) = -0.06483 0.61056
# Poissons Ratio (z) = 0.28155 0.41063
#
# Static dielectric constant tensor:
#      x y z
#    x 2.006390 0.000000 0.000000 
#    y 0.000000 1.856890 0.000000 
#    z 0.000000 0.000000 1.634440 
# 
# From -- ./inp_files/293.got.cif
#   From: 2010.05.17/outbox.cif.g08.bks.cpg/sg57_1_cif.got.tgz:293.got - 2010.06.03 13:58:18.
