data_PCOD9435056
_publ_section_title
;
Structure prediction by ZEFSAII (Michael W. Deem and Ramdas Pophale) SiO2 
 PCOD9435056
Probable space group: P B C M
;
_chemical_formula_sum "Si O2"
_cell_formula_units_Z 48
_cell_length_a 28.033452
_cell_length_b 5.205053
_cell_length_c 14.514711
_cell_angle_alpha 90.000000
_cell_angle_beta 90.000000
_cell_angle_gamma 90.000000
_cell_volume 2117.922814
_symmetry_space_group_name_H-M "P B C M"
_symmetry_group_IT_number 57
_symmetry_cell_setting 'orthorhombic'
loop_
_space_group_symop_operation_xyz
x,y,z
-x,-y,1/2+z
x,1/2-y,-z
-x,1/2+y,1/2-z
-x,-y,-z
x,y,1/2-z
-x,1/2+y,z
x,1/2-y,1/2+z
loop_
_atom_site_type_symbol
_atom_site_label
_atom_site_fract_x
_atom_site_fract_y
_atom_site_fract_z
Si Si1 0.371554 0.703087 0.607010
Si Si2 0.327112 0.200477 0.610996
Si Si3 0.024236 0.594758 0.140647
Si Si4 0.474489 0.462020 0.638681
Si Si5 0.874390 0.000542 0.435642
Si Si6 0.229897 0.000681 0.934639
O O1 0.359965 0.750000 0.500000
O O2 0.336308 0.486350 0.647075
O O3 0.423423 0.577301 0.613026
O O4 0.365533 0.990906 0.644768
O O5 0.331213 0.250000 0.500000
O O6 0.276090 0.065341 0.626026
O O7 0.016114 0.614289 0.250000
O O8 0.078601 0.513796 0.125427
O O9 0.989456 0.373821 0.102401
O O10 0.476014 0.454042 0.750000
O O11 0.486953 0.175112 0.606514
O O12 0.876953 0.750000 0.500000
O O13 0.822179 0.014570 0.388205
O O14 0.875761 0.250000 0.500000
O O15 0.226504 0.250000 0.000000
O O16 0.237450 0.750000 0.000000
#
# Coordination Sequence:
#
# PCOD9435056 Si02
#       6
#     8   8   8   8   8   8
#     4  10  19  30  49  74  95 119 155 195 232 270
#     4   9  16  28  46  71  99 124 151 188 234 283
#     4  10  21  36  52  71 100 138 172 205 255 311
#     4  10  21  36  51  67  92 127 159 189 234 287
#     4  10  20  32  51  78 102 129 169 214 252 289
#     4   9  16  28  46  71 101 128 156 193 239 289
#
# _framework density 22.663716000000001
#
# number of rings (size 3 to 8) (size 9 to 14) (size 15 to 20)
#    0.000    2.333    0.000    4.500    0.000    2.667 
#    0.000    0.000    0.000    2.000    0.000    0.000 
#    0.000    5.333    0.000    0.000    0.000    0.000 
#
# Total GULP energy -267817.456134 kJ/mol
# GULP energy per Si atom -5579.530336 kJ/mol
# Density = 2.261213 g / cm^3
# Si number density = 22.663716 Si / 1000 Ang^3
#
#
#
# Elastic Constant Matrix: (Units=GPa)
#
#
# Indices 1 2 3 4 5 6 
#
# 1 100.7601 11.3330 -23.2541 0.0000 0.0000 0.0000
# 2 11.3330 125.5950 1.3436 0.0000 0.0000 0.0000
# 3 -23.2541 1.3436 45.5364 0.0000 0.0000 0.0000
# 4 0.0000 0.0000 0.0000 -0.1207 0.0000 0.0000
# 5 0.0000 0.0000 0.0000 0.0000 6.3340 0.0000
# 6 0.0000 0.0000 0.0000 0.0000 0.0000 38.0772
#
#
#
# Elastic Compliance Matrix: (Units=1/GPa)
#
#
# Indices 1 2 3 4 5 6 
#
# 1 0.011398 -0.001091 0.005853 0.000000 0.000000 0.000000
# 2 -0.001091 0.008069 -0.000795 0.000000 0.000000 0.000000
# 3 0.005853 -0.000795 0.024973 0.000000 0.000000 0.000000
# 4 0.000000 0.000000 0.000000 -8.284685 0.000000 0.000000
# 5 0.000000 0.000000 0.000000 0.000000 0.157878 0.000000
# 6 0.000000 0.000000 0.000000 0.000000 0.000000 0.026262
#
#
# Mechanical properties :
#
#
# Convention : Reuss Voigt Hill
#
# Bulk Modulus (GPa) = 19.09385 27.85959 23.47672
# Shear Modulus (GPa) = -0.62138 27.68936 13.53399
#
# Velocity S-wave (km/s) = -0.52419 3.49914 2.44635
# Velocity P-wave (km/s) = 2.84197 5.35207 4.28494
#
# Compressibility (1/GPa) = 0.05237288
#
# Stress axis : x y z
#
# Youngs Moduli (GPa) = 87.73430 123.93016 40.04353
#
# Poissons Ratio (x) = 0.13522 -0.23437
# Poissons Ratio (y) = 0.09573 0.03185
# Poissons Ratio (z) = -0.51350 0.09856
#
# Static dielectric constant tensor:
#      x y z
#    x 1.900710 0.000000 0.000000 
#    y 0.000000 1.878020 0.000000 
#    z 0.000000 0.000000 1.889600 
# 
# From -- ./inp_files/19570.got.cif
#   From: 2010.05.17/outbox.cif.g08.bks.cpg/sg57_10_cif.got.tgz:19570.got - 2010.06.03 13:58:18.
