data_PCOD9435316
_publ_section_title
;
Structure prediction by ZEFSAII (Michael W. Deem and Ramdas Pophale) SiO2 
 PCOD9435316
Probable space group: P B C M
;
_chemical_formula_sum "Si O2"
_cell_formula_units_Z 64
_cell_length_a 5.576480
_cell_length_b 21.467665
_cell_length_c 29.253064
_cell_angle_alpha 90.000000
_cell_angle_beta 90.000000
_cell_angle_gamma 90.000000
_cell_volume 3502.001436
_symmetry_space_group_name_H-M "P B C M"
_symmetry_group_IT_number 57
_symmetry_cell_setting 'orthorhombic'
loop_
_space_group_symop_operation_xyz
x,y,z
-x,-y,1/2+z
x,1/2-y,-z
-x,1/2+y,1/2-z
-x,-y,-z
x,y,1/2-z
-x,1/2+y,z
x,1/2-y,1/2+z
loop_
_atom_site_type_symbol
_atom_site_label
_atom_site_fract_x
_atom_site_fract_y
_atom_site_fract_z
Si Si1 0.517488 0.280988 0.544172
Si Si2 0.908431 0.148537 0.985115
Si Si3 0.503223 0.306731 0.695559
Si Si4 0.525447 0.310701 0.131534
Si Si5 0.020850 0.184561 0.613828
Si Si6 0.793358 0.607317 0.068696
Si Si7 0.253039 0.985490 0.026397
Si Si8 0.997523 0.828014 0.650157
O O1 0.383517 0.250000 0.500000
O O2 0.747062 0.309320 0.518122
O O3 0.542182 0.229289 0.583753
O O4 0.412298 0.340435 0.571370
O O5 0.758352 0.088755 0.966988
O O6 0.009049 0.182034 0.940742
O O7 0.113023 0.122404 0.017870
O O8 0.507030 0.304708 0.750000
O O9 0.508930 0.237864 0.673075
O O10 0.249962 0.335829 0.678635
O O11 0.753042 0.335835 0.676966
O O12 0.271956 0.344816 0.128955
O O13 0.778226 0.345329 0.133444
O O14 0.014374 0.256718 0.630611
O O15 0.738389 0.534248 0.068336
O O16 0.982231 0.626034 0.107146
O O17 0.500000 0.000000 0.000000
O O18 0.000000 0.000000 0.000000
#
# Coordination Sequence:
#
# PCOD9435316 Si02
#       8
#     8   8   8   8   8   8   8   8
#     4  12  20  28  49  74 101 140 171 207 254 288
#     4  11  22  31  49  68 101 139 184 207 241 294
#     4  10  19  34  51  73 103 132 158 199 263 329
#     4  10  20  32  44  74 100 130 158 203 250 300
#     4  10  19  32  45  69 100 125 163 206 242 285
#     4  11  22  33  48  67 106 135 179 212 251 298
#     4  10  22  37  47  65  94 142 179 211 241 285
#     4  10  21  32  51  74 102 128 161 211 261 305
#
# _framework density 18.275265000000001
#
# number of rings (size 3 to 8) (size 9 to 14) (size 15 to 20)
#    0.000    1.500    5.000    2.625    0.000    0.000 
#    0.000    0.000    0.000    0.000    0.000    0.000 
#    0.000   24.000    0.000    0.000    0.000    0.000 
#
# Total GULP energy -356339.090092 kJ/mol
# GULP energy per Si atom -5567.798283 kJ/mol
# Density = 1.823367 g / cm^3
# Si number density = 18.275265 Si / 1000 Ang^3
#
#
#
# Elastic Constant Matrix: (Units=GPa)
#
#
# Indices 1 2 3 4 5 6 
#
# 1 142.3719 11.5737 24.8995 0.0000 0.0000 0.0000
# 2 11.5737 40.0193 18.0473 0.0000 0.0000 0.0000
# 3 24.8995 18.0473 81.2046 0.0000 0.0000 0.0000
# 4 0.0000 0.0000 0.0000 10.5849 0.0000 0.0000
# 5 0.0000 0.0000 0.0000 0.0000 22.6738 0.0000
# 6 0.0000 0.0000 0.0000 0.0000 0.0000 12.1990
#
#
#
# Elastic Compliance Matrix: (Units=1/GPa)
#
#
# Indices 1 2 3 4 5 6 
#
# 1 0.007478 -0.001254 -0.002014 0.000000 0.000000 0.000000
# 2 -0.001254 0.027982 -0.005834 0.000000 0.000000 0.000000
# 3 -0.002014 -0.005834 0.014229 0.000000 0.000000 0.000000
# 4 0.000000 0.000000 0.000000 0.094475 0.000000 0.000000
# 5 0.000000 0.000000 0.000000 0.000000 0.044104 0.000000
# 6 0.000000 0.000000 0.000000 0.000000 0.000000 0.081974
#
#
# Mechanical properties :
#
#
# Convention : Reuss Voigt Hill
#
# Bulk Modulus (GPa) = 31.76302 41.40409 36.58356
# Shear Modulus (GPa) = 16.72573 23.02988 19.87781
#
# Velocity S-wave (km/s) = 3.02853 3.55373 3.30159
# Velocity P-wave (km/s) = 5.44494 6.28838 5.88180
#
# Compressibility (1/GPa) = 0.03148315
#
# Stress axis : x y z
#
# Youngs Moduli (GPa) = 133.72393 35.73762 70.27999
#
# Poissons Ratio (x) = 0.04483 0.14156
# Poissons Ratio (y) = 0.16774 0.41002
# Poissons Ratio (z) = 0.26935 0.20850
#
# Static dielectric constant tensor:
#      x y z
#    x 1.799590 0.000000 0.000000 
#    y 0.000000 1.705830 0.000000 
#    z 0.000000 0.000000 1.618500 
# 
# From -- ./inp_files/28166.got.cif
#   From: 2010.05.17/outbox.cif.g08.bks.cpg/sg57_15_cif.got.tgz:28166.got - 2010.06.03 13:58:18.
