data_PCOD9435045
_publ_section_title
;
Structure prediction by ZEFSAII (Michael W. Deem and Ramdas Pophale) SiO2 
 PCOD9435045
Probable space group: P B C M
;
_chemical_formula_sum "Si O2"
_cell_formula_units_Z 64
_cell_length_a 15.333722
_cell_length_b 30.586696
_cell_length_c 8.689452
_cell_angle_alpha 90.000000
_cell_angle_beta 90.000000
_cell_angle_gamma 90.000000
_cell_volume 4075.421577
_symmetry_space_group_name_H-M "P B C M"
_symmetry_group_IT_number 57
_symmetry_cell_setting 'orthorhombic'
loop_
_space_group_symop_operation_xyz
x,y,z
-x,-y,1/2+z
x,1/2-y,-z
-x,1/2+y,1/2-z
-x,-y,-z
x,y,1/2-z
-x,1/2+y,z
x,1/2-y,1/2+z
loop_
_atom_site_type_symbol
_atom_site_label
_atom_site_fract_x
_atom_site_fract_y
_atom_site_fract_z
Si Si1 0.790501 0.881602 0.065139
Si Si2 0.496699 0.296369 0.935198
Si Si3 0.539005 0.393150 0.564774
Si Si4 0.127174 0.528342 0.935645
Si Si5 0.326833 0.961743 0.064824
Si Si6 0.052846 0.062326 0.935668
Si Si7 0.371375 0.444102 0.065352
Si Si8 0.706332 0.704226 0.433365
O O1 0.789996 0.876937 0.250000
O O2 0.885534 0.898087 0.014159
O O3 0.718299 0.918588 0.027252
O O4 0.760522 0.836686 0.991501
O O5 0.499201 0.293868 0.750000
O O6 0.541462 0.341972 0.982053
O O7 0.394964 0.300729 0.983779
O O8 0.529644 0.250000 0.000000
O O9 0.536117 0.394861 0.750000
O O10 0.619022 0.421508 0.502542
O O11 0.451470 0.416060 0.500520
O O12 0.127477 0.525378 0.750000
O O13 0.225124 0.539724 0.983719
O O14 0.048745 0.561144 0.981404
O O15 0.097659 0.481760 0.002308
O O16 0.331648 0.961194 0.250000
O O17 0.366860 0.007433 0.004686
O O18 0.056085 0.060789 0.750000
O O19 0.379211 0.447063 0.250000
O O20 0.738854 0.750000 0.500000
O O21 0.706952 0.705696 0.250000
#
# Coordination Sequence:
#
# PCOD9435045 Si02
#       8
#     8   8   8   8   8   8   8   8
#     4  10  19  30  48  72  98 128 162 195 239 289
#     4   9  19  33  50  70  92 120 154 195 239 283
#     4  11  22  36  50  69  96 130 166 201 242 286
#     4   9  18  31  48  69  95 124 159 201 240 280
#     4  11  22  34  48  69  97 132 169 205 243 283
#     4   9  17  31  49  70  95 124 158 196 239 285
#     4  11  21  33  48  69  97 133 168 201 236 280
#     4  10  19  32  49  70  97 126 159 196 239 287
#
# _framework density 15.703896
#
# number of rings (size 3 to 8) (size 9 to 14) (size 15 to 20)
#    0.000    2.000    2.500    1.875    0.000    3.000 
#    0.000    0.000    0.000    0.000    0.000    0.875 
#    0.000    2.000    0.000    0.000    0.000    0.000 
#
# Total GULP energy -356976.544118 kJ/mol
# GULP energy per Si atom -5577.758502 kJ/mol
# Density = 1.566815 g / cm^3
# Si number density = 15.703896 Si / 1000 Ang^3
#
#
#
# Elastic Constant Matrix: (Units=GPa)
#
#
# Indices 1 2 3 4 5 6 
#
# 1 78.5642 55.4568 23.4924 0.0000 0.0000 0.0000
# 2 55.4568 143.9285 33.7804 0.0000 0.0000 0.0000
# 3 23.4924 33.7804 23.9416 0.0000 0.0000 0.0000
# 4 0.0000 0.0000 0.0000 27.3660 0.0000 0.0000
# 5 0.0000 0.0000 0.0000 0.0000 14.3172 0.0000
# 6 0.0000 0.0000 0.0000 0.0000 0.0000 20.2937
#
#
#
# Elastic Compliance Matrix: (Units=1/GPa)
#
#
# Indices 1 2 3 4 5 6 
#
# 1 0.019864 -0.004604 -0.012996 0.000000 0.000000 0.000000
# 2 -0.004604 0.011455 -0.011645 0.000000 0.000000 0.000000
# 3 -0.012996 -0.011645 0.070951 0.000000 0.000000 0.000000
# 4 0.000000 0.000000 0.000000 0.036542 0.000000 0.000000
# 5 0.000000 0.000000 0.000000 0.000000 0.069846 0.000000
# 6 0.000000 0.000000 0.000000 0.000000 0.000000 0.049276
#
#
# Mechanical properties :
#
#
# Convention : Reuss Voigt Hill
#
# Bulk Modulus (GPa) = 22.84103 52.43261 37.63682
# Shear Modulus (GPa) = 15.10498 21.30903 18.20700
#
# Velocity S-wave (km/s) = 3.10475 3.68764 3.40868
# Velocity P-wave (km/s) = 5.23728 7.18278 6.28576
#
# Compressibility (1/GPa) = 0.04378087
#
# Stress axis : x y z
#
# Youngs Moduli (GPa) = 50.34201 87.29956 14.09423
#
# Poissons Ratio (x) = 0.40189 0.18317
# Poissons Ratio (y) = 0.23176 0.16413
# Poissons Ratio (z) = 0.65424 1.01660
#
# Static dielectric constant tensor:
#      x y z
#    x 1.533220 0.000000 0.000000 
#    y 0.000000 1.508270 0.000000 
#    z 0.000000 0.000000 1.540870 
# 
# From -- ./inp_files/6019.got.cif
#   From: 2010.05.17/outbox.cif.g08.bks.cpg/sg57_4_cif.got.tgz:6019.got - 2010.06.03 13:58:18.
