data_PCOD9435899
_publ_section_title
;
Structure prediction by ZEFSAII (Michael W. Deem and Ramdas Pophale) SiO2 
 PCOD9435899
Probable space group: P B C M
;
_chemical_formula_sum "Si O2"
_cell_formula_units_Z 48
_cell_length_a 9.780386
_cell_length_b 14.756445
_cell_length_c 19.470443
_cell_angle_alpha 90.000000
_cell_angle_beta 90.000000
_cell_angle_gamma 90.000000
_cell_volume 2810.046921
_symmetry_space_group_name_H-M "P B C M"
_symmetry_group_IT_number 57
_symmetry_cell_setting 'orthorhombic'
loop_
_space_group_symop_operation_xyz
x,y,z
-x,-y,1/2+z
x,1/2-y,-z
-x,1/2+y,1/2-z
-x,-y,-z
x,y,1/2-z
-x,1/2+y,z
x,1/2-y,1/2+z
loop_
_atom_site_type_symbol
_atom_site_label
_atom_site_fract_x
_atom_site_fract_y
_atom_site_fract_z
Si Si1 0.036615 0.060327 0.897823
Si Si2 0.110661 0.623483 0.171309
Si Si3 0.222461 0.495368 0.525817
Si Si4 0.363418 0.188790 0.432529
Si Si5 0.140328 0.242963 0.830433
Si Si6 0.319243 0.669606 0.052088
O O1 0.068000 0.156499 0.864769
O O2 0.880227 0.041141 0.919329
O O3 0.085947 0.981173 0.847022
O O4 0.125317 0.048587 0.967268
O O5 0.155633 0.635160 0.250000
O O6 0.216997 0.662272 0.116067
O O7 0.966657 0.674674 0.162501
O O8 0.311118 0.413688 0.555819
O O9 0.308327 0.575012 0.489606
O O10 0.334783 0.250000 0.500000
O O11 0.278096 0.232227 0.370619
O O12 0.526362 0.187205 0.423629
O O13 0.164873 0.226732 0.750000
O O14 0.278822 0.750000 0.000000
#
# Coordination Sequence:
#
# PCOD9435899 Si02
#       6
#     8   8   8   8   8   8
#     4  10  19  33  58  86 111 141 187 235 276 340
#     4  10  21  37  56  80 113 151 187 229 282 341
#     4  10  19  34  58  86 111 145 182 232 286 330
#     4  11  21  37  57  83 114 144 189 234 280 338
#     4  11  22  36  57  82 112 150 188 235 285 333
#     4  10  22  36  57  84 113 149 186 234 284 338
#
# _framework density 17.081565000000001
#
# number of rings (size 3 to 8) (size 9 to 14) (size 15 to 20)
#    0.000    1.667    3.333    2.000    0.000    1.333 
#    0.000    0.000    0.000    0.000    0.000    0.000 
#    0.000    0.000    0.000    0.000    0.000    0.000 
#
# Total GULP energy -267935.669695 kJ/mol
# GULP energy per Si atom -5581.993119 kJ/mol
# Density = 1.704269 g / cm^3
# Si number density = 17.081565 Si / 1000 Ang^3
#
#
#
# Elastic Constant Matrix: (Units=GPa)
#
#
# Indices 1 2 3 4 5 6 
#
# 1 69.2798 10.9693 44.2237 0.0000 0.0000 0.0000
# 2 10.9693 44.2590 14.7780 0.0000 0.0000 0.0000
# 3 44.2237 14.7780 86.5662 0.0000 0.0000 0.0000
# 4 0.0000 0.0000 0.0000 22.0699 0.0000 0.0000
# 5 0.0000 0.0000 0.0000 0.0000 19.4697 0.0000
# 6 0.0000 0.0000 0.0000 0.0000 0.0000 27.2953
#
#
#
# Elastic Compliance Matrix: (Units=1/GPa)
#
#
# Indices 1 2 3 4 5 6 
#
# 1 0.021548 -0.001766 -0.010707 0.000000 0.000000 0.000000
# 2 -0.001766 0.024105 -0.003213 0.000000 0.000000 0.000000
# 3 -0.010707 -0.003213 0.017570 0.000000 0.000000 0.000000
# 4 0.000000 0.000000 0.000000 0.045311 0.000000 0.000000
# 5 0.000000 0.000000 0.000000 0.000000 0.051362 0.000000
# 6 0.000000 0.000000 0.000000 0.000000 0.000000 0.036636
#
#
# Mechanical properties :
#
#
# Convention : Reuss Voigt Hill
#
# Bulk Modulus (GPa) = 31.39507 37.78302 34.58905
# Shear Modulus (GPa) = 20.96257 22.44258 21.70257
#
# Velocity S-wave (km/s) = 3.50695 3.62864 3.56831
# Velocity P-wave (km/s) = 5.90065 6.30263 6.10495
#
# Compressibility (1/GPa) = 0.03185214
#
# Stress axis : x y z
#
# Youngs Moduli (GPa) = 46.40723 41.48571 56.91471
#
# Poissons Ratio (x) = 0.07325 0.60938
# Poissons Ratio (y) = 0.08194 0.18287
# Poissons Ratio (z) = 0.49688 0.13329
#
# Static dielectric constant tensor:
#      x y z
#    x 1.557190 0.000000 0.000000 
#    y 0.000000 1.563900 0.000000 
#    z 0.000000 0.000000 1.565700 
# 
# From -- ./inp_files/20895.got.cif
#   From: 2010.05.17/outbox.cif.g08.bks.cpg/sg57_11_cif.got.tgz:20895.got - 2010.06.03 13:58:18.
