data_PCOD9436016
_publ_section_title
;
Structure prediction by ZEFSAII (Michael W. Deem and Ramdas Pophale) SiO2 
 PCOD9436016
Probable space group: P B C M
;
_chemical_formula_sum "Si O2"
_cell_formula_units_Z 64
_cell_length_a 20.869114
_cell_length_b 19.827916
_cell_length_c 8.849407
_cell_angle_alpha 90.000000
_cell_angle_beta 90.000000
_cell_angle_gamma 90.000000
_cell_volume 3661.805320
_symmetry_space_group_name_H-M "P B C M"
_symmetry_group_IT_number 57
_symmetry_cell_setting 'orthorhombic'
loop_
_space_group_symop_operation_xyz
x,y,z
-x,-y,1/2+z
x,1/2-y,-z
-x,1/2+y,1/2-z
-x,-y,-z
x,y,1/2-z
-x,1/2+y,z
x,1/2-y,1/2+z
loop_
_atom_site_type_symbol
_atom_site_label
_atom_site_fract_x
_atom_site_fract_y
_atom_site_fract_z
Si Si1 0.193736 0.462838 0.067474
Si Si2 0.755197 0.679475 0.930718
Si Si3 0.061849 0.535796 0.067674
Si Si4 0.883692 0.322247 0.568289
Si Si5 0.440309 0.460081 0.931388
Si Si6 0.266742 0.822244 0.930788
Si Si7 0.312350 0.543993 0.930408
Si Si8 0.395202 0.322300 0.431618
O O1 0.200247 0.467860 0.250000
O O2 0.203511 0.385040 0.023147
O O3 0.125476 0.493802 0.026025
O O4 0.250994 0.504573 0.993870
O O5 0.757303 0.684743 0.750000
O O6 0.680371 0.668292 0.972508
O O7 0.776511 0.750000 0.000000
O O8 0.057202 0.535778 0.250000
O O9 0.074592 0.613332 0.019174
O O10 0.000000 0.500000 0.000000
O O11 0.902243 0.250000 0.500000
O O12 0.886899 0.317932 0.750000
O O13 0.808578 0.334908 0.529480
O O14 0.445444 0.455857 0.750000
O O15 0.375920 0.502066 0.969333
O O16 0.500000 0.500000 0.000000
O O17 0.432981 0.385473 0.000538
O O18 0.271238 0.820825 0.750000
O O19 0.283848 0.750000 0.000000
O O20 0.309162 0.882065 0.997332
O O21 0.308459 0.549333 0.750000
O O22 0.414759 0.250000 0.500000
O O23 0.400354 0.321193 0.250000
#
# Coordination Sequence:
#
# PCOD9436016 Si02
#       8
#     8   8   8   8   8   8   8   8
#     4  10  19  36  57  79 109 147 185 227 281 335
#     4   9  18  31  53  81 110 144 182 226 280 332
#     4  10  21  37  55  79 112 148 188 230 278 332
#     4   9  18  33  54  79 107 141 182 226 272 329
#     4  11  24  40  58  84 117 152 193 236 281 338
#     4  10  19  34  56  83 115 147 183 230 280 334
#     4  11  22  35  56  86 114 142 183 232 279 331
#     4  10  19  34  58  85 114 148 187 231 282 339
#
# _framework density 17.477716999999998
#
# number of rings (size 3 to 8) (size 9 to 14) (size 15 to 20)
#    0.000    2.000    2.500    1.500    0.000    4.000 
#    0.000    1.250    0.000    6.000    0.000    0.000 
#    0.000    0.000    0.000    0.000    0.000    0.000 
#
# Total GULP energy -357236.667281 kJ/mol
# GULP energy per Si atom -5581.822926 kJ/mol
# Density = 1.743794 g / cm^3
# Si number density = 17.477717 Si / 1000 Ang^3
#
#
#
# Elastic Constant Matrix: (Units=GPa)
#
#
# Indices 1 2 3 4 5 6 
#
# 1 101.8173 79.6505 44.2462 0.0000 0.0000 0.0000
# 2 79.6505 193.7734 55.6320 0.0000 0.0000 0.0000
# 3 44.2462 55.6320 36.3791 0.0000 0.0000 0.0000
# 4 0.0000 0.0000 0.0000 36.4178 0.0000 0.0000
# 5 0.0000 0.0000 0.0000 0.0000 23.0308 0.0000
# 6 0.0000 0.0000 0.0000 0.0000 0.0000 28.6784
#
#
#
# Elastic Compliance Matrix: (Units=1/GPa)
#
#
# Indices 1 2 3 4 5 6 
#
# 1 0.021422 -0.002363 -0.022442 0.000000 0.000000 0.000000
# 2 -0.002363 0.009460 -0.011593 0.000000 0.000000 0.000000
# 3 -0.022442 -0.011593 0.072513 0.000000 0.000000 0.000000
# 4 0.000000 0.000000 0.000000 0.027459 0.000000 0.000000
# 5 0.000000 0.000000 0.000000 0.000000 0.043420 0.000000
# 6 0.000000 0.000000 0.000000 0.000000 0.000000 0.034869
#
#
# Mechanical properties :
#
#
# Convention : Reuss Voigt Hill
#
# Bulk Modulus (GPa) = 32.68076 76.78081 54.73079
# Shear Modulus (GPa) = 17.11513 27.78815 22.45164
#
# Velocity S-wave (km/s) = 3.13270 3.99170 3.58800
# Velocity P-wave (km/s) = 5.64129 8.07905 6.96761
#
# Compressibility (1/GPa) = 0.03059904
#
# Stress axis : x y z
#
# Youngs Moduli (GPa) = 46.68054 105.70565 13.79072
#
# Poissons Ratio (x) = 0.24973 0.30949
# Poissons Ratio (y) = 0.11028 0.15988
# Poissons Ratio (z) = 1.04761 1.22549
#
# Static dielectric constant tensor:
#      x y z
#    x 1.570020 0.000000 0.000000 
#    y 0.000000 1.599370 0.000000 
#    z 0.000000 0.000000 1.582540 
# 
# From -- ./inp_files/7188.got.cif
#   From: 2010.05.17/outbox.cif.g08.bks.cpg/sg57_4_cif.got.tgz:7188.got - 2010.06.03 13:58:18.
