data_PCOD9436159
_publ_section_title
;
Structure prediction by ZEFSAII (Michael W. Deem and Ramdas Pophale) SiO2 
 PCOD9436159
Probable space group: P B C M
;
_chemical_formula_sum "Si O2"
_cell_formula_units_Z 44
_cell_length_a 6.985728
_cell_length_b 13.355128
_cell_length_c 20.421799
_cell_angle_alpha 90.000000
_cell_angle_beta 90.000000
_cell_angle_gamma 90.000000
_cell_volume 1905.257693
_symmetry_space_group_name_H-M "P B C M"
_symmetry_group_IT_number 57
_symmetry_cell_setting 'orthorhombic'
loop_
_space_group_symop_operation_xyz
x,y,z
-x,-y,1/2+z
x,1/2-y,-z
-x,1/2+y,1/2-z
-x,-y,-z
x,y,1/2-z
-x,1/2+y,z
x,1/2-y,1/2+z
loop_
_atom_site_type_symbol
_atom_site_label
_atom_site_fract_x
_atom_site_fract_y
_atom_site_fract_z
Si Si1 0.657691 0.116926 0.893401
Si Si2 0.338850 0.131610 0.500830
Si Si3 0.665979 0.392681 0.250000
Si Si4 0.310244 0.664216 0.250000
Si Si5 0.363214 0.852275 0.891183
Si Si6 0.930600 0.971755 0.250000
Si Si7 0.075554 0.467795 0.101490
O O1 0.847754 0.050734 0.900876
O O2 0.501455 0.098784 0.947692
O O3 0.570394 0.100252 0.820680
O O4 0.698865 0.236487 0.902350
O O5 0.304002 0.250000 0.500000
O O6 0.452174 0.117166 0.432986
O O7 0.154805 0.084712 0.535718
O O8 0.753393 0.279538 0.250000
O O9 0.841534 0.467572 0.250000
O O10 0.424271 0.643914 0.184372
O O11 0.139138 0.585703 0.250000
O O12 0.179857 0.924021 0.901167
O O13 0.874851 0.929620 0.322957
#
# Coordination Sequence:
#
# PCOD9436159 Si02
#       7
#     8   8   4   4   8   4   8
#     4   9  19  34  52  78 107 136 175 216 256 309
#     4  10  21  34  50  77 107 138 177 214 257 312
#     4   8  14  29  51  71 101 140 168 206 261 303
#     4   8  14  28  52  74 102 138 168 214 262 302
#     4   9  18  34  54  79 107 138 177 215 262 316
#     4   8  16  29  51  81 101 130 178 210 251 311
#     4  10  19  35  57  78 107 141 172 216 262 306
#
# _framework density 23.093988
#
# number of rings (size 3 to 8) (size 9 to 14) (size 15 to 20)
#    0.000    2.909    0.000    0.545    0.000    3.636 
#    0.000    4.545    0.000    0.000    0.000   24.182 
#    0.000    0.000    0.000    0.000    0.000    0.000 
#
# Total GULP energy -245033.211992 kJ/mol
# GULP energy per Si atom -5568.936636 kJ/mol
# Density = 2.304143 g / cm^3
# Si number density = 23.093988 Si / 1000 Ang^3
#
#
#
# Elastic Constant Matrix: (Units=GPa)
#
#
# Indices 1 2 3 4 5 6 
#
# 1 78.5205 3.3468 14.4141 0.0000 0.0000 0.0000
# 2 3.3468 59.4819 2.8509 0.0000 0.0000 0.0000
# 3 14.4141 2.8509 107.4322 0.0000 0.0000 0.0000
# 4 0.0000 0.0000 0.0000 75.4466 0.0000 0.0000
# 5 0.0000 0.0000 0.0000 0.0000 45.6902 0.0000
# 6 0.0000 0.0000 0.0000 0.0000 0.0000 16.4536
#
#
#
# Elastic Compliance Matrix: (Units=1/GPa)
#
#
# Indices 1 2 3 4 5 6 
#
# 1 0.013082 -0.000653 -0.001738 0.000000 0.000000 0.000000
# 2 -0.000653 0.016866 -0.000360 0.000000 0.000000 0.000000
# 3 -0.001738 -0.000360 0.009551 0.000000 0.000000 0.000000
# 4 0.000000 0.000000 0.000000 0.013254 0.000000 0.000000
# 5 0.000000 0.000000 0.000000 0.000000 0.021887 0.000000
# 6 0.000000 0.000000 0.000000 0.000000 0.000000 0.060777
#
#
# Mechanical properties :
#
#
# Convention : Reuss Voigt Hill
#
# Bulk Modulus (GPa) = 29.41372 31.85089 30.63230
# Shear Modulus (GPa) = 32.84052 42.50627 37.67340
#
# Velocity S-wave (km/s) = 3.77508 4.29485 4.04333
# Velocity P-wave (km/s) = 5.63612 6.19807 5.92376
#
# Compressibility (1/GPa) = 0.03399774
#
# Stress axis : x y z
#
# Youngs Moduli (GPa) = 76.43862 59.29155 104.70188
#
# Poissons Ratio (x) = 0.03870 0.18196
# Poissons Ratio (y) = 0.04990 0.03769
# Poissons Ratio (z) = 0.13284 0.02134
#
# Static dielectric constant tensor:
#      x y z
#    x 1.832850 0.000000 0.000000 
#    y 0.000000 1.928990 0.000000 
#    z 0.000000 0.000000 1.958290 
# 
# From -- ./inp_files/26199.got.cif
#   From: 2010.05.17/outbox.cif.g08.bks.cpg/sg57_14_cif.got.tgz:26199.got - 2010.06.03 13:58:18.
