data_PCOD9436553
_publ_section_title
;
Structure prediction by ZEFSAII (Michael W. Deem and Ramdas Pophale) SiO2 
 PCOD9436553
Probable space group: P B C M
;
_chemical_formula_sum "Si O2"
_cell_formula_units_Z 60
_cell_length_a 17.483771
_cell_length_b 16.901956
_cell_length_c 9.705043
_cell_angle_alpha 90.000000
_cell_angle_beta 90.000000
_cell_angle_gamma 90.000000
_cell_volume 2867.936560
_symmetry_space_group_name_H-M "P B C M"
_symmetry_group_IT_number 57
_symmetry_cell_setting 'orthorhombic'
loop_
_space_group_symop_operation_xyz
x,y,z
-x,-y,1/2+z
x,1/2-y,-z
-x,1/2+y,1/2-z
-x,-y,-z
x,y,1/2-z
-x,1/2+y,z
x,1/2-y,1/2+z
loop_
_atom_site_type_symbol
_atom_site_label
_atom_site_fract_x
_atom_site_fract_y
_atom_site_fract_z
Si Si1 0.517324 0.012661 0.750000
Si Si2 0.440657 0.101133 0.491120
Si Si3 0.269721 0.557407 0.094918
Si Si4 0.857845 0.632935 0.093969
Si Si5 0.032683 0.825707 0.912974
Si Si6 0.871280 0.443125 0.088706
Si Si7 0.597236 0.179008 0.408488
Si Si8 0.716611 0.633116 0.592163
O O1 0.466287 0.057480 0.630435
O O2 0.564295 0.963618 0.870581
O O3 0.511771 0.156395 0.449702
O O4 0.362701 0.148843 0.514928
O O5 0.241191 0.577743 0.250000
O O6 0.349413 0.602459 0.076451
O O7 0.280508 0.463380 0.091900
O O8 0.209972 0.581331 0.977681
O O9 0.829976 0.646264 0.250000
O O10 0.940684 0.671676 0.078603
O O11 0.872762 0.538351 0.079101
O O12 0.793237 0.658012 0.986597
O O13 0.052953 0.823680 0.750000
O O14 0.060754 0.750000 0.000000
O O15 0.066231 0.901917 0.991706
O O16 0.879391 0.421570 0.250000
O O17 0.627176 0.250000 0.500000
O O18 0.598116 0.203086 0.250000
O O19 0.715647 0.660338 0.750000
#
# Coordination Sequence:
#
# PCOD9436553 Si02
#       8
#     4   8   8   8   8   8   8   8
#     4  10  20  32  60  84 114 138 186 250 298 336
#     4  11  21  37  56  90 114 153 195 245 300 348
#     4   9  19  37  57  82 117 151 190 237 291 344
#     4   9  21  39  60  90 123 154 194 245 300 353
#     4  11  23  40  62  88 119 158 200 242 291 355
#     4  10  20  37  61  93 121 153 192 240 295 356
#     4  11  25  41  56  78 117 161 202 240 291 360
#     4  10  20  35  60  89 118 147 192 246 300 351
#
# _framework density 20.920966
#
# number of rings (size 3 to 8) (size 9 to 14) (size 15 to 20)
#    0.000    1.867    1.333    2.800    3.733    2.667 
#    4.800    2.000    0.000    0.000    0.000    0.000 
#    0.000    0.000    0.000    0.000    0.000    0.000 
#
# Total GULP energy -334154.802284 kJ/mol
# GULP energy per Si atom -5569.246705 kJ/mol
# Density = 2.087335 g / cm^3
# Si number density = 20.920966 Si / 1000 Ang^3
#
#
#
# Elastic Constant Matrix: (Units=GPa)
#
#
# Indices 1 2 3 4 5 6 
#
# 1 55.7394 6.5814 32.5001 0.0000 0.0000 0.0000
# 2 6.5814 44.4205 39.4366 0.0000 0.0000 0.0000
# 3 32.5001 39.4366 162.3530 0.0000 0.0000 0.0000
# 4 0.0000 0.0000 0.0000 -21.6529 0.0000 0.0000
# 5 0.0000 0.0000 0.0000 0.0000 87.2447 0.0000
# 6 0.0000 0.0000 0.0000 0.0000 0.0000 -4.3581
#
#
#
# Elastic Compliance Matrix: (Units=1/GPa)
#
#
# Indices 1 2 3 4 5 6 
#
# 1 0.020332 0.000766 -0.004256 0.000000 0.000000 0.000000
# 2 0.000766 0.028731 -0.007132 0.000000 0.000000 0.000000
# 3 -0.004256 -0.007132 0.008744 0.000000 0.000000 0.000000
# 4 0.000000 0.000000 0.000000 -0.046183 0.000000 0.000000
# 5 0.000000 0.000000 0.000000 0.000000 0.011462 0.000000
# 6 0.000000 0.000000 0.000000 0.000000 0.000000 -0.229457
#
#
# Mechanical properties :
#
#
# Convention : Reuss Voigt Hill
#
# Bulk Modulus (GPa) = 27.35076 46.61655 36.98366
# Shear Modulus (GPa) = -28.91180 24.51305 -2.19938
#
# Velocity S-wave (km/s) = -3.72150 3.42672 -1.02643
# Velocity P-wave (km/s) = 2.31609 6.16337 4.03874
#
# Compressibility (1/GPa) = 0.03656205
#
# Stress axis : x y z
#
# Youngs Moduli (GPa) = 49.18395 34.80603 114.36536
#
# Poissons Ratio (x) = -0.02667 0.48676
# Poissons Ratio (y) = -0.03769 0.81568
# Poissons Ratio (z) = 0.20934 0.24825
#
# Static dielectric constant tensor:
#      x y z
#    x 1.749870 0.000000 0.000000 
#    y 0.000000 1.755330 0.000000 
#    z 0.000000 0.000000 1.722930 
# 
# From -- ./inp_files/6899.got.cif
#   From: 2010.05.17/outbox.cif.g08.bks.cpg/sg57_4_cif.got.tgz:6899.got - 2010.06.03 13:58:18.
