data_PCOD9436572
_publ_section_title
;
Structure prediction by ZEFSAII (Michael W. Deem and Ramdas Pophale) SiO2 
 PCOD9436572
Probable space group: P B C M
;
_chemical_formula_sum "Si O2"
_cell_formula_units_Z 64
_cell_length_a 23.810888
_cell_length_b 15.758794
_cell_length_c 8.442365
_cell_angle_alpha 90.000000
_cell_angle_beta 90.000000
_cell_angle_gamma 90.000000
_cell_volume 3167.836039
_symmetry_space_group_name_H-M "P B C M"
_symmetry_group_IT_number 57
_symmetry_cell_setting 'orthorhombic'
loop_
_space_group_symop_operation_xyz
x,y,z
-x,-y,1/2+z
x,1/2-y,-z
-x,1/2+y,1/2-z
-x,-y,-z
x,y,1/2-z
-x,1/2+y,z
x,1/2-y,1/2+z
loop_
_atom_site_type_symbol
_atom_site_label
_atom_site_fract_x
_atom_site_fract_y
_atom_site_fract_z
Si Si1 0.044635 0.620627 0.434160
Si Si2 0.636201 0.156157 0.060642
Si Si3 0.808240 0.524611 0.440595
Si Si4 0.070671 0.064993 0.441693
Si Si5 0.688318 0.983000 0.059457
Si Si6 0.160123 0.662523 0.933875
Si Si7 0.396826 0.339357 0.059477
Si Si8 0.515310 0.094179 0.940686
O O1 0.053683 0.642073 0.250000
O O2 0.055493 0.520260 0.462649
O O3 0.092826 0.662418 0.538479
O O4 0.978901 0.631848 0.475964
O O5 0.638654 0.158131 0.250000
O O6 0.675956 0.079015 0.002341
O O7 0.649904 0.250000 0.000000
O O8 0.573135 0.129519 0.010285
O O9 0.804703 0.522147 0.250000
O O10 0.863838 0.579646 0.478594
O O11 0.748725 0.550853 0.508031
O O12 0.819139 0.427705 0.501026
O O13 0.067005 0.047859 0.250000
O O14 0.686111 0.985126 0.250000
O O15 0.639681 0.919346 0.003140
O O16 0.171964 0.660940 0.750000
O O17 0.183971 0.750000 0.000000
O O18 0.395771 0.340350 0.250000
O O19 0.461427 0.350511 0.009512
O O20 0.374140 0.250000 0.000000
O O21 0.519386 0.093815 0.750000
O O22 0.500000 0.000000 0.000000
#
# Coordination Sequence:
#
# PCOD9436572 Si02
#       8
#     8   8   8   8   8   8   8   8
#     4   9  15  25  45  70  96 127 162 203 256 312
#     4  11  23  40  58  83 118 154 193 237 285 343
#     4   9  19  34  52  75 102 136 182 227 269 321
#     4   8  15  28  45  69  99 126 159 208 257 311
#     4  10  22  40  57  78 114 150 189 240 286 334
#     4  10  20  33  48  71 105 139 177 224 270 325
#     4  10  22  40  60  86 114 144 183 231 284 336
#     4  11  21  37  61  88 120 153 186 229 284 344
#
# _framework density 20.203066
#
# number of rings (size 3 to 8) (size 9 to 14) (size 15 to 20)
#    0.000    2.250    1.250    2.625    0.000    7.000 
#    0.000    2.500    0.000    0.750    0.000    1.750 
#    0.000    0.000    0.000    0.000    0.000    0.000 
#
# Total GULP energy -356860.798395 kJ/mol
# GULP energy per Si atom -5575.949975 kJ/mol
# Density = 2.015708 g / cm^3
# Si number density = 20.203066 Si / 1000 Ang^3
#
#
#
# Elastic Constant Matrix: (Units=GPa)
#
#
# Indices 1 2 3 4 5 6 
#
# 1 90.4601 -3.1812 -0.4593 0.0000 0.0000 0.0000
# 2 -3.1812 53.6666 0.1011 0.0000 0.0000 0.0000
# 3 -0.4593 0.1011 12.3093 0.0000 0.0000 0.0000
# 4 0.0000 0.0000 0.0000 25.9573 0.0000 0.0000
# 5 0.0000 0.0000 0.0000 0.0000 25.5601 0.0000
# 6 0.0000 0.0000 0.0000 0.0000 0.0000 1.2218
#
#
#
# Elastic Compliance Matrix: (Units=1/GPa)
#
#
# Indices 1 2 3 4 5 6 
#
# 1 0.011080 0.000656 0.000408 0.000000 0.000000 0.000000
# 2 0.000656 0.018673 -0.000129 0.000000 0.000000 0.000000
# 3 0.000408 -0.000129 0.081256 0.000000 0.000000 0.000000
# 4 0.000000 0.000000 0.000000 0.038525 0.000000 0.000000
# 5 0.000000 0.000000 0.000000 0.000000 0.039124 0.000000
# 6 0.000000 0.000000 0.000000 0.000000 0.000000 0.818474
#
#
# Mechanical properties :
#
#
# Convention : Reuss Voigt Hill
#
# Bulk Modulus (GPa) = 8.85909 16.59524 12.72716
# Shear Modulus (GPa) = 4.79439 21.21287 13.00363
#
# Velocity S-wave (km/s) = 1.54216 3.24386 2.53977
# Velocity P-wave (km/s) = 2.75055 4.71828 3.86185
#
# Compressibility (1/GPa) = 0.11287836
#
# Stress axis : x y z
#
# Youngs Moduli (GPa) = 90.25483 53.55417 12.30686
#
# Poissons Ratio (x) = -0.03513 -0.00502
# Poissons Ratio (y) = -0.05921 0.00159
# Poissons Ratio (z) = -0.03683 0.00690
#
# Static dielectric constant tensor:
#      x y z
#    x 1.743950 0.000000 0.000000 
#    y 0.000000 1.741120 0.000000 
#    z 0.000000 0.000000 1.698260 
# 
# From -- ./inp_files/9325.got.cif
#   From: 2010.05.17/outbox.cif.g08.bks.cpg/sg57_5_cif.got.tgz:9325.got - 2010.06.03 13:58:18.
