data_PCOD9436622
_publ_section_title
;
Structure prediction by ZEFSAII (Michael W. Deem and Ramdas Pophale) SiO2 
 PCOD9436622
Probable space group: P B C M
;
_chemical_formula_sum "Si O2"
_cell_formula_units_Z 40
_cell_length_a 7.393051
_cell_length_b 34.383352
_cell_length_c 8.744304
_cell_angle_alpha 90.000000
_cell_angle_beta 90.000000
_cell_angle_gamma 90.000000
_cell_volume 2222.783494
_symmetry_space_group_name_H-M "P B C M"
_symmetry_group_IT_number 57
_symmetry_cell_setting 'orthorhombic'
loop_
_space_group_symop_operation_xyz
x,y,z
-x,-y,1/2+z
x,1/2-y,-z
-x,1/2+y,1/2-z
-x,-y,-z
x,y,1/2-z
-x,1/2+y,z
x,1/2-y,1/2+z
loop_
_atom_site_type_symbol
_atom_site_label
_atom_site_fract_x
_atom_site_fract_y
_atom_site_fract_z
Si Si1 0.201948 0.497598 0.066653
Si Si2 0.222192 0.208911 0.933912
Si Si3 0.805085 0.291126 0.433985
Si Si4 0.513823 0.145744 0.934854
Si Si5 0.506965 0.559889 0.067063
O O1 0.191017 0.495660 0.250000
O O2 0.328662 0.534631 0.024299
O O3 0.317704 0.461050 0.005195
O O4 0.000000 0.500000 0.000000
O O5 0.229172 0.211512 0.750000
O O6 0.342313 0.172250 0.979431
O O7 0.013664 0.204011 0.981463
O O8 0.288062 0.250000 0.000000
O O9 0.739319 0.250000 0.500000
O O10 0.797757 0.288563 0.250000
O O11 0.685410 0.327858 0.479801
O O12 0.514043 0.141446 0.750000
O O13 0.511138 0.103693 0.009368
O O14 0.523542 0.558627 0.250000
#
# Coordination Sequence:
#
# PCOD9436622 Si02
#       5
#     8   8   8   8   8
#     4  10  21  39  62  84 109 142 177 217 267 322
#     4   9  18  32  49  71  99 134 176 218 263 313
#     4   9  18  32  49  70  98 133 174 217 261 310
#     4  10  20  33  50  74 105 138 172 215 266 315
#     4  10  22  38  56  83 113 140 178 222 265 320
#
# _framework density 17.995456000000001
#
# number of rings (size 3 to 8) (size 9 to 14) (size 15 to 20)
#    0.000    2.400    0.000    1.800    0.000    5.600 
#    0.000    2.000    0.000    0.000    0.000    0.000 
#    0.000    0.000    0.000    0.000    0.000    0.000 
#
# Total GULP energy -223213.211022 kJ/mol
# GULP energy per Si atom -5580.330276 kJ/mol
# Density = 1.795450 g / cm^3
# Si number density = 17.995456 Si / 1000 Ang^3
#
#
#
# Elastic Constant Matrix: (Units=GPa)
#
#
# Indices 1 2 3 4 5 6 
#
# 1 140.5423 84.7876 40.7889 0.0000 0.0000 0.0000
# 2 84.7876 177.2468 40.9413 0.0000 0.0000 0.0000
# 3 40.7889 40.9413 28.7967 0.0000 0.0000 0.0000
# 4 0.0000 0.0000 0.0000 37.5490 0.0000 0.0000
# 5 0.0000 0.0000 0.0000 0.0000 -38.7705 0.0000
# 6 0.0000 0.0000 0.0000 0.0000 0.0000 46.3778
#
#
#
# Elastic Compliance Matrix: (Units=1/GPa)
#
#
# Indices 1 2 3 4 5 6 
#
# 1 0.013032 -0.002934 -0.014288 0.000000 0.000000 0.000000
# 2 -0.002934 0.009061 -0.008727 0.000000 0.000000 0.000000
# 3 -0.014288 -0.008727 0.067372 0.000000 0.000000 0.000000
# 4 0.000000 0.000000 0.000000 0.026632 0.000000 0.000000
# 5 0.000000 0.000000 0.000000 0.000000 -0.025793 0.000000
# 6 0.000000 0.000000 0.000000 0.000000 0.000000 0.021562
#
#
# Mechanical properties :
#
#
# Convention : Reuss Voigt Hill
#
# Bulk Modulus (GPa) = 26.61887 75.51349 51.06618
# Shear Modulus (GPa) = 28.36304 21.03579 24.69942
#
# Velocity S-wave (km/s) = 3.97435 3.42270 3.70879
# Velocity P-wave (km/s) = 5.99038 7.59431 6.83952
#
# Compressibility (1/GPa) = 0.03756734
#
# Stress axis : x y z
#
# Youngs Moduli (GPa) = 76.73503 110.36358 14.84297
#
# Poissons Ratio (x) = 0.32376 0.21208
# Poissons Ratio (y) = 0.22511 0.12953
# Poissons Ratio (z) = 1.09640 0.96315
#
# Static dielectric constant tensor:
#      x y z
#    x 1.626600 0.000000 0.000000 
#    y 0.000000 1.580410 0.000000 
#    z 0.000000 0.000000 1.605340 
# 
# From -- ./inp_files/1747.got.cif
#   From: 2010.05.17/outbox.cif.g08.bks.cpg/sg57_1_cif.got.tgz:1747.got - 2010.06.03 13:58:18.
