data_PCOD9436649
_publ_section_title
;
Structure prediction by ZEFSAII (Michael W. Deem and Ramdas Pophale) SiO2 
 PCOD9436649
Probable space group: P B C M
;
_chemical_formula_sum "Si O2"
_cell_formula_units_Z 64
_cell_length_a 22.457428
_cell_length_b 18.274717
_cell_length_c 8.200626
_cell_angle_alpha 90.000000
_cell_angle_beta 90.000000
_cell_angle_gamma 90.000000
_cell_volume 3365.562671
_symmetry_space_group_name_H-M "P B C M"
_symmetry_group_IT_number 57
_symmetry_cell_setting 'orthorhombic'
loop_
_space_group_symop_operation_xyz
x,y,z
-x,-y,1/2+z
x,1/2-y,-z
-x,1/2+y,1/2-z
-x,-y,-z
x,y,1/2-z
-x,1/2+y,z
x,1/2-y,1/2+z
loop_
_atom_site_type_symbol
_atom_site_label
_atom_site_fract_x
_atom_site_fract_y
_atom_site_fract_z
Si Si1 0.565250 0.477900 0.943989
Si Si2 0.109652 0.070827 0.552290
Si Si3 0.998123 0.332249 0.446919
Si Si4 0.376561 0.829574 0.444518
Si Si5 0.776322 0.833621 0.053447
Si Si6 0.876832 0.096577 0.946044
Si Si7 0.745270 0.102940 0.552959
Si Si8 0.686227 0.952657 0.052721
O O1 0.566506 0.482019 0.750000
O O2 0.619439 0.529496 0.006693
O O3 0.500000 0.500000 0.000000
O O4 0.582732 0.395856 0.994899
O O5 0.110317 0.067351 0.750000
O O6 0.049115 0.111145 0.499322
O O7 0.165725 0.120394 0.499501
O O8 0.114512 0.988739 0.487366
O O9 0.011944 0.250000 0.500000
O O10 0.997603 0.334051 0.250000
O O11 0.933257 0.357712 0.508124
O O12 0.396310 0.750000 0.500000
O O13 0.375788 0.832051 0.250000
O O14 0.309059 0.846186 0.505202
O O15 0.776682 0.834633 0.250000
O O16 0.717934 0.878352 0.996964
O O17 0.778059 0.750000 0.000000
O O18 0.876285 0.103701 0.750000
O O19 0.811557 0.120512 0.007371
O O20 0.745955 0.105251 0.750000
O O21 0.727025 0.021052 0.500500
O O22 0.685190 0.951952 0.250000
#
# Coordination Sequence:
#
# PCOD9436649 Si02
#       8
#     8   8   8   8   8   8   8   8
#     4  10  20  36  59  84 111 147 186 224 269 319
#     4  10  20  35  54  75 101 135 178 222 266 320
#     4  10  22  37  51  72 103 138 177 222 269 321
#     4  10  20  35  55  82 114 146 184 227 271 320
#     4  10  20  33  51  77 105 134 172 217 265 315
#     4  10  20  34  53  78 105 135 176 222 269 322
#     4   9  18  32  52  77 105 137 173 217 267 319
#     4   9  18  34  54  76 105 138 175 217 259 313
#
# _framework density 19.016138000000002
#
# number of rings (size 3 to 8) (size 9 to 14) (size 15 to 20)
#    0.000    2.250    1.250    1.500    0.000    3.500 
#    0.000    0.625    0.000    1.500    0.000    0.000 
#    0.000    0.000    0.000    0.000    0.000    0.000 
#
# Total GULP energy -357175.665942 kJ/mol
# GULP energy per Si atom -5580.869780 kJ/mol
# Density = 1.897286 g / cm^3
# Si number density = 19.016138 Si / 1000 Ang^3
#
#
#
# Elastic Constant Matrix: (Units=GPa)
#
#
# Indices 1 2 3 4 5 6 
#
# 1 127.0371 15.6614 15.1912 0.0000 0.0000 0.0000
# 2 15.6614 38.0176 -2.4579 0.0000 0.0000 0.0000
# 3 15.1912 -2.4579 9.1808 0.0000 0.0000 0.0000
# 4 0.0000 0.0000 0.0000 24.7012 0.0000 0.0000
# 5 0.0000 0.0000 0.0000 0.0000 15.8120 0.0000
# 6 0.0000 0.0000 0.0000 0.0000 0.0000 -14.3645
#
#
#
# Elastic Compliance Matrix: (Units=1/GPa)
#
#
# Indices 1 2 3 4 5 6 
#
# 1 0.010931 -0.005772 -0.019633 0.000000 0.000000 0.000000
# 2 -0.005772 0.029815 0.017533 0.000000 0.000000 0.000000
# 3 -0.019633 0.017533 0.146103 0.000000 0.000000 0.000000
# 4 0.000000 0.000000 0.000000 0.040484 0.000000 0.000000
# 5 0.000000 0.000000 0.000000 0.000000 0.063243 0.000000
# 6 0.000000 0.000000 0.000000 0.000000 0.000000 -0.069616
#
#
# Mechanical properties :
#
#
# Convention : Reuss Voigt Hill
#
# Bulk Modulus (GPa) = 5.84432 25.66944 15.75688
# Shear Modulus (GPa) = 17.02192 14.95247 15.98719
#
# Velocity S-wave (km/s) = 2.99512 2.80715 2.90266
# Velocity P-wave (km/s) = 3.87827 4.90254 4.42017
#
# Compressibility (1/GPa) = 0.17110627
#
# Stress axis : x y z
#
# Youngs Moduli (GPa) = 91.48267 33.54009 6.84447
#
# Poissons Ratio (x) = 0.19360 0.13438
# Poissons Ratio (y) = 0.52807 -0.12001
# Poissons Ratio (z) = 1.79605 -0.58807
#
# Static dielectric constant tensor:
#      x y z
#    x 1.705810 0.000000 0.000000 
#    y 0.000000 1.618560 0.000000 
#    z 0.000000 0.000000 1.659260 
# 
# From -- ./inp_files/8422.got.cif
#   From: 2010.05.17/outbox.cif.g08.bks.cpg/sg57_5_cif.got.tgz:8422.got - 2010.06.03 13:58:18.
