data_PCOD9436654
_publ_section_title
;
Structure prediction by ZEFSAII (Michael W. Deem and Ramdas Pophale) SiO2 
 PCOD9436654
Probable space group: P B C M
;
_chemical_formula_sum "Si O2"
_cell_formula_units_Z 56
_cell_length_a 15.743577
_cell_length_b 14.124229
_cell_length_c 13.642172
_cell_angle_alpha 90.000000
_cell_angle_beta 90.000000
_cell_angle_gamma 90.000000
_cell_volume 3033.553675
_symmetry_space_group_name_H-M "P B C M"
_symmetry_group_IT_number 57
_symmetry_cell_setting 'orthorhombic'
loop_
_space_group_symop_operation_xyz
x,y,z
-x,-y,1/2+z
x,1/2-y,-z
-x,1/2+y,1/2-z
-x,-y,-z
x,y,1/2-z
-x,1/2+y,z
x,1/2-y,1/2+z
loop_
_atom_site_type_symbol
_atom_site_label
_atom_site_fract_x
_atom_site_fract_y
_atom_site_fract_z
Si Si1 0.846365 0.111346 0.632550
Si Si2 0.565943 0.640107 0.474104
Si Si3 0.926143 0.919904 0.865380
Si Si4 0.905459 0.321285 0.632114
Si Si5 0.756815 0.051069 0.452292
Si Si6 0.759816 0.644042 0.462457
Si Si7 0.575500 0.476973 0.633511
O O1 0.830375 0.107100 0.750000
O O2 0.881742 0.213917 0.605124
O O3 0.764795 0.086395 0.565498
O O4 0.914063 0.029412 0.604805
O O5 0.550378 0.750000 0.500000
O O6 0.661742 0.631554 0.431248
O O7 0.563628 0.574614 0.572103
O O8 0.497990 0.594692 0.400883
O O9 0.939562 0.922918 0.750000
O O10 0.835018 0.873466 0.886462
O O11 0.004971 0.861220 0.907259
O O12 0.909765 0.319525 0.750000
O O13 0.830252 0.391565 0.601599
O O14 0.665848 0.064450 0.403082
O O15 0.773641 0.938247 0.456401
O O16 0.767420 0.750000 0.500000
O O17 0.575641 0.491478 0.750000
#
# Coordination Sequence:
#
# PCOD9436654 Si02
#       7
#     8   8   8   8   8   8   8
#     4   9  19  35  53  75 106 143 184 229 275 326
#     4   9  20  39  59  84 116 147 184 230 282 336
#     4   9  19  34  51  74 104 139 182 226 268 323
#     4  10  20  33  51  78 111 145 181 224 276 331
#     4  10  20  35  54  77 109 143 178 223 273 326
#     4   9  19  35  54  77 104 136 177 221 268 321
#     4  10  21  38  60  86 115 147 186 231 278 333
#
# _framework density 18.460197999999998
#
# number of rings (size 3 to 8) (size 9 to 14) (size 15 to 20)
#    0.000    2.571    0.000    0.857    0.000    6.857 
#    0.000   15.000    0.000    0.000    0.000    0.000 
#    0.000    0.000    0.000    0.000    0.000    0.000 
#
# Total GULP energy -311973.436321 kJ/mol
# GULP energy per Si atom -5570.954220 kJ/mol
# Density = 1.841818 g / cm^3
# Si number density = 18.460198 Si / 1000 Ang^3
#
#
#
# Elastic Constant Matrix: (Units=GPa)
#
#
# Indices 1 2 3 4 5 6 
#
# 1 101.5539 76.7349 33.3756 0.0000 0.0000 0.0000
# 2 76.7349 139.9500 25.8181 0.0000 0.0000 0.0000
# 3 33.3756 25.8181 79.3563 0.0000 0.0000 0.0000
# 4 0.0000 0.0000 0.0000 14.4830 0.0000 0.0000
# 5 0.0000 0.0000 0.0000 0.0000 20.1036 0.0000
# 6 0.0000 0.0000 0.0000 0.0000 0.0000 15.0665
#
#
#
# Elastic Compliance Matrix: (Units=1/GPa)
#
#
# Indices 1 2 3 4 5 6 
#
# 1 0.018339 -0.009184 -0.004725 0.000000 0.000000 0.000000
# 2 -0.009184 0.012201 -0.000107 0.000000 0.000000 0.000000
# 3 -0.004725 -0.000107 0.014623 0.000000 0.000000 0.000000
# 4 0.000000 0.000000 0.000000 0.069046 0.000000 0.000000
# 5 0.000000 0.000000 0.000000 0.000000 0.049742 0.000000
# 6 0.000000 0.000000 0.000000 0.000000 0.000000 0.066372
#
#
# Mechanical properties :
#
#
# Convention : Reuss Voigt Hill
#
# Bulk Modulus (GPa) = 58.37164 65.85748 62.11456
# Shear Modulus (GPa) = 18.93462 22.25941 20.59702
#
# Velocity S-wave (km/s) = 3.20613 3.47624 3.34391
# Velocity P-wave (km/s) = 6.73755 7.20175 6.97351
#
# Compressibility (1/GPa) = 0.01713161
#
# Stress axis : x y z
#
# Youngs Moduli (GPa) = 54.52801 81.96332 68.38309
#
# Poissons Ratio (x) = 0.75273 0.32312
# Poissons Ratio (y) = 0.50077 0.00731
# Poissons Ratio (z) = 0.25766 0.00876
#
# Static dielectric constant tensor:
#      x y z
#    x 1.640070 0.000000 0.000000 
#    y 0.000000 1.649370 0.000000 
#    z 0.000000 0.000000 1.649540 
# 
# From -- ./inp_files/18625.got.cif
#   From: 2010.05.17/outbox.cif.g08.bks.cpg/sg57_10_cif.got.tgz:18625.got - 2010.06.03 13:58:18.
