data_PCOD9436033
_publ_section_title
;
Structure prediction by ZEFSAII (Michael W. Deem and Ramdas Pophale) SiO2 
 PCOD9436033
Probable space group: P B C M
;
_chemical_formula_sum "Si O2"
_cell_formula_units_Z 64
_cell_length_a 11.954637
_cell_length_b 32.445027
_cell_length_c 8.854516
_cell_angle_alpha 90.000000
_cell_angle_beta 90.000000
_cell_angle_gamma 90.000000
_cell_volume 3434.388018
_symmetry_space_group_name_H-M "P B C M"
_symmetry_group_IT_number 57
_symmetry_cell_setting 'orthorhombic'
loop_
_space_group_symop_operation_xyz
x,y,z
-x,-y,1/2+z
x,1/2-y,-z
-x,1/2+y,1/2-z
-x,-y,-z
x,y,1/2-z
-x,1/2+y,z
x,1/2-y,1/2+z
loop_
_atom_site_type_symbol
_atom_site_label
_atom_site_fract_x
_atom_site_fract_y
_atom_site_fract_z
Si Si1 0.880153 0.003933 0.576987
Si Si2 0.511386 0.953596 0.430341
Si Si3 0.068762 0.373376 0.069796
Si Si4 0.736926 0.921110 0.576005
Si Si5 0.329603 0.705806 0.931462
Si Si6 0.065598 0.706990 0.931134
Si Si7 0.629658 0.120779 0.426651
Si Si8 0.134633 0.582158 0.076858
O O1 0.891004 0.017388 0.750000
O O2 0.815937 0.961262 0.575168
O O3 0.818742 0.038666 0.480553
O O4 0.000000 0.000000 0.500000
O O5 0.499313 0.957109 0.250000
O O6 0.630793 0.934144 0.477502
O O7 0.426395 0.918826 0.494113
O O8 0.500000 0.000000 0.500000
O O9 0.082894 0.373858 0.250000
O O10 0.014288 0.330134 0.019637
O O11 0.184831 0.385314 0.991205
O O12 0.971045 0.405298 0.023178
O O13 0.704247 0.912690 0.750000
O O14 0.339233 0.706602 0.750000
O O15 0.196837 0.701588 0.971159
O O16 0.365973 0.750000 0.000000
O O17 0.390780 0.665252 0.996836
O O18 0.061597 0.708517 0.750000
O O19 0.028084 0.750000 0.000000
O O20 0.597669 0.121434 0.250000
O O21 0.763301 0.113452 0.434551
O O22 0.097032 0.579020 0.250000
#
# Coordination Sequence:
#
# PCOD9436033 Si02
#       8
#     8   8   8   8   8   8   8   8
#     4  11  22  34  52  77 110 147 187 233 284 340
#     4  12  26  45  67  89 117 158 206 258 310 367
#     4  11  21  35  56  84 118 154 193 239 292 351
#     4  11  24  41  60  85 115 153 198 243 294 351
#     4  10  19  34  56  88 125 162 201 248 304 363
#     4   9  19  33  53  83 120 160 197 237 290 352
#     4  11  23  39  61  88 120 159 202 251 304 362
#     4  11  22  34  52  81 115 152 193 235 289 347
#
# _framework density 18.635052999999999
#
# number of rings (size 3 to 8) (size 9 to 14) (size 15 to 20)
#    0.000    1.250    2.500    4.125    0.000    6.500 
#    0.000    0.000    0.000    0.750    0.000    3.500 
#    0.000    0.000    0.000    0.000    0.000    0.000 
#
# Total GULP energy -357284.528975 kJ/mol
# GULP energy per Si atom -5582.570765 kJ/mol
# Density = 1.859264 g / cm^3
# Si number density = 18.635053 Si / 1000 Ang^3
#
#
#
# Elastic Constant Matrix: (Units=GPa)
#
#
# Indices 1 2 3 4 5 6 
#
# 1 60.4847 28.2164 25.4538 0.0000 0.0000 0.0000
# 2 28.2164 143.7823 56.0991 0.0000 0.0000 0.0000
# 3 25.4538 56.0991 92.1147 0.0000 0.0000 0.0000
# 4 0.0000 0.0000 0.0000 34.3718 0.0000 0.0000
# 5 0.0000 0.0000 0.0000 0.0000 23.7733 0.0000
# 6 0.0000 0.0000 0.0000 0.0000 0.0000 29.1049
#
#
#
# Elastic Compliance Matrix: (Units=1/GPa)
#
#
# Indices 1 2 3 4 5 6 
#
# 1 0.019240 -0.002232 -0.003957 0.000000 0.000000 0.000000
# 2 -0.002232 0.009382 -0.005097 0.000000 0.000000 0.000000
# 3 -0.003957 -0.005097 0.015054 0.000000 0.000000 0.000000
# 4 0.000000 0.000000 0.000000 0.029094 0.000000 0.000000
# 5 0.000000 0.000000 0.000000 0.000000 0.042064 0.000000
# 6 0.000000 0.000000 0.000000 0.000000 0.000000 0.034358
#
#
# Mechanical properties :
#
#
# Convention : Reuss Voigt Hill
#
# Bulk Modulus (GPa) = 47.38639 57.32449 52.35544
# Shear Modulus (GPa) = 27.96472 29.89081 28.92776
#
# Velocity S-wave (km/s) = 3.87803 4.00935 3.94424
# Velocity P-wave (km/s) = 6.74803 7.22922 6.99277
#
# Compressibility (1/GPa) = 0.02110310
#
# Stress axis : x y z
#
# Youngs Moduli (GPa) = 51.97629 106.59265 66.42941
#
# Poissons Ratio (x) = 0.23787 0.26288
# Poissons Ratio (y) = 0.11599 0.33858
# Poissons Ratio (z) = 0.20569 0.54328
#
# Static dielectric constant tensor:
#      x y z
#    x 1.634530 0.000000 0.000000 
#    y 0.000000 1.672850 0.000000 
#    z 0.000000 0.000000 1.647700 
# 
# From -- ./inp_files/3780.got.cif
#   From: 2010.05.17/outbox.cif.g08.bks.cpg/sg57_2_cif.got.tgz:3780.got - 2010.06.03 13:58:18.
