data_PCOD9436272
_publ_section_title
;
Structure prediction by ZEFSAII (Michael W. Deem and Ramdas Pophale) SiO2 
 PCOD9436272
Probable space group: P B C M
;
_chemical_formula_sum "Si O2"
_cell_formula_units_Z 64
_cell_length_a 17.112982
_cell_length_b 13.090997
_cell_length_c 14.243755
_cell_angle_alpha 90.000000
_cell_angle_beta 90.000000
_cell_angle_gamma 90.000000
_cell_volume 3190.971401
_symmetry_space_group_name_H-M "P B C M"
_symmetry_group_IT_number 57
_symmetry_cell_setting 'orthorhombic'
loop_
_space_group_symop_operation_xyz
x,y,z
-x,-y,1/2+z
x,1/2-y,-z
-x,1/2+y,1/2-z
-x,-y,-z
x,y,1/2-z
-x,1/2+y,z
x,1/2-y,1/2+z
loop_
_atom_site_type_symbol
_atom_site_label
_atom_site_fract_x
_atom_site_fract_y
_atom_site_fract_z
Si Si1 0.446575 0.041563 0.358820
Si Si2 0.796687 0.503902 0.137754
Si Si3 0.043525 0.087816 0.357264
Si Si4 0.851430 0.780297 0.109163
Si Si5 0.759734 0.138140 0.492322
Si Si6 0.305296 0.188299 0.093368
Si Si7 0.123190 0.981129 0.861567
Si Si8 0.420621 0.632710 0.015689
O O1 0.452388 0.011510 0.250000
O O2 0.382324 0.134186 0.364736
O O3 0.526491 0.084507 0.402827
O O4 0.426346 0.944302 0.425794
O O5 0.789013 0.519982 0.250000
O O6 0.886322 0.516817 0.107160
O O7 0.748220 0.588122 0.080733
O O8 0.762778 0.400315 0.099766
O O9 0.033293 0.055387 0.250000
O O10 0.082944 0.200160 0.355841
O O11 0.958397 0.068832 0.397833
O O12 0.761845 0.758475 0.143880
O O13 0.876222 0.896062 0.126231
O O14 0.847255 0.750000 0.000000
O O15 0.794430 0.250000 0.500000
O O16 0.808398 0.067190 0.423100
O O17 0.670490 0.139549 0.459276
O O18 0.327790 0.250000 0.000000
O O19 0.133740 0.959265 0.750000
O O20 0.447387 0.750000 0.000000
#
# Coordination Sequence:
#
# PCOD9436272 Si02
#       8
#     8   8   8   8   8   8   8   8
#     4  11  23  41  71 100 126 168 217 259 317 395
#     4  10  20  38  63  90 120 165 219 265 313 385
#     4   9  20  37  57  84 123 166 213 266 323 382
#     4  10  21  36  62  91 125 165 206 269 332 384
#     4  11  24  41  63  89 124 171 212 263 325 381
#     4  10  19  35  62  94 128 155 201 260 321 376
#     4  11  24  41  60  90 130 172 219 272 327 382
#     4  10  24  45  66  93 136 171 205 267 322 381
#
# _framework density 20.056588000000001
#
# number of rings (size 3 to 8) (size 9 to 14) (size 15 to 20)
#    0.000    1.750    1.250    3.375    0.000    6.500 
#    0.000    5.000    0.000    0.000    0.000    0.000 
#    0.000    0.000    0.000    0.000    0.000    0.000 
#
# Total GULP energy -356377.364894 kJ/mol
# GULP energy per Si atom -5568.396326 kJ/mol
# Density = 2.001094 g / cm^3
# Si number density = 20.056588 Si / 1000 Ang^3
#
#
#
# Elastic Constant Matrix: (Units=GPa)
#
#
# Indices 1 2 3 4 5 6 
#
# 1 100.4220 21.4710 25.5536 0.0000 0.0000 0.0000
# 2 21.4710 93.5808 20.2231 0.0000 0.0000 0.0000
# 3 25.5536 20.2231 99.0049 0.0000 0.0000 0.0000
# 4 0.0000 0.0000 0.0000 16.2030 0.0000 0.0000
# 5 0.0000 0.0000 0.0000 0.0000 96.6021 0.0000
# 6 0.0000 0.0000 0.0000 0.0000 0.0000 23.1152
#
#
#
# Elastic Compliance Matrix: (Units=1/GPa)
#
#
# Indices 1 2 3 4 5 6 
#
# 1 0.011004 -0.001999 -0.002432 0.000000 0.000000 0.000000
# 2 -0.001999 0.011543 -0.001842 0.000000 0.000000 0.000000
# 3 -0.002432 -0.001842 0.011104 0.000000 0.000000 0.000000
# 4 0.000000 0.000000 0.000000 0.061717 0.000000 0.000000
# 5 0.000000 0.000000 0.000000 0.000000 0.010352 0.000000
# 6 0.000000 0.000000 0.000000 0.000000 0.000000 0.043262
#
#
# Mechanical properties :
#
#
# Convention : Reuss Voigt Hill
#
# Bulk Modulus (GPa) = 47.38082 47.50034 47.44058
# Shear Modulus (GPa) = 29.66257 42.23472 35.94864
#
# Velocity S-wave (km/s) = 3.84988 4.59385 4.23822
# Velocity P-wave (km/s) = 6.59067 7.20226 6.90324
#
# Compressibility (1/GPa) = 0.02110558
#
# Stress axis : x y z
#
# Youngs Moduli (GPa) = 90.87401 86.63516 90.05458
#
# Poissons Ratio (x) = 0.17321 0.21900
# Poissons Ratio (y) = 0.18168 0.16586
# Poissons Ratio (z) = 0.22099 0.15956
#
# Static dielectric constant tensor:
#      x y z
#    x 1.757580 0.000000 0.000000 
#    y 0.000000 1.732930 0.000000 
#    z 0.000000 0.000000 1.760080 
# 
# From -- ./inp_files/19129.got.cif
#   From: 2010.05.17/outbox.cif.g08.bks.cpg/sg57_10_cif.got.tgz:19129.got - 2010.06.03 13:58:18.
