data_PCOD9436849
_publ_section_title
;
Structure prediction by ZEFSAII (Michael W. Deem and Ramdas Pophale) SiO2 
 PCOD9436849
Probable space group: P B C M
;
_chemical_formula_sum "Si O2"
_cell_formula_units_Z 64
_cell_length_a 24.866177
_cell_length_b 15.021978
_cell_length_c 8.678612
_cell_angle_alpha 90.000000
_cell_angle_beta 90.000000
_cell_angle_gamma 90.000000
_cell_volume 3241.801470
_symmetry_space_group_name_H-M "P B C M"
_symmetry_group_IT_number 57
_symmetry_cell_setting 'orthorhombic'
loop_
_space_group_symop_operation_xyz
x,y,z
-x,-y,1/2+z
x,1/2-y,-z
-x,1/2+y,1/2-z
-x,-y,-z
x,y,1/2-z
-x,1/2+y,z
x,1/2-y,1/2+z
loop_
_atom_site_type_symbol
_atom_site_label
_atom_site_fract_x
_atom_site_fract_y
_atom_site_fract_z
Si Si1 0.911746 0.337459 0.567485
Si Si2 0.473623 0.845202 0.064326
Si Si3 0.826689 0.032701 0.564565
Si Si4 0.723595 0.150424 0.935493
Si Si5 0.133246 0.345039 0.566400
Si Si6 0.377765 0.969169 0.436128
Si Si7 0.018416 0.094886 0.566919
Si Si8 0.598497 0.654742 0.565579
O O1 0.882940 0.250000 0.500000
O O2 0.918521 0.332169 0.750000
O O3 0.876744 0.422367 0.520976
O O4 0.968619 0.343978 0.481948
O O5 0.472282 0.841551 0.250000
O O6 0.434092 0.923989 0.014192
O O7 0.535660 0.856428 0.015951
O O8 0.454655 0.750000 0.000000
O O9 0.834455 0.041619 0.750000
O O10 0.773907 0.087899 0.520529
O O11 0.827608 0.927805 0.528891
O O12 0.723454 0.156635 0.750000
O O13 0.669515 0.098448 0.982455
O O14 0.726943 0.250000 0.000000
O O15 0.149805 0.250000 0.500000
O O16 0.129311 0.338152 0.750000
O O17 0.074212 0.370959 0.502934
O O18 0.377509 0.975844 0.250000
O O19 0.371663 0.067500 0.504176
O O20 0.023378 0.089649 0.750000
O O21 0.000000 0.000000 0.500000
O O22 0.617012 0.750000 0.500000
O O23 0.600382 0.657514 0.750000
#
# Coordination Sequence:
#
# PCOD9436849 Si02
#       8
#     8   8   8   8   8   8   8   8
#     4  12  24  38  59  86 117 153 192 233 282 339
#     4   9  18  31  50  79 114 152 191 237 286 345
#     4  10  22  41  62  84 114 150 191 238 288 339
#     4  10  22  40  62  88 116 149 187 235 291 345
#     4  11  23  40  62  86 117 153 193 239 288 341
#     4  10  20  35  55  81 115 151 191 237 291 345
#     4  12  23  38  59  87 121 155 192 231 282 342
#     4  10  20  34  53  79 112 151 195 237 287 341
#
# _framework density 19.742111000000001
#
# number of rings (size 3 to 8) (size 9 to 14) (size 15 to 20)
#    0.000    1.500    1.250    4.500    0.000    3.500 
#    0.000    0.625    0.000    1.500    0.000    0.000 
#    0.000    0.000    0.000    0.000    0.000    0.000 
#
# Total GULP energy -357626.533494 kJ/mol
# GULP energy per Si atom -5587.914586 kJ/mol
# Density = 1.969718 g / cm^3
# Si number density = 19.742111 Si / 1000 Ang^3
#
#
#
# Elastic Constant Matrix: (Units=GPa)
#
#
# Indices 1 2 3 4 5 6 
#
# 1 58.2700 47.0360 19.7150 0.0000 0.0000 0.0000
# 2 47.0360 189.8642 48.1377 0.0000 0.0000 0.0000
# 3 19.7150 48.1377 51.4454 0.0000 0.0000 0.0000
# 4 0.0000 0.0000 0.0000 39.2248 0.0000 0.0000
# 5 0.0000 0.0000 0.0000 0.0000 12.4535 0.0000
# 6 0.0000 0.0000 0.0000 0.0000 0.0000 28.0068
#
#
#
# Elastic Compliance Matrix: (Units=1/GPa)
#
#
# Indices 1 2 3 4 5 6 
#
# 1 0.022187 -0.004380 -0.004404 0.000000 0.000000 0.000000
# 2 -0.004380 0.007770 -0.005592 0.000000 0.000000 0.000000
# 3 -0.004404 -0.005592 0.026358 0.000000 0.000000 0.000000
# 4 0.000000 0.000000 0.000000 0.025494 0.000000 0.000000
# 5 0.000000 0.000000 0.000000 0.000000 0.080299 0.000000
# 6 0.000000 0.000000 0.000000 0.000000 0.000000 0.035706
#
#
# Mechanical properties :
#
#
# Convention : Reuss Voigt Hill
#
# Bulk Modulus (GPa) = 36.28033 58.81745 47.54889
# Shear Modulus (GPa) = 21.20868 28.24975 24.72921
#
# Velocity S-wave (km/s) = 3.28119 3.78688 3.54307
# Velocity P-wave (km/s) = 5.72468 6.99844 6.39336
#
# Compressibility (1/GPa) = 0.02756315
#
# Stress axis : x y z
#
# Youngs Moduli (GPa) = 45.07130 128.70574 37.93911
#
# Poissons Ratio (x) = 0.56371 0.16709
# Poissons Ratio (y) = 0.19741 0.21214
# Poissons Ratio (z) = 0.19851 0.71968
#
# Static dielectric constant tensor:
#      x y z
#    x 1.728990 0.000000 0.000000 
#    y 0.000000 1.727770 0.000000 
#    z 0.000000 0.000000 1.656220 
# 
# From -- ./inp_files/9515.got.cif
#   From: 2010.05.17/outbox.cif.g08.bks.cpg/sg57_5_cif.got.tgz:9515.got - 2010.06.03 13:58:18.
