data_PCOD9436089
_publ_section_title
;
Structure prediction by ZEFSAII (Michael W. Deem and Ramdas Pophale) SiO2 
 PCOD9436089
Probable space group: P B C M
;
_chemical_formula_sum "Si O2"
_cell_formula_units_Z 48
_cell_length_a 10.527971
_cell_length_b 28.955390
_cell_length_c 8.594426
_cell_angle_alpha 90.000000
_cell_angle_beta 90.000000
_cell_angle_gamma 90.000000
_cell_volume 2619.937767
_symmetry_space_group_name_H-M "P B C M"
_symmetry_group_IT_number 57
_symmetry_cell_setting 'orthorhombic'
loop_
_space_group_symop_operation_xyz
x,y,z
-x,-y,1/2+z
x,1/2-y,-z
-x,1/2+y,1/2-z
-x,-y,-z
x,y,1/2-z
-x,1/2+y,z
x,1/2-y,1/2+z
loop_
_atom_site_type_symbol
_atom_site_label
_atom_site_fract_x
_atom_site_fract_y
_atom_site_fract_z
Si Si1 0.892598 0.700773 0.063407
Si Si2 0.517117 0.606186 0.063305
Si Si3 0.014871 0.604466 0.061797
Si Si4 0.733614 0.442404 0.436528
Si Si5 0.393406 0.200480 0.935271
Si Si6 0.234957 0.451524 0.939166
O O1 0.883166 0.702685 0.250000
O O2 0.978564 0.657044 0.020695
O O3 0.938920 0.750000 0.000000
O O4 0.750467 0.693618 0.997917
O O5 0.519270 0.608991 0.250000
O O6 0.643331 0.578366 0.011258
O O7 0.392916 0.579240 0.008471
O O8 0.524979 0.657499 0.994485
O O9 0.024738 0.601858 0.250000
O O10 0.896308 0.572335 0.011601
O O11 0.143969 0.586607 0.987791
O O12 0.722532 0.442254 0.250000
O O13 0.752260 0.495501 0.489331
O O14 0.390719 0.201964 0.750000
O O15 0.437274 0.250000 0.000000
O O16 0.234592 0.451047 0.750000
#
# Coordination Sequence:
#
# PCOD9436089 Si02
#       6
#     8   8   8   8   8   8
#     4  10  19  34  58  85 115 147 188 234 283 338
#     4  11  21  39  61  83 115 155 192 236 288 340
#     4  10  20  38  59  82 114 155 192 232 289 346
#     4  11  23  37  55  85 119 152 192 241 289 344
#     4  11  21  35  58  88 117 146 187 235 284 338
#     4   9  19  37  60  83 113 150 195 241 286 339
#
# _framework density 18.321045999999999
#
# number of rings (size 3 to 8) (size 9 to 14) (size 15 to 20)
#    0.000    1.667    1.667    5.000    0.000    1.333 
#    0.000    4.167    0.000    2.000    0.000    0.000 
#    0.000    0.000    0.000    0.000    0.000    0.000 
#
# Total GULP energy -268191.237984 kJ/mol
# GULP energy per Si atom -5587.317458 kJ/mol
# Density = 1.827935 g / cm^3
# Si number density = 18.321046 Si / 1000 Ang^3
#
#
#
# Elastic Constant Matrix: (Units=GPa)
#
#
# Indices 1 2 3 4 5 6 
#
# 1 49.3470 0.4614 8.4364 0.0000 0.0000 0.0000
# 2 0.4614 101.9580 26.3425 0.0000 0.0000 0.0000
# 3 8.4364 26.3425 60.3428 0.0000 0.0000 0.0000
# 4 0.0000 0.0000 0.0000 24.9496 0.0000 0.0000
# 5 0.0000 0.0000 0.0000 0.0000 20.7095 0.0000
# 6 0.0000 0.0000 0.0000 0.0000 0.0000 -7.6733
#
#
#
# Elastic Compliance Matrix: (Units=1/GPa)
#
#
# Indices 1 2 3 4 5 6 
#
# 1 0.020810 0.000741 -0.003233 0.000000 0.000000 0.000000
# 2 0.000741 0.011081 -0.004941 0.000000 0.000000 0.000000
# 3 -0.003233 -0.004941 0.019181 0.000000 0.000000 0.000000
# 4 0.000000 0.000000 0.000000 0.040081 0.000000 0.000000
# 5 0.000000 0.000000 0.000000 0.000000 0.048287 0.000000
# 6 0.000000 0.000000 0.000000 0.000000 0.000000 -0.130321
#
#
# Mechanical properties :
#
#
# Convention : Reuss Voigt Hill
#
# Bulk Modulus (GPa) = 27.61917 31.34760 29.48338
# Shear Modulus (GPa) = 138.68066 19.35764 79.01915
#
# Velocity S-wave (km/s) = 8.70971 3.25403 6.57449
# Velocity P-wave (km/s) = 10.78208 5.59157 8.58833
#
# Compressibility (1/GPa) = 0.03620674
#
# Stress axis : x y z
#
# Youngs Moduli (GPa) = 48.05278 90.24280 52.13486
#
# Poissons Ratio (x) = -0.06688 0.16855
# Poissons Ratio (y) = -0.03561 0.25760
# Poissons Ratio (z) = 0.15535 0.44590
#
# Static dielectric constant tensor:
#      x y z
#    x 1.590170 0.000000 0.000000 
#    y 0.000000 1.633130 0.000000 
#    z 0.000000 0.000000 1.618170 
# 
# From -- ./inp_files/2109.got.cif
#   From: 2010.05.17/outbox.cif.g08.bks.cpg/sg57_2_cif.got.tgz:2109.got - 2010.06.03 13:58:18.
