data_PCOD9436720
_publ_section_title
;
Structure prediction by ZEFSAII (Michael W. Deem and Ramdas Pophale) SiO2 
 PCOD9436720
Probable space group: P B C M
;
_chemical_formula_sum "Si O2"
_cell_formula_units_Z 48
_cell_length_a 12.249109
_cell_length_b 8.746753
_cell_length_c 22.589885
_cell_angle_alpha 90.000000
_cell_angle_beta 90.000000
_cell_angle_gamma 90.000000
_cell_volume 2420.278718
_symmetry_space_group_name_H-M "P B C M"
_symmetry_group_IT_number 57
_symmetry_cell_setting 'orthorhombic'
loop_
_space_group_symop_operation_xyz
x,y,z
-x,-y,1/2+z
x,1/2-y,-z
-x,1/2+y,1/2-z
-x,-y,-z
x,y,1/2-z
-x,1/2+y,z
x,1/2-y,1/2+z
loop_
_atom_site_type_symbol
_atom_site_label
_atom_site_fract_x
_atom_site_fract_y
_atom_site_fract_z
Si Si1 0.001227 0.249337 0.412007
Si Si2 0.845399 0.991073 0.112153
Si Si3 0.639661 0.630616 0.681958
Si Si4 0.381439 0.853105 0.058634
Si Si5 0.502832 0.892658 0.872792
Si Si6 0.850610 0.007771 0.970653
O O1 0.066523 0.363264 0.370175
O O2 0.940645 0.361953 0.458189
O O3 0.093971 0.138882 0.439965
O O4 0.906668 0.151700 0.381061
O O5 0.736810 0.950215 0.146275
O O6 0.829215 0.982120 0.040407
O O7 0.666707 0.658840 0.750000
O O8 0.540722 0.509222 0.676234
O O9 0.601392 0.786172 0.649615
O O10 0.408689 0.726942 0.108477
O O11 0.261506 0.927219 0.056337
O O12 0.461189 0.996141 0.072966
O O13 0.397378 0.750000 0.000000
#
# Coordination Sequence:
#
# PCOD9436720 Si02
#       6
#     8   8   8   8   8   8
#     4  10  20  33  55  83 116 148 178 216 273 344
#     4  11  20  34  54  80 110 146 183 224 272 325
#     4  11  23  41  60  79 104 145 198 244 278 319
#     4  11  21  35  56  87 119 145 176 221 281 350
#     4  10  23  39  58  81 111 148 184 230 286 337
#     4  11  19  32  53  84 117 148 178 213 268 341
#
# _framework density 19.832426000000002
#
# number of rings (size 3 to 8) (size 9 to 14) (size 15 to 20)
#    0.000    1.333    0.000    9.000    0.000    1.333 
#    0.000    0.833    0.000    0.000    0.000    0.000 
#    0.000    0.000    0.000    0.000    0.000    0.000 
#
# Total GULP energy -267661.603508 kJ/mol
# GULP energy per Si atom -5576.283406 kJ/mol
# Density = 1.978729 g / cm^3
# Si number density = 19.832426 Si / 1000 Ang^3
#
#
#
# Elastic Constant Matrix: (Units=GPa)
#
#
# Indices 1 2 3 4 5 6 
#
# 1 77.1831 33.8281 36.7396 0.0000 0.0000 0.0000
# 2 33.8281 130.8409 33.6647 0.0000 0.0000 0.0000
# 3 36.7396 33.6647 66.2742 0.0000 0.0000 0.0000
# 4 0.0000 0.0000 0.0000 8.1219 0.0000 0.0000
# 5 0.0000 0.0000 0.0000 0.0000 15.9870 0.0000
# 6 0.0000 0.0000 0.0000 0.0000 0.0000 35.2699
#
#
#
# Elastic Compliance Matrix: (Units=1/GPa)
#
#
# Indices 1 2 3 4 5 6 
#
# 1 0.018250 -0.002433 -0.008881 0.000000 0.000000 0.000000
# 2 -0.002433 0.009116 -0.003282 0.000000 0.000000 0.000000
# 3 -0.008881 -0.003282 0.021679 0.000000 0.000000 0.000000
# 4 0.000000 0.000000 0.000000 0.123124 0.000000 0.000000
# 5 0.000000 0.000000 0.000000 0.000000 0.062551 0.000000
# 6 0.000000 0.000000 0.000000 0.000000 0.000000 0.028353
#
#
# Mechanical properties :
#
#
# Convention : Reuss Voigt Hill
#
# Bulk Modulus (GPa) = 50.36973 53.64033 52.00503
# Shear Modulus (GPa) = 16.72893 23.21348 19.97120
#
# Velocity S-wave (km/s) = 2.90748 3.42494 3.17676
# Velocity P-wave (km/s) = 6.06004 6.53803 6.30356
#
# Compressibility (1/GPa) = 0.01985319
#
# Stress axis : x y z
#
# Youngs Moduli (GPa) = 54.79409 109.69240 46.12739
#
# Poissons Ratio (x) = 0.26693 0.40966
# Poissons Ratio (y) = 0.13334 0.15138
# Poissons Ratio (z) = 0.48663 0.35999
#
# Static dielectric constant tensor:
#      x y z
#    x 1.734540 0.000000 0.000000 
#    y 0.000000 1.746920 0.000000 
#    z 0.000000 0.000000 1.708700 
# 
# From -- ./inp_files/27116.got.cif
#   From: 2010.05.17/outbox.cif.g08.bks.cpg/sg57_14_cif.got.tgz:27116.got - 2010.06.03 13:58:18.
