data_PCOD9436216
_publ_section_title
;
Structure prediction by ZEFSAII (Michael W. Deem and Ramdas Pophale) SiO2 
 PCOD9436216
Probable space group: P B C M
;
_chemical_formula_sum "Si O2"
_cell_formula_units_Z 64
_cell_length_a 21.255435
_cell_length_b 19.083388
_cell_length_c 8.658672
_cell_angle_alpha 90.000000
_cell_angle_beta 90.000000
_cell_angle_gamma 90.000000
_cell_volume 3512.180005
_symmetry_space_group_name_H-M "P B C M"
_symmetry_group_IT_number 57
_symmetry_cell_setting 'orthorhombic'
loop_
_space_group_symop_operation_xyz
x,y,z
-x,-y,1/2+z
x,1/2-y,-z
-x,1/2+y,1/2-z
-x,-y,-z
x,y,1/2-z
-x,1/2+y,z
x,1/2-y,1/2+z
loop_
_atom_site_type_symbol
_atom_site_label
_atom_site_fract_x
_atom_site_fract_y
_atom_site_fract_z
Si Si1 0.604746 0.674249 0.934087
Si Si2 0.246382 0.325737 0.066235
Si Si3 0.188916 0.466243 0.935422
Si Si4 0.880172 0.173589 0.564213
Si Si5 0.936890 0.034257 0.065546
Si Si6 0.499192 0.922042 0.566227
Si Si7 0.614129 0.171589 0.563685
Si Si8 0.252799 0.892201 0.063096
O O1 0.594715 0.672410 0.750000
O O2 0.678957 0.665501 0.965198
O O3 0.585728 0.750000 0.000000
O O4 0.563291 0.616047 0.016013
O O5 0.237375 0.326283 0.250000
O O6 0.227497 0.250000 0.000000
O O7 0.210549 0.390495 0.990664
O O8 0.183358 0.468067 0.750000
O O9 0.238659 0.527365 0.982098
O O10 0.122846 0.489190 0.008320
O O11 0.895475 0.250000 0.500000
O O12 0.882684 0.173115 0.750000
O O13 0.924636 0.112340 0.499630
O O14 0.808654 0.152382 0.515895
O O15 0.938706 0.036150 0.250000
O O16 0.000000 0.000000 0.000000
O O17 0.493572 0.923451 0.750000
O O18 0.441887 0.877406 0.495646
O O19 0.500000 0.000000 0.500000
O O20 0.606909 0.250000 0.500000
O O21 0.613056 0.173254 0.750000
O O22 0.681367 0.139824 0.510039
O O23 0.254304 0.890775 0.250000
#
# Coordination Sequence:
#
# PCOD9436216 Si02
#       8
#     8   8   8   8   8   8   8   8
#     4  10  21  39  61  85 111 146 190 237 289 349
#     4  10  21  37  59  88 117 150 192 240 292 348
#     4  10  20  37  60  88 120 155 192 237 288 341
#     4  10  19  35  58  88 121 156 196 240 286 341
#     4  11  22  39  61  87 119 159 200 241 287 341
#     4  12  26  42  58  80 109 147 190 241 293 349
#     4  11  22  39  59  84 115 152 190 234 286 344
#     4   8  18  34  56  85 117 152 189 230 282 338
#
# _framework density 18.222300000000001
#
# number of rings (size 3 to 8) (size 9 to 14) (size 15 to 20)
#    0.000    1.750    0.000    5.625    1.750    1.500 
#    0.000    6.875    0.000    0.000    0.000    0.000 
#    0.000    0.000    0.000    0.000    0.000    0.000 
#
# Total GULP energy -357620.043181 kJ/mol
# GULP energy per Si atom -5587.813175 kJ/mol
# Density = 1.818083 g / cm^3
# Si number density = 18.222300 Si / 1000 Ang^3
#
#
#
# Elastic Constant Matrix: (Units=GPa)
#
#
# Indices 1 2 3 4 5 6 
#
# 1 80.7992 84.3989 54.5339 0.0000 0.0000 0.0000
# 2 84.3989 193.3433 76.1747 0.0000 0.0000 0.0000
# 3 54.5339 76.1747 107.2129 0.0000 0.0000 0.0000
# 4 0.0000 0.0000 0.0000 35.2727 0.0000 0.0000
# 5 0.0000 0.0000 0.0000 0.0000 25.2111 0.0000
# 6 0.0000 0.0000 0.0000 0.0000 0.0000 23.9239
#
#
#
# Elastic Compliance Matrix: (Units=1/GPa)
#
#
# Indices 1 2 3 4 5 6 
#
# 1 0.026253 -0.008609 -0.007237 0.000000 0.000000 0.000000
# 2 -0.008609 0.010006 -0.002730 0.000000 0.000000 0.000000
# 3 -0.007237 -0.002730 0.014948 0.000000 0.000000 0.000000
# 4 0.000000 0.000000 0.000000 0.028351 0.000000 0.000000
# 5 0.000000 0.000000 0.000000 0.000000 0.039665 0.000000
# 6 0.000000 0.000000 0.000000 0.000000 0.000000 0.041799
#
#
# Mechanical properties :
#
#
# Convention : Reuss Voigt Hill
#
# Bulk Modulus (GPa) = 71.14970 90.17448 80.66209
# Shear Modulus (GPa) = 24.64760 27.96474 26.30617
#
# Velocity S-wave (km/s) = 3.68177 3.92170 3.80363
# Velocity P-wave (km/s) = 7.56334 8.37255 7.97821
#
# Compressibility (1/GPa) = 0.01405487
#
# Stress axis : x y z
#
# Youngs Moduli (GPa) = 38.09041 99.94238 66.89747
#
# Poissons Ratio (x) = 0.86039 0.48415
# Poissons Ratio (y) = 0.32791 0.18264
# Poissons Ratio (z) = 0.27567 0.27286
#
# Static dielectric constant tensor:
#      x y z
#    x 1.612220 0.000000 0.000000 
#    y 0.000000 1.587910 0.000000 
#    z 0.000000 0.000000 1.607620 
# 
# From -- ./inp_files/7128.got.cif
#   From: 2010.05.17/outbox.cif.g08.bks.cpg/sg57_4_cif.got.tgz:7128.got - 2010.06.03 13:58:18.
