data_PCOD9436615
_publ_section_title
;
Structure prediction by ZEFSAII (Michael W. Deem and Ramdas Pophale) SiO2 
 PCOD9436615
Probable space group: P B C M
;
_chemical_formula_sum "Si O2"
_cell_formula_units_Z 64
_cell_length_a 16.462293
_cell_length_b 24.940681
_cell_length_c 8.811290
_cell_angle_alpha 90.000000
_cell_angle_beta 90.000000
_cell_angle_gamma 90.000000
_cell_volume 3617.746482
_symmetry_space_group_name_H-M "P B C M"
_symmetry_group_IT_number 57
_symmetry_cell_setting 'orthorhombic'
loop_
_space_group_symop_operation_xyz
x,y,z
-x,-y,1/2+z
x,1/2-y,-z
-x,1/2+y,1/2-z
-x,-y,-z
x,y,1/2-z
-x,1/2+y,z
x,1/2-y,1/2+z
loop_
_atom_site_type_symbol
_atom_site_label
_atom_site_fract_x
_atom_site_fract_y
_atom_site_fract_z
Si Si1 0.056457 0.917509 0.932079
Si Si2 0.885641 0.526778 0.067112
Si Si3 0.560263 0.541763 0.927228
Si Si4 0.867389 0.189850 0.931629
Si Si5 0.321894 0.809155 0.431713
Si Si6 0.518401 0.356067 0.929203
Si Si7 0.649344 0.695061 0.428506
Si Si8 0.282013 0.081229 0.433057
O O1 0.063120 0.914102 0.750000
O O2 0.965159 0.937789 0.971461
O O3 0.080781 0.859812 0.001515
O O4 0.109545 0.967763 0.993325
O O5 0.885294 0.519880 0.250000
O O6 0.805482 0.559322 0.021550
O O7 0.569280 0.533353 0.750000
O O8 0.500000 0.500000 0.000000
O O9 0.517623 0.597619 0.966745
O O10 0.647744 0.542742 0.005751
O O11 0.878637 0.193018 0.750000
O O12 0.772085 0.175696 0.960876
O O13 0.882402 0.250000 0.000000
O O14 0.330784 0.750000 0.500000
O O15 0.334829 0.809392 0.250000
O O16 0.391946 0.842340 0.514786
O O17 0.518396 0.370769 0.750000
O O18 0.448383 0.311012 0.947086
O O19 0.678055 0.750000 0.500000
O O20 0.664712 0.697042 0.250000
O O21 0.693910 0.641214 0.486740
O O22 0.285984 0.081818 0.250000
#
# Coordination Sequence:
#
# PCOD9436615 Si02
#       8
#     8   8   8   8   8   8   8   8
#     4  10  20  35  58  86 111 138 177 222 269 323
#     4   9  19  37  60  82 108 142 178 220 270 323
#     4  11  22  36  53  74 102 136 174 215 262 314
#     4  10  21  37  56  79 111 148 183 222 271 324
#     4  10  20  33  50  74 103 137 176 217 261 308
#     4  10  20  34  51  72  99 134 176 219 262 309
#     4   9  18  31  49  72  99 133 171 212 258 310
#     4   9  19  37  56  76 106 141 177 220 270 320
#
# _framework density 17.690570999999998
#
# number of rings (size 3 to 8) (size 9 to 14) (size 15 to 20)
#    0.000    2.250    0.000    3.750    0.000    7.000 
#    0.000    1.875    0.000    1.500    0.000    0.000 
#    0.000    0.000    0.000    0.000    0.000    0.000 
#
# Total GULP energy -356712.731629 kJ/mol
# GULP energy per Si atom -5573.636432 kJ/mol
# Density = 1.765031 g / cm^3
# Si number density = 17.690571 Si / 1000 Ang^3
#
#
#
# Elastic Constant Matrix: (Units=GPa)
#
#
# Indices 1 2 3 4 5 6 
#
# 1 102.6037 66.5939 35.0979 0.0000 0.0000 0.0000
# 2 66.5939 101.8111 40.8090 0.0000 0.0000 0.0000
# 3 35.0979 40.8090 39.3580 0.0000 0.0000 0.0000
# 4 0.0000 0.0000 0.0000 34.8370 0.0000 0.0000
# 5 0.0000 0.0000 0.0000 0.0000 25.4038 0.0000
# 6 0.0000 0.0000 0.0000 0.0000 0.0000 43.4598
#
#
#
# Elastic Compliance Matrix: (Units=1/GPa)
#
#
# Indices 1 2 3 4 5 6 
#
# 1 0.017866 -0.009069 -0.006529 0.000000 0.000000 0.000000
# 2 -0.009069 0.021411 -0.014113 0.000000 0.000000 0.000000
# 3 -0.006529 -0.014113 0.045863 0.000000 0.000000 0.000000
# 4 0.000000 0.000000 0.000000 0.028705 0.000000 0.000000
# 5 0.000000 0.000000 0.000000 0.000000 0.039364 0.000000
# 6 0.000000 0.000000 0.000000 0.000000 0.000000 0.023010
#
#
# Mechanical properties :
#
#
# Convention : Reuss Voigt Hill
#
# Bulk Modulus (GPa) = 38.88238 58.75271 48.81755
# Shear Modulus (GPa) = 20.47397 27.49158 23.98278
#
# Velocity S-wave (km/s) = 3.40566 3.94639 3.68595
# Velocity P-wave (km/s) = 6.12303 7.35178 6.76536
#
# Compressibility (1/GPa) = 0.02571859
#
# Stress axis : x y z
#
# Youngs Moduli (GPa) = 55.97363 46.70509 21.80402
#
# Poissons Ratio (x) = 0.42356 0.14235
# Poissons Ratio (y) = 0.50762 0.30772
# Poissons Ratio (z) = 0.36543 0.65915
#
# Static dielectric constant tensor:
#      x y z
#    x 1.612720 0.000000 0.000000 
#    y 0.000000 1.570060 0.000000 
#    z 0.000000 0.000000 1.594590 
# 
# From -- ./inp_files/5623.got.cif
#   From: 2010.05.17/outbox.cif.g08.bks.cpg/sg57_3_cif.got.tgz:5623.got - 2010.06.03 13:58:18.
