data_PCOD9436675
_publ_section_title
;
Structure prediction by ZEFSAII (Michael W. Deem and Ramdas Pophale) SiO2 
 PCOD9436675
Probable space group: P B C M
;
_chemical_formula_sum "Si O2"
_cell_formula_units_Z 48
_cell_length_a 9.860869
_cell_length_b 31.107824
_cell_length_c 7.622115
_cell_angle_alpha 90.000000
_cell_angle_beta 90.000000
_cell_angle_gamma 90.000000
_cell_volume 2338.085128
_symmetry_space_group_name_H-M "P B C M"
_symmetry_group_IT_number 57
_symmetry_cell_setting 'orthorhombic'
loop_
_space_group_symop_operation_xyz
x,y,z
-x,-y,1/2+z
x,1/2-y,-z
-x,1/2+y,1/2-z
-x,-y,-z
x,y,1/2-z
-x,1/2+y,z
x,1/2-y,1/2+z
loop_
_atom_site_type_symbol
_atom_site_label
_atom_site_fract_x
_atom_site_fract_y
_atom_site_fract_z
Si Si1 0.845633 0.550214 0.542222
Si Si2 0.833762 0.298955 0.960314
Si Si3 0.647949 0.377389 0.534430
Si Si4 0.658044 0.628495 0.454722
Si Si5 0.141535 0.200938 0.461065
Si Si6 0.154134 0.952459 0.538444
O O1 0.823207 0.549659 0.750000
O O2 0.742880 0.584627 0.465243
O O3 0.828159 0.501418 0.473755
O O4 0.002299 0.562402 0.508705
O O5 0.839508 0.303050 0.750000
O O6 0.729717 0.334993 0.022676
O O7 0.987559 0.305657 0.027896
O O8 0.793295 0.250000 0.000000
O O9 0.647872 0.378316 0.750000
O O10 0.493021 0.376545 0.472199
O O11 0.732419 0.419229 0.477266
O O12 0.638936 0.639393 0.250000
O O13 0.751751 0.666347 0.531322
O O14 0.180698 0.250000 0.500000
O O15 0.135336 0.196035 0.250000
O O16 0.159405 0.953884 0.750000
#
# Coordination Sequence:
#
# PCOD9436675 Si02
#       6
#     8   8   8   8   8   8
#     4  10  20  33  52  78 103 129 166 212 256 296
#     4   9  17  31  50  71  95 125 164 206 245 288
#     4   9  18  33  53  74  98 133 172 204 241 298
#     4  10  20  34  52  74 102 137 170 200 245 304
#     4   9  18  32  51  73  97 129 168 208 248 292
#     4   9  18  35  56  75  98 131 171 212 252 297
#
# _framework density 20.529620000000001
#
# number of rings (size 3 to 8) (size 9 to 14) (size 15 to 20)
#    0.000    2.667    0.000    1.500    0.000    5.333 
#    0.000    5.833    0.000    0.000    0.000    0.000 
#    0.000    0.000    0.000    0.000    0.000    0.000 
#
# Total GULP energy -267937.982860 kJ/mol
# GULP energy per Si atom -5582.041310 kJ/mol
# Density = 2.048289 g / cm^3
# Si number density = 20.529620 Si / 1000 Ang^3
#
#
#
# Elastic Constant Matrix: (Units=GPa)
#
#
# Indices 1 2 3 4 5 6 
#
# 1 168.4896 119.3842 -4.6186 0.0000 0.0000 0.0000
# 2 119.3842 127.9916 -8.6985 0.0000 0.0000 0.0000
# 3 -4.6186 -8.6985 38.0063 0.0000 0.0000 0.0000
# 4 0.0000 0.0000 0.0000 21.1293 0.0000 0.0000
# 5 0.0000 0.0000 0.0000 0.0000 16.5857 0.0000
# 6 0.0000 0.0000 0.0000 0.0000 0.0000 -32.6879
#
#
#
# Elastic Compliance Matrix: (Units=1/GPa)
#
#
# Indices 1 2 3 4 5 6 
#
# 1 0.017603 -0.016531 -0.001644 0.000000 0.000000 0.000000
# 2 -0.016531 0.023461 0.003361 0.000000 0.000000 0.000000
# 3 -0.001644 0.003361 0.026881 0.000000 0.000000 0.000000
# 4 0.000000 0.000000 0.000000 0.047328 0.000000 0.000000
# 5 0.000000 0.000000 0.000000 0.000000 0.060293 0.000000
# 6 0.000000 0.000000 0.000000 0.000000 0.000000 -0.030592
#
#
# Mechanical properties :
#
#
# Convention : Reuss Voigt Hill
#
# Bulk Modulus (GPa) = 26.09943 60.73574 43.41758
# Shear Modulus (GPa) = 26.68448 16.23343 21.45896
#
# Velocity S-wave (km/s) = 3.60919 2.81505 3.23657
# Velocity P-wave (km/s) = 5.48717 6.34150 5.92974
#
# Compressibility (1/GPa) = 0.03831502
#
# Stress axis : x y z
#
# Youngs Moduli (GPa) = 56.80751 42.62409 37.20138
#
# Poissons Ratio (x) = 0.70463 0.06117
# Poissons Ratio (y) = 0.93910 -0.12502
# Poissons Ratio (z) = 0.09341 -0.14324
#
# Static dielectric constant tensor:
#      x y z
#    x 1.709170 0.000000 0.000000 
#    y 0.000000 1.712890 0.000000 
#    z 0.000000 0.000000 1.766770 
# 
# From -- ./inp_files/1983.got.cif
#   From: 2010.05.17/outbox.cif.g08.bks.cpg/sg57_1_cif.got.tgz:1983.got - 2010.06.03 13:58:18.
