data_PCOD9436638
_publ_section_title
;
Structure prediction by ZEFSAII (Michael W. Deem and Ramdas Pophale) SiO2 
 PCOD9436638
Probable space group: P B C M
;
_chemical_formula_sum "Si O2"
_cell_formula_units_Z 64
_cell_length_a 19.252459
_cell_length_b 7.921403
_cell_length_c 17.289377
_cell_angle_alpha 90.000000
_cell_angle_beta 90.000000
_cell_angle_gamma 90.000000
_cell_volume 2636.742140
_symmetry_space_group_name_H-M "P B C M"
_symmetry_group_IT_number 57
_symmetry_cell_setting 'orthorhombic'
loop_
_space_group_symop_operation_xyz
x,y,z
-x,-y,1/2+z
x,1/2-y,-z
-x,1/2+y,1/2-z
-x,-y,-z
x,y,1/2-z
-x,1/2+y,z
x,1/2-y,1/2+z
loop_
_atom_site_type_symbol
_atom_site_label
_atom_site_fract_x
_atom_site_fract_y
_atom_site_fract_z
Si Si1 0.479178 0.964737 0.658990
Si Si2 0.857116 0.003033 0.159576
Si Si3 0.267303 0.679590 0.082258
Si Si4 0.389631 0.623930 0.659737
Si Si5 0.222277 0.191401 0.090937
Si Si6 0.359433 0.333128 0.419525
Si Si7 0.982562 0.798055 0.342904
Si Si8 0.113281 0.968189 0.341955
O O1 0.485627 0.998439 0.750000
O O2 0.557789 0.981295 0.627534
O O3 0.425663 0.100669 0.625453
O O4 0.441141 0.786538 0.651427
O O5 0.867551 0.036420 0.250000
O O6 0.802872 0.139069 0.128116
O O7 0.931134 0.943774 0.124923
O O8 0.813832 0.829769 0.145736
O O9 0.319952 0.812765 0.120030
O O10 0.311358 0.504034 0.072141
O O11 0.248032 0.750000 0.000000
O O12 0.374049 0.594489 0.750000
O O13 0.303229 0.199710 0.113901
O O14 0.179961 0.021621 0.108382
O O15 0.216091 0.250000 0.000000
O O16 0.380005 0.250000 0.500000
O O17 0.986642 0.823542 0.250000
O O18 0.062746 0.815129 0.367612
O O19 0.940970 0.624879 0.352701
O O20 0.130684 0.957042 0.250000
#
# Coordination Sequence:
#
# PCOD9436638 Si02
#       8
#     8   8   8   8   8   8   8   8
#     4   9  18  32  52  74  96 124 165 208 243 287
#     4   9  17  33  55  74  96 136 179 209 246 308
#     4  10  20  33  51  76 101 127 165 212 253 293
#     4   9  18  33  51  73  98 127 161 202 247 295
#     4   9  17  30  48  73 101 128 163 211 254 294
#     4   9  19  34  50  68  97 132 162 197 246 304
#     4   8  15  28  48  71  94 124 167 210 248 293
#     4   9  16  29  48  69  94 128 166 205 247 298
#
# _framework density 24.272378
#
# number of rings (size 3 to 8) (size 9 to 14) (size 15 to 20)
#    0.000    3.000    0.000    1.500    0.000    5.000 
#    0.000    9.375    0.000    0.750    0.000    7.875 
#    0.000    0.000    0.000    0.000    0.000    0.000 
#
# Total GULP energy -357360.281234 kJ/mol
# GULP energy per Si atom -5583.754394 kJ/mol
# Density = 2.421713 g / cm^3
# Si number density = 24.272378 Si / 1000 Ang^3
#
#
#
# Elastic Constant Matrix: (Units=GPa)
#
#
# Indices 1 2 3 4 5 6 
#
# 1 144.5570 0.6208 27.1260 0.0000 0.0000 0.0000
# 2 0.6208 71.8297 4.5051 0.0000 0.0000 0.0000
# 3 27.1260 4.5051 34.5561 0.0000 0.0000 0.0000
# 4 0.0000 0.0000 0.0000 3.8276 0.0000 0.0000
# 5 0.0000 0.0000 0.0000 0.0000 65.8860 0.0000
# 6 0.0000 0.0000 0.0000 0.0000 0.0000 46.5953
#
#
#
# Elastic Compliance Matrix: (Units=1/GPa)
#
#
# Indices 1 2 3 4 5 6 
#
# 1 0.008121 0.000332 -0.006418 0.000000 0.000000 0.000000
# 2 0.000332 0.014050 -0.002093 0.000000 0.000000 0.000000
# 3 -0.006418 -0.002093 0.034249 0.000000 0.000000 0.000000
# 4 0.000000 0.000000 0.000000 0.261264 0.000000 0.000000
# 5 0.000000 0.000000 0.000000 0.000000 0.015178 0.000000
# 6 0.000000 0.000000 0.000000 0.000000 0.000000 0.021461
#
#
# Mechanical properties :
#
#
# Convention : Reuss Voigt Hill
#
# Bulk Modulus (GPa) = 24.96024 35.04961 30.00493
# Shear Modulus (GPa) = 13.01970 37.84116 25.43043
#
# Velocity S-wave (km/s) = 2.31854 3.95273 3.24035
# Velocity P-wave (km/s) = 4.18010 5.94168 5.13696
#
# Compressibility (1/GPa) = 0.04006372
#
# Stress axis : x y z
#
# Youngs Moduli (GPa) = 123.14425 71.17339 29.19775
#
# Poissons Ratio (x) = -0.02365 0.18739
# Poissons Ratio (y) = -0.04093 0.06110
# Poissons Ratio (z) = 0.79032 0.14894
#
# Static dielectric constant tensor:
#      x y z
#    x 1.948920 0.000000 0.000000 
#    y 0.000000 2.115210 0.000000 
#    z 0.000000 0.000000 1.857590 
# 
# From -- ./inp_files/23031.got.cif
#   From: 2010.05.17/outbox.cif.g08.bks.cpg/sg57_12_cif.got.tgz:23031.got - 2010.06.03 13:58:18.
