data_PCOD9436545
_publ_section_title
;
Structure prediction by ZEFSAII (Michael W. Deem and Ramdas Pophale) SiO2 
 PCOD9436545
Probable space group: P B C M
;
_chemical_formula_sum "Si O2"
_cell_formula_units_Z 44
_cell_length_a 8.301461
_cell_length_b 21.162554
_cell_length_c 11.336855
_cell_angle_alpha 90.000000
_cell_angle_beta 90.000000
_cell_angle_gamma 90.000000
_cell_volume 1991.660009
_symmetry_space_group_name_H-M "P B C M"
_symmetry_group_IT_number 57
_symmetry_cell_setting 'orthorhombic'
loop_
_space_group_symop_operation_xyz
x,y,z
-x,-y,1/2+z
x,1/2-y,-z
-x,1/2+y,1/2-z
-x,-y,-z
x,y,1/2-z
-x,1/2+y,z
x,1/2-y,1/2+z
loop_
_atom_site_type_symbol
_atom_site_label
_atom_site_fract_x
_atom_site_fract_y
_atom_site_fract_z
Si Si1 0.501739 0.070114 0.886739
Si Si2 0.628240 0.143894 0.380730
Si Si3 0.961714 0.101564 0.047572
Si Si4 0.213329 0.147986 0.885560
Si Si5 0.549557 0.750000 0.500000
Si Si6 0.800096 0.501540 0.120291
O O1 0.532299 0.094471 0.750000
O O2 0.308940 0.079900 0.895878
O O3 0.605595 0.005305 0.889489
O O4 0.569963 0.107809 0.999920
O O5 0.571370 0.122428 0.250000
O O6 0.561561 0.213850 0.405607
O O7 0.820850 0.135680 0.382517
O O8 0.048950 0.147088 0.956122
O O9 0.875784 0.044889 0.975911
O O10 0.111547 0.068615 0.113935
O O11 0.183183 0.159876 0.750000
O O12 0.335112 0.199454 0.936933
O O13 0.842024 0.475479 0.250000
#
# Coordination Sequence:
#
# PCOD9436545 Si02
#       6
#     8   8   8   8   4   8
#     4   8  17  34  58  83 114 152 189 223 271 332
#     4  10  20  37  58  83 111 146 187 232 280 333
#     4  10  20  32  54  84 114 143 184 228 275 329
#     4  10  20  37  57  82 111 145 189 238 282 332
#     4  10  22  40  60  78 106 146 190 236 290 338
#     4   9  17  33  53  78 113 152 183 219 269 330
#
# _framework density 22.092124999999999
#
# number of rings (size 3 to 8) (size 9 to 14) (size 15 to 20)
#    0.000    2.545    0.000    1.636    0.000    2.909 
#    0.000   11.818    0.000    4.364    0.000    0.000 
#    0.000    0.000    0.000    0.000    0.000    0.000 
#
# Total GULP energy -244943.373956 kJ/mol
# GULP energy per Si atom -5566.894863 kJ/mol
# Density = 2.204184 g / cm^3
# Si number density = 22.092125 Si / 1000 Ang^3
#
#
#
# Elastic Constant Matrix: (Units=GPa)
#
#
# Indices 1 2 3 4 5 6 
#
# 1 67.5629 26.8005 43.9264 0.0000 0.0000 0.0000
# 2 26.8005 55.1378 21.8712 0.0000 0.0000 0.0000
# 3 43.9264 21.8712 141.9192 0.0000 0.0000 0.0000
# 4 0.0000 0.0000 0.0000 22.2644 0.0000 0.0000
# 5 0.0000 0.0000 0.0000 0.0000 5.4905 0.0000
# 6 0.0000 0.0000 0.0000 0.0000 0.0000 -11.4379
#
#
#
# Elastic Compliance Matrix: (Units=1/GPa)
#
#
# Indices 1 2 3 4 5 6 
#
# 1 0.021637 -0.008372 -0.005407 0.000000 0.000000 0.000000
# 2 -0.008372 0.022557 -0.000885 0.000000 0.000000 0.000000
# 3 -0.005407 -0.000885 0.008856 0.000000 0.000000 0.000000
# 4 0.000000 0.000000 0.000000 0.044915 0.000000 0.000000
# 5 0.000000 0.000000 0.000000 0.000000 0.182134 0.000000
# 6 0.000000 0.000000 0.000000 0.000000 0.000000 -0.087429
#
#
# Mechanical properties :
#
#
# Convention : Reuss Voigt Hill
#
# Bulk Modulus (GPa) = 42.15465 49.97956 46.06710
# Shear Modulus (GPa) = 21.74799 14.73153 18.23976
#
# Velocity S-wave (km/s) = 3.14096 2.58509 2.87648
# Velocity P-wave (km/s) = 5.68127 5.61984 5.65064
#
# Compressibility (1/GPa) = 0.02372218
#
# Stress axis : x y z
#
# Youngs Moduli (GPa) = 46.21608 44.33230 112.91596
#
# Poissons Ratio (x) = 0.37117 0.61052
# Poissons Ratio (y) = 0.38694 0.09991
# Poissons Ratio (z) = 0.24989 0.03923
#
# Static dielectric constant tensor:
#      x y z
#    x 1.830300 0.000000 0.000000 
#    y 0.000000 1.855380 0.000000 
#    z 0.000000 0.000000 1.850770 
# 
# From -- ./inp_files/11914.got.cif
#   From: 2010.05.17/outbox.cif.g08.bks.cpg/sg57_6_cif.got.tgz:11914.got - 2010.06.03 13:58:18.
