data_PCOD9436769
_publ_section_title
;
Structure prediction by ZEFSAII (Michael W. Deem and Ramdas Pophale) SiO2 
 PCOD9436769
Probable space group: P B C M
;
_chemical_formula_sum "Si O2"
_cell_formula_units_Z 48
_cell_length_a 16.751882
_cell_length_b 18.880594
_cell_length_c 8.701466
_cell_angle_alpha 90.000000
_cell_angle_beta 90.000000
_cell_angle_gamma 90.000000
_cell_volume 2752.147375
_symmetry_space_group_name_H-M "P B C M"
_symmetry_group_IT_number 57
_symmetry_cell_setting 'orthorhombic'
loop_
_space_group_symop_operation_xyz
x,y,z
-x,-y,1/2+z
x,1/2-y,-z
-x,1/2+y,1/2-z
-x,-y,-z
x,y,1/2-z
-x,1/2+y,z
x,1/2-y,1/2+z
loop_
_atom_site_type_symbol
_atom_site_label
_atom_site_fract_x
_atom_site_fract_y
_atom_site_fract_z
Si Si1 0.516702 0.171369 0.564658
Si Si2 0.242735 0.454976 0.566307
Si Si3 0.919493 0.466413 0.065193
Si Si4 0.662151 0.671878 0.566732
Si Si5 0.680342 0.397995 0.064105
Si Si6 0.838175 0.327543 0.566157
O O1 0.528693 0.250000 0.500000
O O2 0.517666 0.174100 0.750000
O O3 0.427596 0.148298 0.516861
O O4 0.591736 0.124259 0.515957
O O5 0.245922 0.446072 0.750000
O O6 0.154133 0.481279 0.525614
O O7 0.273281 0.384136 0.488896
O O8 0.299511 0.521107 0.524120
O O9 0.922970 0.460413 0.250000
O O10 0.896064 0.389661 0.996836
O O11 0.000000 0.500000 0.000000
O O12 0.675544 0.750000 0.500000
O O13 0.662913 0.676158 0.750000
O O14 0.687465 0.391140 0.250000
O O15 0.749209 0.349604 0.990153
O O16 0.857551 0.250000 0.500000
O O17 0.840701 0.326276 0.750000
#
# Coordination Sequence:
#
# PCOD9436769 Si02
#       6
#     8   8   8   8   8   8
#     4   9  18  31  47  70 101 138 178 219 261 303
#     4   9  19  35  54  76 104 135 166 207 260 312
#     4  10  21  39  61  84 110 139 171 211 262 318
#     4  10  20  34  52  73 100 136 179 222 261 305
#     4   9  18  33  51  74 106 140 174 215 263 313
#     4  11  21  34  54  81 112 144 178 216 260 311
#
# _framework density 17.440926000000001
#
# number of rings (size 3 to 8) (size 9 to 14) (size 15 to 20)
#    0.000    2.333    0.000    4.000    0.000    6.667 
#    0.000    0.833    0.000    4.000    0.000    0.000 
#    0.000    0.000    0.000    0.000    0.000    0.000 
#
# Total GULP energy -267801.901886 kJ/mol
# GULP energy per Si atom -5579.206289 kJ/mol
# Density = 1.740123 g / cm^3
# Si number density = 17.440926 Si / 1000 Ang^3
#
#
#
# Elastic Constant Matrix: (Units=GPa)
#
#
# Indices 1 2 3 4 5 6 
#
# 1 114.8129 99.6519 48.8594 0.0000 0.0000 0.0000
# 2 99.6519 132.5008 53.8395 0.0000 0.0000 0.0000
# 3 48.8594 53.8395 54.8024 0.0000 0.0000 0.0000
# 4 0.0000 0.0000 0.0000 31.2058 0.0000 0.0000
# 5 0.0000 0.0000 0.0000 0.0000 24.8014 0.0000
# 6 0.0000 0.0000 0.0000 0.0000 0.0000 22.9587
#
#
#
# Elastic Compliance Matrix: (Units=1/GPa)
#
#
# Indices 1 2 3 4 5 6 
#
# 1 0.026497 -0.017192 -0.006734 0.000000 0.000000 0.000000
# 2 -0.017192 0.023716 -0.007972 0.000000 0.000000 0.000000
# 3 -0.006734 -0.007972 0.032083 0.000000 0.000000 0.000000
# 4 0.000000 0.000000 0.000000 0.032045 0.000000 0.000000
# 5 0.000000 0.000000 0.000000 0.000000 0.040320 0.000000
# 6 0.000000 0.000000 0.000000 0.000000 0.000000 0.043556
#
#
# Mechanical properties :
#
#
# Convention : Reuss Voigt Hill
#
# Bulk Modulus (GPa) = 54.05170 78.53531 66.29350
# Shear Modulus (GPa) = 18.64414 22.44421 20.54417
#
# Velocity S-wave (km/s) = 3.27309 3.59119 3.43582
# Velocity P-wave (km/s) = 6.73370 7.89447 7.33707
#
# Compressibility (1/GPa) = 0.01850080
#
# Stress axis : x y z
#
# Youngs Moduli (GPa) = 37.73975 42.16521 31.16934
#
# Poissons Ratio (x) = 0.72491 0.20989
# Poissons Ratio (y) = 0.64882 0.24848
# Poissons Ratio (z) = 0.25413 0.33614
#
# Static dielectric constant tensor:
#      x y z
#    x 1.593450 0.000000 0.000000 
#    y 0.000000 1.563940 0.000000 
#    z 0.000000 0.000000 1.581620 
# 
# From -- ./inp_files/4624.got.cif
#   From: 2010.05.17/outbox.cif.g08.bks.cpg/sg57_3_cif.got.tgz:4624.got - 2010.06.03 13:58:18.
