data_PCOD9436444
_publ_section_title
;
Structure prediction by ZEFSAII (Michael W. Deem and Ramdas Pophale) SiO2 
 PCOD9436444
Probable space group: P B C M
;
_chemical_formula_sum "Si O2"
_cell_formula_units_Z 32
_cell_length_a 9.698511
_cell_length_b 8.530930
_cell_length_c 17.367759
_cell_angle_alpha 90.000000
_cell_angle_beta 90.000000
_cell_angle_gamma 90.000000
_cell_volume 1436.961807
_symmetry_space_group_name_H-M "P B C M"
_symmetry_group_IT_number 57
_symmetry_cell_setting 'orthorhombic'
loop_
_space_group_symop_operation_xyz
x,y,z
-x,-y,1/2+z
x,1/2-y,-z
-x,1/2+y,1/2-z
-x,-y,-z
x,y,1/2-z
-x,1/2+y,z
x,1/2-y,1/2+z
loop_
_atom_site_type_symbol
_atom_site_label
_atom_site_fract_x
_atom_site_fract_y
_atom_site_fract_z
Si Si1 0.674719 0.726336 0.088218
Si Si2 0.797044 0.259830 0.594258
Si Si3 0.441509 0.544234 0.341096
Si Si4 0.049526 0.048438 0.414056
O O1 0.589346 0.579535 0.121158
O O2 0.837305 0.687067 0.087723
O O3 0.630089 0.883344 0.132145
O O4 0.633443 0.750000 0.000000
O O5 0.784138 0.250000 0.500000
O O6 0.653678 0.311979 0.629751
O O7 0.907283 0.391538 0.620324
O O8 0.869317 0.099168 0.619131
O O9 0.454211 0.545855 0.250000
O O10 0.000000 0.000000 0.500000
#
# Coordination Sequence:
#
# PCOD9436444 Si02
#       4
#     8   8   8   8
#     4  12  23  42  69  95 127 172 223 270 321 385
#     4  10  19  38  64  94 127 167 216 264 318 381
#     4  12  26  43  63  98 139 175 215 267 325 388
#     4  10  20  37  66  99 127 160 216 279 321 372
#
# _framework density 22.269206000000001
#
# number of rings (size 3 to 8) (size 9 to 14) (size 15 to 20)
#    0.000    1.000    0.000   10.500    0.000    0.000 
#    0.000    7.500    0.000    0.000    0.000    0.000 
#    0.000    0.000    0.000    0.000    0.000    0.000 
#
# Total GULP energy -178886.623433 kJ/mol
# GULP energy per Si atom -5590.206982 kJ/mol
# Density = 2.221852 g / cm^3
# Si number density = 22.269206 Si / 1000 Ang^3
#
#
#
# Elastic Constant Matrix: (Units=GPa)
#
#
# Indices 1 2 3 4 5 6 
#
# 1 128.7881 7.7383 22.1115 0.0000 0.0000 0.0000
# 2 7.7383 60.5906 -6.4546 0.0000 0.0000 0.0000
# 3 22.1115 -6.4546 75.7941 0.0000 0.0000 0.0000
# 4 0.0000 0.0000 0.0000 22.3169 0.0000 0.0000
# 5 0.0000 0.0000 0.0000 0.0000 -18.6963 0.0000
# 6 0.0000 0.0000 0.0000 0.0000 0.0000 46.6280
#
#
#
# Elastic Compliance Matrix: (Units=1/GPa)
#
#
# Indices 1 2 3 4 5 6 
#
# 1 0.008278 -0.001327 -0.002528 0.000000 0.000000 0.000000
# 2 -0.001327 0.016868 0.001823 0.000000 0.000000 0.000000
# 3 -0.002528 0.001823 0.014086 0.000000 0.000000 0.000000
# 4 0.000000 0.000000 0.000000 0.044809 0.000000 0.000000
# 5 0.000000 0.000000 0.000000 0.000000 -0.053487 0.000000
# 6 0.000000 0.000000 0.000000 0.000000 0.000000 0.021446
#
#
# Mechanical properties :
#
#
# Convention : Reuss Voigt Hill
#
# Bulk Modulus (GPa) = 28.43298 34.66259 31.54778
# Shear Modulus (GPa) = 73.75997 26.16823 49.96410
#
# Velocity S-wave (km/s) = 5.76141 3.43167 4.74185
# Velocity P-wave (km/s) = 7.55341 5.59472 6.64661
#
# Compressibility (1/GPa) = 0.03517043
#
# Stress axis : x y z
#
# Youngs Moduli (GPa) = 120.79571 59.28421 70.99025
#
# Poissons Ratio (x) = 0.07865 0.17947
# Poissons Ratio (y) = 0.16025 -0.12945
# Poissons Ratio (z) = 0.30538 -0.10810
#
# Static dielectric constant tensor:
#      x y z
#    x 1.798700 0.000000 0.000000 
#    y 0.000000 1.849210 0.000000 
#    z 0.000000 0.000000 1.762330 
# 
# From -- ./inp_files/23951.got.cif
#   From: 2010.05.17/outbox.cif.g08.bks.cpg/sg57_12_cif.got.tgz:23951.got - 2010.06.03 13:58:18.
