data_PCOD9436362
_publ_section_title
;
Structure prediction by ZEFSAII (Michael W. Deem and Ramdas Pophale) SiO2 
 PCOD9436362
Probable space group: P B C M
;
_chemical_formula_sum "Si O2"
_cell_formula_units_Z 44
_cell_length_a 7.927746
_cell_length_b 10.473974
_cell_length_c 22.528843
_cell_angle_alpha 90.000000
_cell_angle_beta 90.000000
_cell_angle_gamma 90.000000
_cell_volume 1870.682602
_symmetry_space_group_name_H-M "P B C M"
_symmetry_group_IT_number 57
_symmetry_cell_setting 'orthorhombic'
loop_
_space_group_symop_operation_xyz
x,y,z
-x,-y,1/2+z
x,1/2-y,-z
-x,1/2+y,1/2-z
-x,-y,-z
x,y,1/2-z
-x,1/2+y,z
x,1/2-y,1/2+z
loop_
_atom_site_type_symbol
_atom_site_label
_atom_site_fract_x
_atom_site_fract_y
_atom_site_fract_z
Si Si1 0.849374 0.702289 0.062262
Si Si2 0.813459 0.250000 0.000000
Si Si3 0.295212 0.572076 0.596843
Si Si4 0.836697 0.222222 0.317538
Si Si5 0.790937 0.743210 0.315173
Si Si6 0.524785 0.050731 0.317323
O O1 0.780424 0.564046 0.079145
O O2 0.804244 0.795570 0.117416
O O3 0.774552 0.750000 0.000000
O O4 0.049663 0.691275 0.046638
O O5 0.700912 0.346813 0.036920
O O6 0.180283 0.651987 0.642731
O O7 0.464924 0.550087 0.634112
O O8 0.791985 0.258582 0.250000
O O9 0.697236 0.119195 0.335155
O O10 0.027363 0.170694 0.316308
O O11 0.797096 0.810534 0.250000
O O12 0.625640 0.655584 0.314681
O O13 0.536729 0.000110 0.250000
#
# Coordination Sequence:
#
# PCOD9436362 Si02
#       6
#     8   4   8   8   8   8
#     4   9  19  35  61  94 131 172 218 271 336 396
#     4  10  20  34  60  98 126 176 224 268 330 396
#     4  11  20  37  64  88 128 172 218 267 324 397
#     4  10  19  36  63  92 125 161 204 268 334 386
#     4   9  17  34  61  90 121 156 209 262 314 390
#     4   9  20  37  61  93 126 162 207 266 333 391
#
# _framework density 23.520826
#
# number of rings (size 3 to 8) (size 9 to 14) (size 15 to 20)
#    0.545    1.818    1.818    1.091    0.000    0.727 
#    0.000    4.545   16.000   15.273    0.000    1.273 
#    0.000    0.000    0.000    0.000    0.000    0.000 
#
# Total GULP energy -245108.645907 kJ/mol
# GULP energy per Si atom -5570.651043 kJ/mol
# Density = 2.346729 g / cm^3
# Si number density = 23.520826 Si / 1000 Ang^3
#
#
#
# Elastic Constant Matrix: (Units=GPa)
#
#
# Indices 1 2 3 4 5 6 
#
# 1 136.7074 39.6500 16.0103 0.0000 0.0000 0.0000
# 2 39.6500 69.9051 48.7305 0.0000 0.0000 0.0000
# 3 16.0103 48.7305 184.0647 0.0000 0.0000 0.0000
# 4 0.0000 0.0000 0.0000 31.7701 0.0000 0.0000
# 5 0.0000 0.0000 0.0000 0.0000 -69.8189 0.0000
# 6 0.0000 0.0000 0.0000 0.0000 0.0000 11.4710
#
#
#
# Elastic Compliance Matrix: (Units=1/GPa)
#
#
# Indices 1 2 3 4 5 6 
#
# 1 0.008825 -0.005482 0.000684 0.000000 0.000000 0.000000
# 2 -0.005482 0.020948 -0.005069 0.000000 0.000000 0.000000
# 3 0.000684 -0.005069 0.006715 0.000000 0.000000 0.000000
# 4 0.000000 0.000000 0.000000 0.031476 0.000000 0.000000
# 5 0.000000 0.000000 0.000000 0.000000 -0.014323 0.000000
# 6 0.000000 0.000000 0.000000 0.000000 0.000000 0.087176
#
#
# Mechanical properties :
#
#
# Convention : Reuss Voigt Hill
#
# Bulk Modulus (GPa) = 59.68874 66.60655 63.14764
# Shear Modulus (GPa) = 30.09554 13.77019 21.93286
#
# Velocity S-wave (km/s) = 3.58093 2.42223 3.05698
# Velocity P-wave (km/s) = 6.52146 6.01685 6.27423
#
# Compressibility (1/GPa) = 0.01675358
#
# Stress axis : x y z
#
# Youngs Moduli (GPa) = 113.31694 47.73683 148.91074
#
# Poissons Ratio (x) = 0.26170 -0.10182
# Poissons Ratio (y) = 0.62121 0.75485
# Poissons Ratio (z) = -0.07748 0.24198
#
# Static dielectric constant tensor:
#      x y z
#    x 1.892720 0.000000 0.000000 
#    y 0.000000 1.891900 0.000000 
#    z 0.000000 0.000000 1.984700 
# 
# From -- ./inp_files/26606.got.cif
#   From: 2010.05.17/outbox.cif.g08.bks.cpg/sg57_14_cif.got.tgz:26606.got - 2010.06.03 13:58:18.
