data_PCOD9436345
_publ_section_title
;
Structure prediction by ZEFSAII (Michael W. Deem and Ramdas Pophale) SiO2 
 PCOD9436345
Probable space group: P B C M
;
_chemical_formula_sum "Si O2"
_cell_formula_units_Z 48
_cell_length_a 5.065752
_cell_length_b 17.255740
_cell_length_c 27.175776
_cell_angle_alpha 90.000000
_cell_angle_beta 90.000000
_cell_angle_gamma 90.000000
_cell_volume 2375.524244
_symmetry_space_group_name_H-M "P B C M"
_symmetry_group_IT_number 57
_symmetry_cell_setting 'orthorhombic'
loop_
_space_group_symop_operation_xyz
x,y,z
-x,-y,1/2+z
x,1/2-y,-z
-x,1/2+y,1/2-z
-x,-y,-z
x,y,1/2-z
-x,1/2+y,z
x,1/2-y,1/2+z
loop_
_atom_site_type_symbol
_atom_site_label
_atom_site_fract_x
_atom_site_fract_y
_atom_site_fract_z
Si Si1 0.068470 0.140552 0.193832
Si Si2 0.425684 0.193095 0.905487
Si Si3 0.075472 0.774517 0.556166
Si Si4 0.955083 0.444192 0.904070
Si Si5 0.568311 0.250532 0.694035
Si Si6 0.544526 0.475343 0.443643
O O1 0.042503 0.111936 0.250000
O O2 0.020056 0.077285 0.152101
O O3 0.850270 0.208324 0.187152
O O4 0.351977 0.181126 0.188193
O O5 0.626283 0.256895 0.927450
O O6 0.502143 0.188882 0.848047
O O7 0.479790 0.114166 0.934235
O O8 0.129487 0.222608 0.912954
O O9 0.041397 0.750000 0.500000
O O10 0.014741 0.864012 0.565920
O O11 0.660748 0.475150 0.911235
O O12 0.160477 0.505084 0.926551
O O13 0.549884 0.221128 0.750000
O O14 0.500000 0.500000 0.500000
#
# Coordination Sequence:
#
# PCOD9436345 Si02
#       6
#     8   8   8   8   8   8
#     4  10  20  37  63  92 119 152 200 259 313 354
#     4  12  22  41  59  89 121 160 204 249 312 360
#     4  12  23  38  64  89 117 155 217 261 288 356
#     4  12  22  41  62  89 120 161 208 250 308 361
#     4  10  19  36  61  90 117 152 198 256 312 360
#     4  12  26  41  59  87 132 170 197 247 317 367
#
# _framework density 20.206064000000001
#
# number of rings (size 3 to 8) (size 9 to 14) (size 15 to 20)
#    0.000    0.667    3.333    6.000    0.000    0.000 
#    0.000    1.667    0.000    0.000    0.000    0.000 
#    0.000    0.000    0.000    0.000    0.000    0.000 
#
# Total GULP energy -268554.677444 kJ/mol
# GULP energy per Si atom -5594.889113 kJ/mol
# Density = 2.016007 g / cm^3
# Si number density = 20.206064 Si / 1000 Ang^3
#
#
#
# Elastic Constant Matrix: (Units=GPa)
#
#
# Indices 1 2 3 4 5 6 
#
# 1 55.8833 5.9473 8.5533 0.0000 0.0000 0.0000
# 2 5.9473 15.7235 -26.5031 0.0000 0.0000 0.0000
# 3 8.5533 -26.5031 89.0429 0.0000 0.0000 0.0000
# 4 0.0000 0.0000 0.0000 29.1154 0.0000 0.0000
# 5 0.0000 0.0000 0.0000 0.0000 25.7690 0.0000
# 6 0.0000 0.0000 0.0000 0.0000 0.0000 27.3169
#
#
#
# Elastic Compliance Matrix: (Units=1/GPa)
#
#
# Indices 1 2 3 4 5 6 
#
# 1 0.021808 -0.023640 -0.009131 0.000000 0.000000 0.000000
# 2 -0.023640 0.153259 0.047887 0.000000 0.000000 0.000000
# 3 -0.009131 0.047887 0.026361 0.000000 0.000000 0.000000
# 4 0.000000 0.000000 0.000000 0.034346 0.000000 0.000000
# 5 0.000000 0.000000 0.000000 0.000000 0.038806 0.000000
# 6 0.000000 0.000000 0.000000 0.000000 0.000000 0.036607
#
#
# Mechanical properties :
#
#
# Convention : Reuss Voigt Hill
#
# Bulk Modulus (GPa) = 4.31667 15.18274 9.74970
# Shear Modulus (GPa) = 13.95968 27.95040 20.95504
#
# Velocity S-wave (km/s) = 2.63128 3.72327 3.22385
# Velocity P-wave (km/s) = 3.37231 5.10038 4.32356
#
# Compressibility (1/GPa) = 0.23166018
#
# Stress axis : x y z
#
# Youngs Moduli (GPa) = 45.85506 6.52492 37.93481
#
# Poissons Ratio (x) = 0.15425 0.34639
# Poissons Ratio (y) = 1.08401 -1.81659
# Poissons Ratio (z) = 0.41871 -0.31246
#
# Static dielectric constant tensor:
#      x y z
#    x 1.691760 0.000000 0.000000 
#    y 0.000000 1.674460 0.000000 
#    z 0.000000 0.000000 1.732230 
# 
# From -- ./inp_files/27965.got.cif
#   From: 2010.05.17/outbox.cif.g08.bks.cpg/sg57_14_cif.got.tgz:27965.got - 2010.06.03 13:58:18.
