data_PCOD9437380
_publ_section_title
;
Structure prediction by ZEFSAII (Michael W. Deem and Ramdas Pophale) SiO2 
 PCOD9437380
Probable space group: P B C M
;
_chemical_formula_sum "Si O2"
_cell_formula_units_Z 64
_cell_length_a 5.257267
_cell_length_b 32.319770
_cell_length_c 17.670351
_cell_angle_alpha 90.000000
_cell_angle_beta 90.000000
_cell_angle_gamma 90.000000
_cell_volume 3002.434017
_symmetry_space_group_name_H-M "P B C M"
_symmetry_group_IT_number 57
_symmetry_cell_setting 'orthorhombic'
loop_
_space_group_symop_operation_xyz
x,y,z
-x,-y,1/2+z
x,1/2-y,-z
-x,1/2+y,1/2-z
-x,-y,-z
x,y,1/2-z
-x,1/2+y,z
x,1/2-y,1/2+z
loop_
_atom_site_type_symbol
_atom_site_label
_atom_site_fract_x
_atom_site_fract_y
_atom_site_fract_z
Si Si1 0.284921 0.651694 0.337070
Si Si2 0.724165 0.449480 0.055633
Si Si3 0.207060 0.104903 0.109440
Si Si4 0.795414 0.844866 0.459292
Si Si5 0.447517 0.531962 0.400376
Si Si6 0.453196 0.394344 0.333927
Si Si7 0.288675 0.701278 0.012613
Si Si8 0.113038 0.476214 0.171392
O O1 0.275873 0.665239 0.250000
O O2 0.053434 0.619761 0.352721
O O3 0.253079 0.687621 0.399763
O O4 0.556259 0.630451 0.354645
O O5 0.523739 0.486197 0.071479
O O6 0.664456 0.408731 0.104775
O O7 0.970542 0.469290 0.092702
O O8 0.703385 0.443698 0.966346
O O9 0.301968 0.057975 0.117736
O O10 0.195525 0.117375 0.020263
O O11 0.723769 0.861607 0.376747
O O12 0.060364 0.821048 0.467336
O O13 0.561162 0.816169 0.486065
O O14 0.264223 0.519136 0.332952
O O15 0.543989 0.381910 0.250000
O O16 0.292054 0.436193 0.323914
O O17 0.275985 0.750000 0.000000
O O18 0.952532 0.475581 0.250000
#
# Coordination Sequence:
#
# PCOD9437380 Si02
#       8
#     8   8   8   8   8   8   8   8
#     4  10  22  39  61  90 122 156 194 239 299 352
#     4  10  20  36  55  75 109 156 205 254 308 354
#     4  10  21  37  59  86 118 157 201 248 294 347
#     4  10  21  39  63  92 120 154 198 238 291 364
#     4  10  21  35  52  79 107 154 210 255 298 358
#     4  10  21  37  56  82 118 156 202 254 302 350
#     4  10  22  42  68  93 123 158 190 234 292 364
#     4  10  22  35  51  77 113 159 202 254 315 355
#
# _framework density 21.316039
#
# number of rings (size 3 to 8) (size 9 to 14) (size 15 to 20)
#    0.000    2.000    1.250    1.500    3.500    2.500 
#    0.000    1.250    0.000    0.000    0.000    0.000 
#    0.000    0.000    0.000    0.000    0.000    0.000 
#
# Total GULP energy -357278.499802 kJ/mol
# GULP energy per Si atom -5582.476559 kJ/mol
# Density = 2.126752 g / cm^3
# Si number density = 21.316039 Si / 1000 Ang^3
#
#
#
# Elastic Constant Matrix: (Units=GPa)
#
#
# Indices 1 2 3 4 5 6 
#
# 1 82.0079 12.8150 7.7784 0.0000 0.0000 0.0000
# 2 12.8150 76.8506 38.2131 0.0000 0.0000 0.0000
# 3 7.7784 38.2131 107.5243 0.0000 0.0000 0.0000
# 4 0.0000 0.0000 0.0000 -2.5134 0.0000 0.0000
# 5 0.0000 0.0000 0.0000 0.0000 8.9983 0.0000
# 6 0.0000 0.0000 0.0000 0.0000 0.0000 24.9077
#
#
#
# Elastic Compliance Matrix: (Units=1/GPa)
#
#
# Indices 1 2 3 4 5 6 
#
# 1 0.012524 -0.001989 -0.000199 0.000000 0.000000 0.000000
# 2 -0.001989 0.016121 -0.005585 0.000000 0.000000 0.000000
# 3 -0.000199 -0.005585 0.011300 0.000000 0.000000 0.000000
# 4 0.000000 0.000000 0.000000 -0.397869 0.000000 0.000000
# 5 0.000000 0.000000 0.000000 0.000000 0.111132 0.000000
# 6 0.000000 0.000000 0.000000 0.000000 0.000000 0.040148
#
#
# Mechanical properties :
#
#
# Convention : Reuss Voigt Hill
#
# Bulk Modulus (GPa) = 40.98866 42.66619 41.82743
# Shear Modulus (GPa) = -27.32775 20.11696 -3.60540
#
# Velocity S-wave (km/s) = -3.58443 3.07538 -1.30195
# Velocity P-wave (km/s) = 1.46286 5.71577 4.17193
#
# Compressibility (1/GPa) = 0.02439699
#
# Stress axis : x y z
#
# Youngs Moduli (GPa) = 79.84858 62.02980 88.49857
#
# Poissons Ratio (x) = 0.12340 0.01761
# Poissons Ratio (y) = 0.15885 0.49430
# Poissons Ratio (z) = 0.01589 0.34646
#
# Static dielectric constant tensor:
#      x y z
#    x 1.833450 0.000000 0.000000 
#    y 0.000000 1.741650 0.000000 
#    z 0.000000 0.000000 1.832820 
# 
# From -- ./inp_files/20354.got.cif
#   From: 2010.05.17/outbox.cif.g08.bks.cpg/sg57_11_cif.got.tgz:20354.got - 2010.06.03 13:58:18.
