data_PCOD9437315
_publ_section_title
;
Structure prediction by ZEFSAII (Michael W. Deem and Ramdas Pophale) SiO2 
 PCOD9437315
Probable space group: P B C M
;
_chemical_formula_sum "Si O2"
_cell_formula_units_Z 56
_cell_length_a 5.704841
_cell_length_b 31.969608
_cell_length_c 14.324516
_cell_angle_alpha 90.000000
_cell_angle_beta 90.000000
_cell_angle_gamma 90.000000
_cell_volume 2612.527151
_symmetry_space_group_name_H-M "P B C M"
_symmetry_group_IT_number 57
_symmetry_cell_setting 'orthorhombic'
loop_
_space_group_symop_operation_xyz
x,y,z
-x,-y,1/2+z
x,1/2-y,-z
-x,1/2+y,1/2-z
-x,-y,-z
x,y,1/2-z
-x,1/2+y,z
x,1/2-y,1/2+z
loop_
_atom_site_type_symbol
_atom_site_label
_atom_site_fract_x
_atom_site_fract_y
_atom_site_fract_z
Si Si1 0.622200 0.624585 0.530862
Si Si2 0.652787 0.210161 0.549667
Si Si3 0.266872 0.206338 0.250000
Si Si4 0.658350 0.393162 0.653456
Si Si5 0.692173 0.534599 0.968644
Si Si6 0.234252 0.745906 0.750000
Si Si7 0.006254 0.971761 0.855307
Si Si8 0.977730 0.831485 0.919631
O O1 0.498479 0.667612 0.562775
O O2 0.493113 0.613461 0.435598
O O3 0.614008 0.578740 0.577616
O O4 0.881771 0.638256 0.500966
O O5 0.523699 0.250000 0.500000
O O6 0.741882 0.221330 0.652629
O O7 0.862731 0.201366 0.475653
O O8 0.529620 0.225000 0.250000
O O9 0.227842 0.184272 0.351160
O O10 0.027170 0.234532 0.250000
O O11 0.521227 0.390204 0.750000
O O12 0.792159 0.436881 0.649332
O O13 0.853744 0.357434 0.647696
O O14 0.874101 0.512947 0.897997
O O15 0.500000 0.500000 0.000000
O O16 0.823056 0.543204 0.066991
O O17 0.912387 0.977305 0.750000
#
# Coordination Sequence:
#
# PCOD9437315 Si02
#       8
#     8   8   4   8   8   4   8   8
#     4  11  24  39  66  97 132 180 223 282 342 415
#     4  11  25  46  68  97 136 179 230 287 347 418
#     4  12  26  44  74 106 140 179 233 300 362 430
#     4  10  20  35  58  97 135 165 214 276 348 414
#     4  11  22  41  66  92 131 174 221 275 343 412
#     4  12  28  50  72 102 138 193 241 286 364 422
#     4  10  22  39  62  93 132 173 221 282 346 408
#     4  11  23  38  67  98 137 174 224 280 350 415
#
# _framework density 21.435182999999999
#
# number of rings (size 3 to 8) (size 9 to 14) (size 15 to 20)
#    0.000    1.143    5.000    0.857    5.000    1.714 
#    1.286    0.000    3.143    0.000    0.000    0.000 
#    0.000    0.000    0.000    0.000    0.000    0.000 
#
# Total GULP energy -312249.655368 kJ/mol
# GULP energy per Si atom -5575.886703 kJ/mol
# Density = 2.138640 g / cm^3
# Si number density = 21.435183 Si / 1000 Ang^3
#
#
#
# Elastic Constant Matrix: (Units=GPa)
#
#
# Indices 1 2 3 4 5 6 
#
# 1 46.6609 22.5924 -5.6719 0.0000 0.0000 0.0000
# 2 22.5924 123.4916 22.5784 0.0000 0.0000 0.0000
# 3 -5.6719 22.5784 85.0343 0.0000 0.0000 0.0000
# 4 0.0000 0.0000 0.0000 -3.8221 0.0000 0.0000
# 5 0.0000 0.0000 0.0000 0.0000 -1.4741 0.0000
# 6 0.0000 0.0000 0.0000 0.0000 0.0000 29.1061
#
#
#
# Elastic Compliance Matrix: (Units=1/GPa)
#
#
# Indices 1 2 3 4 5 6 
#
# 1 0.024190 -0.004961 0.002931 0.000000 0.000000 0.000000
# 2 -0.004961 0.009528 -0.002861 0.000000 0.000000 0.000000
# 3 0.002931 -0.002861 0.012715 0.000000 0.000000 0.000000
# 4 0.000000 0.000000 0.000000 -0.261636 0.000000 0.000000
# 5 0.000000 0.000000 0.000000 0.000000 -0.678381 0.000000
# 6 0.000000 0.000000 0.000000 0.000000 0.000000 0.034357
#
#
# Mechanical properties :
#
#
# Convention : Reuss Voigt Hill
#
# Bulk Modulus (GPa) = 27.28485 37.13163 32.20824
# Shear Modulus (GPa) = -5.97210 19.14117 6.58454
#
# Velocity S-wave (km/s) = -1.67098 2.99152 1.75457
# Velocity P-wave (km/s) = 3.00562 5.41226 4.37758
#
# Compressibility (1/GPa) = 0.03665038
#
# Stress axis : x y z
#
# Youngs Moduli (GPa) = 41.34002 104.94895 78.64670
#
# Poissons Ratio (x) = 0.52068 -0.23050
# Poissons Ratio (y) = 0.20510 0.22500
# Poissons Ratio (z) = -0.12116 0.30025
#
# Static dielectric constant tensor:
#      x y z
#    x 1.825640 0.000000 0.000000 
#    y 0.000000 1.939590 0.000000 
#    z 0.000000 0.000000 1.749340 
# 
# From -- ./inp_files/15316.got.cif
#   From: 2010.05.17/outbox.cif.g08.bks.cpg/sg57_8_cif.got.tgz:15316.got - 2010.06.03 13:58:18.
