data_PCOD9437953
_publ_section_title
;
Structure prediction by ZEFSAII (Michael W. Deem and Ramdas Pophale) SiO2 
 PCOD9437953
Probable space group: P B C M
;
_chemical_formula_sum "Si O2"
_cell_formula_units_Z 44
_cell_length_a 16.099938
_cell_length_b 8.037649
_cell_length_c 14.927961
_cell_angle_alpha 90.000000
_cell_angle_beta 90.000000
_cell_angle_gamma 90.000000
_cell_volume 1931.762505
_symmetry_space_group_name_H-M "P B C M"
_symmetry_group_IT_number 57
_symmetry_cell_setting 'orthorhombic'
loop_
_space_group_symop_operation_xyz
x,y,z
-x,-y,1/2+z
x,1/2-y,-z
-x,1/2+y,1/2-z
-x,-y,-z
x,y,1/2-z
-x,1/2+y,z
x,1/2-y,1/2+z
loop_
_atom_site_type_symbol
_atom_site_label
_atom_site_fract_x
_atom_site_fract_y
_atom_site_fract_z
Si Si1 0.177964 0.261715 0.750000
Si Si2 0.841397 0.398894 0.750000
Si Si3 0.437041 0.894151 0.938251
Si Si4 0.252530 0.391474 0.930906
Si Si5 0.035179 0.485948 0.750000
Si Si6 0.868776 0.172054 0.910977
Si Si7 0.406967 0.235106 0.854823
O O1 0.213892 0.348064 0.835928
O O2 0.080745 0.306099 0.750000
O O3 0.204025 0.072539 0.750000
O O4 0.826875 0.298795 0.840814
O O5 0.938697 0.448598 0.750000
O O6 0.389978 0.044379 0.887337
O O7 0.497865 0.789786 0.872351
O O8 0.604902 0.250000 0.000000
O O9 0.500000 0.000000 0.000000
O O10 0.205661 0.560828 0.952222
O O11 0.349901 0.362934 0.911966
O O12 0.227012 0.250000 0.000000
O O13 0.068373 0.576430 0.658512
O O14 0.910927 0.250000 0.000000
O O15 0.389461 0.249950 0.750000
#
# Coordination Sequence:
#
# PCOD9437953 Si02
#       7
#     4   4   8   8   4   8   8
#     4  10  20  38  58  88 121 161 207 248 309 375
#     4  11  21  39  63  91 128 160 208 260 309 366
#     4   9  19  37  60  88 121 163 206 267 323 380
#     4  11  22  40  63  85 123 171 208 257 322 375
#     4   9  21  39  65  91 127 165 197 256 316 365
#     4  10  22  40  63  94 127 166 212 258 305 377
#     4  11  21  38  63  89 124 163 216 262 324 385
#
# _framework density 22.777128000000001
#
# number of rings (size 3 to 8) (size 9 to 14) (size 15 to 20)
#    0.000    1.818    0.909    4.909    0.000    0.727 
#    0.000   17.273    0.000    0.000    0.000    0.000 
#    0.000    0.000    0.000    0.000    0.000    0.000 
#
# Total GULP energy -245342.850714 kJ/mol
# GULP energy per Si atom -5575.973880 kJ/mol
# Density = 2.272529 g / cm^3
# Si number density = 22.777128 Si / 1000 Ang^3
#
#
#
# Elastic Constant Matrix: (Units=GPa)
#
#
# Indices 1 2 3 4 5 6 
#
# 1 68.2635 12.4703 10.2431 0.0000 0.0000 0.0000
# 2 12.4703 88.2778 23.7830 0.0000 0.0000 0.0000
# 3 10.2431 23.7830 139.6207 0.0000 0.0000 0.0000
# 4 0.0000 0.0000 0.0000 -8.1907 0.0000 0.0000
# 5 0.0000 0.0000 0.0000 0.0000 12.3262 0.0000
# 6 0.0000 0.0000 0.0000 0.0000 0.0000 22.4929
#
#
#
# Elastic Compliance Matrix: (Units=1/GPa)
#
#
# Indices 1 2 3 4 5 6 
#
# 1 0.015118 -0.001925 -0.000781 0.000000 0.000000 0.000000
# 2 -0.001925 0.012118 -0.001923 0.000000 0.000000 0.000000
# 3 -0.000781 -0.001923 0.007547 0.000000 0.000000 0.000000
# 4 0.000000 0.000000 0.000000 -0.122089 0.000000 0.000000
# 5 0.000000 0.000000 0.000000 0.000000 0.081128 0.000000
# 6 0.000000 0.000000 0.000000 0.000000 0.000000 0.044458
#
#
# Mechanical properties :
#
#
# Convention : Reuss Voigt Hill
#
# Bulk Modulus (GPa) = 39.17803 43.23943 41.20873
# Shear Modulus (GPa) = 89.21033 21.97004 55.59019
#
# Velocity S-wave (km/s) = 6.26511 3.10912 4.94562
# Velocity P-wave (km/s) = 8.34107 5.64922 7.12345
#
# Compressibility (1/GPa) = 0.02552451
#
# Stress axis : x y z
#
# Youngs Moduli (GPa) = 66.14620 82.52262 132.50085
#
# Poissons Ratio (x) = 0.15887 0.10351
# Poissons Ratio (y) = 0.12734 0.25479
# Poissons Ratio (z) = 0.05167 0.15868
#
# Static dielectric constant tensor:
#      x y z
#    x 1.935110 0.000000 0.000000 
#    y 0.000000 1.911410 0.000000 
#    z 0.000000 0.000000 1.811420 
# 
# From -- ./inp_files/18896.got.cif
#   From: 2010.05.17/outbox.cif.g08.bks.cpg/sg57_10_cif.got.tgz:18896.got - 2010.06.03 13:58:18.
