data_PCOD9437784
_publ_section_title
;
Structure prediction by ZEFSAII (Michael W. Deem and Ramdas Pophale) SiO2 
 PCOD9437784
Probable space group: P B C M
;
_chemical_formula_sum "Si O2"
_cell_formula_units_Z 48
_cell_length_a 11.872675
_cell_length_b 17.921718
_cell_length_c 10.189087
_cell_angle_alpha 90.000000
_cell_angle_beta 90.000000
_cell_angle_gamma 90.000000
_cell_volume 2168.021025
_symmetry_space_group_name_H-M "P B C M"
_symmetry_group_IT_number 57
_symmetry_cell_setting 'orthorhombic'
loop_
_space_group_symop_operation_xyz
x,y,z
-x,-y,1/2+z
x,1/2-y,-z
-x,1/2+y,1/2-z
-x,-y,-z
x,y,1/2-z
-x,1/2+y,z
x,1/2-y,1/2+z
loop_
_atom_site_type_symbol
_atom_site_label
_atom_site_fract_x
_atom_site_fract_y
_atom_site_fract_z
Si Si1 0.463292 0.187220 0.098459
Si Si2 0.305426 0.944154 0.104242
Si Si3 0.036856 0.562578 0.899046
Si Si4 0.360394 0.071488 0.592585
Si Si5 0.853707 0.682070 0.598812
Si Si6 0.697442 0.224476 0.617691
O O1 0.419492 0.183474 0.250000
O O2 0.591703 0.218071 0.116343
O O3 0.412388 0.250000 0.000000
O O4 0.441432 0.113678 0.012429
O O5 0.331443 0.977917 0.250000
O O6 0.171172 0.932877 0.096317
O O7 0.347867 0.859088 0.108932
O O8 0.342187 0.992049 0.978870
O O9 0.004392 0.541050 0.750000
O O10 0.970121 0.638420 0.926733
O O11 0.000000 0.500000 0.000000
O O12 0.392319 0.068131 0.750000
O O13 0.244915 0.119489 0.586139
O O14 0.839760 0.750000 0.500000
O O15 0.850446 0.708136 0.750000
O O16 0.773027 0.250000 0.500000
O O17 0.763390 0.231065 0.750000
#
# Coordination Sequence:
#
# PCOD9437784 Si02
#       6
#     8   8   8   8   8   8
#     4  10  20  37  60  84 115 153 197 250 310 367
#     4  10  21  38  63  91 122 163 208 254 312 373
#     4  10  20  37  59  86 124 165 204 250 302 362
#     4  11  22  37  59  90 125 160 206 257 310 371
#     4  10  22  37  55  86 125 162 204 250 299 359
#     4   9  20  39  61  87 118 155 201 255 310 369
#
# _framework density 22.140007000000001
#
# number of rings (size 3 to 8) (size 9 to 14) (size 15 to 20)
#    0.000    2.000    1.667    1.500    0.000    5.333 
#    0.000    3.333    0.000    2.000    0.000    0.000 
#    0.000    0.000    0.000    0.000    0.000    0.000 
#
# Total GULP energy -267424.058634 kJ/mol
# GULP energy per Si atom -5571.334555 kJ/mol
# Density = 2.208962 g / cm^3
# Si number density = 22.140007 Si / 1000 Ang^3
#
#
#
# Elastic Constant Matrix: (Units=GPa)
#
#
# Indices 1 2 3 4 5 6 
#
# 1 67.7528 20.6379 24.6386 0.0000 0.0000 0.0000
# 2 20.6379 80.1150 82.2011 0.0000 0.0000 0.0000
# 3 24.6386 82.2011 213.7079 0.0000 0.0000 0.0000
# 4 0.0000 0.0000 0.0000 38.8792 0.0000 0.0000
# 5 0.0000 0.0000 0.0000 0.0000 10.9164 0.0000
# 6 0.0000 0.0000 0.0000 0.0000 0.0000 26.4136
#
#
#
# Elastic Compliance Matrix: (Units=1/GPa)
#
#
# Indices 1 2 3 4 5 6 
#
# 1 0.016040 -0.003691 -0.000429 0.000000 0.000000 0.000000
# 2 -0.003691 0.021469 -0.007832 0.000000 0.000000 0.000000
# 3 -0.000429 -0.007832 0.007741 0.000000 0.000000 0.000000
# 4 0.000000 0.000000 0.000000 0.025721 0.000000 0.000000
# 5 0.000000 0.000000 0.000000 0.000000 0.091605 0.000000
# 6 0.000000 0.000000 0.000000 0.000000 0.000000 0.037859
#
#
# Mechanical properties :
#
#
# Convention : Reuss Voigt Hill
#
# Bulk Modulus (GPa) = 46.85057 68.50345 57.67701
# Shear Modulus (GPa) = 21.60226 30.84839 26.22533
#
# Velocity S-wave (km/s) = 3.12703 3.73679 3.44542
# Velocity P-wave (km/s) = 5.85190 7.04459 6.47576
#
# Compressibility (1/GPa) = 0.02134446
#
# Stress axis : x y z
#
# Youngs Moduli (GPa) = 62.34374 46.57796 129.17413
#
# Poissons Ratio (x) = 0.17194 0.05547
# Poissons Ratio (y) = 0.23013 1.01175
# Poissons Ratio (z) = 0.02677 0.36482
#
# Static dielectric constant tensor:
#      x y z
#    x 1.890710 0.000000 0.000000 
#    y 0.000000 1.820270 0.000000 
#    z 0.000000 0.000000 1.955300 
# 
# From -- ./inp_files/12923.got.cif
#   From: 2010.05.17/outbox.cif.g08.bks.cpg/sg57_7_cif.got.tgz:12923.got - 2010.06.03 13:58:18.
