data_PCOD9437633
_publ_section_title
;
Structure prediction by ZEFSAII (Michael W. Deem and Ramdas Pophale) SiO2 
 PCOD9437633
Probable space group: P B C M
;
_chemical_formula_sum "Si O2"
_cell_formula_units_Z 56
_cell_length_a 21.719833
_cell_length_b 15.843615
_cell_length_c 8.614404
_cell_angle_alpha 90.000000
_cell_angle_beta 90.000000
_cell_angle_gamma 90.000000
_cell_volume 2964.394493
_symmetry_space_group_name_H-M "P B C M"
_symmetry_group_IT_number 57
_symmetry_cell_setting 'orthorhombic'
loop_
_space_group_symop_operation_xyz
x,y,z
-x,-y,1/2+z
x,1/2-y,-z
-x,1/2+y,1/2-z
-x,-y,-z
x,y,1/2-z
-x,1/2+y,z
x,1/2-y,1/2+z
loop_
_atom_site_type_symbol
_atom_site_label
_atom_site_fract_x
_atom_site_fract_y
_atom_site_fract_z
Si Si1 0.867156 0.840077 0.063004
Si Si2 0.650445 0.501155 0.436709
Si Si3 0.573626 0.657929 0.563506
Si Si4 0.430763 0.841383 0.436788
Si Si5 0.866759 0.159282 0.563784
Si Si6 0.788386 0.496693 0.936588
Si Si7 0.000232 0.404865 0.062512
O O1 0.866980 0.837318 0.250000
O O2 0.937231 0.859111 0.010438
O O3 0.824540 0.918335 0.014404
O O4 0.846379 0.750000 0.000000
O O5 0.651938 0.501933 0.250000
O O6 0.615447 0.584056 0.496252
O O7 0.612242 0.418226 0.488078
O O8 0.719195 0.498113 0.501637
O O9 0.591685 0.750000 0.500000
O O10 0.577030 0.657904 0.750000
O O11 0.502026 0.643943 0.516598
O O12 0.411540 0.750000 0.500000
O O13 0.429342 0.838110 0.250000
O O14 0.847286 0.250000 0.500000
O O15 0.864574 0.159579 0.750000
O O16 0.824723 0.084048 0.500664
O O17 0.937345 0.140711 0.513579
O O18 0.788523 0.493720 0.750000
O O19 0.001034 0.407932 0.250000
O O20 0.000000 0.500000 0.000000
#
# Coordination Sequence:
#
# PCOD9437633 Si02
#       7
#     8   8   8   8   8   8   8
#     4  10  22  39  60  86 115 149 191 238 292 348
#     4  11  23  39  59  86 120 157 199 243 292 348
#     4  10  20  37  61  90 120 153 193 238 293 348
#     4   9  20  37  60  89 120 152 190 240 292 348
#     4  11  23  39  62  89 117 153 195 242 298 355
#     4  11  24  42  60  82 117 158 201 247 292 346
#     4  10  20  36  60  89 118 149 187 238 295 351
#
# _framework density 18.890874
#
# number of rings (size 3 to 8) (size 9 to 14) (size 15 to 20)
#    0.000    1.714    1.429    2.571    0.000    5.143 
#    0.000    2.857    0.000    0.000    0.000    0.000 
#    0.000    0.000    0.000    0.000    0.000    0.000 
#
# Total GULP energy -312971.655292 kJ/mol
# GULP energy per Si atom -5588.779559 kJ/mol
# Density = 1.884788 g / cm^3
# Si number density = 18.890874 Si / 1000 Ang^3
#
#
#
# Elastic Constant Matrix: (Units=GPa)
#
#
# Indices 1 2 3 4 5 6 
#
# 1 141.4048 110.5296 40.3512 0.0000 0.0000 0.0000
# 2 110.5296 203.4839 45.7442 0.0000 0.0000 0.0000
# 3 40.3512 45.7442 39.8734 0.0000 0.0000 0.0000
# 4 0.0000 0.0000 0.0000 37.8239 0.0000 0.0000
# 5 0.0000 0.0000 0.0000 0.0000 25.1365 0.0000
# 6 0.0000 0.0000 0.0000 0.0000 0.0000 -6.7370
#
#
#
# Elastic Compliance Matrix: (Units=1/GPa)
#
#
# Indices 1 2 3 4 5 6 
#
# 1 0.013653 -0.005808 -0.007154 0.000000 0.000000 0.000000
# 2 -0.005808 0.009093 -0.004554 0.000000 0.000000 0.000000
# 3 -0.007154 -0.004554 0.037543 0.000000 0.000000 0.000000
# 4 0.000000 0.000000 0.000000 0.026438 0.000000 0.000000
# 5 0.000000 0.000000 0.000000 0.000000 0.039783 0.000000
# 6 0.000000 0.000000 0.000000 0.000000 0.000000 -0.148434
#
#
# Mechanical properties :
#
#
# Convention : Reuss Voigt Hill
#
# Bulk Modulus (GPa) = 39.59143 86.44579 63.01861
# Shear Modulus (GPa) = 232.26287 23.78716 128.02501
#
# Velocity S-wave (km/s) = 11.10030 3.55235 8.24123
# Velocity P-wave (km/s) = 13.61221 7.91742 11.13503
#
# Compressibility (1/GPa) = 0.02525799
#
# Stress axis : x y z
#
# Youngs Moduli (GPa) = 73.24353 109.97423 26.63577
#
# Poissons Ratio (x) = 0.63873 0.19054
# Poissons Ratio (y) = 0.42540 0.12131
# Poissons Ratio (z) = 0.52395 0.50085
#
# Static dielectric constant tensor:
#      x y z
#    x 1.643460 0.000000 0.000000 
#    y 0.000000 1.625760 0.000000 
#    z 0.000000 0.000000 1.640740 
# 
# From -- ./inp_files/8031.got.cif
#   From: 2010.05.17/outbox.cif.g08.bks.cpg/sg57_5_cif.got.tgz:8031.got - 2010.06.03 13:58:18.
