data_PCOD9437152
_publ_section_title
;
Structure prediction by ZEFSAII (Michael W. Deem and Ramdas Pophale) SiO2 
 PCOD9437152
Probable space group: P B C M
;
_chemical_formula_sum "Si O2"
_cell_formula_units_Z 64
_cell_length_a 21.511496
_cell_length_b 17.713103
_cell_length_c 9.037329
_cell_angle_alpha 90.000000
_cell_angle_beta 90.000000
_cell_angle_gamma 90.000000
_cell_volume 3443.541767
_symmetry_space_group_name_H-M "P B C M"
_symmetry_group_IT_number 57
_symmetry_cell_setting 'orthorhombic'
loop_
_space_group_symop_operation_xyz
x,y,z
-x,-y,1/2+z
x,1/2-y,-z
-x,1/2+y,1/2-z
-x,-y,-z
x,y,1/2-z
-x,1/2+y,z
x,1/2-y,1/2+z
loop_
_atom_site_type_symbol
_atom_site_label
_atom_site_fract_x
_atom_site_fract_y
_atom_site_fract_z
Si Si1 0.161190 0.321943 0.078681
Si Si2 0.322889 0.567357 0.578587
Si Si3 0.433755 0.017471 0.927548
Si Si4 0.747474 0.591381 0.412511
Si Si5 0.909742 0.063220 0.927687
Si Si6 0.616936 0.669689 0.076758
Si Si7 0.047329 0.093270 0.928036
Si Si8 0.207428 0.667531 0.570351
O O1 0.160210 0.307745 0.250000
O O2 0.092050 0.339422 0.023992
O O3 0.188953 0.250000 0.000000
O O4 0.203574 0.392797 0.038737
O O5 0.341952 0.581127 0.750000
O O6 0.382746 0.544206 0.482761
O O7 0.281149 0.491503 0.579837
O O8 0.275094 0.632565 0.529656
O O9 0.436399 0.018213 0.750000
O O10 0.500000 0.000000 0.000000
O O11 0.413613 0.099599 0.990062
O O12 0.777092 0.600789 0.250000
O O13 0.690121 0.649072 0.425099
O O14 0.905358 0.053219 0.750000
O O15 0.848633 0.110065 0.973758
O O16 0.975001 0.105251 0.962577
O O17 0.923623 0.982108 0.000255
O O18 0.597808 0.669986 0.250000
O O19 0.605333 0.750000 0.000000
O O20 0.052108 0.085063 0.750000
O O21 0.198917 0.750000 0.500000
O O22 0.205881 0.672337 0.750000
#
# Coordination Sequence:
#
# PCOD9437152 Si02
#       8
#     8   8   8   8   8   8   8   8
#     4  11  22  32  44  67 101 136 170 210 256 308
#     4   9  19  37  58  81 108 139 177 220 266 319
#     4  11  22  38  61  87 115 149 186 224 268 321
#     4   9  18  33  54  76 101 136 176 216 260 313
#     4   9  18  35  56  75  98 132 174 221 275 329
#     4  10  20  35  55  82 114 146 182 224 269 318
#     4   9  19  34  51  73  99 130 174 225 272 324
#     4  10  21  36  56  81 110 143 181 229 282 334
#
# _framework density 18.585515999999998
#
# number of rings (size 3 to 8) (size 9 to 14) (size 15 to 20)
#    0.000    2.250    0.000    3.750    0.000    7.000 
#    0.000    0.625    0.000    1.500    0.000    0.000 
#    0.000    0.000    0.000    0.000    0.000    0.000 
#
# Total GULP energy -356784.137401 kJ/mol
# GULP energy per Si atom -5574.752147 kJ/mol
# Density = 1.854321 g / cm^3
# Si number density = 18.585516 Si / 1000 Ang^3
#
#
#
# Elastic Constant Matrix: (Units=GPa)
#
#
# Indices 1 2 3 4 5 6 
#
# 1 100.3898 43.5759 43.2436 0.0000 0.0000 0.0000
# 2 43.5759 62.3413 26.1685 0.0000 0.0000 0.0000
# 3 43.2436 26.1685 64.8744 0.0000 0.0000 0.0000
# 4 0.0000 0.0000 0.0000 26.7387 0.0000 0.0000
# 5 0.0000 0.0000 0.0000 0.0000 23.6135 0.0000
# 6 0.0000 0.0000 0.0000 0.0000 0.0000 21.5717
#
#
#
# Elastic Compliance Matrix: (Units=1/GPa)
#
#
# Indices 1 2 3 4 5 6 
#
# 1 0.017130 -0.008644 -0.007931 0.000000 0.000000 0.000000
# 2 -0.008644 0.023673 -0.003787 0.000000 0.000000 0.000000
# 3 -0.007931 -0.003787 0.022229 0.000000 0.000000 0.000000
# 4 0.000000 0.000000 0.000000 0.037399 0.000000 0.000000
# 5 0.000000 0.000000 0.000000 0.000000 0.042349 0.000000
# 6 0.000000 0.000000 0.000000 0.000000 0.000000 0.046357
#
#
# Mechanical properties :
#
#
# Convention : Reuss Voigt Hill
#
# Bulk Modulus (GPa) = 44.83069 50.39792 47.61431
# Shear Modulus (GPa) = 21.07069 22.02595 21.54832
#
# Velocity S-wave (km/s) = 3.37072 3.44628 3.40871
# Velocity P-wave (km/s) = 6.27078 6.55831 6.41616
#
# Compressibility (1/GPa) = 0.02230615
#
# Stress axis : x y z
#
# Youngs Moduli (GPa) = 58.37748 42.24303 44.98667
#
# Poissons Ratio (x) = 0.36516 0.35681
# Poissons Ratio (y) = 0.50463 0.17036
# Poissons Ratio (z) = 0.46302 0.15997
#
# Static dielectric constant tensor:
#      x y z
#    x 1.667790 0.000000 0.000000 
#    y 0.000000 1.655880 0.000000 
#    z 0.000000 0.000000 1.642440 
# 
# From -- ./inp_files/9335.got.cif
#   From: 2010.05.17/outbox.cif.g08.bks.cpg/sg57_5_cif.got.tgz:9335.got - 2010.06.03 13:58:18.
