data_PCOD9437566
_publ_section_title
;
Structure prediction by ZEFSAII (Michael W. Deem and Ramdas Pophale) SiO2 
 PCOD9437566
Probable space group: P B C M
;
_chemical_formula_sum "Si O2"
_cell_formula_units_Z 60
_cell_length_a 25.982804
_cell_length_b 5.384740
_cell_length_c 19.507291
_cell_angle_alpha 90.000000
_cell_angle_beta 90.000000
_cell_angle_gamma 90.000000
_cell_volume 2729.277647
_symmetry_space_group_name_H-M "P B C M"
_symmetry_group_IT_number 57
_symmetry_cell_setting 'orthorhombic'
loop_
_space_group_symop_operation_xyz
x,y,z
-x,-y,1/2+z
x,1/2-y,-z
-x,1/2+y,1/2-z
-x,-y,-z
x,y,1/2-z
-x,1/2+y,z
x,1/2-y,1/2+z
loop_
_atom_site_type_symbol
_atom_site_label
_atom_site_fract_x
_atom_site_fract_y
_atom_site_fract_z
Si Si1 0.967126 0.056546 0.250000
Si Si2 0.442133 0.998811 0.971574
Si Si3 0.659255 0.568353 0.326866
Si Si4 0.592151 0.432538 0.674171
Si Si5 0.214497 0.496822 0.327605
Si Si6 0.267571 0.835447 0.071498
Si Si7 0.162244 0.387172 0.569842
Si Si8 0.114016 0.672799 0.823251
O O1 0.929038 0.114826 0.314117
O O2 0.007267 0.287876 0.250000
O O3 0.444292 0.979229 0.890077
O O4 0.416807 0.250000 0.000000
O O5 0.416271 0.750000 0.000000
O O6 0.500000 0.000000 0.000000
O O7 0.682046 0.538060 0.250000
O O8 0.631112 0.833175 0.328806
O O9 0.700338 0.538532 0.386973
O O10 0.620359 0.333401 0.334348
O O11 0.568082 0.434986 0.750000
O O12 0.229594 0.428357 0.250000
O O13 0.259294 0.613861 0.373854
O O14 0.186134 0.286258 0.370871
O O15 0.170438 0.706928 0.321913
O O16 0.211000 0.938666 0.052720
O O17 0.291603 0.750000 0.000000
O O18 0.148142 0.250000 0.500000
O O19 0.114658 0.522096 0.606921
O O20 0.108752 0.528857 0.750000
#
# Coordination Sequence:
#
# PCOD9437566 Si02
#       8
#     4   8   8   8   8   8   8   8
#     4  10  22  38  66  96 126 154 204 274 318 386
#     4  10  21  39  63  95 127 157 202 259 321 386
#     4  10  23  40  62  88 125 171 222 261 311 371
#     4  10  22  42  64  90 123 170 214 259 315 390
#     4  10  20  36  59  81 118 156 206 257 309 371
#     4  11  23  38  52  87 123 162 214 262 318 361
#     4  11  21  35  58  84 121 164 205 261 310 376
#     4   8  20  35  56  89 115 155 203 246 318 376
#
# _framework density 21.983837999999999
#
# number of rings (size 3 to 8) (size 9 to 14) (size 15 to 20)
#    0.400    1.600    1.333    1.600    3.733    3.200 
#    0.000    2.667    0.000    0.800    0.000    0.000 
#    0.000    0.000    0.000    0.000    0.000    0.000 
#
# Total GULP energy -334808.593726 kJ/mol
# GULP energy per Si atom -5580.143229 kJ/mol
# Density = 2.193380 g / cm^3
# Si number density = 21.983838 Si / 1000 Ang^3
#
#
#
# Elastic Constant Matrix: (Units=GPa)
#
#
# Indices 1 2 3 4 5 6 
#
# 1 47.3621 6.7179 33.5507 0.0000 0.0000 0.0000
# 2 6.7179 99.0271 24.6368 0.0000 0.0000 0.0000
# 3 33.5507 24.6368 157.9354 0.0000 0.0000 0.0000
# 4 0.0000 0.0000 0.0000 18.1964 0.0000 0.0000
# 5 0.0000 0.0000 0.0000 0.0000 -25.8110 0.0000
# 6 0.0000 0.0000 0.0000 0.0000 0.0000 -2.7706
#
#
#
# Elastic Compliance Matrix: (Units=1/GPa)
#
#
# Indices 1 2 3 4 5 6 
#
# 1 0.024868 -0.000388 -0.005222 0.000000 0.000000 0.000000
# 2 -0.000388 0.010512 -0.001557 0.000000 0.000000 0.000000
# 3 -0.005222 -0.001557 0.007684 0.000000 0.000000 0.000000
# 4 0.000000 0.000000 0.000000 0.054956 0.000000 0.000000
# 5 0.000000 0.000000 0.000000 0.000000 -0.038743 0.000000
# 6 0.000000 0.000000 0.000000 0.000000 0.000000 -0.360927
#
#
# Mechanical properties :
#
#
# Convention : Reuss Voigt Hill
#
# Bulk Modulus (GPa) = 34.80767 48.23729 41.52248
# Shear Modulus (GPa) = -18.00254 13.88423 -2.05916
#
# Velocity S-wave (km/s) = -2.86475 2.51582 -0.96887
# Velocity P-wave (km/s) = 2.21931 5.51624 4.20442
#
# Compressibility (1/GPa) = 0.02872930
#
# Stress axis : x y z
#
# Youngs Moduli (GPa) = 40.21172 95.12919 130.13960
#
# Poissons Ratio (x) = 0.03689 0.67964
# Poissons Ratio (y) = 0.01559 0.20268
# Poissons Ratio (z) = 0.21000 0.14816
#
# Static dielectric constant tensor:
#      x y z
#    x 1.777210 0.000000 0.000000 
#    y 0.000000 1.879870 0.000000 
#    z 0.000000 0.000000 1.810040 
# 
# From -- ./inp_files/23170.got.cif
#   From: 2010.05.17/outbox.cif.g08.bks.cpg/sg57_12_cif.got.tgz:23170.got - 2010.06.03 13:58:18.
