data_PCOD9437734
_publ_section_title
;
Structure prediction by ZEFSAII (Michael W. Deem and Ramdas Pophale) SiO2 
 PCOD9437734
Probable space group: P B C M
;
_chemical_formula_sum "Si O2"
_cell_formula_units_Z 64
_cell_length_a 11.338660
_cell_length_b 29.650458
_cell_length_c 10.315417
_cell_angle_alpha 90.000000
_cell_angle_beta 90.000000
_cell_angle_gamma 90.000000
_cell_volume 3468.006701
_symmetry_space_group_name_H-M "P B C M"
_symmetry_group_IT_number 57
_symmetry_cell_setting 'orthorhombic'
loop_
_space_group_symop_operation_xyz
x,y,z
-x,-y,1/2+z
x,1/2-y,-z
-x,1/2+y,1/2-z
-x,-y,-z
x,y,1/2-z
-x,1/2+y,z
x,1/2-y,1/2+z
loop_
_atom_site_type_symbol
_atom_site_label
_atom_site_fract_x
_atom_site_fract_y
_atom_site_fract_z
Si Si1 0.081621 0.116087 0.107137
Si Si2 0.715947 0.206337 0.593147
Si Si3 0.198555 0.870407 0.897132
Si Si4 0.738660 0.868745 0.100823
Si Si5 0.321611 0.962238 0.977185
Si Si6 0.562871 0.785272 0.108094
Si Si7 0.573088 0.946010 0.395042
Si Si8 0.899556 0.509316 0.105121
O O1 0.114316 0.133916 0.250000
O O2 0.114868 0.063201 0.104114
O O3 0.941024 0.120109 0.093748
O O4 0.150585 0.139434 0.990907
O O5 0.743858 0.250000 0.500000
O O6 0.748236 0.209692 0.750000
O O7 0.766807 0.163583 0.513265
O O8 0.573845 0.201362 0.591226
O O9 0.222738 0.852557 0.750000
O O10 0.266198 0.918165 0.911409
O O11 0.775422 0.878397 0.250000
O O12 0.648585 0.827547 0.102085
O O13 0.663684 0.910680 0.044449
O O14 0.364010 0.005359 0.894394
O O15 0.444618 0.948319 0.043241
O O16 0.219976 0.982783 0.069932
O O17 0.572778 0.763908 0.250000
O O18 0.595687 0.750000 0.000000
O O19 0.555027 0.929302 0.250000
O O20 0.938679 0.496112 0.250000
O O21 0.000000 0.500000 0.000000
#
# Coordination Sequence:
#
# PCOD9437734 Si02
#       8
#     8   8   8   8   8   8   8   8
#     4  10  22  39  55  80 115 152 195 242 284 333
#     4  10  21  40  66  93 121 150 186 234 291 351
#     4  11  23  39  59  85 118 155 197 243 290 343
#     4  10  20  37  58  82 113 151 192 235 287 346
#     4  11  21  36  56  82 116 156 199 241 292 348
#     4   9  19  36  60  89 118 146 183 232 286 346
#     4  10  21  35  53  80 115 153 193 242 295 349
#     4  11  22  37  57  80 112 154 200 246 290 338
#
# _framework density 18.454405000000001
#
# number of rings (size 3 to 8) (size 9 to 14) (size 15 to 20)
#    0.000    1.750    2.500    1.875    0.000    4.500 
#    0.000    2.500    0.000    1.500    0.000    0.000 
#    0.000    0.000    0.000    0.000    0.000    0.000 
#
# Total GULP energy -356604.630191 kJ/mol
# GULP energy per Si atom -5571.947347 kJ/mol
# Density = 1.841240 g / cm^3
# Si number density = 18.454405 Si / 1000 Ang^3
#
#
#
# Elastic Constant Matrix: (Units=GPa)
#
#
# Indices 1 2 3 4 5 6 
#
# 1 85.3122 29.6845 64.7596 0.0000 0.0000 0.0000
# 2 29.6845 62.0722 44.0464 0.0000 0.0000 0.0000
# 3 64.7596 44.0464 140.0524 0.0000 0.0000 0.0000
# 4 0.0000 0.0000 0.0000 25.2603 0.0000 0.0000
# 5 0.0000 0.0000 0.0000 0.0000 106.8982 0.0000
# 6 0.0000 0.0000 0.0000 0.0000 0.0000 16.5627
#
#
#
# Elastic Compliance Matrix: (Units=1/GPa)
#
#
# Indices 1 2 3 4 5 6 
#
# 1 0.018668 -0.003607 -0.007498 0.000000 0.000000 0.000000
# 2 -0.003607 0.021435 -0.005073 0.000000 0.000000 0.000000
# 3 -0.007498 -0.005073 0.012203 0.000000 0.000000 0.000000
# 4 0.000000 0.000000 0.000000 0.039588 0.000000 0.000000
# 5 0.000000 0.000000 0.000000 0.000000 0.009355 0.000000
# 6 0.000000 0.000000 0.000000 0.000000 0.000000 0.060377
#
#
# Mechanical properties :
#
#
# Convention : Reuss Voigt Hill
#
# Bulk Modulus (GPa) = 50.12629 62.71308 56.41968
# Shear Modulus (GPa) = 24.92125 39.67399 32.29762
#
# Velocity S-wave (km/s) = 3.67880 4.64167 4.18799
# Velocity P-wave (km/s) = 6.72800 7.92359 7.35014
#
# Compressibility (1/GPa) = 0.01994961
#
# Stress axis : x y z
#
# Youngs Moduli (GPa) = 53.56715 46.65165 81.94960
#
# Poissons Ratio (x) = 0.16829 0.61442
# Poissons Ratio (y) = 0.19323 0.41577
# Poissons Ratio (z) = 0.40162 0.23668
#
# Static dielectric constant tensor:
#      x y z
#    x 1.613760 0.000000 0.000000 
#    y 0.000000 1.634710 0.000000 
#    z 0.000000 0.000000 1.684110 
# 
# From -- ./inp_files/3766.got.cif
#   From: 2010.05.17/outbox.cif.g08.bks.cpg/sg57_2_cif.got.tgz:3766.got - 2010.06.03 13:58:18.
