data_PCOD9437149
_publ_section_title
;
Structure prediction by ZEFSAII (Michael W. Deem and Ramdas Pophale) SiO2 
 PCOD9437149
Probable space group: P B C M
;
_chemical_formula_sum "Si O2"
_cell_formula_units_Z 48
_cell_length_a 15.354751
_cell_length_b 19.834982
_cell_length_c 8.690077
_cell_angle_alpha 90.000000
_cell_angle_beta 90.000000
_cell_angle_gamma 90.000000
_cell_volume 2646.660364
_symmetry_space_group_name_H-M "P B C M"
_symmetry_group_IT_number 57
_symmetry_cell_setting 'orthorhombic'
loop_
_space_group_symop_operation_xyz
x,y,z
-x,-y,1/2+z
x,1/2-y,-z
-x,1/2+y,1/2-z
-x,-y,-z
x,y,1/2-z
-x,1/2+y,z
x,1/2-y,1/2+z
loop_
_atom_site_type_symbol
_atom_site_label
_atom_site_fract_x
_atom_site_fract_y
_atom_site_fract_z
Si Si1 0.039075 0.069469 0.934832
Si Si2 0.277613 0.589376 0.564221
Si Si3 0.431249 0.676389 0.434353
Si Si4 0.891980 0.174972 0.935521
Si Si5 0.231218 0.436868 0.936312
Si Si6 0.631811 0.823212 0.935462
O O1 0.038896 0.065925 0.750000
O O2 0.975371 0.130450 0.982271
O O3 0.136533 0.078113 0.995860
O O4 0.000000 0.000000 0.000000
O O5 0.282543 0.591251 0.750000
O O6 0.364882 0.621078 0.496422
O O7 0.195194 0.635046 0.516179
O O8 0.260476 0.512188 0.518099
O O9 0.406985 0.750000 0.500000
O O10 0.427322 0.678769 0.250000
O O11 0.531528 0.662942 0.481596
O O12 0.891207 0.178050 0.750000
O O13 0.893878 0.250000 0.000000
O O14 0.225192 0.435973 0.750000
O O15 0.302062 0.381447 0.984873
O O16 0.633535 0.820238 0.750000
O O17 0.656263 0.750000 0.000000
#
# Coordination Sequence:
#
# PCOD9437149 Si02
#       6
#     8   8   8   8   8   8
#     4  11  22  39  60  83 112 149 189 230 278 335
#     4  10  20  36  56  81 114 149 184 230 283 336
#     4  10  20  35  55  82 112 149 192 232 280 335
#     4  10  22  38  56  82 113 146 186 228 277 332
#     4  10  21  39  60  83 113 150 186 230 287 337
#     4   9  20  38  59  81 113 151 189 235 284 333
#
# _framework density 18.136064999999999
#
# number of rings (size 3 to 8) (size 9 to 14) (size 15 to 20)
#    0.000    2.000    1.667    1.500    0.000    6.667 
#    0.000    3.333    0.000    0.000    0.000    0.000 
#    0.000    0.000    0.000    0.000    0.000    0.000 
#
# Total GULP energy -268065.200937 kJ/mol
# GULP energy per Si atom -5584.691686 kJ/mol
# Density = 1.809479 g / cm^3
# Si number density = 18.136065 Si / 1000 Ang^3
#
#
#
# Elastic Constant Matrix: (Units=GPa)
#
#
# Indices 1 2 3 4 5 6 
#
# 1 145.2807 117.8163 33.3506 0.0000 0.0000 0.0000
# 2 117.8163 187.4805 36.6154 0.0000 0.0000 0.0000
# 3 33.3506 36.6154 17.2071 0.0000 0.0000 0.0000
# 4 0.0000 0.0000 0.0000 29.0214 0.0000 0.0000
# 5 0.0000 0.0000 0.0000 0.0000 30.3736 0.0000
# 6 0.0000 0.0000 0.0000 0.0000 0.0000 40.6532
#
#
#
# Elastic Compliance Matrix: (Units=1/GPa)
#
#
# Indices 1 2 3 4 5 6 
#
# 1 0.016499 -0.007055 -0.016966 0.000000 0.000000 0.000000
# 2 -0.007055 0.012143 -0.012167 0.000000 0.000000 0.000000
# 3 -0.016966 -0.012167 0.116889 0.000000 0.000000 0.000000
# 4 0.000000 0.000000 0.000000 0.034457 0.000000 0.000000
# 5 0.000000 0.000000 0.000000 0.000000 0.032923 0.000000
# 6 0.000000 0.000000 0.000000 0.000000 0.000000 0.024598
#
#
# Mechanical properties :
#
#
# Convention : Reuss Voigt Hill
#
# Bulk Modulus (GPa) = 13.66940 80.61478 47.14209
# Shear Modulus (GPa) = 14.95787 30.82203 22.88995
#
# Velocity S-wave (km/s) = 2.87498 4.12696 3.55649
# Velocity P-wave (km/s) = 4.30977 8.20095 6.55094
#
# Compressibility (1/GPa) = 0.07315608
#
# Stress axis : x y z
#
# Youngs Moduli (GPa) = 60.60916 82.34859 8.55510
#
# Poissons Ratio (x) = 0.58096 0.14515
# Poissons Ratio (y) = 0.42759 0.10409
# Poissons Ratio (z) = 1.02831 1.00192
#
# Static dielectric constant tensor:
#      x y z
#    x 1.608430 0.000000 0.000000 
#    y 0.000000 1.591780 0.000000 
#    z 0.000000 0.000000 1.617570 
# 
# From -- ./inp_files/4555.got.cif
#   From: 2010.05.17/outbox.cif.g08.bks.cpg/sg57_3_cif.got.tgz:4555.got - 2010.06.03 13:58:18.
