data_PCOD9437980
_publ_section_title
;
Structure prediction by ZEFSAII (Michael W. Deem and Ramdas Pophale) SiO2 
 PCOD9437980
Probable space group: P B C M
;
_chemical_formula_sum "Si O2"
_cell_formula_units_Z 40
_cell_length_a 7.219537
_cell_length_b 13.883385
_cell_length_c 19.722084
_cell_angle_alpha 90.000000
_cell_angle_beta 90.000000
_cell_angle_gamma 90.000000
_cell_volume 1976.776265
_symmetry_space_group_name_H-M "P B C M"
_symmetry_group_IT_number 57
_symmetry_cell_setting 'orthorhombic'
loop_
_space_group_symop_operation_xyz
x,y,z
-x,-y,1/2+z
x,1/2-y,-z
-x,1/2+y,1/2-z
-x,-y,-z
x,y,1/2-z
-x,1/2+y,z
x,1/2-y,1/2+z
loop_
_atom_site_type_symbol
_atom_site_label
_atom_site_fract_x
_atom_site_fract_y
_atom_site_fract_z
Si Si1 0.510473 0.268612 0.639024
Si Si2 0.504394 0.504833 0.390430
Si Si3 0.665807 0.250000 0.500000
Si Si4 0.774688 0.706137 0.250000
Si Si5 0.813651 0.218325 0.750000
Si Si6 0.665307 0.478678 0.250000
Si Si7 0.794994 0.461253 0.507544
O O1 0.498992 0.381587 0.623581
O O2 0.540313 0.223112 0.565192
O O3 0.329991 0.249792 0.684483
O O4 0.689930 0.248711 0.685313
O O5 0.543457 0.460012 0.317251
O O6 0.673937 0.483785 0.440815
O O7 0.314173 0.487417 0.430596
O O8 0.784301 0.345219 0.516837
O O9 0.737122 0.589506 0.250000
O O10 0.989189 0.731088 0.250000
O O11 0.824386 0.102093 0.750000
O O12 0.000000 0.500000 0.500000
#
# Coordination Sequence:
#
# PCOD9437980 Si02
#       7
#     8   8   4   4   4   4   8
#     4   9  20  39  60  84 119 154 195 250 298 348
#     4   9  20  40  61  83 117 158 198 245 299 351
#     4  10  20  38  62  88 120 156 198 250 292 346
#     4   9  21  41  61  84 118 160 197 243 301 353
#     4  11  21  39  61  90 124 154 201 249 291 357
#     4  10  20  38  60  86 122 160 196 242 302 356
#     4  10  21  40  62  88 121 158 200 245 296 355
#
# _framework density 20.234966
#
# number of rings (size 3 to 8) (size 9 to 14) (size 15 to 20)
#    0.000    2.400    0.000    1.800    0.000    6.400 
#    0.000   43.000    0.000    0.000    0.000    0.000 
#    0.000    0.000    0.000    0.000    0.000    0.000 
#
# Total GULP energy -223123.049722 kJ/mol
# GULP energy per Si atom -5578.076243 kJ/mol
# Density = 2.018891 g / cm^3
# Si number density = 20.234966 Si / 1000 Ang^3
#
#
#
# Elastic Constant Matrix: (Units=GPa)
#
#
# Indices 1 2 3 4 5 6 
#
# 1 157.0103 52.3768 63.4042 0.0000 0.0000 0.0000
# 2 52.3768 104.9030 20.1697 0.0000 0.0000 0.0000
# 3 63.4042 20.1697 151.7587 0.0000 0.0000 0.0000
# 4 0.0000 0.0000 0.0000 30.0989 0.0000 0.0000
# 5 0.0000 0.0000 0.0000 0.0000 -0.8567 0.0000
# 6 0.0000 0.0000 0.0000 0.0000 0.0000 25.8183
#
#
#
# Elastic Compliance Matrix: (Units=1/GPa)
#
#
# Indices 1 2 3 4 5 6 
#
# 1 0.008959 -0.003852 -0.003231 0.000000 0.000000 0.000000
# 2 -0.003852 0.011439 0.000089 0.000000 0.000000 0.000000
# 3 -0.003231 0.000089 0.007927 0.000000 0.000000 0.000000
# 4 0.000000 0.000000 0.000000 0.033224 0.000000 0.000000
# 5 0.000000 0.000000 0.000000 0.000000 -1.167302 0.000000
# 6 0.000000 0.000000 0.000000 0.000000 0.000000 0.038732
#
#
# Mechanical properties :
#
#
# Convention : Reuss Voigt Hill
#
# Bulk Modulus (GPa) = 69.74817 76.17482 72.96150
# Shear Modulus (GPa) = -4.76983 29.52686 12.37851
#
# Velocity S-wave (km/s) = -1.53699 3.82409 2.47602
# Velocity P-wave (km/s) = 5.60305 7.56473 6.65655
#
# Compressibility (1/GPa) = 0.01433729
#
# Stress axis : x y z
#
# Youngs Moduli (GPa) = 111.62420 87.42304 126.14371
#
# Poissons Ratio (x) = 0.33673 0.40757
# Poissons Ratio (y) = 0.42994 -0.01122
# Poissons Ratio (z) = 0.36065 -0.00778
#
# Static dielectric constant tensor:
#      x y z
#    x 1.653500 0.000000 0.000000 
#    y 0.000000 1.797100 0.000000 
#    z 0.000000 0.000000 1.767410 
# 
# From -- ./inp_files/20067.got.cif
#   From: 2010.05.17/outbox.cif.g08.bks.cpg/sg57_11_cif.got.tgz:20067.got - 2010.06.03 13:58:18.
