data_PCOD9437026
_publ_section_title
;
Structure prediction by ZEFSAII (Michael W. Deem and Ramdas Pophale) SiO2 
 PCOD9437026
Probable space group: P B C M
;
_chemical_formula_sum "Si O2"
_cell_formula_units_Z 40
_cell_length_a 17.845302
_cell_length_b 5.205715
_cell_length_c 19.432818
_cell_angle_alpha 90.000000
_cell_angle_beta 90.000000
_cell_angle_gamma 90.000000
_cell_volume 1805.261304
_symmetry_space_group_name_H-M "P B C M"
_symmetry_group_IT_number 57
_symmetry_cell_setting 'orthorhombic'
loop_
_space_group_symop_operation_xyz
x,y,z
-x,-y,1/2+z
x,1/2-y,-z
-x,1/2+y,1/2-z
-x,-y,-z
x,y,1/2-z
-x,1/2+y,z
x,1/2-y,1/2+z
loop_
_atom_site_type_symbol
_atom_site_label
_atom_site_fract_x
_atom_site_fract_y
_atom_site_fract_z
Si Si1 0.799364 0.474419 0.750000
Si Si2 0.331474 0.122450 0.107681
Si Si3 0.719380 0.250000 0.000000
Si Si4 0.549690 0.550947 0.832077
Si Si5 0.301270 0.483938 0.750000
Si Si6 0.948266 0.750000 0.500000
Si Si7 0.179376 0.098403 0.898785
O O1 0.761376 0.198789 0.750000
O O2 0.840582 0.501744 0.677305
O O3 0.735736 0.699854 0.750000
O O4 0.380290 0.378871 0.118615
O O5 0.243427 0.188028 0.109739
O O6 0.333868 0.950764 0.040230
O O7 0.347029 0.978751 0.179912
O O8 0.775935 0.392044 0.946346
O O9 0.569655 0.558771 0.750000
O O10 0.507361 0.286689 0.845471
O O11 0.891789 0.784400 0.436308
O O12 0.000000 0.500000 0.500000
#
# Coordination Sequence:
#
# PCOD9437026 Si02
#       7
#     4   8   4   8   4   4   8
#     4  10  22  38  66 100 134 166 225 293 326 396
#     4  11  22  39  66  99 133 178 233 292 331 411
#     4  12  21  38  70  95 142 170 240 286 339 406
#     4  10  23  41  63  95 138 182 226 282 354 416
#     4  10  20  34  60  98 130 164 219 291 346 366
#     4  12  27  46  72 101 144 184 218 270 351 430
#     4  11  24  43  69 105 136 182 236 283 346 411
#
# _framework density 22.157456
#
# number of rings (size 3 to 8) (size 9 to 14) (size 15 to 20)
#    0.000    1.200    5.000    0.600    2.800    0.000 
#    0.000    2.000    0.000    0.000    0.000    0.000 
#    0.000    0.000    0.000    0.000    0.000    0.000 
#
# Total GULP energy -223529.284427 kJ/mol
# GULP energy per Si atom -5588.232111 kJ/mol
# Density = 2.210703 g / cm^3
# Si number density = 22.157456 Si / 1000 Ang^3
#
#
#
# Elastic Constant Matrix: (Units=GPa)
#
#
# Indices 1 2 3 4 5 6 
#
# 1 116.4660 34.1559 26.2986 0.0000 0.0000 0.0000
# 2 34.1559 86.4721 20.3968 0.0000 0.0000 0.0000
# 3 26.2986 20.3968 139.5928 0.0000 0.0000 0.0000
# 4 0.0000 0.0000 0.0000 28.2075 0.0000 0.0000
# 5 0.0000 0.0000 0.0000 0.0000 31.4646 0.0000
# 6 0.0000 0.0000 0.0000 0.0000 0.0000 37.9465
#
#
#
# Elastic Compliance Matrix: (Units=1/GPa)
#
#
# Indices 1 2 3 4 5 6 
#
# 1 0.009950 -0.003612 -0.001347 0.000000 0.000000 0.000000
# 2 -0.003612 0.013289 -0.001261 0.000000 0.000000 0.000000
# 3 -0.001347 -0.001261 0.007602 0.000000 0.000000 0.000000
# 4 0.000000 0.000000 0.000000 0.035452 0.000000 0.000000
# 5 0.000000 0.000000 0.000000 0.000000 0.031782 0.000000
# 6 0.000000 0.000000 0.000000 0.000000 0.000000 0.026353
#
#
# Mechanical properties :
#
#
# Convention : Reuss Voigt Hill
#
# Bulk Modulus (GPa) = 54.34864 56.02595 55.18729
# Shear Modulus (GPa) = 34.96502 36.96902 35.96702
#
# Velocity S-wave (km/s) = 3.97675 4.08912 4.03332
# Velocity P-wave (km/s) = 6.75778 6.90180 6.83017
#
# Compressibility (1/GPa) = 0.01839973
#
# Stress axis : x y z
#
# Youngs Moduli (GPa) = 100.50563 75.25146 131.55010
#
# Poissons Ratio (x) = 0.27184 0.17715
# Poissons Ratio (y) = 0.36307 0.16590
# Poissons Ratio (z) = 0.13535 0.09490
#
# Static dielectric constant tensor:
#      x y z
#    x 1.798040 0.000000 0.000000 
#    y 0.000000 1.892300 0.000000 
#    z 0.000000 0.000000 1.930970 
# 
# From -- ./inp_files/25553.got.cif
#   From: 2010.05.17/outbox.cif.g08.bks.cpg/sg57_13_cif.got.tgz:25553.got - 2010.06.03 13:58:18.
