data_PCOD9437989
_publ_section_title
;
Structure prediction by ZEFSAII (Michael W. Deem and Ramdas Pophale) SiO2 
 PCOD9437989
Probable space group: P B C M
;
_chemical_formula_sum "Si O2"
_cell_formula_units_Z 48
_cell_length_a 15.200676
_cell_length_b 18.686074
_cell_length_c 8.551251
_cell_angle_alpha 90.000000
_cell_angle_beta 90.000000
_cell_angle_gamma 90.000000
_cell_volume 2428.905514
_symmetry_space_group_name_H-M "P B C M"
_symmetry_group_IT_number 57
_symmetry_cell_setting 'orthorhombic'
loop_
_space_group_symop_operation_xyz
x,y,z
-x,-y,1/2+z
x,1/2-y,-z
-x,1/2+y,1/2-z
-x,-y,-z
x,y,1/2-z
-x,1/2+y,z
x,1/2-y,1/2+z
loop_
_atom_site_type_symbol
_atom_site_label
_atom_site_fract_x
_atom_site_fract_y
_atom_site_fract_z
Si Si1 0.480168 0.174310 0.437749
Si Si2 0.147962 0.452626 0.562528
Si Si3 0.349484 0.050860 0.439070
Si Si4 0.656209 0.387346 0.438091
Si Si5 0.149493 0.887980 0.564131
Si Si6 0.974196 0.673119 0.564453
O O1 0.446501 0.250000 0.500000
O O2 0.480553 0.174575 0.250000
O O3 0.418821 0.109126 0.495908
O O4 0.578553 0.161768 0.499506
O O5 0.143090 0.462064 0.750000
O O6 0.248463 0.431845 0.520474
O O7 0.130732 0.529468 0.484123
O O8 0.082031 0.391423 0.508634
O O9 0.354535 0.050823 0.250000
O O10 0.365929 0.969175 0.489450
O O11 0.659784 0.385241 0.250000
O O12 0.752598 0.370414 0.504186
O O13 0.144810 0.880594 0.750000
O O14 0.075039 0.840208 0.484607
O O15 0.944938 0.750000 0.500000
O O16 0.965758 0.671400 0.750000
#
# Coordination Sequence:
#
# PCOD9437989 Si02
#       6
#     8   8   8   8   8   8
#     4  11  22  37  55  82 116 153 190 231 281 339
#     4  10  20  39  63  89 118 152 192 239 286 338
#     4   8  18  36  60  85 113 146 188 236 283 331
#     4  10  20  38  61  86 112 146 189 239 289 338
#     4  11  22  39  62  89 116 150 192 238 286 341
#     4  12  25  41  59  85 118 155 193 237 289 345
#
# _framework density 19.761989
#
# number of rings (size 3 to 8) (size 9 to 14) (size 15 to 20)
#    0.000    1.667    0.000    6.500    0.000    1.333 
#    0.000   14.167    0.000    0.000    0.000    0.000 
#    0.000    0.000    0.000    0.000    0.000    0.000 
#
# Total GULP energy -268349.841768 kJ/mol
# GULP energy per Si atom -5590.621704 kJ/mol
# Density = 1.971701 g / cm^3
# Si number density = 19.761989 Si / 1000 Ang^3
#
#
#
# Elastic Constant Matrix: (Units=GPa)
#
#
# Indices 1 2 3 4 5 6 
#
# 1 42.1788 14.7522 -7.6410 0.0000 0.0000 0.0000
# 2 14.7522 24.5226 -6.8373 0.0000 0.0000 0.0000
# 3 -7.6410 -6.8373 49.5963 0.0000 0.0000 0.0000
# 4 0.0000 0.0000 0.0000 31.0190 0.0000 0.0000
# 5 0.0000 0.0000 0.0000 0.0000 21.3786 0.0000
# 6 0.0000 0.0000 0.0000 0.0000 0.0000 -2.6768
#
#
#
# Elastic Compliance Matrix: (Units=1/GPa)
#
#
# Indices 1 2 3 4 5 6 
#
# 1 0.030263 -0.017581 0.002239 0.000000 0.000000 0.000000
# 2 -0.017581 0.052623 0.004546 0.000000 0.000000 0.000000
# 3 0.002239 0.004546 0.021134 0.000000 0.000000 0.000000
# 4 0.000000 0.000000 0.000000 0.032238 0.000000 0.000000
# 5 0.000000 0.000000 0.000000 0.000000 0.046776 0.000000
# 6 0.000000 0.000000 0.000000 0.000000 0.000000 -0.373582
#
#
# Mechanical properties :
#
#
# Convention : Reuss Voigt Hill
#
# Bulk Modulus (GPa) = 12.13199 12.98283 12.55741
# Shear Modulus (GPa) = -35.34106 17.67909 -8.83099
#
# Velocity S-wave (km/s) = -4.23346 2.99423 -2.11622
# Velocity P-wave (km/s) = 4.21235 4.30555 0.63004
#
# Compressibility (1/GPa) = 0.08242669
#
# Stress axis : x y z
#
# Youngs Moduli (GPa) = 33.04333 19.00324 47.31623
#
# Poissons Ratio (x) = 0.33410 -0.10593
# Poissons Ratio (y) = 0.58095 -0.21509
# Poissons Ratio (z) = -0.07397 -0.08639
#
# Static dielectric constant tensor:
#      x y z
#    x 1.682970 0.000000 0.000000 
#    y 0.000000 1.689160 0.000000 
#    z 0.000000 0.000000 1.662420 
# 
# From -- ./inp_files/4542.got.cif
#   From: 2010.05.17/outbox.cif.g08.bks.cpg/sg57_3_cif.got.tgz:4542.got - 2010.06.03 13:58:18.
