data_PCOD9437506
_publ_section_title
;
Structure prediction by ZEFSAII (Michael W. Deem and Ramdas Pophale) SiO2 
 PCOD9437506
Probable space group: P B C M
;
_chemical_formula_sum "Si O2"
_cell_formula_units_Z 48
_cell_length_a 18.164765
_cell_length_b 16.350083
_cell_length_c 8.176064
_cell_angle_alpha 90.000000
_cell_angle_beta 90.000000
_cell_angle_gamma 90.000000
_cell_volume 2428.253524
_symmetry_space_group_name_H-M "P B C M"
_symmetry_group_IT_number 57
_symmetry_cell_setting 'orthorhombic'
loop_
_space_group_symop_operation_xyz
x,y,z
-x,-y,1/2+z
x,1/2-y,-z
-x,1/2+y,1/2-z
-x,-y,-z
x,y,1/2-z
-x,1/2+y,z
x,1/2-y,1/2+z
loop_
_atom_site_type_symbol
_atom_site_label
_atom_site_fract_x
_atom_site_fract_y
_atom_site_fract_z
Si Si1 0.343469 0.842913 0.944411
Si Si2 0.500687 0.908121 0.444064
Si Si3 0.656346 0.843084 0.053064
Si Si4 0.818720 0.845449 0.447946
Si Si5 0.818716 0.345445 0.551943
Si Si6 0.084475 0.499971 0.447724
O O1 0.344456 0.851475 0.750000
O O2 0.263546 0.874915 0.001299
O O3 0.340752 0.750000 0.000000
O O4 0.421884 0.873923 0.004286
O O5 0.504371 0.899249 0.250000
O O6 0.577904 0.873728 0.512540
O O7 0.500000 0.000000 0.500000
O O8 0.654804 0.851830 0.250000
O O9 0.736480 0.875209 0.999368
O O10 0.659472 0.750000 0.000000
O O11 0.831084 0.750000 0.500000
O O12 0.819720 0.843879 0.250000
O O13 0.875578 0.915625 0.503533
O O14 0.831208 0.250000 0.500000
O O15 0.819542 0.343911 0.750000
O O16 0.875522 0.415688 0.496555
O O17 0.088806 0.499975 0.250000
O O18 0.000000 0.500000 0.500000
#
# Coordination Sequence:
#
# PCOD9437506 Si02
#       6
#     8   8   8   8   8   8
#     4  10  20  36  58  80 109 147 189 234 281 335
#     4  11  23  35  51  79 112 149 190 233 281 331
#     4   9  19  35  56  77 104 142 184 225 272 326
#     4   9  19  37  60  83 111 147 187 228 277 334
#     4   9  20  38  61  85 113 152 192 233 286 341
#     4  10  22  39  60  85 114 149 185 228 285 345
#
# _framework density 19.767294
#
# number of rings (size 3 to 8) (size 9 to 14) (size 15 to 20)
#    0.000    2.333    0.000    1.500    2.333    5.333 
#    0.000    3.333    0.000    0.000    0.000    0.000 
#    0.000    0.000    0.000    0.000    0.000    0.000 
#
# Total GULP energy -267246.001556 kJ/mol
# GULP energy per Si atom -5567.625032 kJ/mol
# Density = 1.972230 g / cm^3
# Si number density = 19.767294 Si / 1000 Ang^3
#
#
#
# Elastic Constant Matrix: (Units=GPa)
#
#
# Indices 1 2 3 4 5 6 
#
# 1 227.6312 107.2490 22.9627 0.0000 0.0000 0.0000
# 2 107.2490 99.9356 9.5018 0.0000 0.0000 0.0000
# 3 22.9627 9.5018 11.9406 0.0000 0.0000 0.0000
# 4 0.0000 0.0000 0.0000 25.9256 0.0000 0.0000
# 5 0.0000 0.0000 0.0000 0.0000 23.7542 0.0000
# 6 0.0000 0.0000 0.0000 0.0000 0.0000 48.6214
#
#
#
# Elastic Compliance Matrix: (Units=1/GPa)
#
#
# Indices 1 2 3 4 5 6 
#
# 1 0.010228 -0.009852 -0.011830 0.000000 0.000000 0.000000
# 2 -0.009852 0.020315 0.002780 0.000000 0.000000 0.000000
# 3 -0.011830 0.002780 0.104285 0.000000 0.000000 0.000000
# 4 0.000000 0.000000 0.000000 0.038572 0.000000 0.000000
# 5 0.000000 0.000000 0.000000 0.000000 0.042098 0.000000
# 6 0.000000 0.000000 0.000000 0.000000 0.000000 0.020567
#
#
# Mechanical properties :
#
#
# Convention : Reuss Voigt Hill
#
# Bulk Modulus (GPa) = 10.30662 68.77050 39.53856
# Shear Modulus (GPa) = 16.32869 32.97985 24.65427
#
# Velocity S-wave (km/s) = 2.87722 4.08904 3.53544
# Velocity P-wave (km/s) = 4.03276 7.56037 6.05898
#
# Compressibility (1/GPa) = 0.09702506
#
# Stress axis : x y z
#
# Youngs Moduli (GPa) = 97.76901 49.22471 9.58911
#
# Poissons Ratio (x) = 0.48496 0.11344
# Poissons Ratio (y) = 0.96321 -0.02666
# Poissons Ratio (z) = 1.15659 -0.13686
#
# Static dielectric constant tensor:
#      x y z
#    x 2.150440 0.000000 0.000000 
#    y 0.000000 1.669910 0.000000 
#    z 0.000000 0.000000 1.704550 
# 
# From -- ./inp_files/6474.got.cif
#   From: 2010.05.17/outbox.cif.g08.bks.cpg/sg57_4_cif.got.tgz:6474.got - 2010.06.03 13:58:18.
