data_PCOD9437908
_publ_section_title
;
Structure prediction by ZEFSAII (Michael W. Deem and Ramdas Pophale) SiO2 
 PCOD9437908
Probable space group: P B C M
;
_chemical_formula_sum "Si O2"
_cell_formula_units_Z 48
_cell_length_a 28.663716
_cell_length_b 9.707273
_cell_length_c 8.890033
_cell_angle_alpha 90.000000
_cell_angle_beta 90.000000
_cell_angle_gamma 90.000000
_cell_volume 2473.620713
_symmetry_space_group_name_H-M "P B C M"
_symmetry_group_IT_number 57
_symmetry_cell_setting 'orthorhombic'
loop_
_space_group_symop_operation_xyz
x,y,z
-x,-y,1/2+z
x,1/2-y,-z
-x,1/2+y,1/2-z
-x,-y,-z
x,y,1/2-z
-x,1/2+y,z
x,1/2-y,1/2+z
loop_
_atom_site_type_symbol
_atom_site_label
_atom_site_fract_x
_atom_site_fract_y
_atom_site_fract_z
Si Si1 0.619381 0.750000 0.000000
Si Si2 0.320570 0.983434 0.567916
Si Si3 0.958417 0.094508 0.066786
Si Si4 0.548635 0.361909 0.750000
Si Si5 0.221865 0.398158 0.069767
Si Si6 0.121543 0.096650 0.067796
Si Si7 0.545211 0.685375 0.750000
Si Si8 0.382492 0.750000 0.000000
O O1 0.653768 0.622134 0.981460
O O2 0.580634 0.727905 0.876523
O O3 0.328230 0.960320 0.750000
O O4 0.265355 0.000335 0.546692
O O5 0.345813 0.870388 0.464913
O O6 0.959897 0.098040 0.250000
O O7 0.961203 0.250000 0.000000
O O8 0.912474 0.015928 0.005840
O O9 0.000000 0.000000 0.000000
O O10 0.535636 0.522187 0.750000
O O11 0.502601 0.269157 0.750000
O O12 0.581909 0.322354 0.612744
O O13 0.213802 0.384237 0.250000
O O14 0.235270 0.250000 0.000000
O O15 0.174192 0.436636 0.985644
O O16 0.117676 0.099538 0.250000
O O17 0.111112 0.250000 0.000000
#
# Coordination Sequence:
#
# PCOD9437908 Si02
#       8
#     4   8   8   4   8   8   4   4
#     4  12  21  44  66  90 128 156 203 256 306 380
#     4  11  23  43  64  96 125 161 212 262 314 381
#     4  12  25  44  69 101 138 184 234 289 345 404
#     4  12  28  46  64  92 126 156 206 252 309 382
#     4  10  20  37  63  94 131 167 214 272 321 388
#     4  11  22  41  65  98 138 180 229 281 336 398
#     4  12  28  44  64  96 124 158 204 250 311 378
#     4  12  23  48  64  88 128 160 199 264 308 380
#
# _framework density 19.404751999999998
#
# number of rings (size 3 to 8) (size 9 to 14) (size 15 to 20)
#    0.000    0.667    4.167    5.500    2.333    1.333 
#    6.000    0.000    0.000    0.000    0.000    0.000 
#    0.000    0.000    0.000    0.000    0.000    0.000 
#
# Total GULP energy -267489.659406 kJ/mol
# GULP energy per Si atom -5572.701238 kJ/mol
# Density = 1.936059 g / cm^3
# Si number density = 19.404752 Si / 1000 Ang^3
#
#
#
# Elastic Constant Matrix: (Units=GPa)
#
#
# Indices 1 2 3 4 5 6 
#
# 1 147.9086 87.0044 42.5933 0.0000 0.0000 0.0000
# 2 87.0044 219.0363 15.5224 0.0000 0.0000 0.0000
# 3 42.5933 15.5224 152.3720 0.0000 0.0000 0.0000
# 4 0.0000 0.0000 0.0000 29.0284 0.0000 0.0000
# 5 0.0000 0.0000 0.0000 0.0000 -541.1012 0.0000
# 6 0.0000 0.0000 0.0000 0.0000 0.0000 39.8313
#
#
#
# Elastic Compliance Matrix: (Units=1/GPa)
#
#
# Indices 1 2 3 4 5 6 
#
# 1 0.009562 -0.003635 -0.002303 0.000000 0.000000 0.000000
# 2 -0.003635 0.005981 0.000407 0.000000 0.000000 0.000000
# 3 -0.002303 0.000407 0.007165 0.000000 0.000000 0.000000
# 4 0.000000 0.000000 0.000000 0.034449 0.000000 0.000000
# 5 0.000000 0.000000 0.000000 0.000000 -0.001848 0.000000
# 6 0.000000 0.000000 0.000000 0.000000 0.000000 0.025106
#
#
# Mechanical properties :
#
#
# Convention : Reuss Voigt Hill
#
# Bulk Modulus (GPa) = 85.86519 89.95080 87.90799
# Shear Modulus (GPa) = 52.43361 -69.50185 -8.53412
#
# Velocity S-wave (km/s) = 5.20381 -5.99122 -2.09941
# Velocity P-wave (km/s) = 8.96950 1.18486 6.28681
#
# Compressibility (1/GPa) = 0.01164616
#
# Stress axis : x y z
#
# Youngs Moduli (GPa) = 104.57718 167.20917 139.56513
#
# Poissons Ratio (x) = 0.60782 0.32137
# Poissons Ratio (y) = 0.38015 -0.05679
# Poissons Ratio (z) = 0.24081 -0.06804
#
# Static dielectric constant tensor:
#      x y z
#    x 1.647680 0.000000 0.000000 
#    y 0.000000 1.737470 0.000000 
#    z 0.000000 0.000000 1.668600 
# 
# From -- ./inp_files/10219.got.cif
#   From: 2010.05.17/outbox.cif.g08.bks.cpg/sg57_6_cif.got.tgz:10219.got - 2010.06.03 13:58:18.
