data_PCOD9437232
_publ_section_title
;
Structure prediction by ZEFSAII (Michael W. Deem and Ramdas Pophale) SiO2 
 PCOD9437232
Probable space group: P B C M
;
_chemical_formula_sum "Si O2"
_cell_formula_units_Z 32
_cell_length_a 7.836417
_cell_length_b 11.006284
_cell_length_c 12.700975
_cell_angle_alpha 90.000000
_cell_angle_beta 90.000000
_cell_angle_gamma 90.000000
_cell_volume 1095.456948
_symmetry_space_group_name_H-M "P B C M"
_symmetry_group_IT_number 57
_symmetry_cell_setting 'orthorhombic'
loop_
_space_group_symop_operation_xyz
x,y,z
-x,-y,1/2+z
x,1/2-y,-z
-x,1/2+y,1/2-z
-x,-y,-z
x,y,1/2-z
-x,1/2+y,z
x,1/2-y,1/2+z
loop_
_atom_site_type_symbol
_atom_site_label
_atom_site_fract_x
_atom_site_fract_y
_atom_site_fract_z
Si Si1 0.950109 0.444406 0.127394
Si Si2 0.464256 0.445926 0.635787
Si Si3 0.306436 0.126395 0.942274
Si Si4 0.827342 0.318360 0.877527
O O1 0.898662 0.461888 0.250000
O O2 0.028100 0.579063 0.089443
O O3 0.845665 0.322461 0.088543
O O4 0.137058 0.378180 0.122716
O O5 0.410133 0.404844 0.750000
O O6 0.542832 0.580328 0.630855
O O7 0.312588 0.452909 0.551327
O O8 0.634664 0.369868 0.606251
O O9 0.339568 0.250000 0.000000
O O10 0.845423 0.317333 0.750000
#
# Coordination Sequence:
#
# PCOD9437232 Si02
#       4
#     8   8   8   8
#     4   9  17  33  58  88 122 157 201 260 318 374
#     4   9  19  37  59  84 120 162 206 258 312 373
#     4  10  20  35  56  88 120 155 203 255 316 372
#     4   8  15  31  57  86 116 155 202 254 311 365
#
# _framework density 29.211552999999999
#
# number of rings (size 3 to 8) (size 9 to 14) (size 15 to 20)
#    0.000    3.000    0.000    2.250    0.000    2.000 
#    0.000   11.250    0.000    3.000    0.000   17.500 
#    0.000    0.000    0.000    0.000    0.000    0.000 
#
# Total GULP energy -178522.197091 kJ/mol
# GULP energy per Si atom -5578.818659 kJ/mol
# Density = 2.914507 g / cm^3
# Si number density = 29.211553 Si / 1000 Ang^3
#
#
#
# Elastic Constant Matrix: (Units=GPa)
#
#
# Indices 1 2 3 4 5 6 
#
# 1 129.6089 17.7485 -2.6862 0.0000 0.0000 0.0000
# 2 17.7485 225.0268 30.5763 0.0000 0.0000 0.0000
# 3 -2.6862 30.5763 99.5745 0.0000 0.0000 0.0000
# 4 0.0000 0.0000 0.0000 61.7484 0.0000 0.0000
# 5 0.0000 0.0000 0.0000 0.0000 51.4417 0.0000
# 6 0.0000 0.0000 0.0000 0.0000 0.0000 22.4780
#
#
#
# Elastic Compliance Matrix: (Units=1/GPa)
#
#
# Indices 1 2 3 4 5 6 
#
# 1 0.007816 -0.000673 0.000418 0.000000 0.000000 0.000000
# 2 -0.000673 0.004695 -0.001460 0.000000 0.000000 0.000000
# 3 0.000418 -0.001460 0.010502 0.000000 0.000000 0.000000
# 4 0.000000 0.000000 0.000000 0.016195 0.000000 0.000000
# 5 0.000000 0.000000 0.000000 0.000000 0.019439 0.000000
# 6 0.000000 0.000000 0.000000 0.000000 0.000000 0.044488
#
#
# Mechanical properties :
#
#
# Convention : Reuss Voigt Hill
#
# Bulk Modulus (GPa) = 51.06517 60.60972 55.83744
# Shear Modulus (GPa) = 44.21061 54.37175 49.29118
#
# Velocity S-wave (km/s) = 3.89455 4.31897 4.11224
# Velocity P-wave (km/s) = 6.14349 6.75758 6.45784
#
# Compressibility (1/GPa) = 0.01958282
#
# Stress axis : x y z
#
# Youngs Moduli (GPa) = 127.93670 212.97471 95.21717
#
# Poissons Ratio (x) = 0.14338 -0.03976
# Poissons Ratio (y) = 0.08613 0.13901
# Poissons Ratio (z) = -0.05342 0.31094
#
# Static dielectric constant tensor:
#      x y z
#    x 2.217900 0.000000 0.000000 
#    y 0.000000 6.056700 0.000000 
#    z 0.000000 0.000000 -0.503930 
# 
# From -- ./inp_files/15490.got.cif
#   From: 2010.05.17/outbox.cif.g08.bks.cpg/sg57_8_cif.got.tgz:15490.got - 2010.06.03 13:58:18.
