data_PCOD9437433
_publ_section_title
;
Structure prediction by ZEFSAII (Michael W. Deem and Ramdas Pophale) SiO2 
 PCOD9437433
Probable space group: P B C M
;
_chemical_formula_sum "Si O2"
_cell_formula_units_Z 56
_cell_length_a 24.394568
_cell_length_b 14.710622
_cell_length_c 8.620455
_cell_angle_alpha 90.000000
_cell_angle_beta 90.000000
_cell_angle_gamma 90.000000
_cell_volume 3093.530177
_symmetry_space_group_name_H-M "P B C M"
_symmetry_group_IT_number 57
_symmetry_cell_setting 'orthorhombic'
loop_
_space_group_symop_operation_xyz
x,y,z
-x,-y,1/2+z
x,1/2-y,-z
-x,1/2+y,1/2-z
-x,-y,-z
x,y,1/2-z
-x,1/2+y,z
x,1/2-y,1/2+z
loop_
_atom_site_type_symbol
_atom_site_label
_atom_site_fract_x
_atom_site_fract_y
_atom_site_fract_z
Si Si1 0.150402 0.147782 0.936637
Si Si2 0.767711 0.499050 0.065001
Si Si3 0.558171 0.148909 0.063413
Si Si4 0.850525 0.352047 0.563439
Si Si5 0.938947 0.500634 0.936408
Si Si6 0.645489 0.000158 0.063868
Si Si7 0.435352 0.148110 0.063317
O O1 0.152651 0.149701 0.750000
O O2 0.096553 0.089197 0.983856
O O3 0.149924 0.250000 0.000000
O O4 0.201150 0.087810 0.998392
O O5 0.771562 0.499721 0.250000
O O6 0.799567 0.410952 0.999279
O O7 0.705069 0.497745 0.011246
O O8 0.558990 0.151913 0.250000
O O9 0.497002 0.116145 0.018506
O O10 0.606982 0.083829 0.011618
O O11 0.565213 0.250000 0.000000
O O12 0.851651 0.250000 0.500000
O O13 0.848039 0.350206 0.750000
O O14 0.903955 0.411530 0.516687
O O15 0.941104 0.501016 0.750000
O O16 0.000000 0.500000 0.000000
O O17 0.650937 0.002649 0.250000
O O18 0.611374 0.912342 0.012481
O O19 0.430848 0.146460 0.250000
O O20 0.430784 0.250000 0.000000
#
# Coordination Sequence:
#
# PCOD9437433 Si02
#       7
#     8   8   8   8   8   8   8
#     4  10  21  39  60  84 113 149 188 230 277 329
#     4  11  23  39  58  82 110 145 186 233 281 330
#     4   9  20  36  56  80 109 142 178 221 272 327
#     4  10  21  39  60  84 113 150 190 231 277 328
#     4   9  20  36  56  84 119 151 186 229 272 320
#     4  11  22  37  56  81 111 144 181 227 276 328
#     4  10  20  36  56  81 109 141 180 223 272 330
#
# _framework density 18.102297
#
# number of rings (size 3 to 8) (size 9 to 14) (size 15 to 20)
#    0.000    2.000    0.000    4.286    0.000    6.857 
#    0.000    7.143    0.000    0.000    0.000    0.000 
#    0.000    0.000    0.000    0.000    0.000    0.000 
#
# Total GULP energy -312699.827421 kJ/mol
# GULP energy per Si atom -5583.925490 kJ/mol
# Density = 1.806110 g / cm^3
# Si number density = 18.102297 Si / 1000 Ang^3
#
#
#
# Elastic Constant Matrix: (Units=GPa)
#
#
# Indices 1 2 3 4 5 6 
#
# 1 186.0121 98.8704 47.9272 0.0000 0.0000 0.0000
# 2 98.8704 163.9110 46.5257 0.0000 0.0000 0.0000
# 3 47.9272 46.5257 68.1945 0.0000 0.0000 0.0000
# 4 0.0000 0.0000 0.0000 31.6064 0.0000 0.0000
# 5 0.0000 0.0000 0.0000 0.0000 40.3732 0.0000
# 6 0.0000 0.0000 0.0000 0.0000 0.0000 12.6383
#
#
#
# Elastic Compliance Matrix: (Units=1/GPa)
#
#
# Indices 1 2 3 4 5 6 
#
# 1 0.008389 -0.004200 -0.003030 0.000000 0.000000 0.000000
# 2 -0.004200 0.009669 -0.003645 0.000000 0.000000 0.000000
# 3 -0.003030 -0.003645 0.019280 0.000000 0.000000 0.000000
# 4 0.000000 0.000000 0.000000 0.031639 0.000000 0.000000
# 5 0.000000 0.000000 0.000000 0.000000 0.024769 0.000000
# 6 0.000000 0.000000 0.000000 0.000000 0.000000 0.079124
#
#
# Mechanical properties :
#
#
# Convention : Reuss Voigt Hill
#
# Bulk Modulus (GPa) = 64.15244 89.41826 76.78535
# Shear Modulus (GPa) = 25.02278 31.90988 28.46633
#
# Velocity S-wave (km/s) = 3.72196 4.20307 3.96981
# Velocity P-wave (km/s) = 7.34755 8.54738 7.97007
#
# Compressibility (1/GPa) = 0.01558787
#
# Stress axis : x y z
#
# Youngs Moduli (GPa) = 119.19884 103.42350 51.86629
#
# Poissons Ratio (x) = 0.43440 0.15718
# Poissons Ratio (y) = 0.50066 0.18904
# Poissons Ratio (z) = 0.36122 0.37695
#
# Static dielectric constant tensor:
#      x y z
#    x 1.603770 0.000000 0.000000 
#    y 0.000000 -2.144510 0.000000 
#    z 0.000000 0.000000 1.688600 
# 
# From -- ./inp_files/8030.got.cif
#   From: 2010.05.17/outbox.cif.g08.bks.cpg/sg57_5_cif.got.tgz:8030.got - 2010.06.03 13:58:18.
