data_PCOD9438632
_publ_section_title
;
Structure prediction by ZEFSAII (Michael W. Deem and Ramdas Pophale) SiO2 
 PCOD9438632
Probable space group: P B C M
;
_chemical_formula_sum "Si O2"
_cell_formula_units_Z 56
_cell_length_a 9.045817
_cell_length_b 23.134211
_cell_length_c 15.020669
_cell_angle_alpha 90.000000
_cell_angle_beta 90.000000
_cell_angle_gamma 90.000000
_cell_volume 3143.342944
_symmetry_space_group_name_H-M "P B C M"
_symmetry_group_IT_number 57
_symmetry_cell_setting 'orthorhombic'
loop_
_space_group_symop_operation_xyz
x,y,z
-x,-y,1/2+z
x,1/2-y,-z
-x,1/2+y,1/2-z
-x,-y,-z
x,y,1/2-z
-x,1/2+y,z
x,1/2-y,1/2+z
loop_
_atom_site_type_symbol
_atom_site_label
_atom_site_fract_x
_atom_site_fract_y
_atom_site_fract_z
Si Si1 0.739527 0.628734 0.980190
Si Si2 0.457274 0.302676 0.145031
Si Si3 0.554438 0.976525 0.094609
Si Si4 0.272156 0.913339 0.849779
Si Si5 0.454295 0.165746 0.354777
Si Si6 0.048495 0.931886 0.493971
Si Si7 0.297279 0.896871 0.351542
O O1 0.681930 0.679683 0.915861
O O2 0.665885 0.573870 0.931746
O O3 0.909221 0.610938 0.987142
O O4 0.667303 0.641471 0.076673
O O5 0.430910 0.315796 0.250000
O O6 0.476668 0.234280 0.135514
O O7 0.602602 0.340998 0.119407
O O8 0.416200 0.948810 0.144506
O O9 0.637107 0.026843 0.145913
O O10 0.500000 0.000000 0.000000
O O11 0.222277 0.901340 0.750000
O O12 0.391879 0.865542 0.877323
O O13 0.138605 0.918560 0.916894
O O14 0.420869 0.153613 0.250000
O O15 0.162957 0.916232 0.414529
O O16 0.000000 0.000000 0.500000
O O17 0.248230 0.887089 0.250000
#
# Coordination Sequence:
#
# PCOD9438632 Si02
#       7
#     8   8   8   8   8   8   8
#     4  11  21  35  60  82 119 156 188 229 290 342
#     4   9  20  40  64  88 111 143 199 252 285 330
#     4  11  17  36  58  82 115 146 190 245 277 330
#     4  11  22  37  60  86 115 155 194 236 294 344
#     4  10  21  39  63  88 112 146 195 247 290 337
#     4  12  24  39  52  83 128 156 183 232 285 355
#     4  10  21  37  61  86 111 152 197 240 287 332
#
# _framework density 17.815428000000001
#
# number of rings (size 3 to 8) (size 9 to 14) (size 15 to 20)
#    0.000    1.429    4.286    1.714    0.000    2.286 
#    0.000    2.857    0.000    3.429    0.000    0.000 
#    0.000    0.000    0.000    0.000    0.000    0.000 
#
# Total GULP energy -312332.787454 kJ/mol
# GULP energy per Si atom -5577.371205 kJ/mol
# Density = 1.777488 g / cm^3
# Si number density = 17.815428 Si / 1000 Ang^3
#
#
#
# Elastic Constant Matrix: (Units=GPa)
#
#
# Indices 1 2 3 4 5 6 
#
# 1 145.4902 54.6186 75.1251 0.0000 0.0000 0.0000
# 2 54.6186 91.8954 31.4397 0.0000 0.0000 0.0000
# 3 75.1251 31.4397 90.4397 0.0000 0.0000 0.0000
# 4 0.0000 0.0000 0.0000 18.1022 0.0000 0.0000
# 5 0.0000 0.0000 0.0000 0.0000 15.8513 0.0000
# 6 0.0000 0.0000 0.0000 0.0000 0.0000 6.2493
#
#
#
# Elastic Compliance Matrix: (Units=1/GPa)
#
#
# Indices 1 2 3 4 5 6 
#
# 1 0.013689 -0.004819 -0.009696 0.000000 0.000000 0.000000
# 2 -0.004819 0.014047 -0.000880 0.000000 0.000000 0.000000
# 3 -0.009696 -0.000880 0.019417 0.000000 0.000000 0.000000
# 4 0.000000 0.000000 0.000000 0.055242 0.000000 0.000000
# 5 0.000000 0.000000 0.000000 0.000000 0.063086 0.000000
# 6 0.000000 0.000000 0.000000 0.000000 0.000000 0.160017
#
#
# Mechanical properties :
#
#
# Convention : Reuss Voigt Hill
#
# Bulk Modulus (GPa) = 61.11260 72.24356 66.67808
# Shear Modulus (GPa) = 13.82200 19.15004 16.48602
#
# Velocity S-wave (km/s) = 2.78842 3.28214 3.04530
# Velocity P-wave (km/s) = 6.68915 7.41636 7.06212
#
# Compressibility (1/GPa) = 0.01636324
#
# Stress axis : x y z
#
# Youngs Moduli (GPa) = 73.05256 71.18811 51.50152
#
# Poissons Ratio (x) = 0.34305 0.49934
# Poissons Ratio (y) = 0.35203 0.04534
# Poissons Ratio (z) = 0.70829 0.06267
#
# Static dielectric constant tensor:
#      x y z
#    x 1.588640 0.000000 0.000000 
#    y 0.000000 1.560940 0.000000 
#    z 0.000000 0.000000 1.613690 
# 
# From -- ./inp_files/16728.got.cif
#   From: 2010.05.17/outbox.cif.g08.bks.cpg/sg57_9_cif.got.tgz:16728.got - 2010.06.03 13:58:18.
