data_PCOD9438515
_publ_section_title
;
Structure prediction by ZEFSAII (Michael W. Deem and Ramdas Pophale) SiO2 
 PCOD9438515
Probable space group: P B C M
;
_chemical_formula_sum "Si O2"
_cell_formula_units_Z 48
_cell_length_a 31.705267
_cell_length_b 9.343820
_cell_length_c 8.678441
_cell_angle_alpha 90.000000
_cell_angle_beta 90.000000
_cell_angle_gamma 90.000000
_cell_volume 2570.973461
_symmetry_space_group_name_H-M "P B C M"
_symmetry_group_IT_number 57
_symmetry_cell_setting 'orthorhombic'
loop_
_space_group_symop_operation_xyz
x,y,z
-x,-y,1/2+z
x,1/2-y,-z
-x,1/2+y,1/2-z
-x,-y,-z
x,y,1/2-z
-x,1/2+y,z
x,1/2-y,1/2+z
loop_
_atom_site_type_symbol
_atom_site_label
_atom_site_fract_x
_atom_site_fract_y
_atom_site_fract_z
Si Si1 0.627056 0.090439 0.065364
Si Si2 0.799381 0.588890 0.065825
Si Si3 0.709852 0.591163 0.934652
Si Si4 0.877026 0.409866 0.564970
Si Si5 0.461101 0.589011 0.934261
Si Si6 0.039214 0.410563 0.434744
O O1 0.622126 0.095678 0.250000
O O2 0.668888 0.001871 0.027768
O O3 0.631934 0.250000 0.000000
O O4 0.584028 0.029815 0.992216
O O5 0.800143 0.595074 0.250000
O O6 0.805180 0.750000 0.000000
O O7 0.753530 0.537138 0.007935
O O8 0.836003 0.487145 0.003561
O O9 0.714730 0.596652 0.750000
O O10 0.703579 0.750000 0.000000
O O11 0.881491 0.250000 0.500000
O O12 0.873770 0.404169 0.750000
O O13 0.917882 0.505293 0.524478
O O14 0.462019 0.591905 0.750000
O O15 0.463838 0.750000 0.000000
O O16 0.500000 0.500000 0.000000
O O17 0.039585 0.250000 0.500000
O O18 0.036153 0.404060 0.250000
O O19 0.000000 0.500000 0.500000
#
# Coordination Sequence:
#
# PCOD9438515 Si02
#       6
#     8   8   8   8   8   8
#     4  10  21  37  57  82 112 147 187 231 282 339
#     4  11  22  38  61  86 116 153 193 239 289 342
#     4  10  21  37  58  84 115 149 190 237 284 340
#     4  11  24  41  61  88 120 155 196 241 290 344
#     4  11  22  38  59  83 113 148 188 234 284 339
#     4  11  24  41  64  91 122 158 197 242 291 346
#
# _framework density 18.669971
#
# number of rings (size 3 to 8) (size 9 to 14) (size 15 to 20)
#    0.000    1.333    0.000    8.000    0.000    9.333 
#    0.000    3.333    0.000    0.000    0.000    0.000 
#    0.000    0.000    0.000    0.000    0.000    0.000 
#
# Total GULP energy -268389.471734 kJ/mol
# GULP energy per Si atom -5591.447328 kJ/mol
# Density = 1.862748 g / cm^3
# Si number density = 18.669971 Si / 1000 Ang^3
#
#
#
# Elastic Constant Matrix: (Units=GPa)
#
#
# Indices 1 2 3 4 5 6 
#
# 1 216.0918 109.4243 98.2757 0.0000 0.0000 0.0000
# 2 109.4243 114.3905 60.2557 0.0000 0.0000 0.0000
# 3 98.2757 60.2557 119.9569 0.0000 0.0000 0.0000
# 4 0.0000 0.0000 0.0000 36.1791 0.0000 0.0000
# 5 0.0000 0.0000 0.0000 0.0000 33.5737 0.0000
# 6 0.0000 0.0000 0.0000 0.0000 0.0000 32.4721
#
#
#
# Elastic Compliance Matrix: (Units=1/GPa)
#
#
# Indices 1 2 3 4 5 6 
#
# 1 0.010788 -0.007702 -0.004969 0.000000 0.000000 0.000000
# 2 -0.007702 0.017386 -0.002423 0.000000 0.000000 0.000000
# 3 -0.004969 -0.002423 0.013625 0.000000 0.000000 0.000000
# 4 0.000000 0.000000 0.000000 0.027640 0.000000 0.000000
# 5 0.000000 0.000000 0.000000 0.000000 0.029785 0.000000
# 6 0.000000 0.000000 0.000000 0.000000 0.000000 0.030796
#
#
# Mechanical properties :
#
#
# Convention : Reuss Voigt Hill
#
# Bulk Modulus (GPa) = 86.13613 109.59451 97.86532
# Shear Modulus (GPa) = 30.47339 32.61055 31.54197
#
# Velocity S-wave (km/s) = 4.04445 4.18387 4.11475
# Velocity P-wave (km/s) = 8.24903 9.06466 8.66644
#
# Compressibility (1/GPa) = 0.01160953
#
# Stress axis : x y z
#
# Youngs Moduli (GPa) = 92.69956 57.51797 73.39637
#
# Poissons Ratio (x) = 0.44299 0.36472
# Poissons Ratio (y) = 0.71394 0.17787
# Poissons Ratio (z) = 0.46064 0.13939
#
# Static dielectric constant tensor:
#      x y z
#    x 1.642680 0.000000 0.000000 
#    y 0.000000 1.615640 0.000000 
#    z 0.000000 0.000000 1.624890 
# 
# From -- ./inp_files/10058.got.cif
#   From: 2010.05.17/outbox.cif.g08.bks.cpg/sg57_6_cif.got.tgz:10058.got - 2010.06.03 13:58:18.
