data_PCOD9438891
_publ_section_title
;
Structure prediction by ZEFSAII (Michael W. Deem and Ramdas Pophale) SiO2 
 PCOD9438891
Probable space group: P B C M
;
_chemical_formula_sum "Si O2"
_cell_formula_units_Z 64
_cell_length_a 24.367982
_cell_length_b 15.858632
_cell_length_c 8.611795
_cell_angle_alpha 90.000000
_cell_angle_beta 90.000000
_cell_angle_gamma 90.000000
_cell_volume 3327.966682
_symmetry_space_group_name_H-M "P B C M"
_symmetry_group_IT_number 57
_symmetry_cell_setting 'orthorhombic'
loop_
_space_group_symop_operation_xyz
x,y,z
-x,-y,1/2+z
x,1/2-y,-z
-x,1/2+y,1/2-z
-x,-y,-z
x,y,1/2-z
-x,1/2+y,z
x,1/2-y,1/2+z
loop_
_atom_site_type_symbol
_atom_site_label
_atom_site_fract_x
_atom_site_fract_y
_atom_site_fract_z
Si Si1 0.883679 0.159941 0.936415
Si Si2 0.811221 0.499575 0.060888
Si Si3 0.502442 0.595296 0.436470
Si Si4 0.882178 0.659719 0.437145
Si Si5 0.616884 0.659406 0.564918
Si Si6 0.998362 0.095218 0.436843
Si Si7 0.315531 0.499048 0.563245
Si Si8 0.381576 0.658793 0.435898
O O1 0.884755 0.161540 0.750000
O O2 0.844156 0.083789 0.988180
O O3 0.865180 0.250000 0.000000
O O4 0.944764 0.140561 0.997169
O O5 0.812072 0.499828 0.250000
O O6 0.843783 0.582886 0.009332
O O7 0.748001 0.499756 0.012987
O O8 0.500000 0.500000 0.500000
O O9 0.507838 0.593232 0.250000
O O10 0.554950 0.641171 0.507952
O O11 0.445251 0.640450 0.476765
O O12 0.864600 0.750000 0.500000
O O13 0.880804 0.661184 0.250000
O O14 0.944946 0.640178 0.484261
O O15 0.634848 0.750000 0.500000
O O16 0.618125 0.660238 0.750000
O O17 0.653833 0.582945 0.502423
O O18 0.995947 0.093684 0.250000
O O19 0.000000 0.000000 0.500000
O O20 0.317907 0.496353 0.750000
O O21 0.345942 0.582919 0.505098
O O22 0.365269 0.750000 0.500000
O O23 0.376972 0.657607 0.250000
#
# Coordination Sequence:
#
# PCOD9438891 Si02
#       8
#     8   8   8   8   8   8   8   8
#     4  11  22  40  62  89 125 160 202 251 302 366
#     4   9  21  42  63  85 119 161 202 253 308 359
#     4  11  22  38  64  95 129 164 201 249 308 369
#     4  10  21  39  60  87 121 156 195 243 299 360
#     4  12  25  42  64  93 128 164 208 256 307 368
#     4  11  21  36  61  90 123 160 198 246 306 366
#     4  11  23  42  67  90 120 162 209 259 313 365
#     4  11  24  41  63  93 127 162 203 251 305 366
#
# _framework density 19.230961000000001
#
# number of rings (size 3 to 8) (size 9 to 14) (size 15 to 20)
#    0.000    1.250    2.500    3.750    0.000    5.500 
#    0.000    6.250    0.000    0.000    0.000    0.000 
#    0.000    0.000    0.000    0.000    0.000    0.000 
#
# Total GULP energy -357932.539687 kJ/mol
# GULP energy per Si atom -5592.695933 kJ/mol
# Density = 1.918719 g / cm^3
# Si number density = 19.230961 Si / 1000 Ang^3
#
#
#
# Elastic Constant Matrix: (Units=GPa)
#
#
# Indices 1 2 3 4 5 6 
#
# 1 160.2708 93.0897 47.6198 0.0000 0.0000 0.0000
# 2 93.0897 205.5714 47.2180 0.0000 0.0000 0.0000
# 3 47.6198 47.2180 63.0675 0.0000 0.0000 0.0000
# 4 0.0000 0.0000 0.0000 36.1186 0.0000 0.0000
# 5 0.0000 0.0000 0.0000 0.0000 22.3426 0.0000
# 6 0.0000 0.0000 0.0000 0.0000 0.0000 -2.8459
#
#
#
# Elastic Compliance Matrix: (Units=1/GPa)
#
#
# Indices 1 2 3 4 5 6 
#
# 1 0.009530 -0.003216 -0.004788 0.000000 0.000000 0.000000
# 2 -0.003216 0.006960 -0.002783 0.000000 0.000000 0.000000
# 3 -0.004788 -0.002783 0.021555 0.000000 0.000000 0.000000
# 4 0.000000 0.000000 0.000000 0.027687 0.000000 0.000000
# 5 0.000000 0.000000 0.000000 0.000000 0.044757 0.000000
# 6 0.000000 0.000000 0.000000 0.000000 0.000000 -0.351380
#
#
# Mechanical properties :
#
#
# Convention : Reuss Voigt Hill
#
# Bulk Modulus (GPa) = 60.71107 89.41828 75.06468
# Shear Modulus (GPa) = -23.38322 27.18854 1.90266
#
# Velocity S-wave (km/s) = -3.49078 3.76412 0.99575
# Velocity P-wave (km/s) = 3.92308 8.09255 6.35925
#
# Compressibility (1/GPa) = 0.01647146
#
# Stress axis : x y z
#
# Youngs Moduli (GPa) = 104.93389 143.68204 46.39354
#
# Poissons Ratio (x) = 0.46203 0.22214
# Poissons Ratio (y) = 0.33743 0.12910
# Poissons Ratio (z) = 0.50243 0.39983
#
# Static dielectric constant tensor:
#      x y z
#    x 1.655130 0.000000 0.000000 
#    y 0.000000 1.642220 0.000000 
#    z 0.000000 0.000000 1.651980 
# 
# From -- ./inp_files/9448.got.cif
#   From: 2010.05.17/outbox.cif.g08.bks.cpg/sg57_5_cif.got.tgz:9448.got - 2010.06.03 13:58:18.
