data_PCOD9438611
_publ_section_title
;
Structure prediction by ZEFSAII (Michael W. Deem and Ramdas Pophale) SiO2 
 PCOD9438611
Probable space group: P B C M
;
_chemical_formula_sum "Si O2"
_cell_formula_units_Z 40
_cell_length_a 4.990974
_cell_length_b 17.392808
_cell_length_c 22.310810
_cell_angle_alpha 90.000000
_cell_angle_beta 90.000000
_cell_angle_gamma 90.000000
_cell_volume 1936.735655
_symmetry_space_group_name_H-M "P B C M"
_symmetry_group_IT_number 57
_symmetry_cell_setting 'orthorhombic'
loop_
_space_group_symop_operation_xyz
x,y,z
-x,-y,1/2+z
x,1/2-y,-z
-x,1/2+y,1/2-z
-x,-y,-z
x,y,1/2-z
-x,1/2+y,z
x,1/2-y,1/2+z
loop_
_atom_site_type_symbol
_atom_site_label
_atom_site_fract_x
_atom_site_fract_y
_atom_site_fract_z
Si Si1 0.819097 0.024573 0.443457
Si Si2 0.824088 0.200892 0.440570
Si Si3 0.331718 0.487051 0.635128
Si Si4 0.793625 0.707918 0.750000
Si Si5 0.657024 0.807909 0.863002
Si Si6 0.700489 0.096005 0.750000
O O1 0.746931 0.113197 0.454777
O O2 0.541571 0.989032 0.417957
O O3 0.029831 0.015367 0.389472
O O4 0.000000 0.000000 0.500000
O O5 0.800923 0.250000 0.500000
O O6 0.620062 0.226532 0.388292
O O7 0.125772 0.197767 0.416146
O O8 0.393464 0.397913 0.652101
O O9 0.338440 0.542887 0.691550
O O10 0.783873 0.762528 0.807907
O O11 0.521443 0.660921 0.750000
O O12 0.023642 0.643657 0.750000
#
# Coordination Sequence:
#
# PCOD9438611 Si02
#       6
#     8   8   8   4   8   4
#     4  10  21  37  60  88 118 156 199 243 295 355
#     4  10  21  37  60  88 117 155 200 242 293 352
#     4  10  22  41  61  84 120 163 200 238 299 371
#     4  12  25  40  61  92 120 152 202 258 305 346
#     4  10  22  41  61  84 119 162 199 238 296 365
#     4  12  25  40  61  92 120 152 200 256 305 348
#
# _framework density 20.653310999999999
#
# number of rings (size 3 to 8) (size 9 to 14) (size 15 to 20)
#    0.000    1.600    0.000    4.200    0.000    4.800 
#    0.000    8.000    0.000    0.000    0.000    0.000 
#    0.000    0.000    0.000    0.000    0.000    0.000 
#
# Total GULP energy -223273.630830 kJ/mol
# GULP energy per Si atom -5581.840771 kJ/mol
# Density = 2.060630 g / cm^3
# Si number density = 20.653311 Si / 1000 Ang^3
#
#
#
# Elastic Constant Matrix: (Units=GPa)
#
#
# Indices 1 2 3 4 5 6 
#
# 1 300.0450 156.2454 40.9387 0.0000 0.0000 0.0000
# 2 156.2454 160.9926 76.0056 0.0000 0.0000 0.0000
# 3 40.9387 76.0056 94.5130 0.0000 0.0000 0.0000
# 4 0.0000 0.0000 0.0000 23.4880 0.0000 0.0000
# 5 0.0000 0.0000 0.0000 0.0000 29.9746 0.0000
# 6 0.0000 0.0000 0.0000 0.0000 0.0000 25.6810
#
#
#
# Elastic Compliance Matrix: (Units=1/GPa)
#
#
# Indices 1 2 3 4 5 6 
#
# 1 0.007691 -0.009497 0.004306 0.000000 0.000000 0.000000
# 2 -0.009497 0.021740 -0.013369 0.000000 0.000000 0.000000
# 3 0.004306 -0.013369 0.019467 0.000000 0.000000 0.000000
# 4 0.000000 0.000000 0.000000 0.042575 0.000000 0.000000
# 5 0.000000 0.000000 0.000000 0.000000 0.033362 0.000000
# 6 0.000000 0.000000 0.000000 0.000000 0.000000 0.038939
#
#
# Mechanical properties :
#
#
# Convention : Reuss Voigt Hill
#
# Bulk Modulus (GPa) = 84.91100 122.43667 103.67384
# Shear Modulus (GPa) = 24.41184 34.65280 29.53232
#
# Velocity S-wave (km/s) = 3.44173 4.10058 3.78551
# Velocity P-wave (km/s) = 7.54955 9.04601 8.33145
#
# Compressibility (1/GPa) = 0.01177704
#
# Stress axis : x y z
#
# Youngs Moduli (GPa) = 130.02848 45.99865 51.36963
#
# Poissons Ratio (x) = 0.43683 -0.22119
# Poissons Ratio (y) = 1.23483 0.68677
# Poissons Ratio (z) = -0.55988 0.61497
#
# Static dielectric constant tensor:
#      x y z
#    x 1.734430 0.000000 0.000000 
#    y 0.000000 1.700030 0.000000 
#    z 0.000000 0.000000 -0.114370 
# 
# From -- ./inp_files/20012.got.cif
#   From: 2010.05.17/outbox.cif.g08.bks.cpg/sg57_11_cif.got.tgz:20012.got - 2010.06.03 13:58:18.
