data_PCOD9438808
_publ_section_title
;
Structure prediction by ZEFSAII (Michael W. Deem and Ramdas Pophale) SiO2 
 PCOD9438808
Probable space group: P B C M
;
_chemical_formula_sum "Si O2"
_cell_formula_units_Z 48
_cell_length_a 12.751545
_cell_length_b 23.918456
_cell_length_c 8.738833
_cell_angle_alpha 90.000000
_cell_angle_beta 90.000000
_cell_angle_gamma 90.000000
_cell_volume 2665.320191
_symmetry_space_group_name_H-M "P B C M"
_symmetry_group_IT_number 57
_symmetry_cell_setting 'orthorhombic'
loop_
_space_group_symop_operation_xyz
x,y,z
-x,-y,1/2+z
x,1/2-y,-z
-x,1/2+y,1/2-z
-x,-y,-z
x,y,1/2-z
-x,1/2+y,z
x,1/2-y,1/2+z
loop_
_atom_site_type_symbol
_atom_site_label
_atom_site_fract_x
_atom_site_fract_y
_atom_site_fract_z
Si Si1 0.805361 0.873435 0.432590
Si Si2 0.385822 0.188774 0.432479
Si Si3 0.882683 0.501875 0.933084
Si Si4 0.809911 0.387890 0.432691
Si Si5 0.368180 0.688734 0.067245
Si Si6 0.995540 0.188298 0.432854
O O1 0.813450 0.865395 0.250000
O O2 0.691605 0.855307 0.490853
O O3 0.891821 0.834829 0.514325
O O4 0.832615 0.937824 0.467011
O O5 0.361163 0.250000 0.500000
O O6 0.370606 0.189481 0.250000
O O7 0.508761 0.177865 0.463399
O O8 0.887681 0.495137 0.750000
O O9 0.819082 0.450743 0.005390
O O10 0.000000 0.500000 0.000000
O O11 0.815809 0.387402 0.250000
O O12 0.706005 0.356838 0.490600
O O13 0.908075 0.353322 0.500319
O O14 0.351927 0.689368 0.250000
O O15 0.342828 0.750000 0.000000
O O16 0.978817 0.250000 0.500000
O O17 0.988698 0.189588 0.250000
#
# Coordination Sequence:
#
# PCOD9438808 Si02
#       6
#     8   8   8   8   8   8
#     4  11  23  39  60  87 119 153 197 243 293 352
#     4  10  21  38  62  89 120 157 197 242 295 353
#     4  11  23  40  62  86 117 158 200 245 294 353
#     4  12  24  39  60  87 119 154 198 244 295 354
#     4  10  21  39  62  89 120 156 198 243 296 354
#     4  12  24  38  58  84 119 154 192 241 296 354
#
# _framework density 18.009094000000001
#
# number of rings (size 3 to 8) (size 9 to 14) (size 15 to 20)
#    0.000    1.000    1.667    6.000    0.000    4.000 
#    0.000    0.833    0.000    0.000    0.000    0.000 
#    0.000    0.000    0.000    0.000    0.000    0.000 
#
# Total GULP energy -268529.582516 kJ/mol
# GULP energy per Si atom -5594.366302 kJ/mol
# Density = 1.796810 g / cm^3
# Si number density = 18.009094 Si / 1000 Ang^3
#
#
#
# Elastic Constant Matrix: (Units=GPa)
#
#
# Indices 1 2 3 4 5 6 
#
# 1 72.6129 39.8348 41.6061 0.0000 0.0000 0.0000
# 2 39.8348 78.2302 45.3332 0.0000 0.0000 0.0000
# 3 41.6061 45.3332 105.6362 0.0000 0.0000 0.0000
# 4 0.0000 0.0000 0.0000 33.0419 0.0000 0.0000
# 5 0.0000 0.0000 0.0000 0.0000 31.6019 0.0000
# 6 0.0000 0.0000 0.0000 0.0000 0.0000 15.1530
#
#
#
# Elastic Compliance Matrix: (Units=1/GPa)
#
#
# Indices 1 2 3 4 5 6 
#
# 1 0.020831 -0.007790 -0.004861 0.000000 0.000000 0.000000
# 2 -0.007790 0.019927 -0.005483 0.000000 0.000000 0.000000
# 3 -0.004861 -0.005483 0.013734 0.000000 0.000000 0.000000
# 4 0.000000 0.000000 0.000000 0.030265 0.000000 0.000000
# 5 0.000000 0.000000 0.000000 0.000000 0.031644 0.000000
# 6 0.000000 0.000000 0.000000 0.000000 0.000000 0.065994
#
#
# Mechanical properties :
#
#
# Convention : Reuss Voigt Hill
#
# Bulk Modulus (GPa) = 54.87702 56.66972 55.77337
# Shear Modulus (GPa) = 22.24819 24.60637 23.42728
#
# Velocity S-wave (km/s) = 3.51862 3.70040 3.61065
# Velocity P-wave (km/s) = 6.85898 7.05641 6.95839
#
# Compressibility (1/GPa) = 0.01822256
#
# Stress axis : x y z
#
# Youngs Moduli (GPa) = 48.00620 50.18336 72.81012
#
# Poissons Ratio (x) = 0.39092 0.35396
# Poissons Ratio (y) = 0.37396 0.39925
# Poissons Ratio (z) = 0.23338 0.27518
#
# Static dielectric constant tensor:
#      x y z
#    x 1.602570 0.000000 0.000000 
#    y 0.000000 1.597270 0.000000 
#    z 0.000000 0.000000 1.598910 
# 
# From -- ./inp_files/3165.got.cif
#   From: 2010.05.17/outbox.cif.g08.bks.cpg/sg57_2_cif.got.tgz:3165.got - 2010.06.03 13:58:18.
