data_PCOD9438144
_publ_section_title
;
Structure prediction by ZEFSAII (Michael W. Deem and Ramdas Pophale) SiO2 
 PCOD9438144
Probable space group: P B C M
;
_chemical_formula_sum "Si O2"
_cell_formula_units_Z 52
_cell_length_a 14.590734
_cell_length_b 18.794418
_cell_length_c 9.406572
_cell_angle_alpha 90.000000
_cell_angle_beta 90.000000
_cell_angle_gamma 90.000000
_cell_volume 2579.511127
_symmetry_space_group_name_H-M "P B C M"
_symmetry_group_IT_number 57
_symmetry_cell_setting 'orthorhombic'
loop_
_space_group_symop_operation_xyz
x,y,z
-x,-y,1/2+z
x,1/2-y,-z
-x,1/2+y,1/2-z
-x,-y,-z
x,y,1/2-z
-x,1/2+y,z
x,1/2-y,1/2+z
loop_
_atom_site_type_symbol
_atom_site_label
_atom_site_fract_x
_atom_site_fract_y
_atom_site_fract_z
Si Si1 0.411839 0.590118 0.918431
Si Si2 0.269147 0.819877 0.917494
Si Si3 0.985603 0.851716 0.966661
Si Si4 0.794410 0.588025 0.082798
Si Si5 0.135468 0.955351 0.910202
Si Si6 0.378274 0.441705 0.082176
Si Si7 0.978433 0.225456 0.750000
O O1 0.387981 0.588584 0.750000
O O2 0.521909 0.594095 0.930061
O O3 0.359786 0.652482 0.001476
O O4 0.384109 0.516387 0.996494
O O5 0.283446 0.804645 0.750000
O O6 0.198499 0.885162 0.927420
O O7 0.235523 0.750000 0.000000
O O8 0.876524 0.856686 0.943195
O O9 0.023455 0.789113 0.869429
O O10 0.033258 0.925635 0.924271
O O11 0.010452 0.834480 0.126332
O O12 0.773802 0.584246 0.250000
O O13 0.833196 0.513439 0.022672
O O14 0.703267 0.601829 0.990929
O O15 0.149308 0.983682 0.750000
O O16 0.361543 0.454987 0.250000
#
# Coordination Sequence:
#
# PCOD9438144 Si02
#       7
#     8   8   8   8   8   8   4
#     4  10  20  39  62  90 119 159 203 254 305 373
#     4  11  24  38  61  89 126 166 208 259 316 375
#     4  11  24  43  65  88 125 165 214 261 309 370
#     4  12  24  39  62  97 127 163 208 262 314 368
#     4  11  24  40  61  93 128 163 209 257 312 377
#     4  10  21  37  64  90 122 158 201 251 313 367
#     4  10  24  44  66  86 116 170 220 256 310 374
#
# _framework density 20.158860000000001
#
# number of rings (size 3 to 8) (size 9 to 14) (size 15 to 20)
#    0.000    1.231    3.077    2.308    5.385    2.462 
#    0.000    0.000    3.385    0.000    0.000    0.000 
#    0.000    0.000    0.000    0.000    0.000    0.000 
#
# Total GULP energy -289565.090656 kJ/mol
# GULP energy per Si atom -5568.559436 kJ/mol
# Density = 2.011298 g / cm^3
# Si number density = 20.158860 Si / 1000 Ang^3
#
#
#
# Elastic Constant Matrix: (Units=GPa)
#
#
# Indices 1 2 3 4 5 6 
#
# 1 88.7253 -3.6767 25.2553 0.0000 0.0000 0.0000
# 2 -3.6767 29.7911 18.1456 0.0000 0.0000 0.0000
# 3 25.2553 18.1456 182.6029 0.0000 0.0000 0.0000
# 4 0.0000 0.0000 0.0000 38.4907 0.0000 0.0000
# 5 0.0000 0.0000 0.0000 0.0000 -164.0367 0.0000
# 6 0.0000 0.0000 0.0000 0.0000 0.0000 1.8665
#
#
#
# Elastic Compliance Matrix: (Units=1/GPa)
#
#
# Indices 1 2 3 4 5 6 
#
# 1 0.011924 0.002636 -0.001911 0.000000 0.000000 0.000000
# 2 0.002636 0.036312 -0.003973 0.000000 0.000000 0.000000
# 3 -0.001911 -0.003973 0.006135 0.000000 0.000000 0.000000
# 4 0.000000 0.000000 0.000000 0.025980 0.000000 0.000000
# 5 0.000000 0.000000 0.000000 0.000000 -0.006096 0.000000
# 6 0.000000 0.000000 0.000000 0.000000 0.000000 0.535759
#
#
# Mechanical properties :
#
#
# Convention : Reuss Voigt Hill
#
# Bulk Modulus (GPa) = 20.88777 42.28529 31.58653
# Shear Modulus (GPa) = 7.90551 -7.30956 0.29798
#
# Velocity S-wave (km/s) = 1.98245 -1.90627 0.38488
# Velocity P-wave (km/s) = 3.95275 4.02199 3.98752
#
# Compressibility (1/GPa) = 0.04787491
#
# Stress axis : x y z
#
# Youngs Moduli (GPa) = 83.86487 27.53891 162.98649
#
# Poissons Ratio (x) = -0.07258 0.31148
# Poissons Ratio (y) = -0.22104 0.64754
# Poissons Ratio (z) = 0.16027 0.10941
#
# Static dielectric constant tensor:
#      x y z
#    x 1.784300 0.000000 0.000000 
#    y 0.000000 1.840970 0.000000 
#    z 0.000000 0.000000 1.736680 
# 
# From -- ./inp_files/5002.got.cif
#   From: 2010.05.17/outbox.cif.g08.bks.cpg/sg57_3_cif.got.tgz:5002.got - 2010.06.03 13:58:18.
