data_PCOD9438734
_publ_section_title
;
Structure prediction by ZEFSAII (Michael W. Deem and Ramdas Pophale) SiO2 
 PCOD9438734
Probable space group: P B C M
;
_chemical_formula_sum "Si O2"
_cell_formula_units_Z 56
_cell_length_a 20.546857
_cell_length_b 15.952001
_cell_length_c 8.834521
_cell_angle_alpha 90.000000
_cell_angle_beta 90.000000
_cell_angle_gamma 90.000000
_cell_volume 2895.633377
_symmetry_space_group_name_H-M "P B C M"
_symmetry_group_IT_number 57
_symmetry_cell_setting 'orthorhombic'
loop_
_space_group_symop_operation_xyz
x,y,z
-x,-y,1/2+z
x,1/2-y,-z
-x,1/2+y,1/2-z
-x,-y,-z
x,y,1/2-z
-x,1/2+y,z
x,1/2-y,1/2+z
loop_
_atom_site_type_symbol
_atom_site_label
_atom_site_fract_x
_atom_site_fract_y
_atom_site_fract_z
Si Si1 0.613473 0.832672 0.923517
Si Si2 0.708287 0.066666 0.427929
Si Si3 0.571503 0.002332 0.429000
Si Si4 0.733335 0.869070 0.081368
Si Si5 0.169188 0.657562 0.568131
Si Si6 0.883161 0.664740 0.577316
Si Si7 0.071800 0.993787 0.069094
O O1 0.594484 0.842853 0.750000
O O2 0.585618 0.750000 0.000000
O O3 0.691334 0.832322 0.944544
O O4 0.595657 0.910547 0.026932
O O5 0.708498 0.089851 0.250000
O O6 0.632103 0.062127 0.480485
O O7 0.759616 0.124276 0.515253
O O8 0.733696 0.970272 0.436605
O O9 0.565974 0.014326 0.250000
O O10 0.500000 0.000000 0.500000
O O11 0.703988 0.852299 0.250000
O O12 0.805151 0.833456 0.083419
O O13 0.156763 0.750000 0.500000
O O14 0.167924 0.662605 0.750000
O O15 0.115708 0.586671 0.520179
O O16 0.907751 0.750000 0.500000
O O17 0.907952 0.657175 0.750000
O O18 0.897222 0.581223 0.483551
O O19 0.068062 0.990092 0.250000
O O20 0.000000 0.000000 0.000000
#
# Coordination Sequence:
#
# PCOD9438734 Si02
#       7
#     8   8   8   8   8   8   8
#     4  11  21  33  52  79 113 151 191 239 290 349
#     4   9  18  36  61  88 121 158 199 250 306 363
#     4  10  21  38  59  86 119 159 203 248 308 374
#     4   9  18  33  55  84 117 153 189 233 292 353
#     4  11  24  41  66  96 125 163 215 267 322 381
#     4  11  22  37  59  88 123 160 197 244 301 364
#     4  11  25  44  65  91 123 164 210 261 319 384
#
# _framework density 19.339462999999999
#
# number of rings (size 3 to 8) (size 9 to 14) (size 15 to 20)
#    0.000    1.714    1.429    4.286    0.000    7.429 
#    0.000    2.143    0.000    3.429    0.000    0.000 
#    0.000    0.000    0.000    0.000    0.000    0.000 
#
# Total GULP energy -312164.865355 kJ/mol
# GULP energy per Si atom -5574.372596 kJ/mol
# Density = 1.929545 g / cm^3
# Si number density = 19.339463 Si / 1000 Ang^3
#
#
#
# Elastic Constant Matrix: (Units=GPa)
#
#
# Indices 1 2 3 4 5 6 
#
# 1 112.7803 46.5108 37.8979 0.0000 0.0000 0.0000
# 2 46.5108 117.6430 36.9928 0.0000 0.0000 0.0000
# 3 37.8979 36.9928 67.2017 0.0000 0.0000 0.0000
# 4 0.0000 0.0000 0.0000 31.1386 0.0000 0.0000
# 5 0.0000 0.0000 0.0000 0.0000 33.2924 0.0000
# 6 0.0000 0.0000 0.0000 0.0000 0.0000 1.2271
#
#
#
# Elastic Compliance Matrix: (Units=1/GPa)
#
#
# Indices 1 2 3 4 5 6 
#
# 1 0.011814 -0.003115 -0.004948 0.000000 0.000000 0.000000
# 2 -0.003115 0.011101 -0.004354 0.000000 0.000000 0.000000
# 3 -0.004948 -0.004354 0.020068 0.000000 0.000000 0.000000
# 4 0.000000 0.000000 0.000000 0.032114 0.000000 0.000000
# 5 0.000000 0.000000 0.000000 0.000000 0.030037 0.000000
# 6 0.000000 0.000000 0.000000 0.000000 0.000000 0.814948
#
#
# Mechanical properties :
#
#
# Convention : Reuss Voigt Hill
#
# Bulk Modulus (GPa) = 55.09944 60.04757 57.57351
# Shear Modulus (GPa) = 5.25781 24.87984 15.06883
#
# Velocity S-wave (km/s) = 1.65064 3.59065 2.79440
# Velocity P-wave (km/s) = 5.67321 6.95032 6.34398
#
# Compressibility (1/GPa) = 0.01814900
#
# Stress axis : x y z
#
# Youngs Moduli (GPa) = 84.64534 90.08235 49.83140
#
# Poissons Ratio (x) = 0.28060 0.24655
# Poissons Ratio (y) = 0.26366 0.21697
# Poissons Ratio (z) = 0.41880 0.39223
#
# Static dielectric constant tensor:
#      x y z
#    x 1.816520 0.000000 0.000000 
#    y 0.000000 1.672720 0.000000 
#    z 0.000000 0.000000 1.671710 
# 
# From -- ./inp_files/8085.got.cif
#   From: 2010.05.17/outbox.cif.g08.bks.cpg/sg57_5_cif.got.tgz:8085.got - 2010.06.03 13:58:18.
