data_PCOD9438054
_publ_section_title
;
Structure prediction by ZEFSAII (Michael W. Deem and Ramdas Pophale) SiO2 
 PCOD9438054
Probable space group: P B C M
;
_chemical_formula_sum "Si O2"
_cell_formula_units_Z 48
_cell_length_a 9.738391
_cell_length_b 13.592982
_cell_length_c 17.588178
_cell_angle_alpha 90.000000
_cell_angle_beta 90.000000
_cell_angle_gamma 90.000000
_cell_volume 2328.213492
_symmetry_space_group_name_H-M "P B C M"
_symmetry_group_IT_number 57
_symmetry_cell_setting 'orthorhombic'
loop_
_space_group_symop_operation_xyz
x,y,z
-x,-y,1/2+z
x,1/2-y,-z
-x,1/2+y,1/2-z
-x,-y,-z
x,y,1/2-z
-x,1/2+y,z
x,1/2-y,1/2+z
loop_
_atom_site_type_symbol
_atom_site_label
_atom_site_fract_x
_atom_site_fract_y
_atom_site_fract_z
Si Si1 0.338896 0.175082 0.340009
Si Si2 0.847791 0.333357 0.435928
Si Si3 0.349452 0.727355 0.160732
Si Si4 0.141484 0.148246 0.889475
Si Si5 0.848390 0.561036 0.444022
Si Si6 0.111550 0.568255 0.337107
O O1 0.329723 0.155179 0.250000
O O2 0.496717 0.197096 0.359602
O O3 0.244037 0.269044 0.360515
O O4 0.278699 0.087358 0.390408
O O5 0.855166 0.250000 0.500000
O O6 0.709858 0.315617 0.388912
O O7 0.851763 0.445642 0.464364
O O8 0.981622 0.321311 0.382268
O O9 0.347983 0.751661 0.250000
O O10 0.239931 0.639518 0.148003
O O11 0.158943 0.044545 0.847362
O O12 0.157718 0.125215 0.979554
O O13 0.983764 0.582871 0.393762
O O14 0.066129 0.584324 0.250000
#
# Coordination Sequence:
#
# PCOD9438054 Si02
#       6
#     8   8   8   8   8   8
#     4  11  24  41  59  86 122 161 201 247 302 362
#     4  11  22  39  63  89 119 154 196 247 300 357
#     4  10  23  40  59  85 121 159 200 247 300 360
#     4  11  22  39  62  91 122 157 199 251 304 359
#     4  11  23  39  62  90 121 155 202 253 299 358
#     4  10  20  38  63  89 118 158 202 249 300 356
#
# _framework density 20.616667
#
# number of rings (size 3 to 8) (size 9 to 14) (size 15 to 20)
#    0.000    1.333    0.000    7.500    0.000    8.000 
#    0.000    5.833    0.000    0.000    0.000    0.000 
#    0.000    0.000    0.000    0.000    0.000    0.000 
#
# Total GULP energy -268509.734470 kJ/mol
# GULP energy per Si atom -5593.952801 kJ/mol
# Density = 2.056974 g / cm^3
# Si number density = 20.616667 Si / 1000 Ang^3
#
#
#
# Elastic Constant Matrix: (Units=GPa)
#
#
# Indices 1 2 3 4 5 6 
#
# 1 108.9471 7.9245 45.1009 0.0000 0.0000 0.0000
# 2 7.9245 58.4244 11.9270 0.0000 0.0000 0.0000
# 3 45.1009 11.9270 77.7465 0.0000 0.0000 0.0000
# 4 0.0000 0.0000 0.0000 26.8293 0.0000 0.0000
# 5 0.0000 0.0000 0.0000 0.0000 27.1383 0.0000
# 6 0.0000 0.0000 0.0000 0.0000 0.0000 23.3280
#
#
#
# Elastic Compliance Matrix: (Units=1/GPa)
#
#
# Indices 1 2 3 4 5 6 
#
# 1 0.012082 -0.000215 -0.006976 0.000000 0.000000 0.000000
# 2 -0.000215 0.017673 -0.002587 0.000000 0.000000 0.000000
# 3 -0.006976 -0.002587 0.017306 0.000000 0.000000 0.000000
# 4 0.000000 0.000000 0.000000 0.037273 0.000000 0.000000
# 5 0.000000 0.000000 0.000000 0.000000 0.036848 0.000000
# 6 0.000000 0.000000 0.000000 0.000000 0.000000 0.042867
#
#
# Mechanical properties :
#
#
# Convention : Reuss Voigt Hill
#
# Bulk Modulus (GPa) = 36.35477 41.66920 39.01199
# Shear Modulus (GPa) = 25.93723 27.47015 26.70369
#
# Velocity S-wave (km/s) = 3.55078 3.65420 3.60286
# Velocity P-wave (km/s) = 5.87219 6.16924 6.02255
#
# Compressibility (1/GPa) = 0.02750671
#
# Stress axis : x y z
#
# Youngs Moduli (GPa) = 82.76611 56.58245 57.78371
#
# Poissons Ratio (x) = 0.01215 0.40310
# Poissons Ratio (y) = 0.01777 0.14947
# Poissons Ratio (z) = 0.57738 0.14636
#
# Static dielectric constant tensor:
#      x y z
#    x 1.706910 0.000000 0.000000 
#    y 0.000000 1.755870 0.000000 
#    z 0.000000 0.000000 1.756840 
# 
# From -- ./inp_files/20962.got.cif
#   From: 2010.05.17/outbox.cif.g08.bks.cpg/sg57_11_cif.got.tgz:20962.got - 2010.06.03 13:58:18.
