data_PCOD9438351
_publ_section_title
;
Structure prediction by ZEFSAII (Michael W. Deem and Ramdas Pophale) SiO2 
 PCOD9438351
Probable space group: P B C M
;
_chemical_formula_sum "Si O2"
_cell_formula_units_Z 52
_cell_length_a 15.182079
_cell_length_b 17.928507
_cell_length_c 9.425218
_cell_angle_alpha 90.000000
_cell_angle_beta 90.000000
_cell_angle_gamma 90.000000
_cell_volume 2565.469029
_symmetry_space_group_name_H-M "P B C M"
_symmetry_group_IT_number 57
_symmetry_cell_setting 'orthorhombic'
loop_
_space_group_symop_operation_xyz
x,y,z
-x,-y,1/2+z
x,1/2-y,-z
-x,1/2+y,1/2-z
-x,-y,-z
x,y,1/2-z
-x,1/2+y,z
x,1/2-y,1/2+z
loop_
_atom_site_type_symbol
_atom_site_label
_atom_site_fract_x
_atom_site_fract_y
_atom_site_fract_z
Si Si1 0.539951 0.250000 0.000000
Si Si2 0.438367 0.106100 0.402770
Si Si3 0.092426 0.485407 0.579370
Si Si4 0.948352 0.677532 0.082578
Si Si5 0.380417 0.985813 0.908433
Si Si6 0.853111 0.375284 0.580423
Si Si7 0.693795 0.353725 0.409548
O O1 0.478357 0.311849 0.926981
O O2 0.609298 0.200715 0.909996
O O3 0.391775 0.103329 0.250000
O O4 0.384694 0.069669 0.531717
O O5 0.522429 0.050604 0.393262
O O6 0.086811 0.497852 0.750000
O O7 0.152515 0.545239 0.500532
O O8 0.000000 0.500000 0.500000
O O9 0.107598 0.397552 0.556263
O O10 0.947170 0.691790 0.250000
O O11 0.051123 0.659476 0.045042
O O12 0.918457 0.750000 0.000000
O O13 0.340317 0.981093 0.750000
O O14 0.339112 0.932258 0.026857
O O15 0.849189 0.383020 0.750000
O O16 0.770673 0.330628 0.518321
O O17 0.728251 0.359743 0.250000
#
# Coordination Sequence:
#
# PCOD9438351 Si02
#       7
#     4   8   8   8   8   8   8
#     4  10  22  34  50  78 110 140 172 210 256 308
#     4   9  17  31  50  71  97 130 169 211 251 297
#     4   9  17  32  51  73  99 134 178 221 259 304
#     4   9  19  32  49  75 105 135 172 216 260 305
#     4   9  18  32  50  71  97 129 169 214 252 297
#     4  10  21  35  50  73 105 142 179 217 258 310
#     4  11  22  35  52  75 105 143 177 210 257 313
#
# _framework density 20.269196999999998
#
# number of rings (size 3 to 8) (size 9 to 14) (size 15 to 20)
#    0.000    2.462    0.000    3.231    1.077    9.846 
#    0.000    0.000    0.000    0.000    2.000    0.000 
#    0.000    0.000    0.000    0.000    0.000    0.000 
#
# Total GULP energy -289619.327860 kJ/mol
# GULP energy per Si atom -5569.602459 kJ/mol
# Density = 2.022306 g / cm^3
# Si number density = 20.269197 Si / 1000 Ang^3
#
#
#
# Elastic Constant Matrix: (Units=GPa)
#
#
# Indices 1 2 3 4 5 6 
#
# 1 9.3832 10.9112 0.2697 0.0000 0.0000 0.0000
# 2 10.9112 140.6319 54.4875 0.0000 0.0000 0.0000
# 3 0.2697 54.4875 99.4164 0.0000 0.0000 0.0000
# 4 0.0000 0.0000 0.0000 8.8183 0.0000 0.0000
# 5 0.0000 0.0000 0.0000 0.0000 18.1466 0.0000
# 6 0.0000 0.0000 0.0000 0.0000 0.0000 13.8355
#
#
#
# Elastic Compliance Matrix: (Units=1/GPa)
#
#
# Indices 1 2 3 4 5 6 
#
# 1 0.119952 -0.011656 0.006063 0.000000 0.000000 0.000000
# 2 -0.011656 0.010160 -0.005537 0.000000 0.000000 0.000000
# 3 0.006063 -0.005537 0.013077 0.000000 0.000000 0.000000
# 4 0.000000 0.000000 0.000000 0.113401 0.000000 0.000000
# 5 0.000000 0.000000 0.000000 0.000000 0.055107 0.000000
# 6 0.000000 0.000000 0.000000 0.000000 0.000000 0.072278
#
#
# Mechanical properties :
#
#
# Convention : Reuss Voigt Hill
#
# Bulk Modulus (GPa) = 8.26926 42.30759 25.28843
# Shear Modulus (GPa) = 11.19707 20.41094 15.80401
#
# Velocity S-wave (km/s) = 2.35291 3.17676 2.79535
# Velocity P-wave (km/s) = 3.38676 5.86292 4.78769
#
# Compressibility (1/GPa) = 0.12092975
#
# Stress axis : x y z
#
# Youngs Moduli (GPa) = 8.33664 98.42139 76.47046
#
# Poissons Ratio (x) = 1.14717 -0.46362
# Poissons Ratio (y) = 0.09717 0.42342
# Poissons Ratio (z) = -0.05054 0.54496
#
# Static dielectric constant tensor:
#      x y z
#    x 1.780930 0.000000 0.000000 
#    y 0.000000 1.762840 0.000000 
#    z 0.000000 0.000000 1.723770 
# 
# From -- ./inp_files/6807.got.cif
#   From: 2010.05.17/outbox.cif.g08.bks.cpg/sg57_4_cif.got.tgz:6807.got - 2010.06.03 13:58:18.
