data_PCOD9438020
_publ_section_title
;
Structure prediction by ZEFSAII (Michael W. Deem and Ramdas Pophale) SiO2 
 PCOD9438020
Probable space group: P B C M
;
_chemical_formula_sum "Si O2"
_cell_formula_units_Z 64
_cell_length_a 19.823831
_cell_length_b 8.480546
_cell_length_c 18.463479
_cell_angle_alpha 90.000000
_cell_angle_beta 90.000000
_cell_angle_gamma 90.000000
_cell_volume 3104.023050
_symmetry_space_group_name_H-M "P B C M"
_symmetry_group_IT_number 57
_symmetry_cell_setting 'orthorhombic'
loop_
_space_group_symop_operation_xyz
x,y,z
-x,-y,1/2+z
x,1/2-y,-z
-x,1/2+y,1/2-z
-x,-y,-z
x,y,1/2-z
-x,1/2+y,z
x,1/2-y,1/2+z
loop_
_atom_site_type_symbol
_atom_site_label
_atom_site_fract_x
_atom_site_fract_y
_atom_site_fract_z
Si Si1 0.904392 0.508967 0.663378
Si Si2 0.227960 0.343747 0.337716
Si Si3 0.457700 0.133674 0.595415
Si Si4 0.965089 0.857118 0.663006
Si Si5 0.827715 0.498293 0.337671
Si Si6 0.410690 0.028157 0.436256
Si Si7 0.716483 0.177439 0.921645
Si Si8 0.350834 0.544586 0.166101
O O1 0.897435 0.479033 0.750000
O O2 0.828842 0.533008 0.634681
O O3 0.960074 0.388884 0.633791
O O4 0.938777 0.680489 0.652926
O O5 0.224687 0.346061 0.250000
O O6 0.301324 0.402102 0.358709
O O7 0.206870 0.166896 0.356353
O O8 0.426562 0.069053 0.519805
O O9 0.433424 0.312720 0.604811
O O10 0.537574 0.109987 0.587412
O O11 0.425761 0.018053 0.654193
O O12 0.968948 0.878686 0.750000
O O13 0.905883 0.977685 0.639960
O O14 0.825271 0.476038 0.250000
O O15 0.783765 0.368544 0.378177
O O16 0.334305 0.971833 0.428101
O O17 0.672876 0.306090 0.878593
O O18 0.731364 0.250000 0.000000
O O19 0.338459 0.577136 0.250000
#
# Coordination Sequence:
#
# PCOD9438020 Si02
#       8
#     8   8   8   8   8   8   8   8
#     4   8  13  23  41  70 103 136 173 215 264 325
#     4   8  16  31  51  75 109 145 178 221 275 328
#     4  10  20  38  62  86 107 142 177 223 267 319
#     4   8  14  24  42  68 100 134 173 219 270 323
#     4   9  18  34  52  74 107 145 179 225 282 328
#     4  10  21  37  62  83 109 139 183 220 265 313
#     4  12  23  37  54  82 111 146 185 230 269 328
#     4  11  22  37  56  84 117 147 181 227 279 326
#
# _framework density 20.618404000000002
#
# number of rings (size 3 to 8) (size 9 to 14) (size 15 to 20)
#    0.000    2.500    1.250    3.375    1.750    1.000 
#    0.000    7.500    0.000    0.000    0.000    7.875 
#    0.000    0.000    0.000    0.000    0.000    0.000 
#
# Total GULP energy -356837.630287 kJ/mol
# GULP energy per Si atom -5575.587973 kJ/mol
# Density = 2.057148 g / cm^3
# Si number density = 20.618404 Si / 1000 Ang^3
#
#
#
# Elastic Constant Matrix: (Units=GPa)
#
#
# Indices 1 2 3 4 5 6 
#
# 1 40.4931 -9.4496 -3.4110 0.0000 0.0000 0.0000
# 2 -9.4496 37.8573 9.8308 0.0000 0.0000 0.0000
# 3 -3.4110 9.8308 30.4095 0.0000 0.0000 0.0000
# 4 0.0000 0.0000 0.0000 14.2162 0.0000 0.0000
# 5 0.0000 0.0000 0.0000 0.0000 6.8319 0.0000
# 6 0.0000 0.0000 0.0000 0.0000 0.0000 32.1527
#
#
#
# Elastic Compliance Matrix: (Units=1/GPa)
#
#
# Indices 1 2 3 4 5 6 
#
# 1 0.026246 0.006317 0.000902 0.000000 0.000000 0.000000
# 2 0.006317 0.030356 -0.009105 0.000000 0.000000 0.000000
# 3 0.000902 -0.009105 0.035929 0.000000 0.000000 0.000000
# 4 0.000000 0.000000 0.000000 0.070342 0.000000 0.000000
# 5 0.000000 0.000000 0.000000 0.000000 0.146373 0.000000
# 6 0.000000 0.000000 0.000000 0.000000 0.000000 0.031102
#
#
# Mechanical properties :
#
#
# Convention : Reuss Voigt Hill
#
# Bulk Modulus (GPa) = 11.26652 11.41115 11.33884
# Shear Modulus (GPa) = 13.37948 18.09278 15.73613
#
# Velocity S-wave (km/s) = 2.55013 2.96549 2.76562
# Velocity P-wave (km/s) = 3.76126 4.15595 3.96352
#
# Compressibility (1/GPa) = 0.08875852
#
# Stress axis : x y z
#
# Youngs Moduli (GPa) = 38.10150 32.94219 27.83257
#
# Poissons Ratio (x) = -0.20810 -0.02510
# Poissons Ratio (y) = -0.24069 0.25342
# Poissons Ratio (z) = -0.03436 0.29994
#
# Static dielectric constant tensor:
#      x y z
#    x 1.759450 0.000000 0.000000 
#    y 0.000000 1.791260 0.000000 
#    z 0.000000 0.000000 1.707770 
# 
# From -- ./inp_files/25643.got.cif
#   From: 2010.05.17/outbox.cif.g08.bks.cpg/sg57_13_cif.got.tgz:25643.got - 2010.06.03 13:58:18.
