data_PCOD9438961
_publ_section_title
;
Structure prediction by ZEFSAII (Michael W. Deem and Ramdas Pophale) SiO2 
 PCOD9438961
Probable space group: P B C M
;
_chemical_formula_sum "Si O2"
_cell_formula_units_Z 56
_cell_length_a 22.240664
_cell_length_b 14.406902
_cell_length_c 8.574275
_cell_angle_alpha 90.000000
_cell_angle_beta 90.000000
_cell_angle_gamma 90.000000
_cell_volume 2747.361193
_symmetry_space_group_name_H-M "P B C M"
_symmetry_group_IT_number 57
_symmetry_cell_setting 'orthorhombic'
loop_
_space_group_symop_operation_xyz
x,y,z
-x,-y,1/2+z
x,1/2-y,-z
-x,1/2+y,1/2-z
-x,-y,-z
x,y,1/2-z
-x,1/2+y,z
x,1/2-y,1/2+z
loop_
_atom_site_type_symbol
_atom_site_label
_atom_site_fract_x
_atom_site_fract_y
_atom_site_fract_z
Si Si1 0.331671 0.146927 0.063765
Si Si2 0.565514 0.978515 0.067820
Si Si3 0.910417 0.546259 0.935694
Si Si4 0.788347 0.965019 0.564272
Si Si5 0.630789 0.346367 0.434290
Si Si6 0.235851 0.840810 0.933980
Si Si7 0.963758 0.145573 0.563717
O O1 0.331897 0.147573 0.250000
O O2 0.273129 0.086609 0.015107
O O3 0.325452 0.250000 0.000000
O O4 0.394307 0.102330 0.007530
O O5 0.560091 0.960345 0.250000
O O6 0.500000 0.000000 0.000000
O O7 0.603380 0.070353 0.030943
O O8 0.901186 0.544042 0.750000
O O9 0.967525 0.612418 0.968288
O O10 0.850712 0.583750 0.020658
O O11 0.926283 0.441292 0.992972
O O12 0.784917 0.981111 0.750000
O O13 0.793126 0.061705 0.472572
O O14 0.605525 0.250000 0.500000
O O15 0.620361 0.357179 0.250000
O O16 0.701636 0.344923 0.470064
O O17 0.247039 0.830692 0.750000
O O18 0.202611 0.750000 0.000000
O O19 0.953068 0.250000 0.500000
O O20 0.953980 0.146266 0.750000
#
# Coordination Sequence:
#
# PCOD9438961 Si02
#       7
#     8   8   8   8   8   8   8
#     4  11  25  45  68  94 128 168 213 262 315 375
#     4  12  25  43  67  94 125 163 208 260 316 375
#     4  10  22  39  61  91 125 163 211 261 311 372
#     4  11  23  40  63  91 128 167 209 260 313 374
#     4  11  21  37  60  89 121 155 197 244 301 365
#     4  11  21  35  58  87 120 158 199 246 304 368
#     4  10  21  39  63  90 124 165 209 260 315 371
#
# _framework density 20.383196000000002
#
# number of rings (size 3 to 8) (size 9 to 14) (size 15 to 20)
#    0.000    1.143    1.429    6.429    0.000    5.143 
#    0.000    8.571    0.000    0.000    0.000    0.000 
#    0.000    0.000    0.000    0.000    0.000    0.000 
#
# Total GULP energy -312919.600125 kJ/mol
# GULP energy per Si atom -5587.850002 kJ/mol
# Density = 2.033680 g / cm^3
# Si number density = 20.383196 Si / 1000 Ang^3
#
#
#
# Elastic Constant Matrix: (Units=GPa)
#
#
# Indices 1 2 3 4 5 6 
#
# 1 107.4958 26.7622 33.8059 0.0000 0.0000 0.0000
# 2 26.7622 93.6731 24.0531 0.0000 0.0000 0.0000
# 3 33.8059 24.0531 85.5817 0.0000 0.0000 0.0000
# 4 0.0000 0.0000 0.0000 32.7852 0.0000 0.0000
# 5 0.0000 0.0000 0.0000 0.0000 31.8585 0.0000
# 6 0.0000 0.0000 0.0000 0.0000 0.0000 7.0521
#
#
#
# Elastic Compliance Matrix: (Units=1/GPa)
#
#
# Indices 1 2 3 4 5 6 
#
# 1 0.011024 -0.002189 -0.003739 0.000000 0.000000 0.000000
# 2 -0.002189 0.011941 -0.002491 0.000000 0.000000 0.000000
# 3 -0.003739 -0.002491 0.013862 0.000000 0.000000 0.000000
# 4 0.000000 0.000000 0.000000 0.030502 0.000000 0.000000
# 5 0.000000 0.000000 0.000000 0.000000 0.031389 0.000000
# 6 0.000000 0.000000 0.000000 0.000000 0.000000 0.141801
#
#
# Mechanical properties :
#
#
# Convention : Reuss Voigt Hill
#
# Bulk Modulus (GPa) = 50.03276 50.66586 50.34931
# Shear Modulus (GPa) = 18.93800 27.81447 23.37623
#
# Velocity S-wave (km/s) = 3.05142 3.69803 3.39017
# Velocity P-wave (km/s) = 6.08393 6.56845 6.33083
#
# Compressibility (1/GPa) = 0.01998690
#
# Stress axis : x y z
#
# Youngs Moduli (GPa) = 90.71408 83.74811 72.14010
#
# Poissons Ratio (x) = 0.18335 0.26974
# Poissons Ratio (y) = 0.19860 0.17971
# Poissons Ratio (z) = 0.33920 0.20863
#
# Static dielectric constant tensor:
#      x y z
#    x 1.776320 0.000000 0.000000 
#    y 0.000000 1.725980 0.000000 
#    z 0.000000 0.000000 1.682570 
# 
# From -- ./inp_files/8121.got.cif
#   From: 2010.05.17/outbox.cif.g08.bks.cpg/sg57_5_cif.got.tgz:8121.got - 2010.06.03 13:58:18.
