data_PCOD9438281
_publ_section_title
;
Structure prediction by ZEFSAII (Michael W. Deem and Ramdas Pophale) SiO2 
 PCOD9438281
Probable space group: P B C M
;
_chemical_formula_sum "Si O2"
_cell_formula_units_Z 64
_cell_length_a 8.621316
_cell_length_b 13.309647
_cell_length_c 25.766608
_cell_angle_alpha 90.000000
_cell_angle_beta 90.000000
_cell_angle_gamma 90.000000
_cell_volume 2956.632533
_symmetry_space_group_name_H-M "P B C M"
_symmetry_group_IT_number 57
_symmetry_cell_setting 'orthorhombic'
loop_
_space_group_symop_operation_xyz
x,y,z
-x,-y,1/2+z
x,1/2-y,-z
-x,1/2+y,1/2-z
-x,-y,-z
x,y,1/2-z
-x,1/2+y,z
x,1/2-y,1/2+z
loop_
_atom_site_type_symbol
_atom_site_label
_atom_site_fract_x
_atom_site_fract_y
_atom_site_fract_z
Si Si1 0.300515 0.108798 0.628123
Si Si2 0.997652 0.226864 0.595923
Si Si3 0.937502 0.503230 0.694131
Si Si4 0.532147 0.813952 0.634373
Si Si5 0.416618 0.555513 0.047866
Si Si6 0.790085 0.214182 0.191321
Si Si7 0.827414 0.932511 0.613673
Si Si8 0.862377 0.428827 0.021048
O O1 0.416089 0.199186 0.638527
O O2 0.152510 0.159265 0.600355
O O3 0.217905 0.061427 0.678047
O O4 0.380695 0.024556 0.593233
O O5 0.885699 0.225962 0.646830
O O6 0.912128 0.174255 0.548265
O O7 0.066411 0.339957 0.592742
O O8 0.993757 0.538383 0.750000
O O9 0.889177 0.387183 0.696648
O O10 0.067722 0.501775 0.650310
O O11 0.496090 0.849595 0.575482
O O12 0.377373 0.819586 0.668722
O O13 0.683200 0.883934 0.645055
O O14 0.500000 0.500000 0.000000
O O15 0.252755 0.590854 0.025693
O O16 0.775756 0.257359 0.250000
O O17 0.780630 0.002461 0.565604
O O18 0.000000 0.500000 0.000000
#
# Coordination Sequence:
#
# PCOD9438281 Si02
#       8
#     8   8   8   8   8   8   8   8
#     4  11  23  45  67  98 137 179 233 287 345 420
#     4  10  23  42  68  97 131 175 232 291 334 411
#     4  10  20  41  73  98 130 178 229 290 349 405
#     4  11  25  43  69  99 144 183 226 284 352 426
#     4  12  25  44  64  98 141 183 231 282 348 415
#     4  10  23  44  69  99 136 176 224 286 353 413
#     4  10  22  43  64 100 137 177 229 285 343 419
#     4  12  23  42  67  96 133 183 235 283 344 409
#
# _framework density 21.646249000000001
#
# number of rings (size 3 to 8) (size 9 to 14) (size 15 to 20)
#    0.000    1.250    5.000    0.000    3.500    2.500 
#    0.000    2.500    0.000    0.000    0.000    0.000 
#    0.000    0.000    0.000    0.000    0.000    0.000 
#
# Total GULP energy -357281.078286 kJ/mol
# GULP energy per Si atom -5582.516848 kJ/mol
# Density = 2.159698 g / cm^3
# Si number density = 21.646249 Si / 1000 Ang^3
#
#
#
# Elastic Constant Matrix: (Units=GPa)
#
#
# Indices 1 2 3 4 5 6 
#
# 1 73.7575 10.1322 16.4461 0.0000 0.0000 0.0000
# 2 10.1322 78.9743 21.4880 0.0000 0.0000 0.0000
# 3 16.4461 21.4880 65.8335 0.0000 0.0000 0.0000
# 4 0.0000 0.0000 0.0000 18.0089 0.0000 0.0000
# 5 0.0000 0.0000 0.0000 0.0000 11.9898 0.0000
# 6 0.0000 0.0000 0.0000 0.0000 0.0000 33.7823
#
#
#
# Elastic Compliance Matrix: (Units=1/GPa)
#
#
# Indices 1 2 3 4 5 6 
#
# 1 0.014423 -0.000955 -0.003291 0.000000 0.000000 0.000000
# 2 -0.000955 0.013960 -0.004318 0.000000 0.000000 0.000000
# 3 -0.003291 -0.004318 0.017421 0.000000 0.000000 0.000000
# 4 0.000000 0.000000 0.000000 0.055528 0.000000 0.000000
# 5 0.000000 0.000000 0.000000 0.000000 0.083404 0.000000
# 6 0.000000 0.000000 0.000000 0.000000 0.000000 0.029601
#
#
# Mechanical properties :
#
#
# Convention : Reuss Voigt Hill
#
# Bulk Modulus (GPa) = 34.87261 34.96644 34.91953
# Shear Modulus (GPa) = 20.74474 24.12279 22.43376
#
# Velocity S-wave (km/s) = 3.09909 3.34190 3.22278
# Velocity P-wave (km/s) = 5.38061 5.57492 5.47863
#
# Compressibility (1/GPa) = 0.02867580
#
# Stress axis : x y z
#
# Youngs Moduli (GPa) = 69.33363 71.63473 57.40063
#
# Poissons Ratio (x) = 0.06840 0.18893
# Poissons Ratio (y) = 0.06621 0.24785
# Poissons Ratio (z) = 0.22820 0.30931
#
# Static dielectric constant tensor:
#      x y z
#    x 1.830750 0.000000 0.000000 
#    y 0.000000 1.808900 0.000000 
#    z 0.000000 0.000000 1.806660 
# 
# From -- ./inp_files/26885.got.cif
#   From: 2010.05.17/outbox.cif.g08.bks.cpg/sg57_14_cif.got.tgz:26885.got - 2010.06.03 13:58:18.
