data_PCOD9438499
_publ_section_title
;
Structure prediction by ZEFSAII (Michael W. Deem and Ramdas Pophale) SiO2 
 PCOD9438499
Probable space group: P B C M
;
_chemical_formula_sum "Si O2"
_cell_formula_units_Z 64
_cell_length_a 22.685827
_cell_length_b 9.163013
_cell_length_c 14.361415
_cell_angle_alpha 90.000000
_cell_angle_beta 90.000000
_cell_angle_gamma 90.000000
_cell_volume 2985.314915
_symmetry_space_group_name_H-M "P B C M"
_symmetry_group_IT_number 57
_symmetry_cell_setting 'orthorhombic'
loop_
_space_group_symop_operation_xyz
x,y,z
-x,-y,1/2+z
x,1/2-y,-z
-x,1/2+y,1/2-z
-x,-y,-z
x,y,1/2-z
-x,1/2+y,z
x,1/2-y,1/2+z
loop_
_atom_site_type_symbol
_atom_site_label
_atom_site_fract_x
_atom_site_fract_y
_atom_site_fract_z
Si Si1 0.303399 0.904110 0.527040
Si Si2 0.526280 0.031081 0.641391
Si Si3 0.578330 0.160592 0.136726
Si Si4 0.363952 0.354910 0.587158
Si Si5 0.256826 0.157028 0.853613
Si Si6 0.914113 0.404230 0.516764
Si Si7 0.128396 0.342384 0.357380
Si Si8 0.969143 0.593868 0.139756
O O1 0.275700 0.750000 0.500000
O O2 0.357439 0.865181 0.595866
O O3 0.333193 0.993972 0.443287
O O4 0.263293 0.024335 0.575653
O O5 0.514402 0.058513 0.750000
O O6 0.465435 0.967545 0.602227
O O7 0.575889 0.904843 0.635041
O O8 0.551415 0.184050 0.605387
O O9 0.580735 0.159144 0.250000
O O10 0.378671 0.250000 0.500000
O O11 0.312768 0.263259 0.637794
O O12 0.257325 0.095197 0.750000
O O13 0.192969 0.230202 0.868317
O O14 0.883591 0.250000 0.500000
O O15 0.877688 0.528425 0.569099
O O16 0.938334 0.465196 0.418748
O O17 0.970069 0.378025 0.585529
O O18 0.124711 0.395386 0.250000
O O19 0.074629 0.231365 0.370142
O O20 0.977255 0.563634 0.250000
#
# Coordination Sequence:
#
# PCOD9438499 Si02
#       8
#     8   8   8   8   8   8   8   8
#     4  11  22  39  58  87 121 151 193 246 307 358
#     4  10  21  37  56  82 113 151 197 242 294 360
#     4  10  22  37  57  83 115 156 196 240 298 365
#     4  10  22  37  58  85 113 152 194 245 299 355
#     4  10  23  43  66  87 114 158 205 248 295 357
#     4  11  22  35  59  94 129 165 201 253 314 356
#     4  10  22  42  65  89 120 163 212 254 302 367
#     4  10  21  38  61  90 127 169 212 252 296 362
#
# _framework density 21.438275999999998
#
# number of rings (size 3 to 8) (size 9 to 14) (size 15 to 20)
#    0.000    1.750    1.250    3.000    3.500    6.500 
#    0.000    0.000    0.000    3.000    0.000    0.000 
#    0.000    0.000    0.000    0.000    0.000    0.000 
#
# Total GULP energy -357555.781682 kJ/mol
# GULP energy per Si atom -5586.809089 kJ/mol
# Density = 2.138948 g / cm^3
# Si number density = 21.438276 Si / 1000 Ang^3
#
#
#
# Elastic Constant Matrix: (Units=GPa)
#
#
# Indices 1 2 3 4 5 6 
#
# 1 74.9027 2.4525 10.6120 0.0000 0.0000 0.0000
# 2 2.4525 76.1965 20.1660 0.0000 0.0000 0.0000
# 3 10.6120 20.1660 79.3377 0.0000 0.0000 0.0000
# 4 0.0000 0.0000 0.0000 21.8710 0.0000 0.0000
# 5 0.0000 0.0000 0.0000 0.0000 -49.5630 0.0000
# 6 0.0000 0.0000 0.0000 0.0000 0.0000 20.8858
#
#
#
# Elastic Compliance Matrix: (Units=1/GPa)
#
#
# Indices 1 2 3 4 5 6 
#
# 1 0.013609 0.000047 -0.001832 0.000000 0.000000 0.000000
# 2 0.000047 0.014071 -0.003583 0.000000 0.000000 0.000000
# 3 -0.001832 -0.003583 0.013760 0.000000 0.000000 0.000000
# 4 0.000000 0.000000 0.000000 0.045723 0.000000 0.000000
# 5 0.000000 0.000000 0.000000 0.000000 -0.020176 0.000000
# 6 0.000000 0.000000 0.000000 0.000000 0.000000 0.047880
#
#
# Mechanical properties :
#
#
# Convention : Reuss Voigt Hill
#
# Bulk Modulus (GPa) = 32.56975 32.98867 32.77921
# Shear Modulus (GPa) = 36.80911 11.78582 24.29747
#
# Velocity S-wave (km/s) = 4.14814 2.34723 3.37021
# Velocity P-wave (km/s) = 6.17803 4.77149 5.51975
#
# Compressibility (1/GPa) = 0.03070334
#
# Stress axis : x y z
#
# Youngs Moduli (GPa) = 73.48242 71.06987 72.67396
#
# Poissons Ratio (x) = -0.00333 0.13315
# Poissons Ratio (y) = -0.00345 0.26037
# Poissons Ratio (z) = 0.13463 0.25463
#
# Static dielectric constant tensor:
#      x y z
#    x 1.779270 0.000000 0.000000 
#    y 0.000000 1.775950 0.000000 
#    z 0.000000 0.000000 1.788620 
# 
# From -- ./inp_files/19496.got.cif
#   From: 2010.05.17/outbox.cif.g08.bks.cpg/sg57_10_cif.got.tgz:19496.got - 2010.06.03 13:58:18.
