data_PCOD9438542
_publ_section_title
;
Structure prediction by ZEFSAII (Michael W. Deem and Ramdas Pophale) SiO2 
 PCOD9438542
Probable space group: P B C M
;
_chemical_formula_sum "Si O2"
_cell_formula_units_Z 48
_cell_length_a 21.644926
_cell_length_b 14.438064
_cell_length_c 8.742278
_cell_angle_alpha 90.000000
_cell_angle_beta 90.000000
_cell_angle_gamma 90.000000
_cell_volume 2732.056526
_symmetry_space_group_name_H-M "P B C M"
_symmetry_group_IT_number 57
_symmetry_cell_setting 'orthorhombic'
loop_
_space_group_symop_operation_xyz
x,y,z
-x,-y,1/2+z
x,1/2-y,-z
-x,1/2+y,1/2-z
-x,-y,-z
x,y,1/2-z
-x,1/2+y,z
x,1/2-y,1/2+z
loop_
_atom_site_type_symbol
_atom_site_label
_atom_site_fract_x
_atom_site_fract_y
_atom_site_fract_z
Si Si1 0.497763 0.147723 0.932960
Si Si2 0.170766 0.352700 0.934174
Si Si3 0.931854 0.999881 0.933305
Si Si4 0.599309 0.506713 0.067168
Si Si5 0.829331 0.352680 0.434157
Si Si6 0.735810 0.499758 0.567181
O O1 0.490509 0.151471 0.750000
O O2 0.557471 0.083762 0.967129
O O3 0.504051 0.250000 0.000000
O O4 0.439685 0.093943 0.005653
O O5 0.175015 0.351462 0.750000
O O6 0.109129 0.410487 0.977518
O O7 0.169442 0.250000 0.000000
O O8 0.227752 0.411432 0.000955
O O9 0.936183 0.000015 0.750000
O O10 0.890721 0.089062 0.977877
O O11 0.000000 0.000000 0.000000
O O12 0.606337 0.513568 0.250000
O O13 0.665554 0.500619 0.988725
O O14 0.830916 0.250000 0.500000
O O15 0.825275 0.351356 0.250000
O O16 0.772040 0.410983 0.500406
O O17 0.739172 0.499585 0.750000
#
# Coordination Sequence:
#
# PCOD9438542 Si02
#       6
#     8   8   8   8   8   8
#     4  10  21  37  58  83 111 144 182 224 271 322
#     4  10  21  38  57  81 111 144 183 227 274 325
#     4   9  20  36  55  79 110 144 181 225 271 323
#     4  10  21  38  58  81 112 146 182 226 271 321
#     4  10  21  38  57  81 111 145 184 227 274 324
#     4  11  22  37  58  83 111 145 183 226 275 327
#
# _framework density 17.569182000000001
#
# number of rings (size 3 to 8) (size 9 to 14) (size 15 to 20)
#    0.000    2.000    0.000    4.500    0.000    8.000 
#    0.000    8.333    0.000    0.000    0.000    0.000 
#    0.000    0.000    0.000    0.000    0.000    0.000 
#
# Total GULP energy -268083.100750 kJ/mol
# GULP energy per Si atom -5585.064599 kJ/mol
# Density = 1.752919 g / cm^3
# Si number density = 17.569182 Si / 1000 Ang^3
#
#
#
# Elastic Constant Matrix: (Units=GPa)
#
#
# Indices 1 2 3 4 5 6 
#
# 1 170.2213 88.7691 71.4125 0.0000 0.0000 0.0000
# 2 88.7691 185.5426 71.1147 0.0000 0.0000 0.0000
# 3 71.4125 71.1147 96.2246 0.0000 0.0000 0.0000
# 4 0.0000 0.0000 0.0000 32.8207 0.0000 0.0000
# 5 0.0000 0.0000 0.0000 0.0000 35.6184 0.0000
# 6 0.0000 0.0000 0.0000 0.0000 0.0000 4.8201
#
#
#
# Elastic Compliance Matrix: (Units=1/GPa)
#
#
# Indices 1 2 3 4 5 6 
#
# 1 0.009304 -0.002518 -0.005044 0.000000 0.000000 0.000000
# 2 -0.002518 0.008201 -0.004192 0.000000 0.000000 0.000000
# 3 -0.005044 -0.004192 0.017234 0.000000 0.000000 0.000000
# 4 0.000000 0.000000 0.000000 0.030469 0.000000 0.000000
# 5 0.000000 0.000000 0.000000 0.000000 0.028075 0.000000
# 6 0.000000 0.000000 0.000000 0.000000 0.000000 0.207464
#
#
# Mechanical properties :
#
#
# Convention : Reuss Voigt Hill
#
# Bulk Modulus (GPa) = 89.04278 101.62013 95.33146
# Shear Modulus (GPa) = 15.24394 29.36464 22.30429
#
# Velocity S-wave (km/s) = 2.94879 4.09268 3.56689
# Velocity P-wave (km/s) = 7.89842 8.96097 8.44642
#
# Compressibility (1/GPa) = 0.01123056
#
# Stress axis : x y z
#
# Youngs Moduli (GPa) = 107.48195 121.93445 58.02508
#
# Poissons Ratio (x) = 0.30704 0.29267
# Poissons Ratio (y) = 0.27064 0.24326
# Poissons Ratio (z) = 0.54212 0.51118
#
# Static dielectric constant tensor:
#      x y z
#    x 1.572990 0.000000 0.000000 
#    y 0.000000 1.574130 0.000000 
#    z 0.000000 0.000000 1.587820 
# 
# From -- ./inp_files/6514.got.cif
#   From: 2010.05.17/outbox.cif.g08.bks.cpg/sg57_4_cif.got.tgz:6514.got - 2010.06.03 13:58:18.
