data_PCOD9438964
_publ_section_title
;
Structure prediction by ZEFSAII (Michael W. Deem and Ramdas Pophale) SiO2 
 PCOD9438964
Probable space group: P B C M
;
_chemical_formula_sum "Si O2"
_cell_formula_units_Z 32
_cell_length_a 16.505206
_cell_length_b 9.547488
_cell_length_c 10.220000
_cell_angle_alpha 90.000000
_cell_angle_beta 90.000000
_cell_angle_gamma 90.000000
_cell_volume 1610.500879
_symmetry_space_group_name_H-M "P B C M"
_symmetry_group_IT_number 57
_symmetry_cell_setting 'orthorhombic'
loop_
_space_group_symop_operation_xyz
x,y,z
-x,-y,1/2+z
x,1/2-y,-z
-x,1/2+y,1/2-z
-x,-y,-z
x,y,1/2-z
-x,1/2+y,z
x,1/2-y,1/2+z
loop_
_atom_site_type_symbol
_atom_site_label
_atom_site_fract_x
_atom_site_fract_y
_atom_site_fract_z
Si Si1 0.736423 0.629095 0.604963
Si Si2 0.547157 0.611336 0.909614
Si Si3 0.131327 0.909407 0.971760
Si Si4 0.047996 0.360386 0.886356
O O1 0.752887 0.750000 0.500000
O O2 0.743804 0.690542 0.750000
O O3 0.643486 0.580347 0.589315
O O4 0.797629 0.500050 0.590245
O O5 0.525166 0.620800 0.750000
O O6 0.537141 0.750000 0.000000
O O7 0.500000 0.500000 0.000000
O O8 0.101354 0.001145 0.095482
O O9 0.155396 0.750000 0.000000
O O10 0.046639 0.901444 0.893103
O O11 0.065640 0.288936 0.750000
O O12 0.062456 0.250000 0.000000
#
# Coordination Sequence:
#
# PCOD9438964 Si02
#       4
#     8   8   8   8
#     4  10  22  40  61  85 116 154 192 232 282 342
#     4  10  21  39  63  91 121 155 195 239 291 351
#     4  10  22  36  56  84 115 148 191 243 292 339
#     4  10  22  39  58  80 110 151 196 241 292 347
#
# _framework density 19.869595
#
# number of rings (size 3 to 8) (size 9 to 14) (size 15 to 20)
#    0.000    2.000    0.000    2.250    0.000   17.000 
#    0.000    0.000    0.000    0.000    0.000    0.000 
#    0.000    0.000    0.000    0.000    0.000    0.000 
#
# Total GULP energy -178348.092679 kJ/mol
# GULP energy per Si atom -5573.377896 kJ/mol
# Density = 1.982437 g / cm^3
# Si number density = 19.869595 Si / 1000 Ang^3
#
#
#
# Elastic Constant Matrix: (Units=GPa)
#
#
# Indices 1 2 3 4 5 6 
#
# 1 103.1972 64.9666 59.9080 0.0000 0.0000 0.0000
# 2 64.9666 129.1526 70.9427 0.0000 0.0000 0.0000
# 3 59.9080 70.9427 198.6856 0.0000 0.0000 0.0000
# 4 0.0000 0.0000 0.0000 27.7300 0.0000 0.0000
# 5 0.0000 0.0000 0.0000 0.0000 -100.7654 0.0000
# 6 0.0000 0.0000 0.0000 0.0000 0.0000 31.5958
#
#
#
# Elastic Compliance Matrix: (Units=1/GPa)
#
#
# Indices 1 2 3 4 5 6 
#
# 1 0.014960 -0.006279 -0.002269 0.000000 0.000000 0.000000
# 2 -0.006279 0.012267 -0.002487 0.000000 0.000000 0.000000
# 3 -0.002269 -0.002487 0.006605 0.000000 0.000000 0.000000
# 4 0.000000 0.000000 0.000000 0.036062 0.000000 0.000000
# 5 0.000000 0.000000 0.000000 0.000000 -0.009924 0.000000
# 6 0.000000 0.000000 0.000000 0.000000 0.000000 0.031650
#
#
# Mechanical properties :
#
#
# Convention : Reuss Voigt Hill
#
# Bulk Modulus (GPa) = 85.01156 91.40777 88.20967
# Shear Modulus (GPa) = 42.51304 7.39330 24.95317
#
# Velocity S-wave (km/s) = 4.63060 1.93106 3.54764
# Velocity P-wave (km/s) = 8.45385 7.14673 7.82762
#
# Compressibility (1/GPa) = 0.01176311
#
# Stress axis : x y z
#
# Youngs Moduli (GPa) = 66.84410 81.51736 151.39713
#
# Poissons Ratio (x) = 0.51185 0.34349
# Poissons Ratio (y) = 0.41972 0.37651
# Poissons Ratio (z) = 0.15166 0.20273
#
# Static dielectric constant tensor:
#      x y z
#    x 1.710990 0.000000 0.000000 
#    y 0.000000 1.700710 0.000000 
#    z 0.000000 0.000000 1.757940 
# 
# From -- ./inp_files/13437.got.cif
#   From: 2010.05.17/outbox.cif.g08.bks.cpg/sg57_7_cif.got.tgz:13437.got - 2010.06.03 13:58:18.
