data_PCOD9438580
_publ_section_title
;
Structure prediction by ZEFSAII (Michael W. Deem and Ramdas Pophale) SiO2 
 PCOD9438580
Probable space group: P B C M
;
_chemical_formula_sum "Si O2"
_cell_formula_units_Z 56
_cell_length_a 5.589136
_cell_length_b 16.109949
_cell_length_c 26.139174
_cell_angle_alpha 90.000000
_cell_angle_beta 90.000000
_cell_angle_gamma 90.000000
_cell_volume 2353.589418
_symmetry_space_group_name_H-M "P B C M"
_symmetry_group_IT_number 57
_symmetry_cell_setting 'orthorhombic'
loop_
_space_group_symop_operation_xyz
x,y,z
-x,-y,1/2+z
x,1/2-y,-z
-x,1/2+y,1/2-z
-x,-y,-z
x,y,1/2-z
-x,1/2+y,z
x,1/2-y,1/2+z
loop_
_atom_site_type_symbol
_atom_site_label
_atom_site_fract_x
_atom_site_fract_y
_atom_site_fract_z
Si Si1 0.243994 0.423765 0.007843
Si Si2 0.852083 0.580804 0.809147
Si Si3 0.635272 0.120936 0.860796
Si Si4 0.014155 0.603242 0.310112
Si Si5 0.240207 0.881287 0.502746
Si Si6 0.648874 0.941930 0.892690
Si Si7 0.258579 0.700846 0.395999
O O1 0.485265 0.370969 0.015098
O O2 0.208881 0.426812 0.945671
O O3 0.999906 0.387406 0.031531
O O4 0.263532 0.521344 0.022518
O O5 0.898444 0.597521 0.750000
O O6 0.600218 0.621576 0.824760
O O7 0.824150 0.480259 0.814673
O O8 0.096257 0.608135 0.837784
O O9 0.585513 0.038554 0.893854
O O10 0.642980 0.208286 0.888637
O O11 0.992542 0.623839 0.250000
O O12 0.093474 0.677791 0.347321
O O13 0.776648 0.571657 0.338297
O O14 0.175260 0.814076 0.546042
O O15 0.452023 0.871903 0.893323
#
# Coordination Sequence:
#
# PCOD9438580 Si02
#       7
#     8   8   8   8   8   8   8
#     4   9  17  32  59  83 113 153 192 234 295 349
#     4  10  22  42  59  80 115 153 201 249 296 350
#     4  11  24  37  61  87 115 159 196 247 302 352
#     4  10  21  37  59  84 114 157 199 246 297 352
#     4   9  18  32  56  88 112 148 195 238 287 351
#     4  10  21  40  59  85 122 158 199 246 302 354
#     4  11  22  38  59  87 121 154 202 248 296 357
#
# _framework density 23.793443
#
# number of rings (size 3 to 8) (size 9 to 14) (size 15 to 20)
#    0.000    2.000    2.857    0.429    2.000    2.286 
#    0.000    0.714    0.000    0.000    0.000    8.000 
#    0.000    0.000    0.000    0.000    0.000    0.000 
#
# Total GULP energy -312263.033516 kJ/mol
# GULP energy per Si atom -5576.125599 kJ/mol
# Density = 2.373929 g / cm^3
# Si number density = 23.793443 Si / 1000 Ang^3
#
#
#
# Elastic Constant Matrix: (Units=GPa)
#
#
# Indices 1 2 3 4 5 6 
#
# 1 102.8836 29.1818 31.8647 0.0000 0.0000 0.0000
# 2 29.1818 105.6131 37.6133 0.0000 0.0000 0.0000
# 3 31.8647 37.6133 109.7037 0.0000 0.0000 0.0000
# 4 0.0000 0.0000 0.0000 31.3119 0.0000 0.0000
# 5 0.0000 0.0000 0.0000 0.0000 28.0014 0.0000
# 6 0.0000 0.0000 0.0000 0.0000 0.0000 13.5030
#
#
#
# Elastic Compliance Matrix: (Units=1/GPa)
#
#
# Indices 1 2 3 4 5 6 
#
# 1 0.011107 -0.002187 -0.002476 0.000000 0.000000 0.000000
# 2 -0.002187 0.011216 -0.003210 0.000000 0.000000 0.000000
# 3 -0.002476 -0.003210 0.010935 0.000000 0.000000 0.000000
# 4 0.000000 0.000000 0.000000 0.031937 0.000000 0.000000
# 5 0.000000 0.000000 0.000000 0.000000 0.035713 0.000000
# 6 0.000000 0.000000 0.000000 0.000000 0.000000 0.074057
#
#
# Mechanical properties :
#
#
# Convention : Reuss Voigt Hill
#
# Bulk Modulus (GPa) = 57.10628 57.28002 57.19315
# Shear Modulus (GPa) = 25.43884 29.19929 27.31907
#
# Velocity S-wave (km/s) = 3.27334 3.50694 3.39215
# Velocity P-wave (km/s) = 6.19187 6.36587 6.27947
#
# Compressibility (1/GPa) = 0.01751121
#
# Stress axis : x y z
#
# Youngs Moduli (GPa) = 90.03326 89.15700 91.44578
#
# Poissons Ratio (x) = 0.19499 0.22645
# Poissons Ratio (y) = 0.19691 0.29357
# Poissons Ratio (z) = 0.22295 0.28623
#
# Static dielectric constant tensor:
#      x y z
#    x 2.037650 0.000000 0.000000 
#    y 0.000000 1.886590 0.000000 
#    z 0.000000 0.000000 1.970280 
# 
# From -- ./inp_files/29143.got.cif
#   From: 2010.05.17/outbox.cif.g08.bks.cpg/sg57_15_cif.got.tgz:29143.got - 2010.06.03 13:58:18.
