data_PCOD9438342
_publ_section_title
;
Structure prediction by ZEFSAII (Michael W. Deem and Ramdas Pophale) SiO2 
 PCOD9438342
Probable space group: P B C M
;
_chemical_formula_sum "Si O2"
_cell_formula_units_Z 40
_cell_length_a 12.461419
_cell_length_b 9.765546
_cell_length_c 17.828920
_cell_angle_alpha 90.000000
_cell_angle_beta 90.000000
_cell_angle_gamma 90.000000
_cell_volume 2169.646925
_symmetry_space_group_name_H-M "P B C M"
_symmetry_group_IT_number 57
_symmetry_cell_setting 'orthorhombic'
loop_
_space_group_symop_operation_xyz
x,y,z
-x,-y,1/2+z
x,1/2-y,-z
-x,1/2+y,1/2-z
-x,-y,-z
x,y,1/2-z
-x,1/2+y,z
x,1/2-y,1/2+z
loop_
_atom_site_type_symbol
_atom_site_label
_atom_site_fract_x
_atom_site_fract_y
_atom_site_fract_z
Si Si1 0.807968 0.948145 0.445628
Si Si2 0.736765 0.085122 0.665086
Si Si3 0.859597 0.835648 0.603707
Si Si4 0.396952 0.590927 0.518038
Si Si5 0.906398 0.328078 0.661073
O O1 0.869834 0.911866 0.523088
O O2 0.788357 0.799321 0.409544
O O3 0.701681 0.029027 0.469936
O O4 0.872346 0.041818 0.388061
O O5 0.698726 0.104046 0.750000
O O6 0.643078 0.081884 0.603945
O O7 0.820969 0.206901 0.647089
O O8 0.802923 0.944429 0.657148
O O9 0.974413 0.789582 0.634517
O O10 0.415016 0.750000 0.500000
O O11 0.500000 0.500000 0.500000
O O12 0.906831 0.356952 0.750000
#
# Coordination Sequence:
#
# PCOD9438342 Si02
#       5
#     8   8   8   8   8
#     4  10  22  39  58  89 121 161 203 255 300 362
#     4  10  22  40  61  91 129 159 198 254 304 356
#     4  10  21  34  60  90 127 162 209 235 295 364
#     4  11  24  43  70  88 115 154 206 256 310 363
#     4  11  21  36  58  88 127 169 202 244 303 360
#
# _framework density 18.436178000000002
#
# number of rings (size 3 to 8) (size 9 to 14) (size 15 to 20)
#    0.000    1.600    2.000    2.400    5.600    8.000 
#    0.000    2.000    0.000    0.000    0.000    0.000 
#    0.000    0.000    0.000    0.000    0.000    0.000 
#
# Total GULP energy -223357.852950 kJ/mol
# GULP energy per Si atom -5583.946324 kJ/mol
# Density = 1.839422 g / cm^3
# Si number density = 18.436178 Si / 1000 Ang^3
#
#
#
# Elastic Constant Matrix: (Units=GPa)
#
#
# Indices 1 2 3 4 5 6 
#
# 1 92.3479 45.0132 57.6971 0.0000 0.0000 0.0000
# 2 45.0132 133.5403 57.9189 0.0000 0.0000 0.0000
# 3 57.6971 57.9189 88.1949 0.0000 0.0000 0.0000
# 4 0.0000 0.0000 0.0000 15.7145 0.0000 0.0000
# 5 0.0000 0.0000 0.0000 0.0000 16.6067 0.0000
# 6 0.0000 0.0000 0.0000 0.0000 0.0000 35.2846
#
#
#
# Elastic Compliance Matrix: (Units=1/GPa)
#
#
# Indices 1 2 3 4 5 6 
#
# 1 0.018494 -0.001379 -0.011193 0.000000 0.000000 0.000000
# 2 -0.001379 0.010574 -0.006042 0.000000 0.000000 0.000000
# 3 -0.011193 -0.006042 0.022629 0.000000 0.000000 0.000000
# 4 0.000000 0.000000 0.000000 0.063636 0.000000 0.000000
# 5 0.000000 0.000000 0.000000 0.000000 0.060217 0.000000
# 6 0.000000 0.000000 0.000000 0.000000 0.000000 0.028341
#
#
# Mechanical properties :
#
#
# Convention : Reuss Voigt Hill
#
# Bulk Modulus (GPa) = 69.11525 70.59350 69.85437
# Shear Modulus (GPa) = 20.33013 23.75140 22.04076
#
# Velocity S-wave (km/s) = 3.32434 3.59319 3.46138
# Velocity P-wave (km/s) = 7.23224 7.45577 7.34486
#
# Compressibility (1/GPa) = 0.01446859
#
# Stress axis : x y z
#
# Youngs Moduli (GPa) = 54.07120 94.57492 44.19186
#
# Poissons Ratio (x) = 0.13044 0.49464
# Poissons Ratio (y) = 0.07458 0.26699
# Poissons Ratio (z) = 0.60522 0.57138
#
# Static dielectric constant tensor:
#      x y z
#    x 1.604930 0.000000 0.000000 
#    y 0.000000 1.632720 0.000000 
#    z 0.000000 0.000000 1.644620 
# 
# From -- ./inp_files/21574.got.cif
#   From: 2010.05.17/outbox.cif.g08.bks.cpg/sg57_11_cif.got.tgz:21574.got - 2010.06.03 13:58:18.
