data_PCOD9438521
_publ_section_title
;
Structure prediction by ZEFSAII (Michael W. Deem and Ramdas Pophale) SiO2 
 PCOD9438521
Probable space group: P B C M
;
_chemical_formula_sum "Si O2"
_cell_formula_units_Z 56
_cell_length_a 15.229041
_cell_length_b 23.181160
_cell_length_c 8.570640
_cell_angle_alpha 90.000000
_cell_angle_beta 90.000000
_cell_angle_gamma 90.000000
_cell_volume 3025.665922
_symmetry_space_group_name_H-M "P B C M"
_symmetry_group_IT_number 57
_symmetry_cell_setting 'orthorhombic'
loop_
_space_group_symop_operation_xyz
x,y,z
-x,-y,1/2+z
x,1/2-y,-z
-x,1/2+y,1/2-z
-x,-y,-z
x,y,1/2-z
-x,1/2+y,z
x,1/2-y,1/2+z
loop_
_atom_site_type_symbol
_atom_site_label
_atom_site_fract_x
_atom_site_fract_y
_atom_site_fract_z
Si Si1 0.796805 0.588730 0.436988
Si Si2 0.076580 0.312251 0.436616
Si Si3 0.608037 0.946152 0.938474
Si Si4 0.304935 0.688162 0.561533
Si Si5 0.904296 0.017371 0.436342
Si Si6 0.417548 0.577357 0.937950
Si Si7 0.884697 0.145367 0.938810
O O1 0.801423 0.590840 0.250000
O O2 0.856694 0.639213 0.505020
O O3 0.694789 0.588782 0.484571
O O4 0.836870 0.528627 0.494941
O O5 0.102088 0.250000 0.500000
O O6 0.076560 0.312085 0.250000
O O7 0.976847 0.326615 0.489696
O O8 0.601948 0.945748 0.750000
O O9 0.616487 0.013705 0.987682
O O10 0.518225 0.921188 0.006874
O O11 0.336384 0.750000 0.500000
O O12 0.307660 0.689099 0.750000
O O13 0.361130 0.632407 0.507953
O O14 0.203398 0.678547 0.512998
O O15 0.905034 0.014706 0.250000
O O16 0.881893 0.081065 0.494467
O O17 0.000000 0.000000 0.500000
O O18 0.414796 0.577977 0.750000
O O19 0.885203 0.142166 0.750000
#
# Coordination Sequence:
#
# PCOD9438521 Si02
#       7
#     8   8   8   8   8   8   8
#     4  11  22  38  59  83 115 150 188 234 282 336
#     4  11  23  38  57  79 109 150 194 235 278 331
#     4   9  19  36  60  86 111 143 182 230 289 342
#     4  10  21  37  57  83 116 154 192 233 284 339
#     4  12  23  35  55  84 116 150 188 232 284 335
#     4   9  18  35  58  84 114 146 181 227 284 341
#     4  10  21  38  58  81 114 152 190 234 284 338
#
# _framework density 18.508323000000001
#
# number of rings (size 3 to 8) (size 9 to 14) (size 15 to 20)
#    0.000    1.714    1.429    3.429    0.000    5.143 
#    0.000    3.571    0.000    1.714    0.000    0.000 
#    0.000    0.000    0.000    0.000    0.000    0.000 
#
# Total GULP energy -312796.884097 kJ/mol
# GULP energy per Si atom -5585.658645 kJ/mol
# Density = 1.846620 g / cm^3
# Si number density = 18.508323 Si / 1000 Ang^3
#
#
#
# Elastic Constant Matrix: (Units=GPa)
#
#
# Indices 1 2 3 4 5 6 
#
# 1 117.8687 46.0414 15.9611 0.0000 0.0000 0.0000
# 2 46.0414 98.0138 10.9328 0.0000 0.0000 0.0000
# 3 15.9611 10.9328 15.9316 0.0000 0.0000 0.0000
# 4 0.0000 0.0000 0.0000 29.0137 0.0000 0.0000
# 5 0.0000 0.0000 0.0000 0.0000 26.6202 0.0000
# 6 0.0000 0.0000 0.0000 0.0000 0.0000 23.7146
#
#
#
# Elastic Compliance Matrix: (Units=1/GPa)
#
#
# Indices 1 2 3 4 5 6 
#
# 1 0.011328 -0.004392 -0.008335 0.000000 0.000000 0.000000
# 2 -0.004392 0.012751 -0.004350 0.000000 0.000000 0.000000
# 3 -0.008335 -0.004350 0.074105 0.000000 0.000000 0.000000
# 4 0.000000 0.000000 0.000000 0.034466 0.000000 0.000000
# 5 0.000000 0.000000 0.000000 0.000000 0.037565 0.000000
# 6 0.000000 0.000000 0.000000 0.000000 0.000000 0.042168
#
#
# Mechanical properties :
#
#
# Convention : Reuss Voigt Hill
#
# Bulk Modulus (GPa) = 15.61798 41.96494 28.79146
# Shear Modulus (GPa) = 18.66499 26.46163 22.56331
#
# Velocity S-wave (km/s) = 3.17908 3.78526 3.49533
# Velocity P-wave (km/s) = 4.68317 6.46738 5.64620
#
# Compressibility (1/GPa) = 0.06402878
#
# Stress axis : x y z
#
# Youngs Moduli (GPa) = 88.27542 78.42642 13.49445
#
# Poissons Ratio (x) = 0.34442 0.11248
# Poissons Ratio (y) = 0.38767 0.05870
# Poissons Ratio (z) = 0.73582 0.34118
#
# Static dielectric constant tensor:
#      x y z
#    x 1.640920 0.000000 0.000000 
#    y 0.000000 1.606230 0.000000 
#    z 0.000000 0.000000 1.627980 
# 
# From -- ./inp_files/5201.got.cif
#   From: 2010.05.17/outbox.cif.g08.bks.cpg/sg57_3_cif.got.tgz:5201.got - 2010.06.03 13:58:18.
