data_PCOD9438569
_publ_section_title
;
Structure prediction by ZEFSAII (Michael W. Deem and Ramdas Pophale) SiO2 
 PCOD9438569
Probable space group: P B C M
;
_chemical_formula_sum "Si O2"
_cell_formula_units_Z 64
_cell_length_a 26.395629
_cell_length_b 15.027040
_cell_length_c 8.735416
_cell_angle_alpha 90.000000
_cell_angle_beta 90.000000
_cell_angle_gamma 90.000000
_cell_volume 3464.886795
_symmetry_space_group_name_H-M "P B C M"
_symmetry_group_IT_number 57
_symmetry_cell_setting 'orthorhombic'
loop_
_space_group_symop_operation_xyz
x,y,z
-x,-y,1/2+z
x,1/2-y,-z
-x,1/2+y,1/2-z
-x,-y,-z
x,y,1/2-z
-x,1/2+y,z
x,1/2-y,1/2+z
loop_
_atom_site_type_symbol
_atom_site_label
_atom_site_fract_x
_atom_site_fract_y
_atom_site_fract_z
Si Si1 0.632610 0.649558 0.566027
Si Si2 0.112032 0.343937 0.067319
Si Si3 0.711366 0.005667 0.433703
Si Si4 0.892313 0.158261 0.067952
Si Si5 0.997638 0.098756 0.567311
Si Si6 0.823746 0.003021 0.932079
Si Si7 0.364910 0.850320 0.433852
Si Si8 0.556167 0.505563 0.066306
O O1 0.635328 0.750000 0.500000
O O2 0.629091 0.655225 0.750000
O O3 0.680545 0.585262 0.527224
O O4 0.585736 0.591013 0.501937
O O5 0.119131 0.350226 0.250000
O O6 0.052227 0.358344 0.036271
O O7 0.127157 0.250000 0.000000
O O8 0.145448 0.416516 0.982960
O O9 0.712246 0.012857 0.250000
O O10 0.767592 0.001925 0.499554
O O11 0.681797 0.091270 0.501044
O O12 0.891965 0.157581 0.250000
O O13 0.872996 0.250000 0.000000
O O14 0.856824 0.081965 0.002783
O O15 0.949788 0.144981 0.010229
O O16 0.989878 0.096707 0.750000
O O17 0.000000 0.000000 0.500000
O O18 0.821653 0.010734 0.750000
O O19 0.367830 0.750000 0.500000
O O20 0.361069 0.844613 0.250000
O O21 0.412842 0.914679 0.471843
O O22 0.555303 0.513441 0.250000
O O23 0.500000 0.500000 0.000000
#
# Coordination Sequence:
#
# PCOD9438569 Si02
#       8
#     8   8   8   8   8   8   8   8
#     4  10  21  38  62  89 119 158 202 248 299 354
#     4  11  24  41  62  89 120 156 196 241 292 352
#     4  10  22  41  63  87 118 154 196 247 300 355
#     4  12  25  42  63  89 121 155 197 244 295 357
#     4  11  22  38  63  90 120 157 196 238 291 352
#     4  12  25  42  64  89 120 155 196 246 301 358
#     4  10  21  38  61  89 119 157 203 248 298 353
#     4  10  21  37  58  87 126 165 205 251 297 351
#
# _framework density 18.471022000000001
#
# number of rings (size 3 to 8) (size 9 to 14) (size 15 to 20)
#    0.000    1.250    1.250    4.875    0.000    7.000 
#    0.000    5.000    0.000    0.000    0.000    0.000 
#    0.000    0.000    0.000    0.000    0.000    0.000 
#
# Total GULP energy -357680.054440 kJ/mol
# GULP energy per Si atom -5588.750851 kJ/mol
# Density = 1.842898 g / cm^3
# Si number density = 18.471022 Si / 1000 Ang^3
#
#
#
# Elastic Constant Matrix: (Units=GPa)
#
#
# Indices 1 2 3 4 5 6 
#
# 1 147.9572 77.4857 77.7747 0.0000 0.0000 0.0000
# 2 77.4857 192.6442 76.5634 0.0000 0.0000 0.0000
# 3 77.7747 76.5634 108.4866 0.0000 0.0000 0.0000
# 4 0.0000 0.0000 0.0000 34.9160 0.0000 0.0000
# 5 0.0000 0.0000 0.0000 0.0000 36.5595 0.0000
# 6 0.0000 0.0000 0.0000 0.0000 0.0000 26.1575
#
#
#
# Elastic Compliance Matrix: (Units=1/GPa)
#
#
# Indices 1 2 3 4 5 6 
#
# 1 0.011297 -0.001842 -0.006799 0.000000 0.000000 0.000000
# 2 -0.001842 0.007515 -0.003983 0.000000 0.000000 0.000000
# 3 -0.006799 -0.003983 0.016903 0.000000 0.000000 0.000000
# 4 0.000000 0.000000 0.000000 0.028640 0.000000 0.000000
# 5 0.000000 0.000000 0.000000 0.000000 0.027353 0.000000
# 6 0.000000 0.000000 0.000000 0.000000 0.000000 0.038230
#
#
# Mechanical properties :
#
#
# Convention : Reuss Voigt Hill
#
# Bulk Modulus (GPa) = 95.53866 101.41504 98.47685
# Shear Modulus (GPa) = 31.51086 34.01088 32.76087
#
# Velocity S-wave (km/s) = 4.13481 4.29570 4.21602
# Velocity P-wave (km/s) = 8.63894 8.92347 8.78236
#
# Compressibility (1/GPa) = 0.01046697
#
# Stress axis : x y z
#
# Youngs Moduli (GPa) = 88.51621 133.07214 59.16029
#
# Poissons Ratio (x) = 0.24509 0.40225
# Poissons Ratio (y) = 0.16302 0.23564
# Poissons Ratio (z) = 0.60185 0.53004
#
# Static dielectric constant tensor:
#      x y z
#    x 1.620820 0.000000 0.000000 
#    y 0.000000 1.605090 0.000000 
#    z 0.000000 0.000000 1.614420 
# 
# From -- ./inp_files/9421.got.cif
#   From: 2010.05.17/outbox.cif.g08.bks.cpg/sg57_5_cif.got.tgz:9421.got - 2010.06.03 13:58:18.
