data_PCOD9439290
_publ_section_title
;
Structure prediction by ZEFSAII (Michael W. Deem and Ramdas Pophale) SiO2 
 PCOD9439290
Probable space group: P B C M
;
_chemical_formula_sum "Si O2"
_cell_formula_units_Z 56
_cell_length_a 13.094831
_cell_length_b 10.076157
_cell_length_c 17.881903
_cell_angle_alpha 90.000000
_cell_angle_beta 90.000000
_cell_angle_gamma 90.000000
_cell_volume 2359.437938
_symmetry_space_group_name_H-M "P B C M"
_symmetry_group_IT_number 57
_symmetry_cell_setting 'orthorhombic'
loop_
_space_group_symop_operation_xyz
x,y,z
-x,-y,1/2+z
x,1/2-y,-z
-x,1/2+y,1/2-z
-x,-y,-z
x,y,1/2-z
-x,1/2+y,z
x,1/2-y,1/2+z
loop_
_atom_site_type_symbol
_atom_site_label
_atom_site_fract_x
_atom_site_fract_y
_atom_site_fract_z
Si Si1 0.310545 0.592510 0.889293
Si Si2 0.014724 0.483881 0.337885
Si Si3 0.882996 0.261643 0.659194
Si Si4 0.408127 0.924265 0.542922
Si Si5 0.193056 0.348821 0.662826
Si Si6 0.703665 0.593538 0.834492
Si Si7 0.510770 0.237927 0.829950
O O1 0.224415 0.695361 0.861826
O O2 0.267919 0.444309 0.882367
O O3 0.411199 0.614782 0.839319
O O4 0.339080 0.619687 0.974111
O O5 0.036345 0.458526 0.250000
O O6 0.969223 0.345013 0.368298
O O7 0.917371 0.584271 0.342352
O O8 0.101440 0.585960 0.367023
O O9 0.889631 0.263186 0.750000
O O10 0.465427 0.823101 0.597487
O O11 0.500000 0.000000 0.500000
O O12 0.332489 0.998523 0.600043
O O13 0.222330 0.359622 0.750000
O O14 0.204130 0.193489 0.644875
O O15 0.719563 0.538112 0.750000
O O16 0.604275 0.688947 0.829506
O O17 0.532765 0.305182 0.750000
#
# Coordination Sequence:
#
# PCOD9439290 Si02
#       7
#     8   8   8   8   8   8   8
#     4  11  21  35  60  87 122 157 198 244 301 368
#     4   8  15  30  55  84 120 152 198 253 302 358
#     4   9  17  33  57  91 122 160 205 255 311 369
#     4  12  24  39  57  84 122 160 201 242 306 365
#     4   9  18  35  58  86 116 156 202 246 293 354
#     4  10  22  38  59  84 115 154 202 250 293 348
#     4  11  23  39  59  85 118 156 202 253 298 354
#
# _framework density 23.734465
#
# number of rings (size 3 to 8) (size 9 to 14) (size 15 to 20)
#    0.000    2.000    1.429    3.857    0.000    1.714 
#    2.571    0.000    0.000    0.857    3.714    0.000 
#    0.000    0.000    0.000    0.571    0.000    0.000 
#
# Total GULP energy -312824.152209 kJ/mol
# GULP energy per Si atom -5586.145575 kJ/mol
# Density = 2.368044 g / cm^3
# Si number density = 23.734465 Si / 1000 Ang^3
#
#
#
# Elastic Constant Matrix: (Units=GPa)
#
#
# Indices 1 2 3 4 5 6 
#
# 1 70.3003 2.5280 16.4644 0.0000 0.0000 0.0000
# 2 2.5280 80.8860 21.9181 0.0000 0.0000 0.0000
# 3 16.4644 21.9181 89.8874 0.0000 0.0000 0.0000
# 4 0.0000 0.0000 0.0000 30.2515 0.0000 0.0000
# 5 0.0000 0.0000 0.0000 0.0000 -2.3283 0.0000
# 6 0.0000 0.0000 0.0000 0.0000 0.0000 43.3161
#
#
#
# Elastic Compliance Matrix: (Units=1/GPa)
#
#
# Indices 1 2 3 4 5 6 
#
# 1 0.014869 0.000293 -0.002795 0.000000 0.000000 0.000000
# 2 0.000293 0.013244 -0.003283 0.000000 0.000000 0.000000
# 3 -0.002795 -0.003283 0.012437 0.000000 0.000000 0.000000
# 4 0.000000 0.000000 0.000000 0.033056 0.000000 0.000000
# 5 0.000000 0.000000 0.000000 0.000000 -0.429493 0.000000
# 6 0.000000 0.000000 0.000000 0.000000 0.000000 0.023086
#
#
# Mechanical properties :
#
#
# Convention : Reuss Voigt Hill
#
# Bulk Modulus (GPa) = 34.50714 35.87720 35.19217
# Shear Modulus (GPa) = -16.04772 27.59208 5.77218
#
# Velocity S-wave (km/s) = -2.60308 3.41329 1.56117
# Velocity P-wave (km/s) = 2.35280 5.53922 4.25551
#
# Compressibility (1/GPa) = 0.02897951
#
# Stress axis : x y z
#
# Youngs Moduli (GPa) = 67.25532 75.50859 80.40238
#
# Poissons Ratio (x) = -0.02210 0.22471
# Poissons Ratio (y) = -0.01968 0.26395
# Poissons Ratio (z) = 0.18797 0.24789
#
# Static dielectric constant tensor:
#      x y z
#    x 1.996770 0.000000 0.000000 
#    y 0.000000 2.019160 0.000000 
#    z 0.000000 0.000000 1.813750 
# 
# From -- ./inp_files/18554.got.cif
#   From: 2010.05.17/outbox.cif.g08.bks.cpg/sg57_10_cif.got.tgz:18554.got - 2010.06.03 13:58:18.
