data_PCOD9439731
_publ_section_title
;
Structure prediction by ZEFSAII (Michael W. Deem and Ramdas Pophale) SiO2 
 PCOD9439731
Probable space group: P B C M
;
_chemical_formula_sum "Si O2"
_cell_formula_units_Z 32
_cell_length_a 19.012522
_cell_length_b 8.787660
_cell_length_c 9.938461
_cell_angle_alpha 90.000000
_cell_angle_beta 90.000000
_cell_angle_gamma 90.000000
_cell_volume 1660.474127
_symmetry_space_group_name_H-M "P B C M"
_symmetry_group_IT_number 57
_symmetry_cell_setting 'orthorhombic'
loop_
_space_group_symop_operation_xyz
x,y,z
-x,-y,1/2+z
x,1/2-y,-z
-x,1/2+y,1/2-z
-x,-y,-z
x,y,1/2-z
-x,1/2+y,z
x,1/2-y,1/2+z
loop_
_atom_site_type_symbol
_atom_site_label
_atom_site_fract_x
_atom_site_fract_y
_atom_site_fract_z
Si Si1 0.809383 0.389750 0.902074
Si Si2 0.652185 0.068044 0.016766
Si Si3 0.559697 0.923965 0.250000
Si Si4 0.406724 0.066080 0.250000
Si Si5 0.054505 0.401379 0.088933
O O1 0.806563 0.330078 0.750000
O O2 0.870964 0.512148 0.910868
O O3 0.824576 0.250000 0.000000
O O4 0.732364 0.454059 0.936201
O O5 0.637734 0.981243 0.879189
O O6 0.641920 0.250000 0.000000
O O7 0.597431 0.000582 0.122722
O O8 0.477934 0.966334 0.250000
O O9 0.572408 0.743217 0.250000
O O10 0.034983 0.380228 0.250000
O O11 0.061120 0.250000 0.000000
O O12 0.000000 0.500000 0.000000
#
# Coordination Sequence:
#
# PCOD9439731 Si02
#       5
#     8   8   4   4   8
#     4  10  23  42  67  95 129 169 213 262 320 387
#     4  11  23  43  65  94 128 168 216 266 327 389
#     4  12  24  44  64  92 131 162 219 266 328 396
#     4  12  26  40  66  94 123 174 209 274 328 390
#     4  11  24  43  66  99 135 176 221 272 326 388
#
# _framework density 19.271605000000001
#
# number of rings (size 3 to 8) (size 9 to 14) (size 15 to 20)
#    0.000    1.000    1.250    5.250    5.250    6.000 
#    0.000    0.000    0.000    0.000    0.000    0.000 
#    0.000    0.000    0.000    0.000    0.000    0.000 
#
# Total GULP energy -178846.413797 kJ/mol
# GULP energy per Si atom -5588.950431 kJ/mol
# Density = 1.922774 g / cm^3
# Si number density = 19.271605 Si / 1000 Ang^3
#
#
#
# Elastic Constant Matrix: (Units=GPa)
#
#
# Indices 1 2 3 4 5 6 
#
# 1 72.3413 45.7373 55.4583 0.0000 0.0000 0.0000
# 2 45.7373 95.0987 54.5957 0.0000 0.0000 0.0000
# 3 55.4583 54.5957 196.3281 0.0000 0.0000 0.0000
# 4 0.0000 0.0000 0.0000 42.5672 0.0000 0.0000
# 5 0.0000 0.0000 0.0000 0.0000 89.3718 0.0000
# 6 0.0000 0.0000 0.0000 0.0000 0.0000 8.6794
#
#
#
# Elastic Compliance Matrix: (Units=1/GPa)
#
#
# Indices 1 2 3 4 5 6 
#
# 1 0.022136 -0.008397 -0.003918 0.000000 0.000000 0.000000
# 2 -0.008397 0.015698 -0.001994 0.000000 0.000000 0.000000
# 3 -0.003918 -0.001994 0.006755 0.000000 0.000000 0.000000
# 4 0.000000 0.000000 0.000000 0.023492 0.000000 0.000000
# 5 0.000000 0.000000 0.000000 0.000000 0.011189 0.000000
# 6 0.000000 0.000000 0.000000 0.000000 0.000000 0.115216
#
#
# Mechanical properties :
#
#
# Convention : Reuss Voigt Hill
#
# Bulk Modulus (GPa) = 62.60886 75.03895 68.82391
# Shear Modulus (GPa) = 21.88892 41.98880 31.93886
#
# Velocity S-wave (km/s) = 3.37384 4.67282 4.07541
# Velocity P-wave (km/s) = 6.90907 8.25444 7.61153
#
# Compressibility (1/GPa) = 0.01597218
#
# Stress axis : x y z
#
# Youngs Moduli (GPa) = 45.17592 63.70119 148.04786
#
# Poissons Ratio (x) = 0.53489 0.58002
# Poissons Ratio (y) = 0.37934 0.29514
# Poissons Ratio (z) = 0.17699 0.12699
#
# Static dielectric constant tensor:
#      x y z
#    x 1.648790 0.000000 0.000000 
#    y 0.000000 1.654990 0.000000 
#    z 0.000000 0.000000 1.368330 
# 
# From -- ./inp_files/7556.got.cif
#   From: 2010.05.17/outbox.cif.g08.bks.cpg/sg57_4_cif.got.tgz:7556.got - 2010.06.03 13:58:18.
