data_PCOD9439347
_publ_section_title
;
Structure prediction by ZEFSAII (Michael W. Deem and Ramdas Pophale) SiO2 
 PCOD9439347
Probable space group: P B C M
;
_chemical_formula_sum "Si O2"
_cell_formula_units_Z 56
_cell_length_a 15.746273
_cell_length_b 20.061238
_cell_length_c 8.166484
_cell_angle_alpha 90.000000
_cell_angle_beta 90.000000
_cell_angle_gamma 90.000000
_cell_volume 2579.708428
_symmetry_space_group_name_H-M "P B C M"
_symmetry_group_IT_number 57
_symmetry_cell_setting 'orthorhombic'
loop_
_space_group_symop_operation_xyz
x,y,z
-x,-y,1/2+z
x,1/2-y,-z
-x,1/2+y,1/2-z
-x,-y,-z
x,y,1/2-z
-x,1/2+y,z
x,1/2-y,1/2+z
loop_
_atom_site_type_symbol
_atom_site_label
_atom_site_fract_x
_atom_site_fract_y
_atom_site_fract_z
Si Si1 0.889933 0.934543 0.564590
Si Si2 0.423093 0.454572 0.053495
Si Si3 0.781985 0.821434 0.062435
Si Si4 0.251690 0.969731 0.946551
Si Si5 0.404162 0.185063 0.061235
Si Si6 0.782039 0.176807 0.052803
Si Si7 0.020615 0.675283 0.052192
O O1 0.912530 0.952624 0.750000
O O2 0.817666 0.877733 0.554684
O O3 0.967997 0.890083 0.492001
O O4 0.840196 0.997194 0.487265
O O5 0.419241 0.447005 0.250000
O O6 0.331810 0.485171 0.997818
O O7 0.500000 0.500000 0.000000
O O8 0.445558 0.384898 0.969369
O O9 0.806730 0.834638 0.250000
O O10 0.811380 0.750000 0.000000
O O11 0.680925 0.819531 0.047381
O O12 0.256539 0.968939 0.750000
O O13 0.258944 0.892995 0.005066
O O14 0.380448 0.193026 0.250000
O O15 0.453213 0.250000 0.000000
O O16 0.779915 0.176294 0.250000
O O17 0.881104 0.171573 0.001395
O O18 0.749843 0.250000 0.000000
O O19 0.014805 0.673200 0.250000
O O20 0.992073 0.750000 0.000000
#
# Coordination Sequence:
#
# PCOD9439347 Si02
#       7
#     8   8   8   8   8   8   8
#     4  11  21  32  50  80 116 152 192 235 282 339
#     4  11  23  41  63  89 120 157 197 243 302 361
#     4  11  20  31  48  74 110 152 192 230 273 329
#     4  10  22  39  60  84 114 150 191 239 296 357
#     4  11  21  36  59  87 118 154 193 237 287 350
#     4   9  19  39  62  84 111 148 193 243 293 343
#     4   9  19  34  53  80 115 154 197 240 284 338
#
# _framework density 21.707878999999998
#
# number of rings (size 3 to 8) (size 9 to 14) (size 15 to 20)
#    0.000    1.714    1.429    4.714    0.000    4.000 
#    0.000    0.714    0.000    1.714    0.000    0.000 
#    0.000    0.000    0.000    0.000    0.000    0.000 
#
# Total GULP energy -312284.282135 kJ/mol
# GULP energy per Si atom -5576.505038 kJ/mol
# Density = 2.165847 g / cm^3
# Si number density = 21.707879 Si / 1000 Ang^3
#
#
#
# Elastic Constant Matrix: (Units=GPa)
#
#
# Indices 1 2 3 4 5 6 
#
# 1 28.6393 22.5736 7.8330 0.0000 0.0000 0.0000
# 2 22.5736 161.4178 12.9453 0.0000 0.0000 0.0000
# 3 7.8330 12.9453 51.0457 0.0000 0.0000 0.0000
# 4 0.0000 0.0000 0.0000 30.8474 0.0000 0.0000
# 5 0.0000 0.0000 0.0000 0.0000 12.7074 0.0000
# 6 0.0000 0.0000 0.0000 0.0000 0.0000 -15.7415
#
#
#
# Elastic Compliance Matrix: (Units=1/GPa)
#
#
# Indices 1 2 3 4 5 6 
#
# 1 0.040392 -0.005259 -0.004865 0.000000 0.000000 0.000000
# 2 -0.005259 0.007008 -0.000970 0.000000 0.000000 0.000000
# 3 -0.004865 -0.000970 0.020583 0.000000 0.000000 0.000000
# 4 0.000000 0.000000 0.000000 0.032418 0.000000 0.000000
# 5 0.000000 0.000000 0.000000 0.000000 0.078694 0.000000
# 6 0.000000 0.000000 0.000000 0.000000 0.000000 -0.063526
#
#
# Mechanical properties :
#
#
# Convention : Reuss Voigt Hill
#
# Bulk Modulus (GPa) = 21.83580 36.42296 29.12938
# Shear Modulus (GPa) = 32.67506 18.74606 25.71056
#
# Velocity S-wave (km/s) = 3.88392 2.94183 3.44523
# Velocity P-wave (km/s) = 5.49490 5.32487 5.41055
#
# Compressibility (1/GPa) = 0.04579634
#
# Stress axis : x y z
#
# Youngs Moduli (GPa) = 24.75710 142.68766 48.58404
#
# Poissons Ratio (x) = 0.75033 0.23635
# Poissons Ratio (y) = 0.13019 0.04715
# Poissons Ratio (z) = 0.12044 0.13846
#
# Static dielectric constant tensor:
#      x y z
#    x 1.789410 0.000000 0.000000 
#    y 0.000000 3.179610 0.000000 
#    z 0.000000 0.000000 1.767740 
# 
# From -- ./inp_files/5115.got.cif
#   From: 2010.05.17/outbox.cif.g08.bks.cpg/sg57_3_cif.got.tgz:5115.got - 2010.06.03 13:58:18.
