data_PCOD9439765
_publ_section_title
;
Structure prediction by ZEFSAII (Michael W. Deem and Ramdas Pophale) SiO2 
 PCOD9439765
Probable space group: P B C M
;
_chemical_formula_sum "Si O2"
_cell_formula_units_Z 40
_cell_length_a 14.899461
_cell_length_b 8.589920
_cell_length_c 15.309961
_cell_angle_alpha 90.000000
_cell_angle_beta 90.000000
_cell_angle_gamma 90.000000
_cell_volume 1959.448084
_symmetry_space_group_name_H-M "P B C M"
_symmetry_group_IT_number 57
_symmetry_cell_setting 'orthorhombic'
loop_
_space_group_symop_operation_xyz
x,y,z
-x,-y,1/2+z
x,1/2-y,-z
-x,1/2+y,1/2-z
-x,-y,-z
x,y,1/2-z
-x,1/2+y,z
x,1/2-y,1/2+z
loop_
_atom_site_type_symbol
_atom_site_label
_atom_site_fract_x
_atom_site_fract_y
_atom_site_fract_z
Si Si1 0.909344 0.852452 0.087573
Si Si2 0.923604 0.526753 0.152016
Si Si3 0.272895 0.914736 0.146846
Si Si4 0.734282 0.458497 0.852780
Si Si5 0.399254 0.436307 0.499679
O O1 0.925061 0.712284 0.154808
O O2 0.997704 0.958015 0.093180
O O3 0.823903 0.957965 0.110969
O O4 0.897363 0.750000 0.000000
O O5 0.934988 0.463928 0.250000
O O6 0.824783 0.479214 0.121374
O O7 0.289551 0.951189 0.250000
O O8 0.265169 0.728480 0.138531
O O9 0.345263 0.990258 0.081970
O O10 0.725646 0.496214 0.750000
O O11 0.652281 0.514758 0.911780
O O12 0.399143 0.250000 0.500000
O O13 0.500000 0.500000 0.500000
#
# Coordination Sequence:
#
# PCOD9439765 Si02
#       5
#     8   8   8   8   8
#     4  12  24  38  60  93 131 174 224 273 328 391
#     4  11  22  38  59  87 125 171 217 266 322 388
#     4  10  23  43  68  96 131 172 217 268 328 394
#     4  11  23  42  67  96 130 171 216 269 330 396
#     4  12  26  45  69  96 128 166 212 270 330 393
#
# _framework density 20.413910999999999
#
# number of rings (size 3 to 8) (size 9 to 14) (size 15 to 20)
#    0.000    0.800    0.000    8.400    0.000    6.400 
#    0.000    0.000    0.000    0.000    0.000    0.000 
#    0.000    0.000    0.000    0.000    0.000    0.000 
#
# Total GULP energy -223674.855537 kJ/mol
# GULP energy per Si atom -5591.871388 kJ/mol
# Density = 2.036745 g / cm^3
# Si number density = 20.413911 Si / 1000 Ang^3
#
#
#
# Elastic Constant Matrix: (Units=GPa)
#
#
# Indices 1 2 3 4 5 6 
#
# 1 209.3027 90.0056 106.2116 0.0000 0.0000 0.0000
# 2 90.0056 136.3458 62.6049 0.0000 0.0000 0.0000
# 3 106.2116 62.6049 156.0105 0.0000 0.0000 0.0000
# 4 0.0000 0.0000 0.0000 -32.2565 0.0000 0.0000
# 5 0.0000 0.0000 0.0000 0.0000 23.7309 0.0000
# 6 0.0000 0.0000 0.0000 0.0000 0.0000 45.3789
#
#
#
# Elastic Compliance Matrix: (Units=1/GPa)
#
#
# Indices 1 2 3 4 5 6 
#
# 1 0.008561 -0.003647 -0.004365 0.000000 0.000000 0.000000
# 2 -0.003647 0.010545 -0.001748 0.000000 0.000000 0.000000
# 3 -0.004365 -0.001748 0.010083 0.000000 0.000000 0.000000
# 4 0.000000 0.000000 0.000000 -0.031001 0.000000 0.000000
# 5 0.000000 0.000000 0.000000 0.000000 0.042139 0.000000
# 6 0.000000 0.000000 0.000000 0.000000 0.000000 0.022037
#
#
# Mechanical properties :
#
#
# Convention : Reuss Voigt Hill
#
# Bulk Modulus (GPa) = 103.43505 113.25592 108.34549
# Shear Modulus (GPa) = 58.74970 23.55977 41.15474
#
# Velocity S-wave (km/s) = 5.37045 3.40090 4.49488
# Velocity P-wave (km/s) = 9.44640 8.42744 8.95143
#
# Compressibility (1/GPa) = 0.00966790
#
# Stress axis : x y z
#
# Youngs Moduli (GPa) = 116.80697 94.83369 99.17704
#
# Poissons Ratio (x) = 0.34589 0.43289
# Poissons Ratio (y) = 0.42603 0.17340
# Poissons Ratio (z) = 0.50984 0.16581
#
# Static dielectric constant tensor:
#      x y z
#    x 1.678050 0.000000 0.000000 
#    y 0.000000 1.747540 0.000000 
#    z 0.000000 0.000000 1.789820 
# 
# From -- ./inp_files/18197.got.cif
#   From: 2010.05.17/outbox.cif.g08.bks.cpg/sg57_10_cif.got.tgz:18197.got - 2010.06.03 13:58:18.
