data_PCOD9439110
_publ_section_title
;
Structure prediction by ZEFSAII (Michael W. Deem and Ramdas Pophale) SiO2 
 PCOD9439110
Probable space group: P B C M
;
_chemical_formula_sum "Si O2"
_cell_formula_units_Z 48
_cell_length_a 11.592972
_cell_length_b 9.514512
_cell_length_c 18.892566
_cell_angle_alpha 90.000000
_cell_angle_beta 90.000000
_cell_angle_gamma 90.000000
_cell_volume 2083.877825
_symmetry_space_group_name_H-M "P B C M"
_symmetry_group_IT_number 57
_symmetry_cell_setting 'orthorhombic'
loop_
_space_group_symop_operation_xyz
x,y,z
-x,-y,1/2+z
x,1/2-y,-z
-x,1/2+y,1/2-z
-x,-y,-z
x,y,1/2-z
-x,1/2+y,z
x,1/2-y,1/2+z
loop_
_atom_site_type_symbol
_atom_site_label
_atom_site_fract_x
_atom_site_fract_y
_atom_site_fract_z
Si Si1 0.728428 0.315972 0.366454
Si Si2 0.547249 0.076446 0.331018
Si Si3 0.906888 0.415547 0.664900
Si Si4 0.617176 0.527591 0.458447
Si Si5 0.821571 0.888905 0.827675
Si Si6 0.267239 0.125895 0.901192
O O1 0.627766 0.215394 0.336806
O O2 0.841883 0.220718 0.365487
O O3 0.681033 0.382191 0.438844
O O4 0.764136 0.458182 0.326702
O O5 0.509776 0.058667 0.250000
O O6 0.441775 0.086098 0.385747
O O7 0.629504 0.946135 0.355066
O O8 0.883416 0.424302 0.750000
O O9 0.846853 0.542645 0.623763
O O10 0.043500 0.408540 0.656000
O O11 0.500000 0.500000 0.500000
O O12 0.696000 0.601032 0.517991
O O13 0.811734 0.822285 0.750000
O O14 0.762722 0.785361 0.882863
#
# Coordination Sequence:
#
# PCOD9439110 Si02
#       6
#     8   8   8   8   8   8
#     4  11  23  40  65  95 129 171 219 272 331 401
#     4  10  22  41  66  95 127 168 220 278 336 398
#     4  10  21  40  66  98 135 173 216 271 332 394
#     4  10  25  44  64  90 128 173 220 271 332 396
#     4  11  22  38  65  99 133 171 218 272 331 401
#     4  10  21  40  64  94 132 174 216 267 330 402
#
# _framework density 23.03398
#
# number of rings (size 3 to 8) (size 9 to 14) (size 15 to 20)
#    0.000    1.667    0.000    5.000    0.000   15.333 
#    0.000    5.000    0.000    0.000    0.000    0.000 
#    0.000    0.000    0.000    0.000    0.000    0.000 
#
# Total GULP energy -268213.983520 kJ/mol
# GULP energy per Si atom -5587.791323 kJ/mol
# Density = 2.298155 g / cm^3
# Si number density = 23.033980 Si / 1000 Ang^3
#
#
#
# Elastic Constant Matrix: (Units=GPa)
#
#
# Indices 1 2 3 4 5 6 
#
# 1 142.4766 51.3013 76.4490 0.0000 0.0000 0.0000
# 2 51.3013 122.9819 47.3931 0.0000 0.0000 0.0000
# 3 76.4490 47.3931 155.7773 0.0000 0.0000 0.0000
# 4 0.0000 0.0000 0.0000 17.0252 0.0000 0.0000
# 5 0.0000 0.0000 0.0000 0.0000 31.5129 0.0000
# 6 0.0000 0.0000 0.0000 0.0000 0.0000 13.0081
#
#
#
# Elastic Compliance Matrix: (Units=1/GPa)
#
#
# Indices 1 2 3 4 5 6 
#
# 1 0.010234 -0.002643 -0.004218 0.000000 0.000000 0.000000
# 2 -0.002643 0.009894 -0.001713 0.000000 0.000000 0.000000
# 3 -0.004218 -0.001713 0.009011 0.000000 0.000000 0.000000
# 4 0.000000 0.000000 0.000000 0.058736 0.000000 0.000000
# 5 0.000000 0.000000 0.000000 0.000000 0.031733 0.000000
# 6 0.000000 0.000000 0.000000 0.000000 0.000000 0.076875
#
#
# Mechanical properties :
#
#
# Convention : Reuss Voigt Hill
#
# Bulk Modulus (GPa) = 83.40504 85.72474 84.56489
# Shear Modulus (GPa) = 22.97494 28.71540 25.84517
#
# Velocity S-wave (km/s) = 3.16165 3.53463 3.35333
# Velocity P-wave (km/s) = 7.04388 7.34545 7.19624
#
# Compressibility (1/GPa) = 0.01198968
#
# Stress axis : x y z
#
# Youngs Moduli (GPa) = 97.71498 101.07078 110.98046
#
# Poissons Ratio (x) = 0.26718 0.46813
# Poissons Ratio (y) = 0.25831 0.19009
# Poissons Ratio (z) = 0.41217 0.17312
#
# Static dielectric constant tensor:
#      x y z
#    x 1.827530 0.000000 0.000000 
#    y 0.000000 1.937710 0.000000 
#    z 0.000000 0.000000 1.869300 
# 
# From -- ./inp_files/27106.got.cif
#   From: 2010.05.17/outbox.cif.g08.bks.cpg/sg57_14_cif.got.tgz:27106.got - 2010.06.03 13:58:18.
