data_PCOD9439938
_publ_section_title
;
Structure prediction by ZEFSAII (Michael W. Deem and Ramdas Pophale) SiO2 
 PCOD9439938
Probable space group: P B C M
;
_chemical_formula_sum "Si O2"
_cell_formula_units_Z 48
_cell_length_a 4.979987
_cell_length_b 26.476327
_cell_length_c 14.841320
_cell_angle_alpha 90.000000
_cell_angle_beta 90.000000
_cell_angle_gamma 90.000000
_cell_volume 1956.854226
_symmetry_space_group_name_H-M "P B C M"
_symmetry_group_IT_number 57
_symmetry_cell_setting 'orthorhombic'
loop_
_space_group_symop_operation_xyz
x,y,z
-x,-y,1/2+z
x,1/2-y,-z
-x,1/2+y,1/2-z
-x,-y,-z
x,y,1/2-z
-x,1/2+y,z
x,1/2-y,1/2+z
loop_
_atom_site_type_symbol
_atom_site_label
_atom_site_fract_x
_atom_site_fract_y
_atom_site_fract_z
Si Si1 0.423609 0.420969 0.250000
Si Si2 0.962460 0.553006 0.354411
Si Si3 0.932076 0.348989 0.250000
Si Si4 0.594250 0.206991 0.151463
Si Si5 0.906151 0.764735 0.106340
Si Si6 0.648326 0.033235 0.576395
Si Si7 0.545256 0.394554 0.565696
O O1 0.637802 0.374340 0.250000
O O2 0.478247 0.456442 0.335239
O O3 0.133403 0.396295 0.250000
O O4 0.888534 0.552394 0.250000
O O5 0.912956 0.497218 0.395175
O O6 0.752770 0.586899 0.411062
O O7 0.253639 0.577150 0.365757
O O8 0.997781 0.315238 0.340102
O O9 0.522372 0.186247 0.250000
O O10 0.402600 0.254211 0.131346
O O11 0.549591 0.164737 0.077460
O O12 0.901565 0.222849 0.150628
O O13 0.936606 0.750000 0.000000
O O14 0.665436 0.087338 0.529022
O O15 0.500000 0.000000 0.500000
#
# Coordination Sequence:
#
# PCOD9439938 Si02
#       7
#     4   8   4   8   8   8   8
#     4  12  28  48  80 107 144 197 242 300 358 442
#     4  11  21  42  63  96 138 182 226 283 356 413
#     4  12  28  50  76 107 148 187 254 296 368 442
#     4  12  23  45  70 104 141 183 241 293 369 426
#     4  12  27  47  74 102 144 190 234 305 368 430
#     4  10  25  48  72 104 148 186 243 293 364 429
#     4  11  25  38  69 100 136 179 233 293 341 431
#
# _framework density 24.529163
#
# number of rings (size 3 to 8) (size 9 to 14) (size 15 to 20)
#    0.000    0.667    2.500    4.500    4.667    5.333 
#    0.000    0.000    0.000    0.000    0.000    0.000 
#    0.000    0.000    0.000    0.000    0.000    0.000 
#
# Total GULP energy -268484.838437 kJ/mol
# GULP energy per Si atom -5593.434134 kJ/mol
# Density = 2.447333 g / cm^3
# Si number density = 24.529163 Si / 1000 Ang^3
#
#
#
# Elastic Constant Matrix: (Units=GPa)
#
#
# Indices 1 2 3 4 5 6 
#
# 1 67.1390 6.5341 0.6708 0.0000 0.0000 0.0000
# 2 6.5341 65.4540 19.2068 0.0000 0.0000 0.0000
# 3 0.6708 19.2068 110.2222 0.0000 0.0000 0.0000
# 4 0.0000 0.0000 0.0000 47.3938 0.0000 0.0000
# 5 0.0000 0.0000 0.0000 0.0000 14.7418 0.0000
# 6 0.0000 0.0000 0.0000 0.0000 0.0000 40.5228
#
#
#
# Elastic Compliance Matrix: (Units=1/GPa)
#
#
# Indices 1 2 3 4 5 6 
#
# 1 0.015044 -0.001554 0.000179 0.000000 0.000000 0.000000
# 2 -0.001554 0.016262 -0.002824 0.000000 0.000000 0.000000
# 3 0.000179 -0.002824 0.009564 0.000000 0.000000 0.000000
# 4 0.000000 0.000000 0.000000 0.021100 0.000000 0.000000
# 5 0.000000 0.000000 0.000000 0.000000 0.067834 0.000000
# 6 0.000000 0.000000 0.000000 0.000000 0.000000 0.024677
#
#
# Mechanical properties :
#
#
# Convention : Reuss Voigt Hill
#
# Bulk Modulus (GPa) = 30.79699 32.84874 31.82286
# Shear Modulus (GPa) = 28.78471 34.95857 31.87164
#
# Velocity S-wave (km/s) = 3.42934 3.77926 3.60854
# Velocity P-wave (km/s) = 5.31630 5.69776 5.51033
#
# Compressibility (1/GPa) = 0.03247071
#
# Stress axis : x y z
#
# Youngs Moduli (GPa) = 66.47184 61.49370 104.56273
#
# Poissons Ratio (x) = 0.09559 -0.01875
# Poissons Ratio (y) = 0.10332 0.29531
# Poissons Ratio (z) = -0.01192 0.17367
#
# Static dielectric constant tensor:
#      x y z
#    x 1.880650 0.000000 0.000000 
#    y 0.000000 1.980850 0.000000 
#    z 0.000000 0.000000 2.023020 
# 
# From -- ./inp_files/15148.got.cif
#   From: 2010.05.17/outbox.cif.g08.bks.cpg/sg57_8_cif.got.tgz:15148.got - 2010.06.03 13:58:18.
