data_PCOD9439934
_publ_section_title
;
Structure prediction by ZEFSAII (Michael W. Deem and Ramdas Pophale) SiO2 
 PCOD9439934
Probable space group: P B C M
;
_chemical_formula_sum "Si O2"
_cell_formula_units_Z 32
_cell_length_a 11.601020
_cell_length_b 8.436838
_cell_length_c 14.407430
_cell_angle_alpha 90.000000
_cell_angle_beta 90.000000
_cell_angle_gamma 90.000000
_cell_volume 1410.140558
_symmetry_space_group_name_H-M "P B C M"
_symmetry_group_IT_number 57
_symmetry_cell_setting 'orthorhombic'
loop_
_space_group_symop_operation_xyz
x,y,z
-x,-y,1/2+z
x,1/2-y,-z
-x,1/2+y,1/2-z
-x,-y,-z
x,y,1/2-z
-x,1/2+y,z
x,1/2-y,1/2+z
loop_
_atom_site_type_symbol
_atom_site_label
_atom_site_fract_x
_atom_site_fract_y
_atom_site_fract_z
Si Si1 0.240986 0.391627 0.926993
Si Si2 0.326713 0.595093 0.079817
Si Si3 0.537927 0.715576 0.639938
Si Si4 0.156503 0.855957 0.750000
Si Si5 0.903504 0.984642 0.750000
O O1 0.364349 0.345931 0.882266
O O2 0.152583 0.409703 0.842776
O O3 0.210988 0.250000 0.000000
O O4 0.257405 0.551713 0.986603
O O5 0.408635 0.442571 0.097258
O O6 0.417142 0.736174 0.095714
O O7 0.233686 0.604093 0.161183
O O8 0.523673 0.698533 0.750000
O O9 0.126063 0.670346 0.750000
O O10 0.039211 0.954702 0.750000
#
# Coordination Sequence:
#
# PCOD9439934 Si02
#       5
#     8   8   8   4   4
#     4  10  25  46  79 109 153 197 249 306 375 454
#     4  11  25  45  73 116 149 195 245 305 376 459
#     4  11  20  40  74 105 154 190 234 300 376 447
#     4  12  30  49  79 104 148 203 266 306 370 447
#     4  12  30  53  77 104 150 203 258 322 366 425
#
# _framework density 22.692775000000001
#
# number of rings (size 3 to 8) (size 9 to 14) (size 15 to 20)
#    0.000    1.000    3.750    0.750   10.500    2.000 
#    0.000    0.000    0.000    0.000    0.000    0.000 
#    0.000    0.000    0.000    0.000    0.000    0.000 
#
# Total GULP energy -179278.203090 kJ/mol
# GULP energy per Si atom -5602.443847 kJ/mol
# Density = 2.264113 g / cm^3
# Si number density = 22.692775 Si / 1000 Ang^3
#
#
#
# Elastic Constant Matrix: (Units=GPa)
#
#
# Indices 1 2 3 4 5 6 
#
# 1 163.8864 40.3685 52.4684 0.0000 0.0000 0.0000
# 2 40.3685 61.1831 13.5324 0.0000 0.0000 0.0000
# 3 52.4684 13.5324 140.2749 0.0000 0.0000 0.0000
# 4 0.0000 0.0000 0.0000 32.0798 0.0000 0.0000
# 5 0.0000 0.0000 0.0000 0.0000 -159.1174 0.0000
# 6 0.0000 0.0000 0.0000 0.0000 0.0000 37.4879
#
#
#
# Elastic Compliance Matrix: (Units=1/GPa)
#
#
# Indices 1 2 3 4 5 6 
#
# 1 0.008101 -0.004777 -0.002569 0.000000 0.000000 0.000000
# 2 -0.004777 0.019517 -0.000096 0.000000 0.000000 0.000000
# 3 -0.002569 -0.000096 0.008099 0.000000 0.000000 0.000000
# 4 0.000000 0.000000 0.000000 0.031172 0.000000 0.000000
# 5 0.000000 0.000000 0.000000 0.000000 -0.006285 0.000000
# 6 0.000000 0.000000 0.000000 0.000000 0.000000 0.026675
#
#
# Mechanical properties :
#
#
# Convention : Reuss Voigt Hill
#
# Bulk Modulus (GPa) = 48.00053 64.23145 56.11599
# Shear Modulus (GPa) = 45.82577 -0.64494 22.59042
#
# Velocity S-wave (km/s) = 4.49865 -0.53369 3.15856
# Velocity P-wave (km/s) = 6.94133 5.29023 6.17124
#
# Compressibility (1/GPa) = 0.02083310
#
# Stress axis : x y z
#
# Youngs Moduli (GPa) = 123.44254 51.23659 123.46990
#
# Poissons Ratio (x) = 0.24474 0.31723
# Poissons Ratio (y) = 0.58965 0.01187
# Poissons Ratio (z) = 0.31716 0.00493
#
# Static dielectric constant tensor:
#      x y z
#    x 1.769230 0.000000 0.000000 
#    y 0.000000 1.708230 0.000000 
#    z 0.000000 0.000000 1.844460 
# 
# From -- ./inp_files/17201.got.cif
#   From: 2010.05.17/outbox.cif.g08.bks.cpg/sg57_9_cif.got.tgz:17201.got - 2010.06.03 13:58:18.
