data_PCOD9439278
_publ_section_title
;
Structure prediction by ZEFSAII (Michael W. Deem and Ramdas Pophale) SiO2 
 PCOD9439278
Probable space group: P B C M
;
_chemical_formula_sum "Si O2"
_cell_formula_units_Z 60
_cell_length_a 17.225286
_cell_length_b 8.662370
_cell_length_c 19.671045
_cell_angle_alpha 90.000000
_cell_angle_beta 90.000000
_cell_angle_gamma 90.000000
_cell_volume 2935.152046
_symmetry_space_group_name_H-M "P B C M"
_symmetry_group_IT_number 57
_symmetry_cell_setting 'orthorhombic'
loop_
_space_group_symop_operation_xyz
x,y,z
-x,-y,1/2+z
x,1/2-y,-z
-x,1/2+y,1/2-z
-x,-y,-z
x,y,1/2-z
-x,1/2+y,z
x,1/2-y,1/2+z
loop_
_atom_site_type_symbol
_atom_site_label
_atom_site_fract_x
_atom_site_fract_y
_atom_site_fract_z
Si Si1 0.186820 0.320155 0.929017
Si Si2 0.118437 0.656607 0.569645
Si Si3 0.604925 0.352804 0.332731
Si Si4 0.703000 0.658834 0.830599
Si Si5 0.966395 0.408757 0.750000
Si Si6 0.763910 0.315272 0.831303
Si Si7 0.040725 0.333033 0.358404
Si Si8 0.548009 0.688004 0.332182
O O1 0.164851 0.497565 0.937562
O O2 0.250029 0.287274 0.871370
O O3 0.110329 0.229528 0.903833
O O4 0.214212 0.250000 0.000000
O O5 0.116350 0.750000 0.500000
O O6 0.163076 0.756768 0.626562
O O7 0.031994 0.619656 0.595029
O O8 0.603436 0.353852 0.250000
O O9 0.690401 0.292976 0.349569
O O10 0.581148 0.523863 0.356132
O O11 0.537087 0.236590 0.356227
O O12 0.712068 0.684322 0.750000
O O13 0.736755 0.489809 0.845883
O O14 0.611968 0.680304 0.846447
O O15 0.934746 0.527277 0.809658
O O16 0.007938 0.299866 0.691239
O O17 0.781200 0.302831 0.750000
O O18 0.542687 0.676419 0.250000
#
# Coordination Sequence:
#
# PCOD9439278 Si02
#       8
#     8   8   8   8   4   8   8   8
#     4  12  27  43  62  86 120 161 203 248 299 357
#     4  12  27  43  62  86 120 161 203 248 299 357
#     4   9  16  29  51  82 120 156 195 243 298 355
#     4  10  22  37  60  89 120 157 200 250 302 356
#     4  10  24  42  66 102 120 150 192 258 296 354
#     4  10  22  37  60  89 120 157 200 250 302 356
#     4  11  25  42  68  92 126 156 198 244 304 356
#     4   9  16  29  51  82 120 156 195 243 298 355
#
# _framework density 20.441870999999999
#
# number of rings (size 3 to 8) (size 9 to 14) (size 15 to 20)
#    0.000    1.600    1.333    2.800    7.467    5.867 
#    0.000    0.000    0.000    0.800    0.000    5.600 
#    0.000    0.000    0.000    0.000    0.000    0.000 
#
# Total GULP energy -334333.274279 kJ/mol
# GULP energy per Si atom -5572.221238 kJ/mol
# Density = 2.039534 g / cm^3
# Si number density = 20.441871 Si / 1000 Ang^3
#
#
#
# Elastic Constant Matrix: (Units=GPa)
#
#
# Indices 1 2 3 4 5 6 
#
# 1 73.0384 -0.5240 22.6815 0.0000 0.0000 0.0000
# 2 -0.5240 61.4954 16.1119 0.0000 0.0000 0.0000
# 3 22.6815 16.1119 26.2664 0.0000 0.0000 0.0000
# 4 0.0000 0.0000 0.0000 15.0222 0.0000 0.0000
# 5 0.0000 0.0000 0.0000 0.0000 -0.4616 0.0000
# 6 0.0000 0.0000 0.0000 0.0000 0.0000 30.0429
#
#
#
# Elastic Compliance Matrix: (Units=1/GPa)
#
#
# Indices 1 2 3 4 5 6 
#
# 1 0.020237 0.005661 -0.020947 0.000000 0.000000 0.000000
# 2 0.005661 0.020959 -0.017744 0.000000 0.000000 0.000000
# 3 -0.020947 -0.017744 0.067044 0.000000 0.000000 0.000000
# 4 0.000000 0.000000 0.000000 0.066568 0.000000 0.000000
# 5 0.000000 0.000000 0.000000 0.000000 -2.166533 0.000000
# 6 0.000000 0.000000 0.000000 0.000000 0.000000 0.033286
#
#
# Mechanical properties :
#
#
# Convention : Reuss Voigt Hill
#
# Bulk Modulus (GPa) = 23.70894 26.37099 25.03996
# Shear Modulus (GPa) = -2.66195 17.08943 7.21374
#
# Velocity S-wave (km/s) = -1.14238 2.89451 1.88058
# Velocity P-wave (km/s) = 3.14378 4.90911 4.12206
#
# Compressibility (1/GPa) = 0.04217818
#
# Stress axis : x y z
#
# Youngs Moduli (GPa) = 49.41427 47.71309 14.91557
#
# Poissons Ratio (x) = -0.27009 0.31244
# Poissons Ratio (y) = -0.27972 0.26466
# Poissons Ratio (z) = 1.03510 0.84663
#
# Static dielectric constant tensor:
#      x y z
#    x 1.741130 0.000000 0.000000 
#    y 0.000000 1.738890 0.000000 
#    z 0.000000 0.000000 1.685600 
# 
# From -- ./inp_files/22881.got.cif
#   From: 2010.05.17/outbox.cif.g08.bks.cpg/sg57_12_cif.got.tgz:22881.got - 2010.06.03 13:58:18.
