data_PCOD9439712
_publ_section_title
;
Structure prediction by ZEFSAII (Michael W. Deem and Ramdas Pophale) SiO2 
 PCOD9439712
Probable space group: P B C M
;
_chemical_formula_sum "Si O2"
_cell_formula_units_Z 64
_cell_length_a 24.163005
_cell_length_b 8.115399
_cell_length_c 15.203512
_cell_angle_alpha 90.000000
_cell_angle_beta 90.000000
_cell_angle_gamma 90.000000
_cell_volume 2981.293561
_symmetry_space_group_name_H-M "P B C M"
_symmetry_group_IT_number 57
_symmetry_cell_setting 'orthorhombic'
loop_
_space_group_symop_operation_xyz
x,y,z
-x,-y,1/2+z
x,1/2-y,-z
-x,1/2+y,1/2-z
-x,-y,-z
x,y,1/2-z
-x,1/2+y,z
x,1/2-y,1/2+z
loop_
_atom_site_type_symbol
_atom_site_label
_atom_site_fract_x
_atom_site_fract_y
_atom_site_fract_z
Si Si1 0.937797 0.044844 0.653114
Si Si2 0.638440 0.448710 0.515976
Si Si3 0.858301 0.556417 0.853058
Si Si4 0.178966 0.067011 0.148823
Si Si5 0.761792 0.444571 0.519023
Si Si6 0.546670 0.380949 0.850492
Si Si7 0.963041 0.367202 0.582781
Si Si8 0.574606 0.990979 0.850645
O O1 0.941309 0.966984 0.750000
O O2 0.873224 0.051760 0.630533
O O3 0.976266 0.945124 0.586204
O O4 0.960354 0.228563 0.657377
O O5 0.639981 0.250000 0.500000
O O6 0.699773 0.495760 0.546203
O O7 0.589625 0.472638 0.586332
O O8 0.621032 0.533009 0.424318
O O9 0.858409 0.508682 0.750000
O O10 0.847693 0.751744 0.857886
O O11 0.915709 0.499835 0.897192
O O12 0.807567 0.479750 0.907397
O O13 0.198376 0.043035 0.250000
O O14 0.222392 0.035967 0.071954
O O15 0.762085 0.250000 0.500000
O O16 0.551361 0.441833 0.750000
O O17 0.561193 0.187170 0.851181
O O18 0.482897 0.404198 0.876595
O O19 0.951439 0.250000 0.500000
O O20 0.589214 0.945313 0.750000
#
# Coordination Sequence:
#
# PCOD9439712 Si02
#       8
#     8   8   8   8   8   8   8   8
#     4  11  22  38  59  85 116 150 188 233 289 354
#     4   9  19  34  53  78 108 144 185 229 279 335
#     4  11  23  41  62  84 115 156 197 242 296 354
#     4  10  23  42  63  85 116 157 197 241 296 353
#     4  11  23  39  60  86 114 149 199 250 292 343
#     4   9  17  31  52  78 110 143 179 222 272 330
#     4  12  24  38  60  91 121 152 192 240 294 351
#     4   9  17  31  52  79 109 143 180 223 274 332
#
# _framework density 21.467192000000001
#
# number of rings (size 3 to 8) (size 9 to 14) (size 15 to 20)
#    0.000    1.750    0.000    4.875    0.000    4.500 
#    0.000    5.000    0.000    3.000    0.000    0.000 
#    0.000    0.000    0.000    0.000    0.000    0.000 
#
# Total GULP energy -357537.080984 kJ/mol
# GULP energy per Si atom -5586.516890 kJ/mol
# Density = 2.141833 g / cm^3
# Si number density = 21.467192 Si / 1000 Ang^3
#
#
#
# Elastic Constant Matrix: (Units=GPa)
#
#
# Indices 1 2 3 4 5 6 
#
# 1 67.0661 -5.8807 22.9091 0.0000 0.0000 0.0000
# 2 -5.8807 31.1244 2.5843 0.0000 0.0000 0.0000
# 3 22.9091 2.5843 83.0356 0.0000 0.0000 0.0000
# 4 0.0000 0.0000 0.0000 25.0927 0.0000 0.0000
# 5 0.0000 0.0000 0.0000 0.0000 14.6084 0.0000
# 6 0.0000 0.0000 0.0000 0.0000 0.0000 21.0295
#
#
#
# Elastic Compliance Matrix: (Units=1/GPa)
#
#
# Indices 1 2 3 4 5 6 
#
# 1 0.016851 0.003579 -0.004760 0.000000 0.000000 0.000000
# 2 0.003579 0.032973 -0.002014 0.000000 0.000000 0.000000
# 3 -0.004760 -0.002014 0.013419 0.000000 0.000000 0.000000
# 4 0.000000 0.000000 0.000000 0.039852 0.000000 0.000000
# 5 0.000000 0.000000 0.000000 0.000000 0.068454 0.000000
# 6 0.000000 0.000000 0.000000 0.000000 0.000000 0.047552
#
#
# Mechanical properties :
#
#
# Convention : Reuss Voigt Hill
#
# Bulk Modulus (GPa) = 17.58944 24.49459 21.04202
# Shear Modulus (GPa) = 20.45483 22.92035 21.68759
#
# Velocity S-wave (km/s) = 3.09016 3.27110 3.18192
# Velocity P-wave (km/s) = 4.57641 5.06970 4.82936
#
# Compressibility (1/GPa) = 0.05685228
#
# Stress axis : x y z
#
# Youngs Moduli (GPa) = 59.34508 30.32826 74.52087
#
# Poissons Ratio (x) = -0.10855 0.35475
# Poissons Ratio (y) = -0.21240 0.15006
# Poissons Ratio (z) = 0.28250 0.06107
#
# Static dielectric constant tensor:
#      x y z
#    x 1.747660 0.000000 0.000000 
#    y 0.000000 1.817670 0.000000 
#    z 0.000000 0.000000 1.840840 
# 
# From -- ./inp_files/19512.got.cif
#   From: 2010.05.17/outbox.cif.g08.bks.cpg/sg57_10_cif.got.tgz:19512.got - 2010.06.03 13:58:18.
