data_PCOD9439412
_publ_section_title
;
Structure prediction by ZEFSAII (Michael W. Deem and Ramdas Pophale) SiO2 
 PCOD9439412
Probable space group: P B C M
;
_chemical_formula_sum "Si O2"
_cell_formula_units_Z 32
_cell_length_a 12.648924
_cell_length_b 5.293481
_cell_length_c 18.533692
_cell_angle_alpha 90.000000
_cell_angle_beta 90.000000
_cell_angle_gamma 90.000000
_cell_volume 1240.957429
_symmetry_space_group_name_H-M "P B C M"
_symmetry_group_IT_number 57
_symmetry_cell_setting 'orthorhombic'
loop_
_space_group_symop_operation_xyz
x,y,z
-x,-y,1/2+z
x,1/2-y,-z
-x,1/2+y,1/2-z
-x,-y,-z
x,y,1/2-z
-x,1/2+y,z
x,1/2-y,1/2+z
loop_
_atom_site_type_symbol
_atom_site_label
_atom_site_fract_x
_atom_site_fract_y
_atom_site_fract_z
Si Si1 0.760182 0.229982 0.330729
Si Si2 0.728865 0.003126 0.525426
Si Si3 0.550174 0.907247 0.336538
Si Si4 0.929582 0.004194 0.415291
O O1 0.751057 0.331782 0.250000
O O2 0.758673 0.448483 0.391577
O O3 0.663419 0.038450 0.344495
O O4 0.864980 0.064152 0.342638
O O5 0.667011 0.250000 0.500000
O O6 0.836018 0.006002 0.475342
O O7 0.674425 0.750000 0.500000
O O8 0.533125 0.880478 0.250000
O O9 0.469497 0.123974 0.364370
O O10 0.008237 0.242823 0.420408
#
# Coordination Sequence:
#
# PCOD9439412 Si02
#       4
#     8   8   8   8
#     4  10  23  41  65  97 128 160 211 275 319 360
#     4  10  22  40  63  87 122 170 217 251 304 381
#     4   9  19  37  61  88 120 160 203 251 318 389
#     4  11  24  42  63  87 123 173 213 243 300 381
#
# _framework density 25.786543000000002
#
# number of rings (size 3 to 8) (size 9 to 14) (size 15 to 20)
#    0.000    2.000    0.000    3.000    0.000   20.000 
#    0.000   17.500    0.000   19.500    0.000    0.000 
#    0.000    0.000    0.000    0.000    0.000    0.000 
#
# Total GULP energy -179009.363994 kJ/mol
# GULP energy per Si atom -5594.042625 kJ/mol
# Density = 2.572785 g / cm^3
# Si number density = 25.786543 Si / 1000 Ang^3
#
#
#
# Elastic Constant Matrix: (Units=GPa)
#
#
# Indices 1 2 3 4 5 6 
#
# 1 79.4999 4.2372 0.8895 0.0000 0.0000 0.0000
# 2 4.2372 168.6071 13.7716 0.0000 0.0000 0.0000
# 3 0.8895 13.7716 142.2854 0.0000 0.0000 0.0000
# 4 0.0000 0.0000 0.0000 23.2079 0.0000 0.0000
# 5 0.0000 0.0000 0.0000 0.0000 32.0162 0.0000
# 6 0.0000 0.0000 0.0000 0.0000 0.0000 25.4937
#
#
#
# Elastic Compliance Matrix: (Units=1/GPa)
#
#
# Indices 1 2 3 4 5 6 
#
# 1 0.012596 -0.000313 -0.000048 0.000000 0.000000 0.000000
# 2 -0.000313 0.005986 -0.000577 0.000000 0.000000 0.000000
# 3 -0.000048 -0.000577 0.007084 0.000000 0.000000 0.000000
# 4 0.000000 0.000000 0.000000 0.043089 0.000000 0.000000
# 5 0.000000 0.000000 0.000000 0.000000 0.031234 0.000000
# 6 0.000000 0.000000 0.000000 0.000000 0.000000 0.039225
#
#
# Mechanical properties :
#
#
# Convention : Reuss Voigt Hill
#
# Bulk Modulus (GPa) = 42.03597 47.57655 44.80626
# Shear Modulus (GPa) = 33.55226 40.90982 37.23104
#
# Velocity S-wave (km/s) = 3.61106 3.98738 3.80388
# Velocity P-wave (km/s) = 5.80718 6.29994 6.05857
#
# Compressibility (1/GPa) = 0.02378915
#
# Stress axis : x y z
#
# Youngs Moduli (GPa) = 79.39128 167.05743 141.15680
#
# Poissons Ratio (x) = 0.05222 0.00684
# Poissons Ratio (y) = 0.02482 0.08151
# Poissons Ratio (z) = 0.00385 0.09646
#
# Static dielectric constant tensor:
#      x y z
#    x 2.074840 0.000000 0.000000 
#    y 0.000000 2.147570 0.000000 
#    z 0.000000 0.000000 2.085630 
# 
# From -- ./inp_files/24787.got.cif
#   From: 2010.05.17/outbox.cif.g08.bks.cpg/sg57_13_cif.got.tgz:24787.got - 2010.06.03 13:58:18.
