data_PCOD9439839
_publ_section_title
;
Structure prediction by ZEFSAII (Michael W. Deem and Ramdas Pophale) SiO2 
 PCOD9439839
Probable space group: P B C M
;
_chemical_formula_sum "Si O2"
_cell_formula_units_Z 32
_cell_length_a 5.276252
_cell_length_b 9.513360
_cell_length_c 28.097051
_cell_angle_alpha 90.000000
_cell_angle_beta 90.000000
_cell_angle_gamma 90.000000
_cell_volume 1410.328236
_symmetry_space_group_name_H-M "P B C M"
_symmetry_group_IT_number 57
_symmetry_cell_setting 'orthorhombic'
loop_
_space_group_symop_operation_xyz
x,y,z
-x,-y,1/2+z
x,1/2-y,-z
-x,1/2+y,1/2-z
-x,-y,-z
x,y,1/2-z
-x,1/2+y,z
x,1/2-y,1/2+z
loop_
_atom_site_type_symbol
_atom_site_label
_atom_site_fract_x
_atom_site_fract_y
_atom_site_fract_z
Si Si1 0.133809 0.792274 0.111975
Si Si2 0.705893 0.454584 0.306105
Si Si3 0.799364 0.011507 0.358412
Si Si4 0.251802 0.585348 0.516003
O O1 0.257749 0.811521 0.163986
O O2 0.172325 0.629998 0.101405
O O3 0.254712 0.895444 0.073422
O O4 0.852888 0.856791 0.119257
O O5 0.693373 0.439790 0.250000
O O6 0.453702 0.517264 0.328496
O O7 0.958311 0.534636 0.323556
O O8 0.244427 0.750000 0.500000
O O9 0.500000 0.500000 0.500000
O O10 0.000000 0.500000 0.500000
#
# Coordination Sequence:
#
# PCOD9439839 Si02
#       4
#     8   8   8   8
#     4  10  26  44  73  94 144 172 234 277 357 404
#     4  10  24  41  66  98 136 177 228 279 341 411
#     4  10  24  42  67  97 135 178 223 277 343 406
#     4  12  28  47  76 108 144 187 245 301 368 436
#
# _framework density 22.689751999999999
#
# number of rings (size 3 to 8) (size 9 to 14) (size 15 to 20)
#    1.500    0.000    0.000    3.000   10.500    2.000 
#    0.000    0.000    0.000    0.000    0.000    0.000 
#    0.000    0.000    0.000    0.000    0.000    0.000 
#
# Total GULP energy -178285.404971 kJ/mol
# GULP energy per Si atom -5571.418905 kJ/mol
# Density = 2.263811 g / cm^3
# Si number density = 22.689752 Si / 1000 Ang^3
#
#
#
# Elastic Constant Matrix: (Units=GPa)
#
#
# Indices 1 2 3 4 5 6 
#
# 1 166.2120 43.9910 17.3627 0.0000 0.0000 0.0000
# 2 43.9910 121.2933 6.1042 0.0000 0.0000 0.0000
# 3 17.3627 6.1042 70.1479 0.0000 0.0000 0.0000
# 4 0.0000 0.0000 0.0000 28.5944 0.0000 0.0000
# 5 0.0000 0.0000 0.0000 0.0000 24.2703 0.0000
# 6 0.0000 0.0000 0.0000 0.0000 0.0000 19.9467
#
#
#
# Elastic Compliance Matrix: (Units=1/GPa)
#
#
# Indices 1 2 3 4 5 6 
#
# 1 0.006804 -0.002393 -0.001476 0.000000 0.000000 0.000000
# 2 -0.002393 0.009123 -0.000201 0.000000 0.000000 0.000000
# 3 -0.001476 -0.000201 0.014638 0.000000 0.000000 0.000000
# 4 0.000000 0.000000 0.000000 0.034972 0.000000 0.000000
# 5 0.000000 0.000000 0.000000 0.000000 0.041203 0.000000
# 6 0.000000 0.000000 0.000000 0.000000 0.000000 0.050134
#
#
# Mechanical properties :
#
#
# Convention : Reuss Voigt Hill
#
# Bulk Modulus (GPa) = 44.59564 54.72990 49.66277
# Shear Modulus (GPa) = 28.98732 33.90863 31.44797
#
# Velocity S-wave (km/s) = 3.57816 3.87000 3.72694
# Velocity P-wave (km/s) = 6.06368 6.64399 6.36045
#
# Compressibility (1/GPa) = 0.02242372
#
# Stress axis : x y z
#
# Youngs Moduli (GPa) = 146.97133 109.61699 68.31343
#
# Poissons Ratio (x) = 0.26236 0.10082
# Poissons Ratio (y) = 0.35177 0.01376
# Poissons Ratio (z) = 0.21691 0.02208
#
# Static dielectric constant tensor:
#      x y z
#    x 1.843880 0.000000 0.000000 
#    y 0.000000 1.934660 0.000000 
#    z 0.000000 0.000000 1.870050 
# 
# From -- ./inp_files/29006.got.cif
#   From: 2010.05.17/outbox.cif.g08.bks.cpg/sg57_15_cif.got.tgz:29006.got - 2010.06.03 13:58:18.
