data_PCOD9439382
_publ_section_title
;
Structure prediction by ZEFSAII (Michael W. Deem and Ramdas Pophale) SiO2 
 PCOD9439382
Probable space group: P B C M
;
_chemical_formula_sum "Si O2"
_cell_formula_units_Z 56
_cell_length_a 7.930433
_cell_length_b 22.068772
_cell_length_c 14.898551
_cell_angle_alpha 90.000000
_cell_angle_beta 90.000000
_cell_angle_gamma 90.000000
_cell_volume 2607.468678
_symmetry_space_group_name_H-M "P B C M"
_symmetry_group_IT_number 57
_symmetry_cell_setting 'orthorhombic'
loop_
_space_group_symop_operation_xyz
x,y,z
-x,-y,1/2+z
x,1/2-y,-z
-x,1/2+y,1/2-z
-x,-y,-z
x,y,1/2-z
-x,1/2+y,z
x,1/2-y,1/2+z
loop_
_atom_site_type_symbol
_atom_site_label
_atom_site_fract_x
_atom_site_fract_y
_atom_site_fract_z
Si Si1 0.651317 0.802189 0.568379
Si Si2 0.075708 0.625919 0.855446
Si Si3 0.795674 0.574889 0.513101
Si Si4 0.624081 0.016386 0.353833
Si Si5 0.691971 0.349574 0.856724
Si Si6 0.983606 0.263584 0.642316
Si Si7 0.769937 0.003860 0.849863
O O1 0.597955 0.750000 0.500000
O O2 0.701839 0.865548 0.522672
O O3 0.487486 0.817231 0.627330
O O4 0.825613 0.776933 0.611499
O O5 0.023362 0.624998 0.750000
O O6 0.086701 0.696571 0.879779
O O7 0.226025 0.576762 0.861803
O O8 0.941024 0.597369 0.921688
O O9 0.678752 0.533901 0.576028
O O10 0.856507 0.534290 0.428706
O O11 0.680712 0.005266 0.250000
O O12 0.687531 0.081304 0.388462
O O13 0.422006 0.018195 0.351001
O O14 0.713169 0.353682 0.750000
O O15 0.850320 0.312422 0.894152
O O16 0.984960 0.267770 0.750000
O O17 0.841735 0.991108 0.750000
#
# Coordination Sequence:
#
# PCOD9439382 Si02
#       7
#     8   8   8   8   8   8   8
#     4  12  25  42  64 102 134 172 226 276 338 403
#     4  10  22  42  64  95 131 170 224 275 334 406
#     4  12  23  41  65  95 133 174 216 273 345 390
#     4  10  22  43  66  98 134 169 223 279 336 408
#     4  10  23  45  71  97 131 179 227 276 336 401
#     4  10  23  45  68  93 132 177 227 281 332 396
#     4  10  22  39  65  95 130 173 220 276 333 405
#
# _framework density 21.476766999999999
#
# number of rings (size 3 to 8) (size 9 to 14) (size 15 to 20)
#    0.000    1.429    2.857    1.714    0.000    4.571 
#    0.000    4.286    0.000    0.000    0.000    0.000 
#    0.000    0.000    0.000    0.000    0.000    0.000 
#
# Total GULP energy -312801.489773 kJ/mol
# GULP energy per Si atom -5585.740889 kJ/mol
# Density = 2.142789 g / cm^3
# Si number density = 21.476767 Si / 1000 Ang^3
#
#
#
# Elastic Constant Matrix: (Units=GPa)
#
#
# Indices 1 2 3 4 5 6 
#
# 1 23.5484 -5.0540 2.7235 0.0000 0.0000 0.0000
# 2 -5.0540 120.6023 37.3778 0.0000 0.0000 0.0000
# 3 2.7235 37.3778 67.0838 0.0000 0.0000 0.0000
# 4 0.0000 0.0000 0.0000 24.8316 0.0000 0.0000
# 5 0.0000 0.0000 0.0000 0.0000 -6.8448 0.0000
# 6 0.0000 0.0000 0.0000 0.0000 0.0000 35.1521
#
#
#
# Elastic Compliance Matrix: (Units=1/GPa)
#
#
# Indices 1 2 3 4 5 6 
#
# 1 0.043469 0.002863 -0.003360 0.000000 0.000000 0.000000
# 2 0.002863 0.010211 -0.005806 0.000000 0.000000 0.000000
# 3 -0.003360 -0.005806 0.018278 0.000000 0.000000 0.000000
# 4 0.000000 0.000000 0.000000 0.040271 0.000000 0.000000
# 5 0.000000 0.000000 0.000000 0.000000 -0.146095 0.000000
# 6 0.000000 0.000000 0.000000 0.000000 0.000000 0.028448
#
#
# Mechanical properties :
#
#
# Convention : Reuss Voigt Hill
#
# Bulk Modulus (GPa) = 16.84851 31.25879 24.05365
# Shear Modulus (GPa) = 185.38630 22.37358 103.87994
#
# Velocity S-wave (km/s) = 9.30091 3.23113 6.96229
# Velocity P-wave (km/s) = 11.09975 5.33915 8.70951
#
# Compressibility (1/GPa) = 0.05935243
#
# Stress axis : x y z
#
# Youngs Moduli (GPa) = 23.00508 97.93358 54.71084
#
# Poissons Ratio (x) = -0.28038 0.18382
# Poissons Ratio (y) = -0.06586 0.31763
# Poissons Ratio (z) = 0.07729 0.56856
#
# Static dielectric constant tensor:
#      x y z
#    x 1.765880 0.000000 0.000000 
#    y 0.000000 1.803670 0.000000 
#    z 0.000000 0.000000 1.805890 
# 
# From -- ./inp_files/16698.got.cif
#   From: 2010.05.17/outbox.cif.g08.bks.cpg/sg57_9_cif.got.tgz:16698.got - 2010.06.03 13:58:18.
