data_PCOD9439008
_publ_section_title
;
Structure prediction by ZEFSAII (Michael W. Deem and Ramdas Pophale) SiO2 
 PCOD9439008
Probable space group: P B C M
;
_chemical_formula_sum "Si O2"
_cell_formula_units_Z 40
_cell_length_a 23.436979
_cell_length_b 5.137069
_cell_length_c 15.221664
_cell_angle_alpha 90.000000
_cell_angle_beta 90.000000
_cell_angle_gamma 90.000000
_cell_volume 1832.648439
_symmetry_space_group_name_H-M "P B C M"
_symmetry_group_IT_number 57
_symmetry_cell_setting 'orthorhombic'
loop_
_space_group_symop_operation_xyz
x,y,z
-x,-y,1/2+z
x,1/2-y,-z
-x,1/2+y,1/2-z
-x,-y,-z
x,y,1/2-z
-x,1/2+y,z
x,1/2-y,1/2+z
loop_
_atom_site_type_symbol
_atom_site_label
_atom_site_fract_x
_atom_site_fract_y
_atom_site_fract_z
Si Si1 0.204569 0.111593 0.250000
Si Si2 0.698992 0.250000 0.500000
Si Si3 0.535932 0.072917 0.750000
Si Si4 0.036896 0.740409 0.896270
Si Si5 0.872385 0.118566 0.250000
Si Si6 0.391329 0.364052 0.588683
Si Si7 0.287258 0.066694 0.845332
O O1 0.155078 0.332131 0.250000
O O2 0.246631 0.184525 0.169345
O O3 0.177434 0.832212 0.250000
O O4 0.656552 0.440715 0.447911
O O5 0.733793 0.405720 0.572282
O O6 0.482419 0.873213 0.750000
O O7 0.570095 0.998475 0.838376
O O8 0.088730 0.823409 0.834716
O O9 0.013102 0.451654 0.878273
O O10 0.050876 0.750000 0.000000
O O11 0.420640 0.250000 0.500000
O O12 0.352425 0.144490 0.634818
O O13 0.286889 0.931694 0.750000
#
# Coordination Sequence:
#
# PCOD9439008 Si02
#       7
#     4   4   4   8   4   8   8
#     4  10  25  38  64  92 140 163 210 250 332 384
#     4  10  22  38  72  92 120 166 230 262 318 362
#     4  12  29  43  68  96 135 173 200 262 344 386
#     4  10  21  39  65  90 119 165 223 266 312 375
#     4  12  22  41  60  96 131 172 200 272 326 384
#     4  10  23  43  67  95 122 165 227 265 309 388
#     4   9  21  40  66  93 124 175 212 270 306 394
#
# _framework density 21.826338
#
# number of rings (size 3 to 8) (size 9 to 14) (size 15 to 20)
#    0.600    1.200    1.000    1.800    9.800    0.800 
#    1.800    0.000    0.000    0.000    0.000    0.000 
#    0.000    0.000    0.000    0.000    0.000    0.000 
#
# Total GULP energy -223384.084102 kJ/mol
# GULP energy per Si atom -5584.602103 kJ/mol
# Density = 2.177666 g / cm^3
# Si number density = 21.826338 Si / 1000 Ang^3
#
#
#
# Elastic Constant Matrix: (Units=GPa)
#
#
# Indices 1 2 3 4 5 6 
#
# 1 44.5924 -4.8434 38.6178 0.0000 0.0000 0.0000
# 2 -4.8434 54.2719 13.3648 0.0000 0.0000 0.0000
# 3 38.6178 13.3648 113.1764 0.0000 0.0000 0.0000
# 4 0.0000 0.0000 0.0000 24.5427 0.0000 0.0000
# 5 0.0000 0.0000 0.0000 0.0000 5.8261 0.0000
# 6 0.0000 0.0000 0.0000 0.0000 0.0000 34.5818
#
#
#
# Elastic Compliance Matrix: (Units=1/GPa)
#
#
# Indices 1 2 3 4 5 6 
#
# 1 0.033628 0.006001 -0.012183 0.000000 0.000000 0.000000
# 2 0.006001 0.020049 -0.004415 0.000000 0.000000 0.000000
# 3 -0.012183 -0.004415 0.013514 0.000000 0.000000 0.000000
# 4 0.000000 0.000000 0.000000 0.040745 0.000000 0.000000
# 5 0.000000 0.000000 0.000000 0.000000 0.171643 0.000000
# 6 0.000000 0.000000 0.000000 0.000000 0.000000 0.028917
#
#
# Mechanical properties :
#
#
# Convention : Reuss Voigt Hill
#
# Bulk Modulus (GPa) = 21.74079 34.03546 27.88812
# Shear Modulus (GPa) = 14.49183 23.98355 19.23769
#
# Velocity S-wave (km/s) = 2.57954 3.31846 2.97206
# Velocity P-wave (km/s) = 4.34217 5.50550 4.95807
#
# Compressibility (1/GPa) = 0.04599649
#
# Stress axis : x y z
#
# Youngs Moduli (GPa) = 29.73721 49.87889 73.99607
#
# Poissons Ratio (x) = -0.29933 0.90150
# Poissons Ratio (y) = -0.17846 0.32671
# Poissons Ratio (z) = 0.36229 0.22023
#
# Static dielectric constant tensor:
#      x y z
#    x 1.770030 0.000000 0.000000 
#    y 0.000000 1.852110 0.000000 
#    z 0.000000 0.000000 1.817650 
# 
# From -- ./inp_files/19451.got.cif
#   From: 2010.05.17/outbox.cif.g08.bks.cpg/sg57_10_cif.got.tgz:19451.got - 2010.06.03 13:58:18.
