data_PCOD9439145
_publ_section_title
;
Structure prediction by ZEFSAII (Michael W. Deem and Ramdas Pophale) SiO2 
 PCOD9439145
Probable space group: P B C M
;
_chemical_formula_sum "Si O2"
_cell_formula_units_Z 64
_cell_length_a 16.324390
_cell_length_b 10.864302
_cell_length_c 17.692956
_cell_angle_alpha 90.000000
_cell_angle_beta 90.000000
_cell_angle_gamma 90.000000
_cell_volume 3137.900647
_symmetry_space_group_name_H-M "P B C M"
_symmetry_group_IT_number 57
_symmetry_cell_setting 'orthorhombic'
loop_
_space_group_symop_operation_xyz
x,y,z
-x,-y,1/2+z
x,1/2-y,-z
-x,1/2+y,1/2-z
-x,-y,-z
x,y,1/2-z
-x,1/2+y,z
x,1/2-y,1/2+z
loop_
_atom_site_type_symbol
_atom_site_label
_atom_site_fract_x
_atom_site_fract_y
_atom_site_fract_z
Si Si1 0.753697 0.687249 0.164273
Si Si2 0.954150 0.329824 0.426012
Si Si3 0.456127 0.528587 0.342042
Si Si4 0.318565 0.848874 0.943708
Si Si5 0.131896 0.101920 0.617749
Si Si6 0.572214 0.753494 0.158907
Si Si7 0.826340 0.175108 0.162985
Si Si8 0.807961 0.985500 0.966677
O O1 0.741431 0.643456 0.250000
O O2 0.824189 0.789651 0.162178
O O3 0.667681 0.746451 0.137192
O O4 0.780458 0.579362 0.109218
O O5 0.976864 0.250000 0.500000
O O6 0.906393 0.243408 0.367428
O O7 0.887592 0.429927 0.452835
O O8 0.034511 0.386183 0.388335
O O9 0.444314 0.533918 0.250000
O O10 0.378020 0.578363 0.387907
O O11 0.467629 0.384703 0.363827
O O12 0.526751 0.627018 0.362908
O O13 0.249549 0.786873 0.890129
O O14 0.359112 0.750000 0.000000
O O15 0.266395 0.938198 0.997471
O O16 0.165684 0.108060 0.532243
O O17 0.159123 0.970395 0.650636
O O18 0.569588 0.755675 0.250000
O O19 0.809968 0.201564 0.250000
#
# Coordination Sequence:
#
# PCOD9439145 Si02
#       8
#     8   8   8   8   8   8   8   8
#     4  11  24  42  63  93 133 170 214 269 324 388
#     4  12  22  42  62  89 126 168 215 267 326 395
#     4  10  21  40  70  98 127 170 217 269 324 393
#     4  11  21  42  63  92 126 164 217 260 318 397
#     4  11  24  39  66  89 119 172 222 261 321 388
#     4   9  20  41  66  97 133 169 214 265 332 402
#     4  11  23  40  62  88 123 163 209 270 323 378
#     4  11  22  41  63  90 123 172 214 261 322 392
#
# _framework density 20.395803000000001
#
# number of rings (size 3 to 8) (size 9 to 14) (size 15 to 20)
#    0.000    1.250    3.750    3.750    1.750    3.500 
#    0.000    5.000    0.000    0.000    0.000    0.000 
#    0.000    0.000    0.000    0.000    0.000    0.000 
#
# Total GULP energy -357485.454883 kJ/mol
# GULP energy per Si atom -5585.710233 kJ/mol
# Density = 2.034938 g / cm^3
# Si number density = 20.395803 Si / 1000 Ang^3
#
#
#
# Elastic Constant Matrix: (Units=GPa)
#
#
# Indices 1 2 3 4 5 6 
#
# 1 51.4359 15.2305 6.7137 0.0000 0.0000 0.0000
# 2 15.2305 47.0400 25.7444 0.0000 0.0000 0.0000
# 3 6.7137 25.7444 88.4648 0.0000 0.0000 0.0000
# 4 0.0000 0.0000 0.0000 16.1863 0.0000 0.0000
# 5 0.0000 0.0000 0.0000 0.0000 17.3078 0.0000
# 6 0.0000 0.0000 0.0000 0.0000 0.0000 69.0538
#
#
#
# Elastic Compliance Matrix: (Units=1/GPa)
#
#
# Indices 1 2 3 4 5 6 
#
# 1 0.021520 -0.007224 0.000469 0.000000 0.000000 0.000000
# 2 -0.007224 0.027711 -0.007516 0.000000 0.000000 0.000000
# 3 0.000469 -0.007516 0.013456 0.000000 0.000000 0.000000
# 4 0.000000 0.000000 0.000000 0.061780 0.000000 0.000000
# 5 0.000000 0.000000 0.000000 0.000000 0.057777 0.000000
# 6 0.000000 0.000000 0.000000 0.000000 0.000000 0.014481
#
#
# Mechanical properties :
#
#
# Convention : Reuss Voigt Hill
#
# Bulk Modulus (GPa) = 29.28779 31.36865 30.32822
# Shear Modulus (GPa) = 21.12833 29.79305 25.46069
#
# Velocity S-wave (km/s) = 3.22206 3.82611 3.53700
# Velocity P-wave (km/s) = 5.31348 5.91035 5.61984
#
# Compressibility (1/GPa) = 0.03414392
#
# Stress axis : x y z
#
# Youngs Moduli (GPa) = 46.46925 36.08673 74.31868
#
# Poissons Ratio (x) = 0.26070 -0.03487
# Poissons Ratio (y) = 0.33571 0.55858
# Poissons Ratio (z) = -0.02180 0.27123
#
# Static dielectric constant tensor:
#      x y z
#    x 1.717110 0.000000 0.000000 
#    y 0.000000 1.737240 0.000000 
#    z 0.000000 0.000000 1.714640 
# 
# From -- ./inp_files/22707.got.cif
#   From: 2010.05.17/outbox.cif.g08.bks.cpg/sg57_12_cif.got.tgz:22707.got - 2010.06.03 13:58:18.
