data_PCOD9439856
_publ_section_title
;
Structure prediction by ZEFSAII (Michael W. Deem and Ramdas Pophale) SiO2 
 PCOD9439856
Probable space group: P B C M
;
_chemical_formula_sum "Si O2"
_cell_formula_units_Z 64
_cell_length_a 15.641039
_cell_length_b 12.042543
_cell_length_c 16.222175
_cell_angle_alpha 90.000000
_cell_angle_beta 90.000000
_cell_angle_gamma 90.000000
_cell_volume 3055.574569
_symmetry_space_group_name_H-M "P B C M"
_symmetry_group_IT_number 57
_symmetry_cell_setting 'orthorhombic'
loop_
_space_group_symop_operation_xyz
x,y,z
-x,-y,1/2+z
x,1/2-y,-z
-x,1/2+y,1/2-z
-x,-y,-z
x,y,1/2-z
-x,1/2+y,z
x,1/2-y,1/2+z
loop_
_atom_site_type_symbol
_atom_site_label
_atom_site_fract_x
_atom_site_fract_y
_atom_site_fract_z
Si Si1 0.736449 0.066710 0.084515
Si Si2 0.322006 0.953113 0.102446
Si Si3 0.889290 0.266038 0.598799
Si Si4 0.410784 0.730252 0.099202
Si Si5 0.081013 0.306709 0.589565
Si Si6 0.754636 0.821307 0.346909
Si Si7 0.597180 0.835667 0.651788
Si Si8 0.143914 0.519371 0.659325
O O1 0.816246 0.142272 0.113195
O O2 0.649578 0.124451 0.117158
O O3 0.751022 0.940141 0.109310
O O4 0.722413 0.069778 0.985732
O O5 0.363255 0.839342 0.132705
O O6 0.245406 0.997982 0.158056
O O7 0.391702 0.049952 0.101570
O O8 0.889603 0.250000 0.500000
O O9 0.869191 0.148063 0.639519
O O10 0.985382 0.297155 0.624428
O O11 0.505213 0.715781 0.133154
O O12 0.415454 0.750000 0.000000
O O13 0.081037 0.250000 0.500000
O O14 0.156690 0.243169 0.637132
O O15 0.103985 0.436906 0.592195
O O16 0.745338 0.840561 0.250000
O O17 0.674556 0.745542 0.373950
O O18 0.603702 0.856625 0.750000
O O19 0.109426 0.491480 0.750000
#
# Coordination Sequence:
#
# PCOD9439856 Si02
#       8
#     8   8   8   8   8   8   8   8
#     4  11  23  44  71  97 133 174 225 282 335 403
#     4  11  22  44  71  94 128 177 225 275 331 401
#     4  11  24  45  70 100 136 173 227 278 339 405
#     4  10  24  42  68  99 127 168 221 279 327 398
#     4  11  26  43  71  99 133 180 228 277 339 408
#     4  11  26  44  61  95 139 177 218 278 343 404
#     4  11  26  43  64  96 135 176 221 273 339 407
#     4  12  24  43  70  98 134 180 228 280 335 402
#
# _framework density 20.945325
#
# number of rings (size 3 to 8) (size 9 to 14) (size 15 to 20)
#    0.000    1.000    3.750    1.875    5.250    5.000 
#    0.000    0.000    0.000    0.000    0.000    0.000 
#    0.000    0.000    0.000    0.000    0.000    0.000 
#
# Total GULP energy -357717.185496 kJ/mol
# GULP energy per Si atom -5589.331023 kJ/mol
# Density = 2.089765 g / cm^3
# Si number density = 20.945325 Si / 1000 Ang^3
#
#
#
# Elastic Constant Matrix: (Units=GPa)
#
#
# Indices 1 2 3 4 5 6 
#
# 1 140.6116 47.4228 11.7993 0.0000 0.0000 0.0000
# 2 47.4228 122.0139 12.7785 0.0000 0.0000 0.0000
# 3 11.7993 12.7785 35.3741 0.0000 0.0000 0.0000
# 4 0.0000 0.0000 0.0000 1.8500 0.0000 0.0000
# 5 0.0000 0.0000 0.0000 0.0000 -52.4411 0.0000
# 6 0.0000 0.0000 0.0000 0.0000 0.0000 31.9901
#
#
#
# Elastic Compliance Matrix: (Units=1/GPa)
#
#
# Indices 1 2 3 4 5 6 
#
# 1 0.008278 -0.003043 -0.001662 0.000000 0.000000 0.000000
# 2 -0.003043 0.009637 -0.002466 0.000000 0.000000 0.000000
# 3 -0.001662 -0.002466 0.029714 0.000000 0.000000 0.000000
# 4 0.000000 0.000000 0.000000 0.540542 0.000000 0.000000
# 5 0.000000 0.000000 0.000000 0.000000 -0.019069 0.000000
# 6 0.000000 0.000000 0.000000 0.000000 0.000000 0.031260
#
#
# Mechanical properties :
#
#
# Convention : Reuss Voigt Hill
#
# Bulk Modulus (GPa) = 30.04196 49.11117 39.57657
# Shear Modulus (GPa) = 7.98978 11.34639 9.66809
#
# Velocity S-wave (km/s) = 1.95522 2.33000 2.15079
# Velocity P-wave (km/s) = 4.41263 5.54407 5.01039
#
# Compressibility (1/GPa) = 0.03328678
#
# Stress axis : x y z
#
# Youngs Moduli (GPa) = 120.80821 103.76831 33.65370
#
# Poissons Ratio (x) = 0.31579 0.05592
# Poissons Ratio (y) = 0.36764 0.08299
# Poissons Ratio (z) = 0.20075 0.25590
#
# Static dielectric constant tensor:
#      x y z
#    x 1.750270 0.000000 0.000000 
#    y 0.000000 1.740310 0.000000 
#    z 0.000000 0.000000 1.807430 
# 
# From -- ./inp_files/22637.got.cif
#   From: 2010.05.17/outbox.cif.g08.bks.cpg/sg57_12_cif.got.tgz:22637.got - 2010.06.03 13:58:18.
