data_PCOD9439458
_publ_section_title
;
Structure prediction by ZEFSAII (Michael W. Deem and Ramdas Pophale) SiO2 
 PCOD9439458
Probable space group: P B C M
;
_chemical_formula_sum "Si O2"
_cell_formula_units_Z 40
_cell_length_a 6.145243
_cell_length_b 15.398980
_cell_length_c 18.208746
_cell_angle_alpha 90.000000
_cell_angle_beta 90.000000
_cell_angle_gamma 90.000000
_cell_volume 1723.102266
_symmetry_space_group_name_H-M "P B C M"
_symmetry_group_IT_number 57
_symmetry_cell_setting 'orthorhombic'
loop_
_space_group_symop_operation_xyz
x,y,z
-x,-y,1/2+z
x,1/2-y,-z
-x,1/2+y,1/2-z
-x,-y,-z
x,y,1/2-z
-x,1/2+y,z
x,1/2-y,1/2+z
loop_
_atom_site_type_symbol
_atom_site_label
_atom_site_fract_x
_atom_site_fract_y
_atom_site_fract_z
Si Si1 0.711959 0.297178 0.130217
Si Si2 0.601048 0.729493 0.250000
Si Si3 0.684316 0.051882 0.538687
Si Si4 0.038061 0.250000 0.000000
Si Si5 0.966797 0.587521 0.250000
Si Si6 0.966859 0.898453 0.915071
Si Si7 0.974458 0.878438 0.250000
O O1 0.551836 0.239236 0.178446
O O2 0.583047 0.372344 0.087671
O O3 0.880996 0.346490 0.182416
O O4 0.871816 0.261593 0.067900
O O5 0.730441 0.637950 0.250000
O O6 0.760247 0.815412 0.250000
O O7 0.840818 0.084713 0.473291
O O8 0.500000 0.000000 0.500000
O O9 0.826024 0.986184 0.588133
O O10 0.172705 0.327216 0.961901
O O11 0.026652 0.484099 0.250000
O O12 0.042292 0.619825 0.168626
#
# Coordination Sequence:
#
# PCOD9439458 Si02
#       7
#     8   4   8   4   4   8   4
#     4  10  23  45  66 101 134 181 232 286 348 421
#     4  11  27  43  73 100 139 191 223 286 370 406
#     4  10  22  40  66  97 130 179 232 276 342 421
#     4  10  22  44  70  94 144 180 230 298 336 424
#     4  12  24  42  72 108 137 181 237 289 350 431
#     4  10  23  42  64  98 137 178 227 287 348 408
#     4  11  23  47  69  98 148 178 232 289 352 419
#
# _framework density 23.213943
#
# number of rings (size 3 to 8) (size 9 to 14) (size 15 to 20)
#    0.000    1.600    2.000    1.200    2.800    5.600 
#    0.000    7.000    0.000    0.000    0.000    0.000 
#    0.000    0.000    0.000    0.000    0.000    0.000 
#
# Total GULP energy -222749.219280 kJ/mol
# GULP energy per Si atom -5568.730482 kJ/mol
# Density = 2.316111 g / cm^3
# Si number density = 23.213943 Si / 1000 Ang^3
#
#
#
# Elastic Constant Matrix: (Units=GPa)
#
#
# Indices 1 2 3 4 5 6 
#
# 1 41.8253 8.5619 18.2196 0.0000 0.0000 0.0000
# 2 8.5619 78.2839 32.9832 0.0000 0.0000 0.0000
# 3 18.2196 32.9832 147.6064 0.0000 0.0000 0.0000
# 4 0.0000 0.0000 0.0000 -44.5384 0.0000 0.0000
# 5 0.0000 0.0000 0.0000 0.0000 29.7909 0.0000
# 6 0.0000 0.0000 0.0000 0.0000 0.0000 20.9627
#
#
#
# Elastic Compliance Matrix: (Units=1/GPa)
#
#
# Indices 1 2 3 4 5 6 
#
# 1 0.025450 -0.001612 -0.002781 0.000000 0.000000 0.000000
# 2 -0.001612 0.014204 -0.002975 0.000000 0.000000 0.000000
# 3 -0.002781 -0.002975 0.007783 0.000000 0.000000 0.000000
# 4 0.000000 0.000000 0.000000 -0.022453 0.000000 0.000000
# 5 0.000000 0.000000 0.000000 0.000000 0.033567 0.000000
# 6 0.000000 0.000000 0.000000 0.000000 0.000000 0.047704
#
#
# Mechanical properties :
#
#
# Convention : Reuss Voigt Hill
#
# Bulk Modulus (GPa) = 30.57994 43.02723 36.80359
# Shear Modulus (GPa) = 37.90988 15.10644 26.50816
#
# Velocity S-wave (km/s) = 4.04550 2.55375 3.38288
# Velocity P-wave (km/s) = 5.91804 5.22215 5.58095
#
# Compressibility (1/GPa) = 0.03270118
#
# Stress axis : x y z
#
# Youngs Moduli (GPa) = 39.29198 70.40416 128.48784
#
# Poissons Ratio (x) = 0.11347 0.35736
# Poissons Ratio (y) = 0.06333 0.38224
# Poissons Ratio (z) = 0.10928 0.20945
#
# Static dielectric constant tensor:
#      x y z
#    x 1.891500 0.000000 0.000000 
#    y 0.000000 2.326590 0.000000 
#    z 0.000000 0.000000 1.753560 
# 
# From -- ./inp_files/20059.got.cif
#   From: 2010.05.17/outbox.cif.g08.bks.cpg/sg57_11_cif.got.tgz:20059.got - 2010.06.03 13:58:18.
