data_PCOD9439645
_publ_section_title
;
Structure prediction by ZEFSAII (Michael W. Deem and Ramdas Pophale) SiO2 
 PCOD9439645
Probable space group: P B C M
;
_chemical_formula_sum "Si O2"
_cell_formula_units_Z 44
_cell_length_a 12.721088
_cell_length_b 11.021386
_cell_length_c 14.806710
_cell_angle_alpha 90.000000
_cell_angle_beta 90.000000
_cell_angle_gamma 90.000000
_cell_volume 2075.960283
_symmetry_space_group_name_H-M "P B C M"
_symmetry_group_IT_number 57
_symmetry_cell_setting 'orthorhombic'
loop_
_space_group_symop_operation_xyz
x,y,z
-x,-y,1/2+z
x,1/2-y,-z
-x,1/2+y,1/2-z
-x,-y,-z
x,y,1/2-z
-x,1/2+y,z
x,1/2-y,1/2+z
loop_
_atom_site_type_symbol
_atom_site_label
_atom_site_fract_x
_atom_site_fract_y
_atom_site_fract_z
Si Si1 0.879677 0.682069 0.250000
Si Si2 0.433819 0.479571 0.354164
Si Si3 0.874239 0.171710 0.250000
Si Si4 0.220068 0.917535 0.250000
Si Si5 0.342727 0.991622 0.410487
Si Si6 0.276637 0.242454 0.893839
Si Si7 0.732733 0.362215 0.571852
O O1 0.827283 0.549998 0.250000
O O2 0.830505 0.752323 0.335898
O O3 0.002091 0.651191 0.250000
O O4 0.467051 0.483464 0.250000
O O5 0.535839 0.456371 0.415084
O O6 0.350494 0.369649 0.365946
O O7 0.378349 0.607388 0.379729
O O8 0.866658 0.316755 0.250000
O O9 0.815572 0.133115 0.344446
O O10 0.291828 0.904381 0.336793
O O11 0.337061 0.129937 0.376714
O O12 0.271380 0.973140 0.499120
O O13 0.255008 0.250000 0.000000
O O14 0.739152 0.250000 0.500000
#
# Coordination Sequence:
#
# PCOD9439645 Si02
#       7
#     4   8   4   4   8   8   8
#     4  10  26  47  70  99 132 181 237 300 357 395
#     4  12  25  42  72 104 144 190 225 277 339 423
#     4  12  26  47  74  95 134 183 237 304 345 397
#     4  10  22  46  64  98 138 172 224 292 336 412
#     4  11  24  43  67 101 145 180 219 276 349 414
#     4  11  24  44  68 101 142 178 231 285 347 421
#     4  12  26  43  67 102 139 174 236 283 332 415
#
# _framework density 21.19501
#
# number of rings (size 3 to 8) (size 9 to 14) (size 15 to 20)
#    0.000    0.727    6.364    0.545    2.545    2.182 
#    0.000    1.818    0.000    0.000    0.000    0.000 
#    0.000    0.000    0.000    0.000    0.000    0.000 
#
# Total GULP energy -245093.333229 kJ/mol
# GULP energy per Si atom -5570.303028 kJ/mol
# Density = 2.114677 g / cm^3
# Si number density = 21.195010 Si / 1000 Ang^3
#
#
#
# Elastic Constant Matrix: (Units=GPa)
#
#
# Indices 1 2 3 4 5 6 
#
# 1 136.8995 33.2320 56.6984 0.0000 0.0000 0.0000
# 2 33.2320 64.6726 15.8530 0.0000 0.0000 0.0000
# 3 56.6984 15.8530 164.4614 0.0000 0.0000 0.0000
# 4 0.0000 0.0000 0.0000 31.5604 0.0000 0.0000
# 5 0.0000 0.0000 0.0000 0.0000 -78.1424 0.0000
# 6 0.0000 0.0000 0.0000 0.0000 0.0000 26.9085
#
#
#
# Elastic Compliance Matrix: (Units=1/GPa)
#
#
# Indices 1 2 3 4 5 6 
#
# 1 0.009511 -0.004182 -0.002876 0.000000 0.000000 0.000000
# 2 -0.004182 0.017676 -0.000262 0.000000 0.000000 0.000000
# 3 -0.002876 -0.000262 0.007097 0.000000 0.000000 0.000000
# 4 0.000000 0.000000 0.000000 0.031685 0.000000 0.000000
# 5 0.000000 0.000000 0.000000 0.000000 -0.012797 0.000000
# 6 0.000000 0.000000 0.000000 0.000000 0.000000 0.037163
#
#
# Mechanical properties :
#
#
# Convention : Reuss Voigt Hill
#
# Bulk Modulus (GPa) = 50.90664 64.17780 57.54222
# Shear Modulus (GPa) = 44.83392 13.41533 29.12463
#
# Velocity S-wave (km/s) = 4.60423 2.51857 3.71094
# Velocity P-wave (km/s) = 7.23434 6.22921 6.75051
#
# Compressibility (1/GPa) = 0.01964380
#
# Stress axis : x y z
#
# Youngs Moduli (GPa) = 105.14279 56.57469 140.90202
#
# Poissons Ratio (x) = 0.23661 0.40520
# Poissons Ratio (y) = 0.43973 0.03691
# Poissons Ratio (z) = 0.30236 0.01482
#
# Static dielectric constant tensor:
#      x y z
#    x 1.709070 0.000000 0.000000 
#    y 0.000000 1.814890 0.000000 
#    z 0.000000 0.000000 1.859600 
# 
# From -- ./inp_files/21759.got.cif
#   From: 2010.05.17/outbox.cif.g08.bks.cpg/sg57_11_cif.got.tgz:21759.got - 2010.06.03 13:58:18.
