data_PCOD9439984
_publ_section_title
;
Structure prediction by ZEFSAII (Michael W. Deem and Ramdas Pophale) SiO2 
 PCOD9439984
Probable space group: P B C M
;
_chemical_formula_sum "Si O2"
_cell_formula_units_Z 48
_cell_length_a 14.213286
_cell_length_b 19.255732
_cell_length_c 10.189639
_cell_angle_alpha 90.000000
_cell_angle_beta 90.000000
_cell_angle_gamma 90.000000
_cell_volume 2788.774032
_symmetry_space_group_name_H-M "P B C M"
_symmetry_group_IT_number 57
_symmetry_cell_setting 'orthorhombic'
loop_
_space_group_symop_operation_xyz
x,y,z
-x,-y,1/2+z
x,1/2-y,-z
-x,1/2+y,1/2-z
-x,-y,-z
x,y,1/2-z
-x,1/2+y,z
x,1/2-y,1/2+z
loop_
_atom_site_type_symbol
_atom_site_label
_atom_site_fract_x
_atom_site_fract_y
_atom_site_fract_z
Si Si1 0.451452 0.432499 0.750000
Si Si2 0.881672 0.554998 0.405180
Si Si3 0.373778 0.656040 0.750000
Si Si4 0.913364 0.423265 0.904285
Si Si5 0.318168 0.450245 0.501029
Si Si6 0.566900 0.930586 0.250000
Si Si7 0.281815 0.614895 0.478814
Si Si8 0.403522 0.818353 0.750000
O O1 0.388186 0.445783 0.623234
O O2 0.535504 0.488555 0.750000
O O3 0.496035 0.356260 0.750000
O O4 0.870091 0.537562 0.250000
O O5 0.901081 0.487124 0.494382
O O6 0.782301 0.582368 0.458847
O O7 0.977630 0.599576 0.416469
O O8 0.468914 0.610536 0.750000
O O9 0.311968 0.638111 0.622922
O O10 0.404239 0.735905 0.750000
O O11 0.900435 0.443760 0.750000
O O12 0.827520 0.373231 0.942397
O O13 0.370209 0.417257 0.377420
O O14 0.299860 0.531807 0.470004
O O15 0.347386 0.654107 0.376257
#
# Coordination Sequence:
#
# PCOD9439984 Si02
#       8
#     4   8   4   8   8   4   8   4
#     4  12  20  36  55  79 106 147 193 222 277 326
#     4   9  18  31  48  81 113 137 170 219 270 323
#     4  12  26  38  53  79 113 147 185 236 275 326
#     4   9  18  31  51  77 111 142 170 212 272 327
#     4  11  20  33  56  82 107 145 184 225 279 327
#     4  12  22  36  53  77 108 149 187 230 273 328
#     4  11  20  36  55  80 109 148 180 220 280 334
#     4  12  24  38  55  79 109 147 189 230 275 336
#
# _framework density 17.211863999999998
#
# number of rings (size 3 to 8) (size 9 to 14) (size 15 to 20)
#    0.000    1.333    5.000    2.000    7.000    0.000 
#    0.000    0.000    0.000    0.000    0.000    7.000 
#    0.000    0.000    0.000    0.000    0.000    0.000 
#
# Total GULP energy -267571.017859 kJ/mol
# GULP energy per Si atom -5574.396205 kJ/mol
# Density = 1.717269 g / cm^3
# Si number density = 17.211864 Si / 1000 Ang^3
#
#
#
# Elastic Constant Matrix: (Units=GPa)
#
#
# Indices 1 2 3 4 5 6 
#
# 1 131.7227 7.7524 57.4148 0.0000 0.0000 0.0000
# 2 7.7524 37.0608 -2.5304 0.0000 0.0000 0.0000
# 3 57.4148 -2.5304 138.7298 0.0000 0.0000 0.0000
# 4 0.0000 0.0000 0.0000 -220.8282 0.0000 0.0000
# 5 0.0000 0.0000 0.0000 0.0000 35.9552 0.0000
# 6 0.0000 0.0000 0.0000 0.0000 0.0000 6.3583
#
#
#
# Elastic Compliance Matrix: (Units=1/GPa)
#
#
# Indices 1 2 3 4 5 6 
#
# 1 0.009446 -0.002246 -0.003950 0.000000 0.000000 0.000000
# 2 -0.002246 0.027550 0.001432 0.000000 0.000000 0.000000
# 3 -0.003950 0.001432 0.008869 0.000000 0.000000 0.000000
# 4 0.000000 0.000000 0.000000 -0.004528 0.000000 0.000000
# 5 0.000000 0.000000 0.000000 0.000000 0.027812 0.000000
# 6 0.000000 0.000000 0.000000 0.000000 0.000000 0.157275
#
#
# Mechanical properties :
#
#
# Convention : Reuss Voigt Hill
#
# Bulk Modulus (GPa) = 27.51989 48.08742 37.80366
# Shear Modulus (GPa) = 20.15607 -19.37786 0.38910
#
# Velocity S-wave (km/s) = 3.42578 -3.35900 0.47598
# Velocity P-wave (km/s) = 5.62775 3.59935 4.72371
#
# Compressibility (1/GPa) = 0.03633735
#
# Stress axis : x y z
#
# Youngs Moduli (GPa) = 105.86895 36.29740 112.74995
#
# Poissons Ratio (x) = 0.08151 0.44538
# Poissons Ratio (y) = 0.23773 -0.16144
# Poissons Ratio (z) = 0.41820 -0.05197
#
# Static dielectric constant tensor:
#      x y z
#    x 1.633110 0.000000 0.000000 
#    y 0.000000 1.557490 0.000000 
#    z 0.000000 0.000000 1.602840 
# 
# From -- ./inp_files/4795.got.cif
#   From: 2010.05.17/outbox.cif.g08.bks.cpg/sg57_3_cif.got.tgz:4795.got - 2010.06.03 13:58:18.
