data_PCOD9439864
_publ_section_title
;
Structure prediction by ZEFSAII (Michael W. Deem and Ramdas Pophale) SiO2 
 PCOD9439864
Probable space group: P B C M
;
_chemical_formula_sum "Si O2"
_cell_formula_units_Z 64
_cell_length_a 15.345061
_cell_length_b 12.185895
_cell_length_c 17.502842
_cell_angle_alpha 90.000000
_cell_angle_beta 90.000000
_cell_angle_gamma 90.000000
_cell_volume 3272.914222
_symmetry_space_group_name_H-M "P B C M"
_symmetry_group_IT_number 57
_symmetry_cell_setting 'orthorhombic'
loop_
_space_group_symop_operation_xyz
x,y,z
-x,-y,1/2+z
x,1/2-y,-z
-x,1/2+y,1/2-z
-x,-y,-z
x,y,1/2-z
-x,1/2+y,z
x,1/2-y,1/2+z
loop_
_atom_site_type_symbol
_atom_site_label
_atom_site_fract_x
_atom_site_fract_y
_atom_site_fract_z
Si Si1 0.736740 0.057240 0.075025
Si Si2 0.325041 0.967422 0.099158
Si Si3 0.894989 0.272018 0.586380
Si Si4 0.408952 0.735905 0.091315
Si Si5 0.077858 0.324657 0.658149
Si Si6 0.758660 0.824967 0.158177
Si Si7 0.591090 0.828121 0.659230
Si Si8 0.149984 0.548066 0.663087
O O1 0.823205 0.131723 0.085451
O O2 0.655571 0.132440 0.103102
O O3 0.748718 0.942668 0.118312
O O4 0.715864 0.034184 0.985783
O O5 0.361863 0.847520 0.116229
O O6 0.248402 0.994918 0.158300
O O7 0.396177 0.060937 0.110763
O O8 0.922861 0.250000 0.500000
O O9 0.852859 0.160410 0.617463
O O10 0.981148 0.292400 0.635122
O O11 0.499747 0.722995 0.134028
O O12 0.423082 0.750000 0.000000
O O13 0.085495 0.329562 0.750000
O O14 0.154206 0.241188 0.632574
O O15 0.094056 0.448601 0.629320
O O16 0.764379 0.839987 0.250000
O O17 0.672963 0.751598 0.142481
O O18 0.590705 0.850482 0.750000
O O19 0.123199 0.569539 0.750000
#
# Coordination Sequence:
#
# PCOD9439864 Si02
#       8
#     8   8   8   8   8   8   8   8
#     4  11  24  43  66  94 134 168 215 270 325 384
#     4  11  22  44  69  92 129 172 214 264 320 382
#     4  12  24  43  65  97 131 163 214 271 317 381
#     4  10  24  43  65  95 129 170 212 265 322 387
#     4  10  24  44  64  93 131 172 217 260 322 390
#     4  10  24  44  62  91 134 173 214 269 323 384
#     4  11  25  43  66  97 129 168 220 266 316 385
#     4  11  22  42  68  90 123 174 217 259 316 381
#
# _framework density 19.554438999999999
#
# number of rings (size 3 to 8) (size 9 to 14) (size 15 to 20)
#    0.000    1.250    3.750    1.125    5.250    5.000 
#    0.000    0.000    0.000    0.000    0.000    0.000 
#    0.000    0.000    0.000    0.000    0.000    0.000 
#
# Total GULP energy -357482.899315 kJ/mol
# GULP energy per Si atom -5585.670302 kJ/mol
# Density = 1.950993 g / cm^3
# Si number density = 19.554439 Si / 1000 Ang^3
#
#
#
# Elastic Constant Matrix: (Units=GPa)
#
#
# Indices 1 2 3 4 5 6 
#
# 1 113.0715 36.5542 24.1261 0.0000 0.0000 0.0000
# 2 36.5542 123.6325 42.6599 0.0000 0.0000 0.0000
# 3 24.1261 42.6599 30.8674 0.0000 0.0000 0.0000
# 4 0.0000 0.0000 0.0000 26.4935 0.0000 0.0000
# 5 0.0000 0.0000 0.0000 0.0000 35.3855 0.0000
# 6 0.0000 0.0000 0.0000 0.0000 0.0000 16.6768
#
#
#
# Elastic Compliance Matrix: (Units=1/GPa)
#
#
# Indices 1 2 3 4 5 6 
#
# 1 0.010632 -0.000528 -0.007581 0.000000 0.000000 0.000000
# 2 -0.000528 0.015488 -0.020993 0.000000 0.000000 0.000000
# 3 -0.007581 -0.020993 0.067334 0.000000 0.000000 0.000000
# 4 0.000000 0.000000 0.000000 0.037745 0.000000 0.000000
# 5 0.000000 0.000000 0.000000 0.000000 0.028260 0.000000
# 6 0.000000 0.000000 0.000000 0.000000 0.000000 0.059964
#
#
# Mechanical properties :
#
#
# Convention : Reuss Voigt Hill
#
# Bulk Modulus (GPa) = 28.36684 52.69465 40.53075
# Shear Modulus (GPa) = 17.27854 26.65992 21.96923
#
# Velocity S-wave (km/s) = 2.97579 3.69639 3.35549
# Velocity P-wave (km/s) = 5.13275 6.72487 5.98202
#
# Compressibility (1/GPa) = 0.03525243
#
# Stress axis : x y z
#
# Youngs Moduli (GPa) = 94.05497 64.56542 14.85126
#
# Poissons Ratio (x) = 0.03408 0.11258
# Poissons Ratio (y) = 0.04965 0.31177
# Poissons Ratio (z) = 0.71299 1.35540
#
# Static dielectric constant tensor:
#      x y z
#    x 1.659010 0.000000 0.000000 
#    y 0.000000 1.673000 0.000000 
#    z 0.000000 0.000000 1.673360 
# 
# From -- ./inp_files/22639.got.cif
#   From: 2010.05.17/outbox.cif.g08.bks.cpg/sg57_12_cif.got.tgz:22639.got - 2010.06.03 13:58:18.
