data_PCOD9439791
_publ_section_title
;
Structure prediction by ZEFSAII (Michael W. Deem and Ramdas Pophale) SiO2 
 PCOD9439791
Probable space group: P B C M
;
_chemical_formula_sum "Si O2"
_cell_formula_units_Z 28
_cell_length_a 8.836684
_cell_length_b 10.533503
_cell_length_c 14.266055
_cell_angle_alpha 90.000000
_cell_angle_beta 90.000000
_cell_angle_gamma 90.000000
_cell_volume 1327.902053
_symmetry_space_group_name_H-M "P B C M"
_symmetry_group_IT_number 57
_symmetry_cell_setting 'orthorhombic'
loop_
_space_group_symop_operation_xyz
x,y,z
-x,-y,1/2+z
x,1/2-y,-z
-x,1/2+y,1/2-z
-x,-y,-z
x,y,1/2-z
-x,1/2+y,z
x,1/2-y,1/2+z
loop_
_atom_site_type_symbol
_atom_site_label
_atom_site_fract_x
_atom_site_fract_y
_atom_site_fract_z
Si Si1 0.567497 0.616952 0.942494
Si Si2 0.115886 0.192699 0.902215
Si Si3 0.563044 0.216723 0.750000
Si Si4 0.274235 0.368683 0.750000
Si Si5 0.871498 0.138700 0.750000
O O1 0.746498 0.596357 0.923078
O O2 0.483717 0.641135 0.844080
O O3 0.556115 0.750000 0.000000
O O4 0.500000 0.500000 0.000000
O O5 0.199083 0.300186 0.839633
O O6 0.979515 0.142801 0.839822
O O7 0.062312 0.250000 0.000000
O O8 0.451755 0.338271 0.750000
O O9 0.741377 0.245813 0.750000
O O10 0.225957 0.512085 0.750000
#
# Coordination Sequence:
#
# PCOD9439791 Si02
#       5
#     8   8   4   4   4
#     4  10  23  44  71 101 136 189 235 284 351 420
#     4   9  21  43  66  95 137 170 223 290 343 415
#     4  10  24  40  66  96 136 172 231 287 339 418
#     4   9  21  43  62  94 133 173 219 281 341 409
#     4  11  23  41  70  98 129 185 222 284 364 405
#
# _framework density 21.085894
#
# number of rings (size 3 to 8) (size 9 to 14) (size 15 to 20)
#    0.000    2.286    0.000    0.857   12.000    2.286 
#   10.286    0.000    0.000    0.000    0.000    0.000 
#    0.000    0.000    0.000    0.000    0.000    0.000 
#
# Total GULP energy -156461.520980 kJ/mol
# GULP energy per Si atom -5587.911464 kJ/mol
# Density = 2.103790 g / cm^3
# Si number density = 21.085894 Si / 1000 Ang^3
#
#
#
# Elastic Constant Matrix: (Units=GPa)
#
#
# Indices 1 2 3 4 5 6 
#
# 1 187.4004 70.5159 74.1168 0.0000 0.0000 0.0000
# 2 70.5159 74.6435 42.0810 0.0000 0.0000 0.0000
# 3 74.1168 42.0810 178.3589 0.0000 0.0000 0.0000
# 4 0.0000 0.0000 0.0000 25.0808 0.0000 0.0000
# 5 0.0000 0.0000 0.0000 0.0000 33.7463 0.0000
# 6 0.0000 0.0000 0.0000 0.0000 0.0000 27.1618
#
#
#
# Elastic Compliance Matrix: (Units=1/GPa)
#
#
# Indices 1 2 3 4 5 6 
#
# 1 0.008838 -0.007242 -0.001964 0.000000 0.000000 0.000000
# 2 -0.007242 0.021387 -0.002036 0.000000 0.000000 0.000000
# 3 -0.001964 -0.002036 0.006903 0.000000 0.000000 0.000000
# 4 0.000000 0.000000 0.000000 0.039871 0.000000 0.000000
# 5 0.000000 0.000000 0.000000 0.000000 0.029633 0.000000
# 6 0.000000 0.000000 0.000000 0.000000 0.000000 0.036816
#
#
# Mechanical properties :
#
#
# Convention : Reuss Voigt Hill
#
# Bulk Modulus (GPa) = 68.29192 90.42558 79.35875
# Shear Modulus (GPa) = 29.27154 34.11037 31.69096
#
# Velocity S-wave (km/s) = 3.72990 4.02641 3.88099
# Velocity P-wave (km/s) = 7.14195 8.03701 7.60266
#
# Compressibility (1/GPa) = 0.01464302
#
# Stress axis : x y z
#
# Youngs Moduli (GPa) = 113.14780 46.75805 144.85919
#
# Poissons Ratio (x) = 0.33863 0.28450
# Poissons Ratio (y) = 0.81943 0.29499
# Poissons Ratio (z) = 0.22222 0.09522
#
# Static dielectric constant tensor:
#      x y z
#    x 1.783420 0.000000 0.000000 
#    y 0.000000 1.776480 0.000000 
#    z 0.000000 0.000000 1.775840 
# 
# From -- ./inp_files/15450.got.cif
#   From: 2010.05.17/outbox.cif.g08.bks.cpg/sg57_8_cif.got.tgz:15450.got - 2010.06.03 13:58:18.
