data_PCOD9439438
_publ_section_title
;
Structure prediction by ZEFSAII (Michael W. Deem and Ramdas Pophale) SiO2 
 PCOD9439438
Probable space group: P B C M
;
_chemical_formula_sum "Si O2"
_cell_formula_units_Z 32
_cell_length_a 6.230783
_cell_length_b 8.735287
_cell_length_c 23.851854
_cell_angle_alpha 90.000000
_cell_angle_beta 90.000000
_cell_angle_gamma 90.000000
_cell_volume 1298.201023
_symmetry_space_group_name_H-M "P B C M"
_symmetry_group_IT_number 57
_symmetry_cell_setting 'orthorhombic'
loop_
_space_group_symop_operation_xyz
x,y,z
-x,-y,1/2+z
x,1/2-y,-z
-x,1/2+y,1/2-z
-x,-y,-z
x,y,1/2-z
-x,1/2+y,z
x,1/2-y,1/2+z
loop_
_atom_site_type_symbol
_atom_site_label
_atom_site_fract_x
_atom_site_fract_y
_atom_site_fract_z
Si Si1 0.053792 0.058506 0.624782
Si Si2 0.348939 0.888089 0.963330
Si Si3 0.317285 0.144098 0.128140
Si Si4 0.319730 0.376228 0.750000
Si Si5 0.049546 0.074555 0.750000
O O1 0.177505 0.979753 0.573597
O O2 0.119192 0.010042 0.688962
O O3 0.803269 0.017493 0.619719
O O4 0.123451 0.234680 0.624097
O O5 0.512911 0.817676 0.918403
O O6 0.254264 0.750000 0.000000
O O7 0.500000 0.000000 0.000000
O O8 0.422681 0.147157 0.189761
O O9 0.204858 0.541482 0.750000
O O10 0.128893 0.248900 0.750000
#
# Coordination Sequence:
#
# PCOD9439438 Si02
#       5
#     8   8   8   4   4
#     4  10  22  40  65  90 120 156 196 247 302 355
#     4  12  26  43  58  86 123 160 209 248 285 350
#     4  10  22  40  65  91 119 157 196 246 304 352
#     4   8  16  35  60  90 119 145 191 243 297 361
#     4   8  16  35  60  90 117 147 191 241 299 359
#
# _framework density 24.649495000000002
#
# number of rings (size 3 to 8) (size 9 to 14) (size 15 to 20)
#    0.000    2.000    2.500    0.000    3.500    3.000 
#    0.000    0.000    0.000    0.000    0.000    0.000 
#    0.000    0.000    0.000    0.000    0.000    0.000 
#
# Total GULP energy -178643.275938 kJ/mol
# GULP energy per Si atom -5582.602373 kJ/mol
# Density = 2.459339 g / cm^3
# Si number density = 24.649495 Si / 1000 Ang^3
#
#
#
# Elastic Constant Matrix: (Units=GPa)
#
#
# Indices 1 2 3 4 5 6 
#
# 1 15.3746 14.7734 18.4272 0.0000 0.0000 0.0000
# 2 14.7734 44.3064 30.7602 0.0000 0.0000 0.0000
# 3 18.4272 30.7602 162.6010 0.0000 0.0000 0.0000
# 4 0.0000 0.0000 0.0000 39.7305 0.0000 0.0000
# 5 0.0000 0.0000 0.0000 0.0000 -9.9026 0.0000
# 6 0.0000 0.0000 0.0000 0.0000 0.0000 26.1194
#
#
#
# Elastic Compliance Matrix: (Units=1/GPa)
#
#
# Indices 1 2 3 4 5 6 
#
# 1 0.100241 -0.029398 -0.005799 0.000000 0.000000 0.000000
# 2 -0.029398 0.034604 -0.003215 0.000000 0.000000 0.000000
# 3 -0.005799 -0.003215 0.007415 0.000000 0.000000 0.000000
# 4 0.000000 0.000000 0.000000 0.025170 0.000000 0.000000
# 5 0.000000 0.000000 0.000000 0.000000 -0.100984 0.000000
# 6 0.000000 0.000000 0.000000 0.000000 0.000000 0.038286
#
#
# Mechanical properties :
#
#
# Convention : Reuss Voigt Hill
#
# Bulk Modulus (GPa) = 15.28177 38.91152 27.09664
# Shear Modulus (GPa) = 24.58604 21.74421 23.16513
#
# Velocity S-wave (km/s) = 3.16163 2.97330 3.06891
# Velocity P-wave (km/s) = 4.42052 5.25429 4.85533
#
# Compressibility (1/GPa) = 0.06543747
#
# Stress axis : x y z
#
# Youngs Moduli (GPa) = 9.97598 28.89805 134.85606
#
# Poissons Ratio (x) = 0.84955 0.78198
# Poissons Ratio (y) = 0.29328 0.43352
# Poissons Ratio (z) = 0.05785 0.09290
#
# Static dielectric constant tensor:
#      x y z
#    x 1.962890 0.000000 0.000000 
#    y 0.000000 1.978480 0.000000 
#    z 0.000000 0.000000 1.966390 
# 
# From -- ./inp_files/23960.got.cif
#   From: 2010.05.17/outbox.cif.g08.bks.cpg/sg57_12_cif.got.tgz:23960.got - 2010.06.03 13:58:18.
