data_PCOD9439134
_publ_section_title
;
Structure prediction by ZEFSAII (Michael W. Deem and Ramdas Pophale) SiO2 
 PCOD9439134
Probable space group: P B C M
;
_chemical_formula_sum "Si O2"
_cell_formula_units_Z 64
_cell_length_a 5.101169
_cell_length_b 30.970191
_cell_length_c 18.415691
_cell_angle_alpha 90.000000
_cell_angle_beta 90.000000
_cell_angle_gamma 90.000000
_cell_volume 2909.387810
_symmetry_space_group_name_H-M "P B C M"
_symmetry_group_IT_number 57
_symmetry_cell_setting 'orthorhombic'
loop_
_space_group_symop_operation_xyz
x,y,z
-x,-y,1/2+z
x,1/2-y,-z
-x,1/2+y,1/2-z
-x,-y,-z
x,y,1/2-z
-x,1/2+y,z
x,1/2-y,1/2+z
loop_
_atom_site_type_symbol
_atom_site_label
_atom_site_fract_x
_atom_site_fract_y
_atom_site_fract_z
Si Si1 0.295952 0.757080 0.669786
Si Si2 0.503564 0.207401 0.536019
Si Si3 0.739180 0.951586 0.165832
Si Si4 0.151871 0.857211 0.949454
Si Si5 0.200270 0.376416 0.428247
Si Si6 0.462629 0.933706 0.539152
Si Si7 0.200459 0.182995 0.330801
Si Si8 0.763906 0.486979 0.087323
O O1 0.337381 0.737366 0.750000
O O2 0.331296 0.724500 0.603940
O O3 0.010125 0.778148 0.668346
O O4 0.513865 0.795455 0.664022
O O5 0.375621 0.250000 0.500000
O O6 0.681175 0.184325 0.474581
O O7 0.306871 0.171895 0.567001
O O8 0.771357 0.960512 0.250000
O O9 0.799182 0.901445 0.146905
O O10 0.448249 0.963709 0.139515
O O11 0.950119 0.978442 0.118830
O O12 0.312648 0.896924 0.915338
O O13 0.905111 0.845234 0.898574
O O14 0.070040 0.875309 0.028565
O O15 0.378195 0.406212 0.480006
O O16 0.274862 0.965630 0.492555
O O17 0.665956 0.963887 0.581357
O O18 0.180138 0.162326 0.250000
#
# Coordination Sequence:
#
# PCOD9439134 Si02
#       8
#     8   8   8   8   8   8   8   8
#     4  10  22  41  60  83 115 161 209 253 312 377
#     4  11  22  37  59  94 120 165 214 274 309 365
#     4  11  23  42  64  94 135 170 204 257 318 381
#     4  11  21  37  61  93 123 162 209 267 316 368
#     4  10  23  37  61  92 128 165 213 259 320 373
#     4   9  21  37  63  93 123 158 209 262 308 374
#     4  10  22  40  61  82 117 162 204 257 324 375
#     4  10  21  40  67  93 121 168 211 248 309 383
#
# _framework density 21.997755000000002
#
# number of rings (size 3 to 8) (size 9 to 14) (size 15 to 20)
#    0.000    1.750    2.500    1.125    5.250    2.500 
#    0.000    1.875    0.000    0.000    0.000    0.000 
#    0.000    0.000    0.000    0.000    0.000    0.000 
#
# Total GULP energy -357479.434366 kJ/mol
# GULP energy per Si atom -5585.616162 kJ/mol
# Density = 2.194769 g / cm^3
# Si number density = 21.997755 Si / 1000 Ang^3
#
#
#
# Elastic Constant Matrix: (Units=GPa)
#
#
# Indices 1 2 3 4 5 6 
#
# 1 43.1898 1.2858 11.6496 0.0000 0.0000 0.0000
# 2 1.2858 89.0401 19.4213 0.0000 0.0000 0.0000
# 3 11.6496 19.4213 100.1825 0.0000 0.0000 0.0000
# 4 0.0000 0.0000 0.0000 21.7689 0.0000 0.0000
# 5 0.0000 0.0000 0.0000 0.0000 25.4492 0.0000
# 6 0.0000 0.0000 0.0000 0.0000 0.0000 20.7493
#
#
#
# Elastic Compliance Matrix: (Units=1/GPa)
#
#
# Indices 1 2 3 4 5 6 
#
# 1 0.023910 0.000273 -0.002833 0.000000 0.000000 0.000000
# 2 0.000273 0.011730 -0.002306 0.000000 0.000000 0.000000
# 3 -0.002833 -0.002306 0.010758 0.000000 0.000000 0.000000
# 4 0.000000 0.000000 0.000000 0.045937 0.000000 0.000000
# 5 0.000000 0.000000 0.000000 0.000000 0.039294 0.000000
# 6 0.000000 0.000000 0.000000 0.000000 0.000000 0.048194
#
#
# Mechanical properties :
#
#
# Convention : Reuss Voigt Hill
#
# Bulk Modulus (GPa) = 27.27362 33.01400 30.14381
# Shear Modulus (GPa) = 24.77977 26.93050 25.85514
#
# Velocity S-wave (km/s) = 3.35993 3.50271 3.43206
# Velocity P-wave (km/s) = 5.24189 5.60349 5.42571
#
# Compressibility (1/GPa) = 0.03666547
#
# Stress axis : x y z
#
# Youngs Moduli (GPa) = 41.82409 85.25248 92.95231
#
# Poissons Ratio (x) = -0.02325 0.26335
# Poissons Ratio (y) = -0.01141 0.21432
# Poissons Ratio (z) = 0.11850 0.19656
#
# Static dielectric constant tensor:
#      x y z
#    x 1.844320 0.000000 0.000000 
#    y 0.000000 1.864650 0.000000 
#    z 0.000000 0.000000 1.827250 
# 
# From -- ./inp_files/20355.got.cif
#   From: 2010.05.17/outbox.cif.g08.bks.cpg/sg57_11_cif.got.tgz:20355.got - 2010.06.03 13:58:18.
