data_PCOD9439200
_publ_section_title
;
Structure prediction by ZEFSAII (Michael W. Deem and Ramdas Pophale) SiO2 
 PCOD9439200
Probable space group: P B C M
;
_chemical_formula_sum "Si O2"
_cell_formula_units_Z 40
_cell_length_a 9.314587
_cell_length_b 14.260282
_cell_length_c 14.509169
_cell_angle_alpha 90.000000
_cell_angle_beta 90.000000
_cell_angle_gamma 90.000000
_cell_volume 1927.233147
_symmetry_space_group_name_H-M "P B C M"
_symmetry_group_IT_number 57
_symmetry_cell_setting 'orthorhombic'
loop_
_space_group_symop_operation_xyz
x,y,z
-x,-y,1/2+z
x,1/2-y,-z
-x,1/2+y,1/2-z
-x,-y,-z
x,y,1/2-z
-x,1/2+y,z
x,1/2-y,1/2+z
loop_
_atom_site_type_symbol
_atom_site_label
_atom_site_fract_x
_atom_site_fract_y
_atom_site_fract_z
Si Si1 0.303550 0.608022 0.250000
Si Si2 0.401490 0.003386 0.250000
Si Si3 0.360913 0.447631 0.956879
Si Si4 0.242342 0.250000 0.500000
Si Si5 0.876703 0.048894 0.422378
Si Si6 0.993875 0.146527 0.908888
Si Si7 0.235858 0.811835 0.250000
O O1 0.431652 0.533268 0.250000
O O2 0.210442 0.591369 0.160080
O O3 0.332720 0.718510 0.250000
O O4 0.348809 0.042579 0.152589
O O5 0.347552 0.897087 0.250000
O O6 0.343278 0.338014 0.977451
O O7 0.500000 0.500000 0.000000
O O8 0.229136 0.498582 0.005934
O O9 0.135962 0.211384 0.581693
O O10 0.949090 0.129504 0.483961
O O11 0.968970 0.961916 0.382663
O O12 0.871094 0.181720 0.839167
#
# Coordination Sequence:
#
# PCOD9439200 Si02
#       7
#     4   4   8   4   8   8   4
#     4  12  25  41  64  97 133 180 228 274 338 402
#     4  12  26  45  65 102 135 183 232 277 333 408
#     4  11  23  46  69  96 140 182 226 283 335 404
#     4  10  24  42  70 104 128 182 228 278 344 400
#     4  10  21  42  69  93 135 177 216 287 342 397
#     4  10  21  42  67 100 132 167 227 278 340 404
#     4  12  25  42  69 101 132 183 226 283 345 402
#
# _framework density 20.755144000000001
#
# number of rings (size 3 to 8) (size 9 to 14) (size 15 to 20)
#    0.000    1.200    4.000    1.800    0.000    2.400 
#    3.600    0.000    0.000    0.000    0.000    0.000 
#    0.000    0.000    0.000    0.000    0.000    0.000 
#
# Total GULP energy -223068.097943 kJ/mol
# GULP energy per Si atom -5576.702449 kJ/mol
# Density = 2.070790 g / cm^3
# Si number density = 20.755144 Si / 1000 Ang^3
#
#
#
# Elastic Constant Matrix: (Units=GPa)
#
#
# Indices 1 2 3 4 5 6 
#
# 1 67.8525 62.5121 14.6961 0.0000 0.0000 0.0000
# 2 62.5121 144.9506 57.1190 0.0000 0.0000 0.0000
# 3 14.6961 57.1190 102.9347 0.0000 0.0000 0.0000
# 4 0.0000 0.0000 0.0000 23.5439 0.0000 0.0000
# 5 0.0000 0.0000 0.0000 0.0000 25.3960 0.0000
# 6 0.0000 0.0000 0.0000 0.0000 0.0000 45.9131
#
#
#
# Elastic Compliance Matrix: (Units=1/GPa)
#
#
# Indices 1 2 3 4 5 6 
#
# 1 0.025211 -0.012100 0.003115 0.000000 0.000000 0.000000
# 2 -0.012100 0.014637 -0.006395 0.000000 0.000000 0.000000
# 3 0.003115 -0.006395 0.012819 0.000000 0.000000 0.000000
# 4 0.000000 0.000000 0.000000 0.042474 0.000000 0.000000
# 5 0.000000 0.000000 0.000000 0.000000 0.039376 0.000000
# 6 0.000000 0.000000 0.000000 0.000000 0.000000 0.021780
#
#
# Mechanical properties :
#
#
# Convention : Reuss Voigt Hill
#
# Bulk Modulus (GPa) = 45.64725 64.93248 55.28986
# Shear Modulus (GPa) = 25.72564 31.06466 28.39515
#
# Velocity S-wave (km/s) = 3.52445 3.87295 3.70280
# Velocity P-wave (km/s) = 6.21315 7.16607 6.70656
#
# Compressibility (1/GPa) = 0.02190712
#
# Stress axis : x y z
#
# Youngs Moduli (GPa) = 39.66540 68.31960 78.01173
#
# Poissons Ratio (x) = 0.82667 -0.24300
# Poissons Ratio (y) = 0.47995 0.49886
# Poissons Ratio (z) = -0.12356 0.43688
#
# Static dielectric constant tensor:
#      x y z
#    x 1.803310 0.000000 0.000000 
#    y 0.000000 1.778820 0.000000 
#    z 0.000000 0.000000 1.716240 
# 
# From -- ./inp_files/16005.got.cif
#   From: 2010.05.17/outbox.cif.g08.bks.cpg/sg57_9_cif.got.tgz:16005.got - 2010.06.03 13:58:18.
