data_PCOD9439183
_publ_section_title
;
Structure prediction by ZEFSAII (Michael W. Deem and Ramdas Pophale) SiO2 
 PCOD9439183
Probable space group: P B C M
;
_chemical_formula_sum "Si O2"
_cell_formula_units_Z 48
_cell_length_a 14.776333
_cell_length_b 9.050332
_cell_length_c 17.090547
_cell_angle_alpha 90.000000
_cell_angle_beta 90.000000
_cell_angle_gamma 90.000000
_cell_volume 2285.531145
_symmetry_space_group_name_H-M "P B C M"
_symmetry_group_IT_number 57
_symmetry_cell_setting 'orthorhombic'
loop_
_space_group_symop_operation_xyz
x,y,z
-x,-y,1/2+z
x,1/2-y,-z
-x,1/2+y,1/2-z
-x,-y,-z
x,y,1/2-z
-x,1/2+y,z
x,1/2-y,1/2+z
loop_
_atom_site_type_symbol
_atom_site_label
_atom_site_fract_x
_atom_site_fract_y
_atom_site_fract_z
Si Si1 0.533105 0.630835 0.441255
Si Si2 0.640421 0.290150 0.658952
Si Si3 0.715532 0.525736 0.115041
Si Si4 0.038934 0.032551 0.914245
Si Si5 0.225345 0.593432 0.046055
Si Si6 0.899807 0.669765 0.337904
O O1 0.572351 0.750000 0.500000
O O2 0.500000 0.500000 0.500000
O O3 0.451045 0.704569 0.392636
O O4 0.613850 0.586732 0.384136
O O5 0.623207 0.317335 0.750000
O O6 0.701221 0.409836 0.614304
O O7 0.698542 0.138898 0.649285
O O8 0.795643 0.618799 0.153698
O O9 0.747380 0.514623 0.024336
O O10 0.068261 0.199989 0.896021
O O11 0.130414 0.938015 0.913899
O O12 0.962882 0.971518 0.855929
O O13 0.000000 0.000000 0.000000
O O14 0.224070 0.750000 0.000000
O O15 0.915002 0.723541 0.250000
#
# Coordination Sequence:
#
# PCOD9439183 Si02
#       6
#     8   8   8   8   8   8
#     4  12  23  44  72 101 135 183 240 288 347 424
#     4  11  24  42  67 103 143 184 230 294 361 415
#     4  11  24  44  72  99 140 185 238 290 356 424
#     4  12  25  45  73 103 136 185 239 284 348 431
#     4  10  21  41  68 101 130 181 237 287 341 418
#     4  12  28  46  69 106 147 184 231 301 363 415
#
# _framework density 21.001681999999999
#
# number of rings (size 3 to 8) (size 9 to 14) (size 15 to 20)
#    0.000    0.667    5.000    3.000    4.667    2.667 
#    0.000    0.000    0.000    0.000    0.000    0.000 
#    0.000    0.000    0.000    0.000    0.000    0.000 
#
# Total GULP energy -267962.270831 kJ/mol
# GULP energy per Si atom -5582.547309 kJ/mol
# Density = 2.095388 g / cm^3
# Si number density = 21.001682 Si / 1000 Ang^3
#
#
#
# Elastic Constant Matrix: (Units=GPa)
#
#
# Indices 1 2 3 4 5 6 
#
# 1 110.2030 6.9190 19.8861 0.0000 0.0000 0.0000
# 2 6.9190 52.8127 25.6276 0.0000 0.0000 0.0000
# 3 19.8861 25.6276 93.6879 0.0000 0.0000 0.0000
# 4 0.0000 0.0000 0.0000 20.0239 0.0000 0.0000
# 5 0.0000 0.0000 0.0000 0.0000 17.2468 0.0000
# 6 0.0000 0.0000 0.0000 0.0000 0.0000 34.0392
#
#
#
# Elastic Compliance Matrix: (Units=1/GPa)
#
#
# Indices 1 2 3 4 5 6 
#
# 1 0.009440 -0.000305 -0.001920 0.000000 0.000000 0.000000
# 2 -0.000305 0.021843 -0.005910 0.000000 0.000000 0.000000
# 3 -0.001920 -0.005910 0.012698 0.000000 0.000000 0.000000
# 4 0.000000 0.000000 0.000000 0.049940 0.000000 0.000000
# 5 0.000000 0.000000 0.000000 0.000000 0.057982 0.000000
# 6 0.000000 0.000000 0.000000 0.000000 0.000000 0.029378
#
#
# Mechanical properties :
#
#
# Convention : Reuss Voigt Hill
#
# Bulk Modulus (GPa) = 36.08826 40.17432 38.13129
# Shear Modulus (GPa) = 24.17937 27.88004 26.02970
#
# Velocity S-wave (km/s) = 3.39677 3.64746 3.52435
# Velocity P-wave (km/s) = 5.71007 6.07530 5.89551
#
# Compressibility (1/GPa) = 0.02770984
#
# Stress axis : x y z
#
# Youngs Moduli (GPa) = 105.93418 45.78183 78.75236
#
# Poissons Ratio (x) = 0.01396 0.15123
# Poissons Ratio (y) = 0.03230 0.46544
# Poissons Ratio (z) = 0.20342 0.27058
#
# Static dielectric constant tensor:
#      x y z
#    x 2.024120 0.000000 0.000000 
#    y 0.000000 1.825510 0.000000 
#    z 0.000000 0.000000 1.740560 
# 
# From -- ./inp_files/22439.got.cif
#   From: 2010.05.17/outbox.cif.g08.bks.cpg/sg57_12_cif.got.tgz:22439.got - 2010.06.03 13:58:18.
