data_PCOD9440017
_publ_section_title
;
Structure prediction by ZEFSAII (Michael W. Deem and Ramdas Pophale) SiO2 
 PCOD9440017
Probable space group: P B C M
;
_chemical_formula_sum "Si O2"
_cell_formula_units_Z 48
_cell_length_a 32.506365
_cell_length_b 9.416869
_cell_length_c 8.605487
_cell_angle_alpha 90.000000
_cell_angle_beta 90.000000
_cell_angle_gamma 90.000000
_cell_volume 2634.209971
_symmetry_space_group_name_H-M "P B C M"
_symmetry_group_IT_number 57
_symmetry_cell_setting 'orthorhombic'
loop_
_space_group_symop_operation_xyz
x,y,z
-x,-y,1/2+z
x,1/2-y,-z
-x,1/2+y,1/2-z
-x,-y,-z
x,y,1/2-z
-x,1/2+y,z
x,1/2-y,1/2+z
loop_
_atom_site_type_symbol
_atom_site_label
_atom_site_fract_x
_atom_site_fract_y
_atom_site_fract_z
Si Si1 0.374581 0.589992 0.436014
Si Si2 0.123381 0.411538 0.063611
Si Si3 0.298699 0.410858 0.935622
Si Si4 0.462076 0.589906 0.936131
Si Si5 0.786726 0.911623 0.436532
Si Si6 0.037970 0.410757 0.935354
O O1 0.370108 0.750000 0.500000
O O2 0.375959 0.592450 0.250000
O O3 0.336552 0.498110 0.495668
O O4 0.418163 0.534352 0.501536
O O5 0.119611 0.407664 0.250000
O O6 0.168317 0.475439 0.024564
O O7 0.124458 0.250000 0.000000
O O8 0.081835 0.474030 0.991840
O O9 0.300260 0.408204 0.750000
O O10 0.300904 0.250000 0.000000
O O11 0.254682 0.474163 0.990462
O O12 0.461829 0.591103 0.750000
O O13 0.465870 0.750000 0.000000
O O14 0.500000 0.500000 0.000000
O O15 0.787946 0.750000 0.500000
O O16 0.782736 0.908064 0.250000
O O17 0.037231 0.406632 0.750000
O O18 0.035247 0.250000 0.000000
O O19 0.000000 0.500000 0.000000
#
# Coordination Sequence:
#
# PCOD9440017 Si02
#       6
#     8   8   8   8   8   8
#     4  11  22  39  59  81 109 144 181 218 262 316
#     4   9  16  27  45  70  99 131 169 210 256 307
#     4  11  21  34  53  80 110 141 177 220 265 310
#     4  11  22  39  60  85 112 143 180 220 265 313
#     4   9  16  27  45  71 102 134 168 212 260 307
#     4  11  21  34  52  75 103 135 173 214 260 311
#
# _framework density 18.221781
#
# number of rings (size 3 to 8) (size 9 to 14) (size 15 to 20)
#    0.000    1.667    0.000   10.000    0.000    2.667 
#    0.000    3.333    0.000    1.000    0.000    0.000 
#    0.000    0.000    0.000    0.000    0.000    0.000 
#
# Total GULP energy -267864.033828 kJ/mol
# GULP energy per Si atom -5580.500705 kJ/mol
# Density = 1.818031 g / cm^3
# Si number density = 18.221781 Si / 1000 Ang^3
#
#
#
# Elastic Constant Matrix: (Units=GPa)
#
#
# Indices 1 2 3 4 5 6 
#
# 1 231.9368 56.6462 93.8911 0.0000 0.0000 0.0000
# 2 56.6462 28.9385 28.5523 0.0000 0.0000 0.0000
# 3 93.8911 28.5523 188.6085 0.0000 0.0000 0.0000
# 4 0.0000 0.0000 0.0000 23.8153 0.0000 0.0000
# 5 0.0000 0.0000 0.0000 0.0000 37.5229 0.0000
# 6 0.0000 0.0000 0.0000 0.0000 0.0000 28.0585
#
#
#
# Elastic Compliance Matrix: (Units=1/GPa)
#
#
# Indices 1 2 3 4 5 6 
#
# 1 0.008924 -0.015384 -0.002114 0.000000 0.000000 0.000000
# 2 -0.015384 0.067142 -0.002506 0.000000 0.000000 0.000000
# 3 -0.002114 -0.002506 0.006734 0.000000 0.000000 0.000000
# 4 0.000000 0.000000 0.000000 0.041990 0.000000 0.000000
# 5 0.000000 0.000000 0.000000 0.000000 0.026650 0.000000
# 6 0.000000 0.000000 0.000000 0.000000 0.000000 0.035640
#
#
# Mechanical properties :
#
#
# Convention : Reuss Voigt Hill
#
# Bulk Modulus (GPa) = 23.36846 89.74034 56.55440
# Shear Modulus (GPa) = 20.71672 35.90560 28.31116
#
# Velocity S-wave (km/s) = 3.37548 4.44382 3.94597
# Velocity P-wave (km/s) = 5.29567 8.69977 7.20174
#
# Compressibility (1/GPa) = 0.04279272
#
# Stress axis : x y z
#
# Youngs Moduli (GPa) = 112.05272 14.89388 148.50799
#
# Poissons Ratio (x) = 0.22912 0.31392
# Poissons Ratio (y) = 1.72377 0.37217
# Poissons Ratio (z) = 0.23686 0.03733
#
# Static dielectric constant tensor:
#      x y z
#    x 1.681880 0.000000 0.000000 
#    y 0.000000 1.632440 0.000000 
#    z 0.000000 0.000000 1.603010 
# 
# From -- ./inp_files/9980.got.cif
#   From: 2010.05.17/outbox.cif.g08.bks.cpg/sg57_5_cif.got.tgz:9980.got - 2010.06.03 13:58:18.
