data_PCOD9440231
_publ_section_title
;
Structure prediction by ZEFSAII (Michael W. Deem and Ramdas Pophale) SiO2 
 PCOD9440231
Probable space group: P B C M
;
_chemical_formula_sum "Si O2"
_cell_formula_units_Z 40
_cell_length_a 22.833339
_cell_length_b 8.873155
_cell_length_c 9.527234
_cell_angle_alpha 90.000000
_cell_angle_beta 90.000000
_cell_angle_gamma 90.000000
_cell_volume 1930.253394
_symmetry_space_group_name_H-M "P B C M"
_symmetry_group_IT_number 57
_symmetry_cell_setting 'orthorhombic'
loop_
_space_group_symop_operation_xyz
x,y,z
-x,-y,1/2+z
x,1/2-y,-z
-x,1/2+y,1/2-z
-x,-y,-z
x,y,1/2-z
-x,1/2+y,z
x,1/2-y,1/2+z
loop_
_atom_site_type_symbol
_atom_site_label
_atom_site_fract_x
_atom_site_fract_y
_atom_site_fract_z
Si Si1 0.546764 0.402551 0.413393
Si Si2 0.337732 0.395265 0.587346
Si Si3 0.082068 0.438342 0.750000
Si Si4 0.041098 0.091968 0.750000
Si Si5 0.880986 0.425273 0.526041
Si Si6 0.253556 0.902155 0.911488
O O1 0.553677 0.250000 0.500000
O O2 0.500000 0.500000 0.500000
O O3 0.528841 0.378268 0.250000
O O4 0.608518 0.488689 0.411515
O O5 0.357237 0.250000 0.500000
O O6 0.322345 0.361617 0.750000
O O7 0.284742 0.467220 0.499283
O O8 0.057090 0.268688 0.750000
O O9 0.120228 0.479865 0.883937
O O10 0.027282 0.554285 0.750000
O O11 0.070877 0.008239 0.619136
O O12 0.896804 0.250000 0.500000
O O13 0.816433 0.425140 0.591248
O O14 0.274659 0.891622 0.750000
O O15 0.264503 0.750000 0.000000
#
# Coordination Sequence:
#
# PCOD9440231 Si02
#       6
#     8   8   4   4   8   8
#     4  11  24  42  67  99 135 179 225 279 335 398
#     4  11  25  43  66  98 137 178 225 276 331 389
#     4  12  26  40  70  92 130 172 211 274 327 404
#     4  12  24  46  62  98 130 166 219 266 333 396
#     4  11  24  43  67  95 128 170 217 269 333 399
#     4  11  24  43  69  96 130 171 219 272 332 400
#
# _framework density 20.722667999999999
#
# number of rings (size 3 to 8) (size 9 to 14) (size 15 to 20)
#    0.000    0.800    1.000    6.000    5.600    8.000 
#    0.000    0.000    0.000    0.000    0.000    0.000 
#    0.000    0.000    0.000    0.000    0.000    0.000 
#
# Total GULP energy -223741.096963 kJ/mol
# GULP energy per Si atom -5593.527424 kJ/mol
# Density = 2.067550 g / cm^3
# Si number density = 20.722668 Si / 1000 Ang^3
#
#
#
# Elastic Constant Matrix: (Units=GPa)
#
#
# Indices 1 2 3 4 5 6 
#
# 1 31.5497 20.3533 25.0810 0.0000 0.0000 0.0000
# 2 20.3533 129.9831 54.9688 0.0000 0.0000 0.0000
# 3 25.0810 54.9688 199.0132 0.0000 0.0000 0.0000
# 4 0.0000 0.0000 0.0000 30.7730 0.0000 0.0000
# 5 0.0000 0.0000 0.0000 0.0000 27.8646 0.0000
# 6 0.0000 0.0000 0.0000 0.0000 0.0000 33.8301
#
#
#
# Elastic Compliance Matrix: (Units=1/GPa)
#
#
# Indices 1 2 3 4 5 6 
#
# 1 0.037287 -0.004361 -0.003495 0.000000 0.000000 0.000000
# 2 -0.004361 0.009221 -0.001997 0.000000 0.000000 0.000000
# 3 -0.003495 -0.001997 0.006017 0.000000 0.000000 0.000000
# 4 0.000000 0.000000 0.000000 0.032496 0.000000 0.000000
# 5 0.000000 0.000000 0.000000 0.000000 0.035888 0.000000
# 6 0.000000 0.000000 0.000000 0.000000 0.000000 0.029559
#
#
# Mechanical properties :
#
#
# Convention : Reuss Voigt Hill
#
# Bulk Modulus (GPa) = 30.46960 62.37248 46.42104
# Shear Modulus (GPa) = 27.60695 35.83639 31.72167
#
# Velocity S-wave (km/s) = 3.65391 4.16304 3.91675
# Velocity P-wave (km/s) = 5.70410 7.29876 6.55014
#
# Compressibility (1/GPa) = 0.03281960
#
# Stress axis : x y z
#
# Youngs Moduli (GPa) = 26.81867 108.45096 166.19887
#
# Poissons Ratio (x) = 0.47292 0.58083
# Poissons Ratio (y) = 0.11695 0.33194
# Poissons Ratio (z) = 0.09372 0.21661
#
# Static dielectric constant tensor:
#      x y z
#    x 1.701450 0.000000 0.000000 
#    y 0.000000 1.738530 0.000000 
#    z 0.000000 0.000000 1.653700 
# 
# From -- ./inp_files/8933.got.cif
#   From: 2010.05.17/outbox.cif.g08.bks.cpg/sg57_5_cif.got.tgz:8933.got - 2010.06.03 13:58:18.
