data_PCOD9440653
_publ_section_title
;
Structure prediction by ZEFSAII (Michael W. Deem and Ramdas Pophale) SiO2 
 PCOD9440653
Probable space group: P B C M
;
_chemical_formula_sum "Si O2"
_cell_formula_units_Z 40
_cell_length_a 15.000000
_cell_length_b 18.000000
_cell_length_c 9.000000
_cell_angle_alpha 90.000000
_cell_angle_beta 90.000000
_cell_angle_gamma 90.000000
_cell_volume 2430.000000
_symmetry_space_group_name_H-M "P B C M"
_symmetry_group_IT_number 57
_symmetry_cell_setting 'orthorhombic'
loop_
_space_group_symop_operation_xyz
x,y,z
-x,-y,1/2+z
x,1/2-y,-z
-x,1/2+y,1/2-z
-x,-y,-z
x,y,1/2-z
-x,1/2+y,z
x,1/2-y,1/2+z
loop_
_atom_site_type_symbol
_atom_site_label
_atom_site_fract_x
_atom_site_fract_y
_atom_site_fract_z
Si Si1 0.209668 0.455257 0.065120
Si Si2 0.069717 0.334774 0.934729
Si Si3 0.397539 0.520436 0.564170
Si Si4 0.696667 0.330730 0.933932
Si Si5 0.878838 0.104980 0.565898
O O1 0.211980 0.455555 0.250000
O O2 0.153637 0.383774 0.000783
O O3 0.312372 0.469215 0.999544
O O4 0.150851 0.524405 0.000055
O O5 0.069555 0.335569 0.750000
O O6 0.075350 0.250000 0.000000
O O7 0.975223 0.369015 0.999219
O O8 0.500000 0.500000 0.500000
O O9 0.398190 0.519066 0.750000
O O10 0.365842 0.602058 0.500344
O O11 0.697043 0.332397 0.750000
O O12 0.668719 0.250000 0.000000
O O13 0.796690 0.345280 0.000793
O O14 0.880133 0.105308 0.750000
#
# Coordination Sequence:
#
# PCOD9440653 Si02
#       5
#     8   8   8   8   8
#     4  11  22  39  60  85 113 148 189 234 281 335
#     4  12  24  39  56  81 115 154 193 234 279 333
#     4  11  22  40  63  88 114 148 188 233 283 338
#     4  11  21  36  57  86 118 150 186 234 286 337
#     4  11  21  36  57  84 115 152 191 233 279 333
#
# _framework density 16.460905
#
# number of rings (size 3 to 8) (size 9 to 14) (size 15 to 20)
#    0.000    0.800    0.000   12.600    0.000    0.000 
#    0.000    1.000    0.000    0.000    0.000    0.000 
#    0.000    0.000    0.000    0.000    0.000    0.000 
#
# Total GULP energy -222818.132489 kJ/mol
# GULP energy per Si atom -5570.453312 kJ/mol
# Density = 1.642344 g / cm^3
# Si number density = 16.460905 Si / 1000 Ang^3
#
#
#
# Elastic Constant Matrix: (Units=GPa)
#
#
# Indices 1 2 3 4 5 6 
#
# 1 161.3355 63.7736 59.7188 0.0000 0.0000 0.0000
# 2 63.7736 125.7563 46.3488 0.0000 0.0000 0.0000
# 3 59.7188 46.3488 224.0576 0.0000 0.0000 0.0000
# 4 0.0000 0.0000 0.0000 38.3958 0.0000 0.0000
# 5 0.0000 0.0000 0.0000 0.0000 44.1376 0.0000
# 6 0.0000 0.0000 0.0000 0.0000 0.0000 35.1279
#
#
#
# Elastic Compliance Matrix: (Units=1/GPa)
#
#
# Indices 1 2 3 4 5 6 
#
# 1 0.008153 -0.003609 -0.001426 0.000000 0.000000 0.000000
# 2 -0.003609 0.010206 -0.001149 0.000000 0.000000 0.000000
# 3 -0.001426 -0.001149 0.005081 0.000000 0.000000 0.000000
# 4 0.000000 0.000000 0.000000 0.026045 0.000000 0.000000
# 5 0.000000 0.000000 0.000000 0.000000 0.022656 0.000000
# 6 0.000000 0.000000 0.000000 0.000000 0.000000 0.028467
#
#
# Mechanical properties :
#
#
# Convention : Reuss Voigt Hill
#
# Bulk Modulus (GPa) = 90.33070 94.53687 92.43379
# Shear Modulus (GPa) = 42.85712 46.28613 44.57162
#
# Velocity S-wave (km/s) = 5.10805 5.30847 5.20923
# Velocity P-wave (km/s) = 9.47548 9.75341 9.61545
#
# Compressibility (1/GPa) = 0.01107043
#
# Stress axis : x y z
#
# Youngs Moduli (GPa) = 122.65817 97.98636 196.80836
#
# Poissons Ratio (x) = 0.35360 0.28074
# Poissons Ratio (y) = 0.44263 0.22619
# Poissons Ratio (z) = 0.17497 0.11261
#
# Static dielectric constant tensor:
#      x y z
#    x 1.569510 0.000000 0.000000 
#    y 0.000000 1.604300 0.000000 
#    z 0.000000 0.000000 1.582200 
# 
# From -- ./inp_files/4285.got.cif
#   From: 2010.05.17/outbox.ucp.g08.bks.cvg/sg57_3_cif.got.tgz:4285.got - 2010.06.11 16:39:23.
