data_PCOD9440857
_publ_section_title
;
Structure prediction by ZEFSAII (Michael W. Deem and Ramdas Pophale) SiO2 
 PCOD9440857
Probable space group: P N N M
;
_chemical_formula_sum "Si O2"
_cell_formula_units_Z 56
_cell_length_a 15.061514
_cell_length_b 21.769690
_cell_length_c 8.210962
_cell_angle_alpha 90.000000
_cell_angle_beta 90.000000
_cell_angle_gamma 90.000000
_cell_volume 2692.247094
_symmetry_space_group_name_H-M "P N N M"
_symmetry_group_IT_number 58
_symmetry_cell_setting 'orthorhombic'
loop_
_space_group_symop_operation_xyz
x,y,z
-x,-y,z
1/2+x,1/2-y,1/2-z
1/2-x,1/2+y,1/2-z
-x,-y,-z
x,y,-z
1/2-x,1/2+y,1/2+z
1/2+x,1/2-y,1/2+z
loop_
_atom_site_type_symbol
_atom_site_label
_atom_site_fract_x
_atom_site_fract_y
_atom_site_fract_z
Si Si1 0.345430 0.848121 0.805654
Si Si2 0.999588 0.734746 0.301552
Si Si3 0.577362 0.544820 0.803444
Si Si4 0.436328 0.637468 0.805697
Si Si5 0.752388 0.892966 0.190321
Si Si6 0.724917 0.023648 0.305886
Si Si7 0.296465 0.244286 0.802336
O O1 0.441994 0.823546 0.747806
O O2 0.330881 0.918434 0.754762
O O3 0.267200 0.800681 0.750058
O O4 0.345017 0.845112 0.000000
O O5 0.003527 0.734289 0.500000
O O6 0.939103 0.792540 0.252956
O O7 0.100339 0.746179 0.248007
O O8 0.500000 0.500000 0.742584
O O9 0.534189 0.610909 0.775533
O O10 0.675321 0.536126 0.738705
O O11 0.582792 0.535344 0.000000
O O12 0.357681 0.600658 0.721936
O O13 0.420805 0.632657 0.000000
O O14 0.733016 0.824195 0.255059
O O15 0.704189 0.952954 0.261674
O O16 0.732674 0.892137 0.000000
O O17 0.726580 0.027497 0.500000
O O18 0.294502 0.245022 0.000000
#
# Coordination Sequence:
#
# PCOD9440857 Si02
#       7
#     8   8   8   8   8   8   8
#     4  11  22  38  61  90 120 148 192 250 298 338
#     4   9  19  36  60  84 111 154 200 236 281 354
#     4   9  16  28  51  79 103 140 191 227 262 343
#     4  10  17  32  56  79 107 145 190 231 280 344
#     4  11  22  35  55  85 118 147 188 241 290 336
#     4  11  22  38  59  80 114 159 198 234 289 355
#     4  10  21  40  63  86 116 158 201 236 285 355
#
# _framework density 20.800467999999999
#
# number of rings (size 3 to 8) (size 9 to 14) (size 15 to 20)
#    0.000    1.857    2.857    2.143    0.000    2.857 
#    0.000    6.429    0.000    4.286    0.000    0.000 
#    0.000    0.000    0.000    0.000    0.000    0.000 
#
# Total GULP energy -312165.808373 kJ/mol
# GULP energy per Si atom -5574.389435 kJ/mol
# Density = 2.075312 g / cm^3
# Si number density = 20.800468 Si / 1000 Ang^3
#
#
#
# Elastic Constant Matrix: (Units=GPa)
#
#
# Indices 1 2 3 4 5 6 
#
# 1 44.2842 5.2288 3.0702 0.0000 0.0000 0.0000
# 2 5.2288 90.5378 14.1171 0.0000 0.0000 0.0000
# 3 3.0702 14.1171 24.8978 0.0000 0.0000 0.0000
# 4 0.0000 0.0000 0.0000 30.3510 0.0000 0.0000
# 5 0.0000 0.0000 0.0000 0.0000 15.4727 0.0000
# 6 0.0000 0.0000 0.0000 0.0000 0.0000 22.5717
#
#
#
# Elastic Compliance Matrix: (Units=1/GPa)
#
#
# Indices 1 2 3 4 5 6 
#
# 1 0.022853 -0.000966 -0.002270 0.000000 0.000000 0.000000
# 2 -0.000966 0.012157 -0.006774 0.000000 0.000000 0.000000
# 3 -0.002270 -0.006774 0.044285 0.000000 0.000000 0.000000
# 4 0.000000 0.000000 0.000000 0.032948 0.000000 0.000000
# 5 0.000000 0.000000 0.000000 0.000000 0.064630 0.000000
# 6 0.000000 0.000000 0.000000 0.000000 0.000000 0.044303
#
#
# Mechanical properties :
#
#
# Convention : Reuss Voigt Hill
#
# Bulk Modulus (GPa) = 16.87066 22.72799 19.79933
# Shear Modulus (GPa) = 19.16042 22.83267 20.99654
#
# Velocity S-wave (km/s) = 3.03834 3.31675 3.18059
# Velocity P-wave (km/s) = 4.52073 5.06144 4.79871
#
# Compressibility (1/GPa) = 0.05927451
#
# Stress axis : x y z
#
# Youngs Moduli (GPa) = 43.75819 82.25630 22.58100
#
# Poissons Ratio (x) = 0.07944 0.05127
# Poissons Ratio (y) = 0.04226 0.15296
# Poissons Ratio (z) = 0.09935 0.55720
#
# Static dielectric constant tensor:
#      x y z
#    x 1.768980 0.000000 0.000000 
#    y 0.000000 1.818060 0.000000 
#    z 0.000000 0.000000 1.740130 
# 
# From -- ./inp_files/6384.got.cif
#   From: 2010.05.17/outbox.cif.g08.bks.cpg/sg58_4_cif.got.tgz:6384.got - 2010.06.03 14:20:14.
