data_PCOD9440100
_publ_section_title
;
Structure prediction by ZEFSAII (Michael W. Deem and Ramdas Pophale) SiO2 
 PCOD9440100
Probable space group: P B C M
;
_chemical_formula_sum "Si O2"
_cell_formula_units_Z 40
_cell_length_a 26.319336
_cell_length_b 9.211219
_cell_length_c 8.605395
_cell_angle_alpha 90.000000
_cell_angle_beta 90.000000
_cell_angle_gamma 90.000000
_cell_volume 2086.233170
_symmetry_space_group_name_H-M "P B C M"
_symmetry_group_IT_number 57
_symmetry_cell_setting 'orthorhombic'
loop_
_space_group_symop_operation_xyz
x,y,z
-x,-y,1/2+z
x,1/2-y,-z
-x,1/2+y,1/2-z
-x,-y,-z
x,y,1/2-z
-x,1/2+y,z
x,1/2-y,1/2+z
loop_
_atom_site_type_symbol
_atom_site_label
_atom_site_fract_x
_atom_site_fract_y
_atom_site_fract_z
Si Si1 0.843753 0.914318 0.936250
Si Si2 0.252611 0.912905 0.563982
Si Si3 0.650656 0.913254 0.936968
Si Si4 0.951988 0.586663 0.563808
Si Si5 0.451699 0.913112 0.436112
O O1 0.844543 0.910076 0.750000
O O2 0.837077 0.750000 0.000000
O O3 0.898003 0.969790 0.999636
O O4 0.797977 0.012461 0.996857
O O5 0.257338 0.750000 0.500000
O O6 0.250560 0.911096 0.750000
O O7 0.300694 0.006352 0.507700
O O8 0.655078 0.910661 0.750000
O O9 0.599835 0.001982 0.979303
O O10 0.647430 0.750000 0.000000
O O11 0.955985 0.750000 0.500000
O O12 0.951285 0.586378 0.750000
O O13 0.000000 0.500000 0.500000
O O14 0.450910 0.750000 0.500000
O O15 0.454661 0.908172 0.250000
O O16 0.500000 0.000000 0.500000
#
# Coordination Sequence:
#
# PCOD9440100 Si02
#       5
#     8   8   8   8   8
#     4  11  22  40  63  89 120 158 200 246 298 357
#     4  12  25  42  63  90 122 158 199 249 302 359
#     4  11  24  42  64  92 123 161 203 249 300 358
#     4  11  22  39  61  89 121 158 201 248 300 357
#     4  11  24  41  64  92 126 163 205 252 304 359
#
# _framework density 19.173311999999999
#
# number of rings (size 3 to 8) (size 9 to 14) (size 15 to 20)
#    0.000    0.800    0.000    9.600    0.000    7.200 
#    0.000    4.000    0.000    0.000    0.000    0.000 
#    0.000    0.000    0.000    0.000    0.000    0.000 
#
# Total GULP energy -223914.794804 kJ/mol
# GULP energy per Si atom -5597.869870 kJ/mol
# Density = 1.912967 g / cm^3
# Si number density = 19.173312 Si / 1000 Ang^3
#
#
#
# Elastic Constant Matrix: (Units=GPa)
#
#
# Indices 1 2 3 4 5 6 
#
# 1 219.9055 117.8040 96.8966 0.0000 0.0000 0.0000
# 2 117.8040 159.5095 70.2575 0.0000 0.0000 0.0000
# 3 96.8966 70.2575 177.2561 0.0000 0.0000 0.0000
# 4 0.0000 0.0000 0.0000 39.5698 0.0000 0.0000
# 5 0.0000 0.0000 0.0000 0.0000 35.6410 0.0000
# 6 0.0000 0.0000 0.0000 0.0000 0.0000 43.0314
#
#
#
# Elastic Compliance Matrix: (Units=1/GPa)
#
#
# Indices 1 2 3 4 5 6 
#
# 1 0.008399 -0.005065 -0.002584 0.000000 0.000000 0.000000
# 2 -0.005065 0.010650 -0.001452 0.000000 0.000000 0.000000
# 3 -0.002584 -0.001452 0.007630 0.000000 0.000000 0.000000
# 4 0.000000 0.000000 0.000000 0.025272 0.000000 0.000000
# 5 0.000000 0.000000 0.000000 0.000000 0.028058 0.000000
# 6 0.000000 0.000000 0.000000 0.000000 0.000000 0.023239
#
#
# Mechanical properties :
#
#
# Convention : Reuss Voigt Hill
#
# Bulk Modulus (GPa) = 117.97852 125.17636 121.57744
# Shear Modulus (GPa) = 40.23341 41.76265 40.99803
#
# Velocity S-wave (km/s) = 4.58581 4.67215 4.62918
# Velocity P-wave (km/s) = 9.47131 9.72285 9.59790
#
# Compressibility (1/GPa) = 0.00847612
#
# Stress axis : x y z
#
# Youngs Moduli (GPa) = 119.05690 93.89929 131.06793
#
# Poissons Ratio (x) = 0.47562 0.33866
# Poissons Ratio (y) = 0.60304 0.19035
# Poissons Ratio (z) = 0.30762 0.13637
#
# Static dielectric constant tensor:
#      x y z
#    x 1.651660 0.000000 0.000000 
#    y 0.000000 1.618560 0.000000 
#    z 0.000000 0.000000 1.639800 
# 
# From -- ./inp_files/8887.got.cif
#   From: 2010.05.17/outbox.cif.g08.bks.cpg/sg57_5_cif.got.tgz:8887.got - 2010.06.03 13:58:18.
