data_PCOD9440266
_publ_section_title
;
Structure prediction by ZEFSAII (Michael W. Deem and Ramdas Pophale) SiO2 
 PCOD9440266
Probable space group: P B C M
;
_chemical_formula_sum "Si O2"
_cell_formula_units_Z 32
_cell_length_a 5.102950
_cell_length_b 9.859901
_cell_length_c 25.077436
_cell_angle_alpha 90.000000
_cell_angle_beta 90.000000
_cell_angle_gamma 90.000000
_cell_volume 1261.760705
_symmetry_space_group_name_H-M "P B C M"
_symmetry_group_IT_number 57
_symmetry_cell_setting 'orthorhombic'
loop_
_space_group_symop_operation_xyz
x,y,z
-x,-y,1/2+z
x,1/2-y,-z
-x,1/2+y,1/2-z
-x,-y,-z
x,y,1/2-z
-x,1/2+y,z
x,1/2-y,1/2+z
loop_
_atom_site_type_symbol
_atom_site_label
_atom_site_fract_x
_atom_site_fract_y
_atom_site_fract_z
Si Si1 0.652255 0.912679 0.858452
Si Si2 0.997156 0.280128 0.417489
Si Si3 0.854409 0.300345 0.690376
Si Si4 0.315259 0.979571 0.949938
O O1 0.739614 0.804137 0.904252
O O2 0.434911 0.858917 0.817334
O O3 0.484040 0.011805 0.896224
O O4 0.925390 0.912223 0.825719
O O5 0.805028 0.170691 0.443761
O O6 0.075087 0.413761 0.448548
O O7 0.890071 0.307206 0.357565
O O8 0.896276 0.250786 0.750000
O O9 0.500000 0.000000 0.000000
#
# Coordination Sequence:
#
# PCOD9440266 Si02
#       4
#     8   8   8   8
#     4   9  21  41  69 105 148 190 259 310 376 469
#     4   9  24  46  75 112 153 199 266 319 385 478
#     4   9  18  41  72 107 149 197 250 317 392 458
#     4  11  24  50  78 108 161 208 261 330 399 458
#
# _framework density 25.361384000000001
#
# number of rings (size 3 to 8) (size 9 to 14) (size 15 to 20)
#    1.500    1.000    0.000    0.750    0.000    6.000 
#    4.500    7.500    0.000    0.000    0.000    0.000 
#    0.000    0.000    0.000    0.000    0.000    0.000 
#
# Total GULP energy -178489.498118 kJ/mol
# GULP energy per Si atom -5577.796816 kJ/mol
# Density = 2.530366 g / cm^3
# Si number density = 25.361384 Si / 1000 Ang^3
#
#
#
# Elastic Constant Matrix: (Units=GPa)
#
#
# Indices 1 2 3 4 5 6 
#
# 1 159.0721 37.0462 46.3779 0.0000 0.0000 0.0000
# 2 37.0462 89.6622 53.9420 0.0000 0.0000 0.0000
# 3 46.3779 53.9420 178.2944 0.0000 0.0000 0.0000
# 4 0.0000 0.0000 0.0000 22.5501 0.0000 0.0000
# 5 0.0000 0.0000 0.0000 0.0000 43.7343 0.0000
# 6 0.0000 0.0000 0.0000 0.0000 0.0000 38.0474
#
#
#
# Elastic Compliance Matrix: (Units=1/GPa)
#
#
# Indices 1 2 3 4 5 6 
#
# 1 0.007154 -0.002245 -0.001182 0.000000 0.000000 0.000000
# 2 -0.002245 0.014339 -0.003754 0.000000 0.000000 0.000000
# 3 -0.001182 -0.003754 0.007052 0.000000 0.000000 0.000000
# 4 0.000000 0.000000 0.000000 0.044346 0.000000 0.000000
# 5 0.000000 0.000000 0.000000 0.000000 0.022865 0.000000
# 6 0.000000 0.000000 0.000000 0.000000 0.000000 0.026283
#
#
# Mechanical properties :
#
#
# Convention : Reuss Voigt Hill
#
# Bulk Modulus (GPa) = 70.50605 77.97346 74.23975
# Shear Modulus (GPa) = 35.42876 40.17719 37.80297
#
# Velocity S-wave (km/s) = 3.74164 3.98450 3.86498
# Velocity P-wave (km/s) = 6.82110 7.20972 7.01810
#
# Compressibility (1/GPa) = 0.01418318
#
# Stress axis : x y z
#
# Youngs Moduli (GPa) = 139.78628 69.73928 141.80534
#
# Poissons Ratio (x) = 0.15655 0.16757
# Poissons Ratio (y) = 0.31380 0.53238
# Poissons Ratio (z) = 0.16518 0.26182
#
# Static dielectric constant tensor:
#      x y z
#    x 2.012960 0.000000 0.000000 
#    y 0.000000 2.525010 0.000000 
#    z 0.000000 0.000000 2.027560 
# 
# From -- ./inp_files/27758.got.cif
#   From: 2010.05.17/outbox.cif.g08.bks.cpg/sg57_14_cif.got.tgz:27758.got - 2010.06.03 13:58:18.
