data_PCOD9440875
_publ_section_title
;
Structure prediction by ZEFSAII (Michael W. Deem and Ramdas Pophale) SiO2 
 PCOD9440875
Probable space group: P N N M
;
_chemical_formula_sum "Si O2"
_cell_formula_units_Z 64
_cell_length_a 11.961216
_cell_length_b 8.834117
_cell_length_c 29.475630
_cell_angle_alpha 90.000000
_cell_angle_beta 90.000000
_cell_angle_gamma 90.000000
_cell_volume 3114.594958
_symmetry_space_group_name_H-M "P N N M"
_symmetry_group_IT_number 58
_symmetry_cell_setting 'orthorhombic'
loop_
_space_group_symop_operation_xyz
x,y,z
-x,-y,z
1/2+x,1/2-y,1/2-z
1/2-x,1/2+y,1/2-z
-x,-y,-z
x,y,-z
1/2-x,1/2+y,1/2+z
1/2+x,1/2-y,1/2+z
loop_
_atom_site_type_symbol
_atom_site_label
_atom_site_fract_x
_atom_site_fract_y
_atom_site_fract_z
Si Si1 0.023480 0.323980 0.046803
Si Si2 0.747941 0.588145 0.071708
Si Si3 0.424325 0.349627 0.797665
Si Si4 0.904728 0.123125 0.888805
Si Si5 0.978570 0.181824 0.397912
Si Si6 0.202786 0.265486 0.446948
Si Si7 0.451207 0.229725 0.301507
Si Si8 0.676939 0.078759 0.324011
O O1 0.155803 0.313895 0.049023
O O2 0.000000 0.500000 0.044286
O O3 0.965001 0.271889 0.091950
O O4 0.979636 0.250439 0.000000
O O5 0.632903 0.680577 0.071927
O O6 0.737386 0.415205 0.053885
O O7 0.786478 0.571455 0.123756
O O8 0.500000 0.500000 0.795991
O O9 0.454300 0.270118 0.845906
O O10 0.448333 0.261951 0.751626
O O11 0.292785 0.389312 0.798499
O O12 0.789130 0.132668 0.917026
O O13 0.898248 0.142316 0.834642
O O14 0.000000 0.000000 0.900362
O O15 0.082919 0.261850 0.421589
O O16 0.000000 0.000000 0.394745
O O17 0.197536 0.309715 0.500000
O O18 0.580275 0.201921 0.315536
O O19 0.379159 0.079465 0.310645
#
# Coordination Sequence:
#
# PCOD9440875 Si02
#       8
#     8   8   8   8   8   8   8   8
#     4  11  20  33  57  85 116 157 202 251 306 364
#     4  10  17  35  58  87 117 150 206 255 305 358
#     4  10  22  37  60  90 121 157 197 254 313 367
#     4  12  25  39  57  88 124 164 205 255 310 375
#     4   8  19  35  56  85 120 153 196 256 312 360
#     4  11  21  35  60  88 124 162 201 256 317 378
#     4  11  22  39  62  86 119 166 209 252 307 374
#     4  10  21  38  62  87 119 164 198 255 315 367
#
# _framework density 20.548418000000002
#
# number of rings (size 3 to 8) (size 9 to 14) (size 15 to 20)
#    0.000    1.625    3.750    1.875    1.750    3.750 
#    0.000    0.000    0.000    0.750    0.000    1.750 
#    0.000    0.000    0.000    0.000    0.000    0.000 
#
# Total GULP energy -356801.701962 kJ/mol
# GULP energy per Si atom -5575.026593 kJ/mol
# Density = 2.050165 g / cm^3
# Si number density = 20.548418 Si / 1000 Ang^3
#
#
#
# Elastic Constant Matrix: (Units=GPa)
#
#
# Indices 1 2 3 4 5 6 
#
# 1 160.0191 15.5490 46.6348 0.0000 0.0000 0.0000
# 2 15.5490 15.5020 10.2067 0.0000 0.0000 0.0000
# 3 46.6348 10.2067 103.0471 0.0000 0.0000 0.0000
# 4 0.0000 0.0000 0.0000 8.8069 0.0000 0.0000
# 5 0.0000 0.0000 0.0000 0.0000 29.9371 0.0000
# 6 0.0000 0.0000 0.0000 0.0000 0.0000 24.0385
#
#
#
# Elastic Compliance Matrix: (Units=1/GPa)
#
#
# Indices 1 2 3 4 5 6 
#
# 1 0.007653 -0.005772 -0.002892 0.000000 0.000000 0.000000
# 2 -0.005772 0.073362 -0.004654 0.000000 0.000000 0.000000
# 3 -0.002892 -0.004654 0.011474 0.000000 0.000000 0.000000
# 4 0.000000 0.000000 0.000000 0.113548 0.000000 0.000000
# 5 0.000000 0.000000 0.000000 0.000000 0.033403 0.000000
# 6 0.000000 0.000000 0.000000 0.000000 0.000000 0.041600
#
#
# Mechanical properties :
#
#
# Convention : Reuss Voigt Hill
#
# Bulk Modulus (GPa) = 15.18544 47.03880 31.11212
# Shear Modulus (GPa) = 15.16870 26.30168 20.73519
#
# Velocity S-wave (km/s) = 2.71992 3.58157 3.18006
# Velocity P-wave (km/s) = 4.15573 6.32810 5.35327
#
# Compressibility (1/GPa) = 0.06585254
#
# Stress axis : x y z
#
# Youngs Moduli (GPa) = 130.67023 13.63109 87.15413
#
# Poissons Ratio (x) = 0.07868 0.25202
# Poissons Ratio (y) = 0.75425 0.40563
# Poissons Ratio (z) = 0.37785 0.06344
#
# Static dielectric constant tensor:
#      x y z
#    x 1.795820 0.000000 0.000000 
#    y 0.000000 1.759110 0.000000 
#    z 0.000000 0.000000 1.770840 
# 
# From -- ./inp_files/34960.got.cif
#   From: 2010.05.17/outbox.cif.g08.bks.cpg/sg58_18_cif.got.tgz:34960.got - 2010.06.03 14:20:14.
