data_PCOD9440248
_publ_section_title
;
Structure prediction by ZEFSAII (Michael W. Deem and Ramdas Pophale) SiO2 
 PCOD9440248
Probable space group: P B C M
;
_chemical_formula_sum "Si O2"
_cell_formula_units_Z 32
_cell_length_a 18.997729
_cell_length_b 8.564145
_cell_length_c 9.884328
_cell_angle_alpha 90.000000
_cell_angle_beta 90.000000
_cell_angle_gamma 90.000000
_cell_volume 1608.173304
_symmetry_space_group_name_H-M "P B C M"
_symmetry_group_IT_number 57
_symmetry_cell_setting 'orthorhombic'
loop_
_space_group_symop_operation_xyz
x,y,z
-x,-y,1/2+z
x,1/2-y,-z
-x,1/2+y,1/2-z
-x,-y,-z
x,y,1/2-z
-x,1/2+y,z
x,1/2-y,1/2+z
loop_
_atom_site_type_symbol
_atom_site_label
_atom_site_fract_x
_atom_site_fract_y
_atom_site_fract_z
Si Si1 0.941266 0.592370 0.913133
Si Si2 0.403614 0.929983 0.250000
Si Si3 0.202414 0.603223 0.402243
Si Si4 0.557443 0.065824 0.250000
Si Si5 0.655800 0.935283 0.019466
O O1 0.958188 0.615604 0.750000
O O2 0.869401 0.493420 0.917540
O O3 0.931083 0.750000 0.000000
O O4 0.000000 0.500000 0.000000
O O5 0.425447 0.749234 0.250000
O O6 0.474860 0.032220 0.250000
O O7 0.359273 0.975267 0.380721
O O8 0.204399 0.750000 0.500000
O O9 0.206203 0.664270 0.250000
O O10 0.269174 0.491857 0.425712
O O11 0.594437 0.987099 0.121323
O O12 0.654612 0.750000 0.000000
#
# Coordination Sequence:
#
# PCOD9440248 Si02
#       5
#     8   4   8   4   8
#     4  11  24  44  69 102 140 182 231 283 343 410
#     4  12  26  42  70  96 129 178 215 282 334 406
#     4  11  25  44  68  98 135 176 224 276 336 406
#     4  12  24  46  66  96 133 168 227 270 342 406
#     4  12  25  44  66  97 133 173 223 276 339 402
#
# _framework density 19.898353
#
# number of rings (size 3 to 8) (size 9 to 14) (size 15 to 20)
#    0.000    0.500    1.250    7.500    1.750    4.000 
#    0.000    0.000    0.000    0.000    0.000    0.000 
#    0.000    0.000    0.000    0.000    0.000    0.000 
#
# Total GULP energy -179063.500233 kJ/mol
# GULP energy per Si atom -5595.734382 kJ/mol
# Density = 1.985306 g / cm^3
# Si number density = 19.898353 Si / 1000 Ang^3
#
#
#
# Elastic Constant Matrix: (Units=GPa)
#
#
# Indices 1 2 3 4 5 6 
#
# 1 86.7452 -0.0081 27.9929 0.0000 0.0000 0.0000
# 2 -0.0081 138.2064 40.3739 0.0000 0.0000 0.0000
# 3 27.9929 40.3739 147.2020 0.0000 0.0000 0.0000
# 4 0.0000 0.0000 0.0000 35.9194 0.0000 0.0000
# 5 0.0000 0.0000 0.0000 0.0000 40.3576 0.0000
# 6 0.0000 0.0000 0.0000 0.0000 0.0000 24.4167
#
#
#
# Elastic Compliance Matrix: (Units=1/GPa)
#
#
# Indices 1 2 3 4 5 6 
#
# 1 0.012352 0.000747 -0.002554 0.000000 0.000000 0.000000
# 2 0.000747 0.007911 -0.002312 0.000000 0.000000 0.000000
# 3 -0.002554 -0.002312 0.007913 0.000000 0.000000 0.000000
# 4 0.000000 0.000000 0.000000 0.027840 0.000000 0.000000
# 5 0.000000 0.000000 0.000000 0.000000 0.024778 0.000000
# 6 0.000000 0.000000 0.000000 0.000000 0.000000 0.040956
#
#
# Mechanical properties :
#
#
# Convention : Reuss Voigt Hill
#
# Bulk Modulus (GPa) = 50.15398 56.54120 53.34759
# Shear Modulus (GPa) = 36.59404 40.39173 38.49288
#
# Velocity S-wave (km/s) = 4.29307 4.51033 4.40304
# Velocity P-wave (km/s) = 7.05930 7.45660 7.26067
#
# Compressibility (1/GPa) = 0.01993860
#
# Stress axis : x y z
#
# Youngs Moduli (GPa) = 80.95725 126.40735 126.37278
#
# Poissons Ratio (x) = -0.09440 0.32273
# Poissons Ratio (y) = -0.06046 0.29215
# Poissons Ratio (z) = 0.20675 0.29223
#
# Static dielectric constant tensor:
#      x y z
#    x 1.674050 0.000000 0.000000 
#    y 0.000000 1.666320 0.000000 
#    z 0.000000 0.000000 1.675770 
# 
# From -- ./inp_files/7568.got.cif
#   From: 2010.05.17/outbox.cif.g08.bks.cpg/sg57_4_cif.got.tgz:7568.got - 2010.06.03 13:58:18.
