data_PCOD9440533
_publ_section_title
;
Structure prediction by ZEFSAII (Michael W. Deem and Ramdas Pophale) SiO2 
 PCOD9440533
Probable space group: P B C M
;
_chemical_formula_sum "Si O2"
_cell_formula_units_Z 48
_cell_length_a 18.000000
_cell_length_b 15.000000
_cell_length_c 9.000000
_cell_angle_alpha 90.000000
_cell_angle_beta 90.000000
_cell_angle_gamma 90.000000
_cell_volume 2430.000000
_symmetry_space_group_name_H-M "P B C M"
_symmetry_group_IT_number 57
_symmetry_cell_setting 'orthorhombic'
loop_
_space_group_symop_operation_xyz
x,y,z
-x,-y,1/2+z
x,1/2-y,-z
-x,1/2+y,1/2-z
-x,-y,-z
x,y,1/2-z
-x,1/2+y,z
x,1/2-y,1/2+z
loop_
_atom_site_type_symbol
_atom_site_label
_atom_site_fract_x
_atom_site_fract_y
_atom_site_fract_z
Si Si1 0.028753 0.909195 0.574044
Si Si2 0.599845 0.528334 0.071777
Si Si3 0.179036 0.658925 0.927469
Si Si4 0.460524 0.650825 0.071112
Si Si5 0.870661 0.836728 0.575617
Si Si6 0.240066 0.478720 0.570310
O O1 0.043725 0.921044 0.750000
O O2 0.098846 0.869834 0.489282
O O3 0.958315 0.844840 0.557501
O O4 0.000000 0.000000 0.500000
O O5 0.595658 0.512870 0.250000
O O6 0.541248 0.606134 0.037291
O O7 0.681508 0.561336 0.029961
O O8 0.587707 0.432134 0.994011
O O9 0.175551 0.666579 0.750000
O O10 0.233683 0.580455 0.974909
O O11 0.202476 0.750000 0.000000
O O12 0.451439 0.657600 0.250000
O O13 0.451091 0.750000 0.000000
O O14 0.839871 0.750000 0.500000
O O15 0.856339 0.831881 0.750000
O O16 0.829612 0.923421 0.513776
O O17 0.235025 0.480282 0.750000
#
# Coordination Sequence:
#
# PCOD9440533 Si02
#       6
#     8   8   8   8   8   8
#     4  11  21  36  58  81 108 144 187 236 286 334
#     4   9  19  37  60  83 111 149 186 227 274 324
#     4  11  22  38  57  80 110 146 188 235 282 336
#     4  10  20  35  58  87 116 146 183 225 271 326
#     4  10  21  37  55  79 108 143 182 226 276 328
#     4   9  19  38  58  78 112 149 182 225 280 330
#
# _framework density 19.753086
#
# number of rings (size 3 to 8) (size 9 to 14) (size 15 to 20)
#    0.000    2.000    1.667    2.000    0.000    4.667 
#    0.000    4.167    0.000    0.000    0.000    0.000 
#    0.000    0.000    0.000    0.000    0.000    0.000 
#
# Total GULP energy -267381.389161 kJ/mol
# GULP energy per Si atom -5570.445608 kJ/mol
# Density = 1.970813 g / cm^3
# Si number density = 19.753086 Si / 1000 Ang^3
#
#
#
# Elastic Constant Matrix: (Units=GPa)
#
#
# Indices 1 2 3 4 5 6 
#
# 1 43.4299 -13.6068 12.0185 0.0000 0.0000 0.0000
# 2 -13.6068 78.2504 18.0151 0.0000 0.0000 0.0000
# 3 12.0185 18.0151 32.7411 0.0000 0.0000 0.0000
# 4 0.0000 0.0000 0.0000 33.5021 0.0000 0.0000
# 5 0.0000 0.0000 0.0000 0.0000 7.1475 0.0000
# 6 0.0000 0.0000 0.0000 0.0000 0.0000 -84.0121
#
#
#
# Elastic Compliance Matrix: (Units=1/GPa)
#
#
# Indices 1 2 3 4 5 6 
#
# 1 0.030270 0.008956 -0.016040 0.000000 0.000000 0.000000
# 2 0.008956 0.017283 -0.012797 0.000000 0.000000 0.000000
# 3 -0.016040 -0.012797 0.043472 0.000000 0.000000 0.000000
# 4 0.000000 0.000000 0.000000 0.029849 0.000000 0.000000
# 5 0.000000 0.000000 0.000000 0.000000 0.139910 0.000000
# 6 0.000000 0.000000 0.000000 0.000000 0.000000 -0.011903
#
#
# Mechanical properties :
#
#
# Convention : Reuss Voigt Hill
#
# Bulk Modulus (GPa) = 19.50680 20.80834 20.15757
# Shear Modulus (GPa) = 16.35429 0.52712 8.44071
#
# Velocity S-wave (km/s) = 2.88051 0.51714 2.06939
# Velocity P-wave (km/s) = 4.57819 3.30358 3.99209
#
# Compressibility (1/GPa) = 0.05126418
#
# Stress axis : x y z
#
# Youngs Moduli (GPa) = 33.03565 57.85986 23.00335
#
# Poissons Ratio (x) = -0.51821 0.36896
# Poissons Ratio (y) = -0.29588 0.29438
# Poissons Ratio (z) = 0.52988 0.74045
#
# Static dielectric constant tensor:
#      x y z
#    x 1.724990 0.000000 0.000000 
#    y 0.000000 1.715040 0.000000 
#    z 0.000000 0.000000 1.671880 
# 
# From -- ./inp_files/6469.got.cif
#   From: 2010.05.17/outbox.ucp.g08.bks.cvg/sg57_4_cif.got.tgz:6469.got - 2010.06.11 16:39:23.
