data_PCOD9440052
_publ_section_title
;
Structure prediction by ZEFSAII (Michael W. Deem and Ramdas Pophale) SiO2 
 PCOD9440052
Probable space group: P B C M
;
_chemical_formula_sum "Si O2"
_cell_formula_units_Z 48
_cell_length_a 4.984285
_cell_length_b 16.705565
_cell_length_c 28.391378
_cell_angle_alpha 90.000000
_cell_angle_beta 90.000000
_cell_angle_gamma 90.000000
_cell_volume 2364.016523
_symmetry_space_group_name_H-M "P B C M"
_symmetry_group_IT_number 57
_symmetry_cell_setting 'orthorhombic'
loop_
_space_group_symop_operation_xyz
x,y,z
-x,-y,1/2+z
x,1/2-y,-z
-x,1/2+y,1/2-z
-x,-y,-z
x,y,1/2-z
-x,1/2+y,z
x,1/2-y,1/2+z
loop_
_atom_site_type_symbol
_atom_site_label
_atom_site_fract_x
_atom_site_fract_y
_atom_site_fract_z
Si Si1 0.250247 0.512076 0.966413
Si Si2 0.112484 0.871974 0.390537
Si Si3 0.642077 0.600671 0.123069
Si Si4 0.155565 0.699247 0.146971
Si Si5 0.616752 0.554840 0.656773
Si Si6 0.820619 0.866074 0.250000
Si Si7 0.682137 0.258854 0.250000
O O1 0.223633 0.598346 0.940734
O O2 0.279930 0.447409 0.924201
O O3 0.500000 0.500000 0.000000
O O4 0.000000 0.500000 0.000000
O O5 0.354496 0.893329 0.355038
O O6 0.051457 0.780420 0.378284
O O7 0.848646 0.925849 0.381211
O O8 0.911688 0.636749 0.144784
O O9 0.490674 0.534953 0.155157
O O10 0.415879 0.668643 0.118427
O O11 0.246259 0.714780 0.201009
O O12 0.748123 0.582632 0.704770
O O13 0.124305 0.836528 0.250000
O O14 0.625492 0.788226 0.250000
#
# Coordination Sequence:
#
# PCOD9440052 Si02
#       7
#     8   8   8   8   8   4   4
#     4  11  23  45  70  93 122 167 219 271 327 398
#     4  11  22  41  66  93 126 176 217 261 332 397
#     4  11  25  41  64  95 134 164 213 277 348 377
#     4  12  23  42  62  97 136 176 208 271 331 392
#     4  11  21  39  62  91 125 173 222 267 308 386
#     4  12  20  38  62  94 120 170 240 264 292 388
#     4  12  24  38  64  94 136 174 226 254 318 394
#
# _framework density 20.304424999999998
#
# number of rings (size 3 to 8) (size 9 to 14) (size 15 to 20)
#    0.000    0.667    3.333    7.000    0.000    1.333 
#    0.000    5.000    0.000    0.000    0.000    0.000 
#    0.000    0.000    0.000    0.000    0.000    0.000 
#
# Total GULP energy -268219.621561 kJ/mol
# GULP energy per Si atom -5587.908783 kJ/mol
# Density = 2.025821 g / cm^3
# Si number density = 20.304425 Si / 1000 Ang^3
#
#
#
# Elastic Constant Matrix: (Units=GPa)
#
#
# Indices 1 2 3 4 5 6 
#
# 1 109.5483 12.6460 12.6893 0.0000 0.0000 0.0000
# 2 12.6460 68.9783 35.5753 0.0000 0.0000 0.0000
# 3 12.6893 35.5753 76.9381 0.0000 0.0000 0.0000
# 4 0.0000 0.0000 0.0000 20.7351 0.0000 0.0000
# 5 0.0000 0.0000 0.0000 0.0000 36.6752 0.0000
# 6 0.0000 0.0000 0.0000 0.0000 0.0000 41.7076
#
#
#
# Elastic Compliance Matrix: (Units=1/GPa)
#
#
# Indices 1 2 3 4 5 6 
#
# 1 0.009383 -0.001211 -0.000988 0.000000 0.000000 0.000000
# 2 -0.001211 0.019193 -0.008675 0.000000 0.000000 0.000000
# 3 -0.000988 -0.008675 0.017172 0.000000 0.000000 0.000000
# 4 0.000000 0.000000 0.000000 0.048227 0.000000 0.000000
# 5 0.000000 0.000000 0.000000 0.000000 0.027266 0.000000
# 6 0.000000 0.000000 0.000000 0.000000 0.000000 0.023976
#
#
# Mechanical properties :
#
#
# Convention : Reuss Voigt Hill
#
# Bulk Modulus (GPa) = 41.66560 41.92064 41.79312
# Shear Modulus (GPa) = 28.57711 32.79385 30.68548
#
# Velocity S-wave (km/s) = 3.75565 4.02320 3.89172
# Velocity P-wave (km/s) = 6.27467 6.50172 6.38921
#
# Compressibility (1/GPa) = 0.02400061
#
# Stress axis : x y z
#
# Youngs Moduli (GPa) = 106.58077 52.10107 58.23562
#
# Poissons Ratio (x) = 0.06308 0.05751
# Poissons Ratio (y) = 0.12905 0.50520
# Poissons Ratio (z) = 0.10526 0.45198
#
# Static dielectric constant tensor:
#      x y z
#    x 1.702310 0.000000 0.000000 
#    y 0.000000 1.785150 0.000000 
#    z 0.000000 0.000000 1.741530 
# 
# From -- ./inp_files/27988.got.cif
#   From: 2010.05.17/outbox.cif.g08.bks.cpg/sg57_14_cif.got.tgz:27988.got - 2010.06.03 13:58:18.
