data_PCOD9440757
_publ_section_title
;
Structure prediction by ZEFSAII (Michael W. Deem and Ramdas Pophale) SiO2 
 PCOD9440757
Probable space group: P N N M
;
_chemical_formula_sum "Si O2"
_cell_formula_units_Z 48
_cell_length_a 10.011999
_cell_length_b 14.911002
_cell_length_c 14.348336
_cell_angle_alpha 90.000000
_cell_angle_beta 90.000000
_cell_angle_gamma 90.000000
_cell_volume 2142.047831
_symmetry_space_group_name_H-M "P N N M"
_symmetry_group_IT_number 58
_symmetry_cell_setting 'orthorhombic'
loop_
_space_group_symop_operation_xyz
x,y,z
-x,-y,z
1/2+x,1/2-y,1/2-z
1/2-x,1/2+y,1/2-z
-x,-y,-z
x,y,-z
1/2-x,1/2+y,1/2+z
1/2+x,1/2-y,1/2+z
loop_
_atom_site_type_symbol
_atom_site_label
_atom_site_fract_x
_atom_site_fract_y
_atom_site_fract_z
Si Si1 0.345677 0.031359 0.101757
Si Si2 0.261039 0.363466 0.148771
Si Si3 0.984009 0.289783 0.142766
Si Si4 0.266365 0.071655 0.309934
Si Si5 0.262843 0.340125 0.627709
Si Si6 0.962813 0.788545 0.652606
O O1 0.257925 0.941122 0.097631
O O2 0.500000 0.000000 0.113192
O O3 0.300567 0.075425 0.198867
O O4 0.335008 0.077837 0.000000
O O5 0.247339 0.471264 0.150571
O O6 0.263205 0.341552 0.259593
O O7 0.399174 0.323953 0.110530
O O8 0.129779 0.316419 0.108270
O O9 0.886656 0.375492 0.140583
O O10 0.899380 0.208461 0.100103
O O11 0.002651 0.261399 0.250769
O O12 0.130483 0.126063 0.325696
O O13 0.134109 0.280927 0.600642
#
# Coordination Sequence:
#
# PCOD9440757 Si02
#       6
#     8   8   8   8   8   8
#     4  10  19  30  46  67  95 135 173 197 223 275
#     4   9  15  24  40  63  86 113 142 179 240 293
#     4   9  16  26  42  61  85 117 151 190 238 282
#     4  10  17  27  42  64  94 120 151 194 234 279
#     4   8  16  28  41  61  87 116 155 193 228 271
#     4   9  16  25  41  63  86 114 148 191 239 278
#
# _framework density 22.408463999999999
#
# number of rings (size 3 to 8) (size 9 to 14) (size 15 to 20)
#    0.000    2.833    0.000    5.000    0.000    0.000 
#    0.000    0.000    0.000   18.000    0.000    3.500 
#    0.000   21.333    0.000  101.333    0.000   53.500 
#
# Total GULP energy -267804.284262 kJ/mol
# GULP energy per Si atom -5579.255922 kJ/mol
# Density = 2.235746 g / cm^3
# Si number density = 22.408464 Si / 1000 Ang^3
#
#
#
# Elastic Constant Matrix: (Units=GPa)
#
#
# Indices 1 2 3 4 5 6 
#
# 1 153.3837 43.5191 -4.4830 0.0000 0.0000 0.0000
# 2 43.5191 70.1185 -12.7484 0.0000 0.0000 0.0000
# 3 -4.4830 -12.7484 68.4915 0.0000 0.0000 0.0000
# 4 0.0000 0.0000 0.0000 -14.8381 0.0000 0.0000
# 5 0.0000 0.0000 0.0000 0.0000 -44.7659 0.0000
# 6 0.0000 0.0000 0.0000 0.0000 0.0000 24.7494
#
#
#
# Elastic Compliance Matrix: (Units=1/GPa)
#
#
# Indices 1 2 3 4 5 6 
#
# 1 0.007924 -0.004993 -0.000411 0.000000 0.000000 0.000000
# 2 -0.004993 0.017907 0.003006 0.000000 0.000000 0.000000
# 3 -0.000411 0.003006 0.015133 0.000000 0.000000 0.000000
# 4 0.000000 0.000000 0.000000 -0.067394 0.000000 0.000000
# 5 0.000000 0.000000 0.000000 0.000000 -0.022338 0.000000
# 6 0.000000 0.000000 0.000000 0.000000 0.000000 0.040405
#
#
# Mechanical properties :
#
#
# Convention : Reuss Voigt Hill
#
# Bulk Modulus (GPa) = 27.64747 38.28548 32.96647
# Shear Modulus (GPa) = 589.07759 10.74281 299.91020
#
# Velocity S-wave (km/s) = 16.23122 2.19192 11.58138
# Velocity P-wave (km/s) = 19.06921 4.85060 13.91336
#
# Compressibility (1/GPa) = 0.03616968
#
# Stress axis : x y z
#
# Youngs Moduli (GPa) = 126.19586 55.84430 66.08066
#
# Poissons Ratio (x) = 0.27882 0.02714
# Poissons Ratio (y) = 0.63007 -0.19865
# Poissons Ratio (z) = 0.05182 -0.16788
#
# Static dielectric constant tensor:
#      x y z
#    x 1.818770 0.000000 0.000000 
#    y 0.000000 1.816180 0.000000 
#    z 0.000000 0.000000 1.873320 
# 
# From -- ./inp_files/29685.got.cif
#   From: 2010.05.17/outbox.cif.g08.bks.cpg/sg58_15_cif.got.tgz:29685.got - 2010.06.03 14:20:14.
