data_PCOD9440723
_publ_section_title
;
Structure prediction by ZEFSAII (Michael W. Deem and Ramdas Pophale) SiO2 
 PCOD9440723
Probable space group: P N N M
;
_chemical_formula_sum "Si O2"
_cell_formula_units_Z 40
_cell_length_a 6.987526
_cell_length_b 26.871335
_cell_length_c 9.168578
_cell_angle_alpha 90.000000
_cell_angle_beta 90.000000
_cell_angle_gamma 90.000000
_cell_volume 1721.530273
_symmetry_space_group_name_H-M "P N N M"
_symmetry_group_IT_number 58
_symmetry_cell_setting 'orthorhombic'
loop_
_space_group_symop_operation_xyz
x,y,z
-x,-y,z
1/2+x,1/2-y,1/2-z
1/2-x,1/2+y,1/2-z
-x,-y,-z
x,y,-z
1/2-x,1/2+y,1/2+z
1/2+x,1/2-y,1/2+z
loop_
_atom_site_type_symbol
_atom_site_label
_atom_site_fract_x
_atom_site_fract_y
_atom_site_fract_z
Si Si1 0.231047 0.491498 0.331239
Si Si2 0.034496 0.281768 0.662341
Si Si3 0.609933 0.112645 0.176603
Si Si4 0.704523 0.410678 0.173191
Si Si5 0.094549 0.183810 0.836410
O O1 0.283028 0.499102 0.500000
O O2 0.250759 0.433364 0.292380
O O3 0.329007 0.534196 0.236832
O O4 0.000000 0.500000 0.322141
O O5 0.093083 0.264866 0.500000
O O6 0.161765 0.329751 0.706858
O O7 0.022294 0.235220 0.768282
O O8 0.822326 0.304467 0.653199
O O9 0.420721 0.101410 0.270933
O O10 0.569743 0.109914 0.000000
O O11 0.581759 0.365518 0.239759
O O12 0.693507 0.410688 0.000000
O O13 0.023237 0.174276 0.000000
#
# Coordination Sequence:
#
# PCOD9440723 Si02
#       5
#     8   8   8   8   8
#     4   8  13  23  38  56  83 117 146 176 222 273
#     4   9  18  32  48  68  93 120 154 191 224 266
#     4   8  15  27  41  59  87 119 147 181 226 272
#     4  10  17  24  38  61  88 116 148 187 225 264
#     4  10  20  33  48  67  93 124 155 188 229 274
#
# _framework density 23.235142
#
# number of rings (size 3 to 8) (size 9 to 14) (size 15 to 20)
#    0.000    3.000    0.000    4.800    0.000    7.600 
#    0.000    0.000    0.000    0.000    0.000    1.400 
#    0.000   11.200    0.000    0.000    0.000    0.000 
#
# Total GULP energy -223390.788072 kJ/mol
# GULP energy per Si atom -5584.769702 kJ/mol
# Density = 2.318226 g / cm^3
# Si number density = 23.235142 Si / 1000 Ang^3
#
#
#
# Elastic Constant Matrix: (Units=GPa)
#
#
# Indices 1 2 3 4 5 6 
#
# 1 63.5443 33.5864 15.2736 0.0000 0.0000 0.0000
# 2 33.5864 223.4129 116.1433 0.0000 0.0000 0.0000
# 3 15.2736 116.1433 132.1273 0.0000 0.0000 0.0000
# 4 0.0000 0.0000 0.0000 40.7605 0.0000 0.0000
# 5 0.0000 0.0000 0.0000 0.0000 961.9297 0.0000
# 6 0.0000 0.0000 0.0000 0.0000 0.0000 42.9407
#
#
#
# Elastic Compliance Matrix: (Units=1/GPa)
#
#
# Indices 1 2 3 4 5 6 
#
# 1 0.017115 -0.002844 0.000522 0.000000 0.000000 0.000000
# 2 -0.002844 0.008715 -0.007332 0.000000 0.000000 0.000000
# 3 0.000522 -0.007332 0.013953 0.000000 0.000000 0.000000
# 4 0.000000 0.000000 0.000000 0.024534 0.000000 0.000000
# 5 0.000000 0.000000 0.000000 0.000000 0.001040 0.000000
# 6 0.000000 0.000000 0.000000 0.000000 0.000000 0.023288
#
#
# Mechanical properties :
#
#
# Convention : Reuss Voigt Hill
#
# Bulk Modulus (GPa) = 48.84207 83.23235 66.03721
# Shear Modulus (GPa) = 43.56209 226.06494 134.81351
#
# Velocity S-wave (km/s) = 4.33464 9.87449 7.62544
# Velocity P-wave (km/s) = 6.79106 12.88049 10.29625
#
# Compressibility (1/GPa) = 0.02047415
#
# Stress axis : x y z
#
# Youngs Moduli (GPa) = 58.42856 114.74094 71.66738
#
# Poissons Ratio (x) = 0.32633 -0.03738
# Poissons Ratio (y) = 0.16618 0.52548
# Poissons Ratio (z) = -0.03047 0.84130
#
# Static dielectric constant tensor:
#      x y z
#    x 1.986860 0.000000 0.000000 
#    y 0.000000 1.908520 0.000000 
#    z 0.000000 0.000000 1.786060 
# 
# From -- ./inp_files/2611.got.cif
#   From: 2010.05.17/outbox.cif.g08.bks.cpg/sg58_2_cif.got.tgz:2611.got - 2010.06.03 14:20:14.
