data_PCOD9440789
_publ_section_title
;
Structure prediction by ZEFSAII (Michael W. Deem and Ramdas Pophale) SiO2 
 PCOD9440789
Probable space group: P N N M
;
_chemical_formula_sum "Si O2"
_cell_formula_units_Z 40
_cell_length_a 10.039908
_cell_length_b 11.512953
_cell_length_c 18.966951
_cell_angle_alpha 90.000000
_cell_angle_beta 90.000000
_cell_angle_gamma 90.000000
_cell_volume 2192.370689
_symmetry_space_group_name_H-M "P N N M"
_symmetry_group_IT_number 58
_symmetry_cell_setting 'orthorhombic'
loop_
_space_group_symop_operation_xyz
x,y,z
-x,-y,z
1/2+x,1/2-y,1/2-z
1/2-x,1/2+y,1/2-z
-x,-y,-z
x,y,-z
1/2-x,1/2+y,1/2+z
1/2+x,1/2-y,1/2+z
loop_
_atom_site_type_symbol
_atom_site_label
_atom_site_fract_x
_atom_site_fract_y
_atom_site_fract_z
Si Si1 0.384793 0.913194 0.625270
Si Si2 0.734302 0.714900 0.000000
Si Si3 0.694126 0.383227 0.847803
Si Si4 0.981134 0.863324 0.000000
Si Si5 0.442372 0.629511 0.000000
Si Si6 0.574907 0.713108 0.652497
Si Si7 0.000000 0.000000 0.243352
O O1 0.291688 0.854466 0.566928
O O2 0.459531 0.810540 0.667849
O O3 0.500000 0.000000 0.595170
O O4 0.287493 0.003365 0.662682
O O5 0.573776 0.712798 0.000000
O O6 0.823005 0.832032 0.000000
O O7 0.642438 0.364774 0.927935
O O8 0.786105 0.274187 0.831517
O O9 0.576066 0.411608 0.795080
O O10 0.048666 0.809138 0.930584
O O11 0.000000 0.000000 0.000000
O O12 0.500000 0.500000 0.000000
O O13 0.571838 0.590622 0.691606
#
# Coordination Sequence:
#
# PCOD9440789 Si02
#       7
#     8   4   8   4   4   8   4
#     4   9  17  32  54  84 112 147 192 239 287 340
#     4  10  17  28  57  89 117 141 185 246 293 347
#     4  11  22  38  61  86 122 152 196 246 294 356
#     4  10  19  40  62  86 114 158 206 246 289 349
#     4  12  19  36  58  91 117 148 188 244 309 337
#     4  10  23  38  60  86 116 159 202 242 290 348
#     4  12  24  38  58  86 120 160 192 238 304 354
#
# _framework density 18.245089
#
# number of rings (size 3 to 8) (size 9 to 14) (size 15 to 20)
#    0.000    1.600    4.000    0.900    2.800    3.200 
#    0.000    0.000    0.000    4.800    0.000    0.000 
#    0.000    0.000    0.000    0.000    0.000    0.000 
#
# Total GULP energy -222673.881242 kJ/mol
# GULP energy per Si atom -5566.847031 kJ/mol
# Density = 1.820356 g / cm^3
# Si number density = 18.245089 Si / 1000 Ang^3
#
#
#
# Elastic Constant Matrix: (Units=GPa)
#
#
# Indices 1 2 3 4 5 6 
#
# 1 58.9562 24.1740 19.3940 0.0000 0.0000 0.0000
# 2 24.1740 104.9919 18.3916 0.0000 0.0000 0.0000
# 3 19.3940 18.3916 70.7481 0.0000 0.0000 0.0000
# 4 0.0000 0.0000 0.0000 22.6147 0.0000 0.0000
# 5 0.0000 0.0000 0.0000 0.0000 -40.0380 0.0000
# 6 0.0000 0.0000 0.0000 0.0000 0.0000 25.0392
#
#
#
# Elastic Compliance Matrix: (Units=1/GPa)
#
#
# Indices 1 2 3 4 5 6 
#
# 1 0.020005 -0.003819 -0.004491 0.000000 0.000000 0.000000
# 2 -0.003819 0.010708 -0.001737 0.000000 0.000000 0.000000
# 3 -0.004491 -0.001737 0.015817 0.000000 0.000000 0.000000
# 4 0.000000 0.000000 0.000000 0.044219 0.000000 0.000000
# 5 0.000000 0.000000 0.000000 0.000000 -0.024976 0.000000
# 6 0.000000 0.000000 0.000000 0.000000 0.000000 0.039937
#
#
# Mechanical properties :
#
#
# Convention : Reuss Voigt Hill
#
# Bulk Modulus (GPa) = 37.82684 39.84617 38.83650
# Shear Modulus (GPa) = 37.14231 13.03894 25.09062
#
# Velocity S-wave (km/s) = 4.51682 2.67620 3.71239
# Velocity P-wave (km/s) = 6.92674 5.60680 6.30143
#
# Compressibility (1/GPa) = 0.02643626
#
# Stress axis : x y z
#
# Youngs Moduli (GPa) = 49.98692 93.38666 63.22212
#
# Poissons Ratio (x) = 0.35668 0.28394
# Poissons Ratio (y) = 0.19092 0.10980
# Poissons Ratio (z) = 0.22450 0.16218
#
# Static dielectric constant tensor:
#      x y z
#    x 1.688540 0.000000 0.000000 
#    y 0.000000 1.628910 0.000000 
#    z 0.000000 0.000000 1.644960 
# 
# From -- ./inp_files/28764.got.cif
#   From: 2010.05.17/outbox.cif.g08.bks.cpg/sg58_15_cif.got.tgz:28764.got - 2010.06.03 14:20:14.
