data_PCOD9440683
_publ_section_title
;
Structure prediction by ZEFSAII (Michael W. Deem and Ramdas Pophale) SiO2 
 PCOD9440683
Probable space group: P N N M
;
_chemical_formula_sum "Si O2"
_cell_formula_units_Z 64
_cell_length_a 8.899221
_cell_length_b 24.791807
_cell_length_c 19.177015
_cell_angle_alpha 90.000000
_cell_angle_beta 90.000000
_cell_angle_gamma 90.000000
_cell_volume 4230.982045
_symmetry_space_group_name_H-M "P N N M"
_symmetry_group_IT_number 58
_symmetry_cell_setting 'orthorhombic'
loop_
_space_group_symop_operation_xyz
x,y,z
-x,-y,z
1/2+x,1/2-y,1/2-z
1/2-x,1/2+y,1/2-z
-x,-y,-z
x,y,-z
1/2-x,1/2+y,1/2+z
1/2+x,1/2-y,1/2+z
loop_
_atom_site_type_symbol
_atom_site_label
_atom_site_fract_x
_atom_site_fract_y
_atom_site_fract_z
Si Si1 0.520138 0.124449 0.846406
Si Si2 0.336430 0.969873 0.078925
Si Si3 0.789422 0.719315 0.920236
Si Si4 0.573174 0.184363 0.286332
Si Si5 0.278881 0.581006 0.416900
Si Si6 0.705243 0.741131 0.680781
Si Si7 0.453544 0.758192 0.082330
Si Si8 0.497919 0.324528 0.580515
O O1 0.642178 0.081190 0.872260
O O2 0.537688 0.134683 0.764242
O O3 0.356935 0.103672 0.870398
O O4 0.538007 0.181481 0.886041
O O5 0.500000 0.000000 0.079204
O O6 0.217458 0.016819 0.096089
O O7 0.308682 0.951047 0.000000
O O8 0.862665 0.679480 0.864083
O O9 0.614098 0.730155 0.906681
O O10 0.874499 0.777405 0.914596
O O11 0.808330 0.701307 0.000000
O O12 0.422048 0.219170 0.292265
O O13 0.698559 0.218473 0.244482
O O14 0.239758 0.587121 0.500000
O O15 0.424436 0.617930 0.405745
O O16 0.819722 0.768598 0.626148
O O17 0.624646 0.693629 0.636527
O O18 0.424016 0.760093 0.000000
O O19 0.442729 0.323831 0.500000
#
# Coordination Sequence:
#
# PCOD9440683 Si02
#       8
#     8   8   8   8   8   8   8   8
#     4  10  16  24  40  61  88 114 147 179 210 253
#     4   8  14  23  38  62  88 113 146 184 208 234
#     4   9  17  30  45  59  79 108 144 177 212 255
#     4  10  20  30  40  59  82 115 144 179 220 255
#     4   9  15  25  42  64  88 116 151 181 209 239
#     4  10  20  28  40  57  87 110 148 182 210 253
#     4  10  17  27  44  62  81 111 146 179 211 253
#     4   9  16  27  43  61  84 115 147 176 204 244
#
# _framework density 15.126511000000001
#
# number of rings (size 3 to 8) (size 9 to 14) (size 15 to 20)
#    0.000    2.625    1.250    3.750    1.750    0.500 
#    0.000    0.000    0.000    3.000    0.000   11.375 
#    0.000    4.500    0.000    1.375    0.250    0.750 
#
# Total GULP energy -356538.444385 kJ/mol
# GULP energy per Si atom -5570.913194 kJ/mol
# Density = 1.509208 g / cm^3
# Si number density = 15.126511 Si / 1000 Ang^3
#
#
#
# Elastic Constant Matrix: (Units=GPa)
#
#
# Indices 1 2 3 4 5 6 
#
# 1 59.3438 4.7188 31.5560 0.0000 0.0000 0.0000
# 2 4.7188 34.5798 26.0356 0.0000 0.0000 0.0000
# 3 31.5560 26.0356 83.9439 0.0000 0.0000 0.0000
# 4 0.0000 0.0000 0.0000 52.6799 0.0000 0.0000
# 5 0.0000 0.0000 0.0000 0.0000 30.0185 0.0000
# 6 0.0000 0.0000 0.0000 0.0000 0.0000 11.7080
#
#
#
# Elastic Compliance Matrix: (Units=1/GPa)
#
#
# Indices 1 2 3 4 5 6 
#
# 1 0.021500 0.004111 -0.009357 0.000000 0.000000 0.000000
# 2 0.004111 0.038515 -0.013491 0.000000 0.000000 0.000000
# 3 -0.009357 -0.013491 0.019615 0.000000 0.000000 0.000000
# 4 0.000000 0.000000 0.000000 0.018983 0.000000 0.000000
# 5 0.000000 0.000000 0.000000 0.000000 0.033313 0.000000
# 6 0.000000 0.000000 0.000000 0.000000 0.000000 0.085412
#
#
# Mechanical properties :
#
#
# Convention : Reuss Voigt Hill
#
# Bulk Modulus (GPa) = 23.72178 33.60979 28.66578
# Shear Modulus (GPa) = 18.59684 26.58508 22.59096
#
# Velocity S-wave (km/s) = 3.51011 4.19682 3.86873
# Velocity P-wave (km/s) = 5.66958 6.76401 6.24083
#
# Compressibility (1/GPa) = 0.04215536
#
# Stress axis : x y z
#
# Youngs Moduli (GPa) = 46.51210 25.96377 50.98236
#
# Poissons Ratio (x) = -0.10675 0.47706
# Poissons Ratio (y) = -0.19123 0.68781
# Poissons Ratio (z) = 0.43523 0.35028
#
# Static dielectric constant tensor:
#      x y z
#    x 1.551510 0.000000 0.000000 
#    y 0.000000 1.496580 0.000000 
#    z 0.000000 0.000000 1.513050 
# 
# From -- ./inp_files/27673.got.cif
#   From: 2010.05.17/outbox.cif.g08.bks.cpg/sg58_14_cif.got.tgz:27673.got - 2010.06.03 14:20:14.
