data_PCOD9440710
_publ_section_title
;
Structure prediction by ZEFSAII (Michael W. Deem and Ramdas Pophale) SiO2 
 PCOD9440710
Probable space group: P N N M
;
_chemical_formula_sum "Si O2"
_cell_formula_units_Z 40
_cell_length_a 8.189226
_cell_length_b 8.683695
_cell_length_c 25.525916
_cell_angle_alpha 90.000000
_cell_angle_beta 90.000000
_cell_angle_gamma 90.000000
_cell_volume 1815.217850
_symmetry_space_group_name_H-M "P N N M"
_symmetry_group_IT_number 58
_symmetry_cell_setting 'orthorhombic'
loop_
_space_group_symop_operation_xyz
x,y,z
-x,-y,z
1/2+x,1/2-y,1/2-z
1/2-x,1/2+y,1/2-z
-x,-y,-z
x,y,-z
1/2-x,1/2+y,1/2+z
1/2+x,1/2-y,1/2+z
loop_
_atom_site_type_symbol
_atom_site_label
_atom_site_fract_x
_atom_site_fract_y
_atom_site_fract_z
Si Si1 0.327409 0.309005 0.195122
Si Si2 0.604824 0.635664 0.391233
Si Si3 0.414834 0.328820 0.500000
Si Si4 0.470333 0.815511 0.000000
Si Si5 0.641114 0.888200 0.099274
Si Si6 0.280372 0.660866 0.804061
O O1 0.278829 0.211453 0.144471
O O2 0.524274 0.318590 0.192027
O O3 0.251510 0.478542 0.193352
O O4 0.277235 0.226267 0.248455
O O5 0.500000 0.500000 0.364210
O O6 0.529106 0.723893 0.441387
O O7 0.735856 0.520771 0.419883
O O8 0.689078 0.745991 0.349848
O O9 0.500000 0.500000 0.500000
O O10 0.220841 0.278323 0.500000
O O11 0.564774 0.779532 0.945843
O O12 0.500000 0.000000 0.000000
O O13 0.500000 0.000000 0.122499
#
# Coordination Sequence:
#
# PCOD9440710 Si02
#       6
#     8   8   4   4   8   8
#     4  11  25  41  62  88 123 161 209 258 316 372
#     4  11  22  37  61  90 124 158 206 251 308 367
#     4  10  18  32  57  91 121 158 197 251 300 365
#     4  10  16  32  59  89 117 155 206 244 301 370
#     4  11  19  37  62  87 119 158 201 255 300 366
#     4  11  25  42  61  89 122 163 209 259 312 377
#
# _framework density 22.035920000000001
#
# number of rings (size 3 to 8) (size 9 to 14) (size 15 to 20)
#    0.000    1.200    6.000    1.200    5.600    0.000 
#    0.000    1.000    0.000    3.600    0.000    5.600 
#    0.000    0.000    0.000    0.000    0.000    0.000 
#
# Total GULP energy -222818.319548 kJ/mol
# GULP energy per Si atom -5570.457989 kJ/mol
# Density = 2.198577 g / cm^3
# Si number density = 22.035920 Si / 1000 Ang^3
#
#
#
# Elastic Constant Matrix: (Units=GPa)
#
#
# Indices 1 2 3 4 5 6 
#
# 1 37.1739 33.9728 21.0826 0.0000 0.0000 0.0000
# 2 33.9728 108.4935 76.0373 0.0000 0.0000 0.0000
# 3 21.0826 76.0373 187.1199 0.0000 0.0000 0.0000
# 4 0.0000 0.0000 0.0000 25.5457 0.0000 0.0000
# 5 0.0000 0.0000 0.0000 0.0000 40.2550 0.0000
# 6 0.0000 0.0000 0.0000 0.0000 0.0000 24.8687
#
#
#
# Elastic Compliance Matrix: (Units=1/GPa)
#
#
# Indices 1 2 3 4 5 6 
#
# 1 0.037764 -0.012364 0.000770 0.000000 0.000000 0.000000
# 2 -0.012364 0.016936 -0.005489 0.000000 0.000000 0.000000
# 3 0.000770 -0.005489 0.007488 0.000000 0.000000 0.000000
# 4 0.000000 0.000000 0.000000 0.039146 0.000000 0.000000
# 5 0.000000 0.000000 0.000000 0.000000 0.024842 0.000000
# 6 0.000000 0.000000 0.000000 0.000000 0.000000 0.040211
#
#
# Mechanical properties :
#
#
# Convention : Reuss Voigt Hill
#
# Bulk Modulus (GPa) = 35.68877 66.10809 50.89843
# Shear Modulus (GPa) = 23.82164 31.58018 27.70091
#
# Velocity S-wave (km/s) = 3.29148 3.78977 3.54938
# Velocity P-wave (km/s) = 5.53859 7.01534 6.32025
#
# Compressibility (1/GPa) = 0.02802002
#
# Stress axis : x y z
#
# Youngs Moduli (GPa) = 26.48033 59.04696 133.54908
#
# Poissons Ratio (x) = 0.73008 -0.10277
# Poissons Ratio (y) = 0.32741 0.73303
# Poissons Ratio (z) = -0.02038 0.32410
#
# Static dielectric constant tensor:
#      x y z
#    x 2.040300 0.000000 0.000000 
#    y 0.000000 1.788720 0.000000 
#    z 0.000000 0.000000 1.873800 
# 
# From -- ./inp_files/33183.got.cif
#   From: 2010.05.17/outbox.cif.g08.bks.cpg/sg58_17_cif.got.tgz:33183.got - 2010.06.03 14:20:14.
