data_PCOD9440840
_publ_section_title
;
Structure prediction by ZEFSAII (Michael W. Deem and Ramdas Pophale) SiO2 
 PCOD9440840
Probable space group: P N N M
;
_chemical_formula_sum "Si O2"
_cell_formula_units_Z 52
_cell_length_a 14.978506
_cell_length_b 19.908546
_cell_length_c 8.100719
_cell_angle_alpha 90.000000
_cell_angle_beta 90.000000
_cell_angle_gamma 90.000000
_cell_volume 2415.636639
_symmetry_space_group_name_H-M "P N N M"
_symmetry_group_IT_number 58
_symmetry_cell_setting 'orthorhombic'
loop_
_space_group_symop_operation_xyz
x,y,z
-x,-y,z
1/2+x,1/2-y,1/2-z
1/2-x,1/2+y,1/2-z
-x,-y,-z
x,y,-z
1/2-x,1/2+y,1/2+z
1/2+x,1/2-y,1/2+z
loop_
_atom_site_type_symbol
_atom_site_label
_atom_site_fract_x
_atom_site_fract_y
_atom_site_fract_z
Si Si1 0.902786 0.119558 0.193245
Si Si2 0.419340 0.837988 0.201871
Si Si3 0.285772 0.945807 0.801560
Si Si4 0.792554 0.784624 0.307277
Si Si5 0.816728 0.927988 0.186798
Si Si6 0.500000 0.500000 0.750621
Si Si7 0.407097 0.232308 0.194406
O O1 0.798258 0.104550 0.221932
O O2 0.924690 0.196519 0.220259
O O3 0.957575 0.069878 0.312063
O O4 0.922701 0.102504 0.000000
O O5 0.372574 0.906609 0.260625
O O6 0.358635 0.773979 0.253489
O O7 0.520748 0.822635 0.251722
O O8 0.416987 0.840480 0.000000
O O9 0.254971 0.019051 0.739330
O O10 0.294069 0.954441 0.000000
O O11 0.777856 0.770861 0.500000
O O12 0.830551 0.859247 0.283071
O O13 0.695589 0.784952 0.224682
O O14 0.908721 0.969501 0.176147
O O15 0.789906 0.909897 0.000000
O O16 0.421212 0.242036 0.000000
#
# Coordination Sequence:
#
# PCOD9440840 Si02
#       7
#     8   8   8   8   8   4   8
#     4  10  17  31  54  79 112 149 183 222 279 345
#     4   9  18  34  56  79 104 143 190 228 271 336
#     4   8  15  31  54  75 101 144 183 215 263 329
#     4  11  22  39  59  81 115 154 188 231 292 351
#     4  10  19  33  56  84 114 145 187 238 283 334
#     4  10  19  32  57  92 121 152 193 236 289 356
#     4  11  22  35  55  83 111 142 191 245 285 332
#
# _framework density 21.526416000000001
#
# number of rings (size 3 to 8) (size 9 to 14) (size 15 to 20)
#    0.000    2.154    1.538    4.154    0.000    0.000 
#    0.000    6.923    0.000    4.615    0.000    0.000 
#    0.000    0.000    0.000    0.000    0.000    0.000 
#
# Total GULP energy -289692.304852 kJ/mol
# GULP energy per Si atom -5571.005863 kJ/mol
# Density = 2.147742 g / cm^3
# Si number density = 21.526416 Si / 1000 Ang^3
#
#
#
# Elastic Constant Matrix: (Units=GPa)
#
#
# Indices 1 2 3 4 5 6 
#
# 1 58.6732 -3.8992 3.0283 0.0000 0.0000 0.0000
# 2 -3.8992 49.9473 -1.8691 0.0000 0.0000 0.0000
# 3 3.0283 -1.8691 29.3637 0.0000 0.0000 0.0000
# 4 0.0000 0.0000 0.0000 58.5344 0.0000 0.0000
# 5 0.0000 0.0000 0.0000 0.0000 4.0660 0.0000
# 6 0.0000 0.0000 0.0000 0.0000 0.0000 33.2862
#
#
#
# Elastic Compliance Matrix: (Units=1/GPa)
#
#
# Indices 1 2 3 4 5 6 
#
# 1 0.017216 0.001281 -0.001694 0.000000 0.000000 0.000000
# 2 0.001281 0.020164 0.001151 0.000000 0.000000 0.000000
# 3 -0.001694 0.001151 0.034304 0.000000 0.000000 0.000000
# 4 0.000000 0.000000 0.000000 0.017084 0.000000 0.000000
# 5 0.000000 0.000000 0.000000 0.000000 0.245942 0.000000
# 6 0.000000 0.000000 0.000000 0.000000 0.000000 0.030042
#
#
# Mechanical properties :
#
#
# Convention : Reuss Voigt Hill
#
# Bulk Modulus (GPa) = 13.66869 14.72270 14.19570
# Shear Modulus (GPa) = 12.89781 28.55894 20.72838
#
# Velocity S-wave (km/s) = 2.45043 3.64633 3.10647
# Velocity P-wave (km/s) = 3.79074 4.95801 4.41314
#
# Compressibility (1/GPa) = 0.07315990
#
# Stress axis : x y z
#
# Youngs Moduli (GPa) = 58.08514 49.59296 29.15146
#
# Poissons Ratio (x) = -0.06351 0.04938
# Poissons Ratio (y) = -0.07438 -0.03357
# Poissons Ratio (z) = 0.09840 -0.05710
#
# Static dielectric constant tensor:
#      x y z
#    x 1.795330 0.000000 0.000000 
#    y 0.000000 1.784510 0.000000 
#    z 0.000000 0.000000 1.791690 
# 
# From -- ./inp_files/6200.got.cif
#   From: 2010.05.17/outbox.cif.g08.bks.cpg/sg58_4_cif.got.tgz:6200.got - 2010.06.03 14:20:14.
