data_PCOD9440059
_publ_section_title
;
Structure prediction by ZEFSAII (Michael W. Deem and Ramdas Pophale) SiO2 
 PCOD9440059
Probable space group: P B C M
;
_chemical_formula_sum "Si O2"
_cell_formula_units_Z 64
_cell_length_a 8.616023
_cell_length_b 14.041205
_cell_length_c 26.307389
_cell_angle_alpha 90.000000
_cell_angle_beta 90.000000
_cell_angle_gamma 90.000000
_cell_volume 3182.650696
_symmetry_space_group_name_H-M "P B C M"
_symmetry_group_IT_number 57
_symmetry_cell_setting 'orthorhombic'
loop_
_space_group_symop_operation_xyz
x,y,z
-x,-y,1/2+z
x,1/2-y,-z
-x,1/2+y,1/2-z
-x,-y,-z
x,y,1/2-z
-x,1/2+y,z
x,1/2-y,1/2+z
loop_
_atom_site_type_symbol
_atom_site_label
_atom_site_fract_x
_atom_site_fract_y
_atom_site_fract_z
Si Si1 0.654547 0.136855 0.368393
Si Si2 0.018191 0.145552 0.392232
Si Si3 0.105220 0.096771 0.496698
Si Si4 0.703683 0.953102 0.192112
Si Si5 0.085000 0.148783 0.889345
Si Si6 0.568851 0.955247 0.550689
Si Si7 0.217248 0.955932 0.372149
Si Si8 0.598482 0.174095 0.806715
O O1 0.553615 0.109034 0.418234
O O2 0.609768 0.239098 0.345946
O O3 0.839504 0.136251 0.377191
O O4 0.630935 0.052136 0.327558
O O5 0.014408 0.155658 0.453846
O O6 0.095114 0.242266 0.372581
O O7 0.120444 0.055073 0.373679
O O8 0.140627 0.131266 0.553283
O O9 0.272046 0.090696 0.469373
O O10 0.000000 0.000000 0.500000
O O11 0.762739 0.963026 0.250000
O O12 0.830657 0.918232 0.151326
O O13 0.569995 0.873653 0.191804
O O14 0.904708 0.120400 0.892809
O O15 0.500000 0.000000 0.500000
O O16 0.634715 0.031669 0.591202
O O17 0.281494 0.910508 0.320733
O O18 0.630862 0.210031 0.750000
#
# Coordination Sequence:
#
# PCOD9440059 Si02
#       8
#     8   8   8   8   8   8   8   8
#     4  12  23  45  69  99 139 175 232 281 337 409
#     4  11  24  41  66 100 132 183 219 280 336 401
#     4  11  21  40  65  95 136 180 219 269 335 401
#     4  11  25  44  70  97 132 175 221 285 344 399
#     4  12  23  43  69  95 141 175 228 276 341 408
#     4  11  23  39  69  99 137 181 224 274 335 414
#     4  11  23  44  67  97 135 175 222 282 338 400
#     4  11  26  47  70  98 134 179 227 286 352 410
#
# _framework density 20.109024000000002
#
# number of rings (size 3 to 8) (size 9 to 14) (size 15 to 20)
#    0.000    0.750    6.250    2.250    3.500    0.500 
#    0.000    1.250    0.000    0.000    0.000    0.000 
#    0.000    0.000    0.000    0.000    0.000    0.000 
#
# Total GULP energy -356896.420652 kJ/mol
# GULP energy per Si atom -5576.506573 kJ/mol
# Density = 2.006325 g / cm^3
# Si number density = 20.109024 Si / 1000 Ang^3
#
#
#
# Elastic Constant Matrix: (Units=GPa)
#
#
# Indices 1 2 3 4 5 6 
#
# 1 60.6761 27.4580 29.6927 0.0000 0.0000 0.0000
# 2 27.4580 109.8011 42.1749 0.0000 0.0000 0.0000
# 3 29.6927 42.1749 101.5940 0.0000 0.0000 0.0000
# 4 0.0000 0.0000 0.0000 28.4619 0.0000 0.0000
# 5 0.0000 0.0000 0.0000 0.0000 24.8278 0.0000
# 6 0.0000 0.0000 0.0000 0.0000 0.0000 27.6708
#
#
#
# Elastic Compliance Matrix: (Units=1/GPa)
#
#
# Indices 1 2 3 4 5 6 
#
# 1 0.020195 -0.003311 -0.004528 0.000000 0.000000 0.000000
# 2 -0.003311 0.011378 -0.003756 0.000000 0.000000 0.000000
# 3 -0.004528 -0.003756 0.012726 0.000000 0.000000 0.000000
# 4 0.000000 0.000000 0.000000 0.035135 0.000000 0.000000
# 5 0.000000 0.000000 0.000000 0.000000 0.040277 0.000000
# 6 0.000000 0.000000 0.000000 0.000000 0.000000 0.036139
#
#
# Mechanical properties :
#
#
# Convention : Reuss Voigt Hill
#
# Bulk Modulus (GPa) = 47.37208 52.30249 49.83729
# Shear Modulus (GPa) = 26.87083 27.70847 27.28965
#
# Velocity S-wave (km/s) = 3.65945 3.71605 3.68786
# Velocity P-wave (km/s) = 6.43927 6.66918 6.55523
#
# Compressibility (1/GPa) = 0.02110948
#
# Stress axis : x y z
#
# Youngs Moduli (GPa) = 49.51701 87.88961 78.58214
#
# Poissons Ratio (x) = 0.29100 0.35581
# Poissons Ratio (y) = 0.16395 0.29512
# Poissons Ratio (z) = 0.22421 0.33008
#
# Static dielectric constant tensor:
#      x y z
#    x 1.795670 0.000000 0.000000 
#    y 0.000000 1.766550 0.000000 
#    z 0.000000 0.000000 1.744540 
# 
# From -- ./inp_files/26889.got.cif
#   From: 2010.05.17/outbox.cif.g08.bks.cpg/sg57_14_cif.got.tgz:26889.got - 2010.06.03 13:58:18.
