data_PCOD9440928
_publ_section_title
;
Structure prediction by ZEFSAII (Michael W. Deem and Ramdas Pophale) SiO2 
 PCOD9440928
Probable space group: P N N M
;
_chemical_formula_sum "Si O2"
_cell_formula_units_Z 56
_cell_length_a 8.176177
_cell_length_b 20.615522
_cell_length_c 19.239585
_cell_angle_alpha 90.000000
_cell_angle_beta 90.000000
_cell_angle_gamma 90.000000
_cell_volume 3242.950506
_symmetry_space_group_name_H-M "P N N M"
_symmetry_group_IT_number 58
_symmetry_cell_setting 'orthorhombic'
loop_
_space_group_symop_operation_xyz
x,y,z
-x,-y,z
1/2+x,1/2-y,1/2-z
1/2-x,1/2+y,1/2-z
-x,-y,-z
x,y,-z
1/2-x,1/2+y,1/2+z
1/2+x,1/2-y,1/2+z
loop_
_atom_site_type_symbol
_atom_site_label
_atom_site_fract_x
_atom_site_fract_y
_atom_site_fract_z
Si Si1 0.074177 0.850212 0.356340
Si Si2 0.094012 0.661594 0.707556
Si Si3 0.096222 0.710514 0.917790
Si Si4 0.427791 0.781162 0.081594
Si Si5 0.689631 0.523534 0.922615
Si Si6 0.655132 0.232142 0.693609
Si Si7 0.725593 0.909624 0.671443
O O1 0.174909 0.901754 0.401787
O O2 0.199674 0.820197 0.301733
O O3 0.014599 0.787942 0.400626
O O4 0.916214 0.886791 0.325187
O O5 0.267276 0.698137 0.704492
O O6 0.130020 0.599309 0.755739
O O7 0.009264 0.665122 0.632021
O O8 0.979352 0.709941 0.752030
O O9 0.237779 0.763994 0.902705
O O10 0.149334 0.643305 0.881446
O O11 0.927947 0.729988 0.881771
O O12 0.086570 0.702603 0.000000
O O13 0.444417 0.795637 0.000000
O O14 0.500000 0.500000 0.925006
O O15 0.777028 0.479508 0.864930
O O16 0.758739 0.514441 0.000000
#
# Coordination Sequence:
#
# PCOD9440928 Si02
#       7
#     8   8   8   8   8   8   8
#     4   9  17  28  45  66  89 117 154 184 209 253
#     4  10  18  29  43  60  85 115 149 184 220 263
#     4   9  17  28  41  60  86 114 145 179 218 263
#     4   9  17  29  45  63  85 114 145 181 225 266
#     4   9  16  27  44  65  91 123 156 183 206 245
#     4  10  18  28  43  62  85 116 150 181 219 258
#     4   9  17  29  44  62  87 122 156 182 215 251
#
# _framework density 17.268225000000001
#
# number of rings (size 3 to 8) (size 9 to 14) (size 15 to 20)
#    0.000    2.714    0.000    4.286    0.000    6.286 
#    0.000    2.857    0.000    4.286    0.000    0.000 
#    0.000    7.429    0.000    2.286    0.000    3.143 
#
# Total GULP energy -311891.829927 kJ/mol
# GULP energy per Si atom -5569.496963 kJ/mol
# Density = 1.722892 g / cm^3
# Si number density = 17.268225 Si / 1000 Ang^3
#
#
#
# Elastic Constant Matrix: (Units=GPa)
#
#
# Indices 1 2 3 4 5 6 
#
# 1 39.6851 0.5164 9.5477 0.0000 0.0000 0.0000
# 2 0.5164 31.1589 16.5971 0.0000 0.0000 0.0000
# 3 9.5477 16.5971 68.2975 0.0000 0.0000 0.0000
# 4 0.0000 0.0000 0.0000 22.4240 0.0000 0.0000
# 5 0.0000 0.0000 0.0000 0.0000 22.1341 0.0000
# 6 0.0000 0.0000 0.0000 0.0000 0.0000 12.3840
#
#
#
# Elastic Compliance Matrix: (Units=1/GPa)
#
#
# Indices 1 2 3 4 5 6 
#
# 1 0.026157 0.001739 -0.004079 0.000000 0.000000 0.000000
# 2 0.001739 0.036981 -0.009230 0.000000 0.000000 0.000000
# 3 -0.004079 -0.009230 0.017455 0.000000 0.000000 0.000000
# 4 0.000000 0.000000 0.000000 0.044595 0.000000 0.000000
# 5 0.000000 0.000000 0.000000 0.000000 0.045179 0.000000
# 6 0.000000 0.000000 0.000000 0.000000 0.000000 0.080750
#
#
# Mechanical properties :
#
#
# Convention : Reuss Voigt Hill
#
# Bulk Modulus (GPa) = 17.40535 21.38486 19.39511
# Shear Modulus (GPa) = 17.04109 18.88710 17.96410
#
# Velocity S-wave (km/s) = 3.14482 3.31078 3.22886
# Velocity P-wave (km/s) = 4.82574 5.19863 5.01566
#
# Compressibility (1/GPa) = 0.05745359
#
# Stress axis : x y z
#
# Youngs Moduli (GPa) = 38.23039 27.04074 57.28983
#
# Poissons Ratio (x) = -0.04703 0.23371
# Poissons Ratio (y) = -0.06650 0.52879
# Poissons Ratio (z) = 0.15596 0.24959
#
# Static dielectric constant tensor:
#      x y z
#    x 1.653070 0.000000 0.000000 
#    y 0.000000 1.587240 0.000000 
#    z 0.000000 0.000000 1.613310 
# 
# From -- ./inp_files/25600.got.cif
#   From: 2010.05.17/outbox.cif.g08.bks.cpg/sg58_13_cif.got.tgz:25600.got - 2010.06.03 14:20:14.
