data_PCOD9440495
_publ_section_title
;
Structure prediction by ZEFSAII (Michael W. Deem and Ramdas Pophale) SiO2 
 PCOD9440495
Probable space group: P B C M
;
_chemical_formula_sum "Si O2"
_cell_formula_units_Z 48
_cell_length_a 12.000000
_cell_length_b 24.000000
_cell_length_c 9.000000
_cell_angle_alpha 90.000000
_cell_angle_beta 90.000000
_cell_angle_gamma 90.000000
_cell_volume 2592.000000
_symmetry_space_group_name_H-M "P B C M"
_symmetry_group_IT_number 57
_symmetry_cell_setting 'orthorhombic'
loop_
_space_group_symop_operation_xyz
x,y,z
-x,-y,1/2+z
x,1/2-y,-z
-x,1/2+y,1/2-z
-x,-y,-z
x,y,1/2-z
-x,1/2+y,z
x,1/2-y,1/2+z
loop_
_atom_site_type_symbol
_atom_site_label
_atom_site_fract_x
_atom_site_fract_y
_atom_site_fract_z
Si Si1 0.939542 0.082297 0.084846
Si Si2 0.637133 0.959010 0.075820
Si Si3 0.325269 0.692738 0.921000
Si Si4 0.055465 0.693446 0.578761
Si Si5 0.836539 0.511942 0.414071
Si Si6 0.431688 0.585832 0.426393
O O1 0.890335 0.090119 0.250000
O O2 0.044878 0.041788 0.097811
O O3 0.977938 0.139905 0.015455
O O4 0.856053 0.049954 0.976422
O O5 0.617433 0.952641 0.250000
O O6 0.613635 0.023943 0.034351
O O7 0.764158 0.952929 0.028870
O O8 0.557725 0.918451 0.985110
O O9 0.361087 0.692863 0.750000
O O10 0.190653 0.692620 0.924308
O O11 0.361912 0.750000 0.000000
O O12 0.369301 0.637355 0.999937
O O13 0.018099 0.750000 0.500000
O O14 0.020155 0.690496 0.750000
O O15 0.784548 0.510556 0.250000
O O16 0.426437 0.591280 0.250000
#
# Coordination Sequence:
#
# PCOD9440495 Si02
#       6
#     8   8   8   8   8   8
#     4  10  20  33  50  73 101 132 166 203 244 292
#     4  10  20  33  51  74 100 131 165 202 245 293
#     4  10  20  33  50  73 100 130 164 201 243 290
#     4  10  20  33  51  74 101 132 165 203 245 291
#     4  10  20  33  50  73 101 132 165 203 247 293
#     4  10  20  33  50  73 101 131 163 201 244 291
#
# _framework density 18.518519000000001
#
# number of rings (size 3 to 8) (size 9 to 14) (size 15 to 20)
#    0.000    2.000    0.000    4.000    0.000    8.667 
#    0.000    0.000    0.000    1.000    0.000    2.333 
#    0.000    0.000    0.000    0.000    0.000    0.000 
#
# Total GULP energy -267675.871540 kJ/mol
# GULP energy per Si atom -5576.580657 kJ/mol
# Density = 1.847637 g / cm^3
# Si number density = 18.518519 Si / 1000 Ang^3
#
#
#
# Elastic Constant Matrix: (Units=GPa)
#
#
# Indices 1 2 3 4 5 6 
#
# 1 18.1332 -6.1444 -0.3736 0.0000 0.0000 0.0000
# 2 -6.1444 84.6283 63.3690 0.0000 0.0000 0.0000
# 3 -0.3736 63.3690 90.7407 0.0000 0.0000 0.0000
# 4 0.0000 0.0000 0.0000 32.7260 0.0000 0.0000
# 5 0.0000 0.0000 0.0000 0.0000 18.0187 0.0000
# 6 0.0000 0.0000 0.0000 0.0000 0.0000 18.0932
#
#
#
# Elastic Compliance Matrix: (Units=1/GPa)
#
#
# Indices 1 2 3 4 5 6 
#
# 1 0.057890 0.008436 -0.005653 0.000000 0.000000 0.000000
# 2 0.008436 0.025998 -0.018121 0.000000 0.000000 0.000000
# 3 -0.005653 -0.018121 0.023652 0.000000 0.000000 0.000000
# 4 0.000000 0.000000 0.000000 0.030557 0.000000 0.000000
# 5 0.000000 0.000000 0.000000 0.000000 0.055498 0.000000
# 6 0.000000 0.000000 0.000000 0.000000 0.000000 0.055269
#
#
# Mechanical properties :
#
#
# Convention : Reuss Voigt Hill
#
# Bulk Modulus (GPa) = 13.01009 34.13381 23.57195
# Shear Modulus (GPa) = 16.38487 22.87766 19.63127
#
# Velocity S-wave (km/s) = 2.97776 3.51863 3.25943
# Velocity P-wave (km/s) = 4.34320 5.91438 5.18861
#
# Compressibility (1/GPa) = 0.07686340
#
# Stress axis : x y z
#
# Youngs Moduli (GPa) = 17.27428 38.46514 42.28002
#
# Poissons Ratio (x) = -0.32449 0.23901
# Poissons Ratio (y) = -0.14572 0.76615
# Poissons Ratio (z) = 0.09765 0.69702
#
# Static dielectric constant tensor:
#      x y z
#    x 1.688810 0.000000 0.000000 
#    y 0.000000 1.616180 0.000000 
#    z 0.000000 0.000000 1.649440 
# 
# From -- ./inp_files/3092.got.cif
#   From: 2010.05.17/outbox.ucp.g08.bks.cvg/sg57_2_cif.got.tgz:3092.got - 2010.06.11 16:39:23.
