data_PCOD9440220
_publ_section_title
;
Structure prediction by ZEFSAII (Michael W. Deem and Ramdas Pophale) SiO2 
 PCOD9440220
Probable space group: P B C M
;
_chemical_formula_sum "Si O2"
_cell_formula_units_Z 48
_cell_length_a 4.924640
_cell_length_b 30.474874
_cell_length_c 12.911421
_cell_angle_alpha 90.000000
_cell_angle_beta 90.000000
_cell_angle_gamma 90.000000
_cell_volume 1937.717445
_symmetry_space_group_name_H-M "P B C M"
_symmetry_group_IT_number 57
_symmetry_cell_setting 'orthorhombic'
loop_
_space_group_symop_operation_xyz
x,y,z
-x,-y,1/2+z
x,1/2-y,-z
-x,1/2+y,1/2-z
-x,-y,-z
x,y,1/2-z
-x,1/2+y,z
x,1/2-y,1/2+z
loop_
_atom_site_type_symbol
_atom_site_label
_atom_site_fract_x
_atom_site_fract_y
_atom_site_fract_z
Si Si1 0.678081 0.449714 0.433227
Si Si2 0.741511 0.254926 0.250000
Si Si3 0.494720 0.708327 0.053126
Si Si4 0.127121 0.133582 0.139689
Si Si5 0.146503 0.855549 0.423313
Si Si6 0.224777 0.314473 0.250000
Si Si7 0.183683 0.041862 0.075607
O O1 0.728541 0.401747 0.384309
O O2 0.749000 0.494867 0.374616
O O3 0.372113 0.452447 0.473672
O O4 0.875236 0.456146 0.534124
O O5 0.689210 0.228340 0.355516
O O6 0.051604 0.269853 0.250000
O O7 0.536546 0.298118 0.250000
O O8 0.669984 0.672474 0.112355
O O9 0.644484 0.750000 0.000000
O O10 0.343599 0.684111 0.957757
O O11 0.991415 0.141495 0.250000
O O12 0.252565 0.084993 0.140399
O O13 0.946189 0.132649 0.038695
O O14 0.899400 0.840284 0.349725
#
# Coordination Sequence:
#
# PCOD9440220 Si02
#       7
#     8   4   8   8   8   4   8
#     4   9  18  36  66  92 132 167 222 267 343 393
#     4  12  28  46  66  97 135 182 226 292 336 411
#     4  12  24  41  66  96 136 178 229 278 347 400
#     4  11  24  41  66 101 141 180 228 284 348 413
#     4  11  25  43  69  99 136 184 228 291 340 419
#     4  12  28  50  70  97 137 182 242 282 346 405
#     4   9  18  37  62  96 129 175 209 280 328 414
#
# _framework density 24.771414
#
# number of rings (size 3 to 8) (size 9 to 14) (size 15 to 20)
#    0.000    1.333    4.167    1.000    3.500    0.667 
#    1.500    0.000    0.000    0.000    2.167    0.000 
#    0.000    0.000    0.000    0.000    0.000    0.000 
#
# Total GULP energy -267900.696105 kJ/mol
# GULP energy per Si atom -5581.264502 kJ/mol
# Density = 2.471503 g / cm^3
# Si number density = 24.771414 Si / 1000 Ang^3
#
#
#
# Elastic Constant Matrix: (Units=GPa)
#
#
# Indices 1 2 3 4 5 6 
#
# 1 33.9124 0.4385 9.5642 0.0000 0.0000 0.0000
# 2 0.4385 186.2027 38.8803 0.0000 0.0000 0.0000
# 3 9.5642 38.8803 133.5745 0.0000 0.0000 0.0000
# 4 0.0000 0.0000 0.0000 21.5659 0.0000 0.0000
# 5 0.0000 0.0000 0.0000 0.0000 18.2242 0.0000
# 6 0.0000 0.0000 0.0000 0.0000 0.0000 33.5843
#
#
#
# Elastic Compliance Matrix: (Units=1/GPa)
#
#
# Indices 1 2 3 4 5 6 
#
# 1 0.030124 0.000404 -0.002275 0.000000 0.000000 0.000000
# 2 0.000404 0.005723 -0.001695 0.000000 0.000000 0.000000
# 3 -0.002275 -0.001695 0.008143 0.000000 0.000000 0.000000
# 4 0.000000 0.000000 0.000000 0.046369 0.000000 0.000000
# 5 0.000000 0.000000 0.000000 0.000000 0.054872 0.000000
# 6 0.000000 0.000000 0.000000 0.000000 0.000000 0.029776
#
#
# Mechanical properties :
#
#
# Convention : Reuss Voigt Hill
#
# Bulk Modulus (GPa) = 27.13021 50.16173 38.64597
# Shear Modulus (GPa) = 25.71691 34.99533 30.35612
#
# Velocity S-wave (km/s) = 3.22556 3.76271 3.50444
# Velocity P-wave (km/s) = 4.98481 6.25868 5.65771
#
# Compressibility (1/GPa) = 0.03685927
#
# Stress axis : x y z
#
# Youngs Moduli (GPa) = 33.19611 174.72007 122.81005
#
# Poissons Ratio (x) = -0.07059 0.27934
# Poissons Ratio (y) = -0.01341 0.20815
# Poissons Ratio (z) = 0.07551 0.29613
#
# Static dielectric constant tensor:
#      x y z
#    x 1.966130 0.000000 0.000000 
#    y 0.000000 2.133740 0.000000 
#    z 0.000000 0.000000 1.861550 
# 
# From -- ./inp_files/15224.got.cif
#   From: 2010.05.17/outbox.cif.g08.bks.cpg/sg57_8_cif.got.tgz:15224.got - 2010.06.03 13:58:18.
