data_PCOD9440300
_publ_section_title
;
Structure prediction by ZEFSAII (Michael W. Deem and Ramdas Pophale) SiO2 
 PCOD9440300
Probable space group: P B C M
;
_chemical_formula_sum "Si O2"
_cell_formula_units_Z 40
_cell_length_a 5.080837
_cell_length_b 16.083492
_cell_length_c 19.469069
_cell_angle_alpha 90.000000
_cell_angle_beta 90.000000
_cell_angle_gamma 90.000000
_cell_volume 1590.965617
_symmetry_space_group_name_H-M "P B C M"
_symmetry_group_IT_number 57
_symmetry_cell_setting 'orthorhombic'
loop_
_space_group_symop_operation_xyz
x,y,z
-x,-y,1/2+z
x,1/2-y,-z
-x,1/2+y,1/2-z
-x,-y,-z
x,y,1/2-z
-x,1/2+y,z
x,1/2-y,1/2+z
loop_
_atom_site_type_symbol
_atom_site_label
_atom_site_fract_x
_atom_site_fract_y
_atom_site_fract_z
Si Si1 0.822982 0.943483 0.950597
Si Si2 0.530204 0.471809 0.174554
Si Si3 0.657684 0.208417 0.863759
Si Si4 0.824879 0.690354 0.554186
Si Si5 0.118554 0.879480 0.676826
O O1 0.662195 0.998904 0.896706
O O2 0.968081 0.884437 0.895124
O O3 0.704613 0.885547 0.009869
O O4 0.000000 0.000000 0.000000
O O5 0.660326 0.484550 0.250000
O O6 0.514211 0.371990 0.169768
O O7 0.279874 0.533599 0.176923
O O8 0.432165 0.234220 0.916825
O O9 0.715573 0.294413 0.825350
O O10 0.941098 0.174680 0.891329
O O11 0.965248 0.750000 0.500000
O O12 0.970696 0.873490 0.750000
#
# Coordination Sequence:
#
# PCOD9440300 Si02
#       5
#     8   8   8   8   8
#     4  12  24  42  71 106 145 195 243 322 376 444
#     4  11  26  47  72 106 150 200 256 310 376 462
#     4  12  26  48  74 110 147 199 248 311 375 447
#     4  12  25  43  74 108 149 186 249 311 373 445
#     4  11  26  48  73 106 151 203 256 311 381 461
#
# _framework density 25.141964000000002
#
# number of rings (size 3 to 8) (size 9 to 14) (size 15 to 20)
#    0.000    0.400    4.000    4.200    2.800    1.600 
#    0.000    2.000    0.000    0.000    0.000    0.000 
#    0.000    0.000    0.000    0.000    0.000    0.000 
#
# Total GULP energy -222825.752954 kJ/mol
# GULP energy per Si atom -5570.643824 kJ/mol
# Density = 2.508474 g / cm^3
# Si number density = 25.141964 Si / 1000 Ang^3
#
#
#
# Elastic Constant Matrix: (Units=GPa)
#
#
# Indices 1 2 3 4 5 6 
#
# 1 69.1420 13.4997 41.0378 0.0000 0.0000 0.0000
# 2 13.4997 126.3950 7.7060 0.0000 0.0000 0.0000
# 3 41.0378 7.7060 140.4991 0.0000 0.0000 0.0000
# 4 0.0000 0.0000 0.0000 -271.7937 0.0000 0.0000
# 5 0.0000 0.0000 0.0000 0.0000 124.3174 0.0000
# 6 0.0000 0.0000 0.0000 0.0000 0.0000 40.9136
#
#
#
# Elastic Compliance Matrix: (Units=1/GPa)
#
#
# Indices 1 2 3 4 5 6 
#
# 1 0.017809 -0.001590 -0.005115 0.000000 0.000000 0.000000
# 2 -0.001590 0.008080 0.000021 0.000000 0.000000 0.000000
# 3 -0.005115 0.000021 0.008610 0.000000 0.000000 0.000000
# 4 0.000000 0.000000 0.000000 -0.003679 0.000000 0.000000
# 5 0.000000 0.000000 0.000000 0.000000 0.008044 0.000000
# 6 0.000000 0.000000 0.000000 0.000000 0.000000 0.024442
#
#
# Mechanical properties :
#
#
# Convention : Reuss Voigt Hill
#
# Bulk Modulus (GPa) = 47.32044 51.16922 49.24483
# Shear Modulus (GPa) = 59.72484 -3.05970 28.33257
#
# Velocity S-wave (km/s) = 4.87920 -1.10436 3.36058
# Velocity P-wave (km/s) = 7.11367 4.33245 5.88959
#
# Compressibility (1/GPa) = 0.02113252
#
# Stress axis : x y z
#
# Youngs Moduli (GPa) = 56.15096 123.75840 116.14119
#
# Poissons Ratio (x) = 0.19681 0.59401
# Poissons Ratio (y) = 0.08930 -0.00248
# Poissons Ratio (z) = 0.28719 -0.00264
#
# Static dielectric constant tensor:
#      x y z
#    x 2.017460 0.000000 0.000000 
#    y 0.000000 2.094580 0.000000 
#    z 0.000000 0.000000 2.255040 
# 
# From -- ./inp_files/23567.got.cif
#   From: 2010.05.17/outbox.cif.g08.bks.cpg/sg57_12_cif.got.tgz:23567.got - 2010.06.03 13:58:18.
