data_PCOD9440565
_publ_section_title
;
Structure prediction by ZEFSAII (Michael W. Deem and Ramdas Pophale) SiO2 
 PCOD9440565
Probable space group: P B C M
;
_chemical_formula_sum "Si O2"
_cell_formula_units_Z 64
_cell_length_a 12.000000
_cell_length_b 30.000000
_cell_length_c 9.000000
_cell_angle_alpha 90.000000
_cell_angle_beta 90.000000
_cell_angle_gamma 90.000000
_cell_volume 3240.000000
_symmetry_space_group_name_H-M "P B C M"
_symmetry_group_IT_number 57
_symmetry_cell_setting 'orthorhombic'
loop_
_space_group_symop_operation_xyz
x,y,z
-x,-y,1/2+z
x,1/2-y,-z
-x,1/2+y,1/2-z
-x,-y,-z
x,y,1/2-z
-x,1/2+y,z
x,1/2-y,1/2+z
loop_
_atom_site_type_symbol
_atom_site_label
_atom_site_fract_x
_atom_site_fract_y
_atom_site_fract_z
Si Si1 0.342907 0.659508 0.574446
Si Si2 0.586802 0.028609 0.086706
Si Si3 0.779281 0.885947 0.074066
Si Si4 0.073202 0.298963 0.072154
Si Si5 0.209900 0.578433 0.430967
Si Si6 0.544333 0.877757 0.582075
Si Si7 0.015248 0.049166 0.930371
Si Si8 0.145200 0.703082 0.073469
O O1 0.336128 0.666876 0.750000
O O2 0.273766 0.615703 0.525207
O O3 0.469302 0.654413 0.519919
O O4 0.269548 0.693662 0.480777
O O5 0.593109 0.009063 0.250000
O O6 0.714195 0.034822 0.037625
O O7 0.530124 0.077365 0.091084
O O8 0.500000 0.000000 0.000000
O O9 0.756217 0.890374 0.250000
O O10 0.832715 0.836727 0.050439
O O11 0.870253 0.924203 0.035934
O O12 0.664287 0.888866 0.984814
O O13 0.055662 0.293005 0.250000
O O14 0.100574 0.250000 0.000000
O O15 0.961700 0.321201 0.998926
O O16 0.214083 0.586359 0.250000
O O17 0.087160 0.574610 0.492521
O O18 0.554546 0.860306 0.750000
O O19 0.004705 0.047627 0.750000
O O20 0.000000 0.000000 0.000000
O O21 0.138698 0.701062 0.250000
O O22 0.120909 0.750000 0.000000
#
# Coordination Sequence:
#
# PCOD9440565 Si02
#       8
#     8   8   8   8   8   8   8   8
#     4  11  21  37  60  85 115 151 190 236 293 352
#     4   9  20  35  54  80 108 140 183 237 289 345
#     4  10  23  41  60  83 117 160 202 246 300 363
#     4  10  20  37  61  91 123 156 201 248 299 362
#     4  10  21  38  57  82 111 145 190 238 288 343
#     4  10  22  39  58  84 113 149 198 246 294 353
#     4  11  24  40  58  84 118 158 201 247 300 357
#     4  11  21  35  58  89 122 154 191 240 294 351
#
# _framework density 19.753086
#
# number of rings (size 3 to 8) (size 9 to 14) (size 15 to 20)
#    0.000    1.750    0.000    6.000    1.750    6.000 
#    0.000    0.625    0.000    1.500    0.000    0.000 
#    0.000    0.000    0.000    0.000    0.000    0.000 
#
# Total GULP energy -356492.836116 kJ/mol
# GULP energy per Si atom -5570.200564 kJ/mol
# Density = 1.970813 g / cm^3
# Si number density = 19.753086 Si / 1000 Ang^3
#
#
#
# Elastic Constant Matrix: (Units=GPa)
#
#
# Indices 1 2 3 4 5 6 
#
# 1 118.2642 3.9482 42.8657 0.0000 0.0000 0.0000
# 2 3.9482 41.9582 9.7931 0.0000 0.0000 0.0000
# 3 42.8657 9.7931 103.5330 0.0000 0.0000 0.0000
# 4 0.0000 0.0000 0.0000 23.8627 0.0000 0.0000
# 5 0.0000 0.0000 0.0000 0.0000 41.0202 0.0000
# 6 0.0000 0.0000 0.0000 0.0000 0.0000 24.7725
#
#
#
# Elastic Compliance Matrix: (Units=1/GPa)
#
#
# Indices 1 2 3 4 5 6 
#
# 1 0.009949 0.000026 -0.004121 0.000000 0.000000 0.000000
# 2 0.000026 0.024371 -0.002316 0.000000 0.000000 0.000000
# 3 -0.004121 -0.002316 0.011584 0.000000 0.000000 0.000000
# 4 0.000000 0.000000 0.000000 0.041906 0.000000 0.000000
# 5 0.000000 0.000000 0.000000 0.000000 0.024378 0.000000
# 6 0.000000 0.000000 0.000000 0.000000 0.000000 0.040367
#
#
# Mechanical properties :
#
#
# Convention : Reuss Voigt Hill
#
# Bulk Modulus (GPa) = 30.22884 41.88550 36.05717
# Shear Modulus (GPa) = 28.34363 31.74097 30.04230
#
# Velocity S-wave (km/s) = 3.79211 4.01295 3.90409
# Velocity P-wave (km/s) = 5.87453 6.53622 6.21419
#
# Compressibility (1/GPa) = 0.03308099
#
# Stress axis : x y z
#
# Youngs Moduli (GPa) = 100.51623 41.03176 86.32427
#
# Poissons Ratio (x) = -0.00106 0.35578
# Poissons Ratio (y) = -0.00259 0.19992
# Poissons Ratio (z) = 0.41427 0.09503
#
# Static dielectric constant tensor:
#      x y z
#    x 1.664780 0.000000 0.000000 
#    y 0.000000 1.644880 0.000000 
#    z 0.000000 0.000000 1.669070 
# 
# From -- ./inp_files/3803.got.cif
#   From: 2010.05.17/outbox.ucp.g08.bks.cvg/sg57_2_cif.got.tgz:3803.got - 2010.06.11 16:39:23.
