data_PCOD9440713
_publ_section_title
;
Structure prediction by ZEFSAII (Michael W. Deem and Ramdas Pophale) SiO2 
 PCOD9440713
Probable space group: P N N M
;
_chemical_formula_sum "Si O2"
_cell_formula_units_Z 44
_cell_length_a 9.216561
_cell_length_b 16.049763
_cell_length_c 15.767090
_cell_angle_alpha 90.000000
_cell_angle_beta 90.000000
_cell_angle_gamma 90.000000
_cell_volume 2332.325025
_symmetry_space_group_name_H-M "P N N M"
_symmetry_group_IT_number 58
_symmetry_cell_setting 'orthorhombic'
loop_
_space_group_symop_operation_xyz
x,y,z
-x,-y,z
1/2+x,1/2-y,1/2-z
1/2-x,1/2+y,1/2-z
-x,-y,-z
x,y,-z
1/2-x,1/2+y,1/2+z
1/2+x,1/2-y,1/2+z
loop_
_atom_site_type_symbol
_atom_site_label
_atom_site_fract_x
_atom_site_fract_y
_atom_site_fract_z
Si Si1 0.252545 0.359842 0.500000
Si Si2 0.162465 0.039096 0.000000
Si Si3 0.278651 0.619862 0.860878
Si Si4 0.597617 0.416720 0.314417
Si Si5 0.828329 0.506136 0.000000
Si Si6 0.453230 0.265471 0.368972
Si Si7 0.969695 0.784959 0.500000
Si Si8 0.308060 0.798426 0.500000
O O1 0.234231 0.458516 0.500000
O O2 0.353019 0.329095 0.422841
O O3 0.110045 0.304271 0.500000
O O4 0.169819 0.085756 0.090878
O O5 0.000000 0.000000 0.000000
O O6 0.305908 0.581815 0.768771
O O7 0.230042 0.544030 0.919833
O O8 0.151283 0.688377 0.850927
O O9 0.407032 0.665112 0.916751
O O10 0.500000 0.500000 0.314323
O O11 0.513864 0.328908 0.299941
O O12 0.790495 0.602329 0.000000
O O13 0.000000 0.500000 0.000000
O O14 0.590654 0.230448 0.421526
O O15 0.141518 0.769596 0.500000
#
# Coordination Sequence:
#
# PCOD9440713 Si02
#       8
#     4   4   8   8   4   8   4   4
#     4   9  15  36  62  89 117 157 208 251 306 351
#     4  10  16  34  65  91 115 169 212 252 292 384
#     4  10  23  39  60  95 127 157 208 265 313 367
#     4  11  22  37  63  95 122 163 219 255 305 380
#     4  11  20  42  66  89 125 167 203 262 327 379
#     4  10  19  38  61  87 121 164 209 253 306 380
#     4   9  22  37  59  94 129 159 199 263 316 364
#     4  11  21  36  68  88 121 174 210 249 323 398
#
# _framework density 18.865295
#
# number of rings (size 3 to 8) (size 9 to 14) (size 15 to 20)
#    0.000    1.818    5.455    1.636    2.545    2.182 
#    0.000    0.000    4.000    1.091    0.000    0.000 
#    0.000    0.000    0.000    0.000    0.000    0.000 
#
# Total GULP energy -244957.134010 kJ/mol
# GULP energy per Si atom -5567.207591 kJ/mol
# Density = 1.882236 g / cm^3
# Si number density = 18.865295 Si / 1000 Ang^3
#
#
#
# Elastic Constant Matrix: (Units=GPa)
#
#
# Indices 1 2 3 4 5 6 
#
# 1 96.5568 22.1421 37.1635 0.0000 0.0000 0.0000
# 2 22.1421 121.1991 38.2998 0.0000 0.0000 0.0000
# 3 37.1635 38.2998 132.8201 0.0000 0.0000 0.0000
# 4 0.0000 0.0000 0.0000 11.8232 0.0000 0.0000
# 5 0.0000 0.0000 0.0000 0.0000 2.7273 0.0000
# 6 0.0000 0.0000 0.0000 0.0000 0.0000 23.1789
#
#
#
# Elastic Compliance Matrix: (Units=1/GPa)
#
#
# Indices 1 2 3 4 5 6 
#
# 1 0.011768 -0.001221 -0.002941 0.000000 0.000000 0.000000
# 2 -0.001221 0.009205 -0.002313 0.000000 0.000000 0.000000
# 3 -0.002941 -0.002313 0.009019 0.000000 0.000000 0.000000
# 4 0.000000 0.000000 0.000000 0.084580 0.000000 0.000000
# 5 0.000000 0.000000 0.000000 0.000000 0.366661 0.000000
# 6 0.000000 0.000000 0.000000 0.000000 0.000000 0.043143
#
#
# Mechanical properties :
#
#
# Convention : Reuss Voigt Hill
#
# Bulk Modulus (GPa) = 58.67371 60.64298 59.65834
# Shear Modulus (GPa) = 9.20802 24.41058 16.80930
#
# Velocity S-wave (km/s) = 2.21168 3.60104 2.98823
# Velocity P-wave (km/s) = 6.13930 7.03598 6.60288
#
# Compressibility (1/GPa) = 0.01704341
#
# Stress axis : x y z
#
# Youngs Moduli (GPa) = 84.97323 108.63987 110.88037
#
# Poissons Ratio (x) = 0.13261 0.32608
# Poissons Ratio (y) = 0.10372 0.25643
# Poissons Ratio (z) = 0.24989 0.25125
#
# Static dielectric constant tensor:
#      x y z
#    x 1.664860 0.000000 0.000000 
#    y 0.000000 1.609320 0.000000 
#    z 0.000000 0.000000 1.614890 
# 
# From -- ./inp_files/25244.got.cif
#   From: 2010.05.17/outbox.cif.g08.bks.cpg/sg58_13_cif.got.tgz:25244.got - 2010.06.03 14:20:14.
