data_PCOD9440631
_publ_section_title
;
Structure prediction by ZEFSAII (Michael W. Deem and Ramdas Pophale) SiO2 
 PCOD9440631
Probable space group: P B C M
;
_chemical_formula_sum "Si O2"
_cell_formula_units_Z 56
_cell_length_a 15.000000
_cell_length_b 12.000000
_cell_length_c 15.000000
_cell_angle_alpha 90.000000
_cell_angle_beta 90.000000
_cell_angle_gamma 90.000000
_cell_volume 2700.000000
_symmetry_space_group_name_H-M "P B C M"
_symmetry_group_IT_number 57
_symmetry_cell_setting 'orthorhombic'
loop_
_space_group_symop_operation_xyz
x,y,z
-x,-y,1/2+z
x,1/2-y,-z
-x,1/2+y,1/2-z
-x,-y,-z
x,y,1/2-z
-x,1/2+y,z
x,1/2-y,1/2+z
loop_
_atom_site_type_symbol
_atom_site_label
_atom_site_fract_x
_atom_site_fract_y
_atom_site_fract_z
Si Si1 0.884206 0.474735 0.940633
Si Si2 0.813939 0.716977 0.602273
Si Si3 0.920519 0.942056 0.641283
Si Si4 0.288875 0.848338 0.574701
Si Si5 0.397553 0.007847 0.469806
Si Si6 0.622166 0.778633 0.646701
Si Si7 0.569115 0.305799 0.149728
O O1 0.862157 0.597276 0.900258
O O2 0.811759 0.384410 0.907815
O O3 0.978522 0.437643 0.897450
O O4 0.880405 0.488509 0.051790
O O5 0.800628 0.750000 0.500000
O O6 0.871733 0.820984 0.640603
O O7 0.715000 0.713018 0.643906
O O8 0.917333 0.978067 0.750000
O O9 0.285873 0.750000 0.500000
O O10 0.332508 0.966272 0.546286
O O11 0.362255 0.796474 0.641260
O O12 0.388723 0.909068 0.399205
O O13 0.500000 0.000000 0.500000
O O14 0.369794 0.119167 0.421023
O O15 0.607133 0.814338 0.750000
O O16 0.530517 0.720003 0.615313
O O17 0.555741 0.338495 0.250000
#
# Coordination Sequence:
#
# PCOD9440631 Si02
#       7
#     8   8   8   8   8   8   8
#     4  10  23  42  66  98 128 169 220 266 329 403
#     4  10  22  38  63  92 123 158 212 268 321 390
#     4  10  22  42  65  93 130 164 208 273 337 396
#     4  10  22  40  60  89 122 166 210 260 310 377
#     4  11  21  36  61  82 116 165 211 252 307 374
#     4  11  23  37  59  90 123 161 211 265 315 373
#     4  10  23  39  55  86 127 163 207 262 315 374
#
# _framework density 20.740741
#
# number of rings (size 3 to 8) (size 9 to 14) (size 15 to 20)
#    0.000    1.714    1.429    2.571    4.000    4.571 
#    0.000    2.857    0.000    0.000    0.000    0.000 
#    0.000    0.000    0.000    0.000    0.000    0.000 
#
# Total GULP energy -311784.829736 kJ/mol
# GULP energy per Si atom -5567.586245 kJ/mol
# Density = 2.069353 g / cm^3
# Si number density = 20.740741 Si / 1000 Ang^3
#
#
#
# Elastic Constant Matrix: (Units=GPa)
#
#
# Indices 1 2 3 4 5 6 
#
# 1 115.3170 18.0567 -0.0874 0.0000 0.0000 0.0000
# 2 18.0567 48.9768 10.6960 0.0000 0.0000 0.0000
# 3 -0.0874 10.6960 71.1064 0.0000 0.0000 0.0000
# 4 0.0000 0.0000 0.0000 17.7499 0.0000 0.0000
# 5 0.0000 0.0000 0.0000 0.0000 15.3989 0.0000
# 6 0.0000 0.0000 0.0000 0.0000 0.0000 23.9041
#
#
#
# Elastic Compliance Matrix: (Units=1/GPa)
#
#
# Indices 1 2 3 4 5 6 
#
# 1 0.009223 -0.003518 0.000541 0.000000 0.000000 0.000000
# 2 -0.003518 0.022454 -0.003382 0.000000 0.000000 0.000000
# 3 0.000541 -0.003382 0.014573 0.000000 0.000000 0.000000
# 4 0.000000 0.000000 0.000000 0.056338 0.000000 0.000000
# 5 0.000000 0.000000 0.000000 0.000000 0.064940 0.000000
# 6 0.000000 0.000000 0.000000 0.000000 0.000000 0.041834
#
#
# Mechanical properties :
#
#
# Convention : Reuss Voigt Hill
#
# Bulk Modulus (GPa) = 29.82394 32.52563 31.17479
# Shear Modulus (GPa) = 21.43554 25.19291 23.31423
#
# Velocity S-wave (km/s) = 3.21830 3.48898 3.35637
# Velocity P-wave (km/s) = 5.31230 5.65214 5.48485
#
# Compressibility (1/GPa) = 0.03353011
#
# Stress axis : x y z
#
# Youngs Moduli (GPa) = 108.42366 44.53635 68.62102
#
# Poissons Ratio (x) = 0.15670 -0.03710
# Poissons Ratio (y) = 0.38148 0.23207
# Poissons Ratio (z) = -0.05861 0.15062
#
# Static dielectric constant tensor:
#      x y z
#    x 1.889390 0.000000 0.000000 
#    y 0.000000 1.782880 0.000000 
#    z 0.000000 0.000000 1.877000 
# 
# From -- ./inp_files/18495.got.cif
#   From: 2010.05.17/outbox.ucp.g08.bks.cvg/sg57_10_cif.got.tgz:18495.got - 2010.06.11 16:39:23.
