data_PCOD9440853
_publ_section_title
;
Structure prediction by ZEFSAII (Michael W. Deem and Ramdas Pophale) SiO2 
 PCOD9440853
Probable space group: P N N M
;
_chemical_formula_sum "Si O2"
_cell_formula_units_Z 64
_cell_length_a 12.261314
_cell_length_b 31.241905
_cell_length_c 7.583418
_cell_angle_alpha 90.000000
_cell_angle_beta 90.000000
_cell_angle_gamma 90.000000
_cell_volume 2904.955721
_symmetry_space_group_name_H-M "P N N M"
_symmetry_group_IT_number 58
_symmetry_cell_setting 'orthorhombic'
loop_
_space_group_symop_operation_xyz
x,y,z
-x,-y,z
1/2+x,1/2-y,1/2-z
1/2-x,1/2+y,1/2-z
-x,-y,-z
x,y,-z
1/2-x,1/2+y,1/2+z
1/2+x,1/2-y,1/2+z
loop_
_atom_site_type_symbol
_atom_site_label
_atom_site_fract_x
_atom_site_fract_y
_atom_site_fract_z
Si Si1 0.738922 0.690041 0.201862
Si Si2 0.290716 0.549999 0.784245
Si Si3 0.340195 0.133975 0.716024
Si Si4 0.792365 0.784190 0.295614
Si Si5 0.502743 0.665108 0.700990
Si Si6 0.234811 0.457686 0.784569
Si Si7 0.973430 0.068084 0.297315
Si Si8 0.412024 0.880105 0.715704
O O1 0.780275 0.738491 0.206105
O O2 0.622860 0.685144 0.293893
O O3 0.830600 0.657773 0.272389
O O4 0.718241 0.676779 0.000000
O O5 0.233346 0.593745 0.727556
O O6 0.226302 0.507236 0.733574
O O7 0.416209 0.547747 0.721619
O O8 0.294239 0.551143 0.000000
O O9 0.337669 0.134367 0.500000
O O10 0.287841 0.178756 0.774117
O O11 0.464476 0.127519 0.773160
O O12 0.765296 0.776953 0.500000
O O13 0.913300 0.803610 0.282285
O O14 0.470018 0.657273 0.500000
O O15 0.507470 0.619020 0.792799
O O16 0.354226 0.441694 0.722194
O O17 0.141520 0.424921 0.727283
O O18 0.234091 0.455954 0.000000
O O19 0.967598 0.053357 0.500000
O O20 0.414665 0.879715 0.500000
#
# Coordination Sequence:
#
# PCOD9440853 Si02
#       8
#     8   8   8   8   8   8   8   8
#     4  11  23  40  61  87 119 154 193 240 297 353
#     4   9  16  27  49  81 114 149 189 235 291 354
#     4   9  18  32  51  79 116 151 185 234 289 344
#     4  11  23  40  61  87 119 154 193 240 297 353
#     4  12  24  39  61  87 116 154 199 245 294 349
#     4   9  16  27  49  81 114 149 189 235 291 354
#     4  10  17  32  54  82 116 150 190 243 297 345
#     4   9  18  32  51  79 116 151 185 234 289 344
#
# _framework density 22.031317000000001
#
# number of rings (size 3 to 8) (size 9 to 14) (size 15 to 20)
#    0.000    2.000    2.500    2.250    1.750    2.000 
#    0.000    2.500    0.000    1.500    0.000    0.000 
#    0.000    2.000    0.000    0.000    0.000    0.000 
#
# Total GULP energy -357656.747580 kJ/mol
# GULP energy per Si atom -5588.386681 kJ/mol
# Density = 2.198117 g / cm^3
# Si number density = 22.031317 Si / 1000 Ang^3
#
#
#
# Elastic Constant Matrix: (Units=GPa)
#
#
# Indices 1 2 3 4 5 6 
#
# 1 78.7610 -3.7306 -3.8977 0.0000 0.0000 0.0000
# 2 -3.7306 71.3122 -7.4248 0.0000 0.0000 0.0000
# 3 -3.8977 -7.4248 54.3806 0.0000 0.0000 0.0000
# 4 0.0000 0.0000 0.0000 10.2599 0.0000 0.0000
# 5 0.0000 0.0000 0.0000 0.0000 -4.2991 0.0000
# 6 0.0000 0.0000 0.0000 0.0000 0.0000 20.9899
#
#
#
# Elastic Compliance Matrix: (Units=1/GPa)
#
#
# Indices 1 2 3 4 5 6 
#
# 1 0.012784 0.000775 0.001022 0.000000 0.000000 0.000000
# 2 0.000775 0.014272 0.002004 0.000000 0.000000 0.000000
# 3 0.001022 0.002004 0.018736 0.000000 0.000000 0.000000
# 4 0.000000 0.000000 0.000000 0.097467 0.000000 0.000000
# 5 0.000000 0.000000 0.000000 0.000000 -0.232607 0.000000
# 6 0.000000 0.000000 0.000000 0.000000 0.000000 0.047642
#
#
# Mechanical properties :
#
#
# Convention : Reuss Voigt Hill
#
# Bulk Modulus (GPa) = 18.72841 19.37196 19.05019
# Shear Modulus (GPa) = -158.67482 20.02393 -69.32545
#
# Velocity S-wave (km/s) = -8.49581 3.01804 -5.61561
# Velocity P-wave (km/s) = 9.36585 4.57786 5.77764
#
# Compressibility (1/GPa) = 0.05339481
#
# Stress axis : x y z
#
# Youngs Moduli (GPa) = 78.22318 70.06691 53.37371
#
# Poissons Ratio (x) = -0.05432 -0.05455
# Poissons Ratio (y) = -0.06064 -0.10697
# Poissons Ratio (z) = -0.07995 -0.14043
#
# Static dielectric constant tensor:
#      x y z
#    x 1.773490 0.000000 0.000000 
#    y 0.000000 1.775250 0.000000 
#    z 0.000000 0.000000 1.852770 
# 
# From -- ./inp_files/4820.got.cif
#   From: 2010.05.17/outbox.cif.g08.bks.cpg/sg58_3_cif.got.tgz:4820.got - 2010.06.03 14:20:14.
