data_PCOD9440195
_publ_section_title
;
Structure prediction by ZEFSAII (Michael W. Deem and Ramdas Pophale) SiO2 
 PCOD9440195
Probable space group: P B C M
;
_chemical_formula_sum "Si O2"
_cell_formula_units_Z 60
_cell_length_a 9.578841
_cell_length_b 18.701251
_cell_length_c 17.533295
_cell_angle_alpha 90.000000
_cell_angle_beta 90.000000
_cell_angle_gamma 90.000000
_cell_volume 3140.849765
_symmetry_space_group_name_H-M "P B C M"
_symmetry_group_IT_number 57
_symmetry_cell_setting 'orthorhombic'
loop_
_space_group_symop_operation_xyz
x,y,z
-x,-y,1/2+z
x,1/2-y,-z
-x,1/2+y,1/2-z
-x,-y,-z
x,y,1/2-z
-x,1/2+y,z
x,1/2-y,1/2+z
loop_
_atom_site_type_symbol
_atom_site_label
_atom_site_fract_x
_atom_site_fract_y
_atom_site_fract_z
Si Si1 0.101938 0.024600 0.750000
Si Si2 0.387565 0.235347 0.590324
Si Si3 0.355269 0.502397 0.130470
Si Si4 0.888749 0.080282 0.878583
Si Si5 0.229755 0.457782 0.970820
Si Si6 0.579666 0.609147 0.339734
Si Si7 0.102932 0.180207 0.949458
Si Si8 0.575060 0.121480 0.664148
O O1 0.220560 0.009261 0.817158
O O2 0.984346 0.043518 0.815533
O O3 0.387699 0.250000 0.500000
O O4 0.403790 0.308266 0.636791
O O5 0.235758 0.199149 0.604431
O O6 0.510292 0.180817 0.609234
O O7 0.424342 0.579814 0.143157
O O8 0.475218 0.447066 0.156158
O O9 0.320368 0.485080 0.042556
O O10 0.733703 0.100886 0.852101
O O11 0.970520 0.151178 0.904596
O O12 0.868263 0.022659 0.945708
O O13 0.320482 0.434811 0.897215
O O14 0.152955 0.385953 0.998345
O O15 0.611333 0.598485 0.250000
O O16 0.073396 0.250000 0.000000
O O17 0.562760 0.149372 0.750000
#
# Coordination Sequence:
#
# PCOD9440195 Si02
#       8
#     4   8   8   8   8   8   8   8
#     4  12  24  46  68 104 140 186 222 282 354 436
#     4  11  23  44  71  97 136 182 241 278 346 424
#     4  12  24  44  75 103 138 179 236 283 353 417
#     4  12  27  42  69 104 143 177 231 285 355 409
#     4  12  24  44  72 106 135 180 236 287 345 420
#     4  12  24  42  70 108 137 180 236 304 347 404
#     4  11  23  47  67  97 136 189 231 271 343 440
#     4  12  23  41  67 105 133 172 226 295 331 405
#
# _framework density 19.103110999999998
#
# number of rings (size 3 to 8) (size 9 to 14) (size 15 to 20)
#    0.000    0.267    8.667    1.200    2.800    0.533 
#    1.200    0.000    0.000    0.000    0.000    0.000 
#    0.000    0.000    0.000    0.000    0.000    0.000 
#
# Total GULP energy -334249.771653 kJ/mol
# GULP energy per Si atom -5570.829528 kJ/mol
# Density = 1.905963 g / cm^3
# Si number density = 19.103111 Si / 1000 Ang^3
#
#
#
# Elastic Constant Matrix: (Units=GPa)
#
#
# Indices 1 2 3 4 5 6 
#
# 1 144.9862 43.3192 42.5411 0.0000 0.0000 0.0000
# 2 43.3192 79.9386 22.2471 0.0000 0.0000 0.0000
# 3 42.5411 22.2471 110.5269 0.0000 0.0000 0.0000
# 4 0.0000 0.0000 0.0000 16.1928 0.0000 0.0000
# 5 0.0000 0.0000 0.0000 0.0000 21.6446 0.0000
# 6 0.0000 0.0000 0.0000 0.0000 0.0000 33.8427
#
#
#
# Elastic Compliance Matrix: (Units=1/GPa)
#
#
# Indices 1 2 3 4 5 6 
#
# 1 0.008881 -0.004090 -0.002595 0.000000 0.000000 0.000000
# 2 -0.004090 0.015136 -0.001472 0.000000 0.000000 0.000000
# 3 -0.002595 -0.001472 0.010343 0.000000 0.000000 0.000000
# 4 0.000000 0.000000 0.000000 0.061756 0.000000 0.000000
# 5 0.000000 0.000000 0.000000 0.000000 0.046201 0.000000
# 6 0.000000 0.000000 0.000000 0.000000 0.000000 0.029548
#
#
# Mechanical properties :
#
#
# Convention : Reuss Voigt Hill
#
# Bulk Modulus (GPa) = 55.41876 61.29628 58.35752
# Shear Modulus (GPa) = 25.74743 29.49231 27.61987
#
# Velocity S-wave (km/s) = 3.67524 3.93345 3.80653
# Velocity P-wave (km/s) = 6.86172 7.26540 7.06644
#
# Compressibility (1/GPa) = 0.01804443
#
# Stress axis : x y z
#
# Youngs Moduli (GPa) = 112.60390 66.06800 96.68719
#
# Poissons Ratio (x) = 0.27024 0.25088
# Poissons Ratio (y) = 0.46059 0.14235
# Poissons Ratio (z) = 0.29218 0.09727
#
# Static dielectric constant tensor:
#      x y z
#    x 1.670220 0.000000 0.000000 
#    y 0.000000 1.681130 0.000000 
#    z 0.000000 0.000000 1.681930 
# 
# From -- ./inp_files/21269.got.cif
#   From: 2010.05.17/outbox.cif.g08.bks.cpg/sg57_11_cif.got.tgz:21269.got - 2010.06.03 13:58:18.
