data_PCOD9441870
_publ_section_title
;
Structure prediction by ZEFSAII (Michael W. Deem and Ramdas Pophale) SiO2 
 PCOD9441870
Probable space group: P N N M
;
_chemical_formula_sum "Si O2"
_cell_formula_units_Z 64
_cell_length_a 16.877093
_cell_length_b 20.632711
_cell_length_c 7.545515
_cell_angle_alpha 90.000000
_cell_angle_beta 90.000000
_cell_angle_gamma 90.000000
_cell_volume 2627.500610
_symmetry_space_group_name_H-M "P N N M"
_symmetry_group_IT_number 58
_symmetry_cell_setting 'orthorhombic'
loop_
_space_group_symop_operation_xyz
x,y,z
-x,-y,z
1/2+x,1/2-y,1/2-z
1/2-x,1/2+y,1/2-z
-x,-y,-z
x,y,-z
1/2-x,1/2+y,1/2+z
1/2+x,1/2-y,1/2+z
loop_
_atom_site_type_symbol
_atom_site_label
_atom_site_fract_x
_atom_site_fract_y
_atom_site_fract_z
Si Si1 0.372908 0.011304 0.201650
Si Si2 0.274126 0.896570 0.211753
Si Si3 0.736729 0.390311 0.789403
Si Si4 0.828757 0.271801 0.798808
Si Si5 0.608079 0.634740 0.717362
Si Si6 0.961831 0.370313 0.292157
Si Si7 0.612898 0.210496 0.710645
Si Si8 0.568778 0.354569 0.286486
O O1 0.295259 0.058141 0.202251
O O2 0.441756 0.057674 0.275786
O O3 0.338068 0.946729 0.288831
O O4 0.397256 0.994385 0.000000
O O5 0.183937 0.907638 0.273307
O O6 0.303630 0.823116 0.243969
O O7 0.273642 0.906182 0.000000
O O8 0.761037 0.318246 0.719062
O O9 0.643699 0.398779 0.760503
O O10 0.752777 0.391494 0.000000
O O11 0.865129 0.206518 0.721343
O O12 0.903256 0.320683 0.802101
O O13 0.804710 0.256405 0.000000
O O14 0.606393 0.634106 0.500000
O O15 0.518117 0.623073 0.775754
O O16 0.940467 0.370761 0.500000
O O17 0.048311 0.341303 0.275683
O O18 0.607795 0.214080 0.500000
O O19 0.589500 0.281630 0.780454
O O20 0.565279 0.351533 0.500000
#
# Coordination Sequence:
#
# PCOD9441870 Si02
#       8
#     8   8   8   8   8   8   8   8
#     4   9  20  38  57  79 109 146 189 233 273 318
#     4  10  21  38  59  80 106 145 192 233 270 323
#     4  10  20  33  56  83 107 141 183 227 271 323
#     4   9  16  31  52  76 106 136 171 216 271 325
#     4   9  17  33  56  78 104 140 178 223 274 324
#     4  10  19  32  53  80 109 142 179 221 267 321
#     4  11  22  36  55  82 117 146 175 222 280 334
#     4  10  20  35  55  80 112 142 173 220 276 331
#
# _framework density 24.357748999999998
#
# number of rings (size 3 to 8) (size 9 to 14) (size 15 to 20)
#    0.000    2.250    1.250    1.875    0.000    4.000 
#    0.000    4.375    0.000    3.750    0.000    0.000 
#    0.000    0.000    0.000    0.000    0.000    0.000 
#
# Total GULP energy -357349.263769 kJ/mol
# GULP energy per Si atom -5583.582246 kJ/mol
# Density = 2.430231 g / cm^3
# Si number density = 24.357749 Si / 1000 Ang^3
#
#
#
# Elastic Constant Matrix: (Units=GPa)
#
#
# Indices 1 2 3 4 5 6 
#
# 1 84.7076 -21.1817 2.5499 0.0000 0.0000 0.0000
# 2 -21.1817 36.6212 -1.5705 0.0000 0.0000 0.0000
# 3 2.5499 -1.5705 78.6906 0.0000 0.0000 0.0000
# 4 0.0000 0.0000 0.0000 -17.2617 0.0000 0.0000
# 5 0.0000 0.0000 0.0000 0.0000 19.4682 0.0000
# 6 0.0000 0.0000 0.0000 0.0000 0.0000 30.5846
#
#
#
# Elastic Compliance Matrix: (Units=1/GPa)
#
#
# Indices 1 2 3 4 5 6 
#
# 1 0.013808 0.007974 -0.000288 0.000000 0.000000 0.000000
# 2 0.007974 0.031935 0.000379 0.000000 0.000000 0.000000
# 3 -0.000288 0.000379 0.012725 0.000000 0.000000 0.000000
# 4 0.000000 0.000000 0.000000 -0.057932 0.000000 0.000000
# 5 0.000000 0.000000 0.000000 0.000000 0.051366 0.000000
# 6 0.000000 0.000000 0.000000 0.000000 0.000000 0.032696
#
#
# Mechanical properties :
#
#
# Convention : Reuss Voigt Hill
#
# Bulk Modulus (GPa) = 13.40524 17.73497 15.57010
# Shear Modulus (GPa) = 53.57076 21.23967 37.40521
#
# Velocity S-wave (km/s) = 4.69479 2.95615 3.92300
# Velocity P-wave (km/s) = 5.90792 4.35300 5.18903
#
# Compressibility (1/GPa) = 0.07459772
#
# Stress axis : x y z
#
# Youngs Moduli (GPa) = 72.42183 31.31349 78.58604
#
# Poissons Ratio (x) = -0.24970 0.02266
# Poissons Ratio (y) = -0.57750 -0.02978
# Poissons Ratio (z) = 0.02088 -0.01187
#
# Static dielectric constant tensor:
#      x y z
#    x 1.962690 0.000000 0.000000 
#    y 0.000000 1.968280 0.000000 
#    z 0.000000 0.000000 1.956620 
# 
# From -- ./inp_files/6848.got.cif
#   From: 2010.05.17/outbox.cif.g08.bks.cpg/sg58_4_cif.got.tgz:6848.got - 2010.06.03 14:20:14.
