data_PCOD9441131
_publ_section_title
;
Structure prediction by ZEFSAII (Michael W. Deem and Ramdas Pophale) SiO2 
 PCOD9441131
Probable space group: P N N M
;
_chemical_formula_sum "Si O2"
_cell_formula_units_Z 56
_cell_length_a 12.636607
_cell_length_b 24.396426
_cell_length_c 7.262422
_cell_angle_alpha 90.000000
_cell_angle_beta 90.000000
_cell_angle_gamma 90.000000
_cell_volume 2238.917899
_symmetry_space_group_name_H-M "P N N M"
_symmetry_group_IT_number 58
_symmetry_cell_setting 'orthorhombic'
loop_
_space_group_symop_operation_xyz
x,y,z
-x,-y,z
1/2+x,1/2-y,1/2-z
1/2-x,1/2+y,1/2-z
-x,-y,-z
x,y,-z
1/2-x,1/2+y,1/2+z
1/2+x,1/2-y,1/2+z
loop_
_atom_site_type_symbol
_atom_site_label
_atom_site_fract_x
_atom_site_fract_y
_atom_site_fract_z
Si Si1 0.546430 0.236278 0.776840
Si Si2 0.380265 0.513430 0.222889
Si Si3 0.257337 0.907938 0.275857
Si Si4 0.273606 0.107448 0.275053
Si Si5 0.419708 0.325471 0.203189
Si Si6 0.505454 0.112635 0.289223
Si Si7 0.730693 0.766953 0.277775
O O1 0.523187 0.299301 0.709694
O O2 0.496071 0.179096 0.711914
O O3 0.669261 0.230918 0.722499
O O4 0.547852 0.237414 0.000000
O O5 0.500000 0.500000 0.286748
O O6 0.297058 0.465581 0.268869
O O7 0.323535 0.569306 0.283908
O O8 0.386877 0.515253 0.000000
O O9 0.260810 0.902040 0.500000
O O10 0.168523 0.863987 0.211750
O O11 0.378215 0.901142 0.209710
O O12 0.275001 0.105693 0.500000
O O13 0.393135 0.090758 0.214172
O O14 0.260041 0.170475 0.222075
O O15 0.367136 0.264947 0.192786
O O16 0.445666 0.348214 0.000000
O O17 0.509575 0.093316 0.500000
O O18 0.718541 0.765222 0.500000
#
# Coordination Sequence:
#
# PCOD9441131 Si02
#       7
#     8   8   8   8   8   8   8
#     4  10  20  30  45  72 105 134 162 203 246 292
#     4   9  18  31  47  69  99 131 162 200 248 299
#     4   9  18  30  46  69  97 131 164 199 245 292
#     4   9  18  30  46  69  97 131 164 199 245 292
#     4  10  19  31  48  73 103 132 164 201 246 295
#     4  10  18  31  50  72 101 129 161 205 246 294
#     4  10  19  31  48  73 103 132 164 201 246 295
#
# _framework density 25.012081999999999
#
# number of rings (size 3 to 8) (size 9 to 14) (size 15 to 20)
#    0.000    2.429    2.857    0.000    2.000    0.571 
#    0.000    2.857    0.000    0.000    0.000    5.000 
#    0.000    4.571    0.000    0.000    0.000    0.000 
#
# Total GULP energy -312235.218745 kJ/mol
# GULP energy per Si atom -5575.628906 kJ/mol
# Density = 2.495515 g / cm^3
# Si number density = 25.012082 Si / 1000 Ang^3
#
#
#
# Elastic Constant Matrix: (Units=GPa)
#
#
# Indices 1 2 3 4 5 6 
#
# 1 100.9716 8.3615 -1.2875 0.0000 0.0000 0.0000
# 2 8.3615 79.5796 -6.1797 0.0000 0.0000 0.0000
# 3 -1.2875 -6.1797 112.9551 0.0000 0.0000 0.0000
# 4 0.0000 0.0000 0.0000 4.6529 0.0000 0.0000
# 5 0.0000 0.0000 0.0000 0.0000 11.3187 0.0000
# 6 0.0000 0.0000 0.0000 0.0000 0.0000 43.1091
#
#
#
# Elastic Compliance Matrix: (Units=1/GPa)
#
#
# Indices 1 2 3 4 5 6 
#
# 1 0.009991 -0.001045 0.000057 0.000000 0.000000 0.000000
# 2 -0.001045 0.012729 0.000684 0.000000 0.000000 0.000000
# 3 0.000057 0.000684 0.008891 0.000000 0.000000 0.000000
# 4 0.000000 0.000000 0.000000 0.214918 0.000000 0.000000
# 5 0.000000 0.000000 0.000000 0.000000 0.088349 0.000000
# 6 0.000000 0.000000 0.000000 0.000000 0.000000 0.023197
#
#
# Mechanical properties :
#
#
# Convention : Reuss Voigt Hill
#
# Bulk Modulus (GPa) = 32.25506 32.81052 32.53279
# Shear Modulus (GPa) = 13.54949 31.32362 22.43655
#
# Velocity S-wave (km/s) = 2.33001 3.54268 2.99829
# Velocity P-wave (km/s) = 4.49025 5.46630 5.00214
#
# Compressibility (1/GPa) = 0.03100289
#
# Stress axis : x y z
#
# Youngs Moduli (GPa) = 100.08940 78.56064 112.47113
#
# Poissons Ratio (x) = 0.08212 -0.00638
# Poissons Ratio (y) = 0.10463 -0.07698
# Poissons Ratio (z) = -0.00567 -0.05377
#
# Static dielectric constant tensor:
#      x y z
#    x 2.068430 0.000000 0.000000 
#    y 0.000000 2.023950 0.000000 
#    z 0.000000 0.000000 2.007390 
# 
# From -- ./inp_files/14755.got.cif
#   From: 2010.05.17/outbox.cif.g08.bks.cpg/sg58_8_cif.got.tgz:14755.got - 2010.06.03 14:20:14.
