data_PCOD9441533
_publ_section_title
;
Structure prediction by ZEFSAII (Michael W. Deem and Ramdas Pophale) SiO2 
 PCOD9441533
Probable space group: P N N M
;
_chemical_formula_sum "Si O2"
_cell_formula_units_Z 40
_cell_length_a 29.013281
_cell_length_b 5.130744
_cell_length_c 18.995014
_cell_angle_alpha 90.000000
_cell_angle_beta 90.000000
_cell_angle_gamma 90.000000
_cell_volume 2827.592416
_symmetry_space_group_name_H-M "P N N M"
_symmetry_group_IT_number 58
_symmetry_cell_setting 'orthorhombic'
loop_
_space_group_symop_operation_xyz
x,y,z
-x,-y,z
1/2+x,1/2-y,1/2-z
1/2-x,1/2+y,1/2-z
-x,-y,-z
x,y,-z
1/2-x,1/2+y,1/2+z
1/2+x,1/2-y,1/2+z
loop_
_atom_site_type_symbol
_atom_site_label
_atom_site_fract_x
_atom_site_fract_y
_atom_site_fract_z
Si Si1 0.393470 0.944128 0.130616
Si Si2 0.553963 0.561616 0.084220
Si Si3 0.264603 0.423640 0.000000
Si Si4 0.252903 0.521117 0.844752
Si Si5 0.174646 0.424437 0.500000
Si Si6 0.193341 0.521599 0.290370
O O1 0.416398 0.663653 0.121155
O O2 0.356887 0.974650 0.067285
O O3 0.360951 0.982951 0.198180
O O4 0.431581 0.164538 0.117869
O O5 0.500000 0.500000 0.091597
O O6 0.564189 0.563817 0.000000
O O7 0.239937 0.480755 0.073983
O O8 0.307259 0.628630 0.000000
O O9 0.283745 0.130183 0.000000
O O10 0.210788 0.507680 0.789983
O O11 0.279155 0.792854 0.831348
O O12 0.288694 0.293961 0.822340
#
# Coordination Sequence:
#
# PCOD9441533 Si02
#       6
#     8   8   4   8   4   8
#     4  12  19  31  45  59  83 112 145 178 209 248
#     4  11  22  32  43  61  83 107 140 182 220 248
#     4  12  18  30  44  62  89 114 147 182 206 242
#     4  10  19  30  42  63  88 111 142 179 212 242
#     4  12  20  26  43  70  78 112 154 180 205 244
#     4  10  20  30  43  62  86 112 143 179 212 245
#
# _framework density 14.146311000000001
#
# number of rings (size 3 to 8) (size 9 to 14) (size 15 to 20)
#    0.000    1.000    6.000    3.000    0.000    1.600 
#    0.000    0.000    0.000    0.000    0.000    0.000 
#    0.000    0.000    0.000    5.400    0.000    0.000 
#
# Total GULP energy -223261.479083 kJ/mol
# GULP energy per Si atom -5581.536977 kJ/mol
# Density = 1.411411 g / cm^3
# Si number density = 14.146311 Si / 1000 Ang^3
#
#
#
# Elastic Constant Matrix: (Units=GPa)
#
#
# Indices 1 2 3 4 5 6 
#
# 1 34.4819 -13.5022 14.4239 0.0000 0.0000 0.0000
# 2 -13.5022 45.3644 -8.5875 0.0000 0.0000 0.0000
# 3 14.4239 -8.5875 71.0526 0.0000 0.0000 0.0000
# 4 0.0000 0.0000 0.0000 11.5762 0.0000 0.0000
# 5 0.0000 0.0000 0.0000 0.0000 17.5882 0.0000
# 6 0.0000 0.0000 0.0000 0.0000 0.0000 21.0029
#
#
#
# Elastic Compliance Matrix: (Units=1/GPa)
#
#
# Indices 1 2 3 4 5 6 
#
# 1 0.035169 0.009329 -0.006012 0.000000 0.000000 0.000000
# 2 0.009329 0.025035 0.001132 0.000000 0.000000 0.000000
# 3 -0.006012 0.001132 0.015431 0.000000 0.000000 0.000000
# 4 0.000000 0.000000 0.000000 0.086384 0.000000 0.000000
# 5 0.000000 0.000000 0.000000 0.000000 0.056856 0.000000
# 6 0.000000 0.000000 0.000000 0.000000 0.000000 0.047613
#
#
# Mechanical properties :
#
#
# Convention : Reuss Voigt Hill
#
# Bulk Modulus (GPa) = 11.82959 15.06303 13.44631
# Shear Modulus (GPa) = 17.49682 20.60444 19.05063
#
# Velocity S-wave (km/s) = 3.52070 3.82058 3.67370
# Velocity P-wave (km/s) = 4.99075 5.48941 5.24601
#
# Compressibility (1/GPa) = 0.08453378
#
# Stress axis : x y z
#
# Youngs Moduli (GPa) = 28.43442 39.94444 64.80341
#
# Poissons Ratio (x) = -0.37266 0.38958
# Poissons Ratio (y) = -0.26528 -0.07335
# Poissons Ratio (z) = 0.17094 -0.04521
#
# Static dielectric constant tensor:
#      x y z
#    x 1.453230 0.000000 0.000000 
#    y 0.000000 1.482270 0.000000 
#    z 0.000000 0.000000 1.494400 
# 
# From -- ./inp_files/24372.got.cif
#   From: 2010.05.17/outbox.cif.g08.bks.cpg/sg58_13_cif.got.tgz:24372.got - 2010.06.03 14:20:14.
