data_PCOD9441687
_publ_section_title
;
Structure prediction by ZEFSAII (Michael W. Deem and Ramdas Pophale) SiO2 
 PCOD9441687
Probable space group: P N N M
;
_chemical_formula_sum "Si O2"
_cell_formula_units_Z 48
_cell_length_a 13.974797
_cell_length_b 5.263146
_cell_length_c 28.945298
_cell_angle_alpha 90.000000
_cell_angle_beta 90.000000
_cell_angle_gamma 90.000000
_cell_volume 2128.967102
_symmetry_space_group_name_H-M "P N N M"
_symmetry_group_IT_number 58
_symmetry_cell_setting 'orthorhombic'
loop_
_space_group_symop_operation_xyz
x,y,z
-x,-y,z
1/2+x,1/2-y,1/2-z
1/2-x,1/2+y,1/2-z
-x,-y,-z
x,y,-z
1/2-x,1/2+y,1/2+z
1/2+x,1/2-y,1/2+z
loop_
_atom_site_type_symbol
_atom_site_label
_atom_site_fract_x
_atom_site_fract_y
_atom_site_fract_z
Si Si1 0.138890 0.426300 0.256192
Si Si2 0.935375 0.748918 0.353034
Si Si3 0.616322 0.518860 0.391743
Si Si4 0.067874 0.249630 0.451039
Si Si5 0.383501 0.984223 0.553132
Si Si6 0.853694 0.063736 0.785991
O O1 0.117539 0.308481 0.305985
O O2 0.099303 0.700120 0.240897
O O3 0.252618 0.467658 0.259649
O O4 0.104242 0.216508 0.220076
O O5 0.879354 0.762915 0.401759
O O6 0.000000 0.500000 0.358004
O O7 0.000000 0.000000 0.348321
O O8 0.500000 0.500000 0.388106
O O9 0.647045 0.247423 0.413291
O O10 0.653674 0.595760 0.340892
O O11 0.644691 0.742884 0.426713
O O12 0.122041 0.248908 0.500000
O O13 0.000000 0.500000 0.451655
O O14 0.000000 0.000000 0.450802
O O15 0.353200 0.941574 0.500000
O O16 0.500000 0.000000 0.552898
#
# Coordination Sequence:
#
# PCOD9441687 Si02
#       6
#     8   8   8   8   8   8
#     4  10  21  36  51  70  98 135 171 204 250 306
#     4  10  19  31  50  76  99 124 162 206 249 288
#     4  10  19  31  50  76 100 128 168 210 247 286
#     4   8  14  25  42  65  92 119 148 186 235 289
#     4   9  17  30  49  74 103 131 161 200 248 300
#     4  10  21  36  52  70  98 137 173 203 249 305
#
# _framework density 22.546146
#
# number of rings (size 3 to 8) (size 9 to 14) (size 15 to 20)
#    0.000    2.500    0.000    2.500    0.000    4.000 
#    0.000    0.000    0.000    2.000    0.000    9.333 
#    0.000    0.000    0.000    0.000    0.000    0.000 
#
# Total GULP energy -267417.710646 kJ/mol
# GULP energy per Si atom -5571.202305 kJ/mol
# Density = 2.249483 g / cm^3
# Si number density = 22.546146 Si / 1000 Ang^3
#
#
#
# Elastic Constant Matrix: (Units=GPa)
#
#
# Indices 1 2 3 4 5 6 
#
# 1 25.0143 31.6841 -1.5905 0.0000 0.0000 0.0000
# 2 31.6841 127.4487 -4.9173 0.0000 0.0000 0.0000
# 3 -1.5905 -4.9173 104.7165 0.0000 0.0000 0.0000
# 4 0.0000 0.0000 0.0000 39.3507 0.0000 0.0000
# 5 0.0000 0.0000 0.0000 0.0000 -26.8012 0.0000
# 6 0.0000 0.0000 0.0000 0.0000 0.0000 1.2644
#
#
#
# Elastic Compliance Matrix: (Units=1/GPa)
#
#
# Indices 1 2 3 4 5 6 
#
# 1 0.058356 -0.014499 0.000205 0.000000 0.000000 0.000000
# 2 -0.014499 0.011463 0.000318 0.000000 0.000000 0.000000
# 3 0.000205 0.000318 0.009568 0.000000 0.000000 0.000000
# 4 0.000000 0.000000 0.000000 0.025412 0.000000 0.000000
# 5 0.000000 0.000000 0.000000 0.000000 -0.037312 0.000000
# 6 0.000000 0.000000 0.000000 0.000000 0.000000 0.790898
#
#
# Mechanical properties :
#
#
# Convention : Reuss Voigt Hill
#
# Bulk Modulus (GPa) = 19.44214 34.17023 26.80618
# Shear Modulus (GPa) = 5.53415 18.22967 11.88191
#
# Velocity S-wave (km/s) = 1.56841 2.84658 2.29815
# Velocity P-wave (km/s) = 3.45281 5.09830 4.35399
#
# Compressibility (1/GPa) = 0.05143468
#
# Stress axis : x y z
#
# Youngs Moduli (GPa) = 17.13627 87.23588 104.51886
#
# Poissons Ratio (x) = 1.26487 -0.02147
# Poissons Ratio (y) = 0.24847 -0.03324
# Poissons Ratio (z) = -0.00352 -0.02775
#
# Static dielectric constant tensor:
#      x y z
#    x 1.874680 0.000000 0.000000 
#    y 0.000000 1.897720 0.000000 
#    z 0.000000 0.000000 1.902460 
# 
# From -- ./inp_files/32361.got.cif
#   From: 2010.05.17/outbox.cif.g08.bks.cpg/sg58_17_cif.got.tgz:32361.got - 2010.06.03 14:20:14.
