data_PCOD9441859
_publ_section_title
;
Structure prediction by ZEFSAII (Michael W. Deem and Ramdas Pophale) SiO2 
 PCOD9441859
Probable space group: P N N M
;
_chemical_formula_sum "Si O2"
_cell_formula_units_Z 64
_cell_length_a 21.123586
_cell_length_b 20.184879
_cell_length_c 8.901842
_cell_angle_alpha 90.000000
_cell_angle_beta 90.000000
_cell_angle_gamma 90.000000
_cell_volume 3795.540931
_symmetry_space_group_name_H-M "P N N M"
_symmetry_group_IT_number 58
_symmetry_cell_setting 'orthorhombic'
loop_
_space_group_symop_operation_xyz
x,y,z
-x,-y,z
1/2+x,1/2-y,1/2-z
1/2-x,1/2+y,1/2-z
-x,-y,-z
x,y,-z
1/2-x,1/2+y,1/2+z
1/2+x,1/2-y,1/2+z
loop_
_atom_site_type_symbol
_atom_site_label
_atom_site_fract_x
_atom_site_fract_y
_atom_site_fract_z
Si Si1 0.879696 0.563908 0.821068
Si Si2 0.304823 0.715505 0.180751
Si Si3 0.074986 0.302942 0.681367
Si Si4 0.679749 0.704013 0.319215
Si Si5 0.231162 0.081388 0.178433
Si Si6 0.760327 0.066205 0.818681
Si Si7 0.065616 0.717168 0.319577
Si Si8 0.881539 0.425286 0.679574
O O1 0.918777 0.624799 0.753631
O O2 0.807971 0.572782 0.758791
O O3 0.902023 0.492258 0.761795
O O4 0.879941 0.565346 0.000000
O O5 0.365669 0.757918 0.229353
O O6 0.240125 0.751889 0.230718
O O7 0.303662 0.640751 0.239018
O O8 0.304692 0.715296 0.000000
O O9 0.077765 0.310437 0.500000
O O10 0.007441 0.271110 0.719964
O O11 0.676507 0.707906 0.500000
O O12 0.695864 0.628199 0.278996
O O13 0.615938 0.733264 0.251655
O O14 0.306625 0.085250 0.210193
O O15 0.212458 0.006231 0.219376
O O16 0.223082 0.089596 0.000000
O O17 0.749609 0.067484 0.000000
O O18 0.072084 0.720449 0.500000
O O19 0.083192 0.641724 0.275064
O O20 0.888524 0.434792 0.500000
#
# Coordination Sequence:
#
# PCOD9441859 Si02
#       8
#     8   8   8   8   8   8   8   8
#     4  11  21  31  49  77 105 136 174 218 254 293
#     4  10  19  32  53  77 102 135 170 208 258 309
#     4  10  21  38  54  71 103 145 179 207 255 318
#     4  10  19  33  55  78 104 135 167 214 266 307
#     4   9  17  30  52  77 103 130 168 215 251 299
#     4   9  18  35  54  75 104 140 172 204 258 316
#     4  10  21  36  55  76 101 138 181 217 250 304
#     4   9  18  33  50  71 102 139 173 207 251 307
#
# _framework density 16.861891
#
# number of rings (size 3 to 8) (size 9 to 14) (size 15 to 20)
#    0.000    2.250    2.500    1.875    0.000    4.500 
#    0.000    2.500    0.000    0.750    0.000    5.250 
#    0.000    0.000    0.000    0.000    0.000    0.000 
#
# Total GULP energy -357050.111661 kJ/mol
# GULP energy per Si atom -5578.907995 kJ/mol
# Density = 1.682351 g / cm^3
# Si number density = 16.861891 Si / 1000 Ang^3
#
#
#
# Elastic Constant Matrix: (Units=GPa)
#
#
# Indices 1 2 3 4 5 6 
#
# 1 53.5229 27.4499 16.5864 0.0000 0.0000 0.0000
# 2 27.4499 93.2192 19.5836 0.0000 0.0000 0.0000
# 3 16.5864 19.5836 15.3934 0.0000 0.0000 0.0000
# 4 0.0000 0.0000 0.0000 27.2503 0.0000 0.0000
# 5 0.0000 0.0000 0.0000 0.0000 65.5347 0.0000
# 6 0.0000 0.0000 0.0000 0.0000 0.0000 22.1650
#
#
#
# Elastic Compliance Matrix: (Units=1/GPa)
#
#
# Indices 1 2 3 4 5 6 
#
# 1 0.028522 -0.002651 -0.027360 0.000000 0.000000 0.000000
# 2 -0.002651 0.014887 -0.016082 0.000000 0.000000 0.000000
# 3 -0.027360 -0.016082 0.114903 0.000000 0.000000 0.000000
# 4 0.000000 0.000000 0.000000 0.036697 0.000000 0.000000
# 5 0.000000 0.000000 0.000000 0.000000 0.015259 0.000000
# 6 0.000000 0.000000 0.000000 0.000000 0.000000 0.045116
#
#
# Mechanical properties :
#
#
# Convention : Reuss Voigt Hill
#
# Bulk Modulus (GPa) = 15.12280 32.15283 23.63782
# Shear Modulus (GPa) = 13.52773 29.55771 21.54272
#
# Velocity S-wave (km/s) = 2.83550 4.19134 3.57823
# Velocity P-wave (km/s) = 4.43939 6.52172 5.57858
#
# Compressibility (1/GPa) = 0.06612530
#
# Stress axis : x y z
#
# Youngs Moduli (GPa) = 35.06097 67.17425 8.70299
#
# Poissons Ratio (x) = 0.17808 0.23811
# Poissons Ratio (y) = 0.09295 0.13997
# Poissons Ratio (z) = 0.95925 1.08033
#
# Static dielectric constant tensor:
#      x y z
#    x 1.560720 0.000000 0.000000 
#    y 0.000000 1.570950 0.000000 
#    z 0.000000 0.000000 1.566640 
# 
# From -- ./inp_files/8267.got.cif
#   From: 2010.05.17/outbox.cif.g08.bks.cpg/sg58_5_cif.got.tgz:8267.got - 2010.06.03 14:20:14.
