data_PCOD9441316
_publ_section_title
;
Structure prediction by ZEFSAII (Michael W. Deem and Ramdas Pophale) SiO2 
 PCOD9441316
Probable space group: P N N M
;
_chemical_formula_sum "Si O2"
_cell_formula_units_Z 64
_cell_length_a 19.725426
_cell_length_b 23.856785
_cell_length_c 8.783956
_cell_angle_alpha 90.000000
_cell_angle_beta 90.000000
_cell_angle_gamma 90.000000
_cell_volume 4133.600105
_symmetry_space_group_name_H-M "P N N M"
_symmetry_group_IT_number 58
_symmetry_cell_setting 'orthorhombic'
loop_
_space_group_symop_operation_xyz
x,y,z
-x,-y,z
1/2+x,1/2-y,1/2-z
1/2-x,1/2+y,1/2-z
-x,-y,-z
x,y,-z
1/2-x,1/2+y,1/2+z
1/2+x,1/2-y,1/2+z
loop_
_atom_site_type_symbol
_atom_site_label
_atom_site_fract_x
_atom_site_fract_y
_atom_site_fract_z
Si Si1 0.646875 0.274447 0.683033
Si Si2 0.359557 0.936591 0.818824
Si Si3 0.998853 0.253939 0.814604
Si Si4 0.728212 0.160988 0.681991
Si Si5 0.640740 0.940652 0.683960
Si Si6 0.350906 0.276278 0.683592
Si Si7 0.230984 0.663187 0.817322
Si Si8 0.003570 0.384864 0.816207
O O1 0.647955 0.278291 0.500000
O O2 0.569052 0.274220 0.735525
O O3 0.679873 0.214034 0.723349
O O4 0.696157 0.321510 0.749599
O O5 0.302802 0.894178 0.756164
O O6 0.431721 0.914085 0.757484
O O7 0.348929 0.999118 0.757184
O O8 0.359552 0.936087 0.000000
O O9 0.929042 0.224871 0.766309
O O10 0.999145 0.319543 0.770843
O O11 0.998533 0.253633 0.000000
O O12 0.727516 0.155734 0.500000
O O13 0.802478 0.177977 0.740574
O O14 0.643439 0.945515 0.500000
O O15 0.696170 0.894480 0.732404
O O16 0.566256 0.916294 0.721873
O O17 0.348067 0.282292 0.500000
O O18 0.318635 0.215343 0.721155
O O19 0.235896 0.661994 0.000000
O O20 0.011630 0.386526 0.000000
#
# Coordination Sequence:
#
# PCOD9441316 Si02
#       8
#     8   8   8   8   8   8   8   8
#     4   9  17  29  48  70  95 126 160 195 237 284
#     4  12  24  34  46  68  98 130 166 209 247 278
#     4   9  15  28  50  73  97 130 163 192 231 287
#     4  10  19  33  50  68  94 128 165 199 237 290
#     4  10  20  34  52  69  91 132 173 201 235 288
#     4   9  16  29  50  73  97 122 157 201 241 279
#     4   9  17  30  48  70  94 122 160 201 240 280
#     4  10  18  33  51  68  95 133 173 199 227 283
#
# _framework density 15.482870999999999
#
# number of rings (size 3 to 8) (size 9 to 14) (size 15 to 20)
#    0.000    2.250    2.500    1.875    0.000    3.000 
#    0.000    1.250    0.000    0.000    0.000    0.875 
#    0.000    7.000    0.000    0.000    0.000    0.000 
#
# Total GULP energy -356976.966219 kJ/mol
# GULP energy per Si atom -5577.765097 kJ/mol
# Density = 1.544763 g / cm^3
# Si number density = 15.482871 Si / 1000 Ang^3
#
#
#
# Elastic Constant Matrix: (Units=GPa)
#
#
# Indices 1 2 3 4 5 6 
#
# 1 156.0996 84.2567 38.7045 0.0000 0.0000 0.0000
# 2 84.2567 110.4838 37.0890 0.0000 0.0000 0.0000
# 3 38.7045 37.0890 24.3728 0.0000 0.0000 0.0000
# 4 0.0000 0.0000 0.0000 45.8919 0.0000 0.0000
# 5 0.0000 0.0000 0.0000 0.0000 23.3567 0.0000
# 6 0.0000 0.0000 0.0000 0.0000 0.0000 19.2417
#
#
#
# Elastic Compliance Matrix: (Units=1/GPa)
#
#
# Indices 1 2 3 4 5 6 
#
# 1 0.012086 -0.005671 -0.010563 0.000000 0.000000 0.000000
# 2 -0.005671 0.021164 -0.023201 0.000000 0.000000 0.000000
# 3 -0.010563 -0.023201 0.093109 0.000000 0.000000 0.000000
# 4 0.000000 0.000000 0.000000 0.021790 0.000000 0.000000
# 5 0.000000 0.000000 0.000000 0.000000 0.042814 0.000000
# 6 0.000000 0.000000 0.000000 0.000000 0.000000 0.051970
#
#
# Mechanical properties :
#
#
# Convention : Reuss Voigt Hill
#
# Bulk Modulus (GPa) = 21.05718 67.89518 44.47618
# Shear Modulus (GPa) = 14.80885 26.42513 20.61699
#
# Velocity S-wave (km/s) = 3.09603 4.13574 3.65307
# Velocity P-wave (km/s) = 5.13911 8.17024 6.82507
#
# Compressibility (1/GPa) = 0.04748974
#
# Stress axis : x y z
#
# Youngs Moduli (GPa) = 82.73727 47.24900 10.74005
#
# Poissons Ratio (x) = 0.26796 0.11345
# Poissons Ratio (y) = 0.46922 0.24918
# Poissons Ratio (z) = 0.87399 1.09621
#
# Static dielectric constant tensor:
#      x y z
#    x 1.519320 0.000000 0.000000 
#    y 0.000000 1.491230 0.000000 
#    z 0.000000 0.000000 1.521380 
# 
# From -- ./inp_files/8476.got.cif
#   From: 2010.05.17/outbox.cif.g08.bks.cpg/sg58_5_cif.got.tgz:8476.got - 2010.06.03 14:20:14.
