data_PCOD9441526
_publ_section_title
;
Structure prediction by ZEFSAII (Michael W. Deem and Ramdas Pophale) SiO2 
 PCOD9441526
Probable space group: P N N M
;
_chemical_formula_sum "Si O2"
_cell_formula_units_Z 56
_cell_length_a 14.155928
_cell_length_b 19.813589
_cell_length_c 7.266472
_cell_angle_alpha 90.000000
_cell_angle_beta 90.000000
_cell_angle_gamma 90.000000
_cell_volume 2038.098172
_symmetry_space_group_name_H-M "P N N M"
_symmetry_group_IT_number 58
_symmetry_cell_setting 'orthorhombic'
loop_
_space_group_symop_operation_xyz
x,y,z
-x,-y,z
1/2+x,1/2-y,1/2-z
1/2-x,1/2+y,1/2-z
-x,-y,-z
x,y,-z
1/2-x,1/2+y,1/2+z
1/2+x,1/2-y,1/2+z
loop_
_atom_site_type_symbol
_atom_site_label
_atom_site_fract_x
_atom_site_fract_y
_atom_site_fract_z
Si Si1 0.789039 0.146702 0.777819
Si Si2 0.104531 0.566754 0.709648
Si Si3 0.210226 0.705653 0.777758
Si Si4 0.431599 0.858566 0.775766
Si Si5 0.567199 0.289228 0.776487
Si Si6 0.530093 0.429641 0.211197
Si Si7 0.711909 0.499618 0.277151
O O1 0.824655 0.219801 0.714340
O O2 0.678054 0.139904 0.726366
O O3 0.827074 0.073326 0.721554
O O4 0.792404 0.148633 0.000000
O O5 0.090368 0.543859 0.500000
O O6 0.155967 0.640341 0.706135
O O7 0.002022 0.583395 0.789927
O O8 0.182492 0.516477 0.789039
O O9 0.321653 0.705453 0.727921
O O10 0.204801 0.703018 0.000000
O O11 0.467314 0.784249 0.717452
O O12 0.434129 0.860587 0.000000
O O13 0.513814 0.355876 0.707525
O O14 0.563381 0.290980 0.000000
O O15 0.500000 0.500000 0.302234
O O16 0.643327 0.441152 0.209963
O O17 0.499395 0.429569 0.000000
O O18 0.713613 0.497704 0.500000
#
# Coordination Sequence:
#
# PCOD9441526 Si02
#       7
#     8   8   8   8   8   8   8
#     4   8  16  31  50  71  97 133 171 200 237 297
#     4  10  19  29  48  78 104 126 157 205 258 294
#     4   9  16  30  52  68  87 129 173 203 235 289
#     4   8  15  28  47  71  96 126 166 206 238 278
#     4   8  14  28  48  67  89 121 162 202 237 278
#     4  10  20  33  51  74  97 129 172 207 242 293
#     4  10  20  33  49  74 106 133 159 199 256 307
#
# _framework density 27.476596000000001
#
# number of rings (size 3 to 8) (size 9 to 14) (size 15 to 20)
#    0.000    3.000    1.429    1.714    0.000    2.000 
#    0.000    5.000    0.000    5.143    0.000    2.000 
#    0.000    0.000    0.000    0.000    0.000    0.000 
#
# Total GULP energy -313241.665838 kJ/mol
# GULP energy per Si atom -5593.601176 kJ/mol
# Density = 2.741406 g / cm^3
# Si number density = 27.476596 Si / 1000 Ang^3
#
#
#
# Elastic Constant Matrix: (Units=GPa)
#
#
# Indices 1 2 3 4 5 6 
#
# 1 76.0980 9.7150 10.3696 0.0000 0.0000 0.0000
# 2 9.7150 167.0742 6.9853 0.0000 0.0000 0.0000
# 3 10.3696 6.9853 139.3461 0.0000 0.0000 0.0000
# 4 0.0000 0.0000 0.0000 1.4119 0.0000 0.0000
# 5 0.0000 0.0000 0.0000 0.0000 -1.0576 0.0000
# 6 0.0000 0.0000 0.0000 0.0000 0.0000 61.4446
#
#
#
# Elastic Compliance Matrix: (Units=1/GPa)
#
#
# Indices 1 2 3 4 5 6 
#
# 1 0.013366 -0.000737 -0.000958 0.000000 0.000000 0.000000
# 2 -0.000737 0.006039 -0.000248 0.000000 0.000000 0.000000
# 3 -0.000958 -0.000248 0.007260 0.000000 0.000000 0.000000
# 4 0.000000 0.000000 0.000000 0.708277 0.000000 0.000000
# 5 0.000000 0.000000 0.000000 0.000000 -0.945528 0.000000
# 6 0.000000 0.000000 0.000000 0.000000 0.000000 0.016275
#
#
# Mechanical properties :
#
#
# Convention : Reuss Voigt Hill
#
# Bulk Modulus (GPa) = 43.90025 48.51755 46.20890
# Shear Modulus (GPa) = -27.34737 36.05635 4.35449
#
# Velocity S-wave (km/s) = -3.15826 3.62644 1.26025
# Velocity P-wave (km/s) = 1.64699 5.93556 4.35565
#
# Compressibility (1/GPa) = 0.02277891
#
# Stress axis : x y z
#
# Youngs Moduli (GPa) = 74.81920 165.60157 137.73978
#
# Poissons Ratio (x) = 0.12207 0.13191
# Poissons Ratio (y) = 0.05515 0.03414
# Poissons Ratio (z) = 0.07165 0.04105
#
# Static dielectric constant tensor:
#      x y z
#    x 2.211300 0.000000 0.000000 
#    y 0.000000 2.122170 0.000000 
#    z 0.000000 0.000000 2.020570 
# 
# From -- ./inp_files/8193.got.cif
#   From: 2010.05.17/outbox.cif.g08.bks.cpg/sg58_5_cif.got.tgz:8193.got - 2010.06.03 14:20:14.
