data_PCOD9441275
_publ_section_title
;
Structure prediction by ZEFSAII (Michael W. Deem and Ramdas Pophale) SiO2 
 PCOD9441275
Probable space group: P N N M
;
_chemical_formula_sum "Si O2"
_cell_formula_units_Z 56
_cell_length_a 14.373222
_cell_length_b 20.101960
_cell_length_c 7.631253
_cell_angle_alpha 90.000000
_cell_angle_beta 90.000000
_cell_angle_gamma 90.000000
_cell_volume 2204.897423
_symmetry_space_group_name_H-M "P N N M"
_symmetry_group_IT_number 58
_symmetry_cell_setting 'orthorhombic'
loop_
_space_group_symop_operation_xyz
x,y,z
-x,-y,z
1/2+x,1/2-y,1/2-z
1/2-x,1/2+y,1/2-z
-x,-y,-z
x,y,-z
1/2-x,1/2+y,1/2+z
1/2+x,1/2-y,1/2+z
loop_
_atom_site_type_symbol
_atom_site_label
_atom_site_fract_x
_atom_site_fract_y
_atom_site_fract_z
Si Si1 0.736775 0.292410 0.713687
Si Si2 0.044857 0.713124 0.203304
Si Si3 0.954312 0.429630 0.786580
Si Si4 0.731421 0.147074 0.714922
Si Si5 0.714353 0.004674 0.296103
Si Si6 0.944176 0.139781 0.299033
Si Si7 0.127462 0.078102 0.797669
O O1 0.740671 0.293370 0.500000
O O2 0.842542 0.294057 0.782488
O O3 0.696246 0.219910 0.765689
O O4 0.676340 0.354795 0.774807
O O5 0.010558 0.642065 0.276457
O O6 0.021060 0.783675 0.287113
O O7 0.016762 0.719105 0.000000
O O8 0.848229 0.444309 0.726815
O O9 0.000000 0.500000 0.739268
O O10 0.960514 0.423577 0.000000
O O11 0.728820 0.146210 0.500000
O O12 0.839660 0.142465 0.772372
O O13 0.690704 0.077087 0.777853
O O14 0.689344 0.008679 0.500000
O O15 0.822135 0.984972 0.286143
O O16 0.937138 0.120609 0.500000
O O17 0.018219 0.090334 0.216056
O O18 0.151805 0.072489 0.000000
#
# Coordination Sequence:
#
# PCOD9441275 Si02
#       7
#     8   8   8   8   8   8   8
#     4   9  18  34  55  77 105 144 185 226 274 331
#     4  10  18  32  55  82 108 137 179 227 279 326
#     4   9  18  31  52  83 113 143 181 228 274 328
#     4   8  17  34  56  78 102 142 189 228 267 326
#     4  10  19  35  57  79 107 145 186 227 277 333
#     4  10  21  37  55  78 108 145 189 233 279 326
#     4  11  22  35  55  83 112 144 186 232 281 335
#
# _framework density 25.398008999999998
#
# number of rings (size 3 to 8) (size 9 to 14) (size 15 to 20)
#    0.000    2.429    1.429    2.143    0.000    2.286 
#    0.000   10.714    0.000    5.571    0.000    0.000 
#    0.000    0.000    0.000    0.000    0.000    0.000 
#
# Total GULP energy -312780.953915 kJ/mol
# GULP energy per Si atom -5585.374177 kJ/mol
# Density = 2.534020 g / cm^3
# Si number density = 25.398009 Si / 1000 Ang^3
#
#
#
# Elastic Constant Matrix: (Units=GPa)
#
#
# Indices 1 2 3 4 5 6 
#
# 1 42.5522 -0.3860 -3.0281 0.0000 0.0000 0.0000
# 2 -0.3860 123.5068 0.1084 0.0000 0.0000 0.0000
# 3 -3.0281 0.1084 51.0416 0.0000 0.0000 0.0000
# 4 0.0000 0.0000 0.0000 12.2454 0.0000 0.0000
# 5 0.0000 0.0000 0.0000 0.0000 18.3290 0.0000
# 6 0.0000 0.0000 0.0000 0.0000 0.0000 41.3084
#
#
#
# Elastic Compliance Matrix: (Units=1/GPa)
#
#
# Indices 1 2 3 4 5 6 
#
# 1 0.023601 0.000073 0.001400 0.000000 0.000000 0.000000
# 2 0.000073 0.008097 -0.000013 0.000000 0.000000 0.000000
# 3 0.001400 -0.000013 0.019675 0.000000 0.000000 0.000000
# 4 0.000000 0.000000 0.000000 0.081664 0.000000 0.000000
# 5 0.000000 0.000000 0.000000 0.000000 0.054558 0.000000
# 6 0.000000 0.000000 0.000000 0.000000 0.000000 0.024208
#
#
# Mechanical properties :
#
#
# Convention : Reuss Voigt Hill
#
# Bulk Modulus (GPa) = 18.41890 23.38769 20.90329
# Shear Modulus (GPa) = 22.02828 29.07029 25.54928
#
# Velocity S-wave (km/s) = 2.94823 3.38685 3.17512
# Velocity P-wave (km/s) = 4.34249 4.95205 4.65725
#
# Compressibility (1/GPa) = 0.05429205
#
# Stress axis : x y z
#
# Youngs Moduli (GPa) = 42.37135 123.50317 50.82603
#
# Poissons Ratio (x) = -0.00896 -0.07116
# Poissons Ratio (y) = -0.00307 0.00066
# Poissons Ratio (z) = -0.05932 0.00159
#
# Static dielectric constant tensor:
#      x y z
#    x 2.096860 0.000000 0.000000 
#    y 0.000000 2.005460 0.000000 
#    z 0.000000 0.000000 1.953240 
# 
# From -- ./inp_files/6448.got.cif
#   From: 2010.05.17/outbox.cif.g08.bks.cpg/sg58_4_cif.got.tgz:6448.got - 2010.06.03 14:20:14.
