data_PCOD9441981
_publ_section_title
;
Structure prediction by ZEFSAII (Michael W. Deem and Ramdas Pophale) SiO2 
 PCOD9441981
Probable space group: P N N M
;
_chemical_formula_sum "Si O2"
_cell_formula_units_Z 64
_cell_length_a 23.308328
_cell_length_b 8.916981
_cell_length_c 15.512992
_cell_angle_alpha 90.000000
_cell_angle_beta 90.000000
_cell_angle_gamma 90.000000
_cell_volume 3224.218984
_symmetry_space_group_name_H-M "P N N M"
_symmetry_group_IT_number 58
_symmetry_cell_setting 'orthorhombic'
loop_
_space_group_symop_operation_xyz
x,y,z
-x,-y,z
1/2+x,1/2-y,1/2-z
1/2-x,1/2+y,1/2-z
-x,-y,-z
x,y,-z
1/2-x,1/2+y,1/2+z
1/2+x,1/2-y,1/2+z
loop_
_atom_site_type_symbol
_atom_site_label
_atom_site_fract_x
_atom_site_fract_y
_atom_site_fract_z
Si Si1 0.273887 0.440695 0.908476
Si Si2 0.816687 0.381716 0.815932
Si Si3 0.875361 0.655428 0.252397
Si Si4 0.566940 0.970682 0.898352
Si Si5 0.734142 0.325187 0.318136
Si Si6 0.591261 0.617795 0.099024
Si Si7 0.437728 0.547886 0.724150
Si Si8 0.162504 0.925056 0.898314
O O1 0.244122 0.541006 0.837466
O O2 0.240928 0.283931 0.899872
O O3 0.341103 0.417554 0.901538
O O4 0.261213 0.513290 0.000000
O O5 0.864199 0.510064 0.807657
O O6 0.797205 0.315698 0.724244
O O7 0.831135 0.250903 0.880698
O O8 0.892468 0.580434 0.343102
O O9 0.816091 0.750280 0.241080
O O10 0.924369 0.774741 0.228490
O O11 0.579826 0.794158 0.884072
O O12 0.500000 0.000000 0.876216
O O13 0.574490 0.000281 0.000000
O O14 0.715277 0.485859 0.353726
O O15 0.568116 0.520237 0.178881
O O16 0.570325 0.585840 0.000000
O O17 0.500000 0.500000 0.693136
O O18 0.391356 0.479838 0.658372
O O19 0.158274 0.957311 0.000000
#
# Coordination Sequence:
#
# PCOD9441981 Si02
#       8
#     8   8   8   8   8   8   8   8
#     4  10  19  33  53  78 110 143 176 218 274 337
#     4  11  21  37  58  82 114 147 185 233 285 344
#     4  10  21  35  56  82 109 148 192 236 292 351
#     4  10  20  35  55  81 116 155 195 241 291 346
#     4  10  20  35  55  81 113 149 184 229 281 338
#     4  10  21  36  57  86 119 155 195 242 296 356
#     4  11  23  40  61  83 113 153 198 253 307 353
#     4  11  23  39  60  86 116 154 199 242 289 348
#
# _framework density 19.849767
#
# number of rings (size 3 to 8) (size 9 to 14) (size 15 to 20)
#    0.000    1.625    0.000    6.750    0.000    1.000 
#    0.000    5.000    0.000    0.750    0.000    0.000 
#    0.000    0.000    0.000    0.000    0.000    0.000 
#
# Total GULP energy -356784.597383 kJ/mol
# GULP energy per Si atom -5574.759334 kJ/mol
# Density = 1.980459 g / cm^3
# Si number density = 19.849767 Si / 1000 Ang^3
#
#
#
# Elastic Constant Matrix: (Units=GPa)
#
#
# Indices 1 2 3 4 5 6 
#
# 1 46.0383 6.2894 20.4111 0.0000 0.0000 0.0000
# 2 6.2894 81.7294 24.1546 0.0000 0.0000 0.0000
# 3 20.4111 24.1546 85.7310 0.0000 0.0000 0.0000
# 4 0.0000 0.0000 0.0000 15.7634 0.0000 0.0000
# 5 0.0000 0.0000 0.0000 0.0000 5.6291 0.0000
# 6 0.0000 0.0000 0.0000 0.0000 0.0000 18.4559
#
#
#
# Elastic Compliance Matrix: (Units=1/GPa)
#
#
# Indices 1 2 3 4 5 6 
#
# 1 0.024287 -0.000175 -0.005733 0.000000 0.000000 0.000000
# 2 -0.000175 0.013348 -0.003719 0.000000 0.000000 0.000000
# 3 -0.005733 -0.003719 0.014077 0.000000 0.000000 0.000000
# 4 0.000000 0.000000 0.000000 0.063438 0.000000 0.000000
# 5 0.000000 0.000000 0.000000 0.000000 0.177648 0.000000
# 6 0.000000 0.000000 0.000000 0.000000 0.000000 0.054183
#
#
# Mechanical properties :
#
#
# Convention : Reuss Voigt Hill
#
# Bulk Modulus (GPa) = 30.80883 35.02323 32.91603
# Shear Modulus (GPa) = 13.26069 18.81259 16.03664
#
# Velocity S-wave (km/s) = 2.58748 3.08189 2.84544
# Velocity P-wave (km/s) = 4.94787 5.50877 5.23584
#
# Compressibility (1/GPa) = 0.03245823
#
# Stress axis : x y z
#
# Youngs Moduli (GPa) = 41.17484 74.91684 71.03671
#
# Poissons Ratio (x) = 0.01308 0.40726
# Poissons Ratio (y) = 0.00719 0.26420
# Poissons Ratio (z) = 0.23606 0.27863
#
# Static dielectric constant tensor:
#      x y z
#    x 1.699230 0.000000 0.000000 
#    y 0.000000 1.703340 0.000000 
#    z 0.000000 0.000000 1.711150 
# 
# From -- ./inp_files/23544.got.cif
#   From: 2010.05.17/outbox.cif.g08.bks.cpg/sg58_12_cif.got.tgz:23544.got - 2010.06.03 14:20:14.
