data_PCOD9441339
_publ_section_title
;
Structure prediction by ZEFSAII (Michael W. Deem and Ramdas Pophale) SiO2 
 PCOD9441339
Probable space group: P N N M
;
_chemical_formula_sum "Si O2"
_cell_formula_units_Z 64
_cell_length_a 13.392200
_cell_length_b 27.138005
_cell_length_c 7.709156
_cell_angle_alpha 90.000000
_cell_angle_beta 90.000000
_cell_angle_gamma 90.000000
_cell_volume 2801.797082
_symmetry_space_group_name_H-M "P N N M"
_symmetry_group_IT_number 58
_symmetry_cell_setting 'orthorhombic'
loop_
_space_group_symop_operation_xyz
x,y,z
-x,-y,z
1/2+x,1/2-y,1/2-z
1/2-x,1/2+y,1/2-z
-x,-y,-z
x,y,-z
1/2-x,1/2+y,1/2+z
1/2+x,1/2-y,1/2+z
loop_
_atom_site_type_symbol
_atom_site_label
_atom_site_fract_x
_atom_site_fract_y
_atom_site_fract_z
Si Si1 0.934367 0.883198 0.286913
Si Si2 0.841981 0.129516 0.289585
Si Si3 0.313465 0.953298 0.203666
Si Si4 0.538343 0.194188 0.792443
Si Si5 0.481289 0.087080 0.207589
Si Si6 0.651586 0.280357 0.202370
Si Si7 0.256857 0.057476 0.698033
Si Si8 0.154492 0.757631 0.293370
O O1 0.935678 0.883769 0.500000
O O2 0.902210 0.828350 0.226650
O O3 0.844757 0.918987 0.226245
O O4 0.049369 0.892148 0.235609
O O5 0.839156 0.129815 0.500000
O O6 0.749396 0.096788 0.226801
O O7 0.838249 0.186343 0.228308
O O8 0.427226 0.947234 0.270869
O O9 0.256400 0.998485 0.290762
O O10 0.318147 0.965339 0.000000
O O11 0.507334 0.141513 0.721717
O O12 0.630969 0.225623 0.722426
O O13 0.453457 0.234781 0.763940
O O14 0.551459 0.186126 0.000000
O O15 0.366322 0.073150 0.235197
O O16 0.493360 0.087375 0.000000
O O17 0.769761 0.282316 0.216460
O O18 0.622952 0.279004 0.000000
O O19 0.257124 0.073930 0.500000
O O20 0.168973 0.758385 0.500000
#
# Coordination Sequence:
#
# PCOD9441339 Si02
#       8
#     8   8   8   8   8   8   8   8
#     4   9  19  37  60  85 115 154 198 240 287 345
#     4  10  20  38  61  84 115 154 195 239 286 343
#     4  11  24  41  60  85 115 151 195 244 300 355
#     4   9  17  32  55  80 108 146 183 213 267 335
#     4  10  21  38  59  84 117 153 190 235 290 355
#     4  10  18  33  56  80 111 152 191 226 269 331
#     4  11  23  39  61  87 113 148 196 249 300 347
#     4  10  19  32  53  82 113 145 182 226 274 326
#
# _framework density 22.842480999999999
#
# number of rings (size 3 to 8) (size 9 to 14) (size 15 to 20)
#    0.000    2.000    1.250    2.625    0.000    4.500 
#    0.000    6.250    0.000    0.000    0.000    0.000 
#    0.000    0.000    0.000    0.000    0.000    0.000 
#
# Total GULP energy -357054.193076 kJ/mol
# GULP energy per Si atom -5578.971767 kJ/mol
# Density = 2.279049 g / cm^3
# Si number density = 22.842481 Si / 1000 Ang^3
#
#
#
# Elastic Constant Matrix: (Units=GPa)
#
#
# Indices 1 2 3 4 5 6 
#
# 1 101.6060 2.9472 9.6959 0.0000 0.0000 0.0000
# 2 2.9472 56.0057 0.0325 0.0000 0.0000 0.0000
# 3 9.6959 0.0325 13.3611 0.0000 0.0000 0.0000
# 4 0.0000 0.0000 0.0000 15.6241 0.0000 0.0000
# 5 0.0000 0.0000 0.0000 0.0000 16.6775 0.0000
# 6 0.0000 0.0000 0.0000 0.0000 0.0000 30.8942
#
#
#
# Elastic Compliance Matrix: (Units=1/GPa)
#
#
# Indices 1 2 3 4 5 6 
#
# 1 0.010591 -0.000553 -0.007685 0.000000 0.000000 0.000000
# 2 -0.000553 0.017884 0.000358 0.000000 0.000000 0.000000
# 3 -0.007685 0.000358 0.080420 0.000000 0.000000 0.000000
# 4 0.000000 0.000000 0.000000 0.064004 0.000000 0.000000
# 5 0.000000 0.000000 0.000000 0.000000 0.059961 0.000000
# 6 0.000000 0.000000 0.000000 0.000000 0.000000 0.032369
#
#
# Mechanical properties :
#
#
# Convention : Reuss Voigt Hill
#
# Bulk Modulus (GPa) = 10.73704 21.81381 16.27542
# Shear Modulus (GPa) = 16.02393 23.19229 19.60811
#
# Velocity S-wave (km/s) = 2.65145 3.18986 2.93303
# Velocity P-wave (km/s) = 3.75290 4.81013 4.31402
#
# Compressibility (1/GPa) = 0.09313558
#
# Stress axis : x y z
#
# Youngs Moduli (GPa) = 94.41723 55.91520 12.43477
#
# Poissons Ratio (x) = 0.03092 0.09556
# Poissons Ratio (y) = 0.05220 -0.00445
# Poissons Ratio (z) = 0.72555 -0.02000
#
# Static dielectric constant tensor:
#      x y z
#    x 1.894020 0.000000 0.000000 
#    y 0.000000 1.859000 0.000000 
#    z 0.000000 0.000000 1.863320 
# 
# From -- ./inp_files/4681.got.cif
#   From: 2010.05.17/outbox.cif.g08.bks.cpg/sg58_3_cif.got.tgz:4681.got - 2010.06.03 14:20:14.
