data_PCOD9441590
_publ_section_title
;
Structure prediction by ZEFSAII (Michael W. Deem and Ramdas Pophale) SiO2 
 PCOD9441590
Probable space group: P N N M
;
_chemical_formula_sum "Si O2"
_cell_formula_units_Z 48
_cell_length_a 12.744872
_cell_length_b 19.364100
_cell_length_c 7.604387
_cell_angle_alpha 90.000000
_cell_angle_beta 90.000000
_cell_angle_gamma 90.000000
_cell_volume 1876.709298
_symmetry_space_group_name_H-M "P N N M"
_symmetry_group_IT_number 58
_symmetry_cell_setting 'orthorhombic'
loop_
_space_group_symop_operation_xyz
x,y,z
-x,-y,z
1/2+x,1/2-y,1/2-z
1/2-x,1/2+y,1/2-z
-x,-y,-z
x,y,-z
1/2-x,1/2+y,1/2+z
1/2+x,1/2-y,1/2+z
loop_
_atom_site_type_symbol
_atom_site_label
_atom_site_fract_x
_atom_site_fract_y
_atom_site_fract_z
Si Si1 0.952875 0.574801 0.791424
Si Si2 0.923617 0.766811 0.716442
Si Si3 0.814537 0.898446 0.702352
Si Si4 0.614431 0.814761 0.195725
Si Si5 0.104430 0.962541 0.795913
Si Si6 0.754498 0.649516 0.702949
O O1 0.839195 0.588052 0.715792
O O2 0.000000 0.500000 0.773335
O O3 0.027902 0.625843 0.689097
O O4 0.952037 0.591910 0.000000
O O5 0.924627 0.764384 0.500000
O O6 0.899057 0.844207 0.774627
O O7 0.826850 0.714571 0.770723
O O8 0.040339 0.744472 0.776099
O O9 0.836331 0.912863 0.500000
O O10 0.709636 0.852036 0.709430
O O11 0.814432 0.972571 0.791104
O O12 0.648541 0.794192 0.000000
O O13 0.153647 0.891493 0.718215
O O14 0.082830 0.947079 0.000000
O O15 0.000000 0.000000 0.720317
O O16 0.732361 0.667121 0.500000
#
# Coordination Sequence:
#
# PCOD9441590 Si02
#       6
#     8   8   8   8   8   8
#     4  10  19  30  48  77 108 135 170 219 273 328
#     4   8  18  36  56  79 109 149 192 235 288 344
#     4  11  22  37  58  85 118 151 187 238 296 346
#     4  10  20  36  56  78 107 144 187 229 275 337
#     4  10  22  39  59  84 114 153 199 239 279 339
#     4   9  18  35  56  76 105 146 189 231 276 331
#
# _framework density 25.576684
#
# number of rings (size 3 to 8) (size 9 to 14) (size 15 to 20)
#    0.000    2.333    0.000    3.500    0.000    6.333 
#    0.000   10.000    0.000    0.000    0.000    0.000 
#    0.000    0.000    0.000    0.000    0.000    0.000 
#
# Total GULP energy -267718.915322 kJ/mol
# GULP energy per Si atom -5577.477403 kJ/mol
# Density = 2.551847 g / cm^3
# Si number density = 25.576684 Si / 1000 Ang^3
#
#
#
# Elastic Constant Matrix: (Units=GPa)
#
#
# Indices 1 2 3 4 5 6 
#
# 1 81.4084 30.2348 7.9555 0.0000 0.0000 0.0000
# 2 30.2348 109.7503 21.5097 0.0000 0.0000 0.0000
# 3 7.9555 21.5097 58.7100 0.0000 0.0000 0.0000
# 4 0.0000 0.0000 0.0000 12.0975 0.0000 0.0000
# 5 0.0000 0.0000 0.0000 0.0000 118.7760 0.0000
# 6 0.0000 0.0000 0.0000 0.0000 0.0000 32.7010
#
#
#
# Elastic Compliance Matrix: (Units=1/GPa)
#
#
# Indices 1 2 3 4 5 6 
#
# 1 0.013698 -0.003674 -0.000510 0.000000 0.000000 0.000000
# 2 -0.003674 0.010802 -0.003460 0.000000 0.000000 0.000000
# 3 -0.000510 -0.003460 0.018370 0.000000 0.000000 0.000000
# 4 0.000000 0.000000 0.000000 0.082662 0.000000 0.000000
# 5 0.000000 0.000000 0.000000 0.000000 0.008419 0.000000
# 6 0.000000 0.000000 0.000000 0.000000 0.000000 0.030580
#
#
# Mechanical properties :
#
#
# Convention : Reuss Voigt Hill
#
# Bulk Modulus (GPa) = 36.25527 41.02985 38.64256
# Shear Modulus (GPa) = 26.45342 45.39282 35.92312
#
# Velocity S-wave (km/s) = 3.21951 4.21738 3.75177
# Velocity P-wave (km/s) = 5.29398 6.30807 5.82314
#
# Compressibility (1/GPa) = 0.02758220
#
# Stress axis : x y z
#
# Youngs Moduli (GPa) = 73.00356 92.57828 54.43796
#
# Poissons Ratio (x) = 0.34010 0.02778
# Poissons Ratio (y) = 0.26819 0.18834
# Poissons Ratio (z) = 0.03725 0.32029
#
# Static dielectric constant tensor:
#      x y z
#    x 1.964190 0.000000 0.000000 
#    y 0.000000 2.182540 0.000000 
#    z 0.000000 0.000000 1.969100 
# 
# From -- ./inp_files/4245.got.cif
#   From: 2010.05.17/outbox.cif.g08.bks.cpg/sg58_3_cif.got.tgz:4245.got - 2010.06.03 14:20:14.
