data_PCOD9441872
_publ_section_title
;
Structure prediction by ZEFSAII (Michael W. Deem and Ramdas Pophale) SiO2 
 PCOD9441872
Probable space group: P N N M
;
_chemical_formula_sum "Si O2"
_cell_formula_units_Z 56
_cell_length_a 15.131251
_cell_length_b 22.295368
_cell_length_c 7.738961
_cell_angle_alpha 90.000000
_cell_angle_beta 90.000000
_cell_angle_gamma 90.000000
_cell_volume 2610.791191
_symmetry_space_group_name_H-M "P N N M"
_symmetry_group_IT_number 58
_symmetry_cell_setting 'orthorhombic'
loop_
_space_group_symop_operation_xyz
x,y,z
-x,-y,z
1/2+x,1/2-y,1/2-z
1/2-x,1/2+y,1/2-z
-x,-y,-z
x,y,-z
1/2-x,1/2+y,1/2+z
1/2+x,1/2-y,1/2+z
loop_
_atom_site_type_symbol
_atom_site_label
_atom_site_fract_x
_atom_site_fract_y
_atom_site_fract_z
Si Si1 0.403704 0.212123 0.296663
Si Si2 0.288927 0.105621 0.801212
Si Si3 0.774720 0.607408 0.211591
Si Si4 0.089757 0.851829 0.706559
Si Si5 0.898453 0.715359 0.210691
Si Si6 0.597808 0.003439 0.299642
Si Si7 0.392492 0.647854 0.293035
O O1 0.397007 0.199599 0.500000
O O2 0.330022 0.172295 0.206108
O O3 0.396993 0.283397 0.269778
O O4 0.502974 0.195109 0.236894
O O5 0.189761 0.109160 0.727413
O O6 0.354480 0.060476 0.707251
O O7 0.285844 0.085719 0.000000
O O8 0.673054 0.609430 0.268741
O O9 0.823786 0.668846 0.263449
O O10 0.834616 0.552505 0.274206
O O11 0.773203 0.605770 0.000000
O O12 0.091898 0.849673 0.500000
O O13 0.992049 0.872887 0.758143
O O14 0.885131 0.783445 0.272165
O O15 0.899167 0.716926 0.000000
O O16 0.584986 0.021702 0.500000
O O17 0.500000 0.000000 0.220599
O O18 0.381576 0.650525 0.500000
#
# Coordination Sequence:
#
# PCOD9441872 Si02
#       7
#     8   8   8   8   8   8   8
#     4  10  19  32  53  81 112 145 178 214 264 327
#     4  11  22  36  55  78 106 142 183 229 274 312
#     4   9  17  31  52  77 104 136 174 216 265 317
#     4  10  19  32  53  81 110 139 175 221 268 317
#     4   8  14  28  51  76 102 134 171 209 254 313
#     4  10  21  38  59  80 104 139 180 219 265 325
#     4   9  19  35  53  75 106 142 178 220 272 324
#
# _framework density 21.449438000000001
#
# number of rings (size 3 to 8) (size 9 to 14) (size 15 to 20)
#    0.000    2.429    0.000    3.857    0.000    6.000 
#    0.000    2.143    0.000    9.429    0.000    0.000 
#    0.000    0.000    0.000    0.000    0.000    0.000 
#
# Total GULP energy -312624.370102 kJ/mol
# GULP energy per Si atom -5582.578038 kJ/mol
# Density = 2.140062 g / cm^3
# Si number density = 21.449438 Si / 1000 Ang^3
#
#
#
# Elastic Constant Matrix: (Units=GPa)
#
#
# Indices 1 2 3 4 5 6 
#
# 1 201.5338 62.3627 2.3625 0.0000 0.0000 0.0000
# 2 62.3627 39.1764 -0.7145 0.0000 0.0000 0.0000
# 3 2.3625 -0.7145 34.5438 0.0000 0.0000 0.0000
# 4 0.0000 0.0000 0.0000 17.3742 0.0000 0.0000
# 5 0.0000 0.0000 0.0000 0.0000 14.7321 0.0000
# 6 0.0000 0.0000 0.0000 0.0000 0.0000 30.4398
#
#
#
# Elastic Compliance Matrix: (Units=1/GPa)
#
#
# Indices 1 2 3 4 5 6 
#
# 1 0.009813 -0.015639 -0.000995 0.000000 0.000000 0.000000
# 2 -0.015639 0.050458 0.002113 0.000000 0.000000 0.000000
# 3 -0.000995 0.002113 0.029060 0.000000 0.000000 0.000000
# 4 0.000000 0.000000 0.000000 0.057557 0.000000 0.000000
# 5 0.000000 0.000000 0.000000 0.000000 0.067879 0.000000
# 6 0.000000 0.000000 0.000000 0.000000 0.000000 0.032852
#
#
# Mechanical properties :
#
#
# Convention : Reuss Voigt Hill
#
# Bulk Modulus (GPa) = 16.58603 44.80836 30.69720
# Shear Modulus (GPa) = 16.84884 26.59211 21.72047
#
# Velocity S-wave (km/s) = 2.80574 3.52484 3.18565
# Velocity P-wave (km/s) = 4.27149 6.12385 5.27955
#
# Compressibility (1/GPa) = 0.06029169
#
# Stress axis : x y z
#
# Youngs Moduli (GPa) = 101.90735 19.81829 34.41099
#
# Poissons Ratio (x) = 0.30993 0.03422
# Poissons Ratio (y) = 1.59369 -0.07272
# Poissons Ratio (z) = 0.10135 -0.04188
#
# Static dielectric constant tensor:
#      x y z
#    x 1.810340 0.000000 0.000000 
#    y 0.000000 1.743770 0.000000 
#    z 0.000000 0.000000 1.796410 
# 
# From -- ./inp_files/6308.got.cif
#   From: 2010.05.17/outbox.cif.g08.bks.cpg/sg58_4_cif.got.tgz:6308.got - 2010.06.03 14:20:14.
