data_PCOD9441955
_publ_section_title
;
Structure prediction by ZEFSAII (Michael W. Deem and Ramdas Pophale) SiO2 
 PCOD9441955
Probable space group: P N N M
;
_chemical_formula_sum "Si O2"
_cell_formula_units_Z 58
_cell_length_a 9.912557
_cell_length_b 28.593735
_cell_length_c 8.254208
_cell_angle_alpha 90.000000
_cell_angle_beta 90.000000
_cell_angle_gamma 90.000000
_cell_volume 2339.548184
_symmetry_space_group_name_H-M "P N N M"
_symmetry_group_IT_number 58
_symmetry_cell_setting 'orthorhombic'
loop_
_space_group_symop_operation_xyz
x,y,z
-x,-y,z
1/2+x,1/2-y,1/2-z
1/2-x,1/2+y,1/2-z
-x,-y,-z
x,y,-z
1/2-x,1/2+y,1/2+z
1/2+x,1/2-y,1/2+z
loop_
_atom_site_type_symbol
_atom_site_label
_atom_site_fract_x
_atom_site_fract_y
_atom_site_fract_z
Si Si1 0.665651 0.290483 0.694237
Si Si2 0.821689 0.219802 0.811361
Si Si3 0.501400 0.210702 0.305601
Si Si4 0.659295 0.967286 0.811834
Si Si5 0.571354 0.109989 0.822666
Si Si6 0.400050 0.602991 0.692374
Si Si7 0.331816 0.380870 0.821920
Si Si8 0.000000 0.500000 0.000000
O O1 0.679492 0.293424 0.500000
O O2 0.829930 0.280493 0.759583
O O3 0.670229 0.228038 0.721221
O O4 0.645336 0.344901 0.754525
O O5 0.829407 0.164077 0.791119
O O6 0.993371 0.227784 0.783243
O O7 0.790757 0.227699 0.000000
O O8 0.499120 0.201483 0.500000
O O9 0.517107 0.161895 0.210612
O O10 0.548804 0.925992 0.819124
O O11 0.795727 0.938576 0.783824
O O12 0.614886 0.994361 0.649353
O O13 0.661210 0.988140 0.000000
O O14 0.685551 0.097372 0.694391
O O15 0.634490 0.108191 0.000000
O O16 0.418862 0.608644 0.500000
O O17 0.541025 0.589410 0.773196
O O18 0.351246 0.360973 0.000000
#
# Coordination Sequence:
#
# PCOD9441955 Si02
#       8
#     8   8   8   8   8   8   8   2
#     4  10  19  33  51  76 118 172 226 279 322 370
#     4  11  21  34  48  72 112 173 231 283 334 378
#     4  10  20  32  50  77 120 171 230 280 320 375
#     4  10  25  47  77 111 137 174 222 283 359 438
#     4  11  23  41  64  93 132 179 227 279 343 409
#     4  10  21  42  65  92 134 178 226 283 342 409
#     4  12  24  35  57  89 131 176 228 273 326 399
#     4  12  26  48  88 108 144 168 218 294 376 446
#
# _framework density 24.791111999999998
#
# number of rings (size 3 to 8) (size 9 to 14) (size 15 to 20)
#    0.000    1.379    2.759    3.103    2.897    2.759 
#    0.000    0.000    0.000    1.655    0.000    3.862 
#    0.000    0.000    0.000    0.000    0.000    0.000 
#
# Total GULP energy -322973.248104 kJ/mol
# GULP energy per Si atom -5568.504278 kJ/mol
# Density = 2.473469 g / cm^3
# Si number density = 24.791112 Si / 1000 Ang^3
#
#
#
# Elastic Constant Matrix: (Units=GPa)
#
#
# Indices 1 2 3 4 5 6 
#
# 1 120.8614 0.0045 5.1360 0.0000 0.0000 0.0000
# 2 0.0045 57.5544 14.8190 0.0000 0.0000 0.0000
# 3 5.1360 14.8190 83.6787 0.0000 0.0000 0.0000
# 4 0.0000 0.0000 0.0000 -13.6968 0.0000 0.0000
# 5 0.0000 0.0000 0.0000 0.0000 31.2649 0.0000
# 6 0.0000 0.0000 0.0000 0.0000 0.0000 32.7284
#
#
#
# Elastic Compliance Matrix: (Units=1/GPa)
#
#
# Indices 1 2 3 4 5 6 
#
# 1 0.008297 0.000137 -0.000533 0.000000 0.000000 0.000000
# 2 0.000137 0.018207 -0.003233 0.000000 0.000000 0.000000
# 3 -0.000533 -0.003233 0.012556 0.000000 0.000000 0.000000
# 4 0.000000 0.000000 0.000000 -0.073010 0.000000 0.000000
# 5 0.000000 0.000000 0.000000 0.000000 0.031985 0.000000
# 6 0.000000 0.000000 0.000000 0.000000 0.000000 0.030555
#
#
# Mechanical properties :
#
#
# Convention : Reuss Voigt Hill
#
# Bulk Modulus (GPa) = 31.44605 33.55708 32.50157
# Shear Modulus (GPa) = 107.64733 26.20165 66.92449
#
# Velocity S-wave (km/s) = 6.59667 3.25452 5.20134
# Velocity P-wave (km/s) = 8.41031 5.26193 7.01503
#
# Compressibility (1/GPa) = 0.03180049
#
# Stress axis : x y z
#
# Youngs Moduli (GPa) = 120.53127 54.92327 79.64503
#
# Poissons Ratio (x) = -0.00751 0.04249
# Poissons Ratio (y) = -0.01648 0.25747
# Poissons Ratio (z) = 0.06430 0.17755
#
# Static dielectric constant tensor:
#      x y z
#    x 2.185840 0.000000 0.000000 
#    y 0.000000 1.955020 0.000000 
#    z 0.000000 0.000000 1.874970 
# 
# From -- ./inp_files/4611.got.cif
#   From: 2010.05.17/outbox.cif.g08.bks.cpg/sg58_3_cif.got.tgz:4611.got - 2010.06.03 14:20:14.
