data_PCOD9441296
_publ_section_title
;
Structure prediction by ZEFSAII (Michael W. Deem and Ramdas Pophale) SiO2 
 PCOD9441296
Probable space group: P N N M
;
_chemical_formula_sum "Si O2"
_cell_formula_units_Z 64
_cell_length_a 11.803341
_cell_length_b 17.868301
_cell_length_c 15.965031
_cell_angle_alpha 90.000000
_cell_angle_beta 90.000000
_cell_angle_gamma 90.000000
_cell_volume 3367.115237
_symmetry_space_group_name_H-M "P N N M"
_symmetry_group_IT_number 58
_symmetry_cell_setting 'orthorhombic'
loop_
_space_group_symop_operation_xyz
x,y,z
-x,-y,z
1/2+x,1/2-y,1/2-z
1/2-x,1/2+y,1/2-z
-x,-y,-z
x,y,-z
1/2-x,1/2+y,1/2+z
1/2+x,1/2-y,1/2+z
loop_
_atom_site_type_symbol
_atom_site_label
_atom_site_fract_x
_atom_site_fract_y
_atom_site_fract_z
Si Si1 0.581710 0.660164 0.258188
Si Si2 0.184168 0.558058 0.596148
Si Si3 0.056561 0.669298 0.723242
Si Si4 0.169118 0.463289 0.119051
Si Si5 0.057089 0.619873 0.088241
Si Si6 0.047199 0.083135 0.903159
Si Si7 0.571209 0.575518 0.089373
Si Si8 0.823915 0.589453 0.302280
O O1 0.584715 0.743368 0.220528
O O2 0.498884 0.643011 0.336275
O O3 0.543318 0.613432 0.177151
O O4 0.704123 0.631159 0.290843
O O5 0.145345 0.568573 0.500000
O O6 0.124651 0.614442 0.661253
O O7 0.317682 0.576242 0.599932
O O8 0.169203 0.470977 0.623259
O O9 0.079687 0.654187 0.821606
O O10 0.926080 0.648659 0.701915
O O11 0.129105 0.543544 0.088242
O O12 0.295015 0.442461 0.093152
O O13 0.162771 0.461684 0.219436
O O14 0.074867 0.404145 0.090115
O O15 0.079736 0.660806 0.000000
O O16 0.013384 0.099376 0.000000
O O17 0.000000 0.000000 0.881550
O O18 0.500000 0.500000 0.087217
O O19 0.549079 0.615900 0.000000
#
# Coordination Sequence:
#
# PCOD9441296 Si02
#       8
#     8   8   8   8   8   8   8   8
#     4  11  24  39  62  87 130 170 200 263 323 372
#     4  11  23  42  70  95 122 166 220 273 318 376
#     4  11  25  39  58  93 131 164 208 254 323 394
#     4   9  17  33  57  85 114 141 189 245 288 342
#     4  10  18  32  57  85 115 149 186 243 298 348
#     4  10  21  40  67  95 121 161 221 270 313 374
#     4  10  21  36  57  85 113 154 201 238 289 363
#     4  10  21  40  61  90 120 163 214 258 309 370
#
# _framework density 19.007369000000001
#
# number of rings (size 3 to 8) (size 9 to 14) (size 15 to 20)
#    0.000    1.750    2.500    2.250    3.500    2.000 
#    0.000    0.000    0.000    0.000    0.000    0.000 
#    0.000    0.000    0.000    0.000    0.000    0.000 
#
# Total GULP energy -356716.743552 kJ/mol
# GULP energy per Si atom -5573.699118 kJ/mol
# Density = 1.896411 g / cm^3
# Si number density = 19.007369 Si / 1000 Ang^3
#
#
#
# Elastic Constant Matrix: (Units=GPa)
#
#
# Indices 1 2 3 4 5 6 
#
# 1 22.4117 13.7779 25.8992 0.0000 0.0000 0.0000
# 2 13.7779 75.3766 31.7696 0.0000 0.0000 0.0000
# 3 25.8992 31.7696 126.3210 0.0000 0.0000 0.0000
# 4 0.0000 0.0000 0.0000 1.3648 0.0000 0.0000
# 5 0.0000 0.0000 0.0000 0.0000 141.9851 0.0000
# 6 0.0000 0.0000 0.0000 0.0000 0.0000 14.5700
#
#
#
# Elastic Compliance Matrix: (Units=1/GPa)
#
#
# Indices 1 2 3 4 5 6 
#
# 1 0.061280 -0.006606 -0.010903 0.000000 0.000000 0.000000
# 2 -0.006606 0.015552 -0.002557 0.000000 0.000000 0.000000
# 3 -0.010903 -0.002557 0.010795 0.000000 0.000000 0.000000
# 4 0.000000 0.000000 0.000000 0.732730 0.000000 0.000000
# 5 0.000000 0.000000 0.000000 0.000000 0.007043 0.000000
# 6 0.000000 0.000000 0.000000 0.000000 0.000000 0.068634
#
#
# Mechanical properties :
#
#
# Convention : Reuss Voigt Hill
#
# Bulk Modulus (GPa) = 21.05459 40.77808 30.91633
# Shear Modulus (GPa) = 5.25212 41.76148 23.50680
#
# Velocity S-wave (km/s) = 1.66409 4.69243 3.52052
# Velocity P-wave (km/s) = 3.84622 7.13155 5.72941
#
# Compressibility (1/GPa) = 0.04749558
#
# Stress axis : x y z
#
# Youngs Moduli (GPa) = 16.31852 64.30089 92.63775
#
# Poissons Ratio (x) = 0.42477 1.01000
# Poissons Ratio (y) = 0.10780 0.23686
# Poissons Ratio (z) = 0.17792 0.16441
#
# Static dielectric constant tensor:
#      x y z
#    x 1.654410 0.000000 0.000000 
#    y 0.000000 1.638300 0.000000 
#    z 0.000000 0.000000 1.715030 
# 
# From -- ./inp_files/21493.got.cif
#   From: 2010.05.17/outbox.cif.g08.bks.cpg/sg58_11_cif.got.tgz:21493.got - 2010.06.03 14:20:14.
