data_PCOD9441461
_publ_section_title
;
Structure prediction by ZEFSAII (Michael W. Deem and Ramdas Pophale) SiO2 
 PCOD9441461
Probable space group: P N N M
;
_chemical_formula_sum "Si O2"
_cell_formula_units_Z 36
_cell_length_a 8.021858
_cell_length_b 12.035811
_cell_length_c 20.096735
_cell_angle_alpha 90.000000
_cell_angle_beta 90.000000
_cell_angle_gamma 90.000000
_cell_volume 1940.331057
_symmetry_space_group_name_H-M "P N N M"
_symmetry_group_IT_number 58
_symmetry_cell_setting 'orthorhombic'
loop_
_space_group_symop_operation_xyz
x,y,z
-x,-y,z
1/2+x,1/2-y,1/2-z
1/2-x,1/2+y,1/2-z
-x,-y,-z
x,y,-z
1/2-x,1/2+y,1/2+z
1/2+x,1/2-y,1/2+z
loop_
_atom_site_type_symbol
_atom_site_label
_atom_site_fract_x
_atom_site_fract_y
_atom_site_fract_z
Si Si1 0.000567 0.866641 0.356809
Si Si2 0.621505 0.196862 0.356142
Si Si3 0.085900 0.125668 0.500000
Si Si4 0.148044 0.089580 0.774734
Si Si5 0.016205 0.631947 0.000000
Si Si6 0.500000 0.000000 0.736639
O O1 0.185998 0.830606 0.341291
O O2 0.964632 0.820891 0.430030
O O3 0.874436 0.845204 0.296300
O O4 0.000000 0.000000 0.363978
O O5 0.606169 0.322493 0.331736
O O6 0.568126 0.178593 0.432715
O O7 0.526798 0.106459 0.311047
O O8 0.284449 0.138770 0.500000
O O9 0.000000 0.000000 0.500000
O O10 0.329586 0.030829 0.776180
O O11 0.000000 0.000000 0.774898
O O12 0.000000 0.500000 0.000000
#
# Coordination Sequence:
#
# PCOD9441461 Si02
#       6
#     8   8   4   8   4   4
#     4  10  18  37  54  86 127 158 200 261 310 367
#     4  12  23  39  66  93 130 169 209 265 326 379
#     4  10  20  32  54  86 132 162 195 266 320 372
#     4  11  24  43  61  94 131 168 215 266 310 389
#     4  12  22  38  61  97 125 165 218 261 329 383
#     4  12  22  39  66  97 124 170 210 256 332 377
#
# _framework density 18.553536000000001
#
# number of rings (size 3 to 8) (size 9 to 14) (size 15 to 20)
#    0.000    0.889    5.556    6.000    0.000    0.000 
#    4.000    0.556    0.000    0.667    0.000    0.000 
#    0.000    0.000    0.000    0.000    0.000    0.000 
#
# Total GULP energy -200574.533062 kJ/mol
# GULP energy per Si atom -5571.514807 kJ/mol
# Density = 1.851131 g / cm^3
# Si number density = 18.553536 Si / 1000 Ang^3
#
#
#
# Elastic Constant Matrix: (Units=GPa)
#
#
# Indices 1 2 3 4 5 6 
#
# 1 115.6795 32.3138 21.1837 0.0000 0.0000 0.0000
# 2 32.3138 77.0198 50.1185 0.0000 0.0000 0.0000
# 3 21.1837 50.1185 103.7517 0.0000 0.0000 0.0000
# 4 0.0000 0.0000 0.0000 24.9751 0.0000 0.0000
# 5 0.0000 0.0000 0.0000 0.0000 20.0122 0.0000
# 6 0.0000 0.0000 0.0000 0.0000 0.0000 17.6509
#
#
#
# Elastic Compliance Matrix: (Units=1/GPa)
#
#
# Indices 1 2 3 4 5 6 
#
# 1 0.009792 -0.004094 -0.000022 0.000000 0.000000 0.000000
# 2 -0.004094 0.020648 -0.009138 0.000000 0.000000 0.000000
# 3 -0.000022 -0.009138 0.014057 0.000000 0.000000 0.000000
# 4 0.000000 0.000000 0.000000 0.040040 0.000000 0.000000
# 5 0.000000 0.000000 0.000000 0.000000 0.049970 0.000000
# 6 0.000000 0.000000 0.000000 0.000000 0.000000 0.056654
#
#
# Mechanical properties :
#
#
# Convention : Reuss Voigt Hill
#
# Bulk Modulus (GPa) = 55.58941 55.96480 55.77710
# Shear Modulus (GPa) = 22.35479 25.38329 23.86904
#
# Velocity S-wave (km/s) = 3.47490 3.70281 3.59067
# Velocity P-wave (km/s) = 6.79166 6.96495 6.87885
#
# Compressibility (1/GPa) = 0.01798904
#
# Stress axis : x y z
#
# Youngs Moduli (GPa) = 102.12178 48.43093 71.13818
#
# Poissons Ratio (x) = 0.19829 0.00153
# Poissons Ratio (y) = 0.41812 0.65008
# Poissons Ratio (z) = 0.00220 0.44258
#
# Static dielectric constant tensor:
#      x y z
#    x 1.626140 0.000000 0.000000 
#    y 0.000000 1.621170 0.000000 
#    z 0.000000 0.000000 1.683110 
# 
# From -- ./inp_files/28699.got.cif
#   From: 2010.05.17/outbox.cif.g08.bks.cpg/sg58_15_cif.got.tgz:28699.got - 2010.06.03 14:20:14.
