data_PCOD9441320
_publ_section_title
;
Structure prediction by ZEFSAII (Michael W. Deem and Ramdas Pophale) SiO2 
 PCOD9441320
Probable space group: P N N M
;
_chemical_formula_sum "Si O2"
_cell_formula_units_Z 56
_cell_length_a 15.469092
_cell_length_b 7.632679
_cell_length_c 18.008630
_cell_angle_alpha 90.000000
_cell_angle_beta 90.000000
_cell_angle_gamma 90.000000
_cell_volume 2126.289995
_symmetry_space_group_name_H-M "P N N M"
_symmetry_group_IT_number 58
_symmetry_cell_setting 'orthorhombic'
loop_
_space_group_symop_operation_xyz
x,y,z
-x,-y,z
1/2+x,1/2-y,1/2-z
1/2-x,1/2+y,1/2-z
-x,-y,-z
x,y,-z
1/2-x,1/2+y,1/2+z
1/2+x,1/2-y,1/2+z
loop_
_atom_site_type_symbol
_atom_site_label
_atom_site_fract_x
_atom_site_fract_y
_atom_site_fract_z
Si Si1 0.615669 0.050364 0.178654
Si Si2 0.291292 0.480311 0.416142
Si Si3 0.284613 0.524711 0.819928
Si Si4 0.924467 0.332006 0.083113
Si Si5 0.880218 0.237634 0.229595
Si Si6 0.436489 0.652224 0.087357
Si Si7 0.132795 0.304169 0.845898
O O1 0.709571 0.030060 0.138939
O O2 0.558765 0.156083 0.121023
O O3 0.617223 0.162320 0.257127
O O4 0.587158 0.859182 0.204540
O O5 0.264930 0.529607 0.500000
O O6 0.337973 0.290254 0.421399
O O7 0.364282 0.617540 0.386533
O O8 0.234168 0.357270 0.850286
O O9 0.349031 0.449897 0.756986
O O10 0.341416 0.598795 0.885415
O O11 0.208708 0.653027 0.791119
O O12 0.951754 0.250986 0.163723
O O13 0.910366 0.537341 0.105124
O O14 0.961583 0.313563 0.000000
O O15 0.500000 0.500000 0.116055
O O16 0.444704 0.658538 0.000000
#
# Coordination Sequence:
#
# PCOD9441320 Si02
#       7
#     8   8   8   8   8   8   8
#     4  10  20  34  54  77 106 147 188 238 288 343
#     4  11  20  29  48  79 113 146 178 219 284 354
#     4  10  18  33  54  80 108 140 185 240 300 344
#     4   9  18  29  43  73 119 148 164 202 270 359
#     4  10  19  30  56  86 111 141 176 240 306 362
#     4  11  25  42  57  75 109 163 214 247 278 328
#     4  10  20  31  53  83 113 144 182 232 301 359
#
# _framework density 26.336952
#
# number of rings (size 3 to 8) (size 9 to 14) (size 15 to 20)
#    0.000    2.143    1.429    6.000    6.000    5.143 
#    0.000    0.714    0.000    1.714    0.000    0.000 
#    0.000   25.143    0.000    0.000    0.000    0.000 
#
# Total GULP energy -312474.168605 kJ/mol
# GULP energy per Si atom -5579.895868 kJ/mol
# Density = 2.627701 g / cm^3
# Si number density = 26.336952 Si / 1000 Ang^3
#
#
#
# Elastic Constant Matrix: (Units=GPa)
#
#
# Indices 1 2 3 4 5 6 
#
# 1 63.5071 21.8911 34.5412 0.0000 0.0000 0.0000
# 2 21.8911 110.1729 39.7475 0.0000 0.0000 0.0000
# 3 34.5412 39.7475 154.5721 0.0000 0.0000 0.0000
# 4 0.0000 0.0000 0.0000 30.1540 0.0000 0.0000
# 5 0.0000 0.0000 0.0000 0.0000 42.2579 0.0000
# 6 0.0000 0.0000 0.0000 0.0000 0.0000 38.8625
#
#
#
# Elastic Compliance Matrix: (Units=1/GPa)
#
#
# Indices 1 2 3 4 5 6 
#
# 1 0.018486 -0.002406 -0.003512 0.000000 0.000000 0.000000
# 2 -0.002406 0.010318 -0.002116 0.000000 0.000000 0.000000
# 3 -0.003512 -0.002116 0.007798 0.000000 0.000000 0.000000
# 4 0.000000 0.000000 0.000000 0.033163 0.000000 0.000000
# 5 0.000000 0.000000 0.000000 0.000000 0.023664 0.000000
# 6 0.000000 0.000000 0.000000 0.000000 0.000000 0.025732
#
#
# Mechanical properties :
#
#
# Convention : Reuss Voigt Hill
#
# Bulk Modulus (GPa) = 48.69823 57.84573 53.27198
# Shear Modulus (GPa) = 35.19300 37.72636 36.45968
#
# Velocity S-wave (km/s) = 3.65945 3.78888 3.72473
# Velocity P-wave (km/s) = 6.03209 6.41500 6.22649
#
# Compressibility (1/GPa) = 0.02053463
#
# Stress axis : x y z
#
# Youngs Moduli (GPa) = 54.09527 96.91853 128.23246
#
# Poissons Ratio (x) = 0.23318 0.45038
# Poissons Ratio (y) = 0.13015 0.27128
# Poissons Ratio (z) = 0.19000 0.20504
#
# Static dielectric constant tensor:
#      x y z
#    x 2.189780 0.000000 0.000000 
#    y 0.000000 2.152520 0.000000 
#    z 0.000000 0.000000 2.133590 
# 
# From -- ./inp_files/27488.got.cif
#   From: 2010.05.17/outbox.cif.g08.bks.cpg/sg58_14_cif.got.tgz:27488.got - 2010.06.03 14:20:14.
