data_PCOD9441593
_publ_section_title
;
Structure prediction by ZEFSAII (Michael W. Deem and Ramdas Pophale) SiO2 
 PCOD9441593
Probable space group: P N N M
;
_chemical_formula_sum "Si O2"
_cell_formula_units_Z 56
_cell_length_a 24.958357
_cell_length_b 13.914825
_cell_length_c 8.332773
_cell_angle_alpha 90.000000
_cell_angle_beta 90.000000
_cell_angle_gamma 90.000000
_cell_volume 2893.898484
_symmetry_space_group_name_H-M "P N N M"
_symmetry_group_IT_number 58
_symmetry_cell_setting 'orthorhombic'
loop_
_space_group_symop_operation_xyz
x,y,z
-x,-y,z
1/2+x,1/2-y,1/2-z
1/2-x,1/2+y,1/2-z
-x,-y,-z
x,y,-z
1/2-x,1/2+y,1/2+z
1/2+x,1/2-y,1/2+z
loop_
_atom_site_type_symbol
_atom_site_label
_atom_site_fract_x
_atom_site_fract_y
_atom_site_fract_z
Si Si1 0.877154 0.385863 0.306653
Si Si2 0.553658 0.053496 0.307003
Si Si3 0.060686 0.804391 0.308136
Si Si4 0.555176 0.273915 0.693963
Si Si5 0.663866 0.586842 0.691532
Si Si6 0.226365 0.730055 0.306489
Si Si7 0.334092 0.631223 0.696491
O O1 0.877706 0.390389 0.500000
O O2 0.896430 0.487164 0.240290
O O3 0.918910 0.302006 0.255618
O O4 0.819024 0.347052 0.255028
O O5 0.550651 0.056592 0.500000
O O6 0.556714 0.162966 0.249339
O O7 0.500000 0.000000 0.246261
O O8 0.062640 0.806677 0.500000
O O9 0.104816 0.878072 0.243319
O O10 0.000541 0.819636 0.249982
O O11 0.555210 0.273518 0.500000
O O12 0.608320 0.329022 0.748516
O O13 0.666202 0.587134 0.500000
O O14 0.705762 0.665863 0.753505
O O15 0.674143 0.478648 0.748648
O O16 0.226309 0.729562 0.500000
O O17 0.284794 0.697835 0.250464
O O18 0.334037 0.631821 0.500000
#
# Coordination Sequence:
#
# PCOD9441593 Si02
#       7
#     8   8   8   8   8   8   8
#     4   9  18  31  51  75 103 142 179 212 263 325
#     4  10  19  30  48  78 110 136 170 222 270 312
#     4  10  20  35  54  79 109 144 180 221 274 326
#     4  10  20  35  54  77 108 146 182 223 272 323
#     4  10  20  36  59  83 105 138 183 226 263 317
#     4   9  19  38  58  79 108 143 182 223 269 323
#     4   9  20  38  58  79 109 146 181 218 269 328
#
# _framework density 19.351058999999999
#
# number of rings (size 3 to 8) (size 9 to 14) (size 15 to 20)
#    0.000    2.429    1.429    1.714    0.000    4.857 
#    0.000    6.429    0.000    0.000    0.000    0.000 
#    0.000    0.000    0.000    0.000    0.000    0.000 
#
# Total GULP energy -312528.136594 kJ/mol
# GULP energy per Si atom -5580.859582 kJ/mol
# Density = 1.930701 g / cm^3
# Si number density = 19.351059 Si / 1000 Ang^3
#
#
#
# Elastic Constant Matrix: (Units=GPa)
#
#
# Indices 1 2 3 4 5 6 
#
# 1 151.7691 68.3418 14.2070 0.0000 0.0000 0.0000
# 2 68.3418 113.6655 12.4001 0.0000 0.0000 0.0000
# 3 14.2070 12.4001 6.0915 0.0000 0.0000 0.0000
# 4 0.0000 0.0000 0.0000 17.2516 0.0000 0.0000
# 5 0.0000 0.0000 0.0000 0.0000 19.4179 0.0000
# 6 0.0000 0.0000 0.0000 0.0000 0.0000 20.7294
#
#
#
# Elastic Compliance Matrix: (Units=1/GPa)
#
#
# Indices 1 2 3 4 5 6 
#
# 1 0.009895 -0.004412 -0.014098 0.000000 0.000000 0.000000
# 2 -0.004412 0.013276 -0.016736 0.000000 0.000000 0.000000
# 3 -0.014098 -0.016736 0.231110 0.000000 0.000000 0.000000
# 4 0.000000 0.000000 0.000000 0.057966 0.000000 0.000000
# 5 0.000000 0.000000 0.000000 0.000000 0.051499 0.000000
# 6 0.000000 0.000000 0.000000 0.000000 0.000000 0.048241
#
#
# Mechanical properties :
#
#
# Convention : Reuss Voigt Hill
#
# Bulk Modulus (GPa) = 5.44098 51.26932 28.35515
# Shear Modulus (GPa) = 9.19556 23.25158 16.22357
#
# Velocity S-wave (km/s) = 2.18227 3.47012 2.89862
# Velocity P-wave (km/s) = 3.02779 6.52744 5.08798
#
# Compressibility (1/GPa) = 0.18379032
#
# Stress axis : x y z
#
# Youngs Moduli (GPa) = 101.05958 75.32397 4.32695
#
# Poissons Ratio (x) = 0.33229 0.06100
# Poissons Ratio (y) = 0.44583 0.07242
# Poissons Ratio (z) = 1.42471 1.26063
#
# Static dielectric constant tensor:
#      x y z
#    x 1.670780 0.000000 0.000000 
#    y 0.000000 1.665720 0.000000 
#    z 0.000000 0.000000 1.676070 
# 
# From -- ./inp_files/9011.got.cif
#   From: 2010.05.17/outbox.cif.g08.bks.cpg/sg58_5_cif.got.tgz:9011.got - 2010.06.03 14:20:14.
