data_PCOD9441095
_publ_section_title
;
Structure prediction by ZEFSAII (Michael W. Deem and Ramdas Pophale) SiO2 
 PCOD9441095
Probable space group: P N N M
;
_chemical_formula_sum "Si O2"
_cell_formula_units_Z 58
_cell_length_a 26.361441
_cell_length_b 14.819111
_cell_length_c 7.509270
_cell_angle_alpha 90.000000
_cell_angle_beta 90.000000
_cell_angle_gamma 90.000000
_cell_volume 2933.519757
_symmetry_space_group_name_H-M "P N N M"
_symmetry_group_IT_number 58
_symmetry_cell_setting 'orthorhombic'
loop_
_space_group_symop_operation_xyz
x,y,z
-x,-y,z
1/2+x,1/2-y,1/2-z
1/2-x,1/2+y,1/2-z
-x,-y,-z
x,y,-z
1/2-x,1/2+y,1/2+z
1/2+x,1/2-y,1/2+z
loop_
_atom_site_type_symbol
_atom_site_label
_atom_site_fract_x
_atom_site_fract_y
_atom_site_fract_z
Si Si1 0.264924 0.037884 0.287973
Si Si2 0.096506 0.239626 0.205698
Si Si3 0.808767 0.650940 0.218563
Si Si4 0.851644 0.950339 0.716508
Si Si5 0.114448 0.854289 0.284906
Si Si6 0.001249 0.849096 0.703006
Si Si7 0.709903 0.760729 0.786569
Si Si8 0.500000 0.500000 0.500000
O O1 0.260723 0.026224 0.500000
O O2 0.206790 0.041916 0.223137
O O3 0.290756 0.133567 0.253325
O O4 0.294680 0.949963 0.222801
O O5 0.137440 0.310258 0.280051
O O6 0.123956 0.142013 0.218585
O O7 0.041728 0.227117 0.292087
O O8 0.087962 0.261835 0.000000
O O9 0.762548 0.716046 0.276446
O O10 0.809816 0.653301 0.000000
O O11 0.853228 0.947529 0.500000
O O12 0.879892 0.041823 0.775820
O O13 0.118876 0.856149 0.500000
O O14 0.161129 0.794130 0.218598
O O15 0.058247 0.819710 0.244224
O O16 0.003497 0.884262 0.500000
O O17 0.986924 0.925225 0.843791
O O18 0.710187 0.750879 0.000000
#
# Coordination Sequence:
#
# PCOD9441095 Si02
#       8
#     8   8   8   8   8   8   8   2
#     4  10  19  33  52  81 112 146 185 231 290 347
#     4  11  21  35  54  80 110 152 197 236 278 342
#     4   9  18  33  55  77 110 149 186 230 286 343
#     4  10  18  30  51  77 110 147 184 227 280 349
#     4   9  19  35  57  77 106 153 191 224 286 345
#     4  11  23  39  57  83 119 160 194 239 289 344
#     4  10  18  35  56  79 106 144 187 234 285 343
#     4  12  22  40  60  90 120 150 202 240 284 352
#
# _framework density 19.771469
#
# number of rings (size 3 to 8) (size 9 to 14) (size 15 to 20)
#    0.000    1.931    3.448    1.448    0.000    1.103 
#    1.241    2.069    0.000    0.828    0.000    5.793 
#    0.000    0.000    0.000    0.000    0.000    0.000 
#
# Total GULP energy -323403.644662 kJ/mol
# GULP energy per Si atom -5575.924908 kJ/mol
# Density = 1.972647 g / cm^3
# Si number density = 19.771469 Si / 1000 Ang^3
#
#
#
# Elastic Constant Matrix: (Units=GPa)
#
#
# Indices 1 2 3 4 5 6 
#
# 1 73.5339 10.9977 1.2672 0.0000 0.0000 0.0000
# 2 10.9977 73.8366 -8.9142 0.0000 0.0000 0.0000
# 3 1.2672 -8.9142 74.7660 0.0000 0.0000 0.0000
# 4 0.0000 0.0000 0.0000 17.4284 0.0000 0.0000
# 5 0.0000 0.0000 0.0000 0.0000 1.5716 0.0000
# 6 0.0000 0.0000 0.0000 0.0000 0.0000 21.0105
#
#
#
# Elastic Compliance Matrix: (Units=1/GPa)
#
#
# Indices 1 2 3 4 5 6 
#
# 1 0.013927 -0.002134 -0.000490 0.000000 0.000000 0.000000
# 2 -0.002134 0.014068 0.001713 0.000000 0.000000 0.000000
# 3 -0.000490 0.001713 0.013588 0.000000 0.000000 0.000000
# 4 0.000000 0.000000 0.000000 0.057378 0.000000 0.000000
# 5 0.000000 0.000000 0.000000 0.000000 0.636291 0.000000
# 6 0.000000 0.000000 0.000000 0.000000 0.000000 0.047595
#
#
# Mechanical properties :
#
#
# Convention : Reuss Voigt Hill
#
# Bulk Modulus (GPa) = 25.14997 25.42642 25.28819
# Shear Modulus (GPa) = 6.26628 22.58780 14.42704
#
# Velocity S-wave (km/s) = 1.78220 3.38367 2.70421
# Velocity P-wave (km/s) = 4.12103 5.30601 4.75061
#
# Compressibility (1/GPa) = 0.03976149
#
# Stress axis : x y z
#
# Youngs Moduli (GPa) = 71.80444 71.08290 73.59608
#
# Poissons Ratio (x) = 0.15166 0.03609
# Poissons Ratio (y) = 0.15320 -0.12611
# Poissons Ratio (z) = 0.03521 -0.12180
#
# Static dielectric constant tensor:
#      x y z
#    x 1.731240 0.000000 0.000000 
#    y 0.000000 1.668600 0.000000 
#    z 0.000000 0.000000 1.736270 
# 
# From -- ./inp_files/10498.got.cif
#   From: 2010.05.17/outbox.cif.g08.bks.cpg/sg58_6_cif.got.tgz:10498.got - 2010.06.03 14:20:14.
