data_PCOD9441830
_publ_section_title
;
Structure prediction by ZEFSAII (Michael W. Deem and Ramdas Pophale) SiO2 
 PCOD9441830
Probable space group: P N N M
;
_chemical_formula_sum "Si O2"
_cell_formula_units_Z 48
_cell_length_a 8.013033
_cell_length_b 15.000280
_cell_length_c 15.769004
_cell_angle_alpha 90.000000
_cell_angle_beta 90.000000
_cell_angle_gamma 90.000000
_cell_volume 1895.398622
_symmetry_space_group_name_H-M "P N N M"
_symmetry_group_IT_number 58
_symmetry_cell_setting 'orthorhombic'
loop_
_space_group_symop_operation_xyz
x,y,z
-x,-y,z
1/2+x,1/2-y,1/2-z
1/2-x,1/2+y,1/2-z
-x,-y,-z
x,y,-z
1/2-x,1/2+y,1/2+z
1/2+x,1/2-y,1/2+z
loop_
_atom_site_type_symbol
_atom_site_label
_atom_site_fract_x
_atom_site_fract_y
_atom_site_fract_z
Si Si1 0.266592 0.535677 0.595890
Si Si2 0.909300 0.119988 0.179853
Si Si3 0.321714 0.049468 0.409996
Si Si4 0.164700 0.872440 0.368231
Si Si5 0.476865 0.183646 0.702321
Si Si6 0.506903 0.190498 0.905144
O O1 0.302440 0.510396 0.500000
O O2 0.423837 0.587625 0.634403
O O3 0.259611 0.442606 0.646494
O O4 0.115183 0.604130 0.594374
O O5 0.923852 0.107768 0.279443
O O6 0.896876 0.225124 0.167902
O O7 0.302007 0.100066 0.500000
O O8 0.341999 0.108915 0.325616
O O9 0.500000 0.000000 0.413317
O O10 0.190793 0.969308 0.407841
O O11 0.351247 0.836602 0.346369
O O12 0.074870 0.789705 0.411639
O O13 0.530454 0.192184 0.800614
O O14 0.596296 0.182094 0.000000
#
# Coordination Sequence:
#
# PCOD9441830 Si02
#       6
#     8   8   8   8   8   8
#     4  10  20  35  54  81 106 136 185 229 268 318
#     4  10  19  32  52  77 104 141 174 225 264 320
#     4   9  18  31  51  77 105 133 170 222 268 316
#     4  10  19  34  53  78 108 141 181 218 271 327
#     4  10  20  34  53  83 109 140 180 224 278 320
#     4  10  20  35  56  79 108 146 185 223 267 324
#
# _framework density 25.324490000000001
#
# number of rings (size 3 to 8) (size 9 to 14) (size 15 to 20)
#    0.000    2.167    1.667    2.500    0.000    2.000 
#    0.000    1.667    0.000    7.500    0.000   12.833 
#    0.000    0.000    0.000    0.000    0.000    0.000 
#
# Total GULP energy -267684.631933 kJ/mol
# GULP energy per Si atom -5576.763165 kJ/mol
# Density = 2.526685 g / cm^3
# Si number density = 25.324490 Si / 1000 Ang^3
#
#
#
# Elastic Constant Matrix: (Units=GPa)
#
#
# Indices 1 2 3 4 5 6 
#
# 1 46.8747 26.0851 10.0493 0.0000 0.0000 0.0000
# 2 26.0851 143.9971 54.9173 0.0000 0.0000 0.0000
# 3 10.0493 54.9173 144.1601 0.0000 0.0000 0.0000
# 4 0.0000 0.0000 0.0000 38.3378 0.0000 0.0000
# 5 0.0000 0.0000 0.0000 0.0000 11.4554 0.0000
# 6 0.0000 0.0000 0.0000 0.0000 0.0000 15.1216
#
#
#
# Elastic Compliance Matrix: (Units=1/GPa)
#
#
# Indices 1 2 3 4 5 6 
#
# 1 0.023725 -0.004290 -0.000019 0.000000 0.000000 0.000000
# 2 -0.004290 0.008901 -0.003092 0.000000 0.000000 0.000000
# 3 -0.000019 -0.003092 0.008116 0.000000 0.000000 0.000000
# 4 0.000000 0.000000 0.000000 0.026084 0.000000 0.000000
# 5 0.000000 0.000000 0.000000 0.000000 0.087295 0.000000
# 6 0.000000 0.000000 0.000000 0.000000 0.000000 0.066130
#
#
# Mechanical properties :
#
#
# Convention : Reuss Voigt Hill
#
# Bulk Modulus (GPa) = 38.55218 57.45946 48.00582
# Shear Modulus (GPa) = 20.51699 29.24832 24.88266
#
# Velocity S-wave (km/s) = 2.84943 3.40213 3.13797
# Velocity P-wave (km/s) = 5.10705 6.17829 5.66803
#
# Compressibility (1/GPa) = 0.02593887
#
# Stress axis : x y z
#
# Youngs Moduli (GPa) = 42.14926 112.34831 123.21567
#
# Poissons Ratio (x) = 0.48202 0.00240
# Poissons Ratio (y) = 0.18084 0.38094
# Poissons Ratio (z) = 0.00082 0.34735
#
# Static dielectric constant tensor:
#      x y z
#    x 2.146290 0.000000 0.000000 
#    y 0.000000 2.029270 0.000000 
#    z 0.000000 0.000000 1.980960 
# 
# From -- ./inp_files/21157.got.cif
#   From: 2010.05.17/outbox.cif.g08.bks.cpg/sg58_11_cif.got.tgz:21157.got - 2010.06.03 14:20:14.
