data_PCOD9441004
_publ_section_title
;
Structure prediction by ZEFSAII (Michael W. Deem and Ramdas Pophale) SiO2 
 PCOD9441004
Probable space group: P N N M
;
_chemical_formula_sum "Si O2"
_cell_formula_units_Z 64
_cell_length_a 20.103016
_cell_length_b 19.916101
_cell_length_c 7.578539
_cell_angle_alpha 90.000000
_cell_angle_beta 90.000000
_cell_angle_gamma 90.000000
_cell_volume 3034.247678
_symmetry_space_group_name_H-M "P N N M"
_symmetry_group_IT_number 58
_symmetry_cell_setting 'orthorhombic'
loop_
_space_group_symop_operation_xyz
x,y,z
-x,-y,z
1/2+x,1/2-y,1/2-z
1/2-x,1/2+y,1/2-z
-x,-y,-z
x,y,-z
1/2-x,1/2+y,1/2+z
1/2+x,1/2-y,1/2+z
loop_
_atom_site_type_symbol
_atom_site_label
_atom_site_fract_x
_atom_site_fract_y
_atom_site_fract_z
Si Si1 0.358675 0.744901 0.207700
Si Si2 0.847793 0.460279 0.217047
Si Si3 0.009632 0.752748 0.707574
Si Si4 0.897647 0.966530 0.214126
Si Si5 0.225626 0.123917 0.704571
Si Si6 0.480156 0.106981 0.296891
Si Si7 0.536633 0.600801 0.712035
Si Si8 0.868531 0.606709 0.213320
O O1 0.434020 0.738422 0.280485
O O2 0.307247 0.691034 0.283891
O O3 0.338952 0.822498 0.226778
O O4 0.364423 0.729040 0.000000
O O5 0.791883 0.408917 0.281443
O O6 0.920809 0.437255 0.278311
O O7 0.834541 0.537328 0.267543
O O8 0.847947 0.458655 0.000000
O O9 0.005011 0.738833 0.500000
O O10 0.039387 0.685584 0.790775
O O11 0.046981 0.822822 0.732588
O O12 0.832131 0.932053 0.286703
O O13 0.963114 0.924168 0.269228
O O14 0.911880 0.043256 0.269605
O O15 0.894420 0.964453 0.000000
O O16 0.241299 0.138811 0.500000
O O17 0.487152 0.085564 0.500000
O O18 0.554584 0.103458 0.221475
O O19 0.536242 0.599225 0.500000
O O20 0.869741 0.609369 0.000000
#
# Coordination Sequence:
#
# PCOD9441004 Si02
#       8
#     8   8   8   8   8   8   8   8
#     4   9  18  31  47  71  99 128 159 194 241 298
#     4   9  18  33  53  75  99 129 167 207 249 301
#     4  10  18  29  47  74 103 128 162 205 246 295
#     4   9  18  31  48  71  98 128 166 209 246 286
#     4  10  19  33  51  71 100 136 168 198 243 303
#     4   9  17  31  52  75  98 127 164 209 258 298
#     4   9  17  30  48  71  99 130 165 206 249 289
#     4   9  17  31  54  78  95 120 165 214 249 283
#
# _framework density 21.092542000000002
#
# number of rings (size 3 to 8) (size 9 to 14) (size 15 to 20)
#    0.000    2.750    1.250    1.500    0.000    3.000 
#    0.000    4.375    0.000    7.500    0.000    0.000 
#    0.000    0.000    0.000    0.000    0.000    0.000 
#
# Total GULP energy -356983.915763 kJ/mol
# GULP energy per Si atom -5577.873684 kJ/mol
# Density = 2.104453 g / cm^3
# Si number density = 21.092542 Si / 1000 Ang^3
#
#
#
# Elastic Constant Matrix: (Units=GPa)
#
#
# Indices 1 2 3 4 5 6 
#
# 1 40.9715 25.6130 -1.1343 0.0000 0.0000 0.0000
# 2 25.6130 140.2585 -7.0296 0.0000 0.0000 0.0000
# 3 -1.1343 -7.0296 47.5517 0.0000 0.0000 0.0000
# 4 0.0000 0.0000 0.0000 -1.2546 0.0000 0.0000
# 5 0.0000 0.0000 0.0000 0.0000 5.0164 0.0000
# 6 0.0000 0.0000 0.0000 0.0000 0.0000 28.8263
#
#
#
# Elastic Compliance Matrix: (Units=1/GPa)
#
#
# Indices 1 2 3 4 5 6 
#
# 1 0.027553 -0.005036 -0.000087 0.000000 0.000000 0.000000
# 2 -0.005036 0.008103 0.001078 0.000000 0.000000 0.000000
# 3 -0.000087 0.001078 0.021187 0.000000 0.000000 0.000000
# 4 0.000000 0.000000 0.000000 -0.797051 0.000000 0.000000
# 5 0.000000 0.000000 0.000000 0.000000 0.199346 0.000000
# 6 0.000000 0.000000 0.000000 0.000000 0.000000 0.034691
#
#
# Mechanical properties :
#
#
# Convention : Reuss Voigt Hill
#
# Bulk Modulus (GPa) = 20.51170 29.29777 24.90474
# Shear Modulus (GPa) = -10.37711 20.60645 5.11467
#
# Velocity S-wave (km/s) = -2.22047 3.12902 1.55889
# Velocity P-wave (km/s) = 1.78094 5.19371 3.88242
#
# Compressibility (1/GPa) = 0.04875266
#
# Stress axis : x y z
#
# Youngs Moduli (GPa) = 36.29376 123.40604 47.19872
#
# Poissons Ratio (x) = 0.62146 0.00412
# Poissons Ratio (y) = 0.18277 -0.05087
# Poissons Ratio (z) = 0.00317 -0.13301
#
# Static dielectric constant tensor:
#      x y z
#    x 1.740220 0.000000 0.000000 
#    y 0.000000 1.781110 0.000000 
#    z 0.000000 0.000000 1.799920 
# 
# From -- ./inp_files/9232.got.cif
#   From: 2010.05.17/outbox.cif.g08.bks.cpg/sg58_5_cif.got.tgz:9232.got - 2010.06.03 14:20:14.
