data_PCOD9441624
_publ_section_title
;
Structure prediction by ZEFSAII (Michael W. Deem and Ramdas Pophale) SiO2 
 PCOD9441624
Probable space group: P N N M
;
_chemical_formula_sum "Si O2"
_cell_formula_units_Z 64
_cell_length_a 14.789912
_cell_length_b 31.171239
_cell_length_c 8.908643
_cell_angle_alpha 90.000000
_cell_angle_beta 90.000000
_cell_angle_gamma 90.000000
_cell_volume 4107.061542
_symmetry_space_group_name_H-M "P N N M"
_symmetry_group_IT_number 58
_symmetry_cell_setting 'orthorhombic'
loop_
_space_group_symop_operation_xyz
x,y,z
-x,-y,z
1/2+x,1/2-y,1/2-z
1/2-x,1/2+y,1/2-z
-x,-y,-z
x,y,-z
1/2-x,1/2+y,1/2+z
1/2+x,1/2-y,1/2+z
loop_
_atom_site_type_symbol
_atom_site_label
_atom_site_fract_x
_atom_site_fract_y
_atom_site_fract_z
Si Si1 0.319806 0.363899 0.677153
Si Si2 0.602451 0.548676 0.317669
Si Si3 0.305049 0.204341 0.818388
Si Si4 0.814665 0.869126 0.323863
Si Si5 0.489664 0.325936 0.171140
Si Si6 0.301166 0.791408 0.320736
Si Si7 0.107221 0.048832 0.181367
Si Si8 0.992757 0.723591 0.324341
O O1 0.301492 0.363937 0.500000
O O2 0.331993 0.413036 0.731568
O O3 0.417603 0.343317 0.711668
O O4 0.248522 0.333401 0.758134
O O5 0.601385 0.549411 0.500000
O O6 0.627942 0.500299 0.273882
O O7 0.497834 0.556780 0.271998
O O8 0.255593 0.162585 0.755189
O O9 0.252431 0.248015 0.770007
O O10 0.410148 0.205999 0.772213
O O11 0.302645 0.203883 0.000000
O O12 0.794229 0.872487 0.500000
O O13 0.827647 0.915803 0.251429
O O14 0.912778 0.846746 0.307605
O O15 0.498783 0.275023 0.184084
O O16 0.458071 0.335507 0.000000
O O17 0.297517 0.791788 0.500000
O O18 0.404097 0.789796 0.265272
O O19 0.110456 0.051685 0.000000
O O20 0.980455 0.712212 0.500000
#
# Coordination Sequence:
#
# PCOD9441624 Si02
#       8
#     8   8   8   8   8   8   8   8
#     4  11  20  31  50  74  98 133 174 203 241 293
#     4   8  16  29  48  72  97 129 167 205 238 287
#     4  10  21  35  51  69  96 133 172 204 240 290
#     4  11  21  31  47  73 103 132 166 204 249 294
#     4  10  19  31  46  69 103 134 163 207 247 281
#     4  11  22  35  50  73 101 131 166 205 249 294
#     4   9  16  31  50  69  98 131 166 203 242 288
#     4  10  20  37  52  68  97 133 171 211 244 282
#
# _framework density 15.582917999999999
#
# number of rings (size 3 to 8) (size 9 to 14) (size 15 to 20)
#    0.000    2.000    3.750    1.875    0.000    2.000 
#    0.000    2.500    0.000    0.000    0.000    0.875 
#    0.000    7.000    0.000    0.000    0.000    0.000 
#
# Total GULP energy -356894.838716 kJ/mol
# GULP energy per Si atom -5576.481855 kJ/mol
# Density = 1.554745 g / cm^3
# Si number density = 15.582918 Si / 1000 Ang^3
#
#
#
# Elastic Constant Matrix: (Units=GPa)
#
#
# Indices 1 2 3 4 5 6 
#
# 1 91.4052 61.4060 34.5744 0.0000 0.0000 0.0000
# 2 61.4060 118.7681 29.0330 0.0000 0.0000 0.0000
# 3 34.5744 29.0330 28.4757 0.0000 0.0000 0.0000
# 4 0.0000 0.0000 0.0000 20.9574 0.0000 0.0000
# 5 0.0000 0.0000 0.0000 0.0000 24.2826 0.0000
# 6 0.0000 0.0000 0.0000 0.0000 0.0000 22.5512
#
#
#
# Elastic Compliance Matrix: (Units=1/GPa)
#
#
# Indices 1 2 3 4 5 6 
#
# 1 0.023950 -0.007025 -0.021917 0.000000 0.000000 0.000000
# 2 -0.007025 0.013276 -0.005006 0.000000 0.000000 0.000000
# 3 -0.021917 -0.005006 0.066832 0.000000 0.000000 0.000000
# 4 0.000000 0.000000 0.000000 0.047716 0.000000 0.000000
# 5 0.000000 0.000000 0.000000 0.000000 0.041182 0.000000
# 6 0.000000 0.000000 0.000000 0.000000 0.000000 0.044343
#
#
# Mechanical properties :
#
#
# Convention : Reuss Voigt Hill
#
# Bulk Modulus (GPa) = 27.65297 54.29731 40.97514
# Shear Modulus (GPa) = 15.76056 21.13396 18.44726
#
# Velocity S-wave (km/s) = 3.18370 3.68669 3.44439
# Velocity P-wave (km/s) = 5.59454 7.28300 6.49388
#
# Compressibility (1/GPa) = 0.03616249
#
# Stress axis : x y z
#
# Youngs Moduli (GPa) = 41.75392 75.32637 14.96288
#
# Poissons Ratio (x) = 0.52918 0.32794
# Poissons Ratio (y) = 0.29333 0.07490
# Poissons Ratio (z) = 0.91511 0.37706
#
# Static dielectric constant tensor:
#      x y z
#    x 1.501510 0.000000 0.000000 
#    y 0.000000 1.526850 0.000000 
#    z 0.000000 0.000000 1.530620 
# 
# From -- ./inp_files/7141.got.cif
#   From: 2010.05.17/outbox.cif.g08.bks.cpg/sg58_4_cif.got.tgz:7141.got - 2010.06.03 14:20:14.
