data_PCOD9441466
_publ_section_title
;
Structure prediction by ZEFSAII (Michael W. Deem and Ramdas Pophale) SiO2 
 PCOD9441466
Probable space group: P N N M
;
_chemical_formula_sum "Si O2"
_cell_formula_units_Z 56
_cell_length_a 8.113969
_cell_length_b 15.907335
_cell_length_c 19.418388
_cell_angle_alpha 90.000000
_cell_angle_beta 90.000000
_cell_angle_gamma 90.000000
_cell_volume 2506.362856
_symmetry_space_group_name_H-M "P N N M"
_symmetry_group_IT_number 58
_symmetry_cell_setting 'orthorhombic'
loop_
_space_group_symop_operation_xyz
x,y,z
-x,-y,z
1/2+x,1/2-y,1/2-z
1/2-x,1/2+y,1/2-z
-x,-y,-z
x,y,-z
1/2-x,1/2+y,1/2+z
1/2+x,1/2-y,1/2+z
loop_
_atom_site_type_symbol
_atom_site_label
_atom_site_fract_x
_atom_site_fract_y
_atom_site_fract_z
Si Si1 0.788508 0.095521 0.665721
Si Si2 0.786975 0.157783 0.917274
Si Si3 0.036258 0.691666 0.867904
Si Si4 0.246054 0.660913 0.267988
Si Si5 0.816734 0.459153 0.072715
Si Si6 0.301449 0.978584 0.190617
Si Si7 0.479739 0.735756 0.836267
O O1 0.644375 0.152629 0.632732
O O2 0.747095 0.083775 0.746467
O O3 0.955592 0.143041 0.647376
O O4 0.778304 0.003379 0.633907
O O5 0.942657 0.210671 0.886677
O O6 0.756065 0.069213 0.878332
O O7 0.637809 0.216540 0.888699
O O8 0.792458 0.151035 0.000000
O O9 0.122489 0.660611 0.797416
O O10 0.147002 0.638864 0.921684
O O11 0.285708 0.567573 0.293173
O O12 0.390446 0.718917 0.237501
O O13 0.139506 0.707348 0.325249
O O14 0.000000 0.500000 0.075522
O O15 0.739048 0.481186 0.000000
O O16 0.500000 0.000000 0.190725
#
# Coordination Sequence:
#
# PCOD9441466 Si02
#       7
#     8   8   8   8   8   8   8
#     4  11  20  37  64  98 126 161 217 276 335 394
#     4  11  25  42  63  95 134 182 227 270 327 394
#     4  10  18  37  63  86 124 165 215 267 322 396
#     4  11  21  40  62  95 123 164 212 272 328 384
#     4   9  17  30  54  87 123 164 204 251 317 395
#     4  12  21  40  66  94 129 170 222 278 330 397
#     4  11  24  39  65  95 131 166 214 277 336 389
#
# _framework density 22.343133000000002
#
# number of rings (size 3 to 8) (size 9 to 14) (size 15 to 20)
#    0.000    1.286    4.286    3.429    0.000    2.000 
#    0.000    0.000    0.000    2.571    0.000   12.000 
#    0.000    0.000    0.000    0.000    0.000    0.000 
#
# Total GULP energy -312620.403459 kJ/mol
# GULP energy per Si atom -5582.507205 kJ/mol
# Density = 2.229228 g / cm^3
# Si number density = 22.343133 Si / 1000 Ang^3
#
#
#
# Elastic Constant Matrix: (Units=GPa)
#
#
# Indices 1 2 3 4 5 6 
#
# 1 45.6431 28.7706 5.3264 0.0000 0.0000 0.0000
# 2 28.7706 125.8283 41.0624 0.0000 0.0000 0.0000
# 3 5.3264 41.0624 114.2128 0.0000 0.0000 0.0000
# 4 0.0000 0.0000 0.0000 28.7237 0.0000 0.0000
# 5 0.0000 0.0000 0.0000 0.0000 9.3692 0.0000
# 6 0.0000 0.0000 0.0000 0.0000 0.0000 38.0371
#
#
#
# Elastic Compliance Matrix: (Units=1/GPa)
#
#
# Indices 1 2 3 4 5 6 
#
# 1 0.025706 -0.006216 0.001036 0.000000 0.000000 0.000000
# 2 -0.006216 0.010507 -0.003488 0.000000 0.000000 0.000000
# 3 0.001036 -0.003488 0.009961 0.000000 0.000000 0.000000
# 4 0.000000 0.000000 0.000000 0.034814 0.000000 0.000000
# 5 0.000000 0.000000 0.000000 0.000000 0.106732 0.000000
# 6 0.000000 0.000000 0.000000 0.000000 0.000000 0.026290
#
#
# Mechanical properties :
#
#
# Convention : Reuss Voigt Hill
#
# Bulk Modulus (GPa) = 34.67497 48.44476 41.55987
# Shear Modulus (GPa) = 20.75042 29.26099 25.00571
#
# Velocity S-wave (km/s) = 3.05079 3.62279 3.34903
# Velocity P-wave (km/s) = 5.28798 6.26328 5.79618
#
# Compressibility (1/GPa) = 0.02883924
#
# Stress axis : x y z
#
# Youngs Moduli (GPa) = 38.90103 95.17748 100.39014
#
# Poissons Ratio (x) = 0.59160 -0.10399
# Poissons Ratio (y) = 0.24180 0.35011
# Poissons Ratio (z) = -0.04030 0.33194
#
# Static dielectric constant tensor:
#      x y z
#    x 1.876860 0.000000 0.000000 
#    y 0.000000 1.865560 0.000000 
#    z 0.000000 0.000000 1.816530 
# 
# From -- ./inp_files/28944.got.cif
#   From: 2010.05.17/outbox.cif.g08.bks.cpg/sg58_15_cif.got.tgz:28944.got - 2010.06.03 14:20:14.
