data_PCOD9441388
_publ_section_title
;
Structure prediction by ZEFSAII (Michael W. Deem and Ramdas Pophale) SiO2 
 PCOD9441388
Probable space group: P N N M
;
_chemical_formula_sum "Si O2"
_cell_formula_units_Z 64
_cell_length_a 25.477544
_cell_length_b 15.125918
_cell_length_c 7.588001
_cell_angle_alpha 90.000000
_cell_angle_beta 90.000000
_cell_angle_gamma 90.000000
_cell_volume 2924.197365
_symmetry_space_group_name_H-M "P N N M"
_symmetry_group_IT_number 58
_symmetry_cell_setting 'orthorhombic'
loop_
_space_group_symop_operation_xyz
x,y,z
-x,-y,z
1/2+x,1/2-y,1/2-z
1/2-x,1/2+y,1/2-z
-x,-y,-z
x,y,-z
1/2-x,1/2+y,1/2+z
1/2+x,1/2-y,1/2+z
loop_
_atom_site_type_symbol
_atom_site_label
_atom_site_fract_x
_atom_site_fract_y
_atom_site_fract_z
Si Si1 0.057524 0.742342 0.286461
Si Si2 0.853139 0.132033 0.712252
Si Si3 0.263203 0.830652 0.715553
Si Si4 0.553171 0.959495 0.704697
Si Si5 0.168502 0.493108 0.210850
Si Si6 0.236918 0.126738 0.212514
Si Si7 0.012373 0.096407 0.702942
Si Si8 0.624783 0.439318 0.704324
O O1 0.054674 0.735122 0.500000
O O2 0.114678 0.780925 0.238465
O O3 0.048726 0.646008 0.212183
O O4 0.016694 0.817560 0.224556
O O5 0.853372 0.127640 0.500000
O O6 0.793455 0.133353 0.772943
O O7 0.881391 0.044558 0.779154
O O8 0.264137 0.830342 0.500000
O O9 0.307161 0.900048 0.775660
O O10 0.265090 0.728673 0.771777
O O11 0.554294 0.988385 0.500000
O O12 0.500000 0.000000 0.784793
O O13 0.610271 0.985779 0.781061
O O14 0.211469 0.570482 0.241058
O O15 0.164318 0.485904 0.000000
O O16 0.182629 0.082441 0.276109
O O17 0.235926 0.127130 0.000000
O O18 0.993585 0.091031 0.500000
O O19 0.075020 0.105997 0.707073
O O20 0.000000 0.000000 0.784494
O O21 0.623424 0.413448 0.500000
#
# Coordination Sequence:
#
# PCOD9441388 Si02
#       8
#     8   8   8   8   8   8   8   8
#     4  10  21  37  61  87 109 149 200 241 284 335
#     4  10  18  34  58  80 108 150 194 233 279 339
#     4   9  18  33  57  81 106 149 195 228 272 337
#     4  10  23  41  60  85 117 153 191 239 294 343
#     4  10  20  37  61  84 109 150 197 234 277 340
#     4  10  21  37  56  84 118 149 186 235 287 337
#     4  10  20  37  58  80 111 152 195 232 273 338
#     4  11  22  33  52  84 119 149 179 231 295 340
#
# _framework density 21.886348000000002
#
# number of rings (size 3 to 8) (size 9 to 14) (size 15 to 20)
#    0.000    2.000    2.500    1.125    0.000    4.500 
#    0.000    3.750    0.000    0.000    0.000    0.000 
#    0.000    0.000    0.000    0.000    0.000    0.000 
#
# Total GULP energy -357370.017298 kJ/mol
# GULP energy per Si atom -5583.906520 kJ/mol
# Density = 2.183653 g / cm^3
# Si number density = 21.886348 Si / 1000 Ang^3
#
#
#
# Elastic Constant Matrix: (Units=GPa)
#
#
# Indices 1 2 3 4 5 6 
#
# 1 179.9893 75.1609 5.5498 0.0000 0.0000 0.0000
# 2 75.1609 118.2207 -2.2038 0.0000 0.0000 0.0000
# 3 5.5498 -2.2038 48.0778 0.0000 0.0000 0.0000
# 4 0.0000 0.0000 0.0000 18.7466 0.0000 0.0000
# 5 0.0000 0.0000 0.0000 0.0000 -192.9958 0.0000
# 6 0.0000 0.0000 0.0000 0.0000 0.0000 36.6913
#
#
#
# Elastic Compliance Matrix: (Units=1/GPa)
#
#
# Indices 1 2 3 4 5 6 
#
# 1 0.007622 -0.004866 -0.001103 0.000000 0.000000 0.000000
# 2 -0.004866 0.011573 0.001092 0.000000 0.000000 0.000000
# 3 -0.001103 0.001092 0.020977 0.000000 0.000000 0.000000
# 4 0.000000 0.000000 0.000000 0.053343 0.000000 0.000000
# 5 0.000000 0.000000 0.000000 0.000000 -0.005181 0.000000
# 6 0.000000 0.000000 0.000000 0.000000 0.000000 0.027254
#
#
# Mechanical properties :
#
#
# Convention : Reuss Voigt Hill
#
# Bulk Modulus (GPa) = 32.87542 55.92242 44.39892
# Shear Modulus (GPa) = 36.90539 -9.65954 13.62292
#
# Velocity S-wave (km/s) = 4.11083 -2.10311 2.49758
# Velocity P-wave (km/s) = 6.13070 4.43952 5.35232
#
# Compressibility (1/GPa) = 0.03041787
#
# Stress axis : x y z
#
# Youngs Moduli (GPa) = 131.19862 86.40790 47.67131
#
# Poissons Ratio (x) = 0.42050 0.05258
# Poissons Ratio (y) = 0.63847 -0.05207
# Poissons Ratio (z) = 0.14470 -0.09438
#
# Static dielectric constant tensor:
#      x y z
#    x 1.816510 0.000000 0.000000 
#    y 0.000000 1.779410 0.000000 
#    z 0.000000 0.000000 1.844530 
# 
# From -- ./inp_files/9991.got.cif
#   From: 2010.05.17/outbox.cif.g08.bks.cpg/sg58_5_cif.got.tgz:9991.got - 2010.06.03 14:20:14.
