data_PCOD9441823
_publ_section_title
;
Structure prediction by ZEFSAII (Michael W. Deem and Ramdas Pophale) SiO2 
 PCOD9441823
Probable space group: P N N M
;
_chemical_formula_sum "Si O2"
_cell_formula_units_Z 48
_cell_length_a 22.218876
_cell_length_b 10.079204
_cell_length_c 13.695617
_cell_angle_alpha 90.000000
_cell_angle_beta 90.000000
_cell_angle_gamma 90.000000
_cell_volume 3067.114032
_symmetry_space_group_name_H-M "P N N M"
_symmetry_group_IT_number 58
_symmetry_cell_setting 'orthorhombic'
loop_
_space_group_symop_operation_xyz
x,y,z
-x,-y,z
1/2+x,1/2-y,1/2-z
1/2-x,1/2+y,1/2-z
-x,-y,-z
x,y,-z
1/2-x,1/2+y,1/2+z
1/2+x,1/2-y,1/2+z
loop_
_atom_site_type_symbol
_atom_site_label
_atom_site_fract_x
_atom_site_fract_y
_atom_site_fract_z
Si Si1 0.720254 0.698002 0.615128
Si Si2 0.213030 0.494169 0.115969
Si Si3 0.337386 0.490378 0.768810
Si Si4 0.967396 0.640290 0.615633
Si Si5 0.155112 0.302472 0.270604
Si Si6 0.449896 0.385578 0.112157
O O1 0.719068 0.675363 0.500000
O O2 0.699296 0.849846 0.633954
O O3 0.680512 0.593519 0.674094
O O4 0.788386 0.684108 0.655278
O O5 0.280945 0.477303 0.156754
O O6 0.171370 0.395451 0.178550
O O7 0.210214 0.469681 0.000000
O O8 0.347237 0.645757 0.746284
O O9 0.395501 0.429069 0.820106
O O10 0.953141 0.659117 0.500000
O O11 0.906646 0.655465 0.677332
O O12 0.000000 0.500000 0.627663
O O13 0.015638 0.752875 0.642934
O O14 0.500000 0.500000 0.112531
O O15 0.428602 0.369147 0.000000
#
# Coordination Sequence:
#
# PCOD9441823 Si02
#       6
#     8   8   8   8   8   8
#     4   9  19  34  53  75 101 134 168 207 251 295
#     4   9  19  34  52  74 102 135 168 205 250 299
#     4  10  19  32  53  78 102 131 168 208 250 297
#     4  10  21  34  50  76 106 135 166 204 251 302
#     4  10  19  33  53  76 104 134 165 205 252 299
#     4  10  19  32  52  76 102 132 165 203 249 300
#
# _framework density 15.649891999999999
#
# number of rings (size 3 to 8) (size 9 to 14) (size 15 to 20)
#    0.000    2.333    1.667    1.000    2.333    2.000 
#    0.000    0.000    0.000    2.000    0.000    0.000 
#    0.000    0.000    0.000    0.000    0.000    0.000 
#
# Total GULP energy -267632.715458 kJ/mol
# GULP energy per Si atom -5575.681572 kJ/mol
# Density = 1.561427 g / cm^3
# Si number density = 15.649892 Si / 1000 Ang^3
#
#
#
# Elastic Constant Matrix: (Units=GPa)
#
#
# Indices 1 2 3 4 5 6 
#
# 1 87.8745 64.8985 57.8508 0.0000 0.0000 0.0000
# 2 64.8985 112.0060 70.0963 0.0000 0.0000 0.0000
# 3 57.8508 70.0963 107.2117 0.0000 0.0000 0.0000
# 4 0.0000 0.0000 0.0000 64.7919 0.0000 0.0000
# 5 0.0000 0.0000 0.0000 0.0000 28.1306 0.0000
# 6 0.0000 0.0000 0.0000 0.0000 0.0000 23.1997
#
#
#
# Elastic Compliance Matrix: (Units=1/GPa)
#
#
# Indices 1 2 3 4 5 6 
#
# 1 0.021939 -0.008976 -0.005969 0.000000 0.000000 0.000000
# 2 -0.008976 0.018784 -0.007438 0.000000 0.000000 0.000000
# 3 -0.005969 -0.007438 0.017411 0.000000 0.000000 0.000000
# 4 0.000000 0.000000 0.000000 0.015434 0.000000 0.000000
# 5 0.000000 0.000000 0.000000 0.000000 0.035549 0.000000
# 6 0.000000 0.000000 0.000000 0.000000 0.000000 0.043104
#
#
# Mechanical properties :
#
#
# Convention : Reuss Voigt Hill
#
# Bulk Modulus (GPa) = 74.80756 76.97595 75.89175
# Shear Modulus (GPa) = 24.82106 30.84089 27.83097
#
# Velocity S-wave (km/s) = 3.98681 4.44405 4.22162
# Velocity P-wave (km/s) = 8.31248 8.69631 8.50656
#
# Compressibility (1/GPa) = 0.01336763
#
# Stress axis : x y z
#
# Youngs Moduli (GPa) = 45.58131 53.23805 57.43431
#
# Poissons Ratio (x) = 0.47786 0.34285
# Poissons Ratio (y) = 0.40914 0.42717
# Poissons Ratio (z) = 0.27210 0.39596
#
# Static dielectric constant tensor:
#      x y z
#    x 1.493010 0.000000 0.000000 
#    y 0.000000 1.592530 0.000000 
#    z 0.000000 0.000000 1.497350 
# 
# From -- ./inp_files/19990.got.cif
#   From: 2010.05.17/outbox.cif.g08.bks.cpg/sg58_10_cif.got.tgz:19990.got - 2010.06.03 14:20:14.
