data_PCOD9441903
_publ_section_title
;
Structure prediction by ZEFSAII (Michael W. Deem and Ramdas Pophale) SiO2 
 PCOD9441903
Probable space group: P N N M
;
_chemical_formula_sum "Si O2"
_cell_formula_units_Z 48
_cell_length_a 29.234743
_cell_length_b 10.601124
_cell_length_c 8.291215
_cell_angle_alpha 90.000000
_cell_angle_beta 90.000000
_cell_angle_gamma 90.000000
_cell_volume 2569.622769
_symmetry_space_group_name_H-M "P N N M"
_symmetry_group_IT_number 58
_symmetry_cell_setting 'orthorhombic'
loop_
_space_group_symop_operation_xyz
x,y,z
-x,-y,z
1/2+x,1/2-y,1/2-z
1/2-x,1/2+y,1/2-z
-x,-y,-z
x,y,-z
1/2-x,1/2+y,1/2+z
1/2+x,1/2-y,1/2+z
loop_
_atom_site_type_symbol
_atom_site_label
_atom_site_fract_x
_atom_site_fract_y
_atom_site_fract_z
Si Si1 0.353978 0.250909 0.305371
Si Si2 0.701498 0.500253 0.695180
Si Si3 0.193557 0.496419 0.694160
Si Si4 0.144347 0.242069 0.304916
Si Si5 0.051495 0.866843 0.191347
Si Si6 0.546913 0.347833 0.808945
O O1 0.352394 0.245855 0.500000
O O2 0.323576 0.371032 0.253044
O O3 0.333564 0.121762 0.240436
O O4 0.406275 0.279844 0.257124
O O5 0.701204 0.498814 0.500000
O O6 0.753974 0.497433 0.752118
O O7 0.673677 0.379004 0.753650
O O8 0.195344 0.488593 0.500000
O O9 0.168122 0.370323 0.753128
O O10 0.143275 0.244316 0.500000
O O11 0.092001 0.224255 0.249231
O O12 0.001266 0.813635 0.228328
O O13 0.054733 0.003330 0.275423
O O14 0.944470 0.110649 0.000000
O O15 0.542258 0.329353 0.000000
#
# Coordination Sequence:
#
# PCOD9441903 Si02
#       6
#     8   8   8   8   8   8
#     4  10  21  37  56  80 110 143 180 222 270 321
#     4  10  20  36  57  80 106 140 184 227 265 313
#     4  10  22  37  54  78 110 145 180 221 269 319
#     4  10  21  37  56  80 111 144 179 221 270 320
#     4  10  19  33  55  80 107 139 175 221 271 316
#     4  10  19  32  54  82 108 137 176 222 269 317
#
# _framework density 18.679784000000001
#
# number of rings (size 3 to 8) (size 9 to 14) (size 15 to 20)
#    0.000    2.000    1.667    3.000    0.000    5.333 
#    0.000    0.833    0.000    5.000    0.000    0.000 
#    0.000    0.000    0.000    0.000    0.000    0.000 
#
# Total GULP energy -267996.573202 kJ/mol
# GULP energy per Si atom -5583.261942 kJ/mol
# Density = 1.863727 g / cm^3
# Si number density = 18.679784 Si / 1000 Ang^3
#
#
#
# Elastic Constant Matrix: (Units=GPa)
#
#
# Indices 1 2 3 4 5 6 
#
# 1 177.6225 77.9420 4.0135 0.0000 0.0000 0.0000
# 2 77.9420 129.7343 -0.8656 0.0000 0.0000 0.0000
# 3 4.0135 -0.8656 3.8966 0.0000 0.0000 0.0000
# 4 0.0000 0.0000 0.0000 22.5639 0.0000 0.0000
# 5 0.0000 0.0000 0.0000 0.0000 27.9466 0.0000
# 6 0.0000 0.0000 0.0000 0.0000 0.0000 1.6284
#
#
#
# Elastic Compliance Matrix: (Units=1/GPa)
#
#
# Indices 1 2 3 4 5 6 
#
# 1 0.007967 -0.004849 -0.009283 0.000000 0.000000 0.000000
# 2 -0.004849 0.010670 0.007364 0.000000 0.000000 0.000000
# 3 -0.009283 0.007364 0.267833 0.000000 0.000000 0.000000
# 4 0.000000 0.000000 0.000000 0.044319 0.000000 0.000000
# 5 0.000000 0.000000 0.000000 0.000000 0.035783 0.000000
# 6 0.000000 0.000000 0.000000 0.000000 0.000000 0.614109
#
#
# Mechanical properties :
#
#
# Convention : Reuss Voigt Hill
#
# Bulk Modulus (GPa) = 3.66387 52.60368 28.13378
# Shear Modulus (GPa) = 4.60747 25.77199 15.18973
#
# Velocity S-wave (km/s) = 1.57223 3.71842 2.85470
# Velocity P-wave (km/s) = 2.29381 6.83063 5.09505
#
# Compressibility (1/GPa) = 0.27293554
#
# Stress axis : x y z
#
# Youngs Moduli (GPa) = 125.51393 93.71985 3.73366
#
# Poissons Ratio (x) = 0.45440 0.03466
# Poissons Ratio (y) = 0.60856 -0.02750
# Poissons Ratio (z) = 1.16518 -0.69017
#
# Static dielectric constant tensor:
#      x y z
#    x 1.665680 0.000000 0.000000 
#    y 0.000000 1.599200 0.000000 
#    z 0.000000 0.000000 1.653600 
# 
# From -- ./inp_files/3006.got.cif
#   From: 2010.05.17/outbox.cif.g08.bks.cpg/sg58_2_cif.got.tgz:3006.got - 2010.06.03 14:20:14.
