data_PCOD9441692
_publ_section_title
;
Structure prediction by ZEFSAII (Michael W. Deem and Ramdas Pophale) SiO2 
 PCOD9441692
Probable space group: P N N M
;
_chemical_formula_sum "Si O2"
_cell_formula_units_Z 48
_cell_length_a 17.231736
_cell_length_b 18.568308
_cell_length_c 7.551831
_cell_angle_alpha 90.000000
_cell_angle_beta 90.000000
_cell_angle_gamma 90.000000
_cell_volume 2416.315424
_symmetry_space_group_name_H-M "P N N M"
_symmetry_group_IT_number 58
_symmetry_cell_setting 'orthorhombic'
loop_
_space_group_symop_operation_xyz
x,y,z
-x,-y,z
1/2+x,1/2-y,1/2-z
1/2-x,1/2+y,1/2-z
-x,-y,-z
x,y,-z
1/2-x,1/2+y,1/2+z
1/2+x,1/2-y,1/2+z
loop_
_atom_site_type_symbol
_atom_site_label
_atom_site_fract_x
_atom_site_fract_y
_atom_site_fract_z
Si Si1 0.663763 0.166418 0.784886
Si Si2 0.244922 0.548417 0.785076
Si Si3 0.084915 0.482425 0.209256
Si Si4 0.176462 0.898396 0.791058
Si Si5 0.853985 0.827447 0.290032
Si Si6 0.992417 0.082650 0.214242
O O1 0.607704 0.101280 0.729971
O O2 0.750390 0.145955 0.720106
O O3 0.642394 0.246047 0.721344
O O4 0.663873 0.165173 0.000000
O O5 0.158536 0.528170 0.720335
O O6 0.300288 0.482020 0.732073
O O7 0.284171 0.622095 0.720961
O O8 0.243197 0.549446 0.000000
O O9 0.000000 0.500000 0.283862
O O10 0.081980 0.498538 0.000000
O O11 0.090154 0.887054 0.719939
O O12 0.173379 0.882794 0.000000
O O13 0.840554 0.820993 0.500000
O O14 0.933952 0.870036 0.264394
O O15 0.989796 0.080677 0.000000
O O16 0.000000 0.000000 0.275514
#
# Coordination Sequence:
#
# PCOD9441692 Si02
#       6
#     8   8   8   8   8   8
#     4   9  19  35  52  71  99 134 168 202 247 297
#     4   9  17  30  50  72  96 128 163 200 243 292
#     4   9  18  34  54  77  99 126 169 213 249 290
#     4   9  17  32  51  71  96 129 164 199 239 292
#     4  10  20  33  49  72 102 133 165 202 246 298
#     4  10  19  31  50  77 103 127 164 206 246 295
#
# _framework density 19.864957
#
# number of rings (size 3 to 8) (size 9 to 14) (size 15 to 20)
#    0.000    2.667    1.667    0.000    0.000    2.000 
#    3.000    0.000    0.000    0.000    0.000    0.000 
#    0.000    0.000    0.000    0.000    0.000    0.000 
#
# Total GULP energy -267672.927606 kJ/mol
# GULP energy per Si atom -5576.519325 kJ/mol
# Density = 1.981974 g / cm^3
# Si number density = 19.864957 Si / 1000 Ang^3
#
#
#
# Elastic Constant Matrix: (Units=GPa)
#
#
# Indices 1 2 3 4 5 6 
#
# 1 166.1162 90.0117 -5.8527 0.0000 0.0000 0.0000
# 2 90.0117 125.9364 -15.3117 0.0000 0.0000 0.0000
# 3 -5.8527 -15.3117 39.3120 0.0000 0.0000 0.0000
# 4 0.0000 0.0000 0.0000 16.8152 0.0000 0.0000
# 5 0.0000 0.0000 0.0000 0.0000 5.5267 0.0000
# 6 0.0000 0.0000 0.0000 0.0000 0.0000 21.8468
#
#
#
# Elastic Compliance Matrix: (Units=1/GPa)
#
#
# Indices 1 2 3 4 5 6 
#
# 1 0.009892 -0.007234 -0.001345 0.000000 0.000000 0.000000
# 2 -0.007234 0.013625 0.004230 0.000000 0.000000 0.000000
# 3 -0.001345 0.004230 0.026885 0.000000 0.000000 0.000000
# 4 0.000000 0.000000 0.000000 0.059470 0.000000 0.000000
# 5 0.000000 0.000000 0.000000 0.000000 0.180940 0.000000
# 6 0.000000 0.000000 0.000000 0.000000 0.000000 0.045773
#
#
# Mechanical properties :
#
#
# Convention : Reuss Voigt Hill
#
# Bulk Modulus (GPa) = 23.97813 52.11769 38.04791
# Shear Modulus (GPa) = 13.92043 26.33890 20.12966
#
# Velocity S-wave (km/s) = 2.65005 3.64524 3.18673
# Velocity P-wave (km/s) = 4.63254 6.63400 5.72147
#
# Compressibility (1/GPa) = 0.04170468
#
# Stress axis : x y z
#
# Youngs Moduli (GPa) = 101.08915 73.39369 37.19572
#
# Poissons Ratio (x) = 0.53092 0.05002
# Poissons Ratio (y) = 0.73127 -0.15733
# Poissons Ratio (z) = 0.13594 -0.31045
#
# Static dielectric constant tensor:
#      x y z
#    x 1.714180 0.000000 0.000000 
#    y 0.000000 1.675720 0.000000 
#    z 0.000000 0.000000 1.746210 
# 
# From -- ./inp_files/7836.got.cif
#   From: 2010.05.17/outbox.cif.g08.bks.cpg/sg58_4_cif.got.tgz:7836.got - 2010.06.03 14:20:14.
