data_PCOD9442222
_publ_section_title
;
Structure prediction by ZEFSAII (Michael W. Deem and Ramdas Pophale) SiO2 
 PCOD9442222
Probable space group: P N N M
;
_chemical_formula_sum "Si O2"
_cell_formula_units_Z 64
_cell_length_a 24.207149
_cell_length_b 15.930976
_cell_length_c 7.910136
_cell_angle_alpha 90.000000
_cell_angle_beta 90.000000
_cell_angle_gamma 90.000000
_cell_volume 3050.492610
_symmetry_space_group_name_H-M "P N N M"
_symmetry_group_IT_number 58
_symmetry_cell_setting 'orthorhombic'
loop_
_space_group_symop_operation_xyz
x,y,z
-x,-y,z
1/2+x,1/2-y,1/2-z
1/2-x,1/2+y,1/2-z
-x,-y,-z
x,y,-z
1/2-x,1/2+y,1/2+z
1/2+x,1/2-y,1/2+z
loop_
_atom_site_type_symbol
_atom_site_label
_atom_site_fract_x
_atom_site_fract_y
_atom_site_fract_z
Si Si1 0.051619 0.249306 0.703538
Si Si2 0.624128 0.095040 0.792431
Si Si3 0.130795 0.589989 0.697174
Si Si4 0.574691 0.739405 0.207626
Si Si5 0.359832 0.425403 0.199828
Si Si6 0.746706 0.151277 0.795328
Si Si7 0.861124 0.890842 0.806004
Si Si8 0.258261 0.157611 0.695735
O O1 0.049870 0.253559 0.500000
O O2 0.080117 0.335562 0.763332
O O3 0.091120 0.172292 0.750268
O O4 0.988949 0.237937 0.761852
O O5 0.685606 0.124001 0.741321
O O6 0.614015 0.000341 0.731420
O O7 0.623870 0.094163 0.000000
O O8 0.115201 0.588038 0.500000
O O9 0.103491 0.674634 0.767691
O O10 0.196835 0.601298 0.710332
O O11 0.607655 0.656700 0.263459
O O12 0.576749 0.738943 0.000000
O O13 0.295132 0.408560 0.232076
O O14 0.377424 0.512512 0.282426
O O15 0.369305 0.433088 0.000000
O O16 0.759062 0.246593 0.738512
O O17 0.747309 0.151122 0.000000
O O18 0.804306 0.874056 0.707332
O O19 0.847885 0.874109 0.000000
O O20 0.275002 0.158478 0.500000
#
# Coordination Sequence:
#
# PCOD9442222 Si02
#       8
#     8   8   8   8   8   8   8   8
#     4  10  20  40  61  82 114 156 199 242 291 350
#     4   9  18  33  58  85 115 149 187 236 285 335
#     4  10  19  35  58  90 122 152 191 238 288 344
#     4   9  20  36  59  87 117 152 197 241 287 346
#     4  11  22  38  59  87 118 155 192 235 293 355
#     4  10  19  34  56  87 119 153 191 234 288 345
#     4  12  25  40  59  86 115 151 196 250 299 347
#     4  11  21  36  60  88 118 156 193 234 290 353
#
# _framework density 20.980217
#
# number of rings (size 3 to 8) (size 9 to 14) (size 15 to 20)
#    0.000    1.750    2.500    2.625    0.000    2.500 
#    0.000    7.500    0.000    0.000    0.000    1.750 
#    0.000    0.000    0.000    0.000    0.000    0.000 
#
# Total GULP energy -357667.612517 kJ/mol
# GULP energy per Si atom -5588.556446 kJ/mol
# Density = 2.093246 g / cm^3
# Si number density = 20.980217 Si / 1000 Ang^3
#
#
#
# Elastic Constant Matrix: (Units=GPa)
#
#
# Indices 1 2 3 4 5 6 
#
# 1 97.6771 35.7505 -5.0564 0.0000 0.0000 0.0000
# 2 35.7505 114.3746 -5.1358 0.0000 0.0000 0.0000
# 3 -5.0564 -5.1358 21.3093 0.0000 0.0000 0.0000
# 4 0.0000 0.0000 0.0000 13.9036 0.0000 0.0000
# 5 0.0000 0.0000 0.0000 0.0000 19.3244 0.0000
# 6 0.0000 0.0000 0.0000 0.0000 0.0000 4.7600
#
#
#
# Elastic Compliance Matrix: (Units=1/GPa)
#
#
# Indices 1 2 3 4 5 6 
#
# 1 0.011636 -0.003552 0.001905 0.000000 0.000000 0.000000
# 2 -0.003552 0.009923 0.001549 0.000000 0.000000 0.000000
# 3 0.001905 0.001549 0.047753 0.000000 0.000000 0.000000
# 4 0.000000 0.000000 0.000000 0.071924 0.000000 0.000000
# 5 0.000000 0.000000 0.000000 0.000000 0.051748 0.000000
# 6 0.000000 0.000000 0.000000 0.000000 0.000000 0.210084
#
#
# Mechanical properties :
#
#
# Convention : Reuss Voigt Hill
#
# Bulk Modulus (GPa) = 14.46821 31.60862 23.03841
# Shear Modulus (GPa) = 11.72877 21.45113 16.58995
#
# Velocity S-wave (km/s) = 2.36697 3.20104 2.81507
# Velocity P-wave (km/s) = 3.79225 5.36291 4.64446
#
# Compressibility (1/GPa) = 0.06911706
#
# Stress axis : x y z
#
# Youngs Moduli (GPa) = 85.93744 100.77692 20.94098
#
# Poissons Ratio (x) = 0.35793 -0.03990
# Poissons Ratio (y) = 0.30522 -0.03243
# Poissons Ratio (z) = -0.16372 -0.15608
#
# Static dielectric constant tensor:
#      x y z
#    x 1.721340 0.000000 0.000000 
#    y 0.000000 1.756520 0.000000 
#    z 0.000000 0.000000 1.762580 
# 
# From -- ./inp_files/6909.got.cif
#   From: 2010.05.17/outbox.cif.g08.bks.cpg/sg58_4_cif.got.tgz:6909.got - 2010.06.03 14:20:14.
