data_PCOD9442450
_publ_section_title
;
Structure prediction by ZEFSAII (Michael W. Deem and Ramdas Pophale) SiO2 
 PCOD9442450
Probable space group: P N N M
;
_chemical_formula_sum "Si O2"
_cell_formula_units_Z 58
_cell_length_a 28.569716
_cell_length_b 10.928784
_cell_length_c 9.321598
_cell_angle_alpha 90.000000
_cell_angle_beta 90.000000
_cell_angle_gamma 90.000000
_cell_volume 2910.503565
_symmetry_space_group_name_H-M "P N N M"
_symmetry_group_IT_number 58
_symmetry_cell_setting 'orthorhombic'
loop_
_space_group_symop_operation_xyz
x,y,z
-x,-y,z
1/2+x,1/2-y,1/2-z
1/2-x,1/2+y,1/2-z
-x,-y,-z
x,y,-z
1/2-x,1/2+y,1/2+z
1/2+x,1/2-y,1/2+z
loop_
_atom_site_type_symbol
_atom_site_label
_atom_site_fract_x
_atom_site_fract_y
_atom_site_fract_z
Si Si1 0.399297 0.864505 0.833468
Si Si2 0.797861 0.247909 0.169831
Si Si3 0.000000 0.500000 0.000000
Si Si4 0.560414 0.631642 0.167426
Si Si5 0.876576 0.376025 0.333248
Si Si6 0.641637 0.503781 0.329595
Si Si7 0.309027 0.715768 0.832439
Si Si8 0.021566 0.249713 0.157706
O O1 0.344932 0.828274 0.825846
O O2 0.430516 0.774054 0.740918
O O3 0.402421 0.003138 0.778048
O O4 0.414482 0.857589 0.000000
O O5 0.829146 0.347478 0.250188
O O6 0.823335 0.118680 0.196389
O O7 0.743583 0.251055 0.212024
O O8 0.800402 0.270249 0.000000
O O9 0.997910 0.612472 0.122343
O O10 0.590544 0.757707 0.174262
O O11 0.593222 0.533651 0.247708
O O12 0.513217 0.666181 0.250513
O O13 0.553032 0.600633 0.000000
O O14 0.865780 0.399145 0.500000
O O15 0.634011 0.493791 0.500000
O O16 0.667987 0.388099 0.264383
O O17 0.308004 0.675483 0.000000
O O18 0.029378 0.194253 0.000000
#
# Coordination Sequence:
#
# PCOD9442450 Si02
#       8
#     8   8   2   8   8   8   8   8
#     4  10  21  37  56  82 117 156 193 238 287 342
#     4   9  20  37  57  82 110 149 187 236 289 340
#     4   8  20  32  54  84 118 160 174 240 288 338
#     4  10  19  35  60  86 114 151 193 236 284 344
#     4   9  19  33  55  85 113 145 188 235 281 342
#     4  10  21  38  60  85 114 149 194 241 290 344
#     4  10  22  39  58  80 115 153 194 239 289 341
#     4  10  20  34  54  83 118 151 188 231 288 342
#
# _framework density 19.927824000000001
#
# number of rings (size 3 to 8) (size 9 to 14) (size 15 to 20)
#    0.414    1.931    0.000    2.069    1.931    2.759 
#    0.000    3.448    0.000    4.138    0.000    0.000 
#    0.000    0.000    0.000    0.000    0.000    0.000 
#
# Total GULP energy -323122.869905 kJ/mol
# GULP energy per Si atom -5571.083964 kJ/mol
# Density = 1.988247 g / cm^3
# Si number density = 19.927824 Si / 1000 Ang^3
#
#
#
# Elastic Constant Matrix: (Units=GPa)
#
#
# Indices 1 2 3 4 5 6 
#
# 1 78.1472 -1.8049 24.4136 0.0000 0.0000 0.0000
# 2 -1.8049 39.1016 18.0347 0.0000 0.0000 0.0000
# 3 24.4136 18.0347 54.7830 0.0000 0.0000 0.0000
# 4 0.0000 0.0000 0.0000 25.0273 0.0000 0.0000
# 5 0.0000 0.0000 0.0000 0.0000 31.1819 0.0000
# 6 0.0000 0.0000 0.0000 0.0000 0.0000 16.4371
#
#
#
# Elastic Compliance Matrix: (Units=1/GPa)
#
#
# Indices 1 2 3 4 5 6 
#
# 1 0.015541 0.004612 -0.008444 0.000000 0.000000 0.000000
# 2 0.004612 0.031521 -0.012432 0.000000 0.000000 0.000000
# 3 -0.008444 -0.012432 0.026110 0.000000 0.000000 0.000000
# 4 0.000000 0.000000 0.000000 0.039956 0.000000 0.000000
# 5 0.000000 0.000000 0.000000 0.000000 0.032070 0.000000
# 6 0.000000 0.000000 0.000000 0.000000 0.000000 0.060838
#
#
# Mechanical properties :
#
#
# Convention : Reuss Voigt Hill
#
# Bulk Modulus (GPa) = 24.60427 28.14651 26.37539
# Shear Modulus (GPa) = 19.83246 23.28849 21.56047
#
# Velocity S-wave (km/s) = 3.15812 3.42225 3.29284
# Velocity P-wave (km/s) = 5.06674 5.45625 5.26509
#
# Compressibility (1/GPa) = 0.04064336
#
# Stress axis : x y z
#
# Youngs Moduli (GPa) = 64.34674 31.72448 38.30019
#
# Poissons Ratio (x) = -0.14631 0.32340
# Poissons Ratio (y) = -0.29676 0.47616
# Poissons Ratio (z) = 0.54334 0.39441
#
# Static dielectric constant tensor:
#      x y z
#    x 1.687680 0.000000 0.000000 
#    y 0.000000 1.718250 0.000000 
#    z 0.000000 0.000000 1.684810 
# 
# From -- ./inp_files/10890.got.cif
#   From: 2010.05.17/outbox.cif.g08.bks.cpg/sg58_6_cif.got.tgz:10890.got - 2010.06.03 14:20:14.
