data_PCOD9442847
_publ_section_title
;
Structure prediction by ZEFSAII (Michael W. Deem and Ramdas Pophale) SiO2 
 PCOD9442847
Probable space group: P N N M
;
_chemical_formula_sum "Si O2"
_cell_formula_units_Z 64
_cell_length_a 14.634797
_cell_length_b 25.617624
_cell_length_c 7.554572
_cell_angle_alpha 90.000000
_cell_angle_beta 90.000000
_cell_angle_gamma 90.000000
_cell_volume 2832.274971
_symmetry_space_group_name_H-M "P N N M"
_symmetry_group_IT_number 58
_symmetry_cell_setting 'orthorhombic'
loop_
_space_group_symop_operation_xyz
x,y,z
-x,-y,z
1/2+x,1/2-y,1/2-z
1/2-x,1/2+y,1/2-z
-x,-y,-z
x,y,-z
1/2-x,1/2+y,1/2+z
1/2+x,1/2-y,1/2+z
loop_
_atom_site_type_symbol
_atom_site_label
_atom_site_fract_x
_atom_site_fract_y
_atom_site_fract_z
Si Si1 0.708615 0.979461 0.709424
Si Si2 0.764825 0.091692 0.787562
Si Si3 0.486006 0.169404 0.213065
Si Si4 0.479271 0.055475 0.799220
Si Si5 0.679703 0.201166 0.216736
Si Si6 0.354772 0.599743 0.213579
Si Si7 0.224326 0.693843 0.788081
Si Si8 0.539351 0.554453 0.707281
O O1 0.698514 0.970966 0.500000
O O2 0.630260 0.946804 0.803796
O O3 0.804706 0.954414 0.765066
O O4 0.704156 0.040714 0.747635
O O5 0.723550 0.146257 0.723624
O O6 0.865789 0.076678 0.717793
O O7 0.769792 0.096412 0.000000
O O8 0.503955 0.110602 0.282489
O O9 0.572852 0.203570 0.269128
O O10 0.383411 0.186683 0.254986
O O11 0.489340 0.165536 0.000000
O O12 0.500000 0.000000 0.710063
O O13 0.517238 0.053604 0.000000
O O14 0.737123 0.250949 0.277613
O O15 0.681728 0.201087 0.000000
O O16 0.289556 0.646712 0.276240
O O17 0.458105 0.596500 0.278146
O O18 0.358458 0.601863 0.000000
O O19 0.234250 0.693351 0.000000
O O20 0.500000 0.500000 0.785293
O O21 0.557080 0.544424 0.500000
#
# Coordination Sequence:
#
# PCOD9442847 Si02
#       8
#     8   8   8   8   8   8   8   8
#     4  11  21  33  52  81 114 148 186 228 280 340
#     4  10  20  37  58  81 112 150 191 235 286 340
#     4  10  20  36  59  86 111 142 189 237 277 327
#     4  10  20  34  55  82 112 148 188 231 283 338
#     4   9  20  39  62  83 109 149 192 230 276 339
#     4  10  21  35  53  78 111 149 186 223 277 341
#     4  10  21  40  61  82 112 152 190 230 283 337
#     4  10  20  33  53  82 112 145 187 236 282 326
#
# _framework density 22.596675999999999
#
# number of rings (size 3 to 8) (size 9 to 14) (size 15 to 20)
#    0.000    2.000    2.500    1.125    0.000    5.000 
#    0.000    3.125    0.000    0.000    0.000    0.000 
#    0.000    0.000    0.000    0.000    0.000    0.000 
#
# Total GULP energy -357408.450372 kJ/mol
# GULP energy per Si atom -5584.507037 kJ/mol
# Density = 2.254524 g / cm^3
# Si number density = 22.596676 Si / 1000 Ang^3
#
#
#
# Elastic Constant Matrix: (Units=GPa)
#
#
# Indices 1 2 3 4 5 6 
#
# 1 123.3745 55.3839 3.0408 0.0000 0.0000 0.0000
# 2 55.3839 143.4555 6.5557 0.0000 0.0000 0.0000
# 3 3.0408 6.5557 58.7174 0.0000 0.0000 0.0000
# 4 0.0000 0.0000 0.0000 14.4795 0.0000 0.0000
# 5 0.0000 0.0000 0.0000 0.0000 -4.1564 0.0000
# 6 0.0000 0.0000 0.0000 0.0000 0.0000 36.0278
#
#
#
# Elastic Compliance Matrix: (Units=1/GPa)
#
#
# Indices 1 2 3 4 5 6 
#
# 1 0.009805 -0.003782 -0.000086 0.000000 0.000000 0.000000
# 2 -0.003782 0.008465 -0.000749 0.000000 0.000000 0.000000
# 3 -0.000086 -0.000749 0.017119 0.000000 0.000000 0.000000
# 4 0.000000 0.000000 0.000000 0.069063 0.000000 0.000000
# 5 0.000000 0.000000 0.000000 0.000000 -0.240595 0.000000
# 6 0.000000 0.000000 0.000000 0.000000 0.000000 0.027756
#
#
# Mechanical properties :
#
#
# Convention : Reuss Voigt Hill
#
# Bulk Modulus (GPa) = 38.23198 50.61201 44.42199
# Shear Modulus (GPa) = -55.28791 26.64133 -14.32329
#
# Velocity S-wave (km/s) = -4.95181 3.43737 -2.52040
# Velocity P-wave (km/s) = 3.96709 6.18067 3.35133
#
# Compressibility (1/GPa) = 0.02615611
#
# Stress axis : x y z
#
# Youngs Moduli (GPa) = 101.98798 118.13374 58.41531
#
# Poissons Ratio (x) = 0.44673 0.00500
# Poissons Ratio (y) = 0.38567 0.04377
# Poissons Ratio (z) = 0.00873 0.08851
#
# Static dielectric constant tensor:
#      x y z
#    x 1.860290 0.000000 0.000000 
#    y 0.000000 1.834130 0.000000 
#    z 0.000000 0.000000 1.867580 
# 
# From -- ./inp_files/6878.got.cif
#   From: 2010.05.17/outbox.cif.g08.bks.cpg/sg58_4_cif.got.tgz:6878.got - 2010.06.03 14:20:14.
