data_PCOD9442544
_publ_section_title
;
Structure prediction by ZEFSAII (Michael W. Deem and Ramdas Pophale) SiO2 
 PCOD9442544
Probable space group: P N N M
;
_chemical_formula_sum "Si O2"
_cell_formula_units_Z 52
_cell_length_a 12.876694
_cell_length_b 8.213635
_cell_length_c 20.237633
_cell_angle_alpha 90.000000
_cell_angle_beta 90.000000
_cell_angle_gamma 90.000000
_cell_volume 2140.422417
_symmetry_space_group_name_H-M "P N N M"
_symmetry_group_IT_number 58
_symmetry_cell_setting 'orthorhombic'
loop_
_space_group_symop_operation_xyz
x,y,z
-x,-y,z
1/2+x,1/2-y,1/2-z
1/2-x,1/2+y,1/2-z
-x,-y,-z
x,y,-z
1/2-x,1/2+y,1/2+z
1/2+x,1/2-y,1/2+z
loop_
_atom_site_type_symbol
_atom_site_label
_atom_site_fract_x
_atom_site_fract_y
_atom_site_fract_z
Si Si1 0.872414 0.014437 0.500000
Si Si2 0.148083 0.398174 0.608089
Si Si3 0.066627 0.329314 0.855802
Si Si4 0.789897 0.221371 0.000000
Si Si5 0.909650 0.186812 0.756338
Si Si6 0.026651 0.308195 0.000000
Si Si7 0.210126 0.473299 0.247008
Si Si8 0.441853 0.257199 0.105641
O O1 0.868229 0.121136 0.433241
O O2 0.775444 0.891079 0.500000
O O3 0.000000 0.000000 0.500000
O O4 0.250239 0.366414 0.566257
O O5 0.161531 0.395134 0.686701
O O6 0.106129 0.578778 0.595785
O O7 0.061708 0.268644 0.583546
O O8 0.170797 0.371595 0.815980
O O9 0.000000 0.500000 0.857232
O O10 0.995355 0.208782 0.812335
O O11 0.082161 0.272222 0.930710
O O12 0.912586 0.230540 0.000000
O O13 0.835339 0.346647 0.761521
O O14 0.832497 0.034916 0.758372
O O15 0.951506 0.196678 0.682103
O O16 0.000000 0.500000 0.000000
#
# Coordination Sequence:
#
# PCOD9442544 Si02
#       8
#     4   8   8   4   8   4   8   8
#     4  12  23  35  51  90 131 146 180 245 318 360
#     4  10  19  36  60  82 116 164 208 234 289 375
#     4   9  18  36  58  80 114 152 195 238 282 352
#     4  12  23  36  61  91 120 157 201 250 299 367
#     4  10  20  36  57  86 115 154 200 246 293 350
#     4  10  22  37  57  85 115 156 201 243 296 350
#     4  10  20  36  60  86 115 155 202 243 291 347
#     4  10  20  36  55  81 121 164 191 241 307 366
#
# _framework density 24.294269
#
# number of rings (size 3 to 8) (size 9 to 14) (size 15 to 20)
#    0.000    1.846    3.077    1.385    0.000    6.154 
#    0.000    0.769    0.000    0.000    0.000   16.154 
#    0.000    0.000    0.000    0.000    0.000    0.000 
#
# Total GULP energy -290739.316856 kJ/mol
# GULP energy per Si atom -5591.140709 kJ/mol
# Density = 2.423897 g / cm^3
# Si number density = 24.294269 Si / 1000 Ang^3
#
#
#
# Elastic Constant Matrix: (Units=GPa)
#
#
# Indices 1 2 3 4 5 6 
#
# 1 53.1076 15.7209 19.6325 0.0000 0.0000 0.0000
# 2 15.7209 33.1059 23.5472 0.0000 0.0000 0.0000
# 3 19.6325 23.5472 127.1618 0.0000 0.0000 0.0000
# 4 0.0000 0.0000 0.0000 29.0257 0.0000 0.0000
# 5 0.0000 0.0000 0.0000 0.0000 83.3911 0.0000
# 6 0.0000 0.0000 0.0000 0.0000 0.0000 35.7011
#
#
#
# Elastic Compliance Matrix: (Units=1/GPa)
#
#
# Indices 1 2 3 4 5 6 
#
# 1 0.022224 -0.009344 -0.001701 0.000000 0.000000 0.000000
# 2 -0.009344 0.038716 -0.005727 0.000000 0.000000 0.000000
# 3 -0.001701 -0.005727 0.009187 0.000000 0.000000 0.000000
# 4 0.000000 0.000000 0.000000 0.034452 0.000000 0.000000
# 5 0.000000 0.000000 0.000000 0.000000 0.011992 0.000000
# 6 0.000000 0.000000 0.000000 0.000000 0.000000 0.028010
#
#
# Mechanical properties :
#
#
# Convention : Reuss Voigt Hill
#
# Bulk Modulus (GPa) = 27.33366 36.79737 32.06551
# Shear Modulus (GPa) = 26.27152 39.92189 33.09670
#
# Velocity S-wave (km/s) = 3.29201 4.05812 3.69497
# Velocity P-wave (km/s) = 5.07201 6.09403 5.60636
#
# Compressibility (1/GPa) = 0.03658493
#
# Stress axis : x y z
#
# Youngs Moduli (GPa) = 44.99547 25.82884 108.84873
#
# Poissons Ratio (x) = 0.24134 0.18515
# Poissons Ratio (y) = 0.42043 0.62335
# Poissons Ratio (z) = 0.07654 0.14791
#
# Static dielectric constant tensor:
#      x y z
#    x 1.949830 0.000000 0.000000 
#    y 0.000000 1.994960 0.000000 
#    z 0.000000 0.000000 1.951470 
# 
# From -- ./inp_files/29986.got.cif
#   From: 2010.05.17/outbox.cif.g08.bks.cpg/sg58_15_cif.got.tgz:29986.got - 2010.06.03 14:20:14.
