data_PCOD9442547
_publ_section_title
;
Structure prediction by ZEFSAII (Michael W. Deem and Ramdas Pophale) SiO2 
 PCOD9442547
Probable space group: P N N M
;
_chemical_formula_sum "Si O2"
_cell_formula_units_Z 48
_cell_length_a 9.734178
_cell_length_b 27.393828
_cell_length_c 7.497518
_cell_angle_alpha 90.000000
_cell_angle_beta 90.000000
_cell_angle_gamma 90.000000
_cell_volume 1999.261143
_symmetry_space_group_name_H-M "P N N M"
_symmetry_group_IT_number 58
_symmetry_cell_setting 'orthorhombic'
loop_
_space_group_symop_operation_xyz
x,y,z
-x,-y,z
1/2+x,1/2-y,1/2-z
1/2-x,1/2+y,1/2-z
-x,-y,-z
x,y,-z
1/2-x,1/2+y,1/2+z
1/2+x,1/2-y,1/2+z
loop_
_atom_site_type_symbol
_atom_site_label
_atom_site_fract_x
_atom_site_fract_y
_atom_site_fract_z
Si Si1 0.981607 0.129367 0.217539
Si Si2 0.837056 0.228942 0.783733
Si Si3 0.042391 0.307757 0.209278
Si Si4 0.683744 0.535414 0.703448
Si Si5 0.951024 0.583987 0.207939
Si Si6 0.267655 0.569735 0.716025
O O1 0.919621 0.180648 0.277974
O O2 0.888525 0.083595 0.279408
O O3 0.136401 0.115000 0.270032
O O4 0.977020 0.130930 0.000000
O O5 0.680087 0.223722 0.727375
O O6 0.914978 0.277088 0.717918
O O7 0.840324 0.229280 0.000000
O O8 0.068606 0.361475 0.285279
O O9 0.014877 0.315925 0.000000
O O10 0.633561 0.532885 0.500000
O O11 0.846396 0.546719 0.702911
O O12 0.666517 0.481425 0.780524
O O13 0.111452 0.572876 0.223418
O O14 0.912508 0.582898 0.000000
O O15 0.266001 0.568249 0.500000
#
# Coordination Sequence:
#
# PCOD9442547 Si02
#       6
#     8   8   8   8   8   8
#     4   9  18  35  59  85 110 139 181 233 282 325
#     4  10  21  39  62  85 110 144 186 228 277 335
#     4  10  23  40  58  85 115 144 183 232 279 328
#     4  10  19  36  60  84 110 144 190 237 279 323
#     4  11  23  38  54  79 119 154 183 224 277 336
#     4  10  21  35  57  87 113 143 189 238 276 321
#
# _framework density 24.008872
#
# number of rings (size 3 to 8) (size 9 to 14) (size 15 to 20)
#    0.000    2.000    1.667    1.500    2.333    6.000 
#    0.000    1.667    0.000    2.000    0.000    0.000 
#    0.000    0.000    0.000    0.000    0.000    0.000 
#
# Total GULP energy -268410.570905 kJ/mol
# GULP energy per Si atom -5591.886894 kJ/mol
# Density = 2.395423 g / cm^3
# Si number density = 24.008872 Si / 1000 Ang^3
#
#
#
# Elastic Constant Matrix: (Units=GPa)
#
#
# Indices 1 2 3 4 5 6 
#
# 1 63.1638 -7.3962 -10.7159 0.0000 0.0000 0.0000
# 2 -7.3962 37.0851 1.5437 0.0000 0.0000 0.0000
# 3 -10.7159 1.5437 73.4358 0.0000 0.0000 0.0000
# 4 0.0000 0.0000 0.0000 -1.3205 0.0000 0.0000
# 5 0.0000 0.0000 0.0000 0.0000 7.2499 0.0000
# 6 0.0000 0.0000 0.0000 0.0000 0.0000 46.7539
#
#
#
# Elastic Compliance Matrix: (Units=1/GPa)
#
#
# Indices 1 2 3 4 5 6 
#
# 1 0.016608 0.003214 0.002356 0.000000 0.000000 0.000000
# 2 0.003214 0.027611 -0.000111 0.000000 0.000000 0.000000
# 3 0.002356 -0.000111 0.013963 0.000000 0.000000 0.000000
# 4 0.000000 0.000000 0.000000 -0.757316 0.000000 0.000000
# 5 0.000000 0.000000 0.000000 0.000000 0.137932 0.000000
# 6 0.000000 0.000000 0.000000 0.000000 0.000000 0.021389
#
#
# Mechanical properties :
#
#
# Convention : Reuss Voigt Hill
#
# Bulk Modulus (GPa) = 14.47190 15.61643 15.04417
# Shear Modulus (GPa) = -9.47513 23.22020 6.87253
#
# Velocity S-wave (km/s) = -1.98874 3.11328 1.69373
# Velocity P-wave (km/s) = 0.87600 4.40930 3.17878
#
# Compressibility (1/GPa) = 0.06909942
#
# Stress axis : x y z
#
# Youngs Moduli (GPa) = 60.21231 36.21785 71.61548
#
# Poissons Ratio (x) = -0.11641 -0.16872
# Poissons Ratio (y) = -0.19353 0.00798
# Poissons Ratio (z) = -0.14185 0.00403
#
# Static dielectric constant tensor:
#      x y z
#    x 1.885620 0.000000 0.000000 
#    y 0.000000 1.914590 0.000000 
#    z 0.000000 0.000000 1.930790 
# 
# From -- ./inp_files/2922.got.cif
#   From: 2010.05.17/outbox.cif.g08.bks.cpg/sg58_2_cif.got.tgz:2922.got - 2010.06.03 14:20:14.
