data_PCOD9442949
_publ_section_title
;
Structure prediction by ZEFSAII (Michael W. Deem and Ramdas Pophale) SiO2 
 PCOD9442949
Probable space group: P N N M
;
_chemical_formula_sum "Si O2"
_cell_formula_units_Z 64
_cell_length_a 8.700632
_cell_length_b 29.001846
_cell_length_c 14.563949
_cell_angle_alpha 90.000000
_cell_angle_beta 90.000000
_cell_angle_gamma 90.000000
_cell_volume 3674.985178
_symmetry_space_group_name_H-M "P N N M"
_symmetry_group_IT_number 58
_symmetry_cell_setting 'orthorhombic'
loop_
_space_group_symop_operation_xyz
x,y,z
-x,-y,z
1/2+x,1/2-y,1/2-z
1/2-x,1/2+y,1/2-z
-x,-y,-z
x,y,-z
1/2-x,1/2+y,1/2+z
1/2+x,1/2-y,1/2+z
loop_
_atom_site_type_symbol
_atom_site_label
_atom_site_fract_x
_atom_site_fract_y
_atom_site_fract_z
Si Si1 0.185479 0.247261 0.893926
Si Si2 0.184445 0.500000 0.106735
Si Si3 0.683898 0.824286 0.752825
Si Si4 0.684490 0.573506 0.245043
Si Si5 0.314521 0.252739 0.393926
Si Si6 0.186748 0.000000 0.104214
Si Si7 0.183898 0.324286 0.747175
Si Si8 0.684490 0.426494 0.754957
O O1 0.257478 0.203832 0.841342
O O2 0.227813 0.292550 0.834868
O O3 0.000000 0.243092 0.890420
O O4 0.232169 0.250296 0.000000
O O5 0.249520 0.455540 0.159857
O O6 0.249520 0.544460 0.159857
O O7 0.000000 0.500000 0.113180
O O8 0.228262 0.500000 0.000000
O O9 0.727813 0.792550 0.665132
O O10 0.500000 0.827692 0.755080
O O11 0.755351 0.874727 0.747359
O O12 0.731723 0.544680 0.336128
O O13 0.744649 0.625273 0.247359
O O14 0.500000 0.573034 0.240434
O O15 0.267831 0.249704 0.500000
O O16 0.242522 0.296168 0.341342
O O17 0.231723 0.044680 0.163872
O O18 0.243942 0.000000 0.000000
O O19 0.000000 0.000000 0.100911
#
# Coordination Sequence:
#
# PCOD9442949 Si02
#       8
#     8   8   8   8   8   8   8   8
#     4   9  19  36  55  74 100 137 178 217 260 313
#     4  10  21  37  56  77 104 139 177 220 268 311
#     4  10  20  34  53  78 107 137 172 216 265 314
#     4  10  20  34  54  79 106 138 175 215 261 313
#     4   9  19  36  55  74 100 137 178 217 260 313
#     4   8  16  32  52  73  98 131 171 210 248 298
#     4  10  20  34  53  78 107 137 172 216 265 314
#     4  10  20  34  54  79 106 138 175 215 261 313
#
# _framework density 17.415037000000002
#
# number of rings (size 3 to 8) (size 9 to 14) (size 15 to 20)
#    0.000    2.500    0.000    2.625    0.000    4.500 
#    0.000    5.000    0.000   12.750    0.000    0.000 
#    0.000    0.000    0.000    0.000    0.000    0.000 
#
# Total GULP energy -357076.597722 kJ/mol
# GULP energy per Si atom -5579.321839 kJ/mol
# Density = 1.737540 g / cm^3
# Si number density = 17.415037 Si / 1000 Ang^3
#
#
#
# Elastic Constant Matrix: (Units=GPa)
#
#
# Indices 1 2 3 4 5 6 
#
# 1 38.6112 50.2014 47.9806 0.0000 0.0000 0.0000
# 2 50.2014 188.7781 100.9526 0.0000 0.0000 0.0000
# 3 47.9806 100.9526 189.4821 0.0000 0.0000 0.0000
# 4 0.0000 0.0000 0.0000 5.7102 0.0000 0.0000
# 5 0.0000 0.0000 0.0000 0.0000 24.4641 0.0000
# 6 0.0000 0.0000 0.0000 0.0000 0.0000 34.4997
#
#
#
# Elastic Compliance Matrix: (Units=1/GPa)
#
#
# Indices 1 2 3 4 5 6 
#
# 1 0.045528 -0.008309 -0.007101 0.000000 0.000000 0.000000
# 2 -0.008309 0.008924 -0.002651 0.000000 0.000000 0.000000
# 3 -0.007101 -0.002651 0.008488 0.000000 0.000000 0.000000
# 4 0.000000 0.000000 0.000000 0.175126 0.000000 0.000000
# 5 0.000000 0.000000 0.000000 0.000000 0.040876 0.000000
# 6 0.000000 0.000000 0.000000 0.000000 0.000000 0.028986
#
#
# Mechanical properties :
#
#
# Convention : Reuss Voigt Hill
#
# Bulk Modulus (GPa) = 37.28976 90.57117 63.93046
# Shear Modulus (GPa) = 14.16471 27.45057 20.80764
#
# Velocity S-wave (km/s) = 2.85504 3.97452 3.46035
# Velocity P-wave (km/s) = 5.68570 8.55469 7.26326
#
# Compressibility (1/GPa) = 0.02681701
#
# Stress axis : x y z
#
# Youngs Moduli (GPa) = 21.96474 112.05196 117.81402
#
# Poissons Ratio (x) = 0.93109 0.83663
# Poissons Ratio (y) = 0.18252 0.31228
# Poissons Ratio (z) = 0.15598 0.29701
#
# Static dielectric constant tensor:
#      x y z
#    x 1.587640 0.000000 0.000000 
#    y 0.000000 1.557830 0.000000 
#    z 0.000000 0.000000 1.584830 
# 
# From -- ./inp_files/20313.got.cif
#   From: 2010.05.17/outbox.cif.g08.bks.cpg/sg58_11_cif.got.tgz:20313.got - 2010.06.03 14:20:14.
