data_PCOD9442114
_publ_section_title
;
Structure prediction by ZEFSAII (Michael W. Deem and Ramdas Pophale) SiO2 
 PCOD9442114
Probable space group: P N N M
;
_chemical_formula_sum "Si O2"
_cell_formula_units_Z 40
_cell_length_a 6.902173
_cell_length_b 12.985165
_cell_length_c 17.286805
_cell_angle_alpha 90.000000
_cell_angle_beta 90.000000
_cell_angle_gamma 90.000000
_cell_volume 1549.344683
_symmetry_space_group_name_H-M "P N N M"
_symmetry_group_IT_number 58
_symmetry_cell_setting 'orthorhombic'
loop_
_space_group_symop_operation_xyz
x,y,z
-x,-y,z
1/2+x,1/2-y,1/2-z
1/2-x,1/2+y,1/2-z
-x,-y,-z
x,y,-z
1/2-x,1/2+y,1/2+z
1/2+x,1/2-y,1/2+z
loop_
_atom_site_type_symbol
_atom_site_label
_atom_site_fract_x
_atom_site_fract_y
_atom_site_fract_z
Si Si1 0.194329 0.036755 0.696156
Si Si2 0.650356 0.146655 0.590747
Si Si3 0.276125 0.630530 0.648437
Si Si4 0.287326 0.414299 0.591825
Si Si5 0.690332 0.295645 0.912170
O O1 0.287562 0.109189 0.762585
O O2 0.100512 0.111353 0.632788
O O3 0.307486 0.945626 0.652001
O O4 0.000000 0.000000 0.737942
O O5 0.693655 0.120052 0.500000
O O6 0.752371 0.253801 0.616984
O O7 0.419647 0.173052 0.591699
O O8 0.204908 0.527236 0.605405
O O9 0.506433 0.612476 0.630077
O O10 0.317496 0.401377 0.500000
O O11 0.158606 0.318638 0.620166
O O12 0.628192 0.296206 0.000000
#
# Coordination Sequence:
#
# PCOD9442114 Si02
#       5
#     8   8   8   8   8
#     4  12  24  35  55  88 125 151 180 237 303 349
#     4  10  22  40  62  84 111 155 205 240 275 341
#     4  10  19  33  57  85 120 140 188 238 298 329
#     4   9  16  34  62  86 108 143 194 243 280 334
#     4   9  20  38  61  83 109 151 200 237 273 339
#
# _framework density 25.817367000000001
#
# number of rings (size 3 to 8) (size 9 to 14) (size 15 to 20)
#    0.000    2.000    2.000    4.800    2.800    3.200 
#    0.000    0.000    0.000    0.000    0.000    4.200 
#    0.000    0.000    0.000    0.000    0.000    0.000 
#
# Total GULP energy -223130.818068 kJ/mol
# GULP energy per Si atom -5578.270452 kJ/mol
# Density = 2.575861 g / cm^3
# Si number density = 25.817367 Si / 1000 Ang^3
#
#
#
# Elastic Constant Matrix: (Units=GPa)
#
#
# Indices 1 2 3 4 5 6 
#
# 1 76.3284 2.2021 -7.6169 0.0000 0.0000 0.0000
# 2 2.2021 167.6132 54.6197 0.0000 0.0000 0.0000
# 3 -7.6169 54.6197 125.5269 0.0000 0.0000 0.0000
# 4 0.0000 0.0000 0.0000 43.1761 0.0000 0.0000
# 5 0.0000 0.0000 0.0000 0.0000 24.6361 0.0000
# 6 0.0000 0.0000 0.0000 0.0000 0.0000 38.8455
#
#
#
# Elastic Compliance Matrix: (Units=1/GPa)
#
#
# Indices 1 2 3 4 5 6 
#
# 1 0.013218 -0.000507 0.001023 0.000000 0.000000 0.000000
# 2 -0.000507 0.006971 -0.003064 0.000000 0.000000 0.000000
# 3 0.001023 -0.003064 0.009362 0.000000 0.000000 0.000000
# 4 0.000000 0.000000 0.000000 0.023161 0.000000 0.000000
# 5 0.000000 0.000000 0.000000 0.000000 0.040591 0.000000
# 6 0.000000 0.000000 0.000000 0.000000 0.000000 0.025743
#
#
# Mechanical properties :
#
#
# Convention : Reuss Voigt Hill
#
# Bulk Modulus (GPa) = 40.89282 51.98648 46.43965
# Shear Modulus (GPa) = 37.79463 42.68245 40.23854
#
# Velocity S-wave (km/s) = 3.83028 4.07042 3.95217
# Velocity P-wave (km/s) = 5.95273 6.50162 6.23322
#
# Compressibility (1/GPa) = 0.02445417
#
# Stress axis : x y z
#
# Youngs Moduli (GPa) = 75.65467 143.44575 106.81768
#
# Poissons Ratio (x) = 0.07271 -0.10923
# Poissons Ratio (y) = 0.03835 0.32730
# Poissons Ratio (z) = -0.07737 0.43954
#
# Static dielectric constant tensor:
#      x y z
#    x 2.460710 0.000000 0.000000 
#    y 0.000000 2.142680 0.000000 
#    z 0.000000 0.000000 1.972930 
# 
# From -- ./inp_files/19459.got.cif
#   From: 2010.05.17/outbox.cif.g08.bks.cpg/sg58_10_cif.got.tgz:19459.got - 2010.06.03 14:20:14.
