data_PCOD9442789
_publ_section_title
;
Structure prediction by ZEFSAII (Michael W. Deem and Ramdas Pophale) SiO2 
 PCOD9442789
Probable space group: P N N M
;
_chemical_formula_sum "Si O2"
_cell_formula_units_Z 48
_cell_length_a 11.204144
_cell_length_b 24.072278
_cell_length_c 7.282636
_cell_angle_alpha 90.000000
_cell_angle_beta 90.000000
_cell_angle_gamma 90.000000
_cell_volume 1964.194433
_symmetry_space_group_name_H-M "P N N M"
_symmetry_group_IT_number 58
_symmetry_cell_setting 'orthorhombic'
loop_
_space_group_symop_operation_xyz
x,y,z
-x,-y,z
1/2+x,1/2-y,1/2-z
1/2-x,1/2+y,1/2-z
-x,-y,-z
x,y,-z
1/2-x,1/2+y,1/2+z
1/2+x,1/2-y,1/2+z
loop_
_atom_site_type_symbol
_atom_site_label
_atom_site_fract_x
_atom_site_fract_y
_atom_site_fract_z
Si Si1 0.457122 0.880526 0.710459
Si Si2 0.811839 0.912569 0.723289
Si Si3 0.815414 0.518005 0.775534
Si Si4 0.288387 0.317670 0.279463
Si Si5 0.427058 0.423421 0.787596
Si Si6 0.823011 0.308029 0.776243
O O1 0.494657 0.891325 0.500000
O O2 0.420396 0.941020 0.787982
O O3 0.333653 0.845798 0.710653
O O4 0.557826 0.839979 0.787701
O O5 0.816235 0.913702 0.500000
O O6 0.782856 0.849839 0.776647
O O7 0.941316 0.932504 0.789141
O O8 0.704959 0.954206 0.776877
O O9 0.690403 0.546329 0.714103
O O10 0.821258 0.519830 0.000000
O O11 0.282019 0.317904 0.500000
O O12 0.395602 0.358282 0.222940
O O13 0.306802 0.254888 0.214414
O O14 0.431548 0.440700 0.000000
O O15 0.827041 0.305362 0.000000
#
# Coordination Sequence:
#
# PCOD9442789 Si02
#       6
#     8   8   8   8   8   8
#     4   9  18  34  52  71  96 126 161 199 242 288
#     4   9  16  27  47  76 104 125 155 201 245 285
#     4   8  14  26  47  74  99 124 156 197 243 286
#     4  10  20  33  49  70  98 130 165 200 238 283
#     4   9  17  30  51  76  99 127 162 199 241 285
#     4   9  19  31  45  71 102 129 158 199 242 284
#
# _framework density 24.4375
#
# number of rings (size 3 to 8) (size 9 to 14) (size 15 to 20)
#    0.000    3.000    0.000    2.000    2.333    2.667 
#    0.000    4.167    0.000    9.000    0.000    4.667 
#    0.000    0.000    0.000    0.000    0.000    0.000 
#
# Total GULP energy -268077.723413 kJ/mol
# GULP energy per Si atom -5584.952571 kJ/mol
# Density = 2.438188 g / cm^3
# Si number density = 24.437500 Si / 1000 Ang^3
#
#
#
# Elastic Constant Matrix: (Units=GPa)
#
#
# Indices 1 2 3 4 5 6 
#
# 1 74.3383 -6.0270 -8.4437 0.0000 0.0000 0.0000
# 2 -6.0270 136.4965 -9.2500 0.0000 0.0000 0.0000
# 3 -8.4437 -9.2500 109.2775 0.0000 0.0000 0.0000
# 4 0.0000 0.0000 0.0000 7.0208 0.0000 0.0000
# 5 0.0000 0.0000 0.0000 0.0000 -18.5066 0.0000
# 6 0.0000 0.0000 0.0000 0.0000 0.0000 31.6362
#
#
#
# Elastic Compliance Matrix: (Units=1/GPa)
#
#
# Indices 1 2 3 4 5 6 
#
# 1 0.013633 0.000677 0.001111 0.000000 0.000000 0.000000
# 2 0.000677 0.007402 0.000679 0.000000 0.000000 0.000000
# 3 0.001111 0.000679 0.009294 0.000000 0.000000 0.000000
# 4 0.000000 0.000000 0.000000 0.142435 0.000000 0.000000
# 5 0.000000 0.000000 0.000000 0.000000 -0.054035 0.000000
# 6 0.000000 0.000000 0.000000 0.000000 0.000000 0.031609
#
#
# Mechanical properties :
#
#
# Convention : Reuss Voigt Hill
#
# Bulk Modulus (GPa) = 28.35816 30.29677 29.32747
# Shear Modulus (GPa) = 31.81477 26.95226 29.38351
#
# Velocity S-wave (km/s) = 3.61208 3.32461 3.47132
# Velocity P-wave (km/s) = 5.38755 5.21171 5.30036
#
# Compressibility (1/GPa) = 0.03526322
#
# Stress axis : x y z
#
# Youngs Moduli (GPa) = 73.35100 135.09665 107.59280
#
# Poissons Ratio (x) = -0.09149 -0.11951
# Poissons Ratio (y) = -0.04968 -0.07304
# Poissons Ratio (z) = -0.08147 -0.09172
#
# Static dielectric constant tensor:
#      x y z
#    x 1.915380 0.000000 0.000000 
#    y 0.000000 1.925800 0.000000 
#    z 0.000000 0.000000 1.943080 
# 
# From -- ./inp_files/4179.got.cif
#   From: 2010.05.17/outbox.cif.g08.bks.cpg/sg58_3_cif.got.tgz:4179.got - 2010.06.03 14:20:14.
