data_PCOD9442431
_publ_section_title
;
Structure prediction by ZEFSAII (Michael W. Deem and Ramdas Pophale) SiO2 
 PCOD9442431
Probable space group: P N N M
;
_chemical_formula_sum "Si O2"
_cell_formula_units_Z 48
_cell_length_a 20.235779
_cell_length_b 15.389639
_cell_length_c 8.529927
_cell_angle_alpha 90.000000
_cell_angle_beta 90.000000
_cell_angle_gamma 90.000000
_cell_volume 2656.401243
_symmetry_space_group_name_H-M "P N N M"
_symmetry_group_IT_number 58
_symmetry_cell_setting 'orthorhombic'
loop_
_space_group_symop_operation_xyz
x,y,z
-x,-y,z
1/2+x,1/2-y,1/2-z
1/2-x,1/2+y,1/2-z
-x,-y,-z
x,y,-z
1/2-x,1/2+y,1/2+z
1/2+x,1/2-y,1/2+z
loop_
_atom_site_type_symbol
_atom_site_label
_atom_site_fract_x
_atom_site_fract_y
_atom_site_fract_z
Si Si1 0.439530 0.063429 0.186982
Si Si2 0.962265 0.912517 0.687807
Si Si3 0.698856 0.005368 0.312633
Si Si4 0.512313 0.225597 0.687620
Si Si5 0.315925 0.613044 0.312131
Si Si6 0.164117 0.305830 0.809871
O O1 0.460957 0.160343 0.234016
O O2 0.500000 0.000000 0.234748
O O3 0.372251 0.034163 0.268708
O O4 0.431350 0.056769 0.000000
O O5 0.965242 0.905058 0.500000
O O6 0.886045 0.915401 0.740916
O O7 0.993449 0.825605 0.761776
O O8 0.000000 0.000000 0.735765
O O9 0.706539 0.004986 0.500000
O O10 0.697922 0.105618 0.255366
O O11 0.756933 0.948729 0.239209
O O12 0.507860 0.218623 0.500000
O O13 0.586763 0.196624 0.736290
O O14 0.322152 0.612689 0.500000
O O15 0.305098 0.713688 0.261328
O O16 0.164949 0.307866 0.000000
#
# Coordination Sequence:
#
# PCOD9442431 Si02
#       6
#     8   8   8   8   8   8
#     4  11  22  35  55  87 120 151 189 235 286 341
#     4  10  21  39  62  87 115 151 192 236 289 344
#     4  11  21  37  59  83 113 152 193 236 289 344
#     4  10  19  35  59  85 113 149 190 236 285 338
#     4  10  21  39  59  84 114 150 193 238 286 341
#     4   8  17  34  57  79 106 146 185 226 283 340
#
# _framework density 18.069559000000002
#
# number of rings (size 3 to 8) (size 9 to 14) (size 15 to 20)
#    0.000    2.000    1.667    3.500    0.000    2.000 
#    3.000    2.500    0.000    0.000    0.000    0.000 
#    0.000    0.000    0.000    0.000    0.000    0.000 
#
# Total GULP energy -267957.904027 kJ/mol
# GULP energy per Si atom -5582.456334 kJ/mol
# Density = 1.802843 g / cm^3
# Si number density = 18.069559 Si / 1000 Ang^3
#
#
#
# Elastic Constant Matrix: (Units=GPa)
#
#
# Indices 1 2 3 4 5 6 
#
# 1 59.0239 55.4521 -2.9877 0.0000 0.0000 0.0000
# 2 55.4521 135.8667 -3.8796 0.0000 0.0000 0.0000
# 3 -2.9877 -3.8796 15.9477 0.0000 0.0000 0.0000
# 4 0.0000 0.0000 0.0000 27.3939 0.0000 0.0000
# 5 0.0000 0.0000 0.0000 0.0000 23.8905 0.0000
# 6 0.0000 0.0000 0.0000 0.0000 0.0000 33.7501
#
#
#
# Elastic Compliance Matrix: (Units=1/GPa)
#
#
# Indices 1 2 3 4 5 6 
#
# 1 0.027573 -0.011184 0.002445 0.000000 0.000000 0.000000
# 2 -0.011184 0.011948 0.000811 0.000000 0.000000 0.000000
# 3 0.002445 0.000811 0.063360 0.000000 0.000000 0.000000
# 4 0.000000 0.000000 0.000000 0.036504 0.000000 0.000000
# 5 0.000000 0.000000 0.000000 0.000000 0.041858 0.000000
# 6 0.000000 0.000000 0.000000 0.000000 0.000000 0.029630
#
#
# Mechanical properties :
#
#
# Convention : Reuss Voigt Hill
#
# Bulk Modulus (GPa) = 11.49078 34.22310 22.85694
# Shear Modulus (GPa) = 19.55140 27.82381 23.68761
#
# Velocity S-wave (km/s) = 3.29296 3.92831 3.62458
# Velocity P-wave (km/s) = 4.56411 6.28937 5.49488
#
# Compressibility (1/GPa) = 0.08702626
#
# Stress axis : x y z
#
# Youngs Moduli (GPa) = 36.26736 83.69742 15.78277
#
# Poissons Ratio (x) = 0.93605 -0.03859
# Poissons Ratio (y) = 0.40560 -0.01280
# Poissons Ratio (z) = -0.08868 -0.06790
#
# Static dielectric constant tensor:
#      x y z
#    x 1.578440 0.000000 0.000000 
#    y 0.000000 1.634980 0.000000 
#    z 0.000000 0.000000 1.612300 
# 
# From -- ./inp_files/6026.got.cif
#   From: 2010.05.17/outbox.cif.g08.bks.cpg/sg58_4_cif.got.tgz:6026.got - 2010.06.03 14:20:14.
