data_PCOD9442326
_publ_section_title
;
Structure prediction by ZEFSAII (Michael W. Deem and Ramdas Pophale) SiO2 
 PCOD9442326
Probable space group: P N N M
;
_chemical_formula_sum "Si O2"
_cell_formula_units_Z 48
_cell_length_a 11.780859
_cell_length_b 13.599588
_cell_length_c 13.398343
_cell_angle_alpha 90.000000
_cell_angle_beta 90.000000
_cell_angle_gamma 90.000000
_cell_volume 2146.613228
_symmetry_space_group_name_H-M "P N N M"
_symmetry_group_IT_number 58
_symmetry_cell_setting 'orthorhombic'
loop_
_space_group_symop_operation_xyz
x,y,z
-x,-y,z
1/2+x,1/2-y,1/2-z
1/2-x,1/2+y,1/2-z
-x,-y,-z
x,y,-z
1/2-x,1/2+y,1/2+z
1/2+x,1/2-y,1/2+z
loop_
_atom_site_type_symbol
_atom_site_label
_atom_site_fract_x
_atom_site_fract_y
_atom_site_fract_z
Si Si1 0.125171 0.253150 0.384591
Si Si2 0.511737 0.767492 0.608702
Si Si3 0.352668 0.615264 0.692379
Si Si4 0.876346 0.278626 0.313057
Si Si5 0.220316 0.911184 0.227612
Si Si6 0.124880 0.455046 0.106595
O O1 0.145783 0.228069 0.500000
O O2 0.137453 0.163997 0.304217
O O3 0.209160 0.340707 0.346869
O O4 0.994237 0.289192 0.371578
O O5 0.565615 0.772050 0.500000
O O6 0.457926 0.663283 0.634170
O O7 0.592261 0.802106 0.697340
O O8 0.403251 0.839268 0.608935
O O9 0.231533 0.658274 0.653293
O O10 0.354486 0.498198 0.683970
O O11 0.842471 0.163531 0.303091
O O12 0.305920 0.974767 0.295626
O O13 0.000000 0.500000 0.108823
O O14 0.178107 0.481781 0.000000
#
# Coordination Sequence:
#
# PCOD9442326 Si02
#       6
#     8   8   8   8   8   8
#     4  10  23  41  59  88 125 163 205 252 309 374
#     4  10  20  37  57  84 117 152 198 249 303 357
#     4  10  22  39  61  87 122 160 201 254 308 362
#     4  10  20  39  59  86 117 165 195 254 309 361
#     4  11  22  38  63  89 122 159 209 247 308 368
#     4  10  19  34  60  89 113 144 193 250 301 351
#
# _framework density 22.360804999999999
#
# number of rings (size 3 to 8) (size 9 to 14) (size 15 to 20)
#    0.000    1.833    5.000    1.000    0.000    8.000 
#    0.000    2.500    0.000    0.000    0.000    0.000 
#    0.000    0.000    0.000    0.000    0.000    0.000 
#
# Total GULP energy -267842.041943 kJ/mol
# GULP energy per Si atom -5580.042540 kJ/mol
# Density = 2.230991 g / cm^3
# Si number density = 22.360805 Si / 1000 Ang^3
#
#
#
# Elastic Constant Matrix: (Units=GPa)
#
#
# Indices 1 2 3 4 5 6 
#
# 1 56.6671 12.2410 0.3804 0.0000 0.0000 0.0000
# 2 12.2410 114.0887 -7.8696 0.0000 0.0000 0.0000
# 3 0.3804 -7.8696 67.1101 0.0000 0.0000 0.0000
# 4 0.0000 0.0000 0.0000 0.8396 0.0000 0.0000
# 5 0.0000 0.0000 0.0000 0.0000 -5.0642 0.0000
# 6 0.0000 0.0000 0.0000 0.0000 0.0000 35.1627
#
#
#
# Elastic Compliance Matrix: (Units=1/GPa)
#
#
# Indices 1 2 3 4 5 6 
#
# 1 0.018073 -0.001962 -0.000333 0.000000 0.000000 0.000000
# 2 -0.001962 0.009050 0.001072 0.000000 0.000000 0.000000
# 3 -0.000333 0.001072 0.015029 0.000000 0.000000 0.000000
# 4 0.000000 0.000000 0.000000 1.191037 0.000000 0.000000
# 5 0.000000 0.000000 0.000000 0.000000 -0.197466 0.000000
# 6 0.000000 0.000000 0.000000 0.000000 0.000000 0.028439
#
#
# Mechanical properties :
#
#
# Convention : Reuss Voigt Hill
#
# Bulk Modulus (GPa) = 25.18474 27.48550 26.33512
# Shear Modulus (GPa) = 4.63031 21.72857 13.17944
#
# Velocity S-wave (km/s) = 1.44056 3.12063 2.43039
# Velocity P-wave (km/s) = 3.74891 5.03021 4.43606
#
# Compressibility (1/GPa) = 0.03970658
#
# Stress axis : x y z
#
# Youngs Moduli (GPa) = 55.33119 110.50220 66.54014
#
# Poissons Ratio (x) = 0.21681 0.02213
# Poissons Ratio (y) = 0.10856 -0.07135
# Poissons Ratio (z) = 0.01840 -0.11849
#
# Static dielectric constant tensor:
#      x y z
#    x 1.889290 0.000000 0.000000 
#    y 0.000000 1.912770 0.000000 
#    z 0.000000 0.000000 1.854480 
# 
# From -- ./inp_files/21151.got.cif
#   From: 2010.05.17/outbox.cif.g08.bks.cpg/sg58_11_cif.got.tgz:21151.got - 2010.06.03 14:20:14.
