data_PCOD9442875
_publ_section_title
;
Structure prediction by ZEFSAII (Michael W. Deem and Ramdas Pophale) SiO2 
 PCOD9442875
Probable space group: P N N M
;
_chemical_formula_sum "Si O2"
_cell_formula_units_Z 36
_cell_length_a 5.604456
_cell_length_b 17.026695
_cell_length_c 20.194042
_cell_angle_alpha 90.000000
_cell_angle_beta 90.000000
_cell_angle_gamma 90.000000
_cell_volume 1927.023787
_symmetry_space_group_name_H-M "P N N M"
_symmetry_group_IT_number 58
_symmetry_cell_setting 'orthorhombic'
loop_
_space_group_symop_operation_xyz
x,y,z
-x,-y,z
1/2+x,1/2-y,1/2-z
1/2-x,1/2+y,1/2-z
-x,-y,-z
x,y,-z
1/2-x,1/2+y,1/2+z
1/2+x,1/2-y,1/2+z
loop_
_atom_site_type_symbol
_atom_site_label
_atom_site_fract_x
_atom_site_fract_y
_atom_site_fract_z
Si Si1 0.000000 0.000000 0.805138
Si Si2 0.554279 0.254535 0.500000
Si Si3 0.237373 0.847604 0.237459
Si Si4 0.377978 0.100367 0.135909
Si Si5 0.562025 0.243850 0.355591
Si Si6 0.941008 0.650351 0.500000
O O1 0.942597 0.078617 0.764076
O O2 0.221488 0.023684 0.851270
O O3 0.516104 0.211797 0.429226
O O4 0.829584 0.288369 0.500000
O O5 0.327839 0.315095 0.500000
O O6 0.468149 0.881561 0.200799
O O7 0.288955 0.814455 0.309657
O O8 0.153886 0.774889 0.190682
O O9 0.199555 0.174564 0.131378
O O10 0.522811 0.102755 0.067762
#
# Coordination Sequence:
#
# PCOD9442875 Si02
#       6
#     4   4   8   8   8   4
#     4  10  24  35  52  81 120 156 202 242 304 351
#     4  10  20  36  56  93 120 153 190 258 301 358
#     4  11  19  36  56  84 110 155 197 253 289 361
#     4  10  20  36  54  82 117 156 193 245 293 361
#     4  10  20  33  61  84 115 148 203 243 306 345
#     4  10  20  35  59  83 124 156 199 236 297 359
#
# _framework density 18.681660000000001
#
# number of rings (size 3 to 8) (size 9 to 14) (size 15 to 20)
#    0.000    1.778    4.444    0.667    0.000    0.444 
#    0.000    3.333    0.000    0.667    0.000    3.111 
#    0.000    0.000    0.000    0.000    0.000    0.000 
#
# Total GULP energy -200492.824478 kJ/mol
# GULP energy per Si atom -5569.245124 kJ/mol
# Density = 1.863914 g / cm^3
# Si number density = 18.681660 Si / 1000 Ang^3
#
#
#
# Elastic Constant Matrix: (Units=GPa)
#
#
# Indices 1 2 3 4 5 6 
#
# 1 50.7487 -0.8880 11.3443 0.0000 0.0000 0.0000
# 2 -0.8880 38.4830 33.8919 0.0000 0.0000 0.0000
# 3 11.3443 33.8919 164.1543 0.0000 0.0000 0.0000
# 4 0.0000 0.0000 0.0000 23.3866 0.0000 0.0000
# 5 0.0000 0.0000 0.0000 0.0000 13.2911 0.0000
# 6 0.0000 0.0000 0.0000 0.0000 0.0000 23.6956
#
#
#
# Elastic Compliance Matrix: (Units=1/GPa)
#
#
# Indices 1 2 3 4 5 6 
#
# 1 0.020148 0.002067 -0.001819 0.000000 0.000000 0.000000
# 2 0.002067 0.031973 -0.006744 0.000000 0.000000 0.000000
# 3 -0.001819 -0.006744 0.007610 0.000000 0.000000 0.000000
# 4 0.000000 0.000000 0.000000 0.042759 0.000000 0.000000
# 5 0.000000 0.000000 0.000000 0.000000 0.075238 0.000000
# 6 0.000000 0.000000 0.000000 0.000000 0.000000 0.042202
#
#
# Mechanical properties :
#
#
# Convention : Reuss Voigt Hill
#
# Bulk Modulus (GPa) = 21.39584 38.00915 29.70250
# Shear Modulus (GPa) = 20.12060 26.01053 23.06556
#
# Velocity S-wave (km/s) = 3.28536 3.73541 3.51759
# Velocity P-wave (km/s) = 5.08618 6.24453 5.69489
#
# Compressibility (1/GPa) = 0.04673806
#
# Stress axis : x y z
#
# Youngs Moduli (GPa) = 49.63332 31.27671 131.40705
#
# Poissons Ratio (x) = -0.06465 0.23905
# Poissons Ratio (y) = -0.10259 0.88621
# Poissons Ratio (z) = 0.09029 0.21093
#
# Static dielectric constant tensor:
#      x y z
#    x 1.750780 0.000000 0.000000 
#    y 0.000000 1.652700 0.000000 
#    z 0.000000 0.000000 1.665470 
# 
# From -- ./inp_files/24256.got.cif
#   From: 2010.05.17/outbox.cif.g08.bks.cpg/sg58_13_cif.got.tgz:24256.got - 2010.06.03 14:20:14.
