data_PCOD9442960
_publ_section_title
;
Structure prediction by ZEFSAII (Michael W. Deem and Ramdas Pophale) SiO2 
 PCOD9442960
Probable space group: P N N M
;
_chemical_formula_sum "Si O2"
_cell_formula_units_Z 64
_cell_length_a 15.800651
_cell_length_b 24.428232
_cell_length_c 8.679156
_cell_angle_alpha 90.000000
_cell_angle_beta 90.000000
_cell_angle_gamma 90.000000
_cell_volume 3349.997717
_symmetry_space_group_name_H-M "P N N M"
_symmetry_group_IT_number 58
_symmetry_cell_setting 'orthorhombic'
loop_
_space_group_symop_operation_xyz
x,y,z
-x,-y,z
1/2+x,1/2-y,1/2-z
1/2-x,1/2+y,1/2-z
-x,-y,-z
x,y,-z
1/2-x,1/2+y,1/2+z
1/2+x,1/2-y,1/2+z
loop_
_atom_site_type_symbol
_atom_site_label
_atom_site_fract_x
_atom_site_fract_y
_atom_site_fract_z
Si Si1 0.806195 0.191648 0.315643
Si Si2 0.700880 0.455031 0.316272
Si Si3 0.127352 0.309348 0.315850
Si Si4 0.435357 0.921595 0.314608
Si Si5 0.620281 0.955616 0.685335
Si Si6 0.512510 0.724687 0.813442
Si Si7 0.859133 0.074926 0.816285
Si Si8 0.035530 0.100632 0.315991
O O1 0.802189 0.193958 0.500000
O O2 0.717669 0.210418 0.246274
O O3 0.889753 0.224549 0.261492
O O4 0.822464 0.128630 0.266185
O O5 0.693003 0.450619 0.500000
O O6 0.793362 0.436664 0.262220
O O7 0.688250 0.519060 0.273635
O O8 0.625100 0.422020 0.237839
O O9 0.128917 0.307347 0.500000
O O10 0.111604 0.371243 0.262078
O O11 0.049886 0.271854 0.257272
O O12 0.429844 0.916846 0.500000
O O13 0.534902 0.923250 0.271833
O O14 0.397382 0.980810 0.272603
O O15 0.628244 0.953295 0.500000
O O16 0.475389 0.664786 0.776182
O O17 0.514589 0.728224 0.000000
O O18 0.957195 0.070422 0.766129
O O19 0.853416 0.082571 0.000000
O O20 0.026046 0.094808 0.500000
#
# Coordination Sequence:
#
# PCOD9442960 Si02
#       8
#     8   8   8   8   8   8   8   8
#     4  10  20  37  59  82 108 144 188 230 271 328
#     4  11  22  33  49  79 114 145 179 221 274 333
#     4  11  21  36  59  85 111 142 180 229 283 329
#     4   9  19  37  58  81 107 140 182 225 268 321
#     4   9  19  36  56  77 109 146 180 221 266 321
#     4   8  19  39  57  76 108 144 181 227 277 323
#     4  10  20  34  53  80 113 143 178 227 276 325
#     4  10  20  36  56  75 104 146 187 227 271 325
#
# _framework density 19.104489999999998
#
# number of rings (size 3 to 8) (size 9 to 14) (size 15 to 20)
#    0.000    2.250    0.000    4.500    0.000    6.500 
#    2.250    8.750    0.000    0.000    0.000    0.000 
#    0.000    0.000    0.000    0.000    0.000    0.000 
#
# Total GULP energy -357350.000927 kJ/mol
# GULP energy per Si atom -5583.593764 kJ/mol
# Density = 1.906101 g / cm^3
# Si number density = 19.104490 Si / 1000 Ang^3
#
#
#
# Elastic Constant Matrix: (Units=GPa)
#
#
# Indices 1 2 3 4 5 6 
#
# 1 139.4820 28.6121 21.9750 0.0000 0.0000 0.0000
# 2 28.6121 23.7793 8.6243 0.0000 0.0000 0.0000
# 3 21.9750 8.6243 26.9840 0.0000 0.0000 0.0000
# 4 0.0000 0.0000 0.0000 -0.9540 0.0000 0.0000
# 5 0.0000 0.0000 0.0000 0.0000 33.1430 0.0000
# 6 0.0000 0.0000 0.0000 0.0000 0.0000 19.7633
#
#
#
# Elastic Compliance Matrix: (Units=1/GPa)
#
#
# Indices 1 2 3 4 5 6 
#
# 1 0.010059 -0.010329 -0.004890 0.000000 0.000000 0.000000
# 2 -0.010329 0.058175 -0.010181 0.000000 0.000000 0.000000
# 3 -0.004890 -0.010181 0.044295 0.000000 0.000000 0.000000
# 4 0.000000 0.000000 0.000000 -1.048216 0.000000 0.000000
# 5 0.000000 0.000000 0.000000 0.000000 0.030172 0.000000
# 6 0.000000 0.000000 0.000000 0.000000 0.000000 0.050599
#
#
# Mechanical properties :
#
#
# Convention : Reuss Voigt Hill
#
# Bulk Modulus (GPa) = 16.20023 34.29645 25.24834
# Shear Modulus (GPa) = -6.38130 19.12606 6.37238
#
# Velocity S-wave (km/s) = -1.82961 3.16749 1.82833
# Velocity P-wave (km/s) = 2.00871 5.60075 4.20733
#
# Compressibility (1/GPa) = 0.06172752
#
# Stress axis : x y z
#
# Youngs Moduli (GPa) = 99.41634 17.18961 22.57571
#
# Poissons Ratio (x) = 0.17756 0.11040
# Poissons Ratio (y) = 1.02692 0.22984
# Poissons Ratio (z) = 0.48616 0.17501
#
# Static dielectric constant tensor:
#      x y z
#    x 1.676020 0.000000 0.000000 
#    y 0.000000 1.649290 0.000000 
#    z 0.000000 0.000000 1.644260 
# 
# From -- ./inp_files/6749.got.cif
#   From: 2010.05.17/outbox.cif.g08.bks.cpg/sg58_4_cif.got.tgz:6749.got - 2010.06.03 14:20:14.
