data_PCOD9442826
_publ_section_title
;
Structure prediction by ZEFSAII (Michael W. Deem and Ramdas Pophale) SiO2 
 PCOD9442826
Probable space group: P N N M
;
_chemical_formula_sum "Si O2"
_cell_formula_units_Z 64
_cell_length_a 15.902038
_cell_length_b 22.587425
_cell_length_c 9.351919
_cell_angle_alpha 90.000000
_cell_angle_beta 90.000000
_cell_angle_gamma 90.000000
_cell_volume 3359.079226
_symmetry_space_group_name_H-M "P N N M"
_symmetry_group_IT_number 58
_symmetry_cell_setting 'orthorhombic'
loop_
_space_group_symop_operation_xyz
x,y,z
-x,-y,z
1/2+x,1/2-y,1/2-z
1/2-x,1/2+y,1/2-z
-x,-y,-z
x,y,-z
1/2-x,1/2+y,1/2+z
1/2+x,1/2-y,1/2+z
loop_
_atom_site_type_symbol
_atom_site_label
_atom_site_fract_x
_atom_site_fract_y
_atom_site_fract_z
Si Si1 0.399242 0.675258 0.171615
Si Si2 0.404277 0.002082 0.836322
Si Si3 0.083299 0.305256 0.332016
Si Si4 0.753521 0.167983 0.669517
Si Si5 0.289325 0.218445 0.667968
Si Si6 0.760266 0.034595 0.670601
Si Si7 0.406612 0.140121 0.841889
Si Si8 0.578161 0.458330 0.825208
O O1 0.442824 0.737868 0.211550
O O2 0.301482 0.689559 0.204836
O O3 0.425920 0.610277 0.225560
O O4 0.407299 0.671122 0.000000
O O5 0.384756 0.071640 0.842053
O O6 0.500000 0.000000 0.779091
O O7 0.329114 0.973582 0.747622
O O8 0.406201 0.978247 0.000000
O O9 0.109655 0.302531 0.500000
O O10 0.160290 0.326789 0.236662
O O11 0.005443 0.349118 0.322875
O O12 0.750733 0.177545 0.500000
O O13 0.801891 0.220833 0.746760
O O14 0.788602 0.102343 0.695832
O O15 0.290281 0.229446 0.500000
O O16 0.358643 0.172832 0.717533
O O17 0.748248 0.027262 0.500000
O O18 0.833175 0.988930 0.716651
O O19 0.384567 0.164971 0.000000
O O20 0.500000 0.500000 0.780684
O O21 0.577257 0.457738 0.000000
#
# Coordination Sequence:
#
# PCOD9442826 Si02
#       8
#     8   8   8   8   8   8   8   8
#     4   8  15  29  49  71  94 126 166 206 252 305
#     4  10  21  36  55  80 111 149 186 219 266 331
#     4   9  18  33  53  75 102 137 173 212 262 321
#     4  10  20  34  52  76 105 134 172 221 272 323
#     4  10  20  34  53  75 102 137 175 217 266 323
#     4  10  21  35  53  79 109 142 179 225 277 323
#     4  10  20  33  51  78 109 138 174 220 267 318
#     4   9  17  30  50  76 103 131 169 215 261 313
#
# _framework density 19.052841000000001
#
# number of rings (size 3 to 8) (size 9 to 14) (size 15 to 20)
#    0.000    2.500    0.000    3.000    0.000    5.250 
#    0.000    3.750    0.000    0.375    0.000    0.000 
#    0.000    0.000    0.000    0.000    0.000    0.000 
#
# Total GULP energy -356722.009771 kJ/mol
# GULP energy per Si atom -5573.781403 kJ/mol
# Density = 1.900948 g / cm^3
# Si number density = 19.052841 Si / 1000 Ang^3
#
#
#
# Elastic Constant Matrix: (Units=GPa)
#
#
# Indices 1 2 3 4 5 6 
#
# 1 28.8824 -2.2807 8.5301 0.0000 0.0000 0.0000
# 2 -2.2807 84.7228 14.8473 0.0000 0.0000 0.0000
# 3 8.5301 14.8473 26.1997 0.0000 0.0000 0.0000
# 4 0.0000 0.0000 0.0000 20.3496 0.0000 0.0000
# 5 0.0000 0.0000 0.0000 0.0000 23.8330 0.0000
# 6 0.0000 0.0000 0.0000 0.0000 0.0000 25.3842
#
#
#
# Elastic Compliance Matrix: (Units=1/GPa)
#
#
# Indices 1 2 3 4 5 6 
#
# 1 0.039305 0.003665 -0.014874 0.000000 0.000000 0.000000
# 2 0.003665 0.013446 -0.008813 0.000000 0.000000 0.000000
# 3 -0.014874 -0.008813 0.048005 0.000000 0.000000 0.000000
# 4 0.000000 0.000000 0.000000 0.049141 0.000000 0.000000
# 5 0.000000 0.000000 0.000000 0.000000 0.041959 0.000000
# 6 0.000000 0.000000 0.000000 0.000000 0.000000 0.039395
#
#
# Mechanical properties :
#
#
# Convention : Reuss Voigt Hill
#
# Bulk Modulus (GPa) = 16.47109 20.22205 18.34657
# Shear Modulus (GPa) = 17.15071 21.82725 19.48898
#
# Velocity S-wave (km/s) = 3.00353 3.38837 3.20174
# Velocity P-wave (km/s) = 4.54884 5.09360 4.82891
#
# Compressibility (1/GPa) = 0.06071245
#
# Stress axis : x y z
#
# Youngs Moduli (GPa) = 25.44187 74.36989 20.83100
#
# Poissons Ratio (x) = -0.27254 0.30984
# Poissons Ratio (y) = -0.09324 0.18359
# Poissons Ratio (z) = 0.37842 0.65543
#
# Static dielectric constant tensor:
#      x y z
#    x 1.666570 0.000000 0.000000 
#    y 0.000000 1.699700 0.000000 
#    z 0.000000 0.000000 1.644230 
# 
# From -- ./inp_files/8357.got.cif
#   From: 2010.05.17/outbox.cif.g08.bks.cpg/sg58_5_cif.got.tgz:8357.got - 2010.06.03 14:20:14.
