data_PCOD9442119
_publ_section_title
;
Structure prediction by ZEFSAII (Michael W. Deem and Ramdas Pophale) SiO2 
 PCOD9442119
Probable space group: P N N M
;
_chemical_formula_sum "Si O2"
_cell_formula_units_Z 56
_cell_length_a 20.208115
_cell_length_b 7.090930
_cell_length_c 17.035367
_cell_angle_alpha 90.000000
_cell_angle_beta 90.000000
_cell_angle_gamma 90.000000
_cell_volume 2441.071482
_symmetry_space_group_name_H-M "P N N M"
_symmetry_group_IT_number 58
_symmetry_cell_setting 'orthorhombic'
loop_
_space_group_symop_operation_xyz
x,y,z
-x,-y,z
1/2+x,1/2-y,1/2-z
1/2-x,1/2+y,1/2-z
-x,-y,-z
x,y,-z
1/2-x,1/2+y,1/2+z
1/2+x,1/2-y,1/2+z
loop_
_atom_site_type_symbol
_atom_site_label
_atom_site_fract_x
_atom_site_fract_y
_atom_site_fract_z
Si Si1 0.139525 0.605908 0.837278
Si Si2 0.787788 0.845742 0.703791
Si Si3 0.082304 0.309028 0.722294
Si Si4 0.926489 0.998822 0.136497
Si Si5 0.017668 0.776908 0.589423
Si Si6 0.831182 0.169881 0.586701
Si Si7 0.193334 0.220935 0.888120
O O1 0.210518 0.687140 0.808874
O O2 0.093787 0.488287 0.777225
O O3 0.166887 0.437515 0.893922
O O4 0.096698 0.786108 0.857517
O O5 0.809550 0.031812 0.656936
O O6 0.797017 0.838113 0.797009
O O7 0.846138 0.704984 0.678688
O O8 0.026671 0.311313 0.657059
O O9 0.070224 0.126760 0.781173
O O10 0.868699 0.901299 0.086745
O O11 0.000000 0.000000 0.103857
O O12 0.002674 0.716064 0.500000
O O13 0.096172 0.750837 0.603462
O O14 0.000000 0.000000 0.592856
O O15 0.837596 0.075066 0.500000
O O16 0.766888 0.301901 0.580042
#
# Coordination Sequence:
#
# PCOD9442119 Si02
#       7
#     8   8   8   8   8   8   8
#     4   9  20  35  54  85 122 155 196 268 318 360
#     4   9  18  32  56  90 119 158 215 264 314 365
#     4  10  21  31  54  88 119 160 215 260 309 368
#     4  10  21  35  59  87 121 155 197 264 334 388
#     4  10  19  33  57  89 129 182 224 250 305 386
#     4  10  20  37  62  92 134 180 218 265 324 392
#     4   9  22  35  57  94 119 157 220 264 318 385
#
# _framework density 22.940745
#
# number of rings (size 3 to 8) (size 9 to 14) (size 15 to 20)
#    0.000    2.714    1.429    0.429   14.000    2.286 
#    0.000    1.429    0.000    5.571    0.000   21.000 
#    0.000    0.000    0.000    0.000    0.000    0.000 
#
# Total GULP energy -311997.696701 kJ/mol
# GULP energy per Si atom -5571.387441 kJ/mol
# Density = 2.288853 g / cm^3
# Si number density = 22.940745 Si / 1000 Ang^3
#
#
#
# Elastic Constant Matrix: (Units=GPa)
#
#
# Indices 1 2 3 4 5 6 
#
# 1 212.3708 57.7126 59.2016 0.0000 0.0000 0.0000
# 2 57.7126 113.6745 7.2923 0.0000 0.0000 0.0000
# 3 59.2016 7.2923 73.4215 0.0000 0.0000 0.0000
# 4 0.0000 0.0000 0.0000 3.7484 0.0000 0.0000
# 5 0.0000 0.0000 0.0000 0.0000 33.6513 0.0000
# 6 0.0000 0.0000 0.0000 0.0000 0.0000 19.9034
#
#
#
# Elastic Compliance Matrix: (Units=1/GPa)
#
#
# Indices 1 2 3 4 5 6 
#
# 1 0.007100 -0.003258 -0.005401 0.000000 0.000000 0.000000
# 2 -0.003258 0.010349 0.001599 0.000000 0.000000 0.000000
# 3 -0.005401 0.001599 0.017816 0.000000 0.000000 0.000000
# 4 0.000000 0.000000 0.000000 0.266782 0.000000 0.000000
# 5 0.000000 0.000000 0.000000 0.000000 0.029717 0.000000
# 6 0.000000 0.000000 0.000000 0.000000 0.000000 0.050243
#
#
# Mechanical properties :
#
#
# Convention : Reuss Voigt Hill
#
# Bulk Modulus (GPa) = 47.29334 71.98668 59.64001
# Shear Modulus (GPa) = 12.40159 29.81129 21.10644
#
# Velocity S-wave (km/s) = 2.32759 3.60876 3.03651
# Velocity P-wave (km/s) = 5.28050 6.98654 6.19255
#
# Compressibility (1/GPa) = 0.02114463
#
# Stress axis : x y z
#
# Youngs Moduli (GPa) = 140.84915 96.63158 56.12857
#
# Poissons Ratio (x) = 0.31483 0.30316
# Poissons Ratio (y) = 0.45890 -0.08976
# Poissons Ratio (z) = 0.76075 -0.15454
#
# Static dielectric constant tensor:
#      x y z
#    x 1.892810 0.000000 0.000000 
#    y 0.000000 1.905440 0.000000 
#    z 0.000000 0.000000 1.962290 
# 
# From -- ./inp_files/32321.got.cif
#   From: 2010.05.17/outbox.cif.g08.bks.cpg/sg58_17_cif.got.tgz:32321.got - 2010.06.03 14:20:14.
