data_PCOD9442206
_publ_section_title
;
Structure prediction by ZEFSAII (Michael W. Deem and Ramdas Pophale) SiO2 
 PCOD9442206
Probable space group: P N N M
;
_chemical_formula_sum "Si O2"
_cell_formula_units_Z 64
_cell_length_a 34.279020
_cell_length_b 11.055042
_cell_length_c 8.532524
_cell_angle_alpha 90.000000
_cell_angle_beta 90.000000
_cell_angle_gamma 90.000000
_cell_volume 3233.451215
_symmetry_space_group_name_H-M "P N N M"
_symmetry_group_IT_number 58
_symmetry_cell_setting 'orthorhombic'
loop_
_space_group_symop_operation_xyz
x,y,z
-x,-y,z
1/2+x,1/2-y,1/2-z
1/2-x,1/2+y,1/2-z
-x,-y,-z
x,y,-z
1/2-x,1/2+y,1/2+z
1/2+x,1/2-y,1/2+z
loop_
_atom_site_type_symbol
_atom_site_label
_atom_site_fract_x
_atom_site_fract_y
_atom_site_fract_z
Si Si1 0.663868 0.260852 0.191728
Si Si2 0.665636 0.742799 0.187849
Si Si3 0.419613 0.245499 0.317097
Si Si4 0.576556 0.250532 0.179227
Si Si5 0.498361 0.359704 0.314563
Si Si6 0.788194 0.001475 0.309840
Si Si7 0.300044 0.998099 0.810345
Si Si8 0.545590 0.982383 0.180213
O O1 0.619208 0.276696 0.246851
O O2 0.689525 0.377531 0.237822
O O3 0.680234 0.129064 0.241633
O O4 0.663127 0.258325 0.000000
O O5 0.620661 0.726776 0.232968
O O6 0.690179 0.625465 0.242325
O O7 0.680181 0.875462 0.244699
O O8 0.669017 0.745086 0.000000
O O9 0.414979 0.275513 0.500000
O O10 0.457912 0.310112 0.246974
O O11 0.431564 0.106571 0.293188
O O12 0.538527 0.303540 0.259068
O O13 0.568563 0.107646 0.178335
O O14 0.576637 0.294446 0.000000
O O15 0.500000 0.500000 0.283132
O O16 0.495981 0.337416 0.500000
O O17 0.787111 0.002099 0.500000
O O18 0.744569 0.000922 0.244577
O O19 0.301740 0.998287 0.000000
O O20 0.500000 0.000000 0.224768
O O21 0.545385 0.935320 0.000000
#
# Coordination Sequence:
#
# PCOD9442206 Si02
#       8
#     8   8   8   8   8   8   8   8
#     4   9  19  35  56  82 112 145 181 227 275 328
#     4  10  22  38  58  85 117 150 187 237 288 335
#     4  11  23  37  57  83 113 151 193 234 282 340
#     4  10  20  36  59  84 109 145 192 232 277 337
#     4  10  23  40  54  75 114 155 188 233 287 332
#     4  10  21  37  58  85 114 143 183 234 281 331
#     4  10  20  38  61  83 112 149 182 221 283 346
#     4  10  19  34  56  82 110 142 184 236 287 334
#
# _framework density 19.793094
#
# number of rings (size 3 to 8) (size 9 to 14) (size 15 to 20)
#    0.000    2.000    1.250    1.875    1.750    4.500 
#    0.000    1.250    0.000    0.000    0.000    0.000 
#    0.000    0.000    0.000    0.000    0.000    0.000 
#
# Total GULP energy -357057.507792 kJ/mol
# GULP energy per Si atom -5579.023559 kJ/mol
# Density = 1.974804 g / cm^3
# Si number density = 19.793094 Si / 1000 Ang^3
#
#
#
# Elastic Constant Matrix: (Units=GPa)
#
#
# Indices 1 2 3 4 5 6 
#
# 1 173.2638 70.0745 10.3595 0.0000 0.0000 0.0000
# 2 70.0745 136.8897 13.8843 0.0000 0.0000 0.0000
# 3 10.3595 13.8843 -4.4734 0.0000 0.0000 0.0000
# 4 0.0000 0.0000 0.0000 -5.3689 0.0000 0.0000
# 5 0.0000 0.0000 0.0000 0.0000 30.4761 0.0000
# 6 0.0000 0.0000 0.0000 0.0000 0.0000 -80.2063
#
#
#
# Elastic Compliance Matrix: (Units=1/GPa)
#
#
# Indices 1 2 3 4 5 6 
#
# 1 0.007184 -0.004081 0.003972 0.000000 0.000000 0.000000
# 2 -0.004081 0.007874 0.014989 0.000000 0.000000 0.000000
# 3 0.003972 0.014989 -0.167825 0.000000 0.000000 0.000000
# 4 0.000000 0.000000 0.000000 -0.186259 0.000000 0.000000
# 5 0.000000 0.000000 0.000000 0.000000 0.032813 0.000000
# 6 0.000000 0.000000 0.000000 0.000000 0.000000 -0.012468
#
#
# Mechanical properties :
#
#
# Convention : Reuss Voigt Hill
#
# Bulk Modulus (GPa) = -8.12966 54.92408 23.39721
# Shear Modulus (GPa) = -12.83883 3.07097 -4.88393
#
# Velocity S-wave (km/s) = -2.54963 1.24696 -1.57253
# Velocity P-wave (km/s) = 3.57543 5.46649 2.92394
#
# Compressibility (1/GPa) = -0.12300631
#
# Stress axis : x y z
#
# Youngs Moduli (GPa) = 139.19036 127.00324 -5.95859
#
# Poissons Ratio (x) = 0.51825 0.02367
# Poissons Ratio (y) = 0.56799 0.08931
# Poissons Ratio (z) = -0.55292 -1.90359
#
# Static dielectric constant tensor:
#      x y z
#    x 1.716650 0.000000 0.000000 
#    y 0.000000 1.799990 0.000000 
#    z 0.000000 0.000000 1.712650 
# 
# From -- ./inp_files/11031.got.cif
#   From: 2010.05.17/outbox.cif.g08.bks.cpg/sg58_6_cif.got.tgz:11031.got - 2010.06.03 14:20:14.
