data_PCOD9442689
_publ_section_title
;
Structure prediction by ZEFSAII (Michael W. Deem and Ramdas Pophale) SiO2 
 PCOD9442689
Probable space group: P N N M
;
_chemical_formula_sum "Si O2"
_cell_formula_units_Z 56
_cell_length_a 15.410239
_cell_length_b 11.083010
_cell_length_c 14.748751
_cell_angle_alpha 90.000000
_cell_angle_beta 90.000000
_cell_angle_gamma 90.000000
_cell_volume 2518.966217
_symmetry_space_group_name_H-M "P N N M"
_symmetry_group_IT_number 58
_symmetry_cell_setting 'orthorhombic'
loop_
_space_group_symop_operation_xyz
x,y,z
-x,-y,z
1/2+x,1/2-y,1/2-z
1/2-x,1/2+y,1/2-z
-x,-y,-z
x,y,-z
1/2-x,1/2+y,1/2+z
1/2+x,1/2-y,1/2+z
loop_
_atom_site_type_symbol
_atom_site_label
_atom_site_fract_x
_atom_site_fract_y
_atom_site_fract_z
Si Si1 0.269133 0.187292 0.894089
Si Si2 0.310886 0.219117 0.403849
Si Si3 0.906949 0.722364 0.793616
Si Si4 0.856717 0.073042 0.667185
Si Si5 0.325919 0.024883 0.256218
Si Si6 0.449972 0.383408 0.646529
Si Si7 0.107966 0.181906 0.597808
O O1 0.181913 0.219579 0.835441
O O2 0.332553 0.302925 0.882096
O O3 0.314690 0.073392 0.845468
O O4 0.249351 0.169898 0.000000
O O5 0.330118 0.156522 0.500000
O O6 0.341337 0.141429 0.318701
O O7 0.361263 0.344368 0.400460
O O8 0.207562 0.229720 0.399102
O O9 0.892687 0.580495 0.780001
O O10 0.927507 0.770947 0.692638
O O11 0.984121 0.770978 0.855864
O O12 0.921622 0.089543 0.750381
O O13 0.766768 0.026997 0.711718
O O14 0.887705 0.963221 0.604845
O O15 0.500000 0.500000 0.611175
O O16 0.069645 0.216615 0.500000
#
# Coordination Sequence:
#
# PCOD9442689 Si02
#       7
#     8   8   8   8   8   8   8
#     4  11  21  39  66  91 118 161 218 267 304 359
#     4  10  21  39  65  90 119 163 210 255 303 365
#     4  11  23  37  60  94 129 165 198 256 313 381
#     4  10  19  39  63  89 117 166 212 256 301 363
#     4  10  20  40  63  85 121 160 214 254 303 356
#     4  12  22  39  63  90 135 166 194 247 324 381
#     4  10  19  38  65  91 117 159 215 261 299 354
#
# _framework density 22.231344
#
# number of rings (size 3 to 8) (size 9 to 14) (size 15 to 20)
#    0.000    1.429    5.714    1.286    0.000    5.429 
#    0.000    6.429    0.000    0.857    0.000    0.000 
#    0.000    0.000    0.000    0.000    0.000    0.000 
#
# Total GULP energy -312770.433507 kJ/mol
# GULP energy per Si atom -5585.186313 kJ/mol
# Density = 2.218074 g / cm^3
# Si number density = 22.231344 Si / 1000 Ang^3
#
#
#
# Elastic Constant Matrix: (Units=GPa)
#
#
# Indices 1 2 3 4 5 6 
#
# 1 41.4710 18.8589 -8.2590 0.0000 0.0000 0.0000
# 2 18.8589 58.9330 5.2264 0.0000 0.0000 0.0000
# 3 -8.2590 5.2264 117.9383 0.0000 0.0000 0.0000
# 4 0.0000 0.0000 0.0000 13.0482 0.0000 0.0000
# 5 0.0000 0.0000 0.0000 0.0000 -13.6292 0.0000
# 6 0.0000 0.0000 0.0000 0.0000 0.0000 32.2853
#
#
#
# Elastic Compliance Matrix: (Units=1/GPa)
#
#
# Indices 1 2 3 4 5 6 
#
# 1 0.028905 -0.009466 0.002444 0.000000 0.000000 0.000000
# 2 -0.009466 0.020136 -0.001555 0.000000 0.000000 0.000000
# 3 0.002444 -0.001555 0.008719 0.000000 0.000000 0.000000
# 4 0.000000 0.000000 0.000000 0.076639 0.000000 0.000000
# 5 0.000000 0.000000 0.000000 0.000000 -0.073372 0.000000
# 6 0.000000 0.000000 0.000000 0.000000 0.000000 0.030974
#
#
# Mechanical properties :
#
#
# Convention : Reuss Voigt Hill
#
# Bulk Modulus (GPa) = 24.62840 27.77720 26.20280
# Shear Modulus (GPa) = 40.75293 19.84194 30.29743
#
# Velocity S-wave (km/s) = 4.28615 2.99075 3.69565
# Velocity P-wave (km/s) = 5.96633 4.94448 5.47928
#
# Compressibility (1/GPa) = 0.04060352
#
# Stress axis : x y z
#
# Youngs Moduli (GPa) = 34.59641 49.66323 114.69138
#
# Poissons Ratio (x) = 0.47013 -0.28027
# Poissons Ratio (y) = 0.32750 0.17837
# Poissons Ratio (z) = -0.08454 0.07724
#
# Static dielectric constant tensor:
#      x y z
#    x 1.840280 0.000000 0.000000 
#    y 0.000000 1.841860 0.000000 
#    z 0.000000 0.000000 1.863990 
# 
# From -- ./inp_files/22200.got.cif
#   From: 2010.05.17/outbox.cif.g08.bks.cpg/sg58_12_cif.got.tgz:22200.got - 2010.06.03 14:20:14.
