data_PCOD9442226
_publ_section_title
;
Structure prediction by ZEFSAII (Michael W. Deem and Ramdas Pophale) SiO2 
 PCOD9442226
Probable space group: P N N M
;
_chemical_formula_sum "Si O2"
_cell_formula_units_Z 40
_cell_length_a 13.844804
_cell_length_b 9.451576
_cell_length_c 13.974787
_cell_angle_alpha 90.000000
_cell_angle_beta 90.000000
_cell_angle_gamma 90.000000
_cell_volume 1828.673788
_symmetry_space_group_name_H-M "P N N M"
_symmetry_group_IT_number 58
_symmetry_cell_setting 'orthorhombic'
loop_
_space_group_symop_operation_xyz
x,y,z
-x,-y,z
1/2+x,1/2-y,1/2-z
1/2-x,1/2+y,1/2-z
-x,-y,-z
x,y,-z
1/2-x,1/2+y,1/2+z
1/2+x,1/2-y,1/2+z
loop_
_atom_site_type_symbol
_atom_site_label
_atom_site_fract_x
_atom_site_fract_y
_atom_site_fract_z
Si Si1 0.002849 0.329333 0.106057
Si Si2 0.915050 0.345524 0.389435
Si Si3 0.307259 0.146010 0.302199
Si Si4 0.649002 0.519373 0.109323
Si Si5 0.396081 0.753040 0.205693
O O1 0.028564 0.344414 0.358021
O O2 0.895625 0.289080 0.139666
O O3 0.074238 0.275000 0.185970
O O4 0.026238 0.281323 0.000000
O O5 0.902376 0.393335 0.500000
O O6 0.849877 0.402302 0.300869
O O7 0.881901 0.180496 0.386303
O O8 0.219798 0.259164 0.301419
O O9 0.089275 0.090120 0.326608
O O10 0.758591 0.486285 0.142699
O O11 0.638200 0.470685 0.000000
O O12 0.500000 0.000000 0.391721
#
# Coordination Sequence:
#
# PCOD9442226 Si02
#       5
#     8   8   8   8   8
#     4  10  21  37  58  83 112 148 186 224 272 330
#     4  10  19  34  57  80 103 136 184 228 265 317
#     4   9  21  33  51  84 115 138 174 230 277 317
#     4   9  18  33  57  80 100 137 181 221 265 317
#     4   9  20  33  52  85 110 135 178 235 274 312
#
# _framework density 21.873775999999999
#
# number of rings (size 3 to 8) (size 9 to 14) (size 15 to 20)
#    1.200    1.400    0.000    1.800    2.800    2.400 
#    0.000    0.000    0.000   36.600    0.000    0.000 
#    0.000    0.000    0.000    0.000    0.000    0.000 
#
# Total GULP energy -223003.626832 kJ/mol
# GULP energy per Si atom -5575.090671 kJ/mol
# Density = 2.182399 g / cm^3
# Si number density = 21.873776 Si / 1000 Ang^3
#
#
#
# Elastic Constant Matrix: (Units=GPa)
#
#
# Indices 1 2 3 4 5 6 
#
# 1 84.0701 7.9669 9.5468 0.0000 0.0000 0.0000
# 2 7.9669 36.4176 24.0846 0.0000 0.0000 0.0000
# 3 9.5468 24.0846 162.3395 0.0000 0.0000 0.0000
# 4 0.0000 0.0000 0.0000 13.3312 0.0000 0.0000
# 5 0.0000 0.0000 0.0000 0.0000 -3.8351 0.0000
# 6 0.0000 0.0000 0.0000 0.0000 0.0000 30.4551
#
#
#
# Elastic Compliance Matrix: (Units=1/GPa)
#
#
# Indices 1 2 3 4 5 6 
#
# 1 0.012165 -0.002426 -0.000355 0.000000 0.000000 0.000000
# 2 -0.002426 0.030930 -0.004446 0.000000 0.000000 0.000000
# 3 -0.000355 -0.004446 0.006840 0.000000 0.000000 0.000000
# 4 0.000000 0.000000 0.000000 0.075012 0.000000 0.000000
# 5 0.000000 0.000000 0.000000 0.000000 -0.260752 0.000000
# 6 0.000000 0.000000 0.000000 0.000000 0.000000 0.032835
#
#
# Mechanical properties :
#
#
# Convention : Reuss Voigt Hill
#
# Bulk Modulus (GPa) = 28.18456 40.66932 34.42694
# Shear Modulus (GPa) = -65.20056 24.07218 -20.56419
#
# Velocity S-wave (km/s) = -5.46556 3.32098 -3.06948
# Velocity P-wave (km/s) = 5.18813 5.77394 1.79187
#
# Compressibility (1/GPa) = 0.03548042
#
# Stress axis : x y z
#
# Youngs Moduli (GPa) = 82.20227 32.33055 146.18895
#
# Poissons Ratio (x) = 0.07844 0.05196
# Poissons Ratio (y) = 0.19944 0.64998
# Poissons Ratio (z) = 0.02922 0.14375
#
# Static dielectric constant tensor:
#      x y z
#    x 1.855750 0.000000 0.000000 
#    y 0.000000 1.888010 0.000000 
#    z 0.000000 0.000000 1.788000 
# 
# From -- ./inp_files/15452.got.cif
#   From: 2010.05.17/outbox.cif.g08.bks.cpg/sg58_8_cif.got.tgz:15452.got - 2010.06.03 14:20:14.
