data_PCOD9443180
_publ_section_title
;
Structure prediction by ZEFSAII (Michael W. Deem and Ramdas Pophale) SiO2 
 PCOD9443180
Probable space group: P N N M
;
_chemical_formula_sum "Si O2"
_cell_formula_units_Z 64
_cell_length_a 9.253990
_cell_length_b 14.355949
_cell_length_c 24.810955
_cell_angle_alpha 90.000000
_cell_angle_beta 90.000000
_cell_angle_gamma 90.000000
_cell_volume 3296.130620
_symmetry_space_group_name_H-M "P N N M"
_symmetry_group_IT_number 58
_symmetry_cell_setting 'orthorhombic'
loop_
_space_group_symop_operation_xyz
x,y,z
-x,-y,z
1/2+x,1/2-y,1/2-z
1/2-x,1/2+y,1/2-z
-x,-y,-z
x,y,-z
1/2-x,1/2+y,1/2+z
1/2+x,1/2-y,1/2+z
loop_
_atom_site_type_symbol
_atom_site_label
_atom_site_fract_x
_atom_site_fract_y
_atom_site_fract_z
Si Si1 0.692059 0.578488 0.360839
Si Si2 0.180948 0.855029 0.742291
Si Si3 0.673823 0.995721 0.331603
Si Si4 0.162827 0.969012 0.437806
Si Si5 0.340032 0.660954 0.761793
Si Si6 0.435559 0.895644 0.060355
Si Si7 0.626256 0.371159 0.363794
Si Si8 0.198024 0.748768 0.559494
O O1 0.693021 0.581184 0.296019
O O2 0.826232 0.622314 0.391127
O O3 0.681533 0.472550 0.381941
O O4 0.543819 0.630276 0.374009
O O5 0.261364 0.910392 0.695194
O O6 0.261445 0.760840 0.760496
O O7 0.013054 0.837679 0.725809
O O8 0.726794 0.992352 0.393449
O O9 0.500000 0.000000 0.326921
O O10 0.750153 0.910531 0.299027
O O11 0.194210 0.996843 0.500000
O O12 0.164466 0.856999 0.435498
O O13 0.000000 0.000000 0.424510
O O14 0.339808 0.631690 0.699260
O O15 0.558411 0.817437 0.062329
O O16 0.500000 0.000000 0.066555
O O17 0.369075 0.892325 0.000000
O O18 0.699345 0.286997 0.393976
O O19 0.263669 0.733215 0.500000
#
# Coordination Sequence:
#
# PCOD9443180 Si02
#       8
#     8   8   8   8   8   8   8   8
#     4  10  21  35  56  83 121 161 201 245 305 359
#     4  11  23  41  61  91 127 165 208 262 314 374
#     4  12  25  41  65  96 127 165 211 259 318 384
#     4  10  23  45  70  93 120 161 211 264 323 380
#     4  11  23  41  63  90 128 167 211 260 315 375
#     4  10  20  35  55  86 122 156 198 247 294 356
#     4  10  20  37  57  83 121 163 201 251 301 363
#     4  10  21  38  62  90 121 161 206 252 309 372
#
# _framework density 19.416706000000001
#
# number of rings (size 3 to 8) (size 9 to 14) (size 15 to 20)
#    0.000    1.500    2.500    2.625    0.000    6.250 
#    0.000    1.250    0.000    3.000    0.000    0.000 
#    0.000    0.000    0.000    0.000    0.000    0.000 
#
# Total GULP energy -357205.756068 kJ/mol
# GULP energy per Si atom -5581.339939 kJ/mol
# Density = 1.937251 g / cm^3
# Si number density = 19.416706 Si / 1000 Ang^3
#
#
#
# Elastic Constant Matrix: (Units=GPa)
#
#
# Indices 1 2 3 4 5 6 
#
# 1 117.9122 36.4082 63.6533 0.0000 0.0000 0.0000
# 2 36.4082 79.8444 26.4393 0.0000 0.0000 0.0000
# 3 63.6533 26.4393 76.3530 0.0000 0.0000 0.0000
# 4 0.0000 0.0000 0.0000 31.3350 0.0000 0.0000
# 5 0.0000 0.0000 0.0000 0.0000 33.3235 0.0000
# 6 0.0000 0.0000 0.0000 0.0000 0.0000 23.9215
#
#
#
# Elastic Compliance Matrix: (Units=1/GPa)
#
#
# Indices 1 2 3 4 5 6 
#
# 1 0.016148 -0.003282 -0.012326 0.000000 0.000000 0.000000
# 2 -0.003282 0.014813 -0.002394 0.000000 0.000000 0.000000
# 3 -0.012326 -0.002394 0.024202 0.000000 0.000000 0.000000
# 4 0.000000 0.000000 0.000000 0.031913 0.000000 0.000000
# 5 0.000000 0.000000 0.000000 0.000000 0.030009 0.000000
# 6 0.000000 0.000000 0.000000 0.000000 0.000000 0.041803
#
#
# Mechanical properties :
#
#
# Convention : Reuss Voigt Hill
#
# Bulk Modulus (GPa) = 52.19021 58.56791 55.37906
# Shear Modulus (GPa) = 24.84126 27.55659 26.19893
#
# Velocity S-wave (km/s) = 3.58072 3.77134 3.67726
# Velocity P-wave (km/s) = 6.63572 7.01378 6.82737
#
# Compressibility (1/GPa) = 0.01916068
#
# Stress axis : x y z
#
# Youngs Moduli (GPa) = 61.92649 67.50617 41.31962
#
# Poissons Ratio (x) = 0.22155 0.50930
# Poissons Ratio (y) = 0.20323 0.09890
# Poissons Ratio (z) = 0.76330 0.16158
#
# Static dielectric constant tensor:
#      x y z
#    x 1.666570 0.000000 0.000000 
#    y 0.000000 1.720930 0.000000 
#    z 0.000000 0.000000 1.708460 
# 
# From -- ./inp_files/31638.got.cif
#   From: 2010.05.17/outbox.cif.g08.bks.cpg/sg58_16_cif.got.tgz:31638.got - 2010.06.03 14:20:14.
