data_PCOD9443072
_publ_section_title
;
Structure prediction by ZEFSAII (Michael W. Deem and Ramdas Pophale) SiO2 
 PCOD9443072
Probable space group: P N N M
;
_chemical_formula_sum "Si O2"
_cell_formula_units_Z 32
_cell_length_a 5.083064
_cell_length_b 7.594591
_cell_length_c 37.029947
_cell_angle_alpha 90.000000
_cell_angle_beta 90.000000
_cell_angle_gamma 90.000000
_cell_volume 1429.496376
_symmetry_space_group_name_H-M "P N N M"
_symmetry_group_IT_number 58
_symmetry_cell_setting 'orthorhombic'
loop_
_space_group_symop_operation_xyz
x,y,z
-x,-y,z
1/2+x,1/2-y,1/2-z
1/2-x,1/2+y,1/2-z
-x,-y,-z
x,y,-z
1/2-x,1/2+y,1/2+z
1/2+x,1/2-y,1/2+z
loop_
_atom_site_type_symbol
_atom_site_label
_atom_site_fract_x
_atom_site_fract_y
_atom_site_fract_z
Si Si1 0.962046 0.209856 0.080191
Si Si2 0.358806 0.189344 0.269208
Si Si3 0.248503 0.627091 0.152097
Si Si4 0.033436 0.714475 0.540665
O O1 0.822202 0.253100 0.117948
O O2 0.756627 0.278217 0.050501
O O3 0.252170 0.277310 0.069943
O O4 0.000000 0.000000 0.078125
O O5 0.602275 0.308395 0.256144
O O6 0.250586 0.226897 0.309507
O O7 0.500000 0.000000 0.268584
O O8 0.500000 0.500000 0.148445
O O9 0.000000 0.500000 0.154091
O O10 0.114415 0.758879 0.500000
O O11 0.000000 0.500000 0.542172
#
# Coordination Sequence:
#
# PCOD9443072 Si02
#       4
#     8   8   8   8
#     4  10  20  34  57  86 111 145 197 241 278 336
#     4  11  23  41  63  89 118 154 196 240 293 352
#     4  11  23  41  60  82 118 157 186 226 295 357
#     4   9  17  31  53  82 114 146 186 241 293 332
#
# _framework density 22.385508999999999
#
# number of rings (size 3 to 8) (size 9 to 14) (size 15 to 20)
#    0.000    1.750    0.000    6.000    0.000    5.000 
#    0.000    2.500    0.000   15.000    0.000    0.000 
#    0.000    0.000    0.000    0.000    0.000    0.000 
#
# Total GULP energy -178535.767785 kJ/mol
# GULP energy per Si atom -5579.242743 kJ/mol
# Density = 2.233456 g / cm^3
# Si number density = 22.385509 Si / 1000 Ang^3
#
#
#
# Elastic Constant Matrix: (Units=GPa)
#
#
# Indices 1 2 3 4 5 6 
#
# 1 187.1612 26.2305 65.4370 0.0000 0.0000 0.0000
# 2 26.2305 26.4076 12.6656 0.0000 0.0000 0.0000
# 3 65.4370 12.6656 132.7111 0.0000 0.0000 0.0000
# 4 0.0000 0.0000 0.0000 10.2058 0.0000 0.0000
# 5 0.0000 0.0000 0.0000 0.0000 37.2210 0.0000
# 6 0.0000 0.0000 0.0000 0.0000 0.0000 27.0825
#
#
#
# Elastic Compliance Matrix: (Units=1/GPa)
#
#
# Indices 1 2 3 4 5 6 
#
# 1 0.007192 -0.005704 -0.003002 0.000000 0.000000 0.000000
# 2 -0.005704 0.044208 -0.001407 0.000000 0.000000 0.000000
# 3 -0.003002 -0.001407 0.009150 0.000000 0.000000 0.000000
# 4 0.000000 0.000000 0.000000 0.097984 0.000000 0.000000
# 5 0.000000 0.000000 0.000000 0.000000 0.026867 0.000000
# 6 0.000000 0.000000 0.000000 0.000000 0.000000 0.036924
#
#
# Mechanical properties :
#
#
# Convention : Reuss Voigt Hill
#
# Bulk Modulus (GPa) = 24.79857 61.66066 43.22961
# Shear Modulus (GPa) = 19.53196 31.03164 25.28180
#
# Velocity S-wave (km/s) = 2.95706 3.72726 3.36427
# Velocity P-wave (km/s) = 4.77084 6.79176 5.86894
#
# Compressibility (1/GPa) = 0.04032491
#
# Stress axis : x y z
#
# Youngs Moduli (GPa) = 139.04524 22.62023 109.29517
#
# Poissons Ratio (x) = 0.12902 0.32808
# Poissons Ratio (y) = 0.79311 0.15374
# Poissons Ratio (z) = 0.41739 0.03182
#
# Static dielectric constant tensor:
#      x y z
#    x 1.781770 0.000000 0.000000 
#    y 0.000000 1.898380 0.000000 
#    z 0.000000 0.000000 1.930090 
# 
# From -- ./inp_files/33948.got.cif
#   From: 2010.05.17/outbox.cif.g08.bks.cpg/sg58_17_cif.got.tgz:33948.got - 2010.06.03 14:20:14.
