data_PCOD9443398
_publ_section_title
;
Structure prediction by ZEFSAII (Michael W. Deem and Ramdas Pophale) SiO2 
 PCOD9443398
Probable space group: P N N M
;
_chemical_formula_sum "Si O2"
_cell_formula_units_Z 48
_cell_length_a 18.559648
_cell_length_b 8.770929
_cell_length_c 17.355843
_cell_angle_alpha 90.000000
_cell_angle_beta 90.000000
_cell_angle_gamma 90.000000
_cell_volume 2825.277062
_symmetry_space_group_name_H-M "P N N M"
_symmetry_group_IT_number 58
_symmetry_cell_setting 'orthorhombic'
loop_
_space_group_symop_operation_xyz
x,y,z
-x,-y,z
1/2+x,1/2-y,1/2-z
1/2-x,1/2+y,1/2-z
-x,-y,-z
x,y,-z
1/2-x,1/2+y,1/2+z
1/2+x,1/2-y,1/2+z
loop_
_atom_site_type_symbol
_atom_site_label
_atom_site_fract_x
_atom_site_fract_y
_atom_site_fract_z
Si Si1 0.072319 0.598608 0.912116
Si Si2 0.671890 0.972390 0.267620
Si Si3 0.045523 0.850260 0.190881
Si Si4 0.956048 0.647978 0.685744
Si Si5 0.082215 0.058940 0.410988
Si Si6 0.823656 0.135249 0.291695
O O1 0.134486 0.565980 0.849823
O O2 0.048731 0.769211 0.890927
O O3 0.000000 0.500000 0.898488
O O4 0.095075 0.577663 0.000000
O O5 0.682216 0.819753 0.215297
O O6 0.613664 0.081301 0.227969
O O7 0.746980 0.056288 0.281769
O O8 0.124228 0.896730 0.219607
O O9 0.009521 0.733164 0.253226
O O10 0.000000 0.000000 0.190983
O O11 0.926062 0.774026 0.626884
O O12 0.000000 0.500000 0.654583
O O13 0.105133 0.066351 0.500000
O O14 0.133403 0.943423 0.362872
O O15 0.000000 0.000000 0.407746
#
# Coordination Sequence:
#
# PCOD9443398 Si02
#       6
#     8   8   8   8   8   8
#     4  10  20  36  57  84 114 149 187 228 288 344
#     4  11  22  35  61  85 114 152 195 242 285 350
#     4  11  19  35  61  85 112 149 190 247 278 341
#     4  12  18  37  60  87 113 150 197 242 283 344
#     4  11  22  37  58  84 116 152 191 239 295 343
#     4  11  21  37  56  87 112 152 195 238 288 345
#
# _framework density 16.989484999999998
#
# number of rings (size 3 to 8) (size 9 to 14) (size 15 to 20)
#    0.000    1.000    8.333    1.000    0.000    1.333 
#    0.000    0.833    0.000    4.000    0.000    0.000 
#    0.000    0.000    0.000    0.000    0.000    0.000 
#
# Total GULP energy -267440.629606 kJ/mol
# GULP energy per Si atom -5571.679783 kJ/mol
# Density = 1.695082 g / cm^3
# Si number density = 16.989485 Si / 1000 Ang^3
#
#
#
# Elastic Constant Matrix: (Units=GPa)
#
#
# Indices 1 2 3 4 5 6 
#
# 1 102.9591 46.9724 37.7504 0.0000 0.0000 0.0000
# 2 46.9724 109.2636 59.2195 0.0000 0.0000 0.0000
# 3 37.7504 59.2195 103.3804 0.0000 0.0000 0.0000
# 4 0.0000 0.0000 0.0000 22.8785 0.0000 0.0000
# 5 0.0000 0.0000 0.0000 0.0000 15.9824 0.0000
# 6 0.0000 0.0000 0.0000 0.0000 0.0000 31.6166
#
#
#
# Elastic Compliance Matrix: (Units=1/GPa)
#
#
# Indices 1 2 3 4 5 6 
#
# 1 0.012400 -0.004172 -0.002138 0.000000 0.000000 0.000000
# 2 -0.004172 0.014677 -0.006884 0.000000 0.000000 0.000000
# 3 -0.002138 -0.006884 0.014397 0.000000 0.000000 0.000000
# 4 0.000000 0.000000 0.000000 0.043709 0.000000 0.000000
# 5 0.000000 0.000000 0.000000 0.000000 0.062569 0.000000
# 6 0.000000 0.000000 0.000000 0.000000 0.000000 0.031629
#
#
# Mechanical properties :
#
#
# Convention : Reuss Voigt Hill
#
# Bulk Modulus (GPa) = 66.28730 67.05419 66.67074
# Shear Modulus (GPa) = 23.71955 25.53956 24.62955
#
# Velocity S-wave (km/s) = 3.74054 3.88139 3.81162
# Velocity P-wave (km/s) = 7.59979 7.72274 7.66151
#
# Compressibility (1/GPa) = 0.01508585
#
# Stress axis : x y z
#
# Youngs Moduli (GPa) = 80.64608 68.13568 69.45863
#
# Poissons Ratio (x) = 0.28425 0.14851
# Poissons Ratio (y) = 0.33644 0.47814
# Poissons Ratio (z) = 0.17244 0.46903
#
# Static dielectric constant tensor:
#      x y z
#    x 1.563030 0.000000 0.000000 
#    y 0.000000 1.614120 0.000000 
#    z 0.000000 0.000000 1.568450 
# 
# From -- ./inp_files/27224.got.cif
#   From: 2010.05.17/outbox.cif.g08.bks.cpg/sg58_14_cif.got.tgz:27224.got - 2010.06.03 14:20:14.
