data_PCOD9443013
_publ_section_title
;
Structure prediction by ZEFSAII (Michael W. Deem and Ramdas Pophale) SiO2 
 PCOD9443013
Probable space group: P N N M
;
_chemical_formula_sum "Si O2"
_cell_formula_units_Z 48
_cell_length_a 19.205427
_cell_length_b 15.452966
_cell_length_c 7.412454
_cell_angle_alpha 90.000000
_cell_angle_beta 90.000000
_cell_angle_gamma 90.000000
_cell_volume 2199.874106
_symmetry_space_group_name_H-M "P N N M"
_symmetry_group_IT_number 58
_symmetry_cell_setting 'orthorhombic'
loop_
_space_group_symop_operation_xyz
x,y,z
-x,-y,z
1/2+x,1/2-y,1/2-z
1/2-x,1/2+y,1/2-z
-x,-y,-z
x,y,-z
1/2-x,1/2+y,1/2+z
1/2+x,1/2-y,1/2+z
loop_
_atom_site_type_symbol
_atom_site_label
_atom_site_fract_x
_atom_site_fract_y
_atom_site_fract_z
Si Si1 0.240700 0.688709 0.785244
Si Si2 0.021962 0.403916 0.220377
Si Si3 0.412712 0.242964 0.278924
Si Si4 0.442772 0.434878 0.710372
Si Si5 0.289096 0.500708 0.780912
Si Si6 0.823122 0.640298 0.784358
O O1 0.165477 0.720477 0.717348
O O2 0.264681 0.595174 0.717722
O O3 0.297053 0.763173 0.752735
O O4 0.232816 0.679130 0.000000
O O5 0.099564 0.380191 0.282238
O O6 0.000000 0.500000 0.277069
O O7 0.966121 0.331855 0.275215
O O8 0.022229 0.403898 0.000000
O O9 0.411257 0.245105 0.500000
O O10 0.436477 0.337686 0.215137
O O11 0.500000 0.500000 0.789675
O O12 0.461641 0.423380 0.500000
O O13 0.366645 0.477104 0.721989
O O14 0.234734 0.427625 0.718089
O O15 0.289408 0.500273 0.000000
O O16 0.825505 0.629783 0.000000
#
# Coordination Sequence:
#
# PCOD9443013 Si02
#       6
#     8   8   8   8   8   8
#     4  10  20  35  55  77 106 144 177 212 267 324
#     4   9  17  30  52  80 106 133 170 220 268 308
#     4   9  17  32  52  75 104 138 173 213 262 313
#     4  10  21  35  54  79 106 140 183 224 262 312
#     4  10  21  36  54  79 110 142 177 217 269 328
#     4  10  20  34  55  83 108 133 176 225 262 311
#
# _framework density 21.819430000000001
#
# number of rings (size 3 to 8) (size 9 to 14) (size 15 to 20)
#    0.000    2.333    1.667    1.000    2.333    5.000 
#    0.000    0.000    0.000    1.500    0.000    0.000 
#    0.000    0.000    0.000    0.000    0.000    0.000 
#
# Total GULP energy -268282.014040 kJ/mol
# GULP energy per Si atom -5589.208626 kJ/mol
# Density = 2.176977 g / cm^3
# Si number density = 21.819430 Si / 1000 Ang^3
#
#
#
# Elastic Constant Matrix: (Units=GPa)
#
#
# Indices 1 2 3 4 5 6 
#
# 1 120.3424 66.0826 -7.9177 0.0000 0.0000 0.0000
# 2 66.0826 188.8689 -2.7318 0.0000 0.0000 0.0000
# 3 -7.9177 -2.7318 68.3237 0.0000 0.0000 0.0000
# 4 0.0000 0.0000 0.0000 9.9691 0.0000 0.0000
# 5 0.0000 0.0000 0.0000 0.0000 -6.6300 0.0000
# 6 0.0000 0.0000 0.0000 0.0000 0.0000 45.2683
#
#
#
# Elastic Compliance Matrix: (Units=1/GPa)
#
#
# Indices 1 2 3 4 5 6 
#
# 1 0.010361 -0.003610 0.001056 0.000000 0.000000 0.000000
# 2 -0.003610 0.006556 -0.000156 0.000000 0.000000 0.000000
# 3 0.001056 -0.000156 0.014752 0.000000 0.000000 0.000000
# 4 0.000000 0.000000 0.000000 0.100310 0.000000 0.000000
# 5 0.000000 0.000000 0.000000 0.000000 -0.150829 0.000000
# 6 0.000000 0.000000 0.000000 0.000000 0.000000 0.022091
#
#
# Mechanical properties :
#
#
# Convention : Reuss Voigt Hill
#
# Bulk Modulus (GPa) = 38.09582 54.26680 46.18131
# Shear Modulus (GPa) = 287.18669 31.19495 159.19082
#
# Velocity S-wave (km/s) = 11.48501 3.78522 8.55083
# Velocity P-wave (km/s) = 13.90580 6.63541 10.89496
#
# Compressibility (1/GPa) = 0.02624960
#
# Stress axis : x y z
#
# Youngs Moduli (GPa) = 96.51127 152.54310 67.78564
#
# Poissons Ratio (x) = 0.55069 -0.07161
# Poissons Ratio (y) = 0.34841 0.01059
# Poissons Ratio (z) = -0.10195 0.02383
#
# Static dielectric constant tensor:
#      x y z
#    x 1.739780 0.000000 0.000000 
#    y 0.000000 1.751350 0.000000 
#    z 0.000000 0.000000 1.850130 
# 
# From -- ./inp_files/5861.got.cif
#   From: 2010.05.17/outbox.cif.g08.bks.cpg/sg58_3_cif.got.tgz:5861.got - 2010.06.03 14:20:14.
