data_PCOD9443721
_publ_section_title
;
Structure prediction by ZEFSAII (Michael W. Deem and Ramdas Pophale) SiO2 
 PCOD9443721
Probable space group: P N N M
;
_chemical_formula_sum "Si O2"
_cell_formula_units_Z 64
_cell_length_a 17.897792
_cell_length_b 15.521777
_cell_length_c 11.678781
_cell_angle_alpha 90.000000
_cell_angle_beta 90.000000
_cell_angle_gamma 90.000000
_cell_volume 3244.430018
_symmetry_space_group_name_H-M "P N N M"
_symmetry_group_IT_number 58
_symmetry_cell_setting 'orthorhombic'
loop_
_space_group_symop_operation_xyz
x,y,z
-x,-y,z
1/2+x,1/2-y,1/2-z
1/2-x,1/2+y,1/2-z
-x,-y,-z
x,y,-z
1/2-x,1/2+y,1/2+z
1/2+x,1/2-y,1/2+z
loop_
_atom_site_type_symbol
_atom_site_label
_atom_site_fract_x
_atom_site_fract_y
_atom_site_fract_z
Si Si1 0.595162 0.137872 0.627702
Si Si2 0.233843 0.284203 0.245193
Si Si3 0.731361 0.544062 0.632033
Si Si4 0.812585 0.879636 0.376545
Si Si5 0.171333 0.536516 0.180759
Si Si6 0.114243 0.808759 0.631263
Si Si7 0.584949 0.506720 0.773481
Si Si8 0.427686 0.203400 0.636759
O O1 0.614296 0.166065 0.500000
O O2 0.652151 0.185683 0.709296
O O3 0.509885 0.162416 0.646749
O O4 0.615565 0.037415 0.638681
O O5 0.260316 0.354603 0.338423
O O6 0.222164 0.188435 0.289707
O O7 0.296616 0.293082 0.147435
O O8 0.735855 0.528212 0.500000
O O9 0.798487 0.492581 0.694918
O O10 0.650045 0.516269 0.678859
O O11 0.818230 0.837568 0.500000
O O12 0.751835 0.956825 0.380890
O O13 0.890592 0.920430 0.339827
O O14 0.130570 0.626261 0.158569
O O15 0.092879 0.781415 0.500000
O O16 0.094620 0.909478 0.646426
O O17 0.082576 0.765659 0.751232
O O18 0.500000 0.500000 0.731961
O O19 0.419039 0.232898 0.500000
#
# Coordination Sequence:
#
# PCOD9443721 Si02
#       8
#     8   8   8   8   8   8   8   8
#     4  10  21  38  62  90 122 155 201 258 309 363
#     4  10  21  38  62  91 123 161 210 259 308 373
#     4   9  20  39  63  92 128 169 209 258 317 378
#     4  11  21  36  62  90 117 160 212 258 303 372
#     4  10  20  37  62  92 120 156 204 254 305 372
#     4  11  24  42  65  91 127 169 211 265 321 374
#     4  10  24  42  61  89 125 166 218 267 317 377
#     4  11  23  40  64  95 128 163 206 257 314 380
#
# _framework density 19.726115
#
# number of rings (size 3 to 8) (size 9 to 14) (size 15 to 20)
#    0.000    1.750    1.250    3.375    1.750    4.750 
#    0.000    3.125    0.000    3.750    0.000    0.000 
#    0.000    0.000    0.000    0.000    0.000    0.000 
#
# Total GULP energy -356402.080736 kJ/mol
# GULP energy per Si atom -5568.782512 kJ/mol
# Density = 1.968122 g / cm^3
# Si number density = 19.726115 Si / 1000 Ang^3
#
#
#
# Elastic Constant Matrix: (Units=GPa)
#
#
# Indices 1 2 3 4 5 6 
#
# 1 98.6592 11.7399 26.5618 0.0000 0.0000 0.0000
# 2 11.7399 59.4344 23.5804 0.0000 0.0000 0.0000
# 3 26.5618 23.5804 122.7348 0.0000 0.0000 0.0000
# 4 0.0000 0.0000 0.0000 1.4714 0.0000 0.0000
# 5 0.0000 0.0000 0.0000 0.0000 12.3618 0.0000
# 6 0.0000 0.0000 0.0000 0.0000 0.0000 16.4467
#
#
#
# Elastic Compliance Matrix: (Units=1/GPa)
#
#
# Indices 1 2 3 4 5 6 
#
# 1 0.010857 -0.001312 -0.002097 0.000000 0.000000 0.000000
# 2 -0.001312 0.018372 -0.003246 0.000000 0.000000 0.000000
# 3 -0.002097 -0.003246 0.009225 0.000000 0.000000 0.000000
# 4 0.000000 0.000000 0.000000 0.679636 0.000000 0.000000
# 5 0.000000 0.000000 0.000000 0.000000 0.080895 0.000000
# 6 0.000000 0.000000 0.000000 0.000000 0.000000 0.060802
#
#
# Mechanical properties :
#
#
# Convention : Reuss Voigt Hill
#
# Bulk Modulus (GPa) = 39.77240 44.95474 42.36357
# Shear Modulus (GPa) = 5.67229 20.65240 13.16234
#
# Velocity S-wave (km/s) = 1.69758 3.23918 2.58593
# Velocity P-wave (km/s) = 4.90392 6.06866 5.51711
#
# Compressibility (1/GPa) = 0.02514306
#
# Stress axis : x y z
#
# Youngs Moduli (GPa) = 92.10860 54.42998 108.39926
#
# Poissons Ratio (x) = 0.07143 0.22736
# Poissons Ratio (y) = 0.12088 0.35184
# Poissons Ratio (z) = 0.19319 0.17667
#
# Static dielectric constant tensor:
#      x y z
#    x 1.691330 0.000000 0.000000 
#    y 0.000000 1.752640 0.000000 
#    z 0.000000 0.000000 1.748180 
# 
# From -- ./inp_files/16558.got.cif
#   From: 2010.05.17/outbox.cif.g08.bks.cpg/sg58_9_cif.got.tgz:16558.got - 2010.06.03 14:20:14.
