data_PCOD9443305
_publ_section_title
;
Structure prediction by ZEFSAII (Michael W. Deem and Ramdas Pophale) SiO2 
 PCOD9443305
Probable space group: P N N M
;
_chemical_formula_sum "Si O2"
_cell_formula_units_Z 64
_cell_length_a 17.137669
_cell_length_b 17.900407
_cell_length_c 9.640338
_cell_angle_alpha 90.000000
_cell_angle_beta 90.000000
_cell_angle_gamma 90.000000
_cell_volume 2957.378540
_symmetry_space_group_name_H-M "P N N M"
_symmetry_group_IT_number 58
_symmetry_cell_setting 'orthorhombic'
loop_
_space_group_symop_operation_xyz
x,y,z
-x,-y,z
1/2+x,1/2-y,1/2-z
1/2-x,1/2+y,1/2-z
-x,-y,-z
x,y,-z
1/2-x,1/2+y,1/2+z
1/2+x,1/2-y,1/2+z
loop_
_atom_site_type_symbol
_atom_site_label
_atom_site_fract_x
_atom_site_fract_y
_atom_site_fract_z
Si Si1 0.654933 0.167997 0.160634
Si Si2 0.842416 0.152282 0.841825
Si Si3 0.809929 0.019814 0.654021
Si Si4 0.540090 0.424012 0.844498
Si Si5 0.230441 0.590732 0.657464
Si Si6 0.110681 0.189374 0.157460
Si Si7 0.892411 0.318861 0.838789
Si Si8 0.458088 0.921165 0.662015
O O1 0.748789 0.165559 0.163725
O O2 0.628927 0.240601 0.246301
O O3 0.612680 0.099750 0.238024
O O4 0.630825 0.172295 0.000000
O O5 0.853570 0.088828 0.726982
O O6 0.884905 0.230517 0.813277
O O7 0.861431 0.127734 0.000000
O O8 0.781167 0.039888 0.500000
O O9 0.871147 0.952380 0.638439
O O10 0.747474 0.984940 0.758390
O O11 0.500000 0.500000 0.796244
O O12 0.544027 0.359707 0.731577
O O13 0.510947 0.404031 0.000000
O O14 0.206857 0.574167 0.500000
O O15 0.310074 0.639812 0.650548
O O16 0.166637 0.638291 0.738828
O O17 0.089536 0.210522 0.000000
O O18 0.977062 0.355821 0.822794
O O19 0.868418 0.330668 0.000000
O O20 0.433710 0.923715 0.500000
O O21 0.500000 0.000000 0.693413
#
# Coordination Sequence:
#
# PCOD9443305 Si02
#       8
#     8   8   8   8   8   8   8   8
#     4  11  23  40  62  87 120 160 201 253 307 365
#     4  10  22  39  60  88 120 157 204 254 307 363
#     4  10  21  35  56  84 116 154 196 246 306 363
#     4   9  19  36  56  82 118 157 196 238 292 362
#     4  10  20  35  58  88 119 152 195 250 301 360
#     4  10  20  35  58  87 117 152 196 244 298 354
#     4  10  21  40  63  87 121 162 203 254 312 366
#     4  10  24  44  64  91 126 165 210 256 308 374
#
# _framework density 21.640788000000001
#
# number of rings (size 3 to 8) (size 9 to 14) (size 15 to 20)
#    0.000    2.000    1.250    1.500    1.750    5.000 
#    0.000    2.500    0.000    0.000    0.000    0.000 
#    0.000    0.000    0.000    0.000    0.000    0.000 
#
# Total GULP energy -357594.652540 kJ/mol
# GULP energy per Si atom -5587.416446 kJ/mol
# Density = 2.159153 g / cm^3
# Si number density = 21.640788 Si / 1000 Ang^3
#
#
#
# Elastic Constant Matrix: (Units=GPa)
#
#
# Indices 1 2 3 4 5 6 
#
# 1 52.4665 29.9298 38.2897 0.0000 0.0000 0.0000
# 2 29.9298 87.7309 72.1670 0.0000 0.0000 0.0000
# 3 38.2897 72.1670 131.3295 0.0000 0.0000 0.0000
# 4 0.0000 0.0000 0.0000 29.2758 0.0000 0.0000
# 5 0.0000 0.0000 0.0000 0.0000 14.7491 0.0000
# 6 0.0000 0.0000 0.0000 0.0000 0.0000 42.8839
#
#
#
# Elastic Compliance Matrix: (Units=1/GPa)
#
#
# Indices 1 2 3 4 5 6 
#
# 1 0.025215 -0.004662 -0.004789 0.000000 0.000000 0.000000
# 2 -0.004662 0.021663 -0.010545 0.000000 0.000000 0.000000
# 3 -0.004789 -0.010545 0.014805 0.000000 0.000000 0.000000
# 4 0.000000 0.000000 0.000000 0.034158 0.000000 0.000000
# 5 0.000000 0.000000 0.000000 0.000000 0.067801 0.000000
# 6 0.000000 0.000000 0.000000 0.000000 0.000000 0.023319
#
#
# Mechanical properties :
#
#
# Convention : Reuss Voigt Hill
#
# Bulk Modulus (GPa) = 46.10421 61.36666 53.73544
# Shear Modulus (GPa) = 21.35075 26.12446 23.73760
#
# Velocity S-wave (km/s) = 3.14442 3.47823 3.31553
# Velocity P-wave (km/s) = 5.87654 6.67452 6.28820
#
# Compressibility (1/GPa) = 0.02168999
#
# Stress axis : x y z
#
# Youngs Moduli (GPa) = 39.65934 46.16132 67.54335
#
# Poissons Ratio (x) = 0.21522 0.32350
# Poissons Ratio (y) = 0.18490 0.71223
# Poissons Ratio (z) = 0.18995 0.48676
#
# Static dielectric constant tensor:
#      x y z
#    x 1.834130 0.000000 0.000000 
#    y 0.000000 1.774230 0.000000 
#    z 0.000000 0.000000 1.773040 
# 
# From -- ./inp_files/9311.got.cif
#   From: 2010.05.17/outbox.cif.g08.bks.cpg/sg58_5_cif.got.tgz:9311.got - 2010.06.03 14:20:14.
