data_PCOD9443373
_publ_section_title
;
Structure prediction by ZEFSAII (Michael W. Deem and Ramdas Pophale) SiO2 
 PCOD9443373
Probable space group: P N N M
;
_chemical_formula_sum "Si O2"
_cell_formula_units_Z 48
_cell_length_a 24.792618
_cell_length_b 9.583473
_cell_length_c 8.161011
_cell_angle_alpha 90.000000
_cell_angle_beta 90.000000
_cell_angle_gamma 90.000000
_cell_volume 1939.051196
_symmetry_space_group_name_H-M "P N N M"
_symmetry_group_IT_number 58
_symmetry_cell_setting 'orthorhombic'
loop_
_space_group_symop_operation_xyz
x,y,z
-x,-y,z
1/2+x,1/2-y,1/2-z
1/2-x,1/2+y,1/2-z
-x,-y,-z
x,y,-z
1/2-x,1/2+y,1/2+z
1/2+x,1/2-y,1/2+z
loop_
_atom_site_type_symbol
_atom_site_label
_atom_site_fract_x
_atom_site_fract_y
_atom_site_fract_z
Si Si1 0.581939 0.968895 0.684291
Si Si2 0.918132 0.955414 0.197313
Si Si3 0.642062 0.716682 0.193271
Si Si4 0.313762 0.714363 0.305355
Si Si5 0.247714 0.959343 0.698583
Si Si6 0.984607 0.707718 0.688269
O O1 0.587310 0.021721 0.500000
O O2 0.630665 0.865111 0.725094
O O3 0.530306 0.866029 0.703533
O O4 0.566373 0.101599 0.793633
O O5 0.866508 0.863644 0.257821
O O6 0.967843 0.860892 0.253664
O O7 0.906511 0.107992 0.268254
O O8 0.918310 0.965277 0.000000
O O9 0.695524 0.634401 0.247393
O O10 0.645216 0.738097 0.000000
O O11 0.320441 0.725258 0.500000
O O12 0.298449 0.867715 0.244484
O O13 0.264009 0.609843 0.271722
O O14 0.248358 0.970386 0.500000
O O15 0.002418 0.707846 0.500000
#
# Coordination Sequence:
#
# PCOD9443373 Si02
#       6
#     8   8   8   8   8   8
#     4  11  22  38  58  81 109 141 178 220 268 319
#     4  10  20  36  56  80 110 143 181 223 268 317
#     4  10  20  36  56  80 110 143 181 223 268 317
#     4   9  19  35  54  78 108 141 178 220 264 313
#     4   9  19  35  54  78 108 141 178 220 264 313
#     4  11  22  38  58  81 109 141 178 220 268 319
#
# _framework density 24.754375
#
# number of rings (size 3 to 8) (size 9 to 14) (size 15 to 20)
#    0.000    2.000    0.000    5.000    0.000    4.000 
#    0.000    6.667    0.000    0.000    0.000    0.000 
#    0.000    0.000    0.000    0.000    0.000    0.000 
#
# Total GULP energy -268612.357962 kJ/mol
# GULP energy per Si atom -5596.090791 kJ/mol
# Density = 2.469803 g / cm^3
# Si number density = 24.754375 Si / 1000 Ang^3
#
#
#
# Elastic Constant Matrix: (Units=GPa)
#
#
# Indices 1 2 3 4 5 6 
#
# 1 45.7266 23.1355 -5.6497 0.0000 0.0000 0.0000
# 2 23.1355 137.2642 -4.0384 0.0000 0.0000 0.0000
# 3 -5.6497 -4.0384 45.3264 0.0000 0.0000 0.0000
# 4 0.0000 0.0000 0.0000 22.5665 0.0000 0.0000
# 5 0.0000 0.0000 0.0000 0.0000 16.6334 0.0000
# 6 0.0000 0.0000 0.0000 0.0000 0.0000 56.3269
#
#
#
# Elastic Compliance Matrix: (Units=1/GPa)
#
#
# Indices 1 2 3 4 5 6 
#
# 1 0.024224 -0.004005 0.002663 0.000000 0.000000 0.000000
# 2 -0.004005 0.007966 0.000211 0.000000 0.000000 0.000000
# 3 0.002663 0.000211 0.022413 0.000000 0.000000 0.000000
# 4 0.000000 0.000000 0.000000 0.044313 0.000000 0.000000
# 5 0.000000 0.000000 0.000000 0.000000 0.060120 0.000000
# 6 0.000000 0.000000 0.000000 0.000000 0.000000 0.017754
#
#
# Mechanical properties :
#
#
# Convention : Reuss Voigt Hill
#
# Bulk Modulus (GPa) = 19.10557 28.35689 23.73123
# Shear Modulus (GPa) = 25.44529 33.43001 29.43765
#
# Velocity S-wave (km/s) = 3.20958 3.67886 3.45220
# Velocity P-wave (km/s) = 4.63358 5.43374 5.04953
#
# Compressibility (1/GPa) = 0.05234075
#
# Stress axis : x y z
#
# Youngs Moduli (GPa) = 41.28098 125.52751 44.61726
#
# Poissons Ratio (x) = 0.50269 -0.11880
# Poissons Ratio (y) = 0.16531 -0.00940
# Poissons Ratio (z) = -0.10992 -0.02644
#
# Static dielectric constant tensor:
#      x y z
#    x 2.098760 0.000000 0.000000 
#    y 0.000000 1.937160 0.000000 
#    z 0.000000 0.000000 1.836450 
# 
# From -- ./inp_files/10754.got.cif
#   From: 2010.05.17/outbox.cif.g08.bks.cpg/sg58_6_cif.got.tgz:10754.got - 2010.06.03 14:20:14.
