data_PCOD9443630
_publ_section_title
;
Structure prediction by ZEFSAII (Michael W. Deem and Ramdas Pophale) SiO2 
 PCOD9443630
Probable space group: P N N M
;
_chemical_formula_sum "Si O2"
_cell_formula_units_Z 64
_cell_length_a 23.208381
_cell_length_b 16.191512
_cell_length_c 7.731036
_cell_angle_alpha 90.000000
_cell_angle_beta 90.000000
_cell_angle_gamma 90.000000
_cell_volume 2905.159272
_symmetry_space_group_name_H-M "P N N M"
_symmetry_group_IT_number 58
_symmetry_cell_setting 'orthorhombic'
loop_
_space_group_symop_operation_xyz
x,y,z
-x,-y,z
1/2+x,1/2-y,1/2-z
1/2-x,1/2+y,1/2-z
-x,-y,-z
x,y,-z
1/2-x,1/2+y,1/2+z
1/2+x,1/2-y,1/2+z
loop_
_atom_site_type_symbol
_atom_site_label
_atom_site_fract_x
_atom_site_fract_y
_atom_site_fract_z
Si Si1 0.541153 0.571717 0.800533
Si Si2 0.326966 0.708374 0.703391
Si Si3 0.876471 0.619864 0.697833
Si Si4 0.740911 0.063364 0.789555
Si Si5 0.425001 0.245021 0.706966
Si Si6 0.150619 0.031136 0.210040
Si Si7 0.793728 0.240122 0.209234
Si Si8 0.001522 0.591637 0.198629
O O1 0.500000 0.500000 0.720049
O O2 0.544805 0.665780 0.734846
O O3 0.604570 0.532519 0.782252
O O4 0.524101 0.579172 0.000000
O O5 0.337953 0.720312 0.500000
O O6 0.349129 0.788897 0.799965
O O7 0.358957 0.625522 0.761231
O O8 0.257937 0.701314 0.728051
O O9 0.889040 0.596116 0.500000
O O10 0.824926 0.562962 0.771073
O O11 0.935440 0.619911 0.799274
O O12 0.771817 0.148944 0.738307
O O13 0.784931 0.993262 0.735911
O O14 0.737710 0.063622 0.000000
O O15 0.421956 0.236467 0.500000
O O16 0.358815 0.245897 0.771807
O O17 0.460245 0.165848 0.775603
O O18 0.147808 0.025857 0.000000
O O19 0.794398 0.242543 0.000000
O O20 0.000000 0.500000 0.279400
O O21 0.021675 0.580793 0.000000
#
# Coordination Sequence:
#
# PCOD9443630 Si02
#       8
#     8   8   8   8   8   8   8   8
#     4  11  25  40  56  87 125 156 196 252 303 352
#     4  10  21  34  55  88 120 151 190 239 291 352
#     4  10  21  38  60  82 115 158 197 239 296 355
#     4   8  15  32  56  79 105 143 188 232 276 337
#     4  10  21  40  65  86 116 163 205 243 296 363
#     4  10  20  37  59  84 116 154 198 237 284 358
#     4   9  17  34  57  80 109 148 192 235 289 350
#     4  10  23  42  62  88 119 152 200 255 300 349
#
# _framework density 22.029774
#
# number of rings (size 3 to 8) (size 9 to 14) (size 15 to 20)
#    0.000    2.250    1.250    1.875    1.750    4.250 
#    0.000    0.625    0.000    0.000    0.000    0.000 
#    0.000    0.000    0.000    0.000    0.000    0.000 
#
# Total GULP energy -357038.830790 kJ/mol
# GULP energy per Si atom -5578.731731 kJ/mol
# Density = 2.197963 g / cm^3
# Si number density = 22.029774 Si / 1000 Ang^3
#
#
#
# Elastic Constant Matrix: (Units=GPa)
#
#
# Indices 1 2 3 4 5 6 
#
# 1 85.9380 36.3579 -3.7986 0.0000 0.0000 0.0000
# 2 36.3579 109.3498 0.8991 0.0000 0.0000 0.0000
# 3 -3.7986 0.8991 38.3275 0.0000 0.0000 0.0000
# 4 0.0000 0.0000 0.0000 5.6967 0.0000 0.0000
# 5 0.0000 0.0000 0.0000 0.0000 10.6337 0.0000
# 6 0.0000 0.0000 0.0000 0.0000 0.0000 29.9911
#
#
#
# Elastic Compliance Matrix: (Units=1/GPa)
#
#
# Indices 1 2 3 4 5 6 
#
# 1 0.013622 -0.004541 0.001457 0.000000 0.000000 0.000000
# 2 -0.004541 0.010661 -0.000700 0.000000 0.000000 0.000000
# 3 0.001457 -0.000700 0.026252 0.000000 0.000000 0.000000
# 4 0.000000 0.000000 0.000000 0.175541 0.000000 0.000000
# 5 0.000000 0.000000 0.000000 0.000000 0.094041 0.000000
# 6 0.000000 0.000000 0.000000 0.000000 0.000000 0.033343
#
#
# Mechanical properties :
#
#
# Convention : Reuss Voigt Hill
#
# Bulk Modulus (GPa) = 23.27485 33.39244 28.33365
# Shear Modulus (GPa) = 13.32091 22.60809 17.96450
#
# Velocity S-wave (km/s) = 2.46169 3.20699 2.85873
# Velocity P-wave (km/s) = 4.32065 5.37623 4.87708
#
# Compressibility (1/GPa) = 0.04296483
#
# Stress axis : x y z
#
# Youngs Moduli (GPa) = 73.41119 93.80322 38.09275
#
# Poissons Ratio (x) = 0.42597 -0.05549
# Poissons Ratio (y) = 0.33337 0.02667
# Poissons Ratio (z) = -0.10693 0.06568
#
# Static dielectric constant tensor:
#      x y z
#    x 1.824190 0.000000 0.000000 
#    y 0.000000 1.812290 0.000000 
#    z 0.000000 0.000000 1.819410 
# 
# From -- ./inp_files/9938.got.cif
#   From: 2010.05.17/outbox.cif.g08.bks.cpg/sg58_5_cif.got.tgz:9938.got - 2010.06.03 14:20:14.
