data_PCOD9443466
_publ_section_title
;
Structure prediction by ZEFSAII (Michael W. Deem and Ramdas Pophale) SiO2 
 PCOD9443466
Probable space group: P N N M
;
_chemical_formula_sum "Si O2"
_cell_formula_units_Z 56
_cell_length_a 15.742170
_cell_length_b 19.281451
_cell_length_c 7.858689
_cell_angle_alpha 90.000000
_cell_angle_beta 90.000000
_cell_angle_gamma 90.000000
_cell_volume 2385.362642
_symmetry_space_group_name_H-M "P N N M"
_symmetry_group_IT_number 58
_symmetry_cell_setting 'orthorhombic'
loop_
_space_group_symop_operation_xyz
x,y,z
-x,-y,z
1/2+x,1/2-y,1/2-z
1/2-x,1/2+y,1/2-z
-x,-y,-z
x,y,-z
1/2-x,1/2+y,1/2+z
1/2+x,1/2-y,1/2+z
loop_
_atom_site_type_symbol
_atom_site_label
_atom_site_fract_x
_atom_site_fract_y
_atom_site_fract_z
Si Si1 0.777631 0.255640 0.697499
Si Si2 0.501010 0.605199 0.800394
Si Si3 0.597351 0.999999 0.708409
Si Si4 0.135671 0.348711 0.203995
Si Si5 0.635107 0.504112 0.693818
Si Si6 0.028605 0.738095 0.294639
Si Si7 0.769802 0.399936 0.195508
O O1 0.789482 0.236649 0.500000
O O2 0.711441 0.200250 0.772720
O O3 0.737402 0.332425 0.708798
O O4 0.873474 0.265094 0.768660
O O5 0.594693 0.572717 0.775030
O O6 0.438126 0.554921 0.700683
O O7 0.497497 0.684541 0.747630
O O8 0.478754 0.599733 0.000000
O O9 0.601876 0.998136 0.500000
O O10 0.638181 0.072283 0.767094
O O11 0.500000 0.000000 0.757997
O O12 0.642893 0.930200 0.768695
O O13 0.042354 0.316097 0.235308
O O14 0.145142 0.351261 0.000000
O O15 0.659353 0.517440 0.500000
O O16 0.710024 0.466942 0.793332
O O17 0.030552 0.733786 0.500000
O O18 0.777945 0.379060 0.000000
#
# Coordination Sequence:
#
# PCOD9443466 Si02
#       7
#     8   8   8   8   8   8   8
#     4  10  22  39  59  86 120 159 199 244 307 369
#     4  10  20  36  59  85 114 151 196 238 286 352
#     4   9  19  36  60  88 114 148 200 253 299 351
#     4  10  21  38  62  87 117 158 202 247 300 364
#     4  11  22  36  55  83 119 153 190 236 297 356
#     4  10  22  38  59  85 119 155 194 245 302 359
#     4  11  22  37  61  86 114 152 200 251 295 352
#
# _framework density 23.476514000000002
#
# number of rings (size 3 to 8) (size 9 to 14) (size 15 to 20)
#    0.000    1.857    0.000    4.714    2.000    5.714 
#    0.000    1.429    0.000    3.857    0.000    0.000 
#    0.000    0.000    0.000    0.000    0.000    0.000 
#
# Total GULP energy -312929.889724 kJ/mol
# GULP energy per Si atom -5588.033745 kJ/mol
# Density = 2.342308 g / cm^3
# Si number density = 23.476514 Si / 1000 Ang^3
#
#
#
# Elastic Constant Matrix: (Units=GPa)
#
#
# Indices 1 2 3 4 5 6 
#
# 1 81.9284 16.8138 0.1556 0.0000 0.0000 0.0000
# 2 16.8138 104.0262 3.0495 0.0000 0.0000 0.0000
# 3 0.1556 3.0495 43.6234 0.0000 0.0000 0.0000
# 4 0.0000 0.0000 0.0000 22.4591 0.0000 0.0000
# 5 0.0000 0.0000 0.0000 0.0000 20.7317 0.0000
# 6 0.0000 0.0000 0.0000 0.0000 0.0000 38.2717
#
#
#
# Elastic Compliance Matrix: (Units=1/GPa)
#
#
# Indices 1 2 3 4 5 6 
#
# 1 0.012625 -0.002043 0.000098 0.000000 0.000000 0.000000
# 2 -0.002043 0.009963 -0.000689 0.000000 0.000000 0.000000
# 3 0.000098 -0.000689 0.022971 0.000000 0.000000 0.000000
# 4 0.000000 0.000000 0.000000 0.044525 0.000000 0.000000
# 5 0.000000 0.000000 0.000000 0.000000 0.048235 0.000000
# 6 0.000000 0.000000 0.000000 0.000000 0.000000 0.026129
#
#
# Mechanical properties :
#
#
# Convention : Reuss Voigt Hill
#
# Bulk Modulus (GPa) = 24.82003 29.95732 27.38867
# Shear Modulus (GPa) = 27.30015 30.26310 28.78162
#
# Velocity S-wave (km/s) = 3.41379 3.59427 3.50519
# Velocity P-wave (km/s) = 5.11213 5.47844 5.29845
#
# Compressibility (1/GPa) = 0.04029004
#
# Stress axis : x y z
#
# Youngs Moduli (GPa) = 79.20814 100.36688 43.53253
#
# Poissons Ratio (x) = 0.20509 -0.00426
# Poissons Ratio (y) = 0.16186 0.03000
# Poissons Ratio (z) = -0.00775 0.06917
#
# Static dielectric constant tensor:
#      x y z
#    x 1.976220 0.000000 0.000000 
#    y 0.000000 1.857740 0.000000 
#    z 0.000000 0.000000 1.846250 
# 
# From -- ./inp_files/6402.got.cif
#   From: 2010.05.17/outbox.cif.g08.bks.cpg/sg58_4_cif.got.tgz:6402.got - 2010.06.03 14:20:14.
