data_PCOD9443189
_publ_section_title
;
Structure prediction by ZEFSAII (Michael W. Deem and Ramdas Pophale) SiO2 
 PCOD9443189
Probable space group: P N N M
;
_chemical_formula_sum "Si O2"
_cell_formula_units_Z 56
_cell_length_a 19.521990
_cell_length_b 19.521163
_cell_length_c 8.872443
_cell_angle_alpha 90.000000
_cell_angle_beta 90.000000
_cell_angle_gamma 90.000000
_cell_volume 3381.216594
_symmetry_space_group_name_H-M "P N N M"
_symmetry_group_IT_number 58
_symmetry_cell_setting 'orthorhombic'
loop_
_space_group_symop_operation_xyz
x,y,z
-x,-y,z
1/2+x,1/2-y,1/2-z
1/2-x,1/2+y,1/2-z
-x,-y,-z
x,y,-z
1/2-x,1/2+y,1/2+z
1/2+x,1/2-y,1/2+z
loop_
_atom_site_type_symbol
_atom_site_label
_atom_site_fract_x
_atom_site_fract_y
_atom_site_fract_z
Si Si1 0.980778 0.289631 0.680409
Si Si2 0.760993 0.844166 0.179548
Si Si3 0.060209 0.553450 0.319037
Si Si4 0.264779 0.875212 0.179656
Si Si5 0.708293 0.978759 0.320377
Si Si6 0.371430 0.768876 0.679850
Si Si7 0.345886 0.262245 0.320317
O O1 0.982659 0.283548 0.500000
O O2 0.962928 0.369115 0.716868
O O3 0.920460 0.243506 0.748809
O O4 0.053570 0.270611 0.750414
O O5 0.754904 0.917541 0.256252
O O6 0.830486 0.801860 0.208638
O O7 0.700200 0.797260 0.246026
O O8 0.751690 0.850626 0.000000
O O9 0.071114 0.549319 0.500000
O O10 0.131046 0.535136 0.238318
O O11 0.000000 0.500000 0.279746
O O12 0.650977 0.748419 0.500000
O O13 0.325866 0.828686 0.245892
O O14 0.195055 0.832682 0.208080
O O15 0.267146 0.948703 0.256372
O O16 0.708896 0.978645 0.500000
O O17 0.374030 0.779164 0.500000
O O18 0.226224 0.381897 0.500000
#
# Coordination Sequence:
#
# PCOD9443189 Si02
#       7
#     8   8   8   8   8   8   8
#     4  11  21  33  54  80 111 149 181 221 272 324
#     4  10  20  36  56  78 107 144 183 225 274 324
#     4  10  21  35  51  75 111 150 182 214 264 330
#     4  10  21  37  56  78 109 145 181 225 276 327
#     4  12  23  34  54  81 109 143 182 228 271 321
#     4  10  21  36  56  81 110 142 183 230 269 320
#     4  10  20  35  56  80 106 140 184 229 269 321
#
# _framework density 16.562086000000001
#
# number of rings (size 3 to 8) (size 9 to 14) (size 15 to 20)
#    0.000    1.571    1.429    4.286    0.000    5.429 
#    0.000    0.000    0.000    0.857    0.000    6.000 
#    0.000    0.000    0.000    0.000    0.000    0.000 
#
# Total GULP energy -312888.744740 kJ/mol
# GULP energy per Si atom -5587.299013 kJ/mol
# Density = 1.652439 g / cm^3
# Si number density = 16.562086 Si / 1000 Ang^3
#
#
#
# Elastic Constant Matrix: (Units=GPa)
#
#
# Indices 1 2 3 4 5 6 
#
# 1 107.3357 92.1787 71.3455 0.0000 0.0000 0.0000
# 2 92.1787 132.8085 83.0781 0.0000 0.0000 0.0000
# 3 71.3455 83.0781 100.6072 0.0000 0.0000 0.0000
# 4 0.0000 0.0000 0.0000 28.4047 0.0000 0.0000
# 5 0.0000 0.0000 0.0000 0.0000 29.2589 0.0000
# 6 0.0000 0.0000 0.0000 0.0000 0.0000 17.7190
#
#
#
# Elastic Compliance Matrix: (Units=1/GPa)
#
#
# Indices 1 2 3 4 5 6 
#
# 1 0.025312 -0.013114 -0.007121 0.000000 0.000000 0.000000
# 2 -0.013114 0.022369 -0.009172 0.000000 0.000000 0.000000
# 3 -0.007121 -0.009172 0.022563 0.000000 0.000000 0.000000
# 4 0.000000 0.000000 0.000000 0.035205 0.000000 0.000000
# 5 0.000000 0.000000 0.000000 0.000000 0.034178 0.000000
# 6 0.000000 0.000000 0.000000 0.000000 0.000000 0.056437
#
#
# Mechanical properties :
#
#
# Convention : Reuss Voigt Hill
#
# Bulk Modulus (GPa) = 87.48266 92.66179 90.07223
# Shear Modulus (GPa) = 19.32833 21.35311 20.34072
#
# Velocity S-wave (km/s) = 3.41988 3.59455 3.50830
# Velocity P-wave (km/s) = 8.27827 8.56138 8.42102
#
# Compressibility (1/GPa) = 0.01143084
#
# Stress axis : x y z
#
# Youngs Moduli (GPa) = 39.50746 44.70465 44.31946
#
# Poissons Ratio (x) = 0.58624 0.31560
# Poissons Ratio (y) = 0.51809 0.40650
# Poissons Ratio (z) = 0.28133 0.41003
#
# Static dielectric constant tensor:
#      x y z
#    x 1.537290 0.000000 0.000000 
#    y 0.000000 1.545770 0.000000 
#    z 0.000000 0.000000 1.548670 
# 
# From -- ./inp_files/8171.got.cif
#   From: 2010.05.17/outbox.cif.g08.bks.cpg/sg58_5_cif.got.tgz:8171.got - 2010.06.03 14:20:14.
