data_PCOD9443521
_publ_section_title
;
Structure prediction by ZEFSAII (Michael W. Deem and Ramdas Pophale) SiO2 
 PCOD9443521
Probable space group: P N N M
;
_chemical_formula_sum "Si O2"
_cell_formula_units_Z 40
_cell_length_a 14.743527
_cell_length_b 14.520300
_cell_length_c 8.048741
_cell_angle_alpha 90.000000
_cell_angle_beta 90.000000
_cell_angle_gamma 90.000000
_cell_volume 1723.077975
_symmetry_space_group_name_H-M "P N N M"
_symmetry_group_IT_number 58
_symmetry_cell_setting 'orthorhombic'
loop_
_space_group_symop_operation_xyz
x,y,z
-x,-y,z
1/2+x,1/2-y,1/2-z
1/2-x,1/2+y,1/2-z
-x,-y,-z
x,y,-z
1/2-x,1/2+y,1/2+z
1/2+x,1/2-y,1/2+z
loop_
_atom_site_type_symbol
_atom_site_label
_atom_site_fract_x
_atom_site_fract_y
_atom_site_fract_z
Si Si1 0.447897 0.291448 0.193843
Si Si2 0.273162 0.995670 0.697001
Si Si3 0.623188 0.382106 0.304421
Si Si4 0.446117 0.093759 0.699727
Si Si5 0.260027 0.792495 0.296067
O O1 0.518119 0.362339 0.272950
O O2 0.482362 0.187055 0.221493
O O3 0.344868 0.288805 0.259161
O O4 0.443542 0.312629 0.000000
O O5 0.288730 0.992878 0.500000
O O6 0.171130 0.028964 0.727202
O O7 0.344339 0.070896 0.762478
O O8 0.293143 0.893272 0.758993
O O9 0.638167 0.388719 0.500000
O O10 0.678909 0.292597 0.238860
O O11 0.448207 0.108314 0.500000
O O12 0.500000 0.000000 0.733536
O O13 0.261631 0.790592 0.500000
#
# Coordination Sequence:
#
# PCOD9443521 Si02
#       5
#     8   8   8   8   8
#     4  11  22  38  60  87 118 157 203 249 297 353
#     4  10  20  37  61  86 114 156 203 244 292 357
#     4  11  22  40  61  86 121 159 198 247 305 357
#     4  10  20  36  60  89 120 155 199 248 303 359
#     4   9  20  39  61  83 118 160 197 240 300 362
#
# _framework density 23.214269999999999
#
# number of rings (size 3 to 8) (size 9 to 14) (size 15 to 20)
#    0.000    1.800    2.000    2.400    0.000    4.400 
#    0.000   10.000    0.000    0.000    0.000    0.000 
#    0.000    0.000    0.000    0.000    0.000    0.000 
#
# Total GULP energy -223570.208875 kJ/mol
# GULP energy per Si atom -5589.255222 kJ/mol
# Density = 2.316143 g / cm^3
# Si number density = 23.214270 Si / 1000 Ang^3
#
#
#
# Elastic Constant Matrix: (Units=GPa)
#
#
# Indices 1 2 3 4 5 6 
#
# 1 63.2788 -17.5220 -4.1075 0.0000 0.0000 0.0000
# 2 -17.5220 37.4830 -1.6548 0.0000 0.0000 0.0000
# 3 -4.1075 -1.6548 10.5977 0.0000 0.0000 0.0000
# 4 0.0000 0.0000 0.0000 18.6138 0.0000 0.0000
# 5 0.0000 0.0000 0.0000 0.0000 27.7500 0.0000
# 6 0.0000 0.0000 0.0000 0.0000 0.0000 33.7362
#
#
#
# Elastic Compliance Matrix: (Units=1/GPa)
#
#
# Indices 1 2 3 4 5 6 
#
# 1 0.018931 0.009237 0.008780 0.000000 0.000000 0.000000
# 2 0.009237 0.031371 0.008479 0.000000 0.000000 0.000000
# 3 0.008780 0.008479 0.099087 0.000000 0.000000 0.000000
# 4 0.000000 0.000000 0.000000 0.053724 0.000000 0.000000
# 5 0.000000 0.000000 0.000000 0.000000 0.036036 0.000000
# 6 0.000000 0.000000 0.000000 0.000000 0.000000 0.029642
#
#
# Mechanical properties :
#
#
# Convention : Reuss Voigt Hill
#
# Bulk Modulus (GPa) = 4.94119 7.19898 6.07008
# Shear Modulus (GPa) = 17.65166 24.99624 21.32395
#
# Velocity S-wave (km/s) = 2.76049 3.28496 3.03408
# Velocity P-wave (km/s) = 3.50621 4.18280 3.85936
#
# Compressibility (1/GPa) = 0.20238024
#
# Stress axis : x y z
#
# Youngs Moduli (GPa) = 52.82412 31.87648 10.09211
#
# Poissons Ratio (x) = -0.29445 -0.08861
# Poissons Ratio (y) = -0.48794 -0.08557
# Poissons Ratio (z) = -0.46378 -0.27027
#
# Static dielectric constant tensor:
#      x y z
#    x 1.937170 0.000000 0.000000 
#    y 0.000000 1.862610 0.000000 
#    z 0.000000 0.000000 1.827560 
# 
# From -- ./inp_files/3789.got.cif
#   From: 2010.05.17/outbox.cif.g08.bks.cpg/sg58_2_cif.got.tgz:3789.got - 2010.06.03 14:20:14.
