data_PCOD9443559
_publ_section_title
;
Structure prediction by ZEFSAII (Michael W. Deem and Ramdas Pophale) SiO2 
 PCOD9443559
Probable space group: P N N M
;
_chemical_formula_sum "Si O2"
_cell_formula_units_Z 40
_cell_length_a 9.504939
_cell_length_b 18.526460
_cell_length_c 10.864407
_cell_angle_alpha 90.000000
_cell_angle_beta 90.000000
_cell_angle_gamma 90.000000
_cell_volume 1913.144633
_symmetry_space_group_name_H-M "P N N M"
_symmetry_group_IT_number 58
_symmetry_cell_setting 'orthorhombic'
loop_
_space_group_symop_operation_xyz
x,y,z
-x,-y,z
1/2+x,1/2-y,1/2-z
1/2-x,1/2+y,1/2-z
-x,-y,-z
x,y,-z
1/2-x,1/2+y,1/2+z
1/2+x,1/2-y,1/2+z
loop_
_atom_site_type_symbol
_atom_site_label
_atom_site_fract_x
_atom_site_fract_y
_atom_site_fract_z
Si Si1 0.501588 0.581411 0.145127
Si Si2 0.851821 0.459281 0.368213
Si Si3 0.472433 0.169306 0.260188
Si Si4 0.691636 0.058840 0.639534
Si Si5 0.320056 0.714651 0.853518
O O1 0.500000 0.500000 0.196215
O O2 0.664748 0.604917 0.152940
O O3 0.394553 0.640693 0.194016
O O4 0.467285 0.574690 0.000000
O O5 0.775133 0.468789 0.500000
O O6 0.892065 0.376557 0.344622
O O7 0.797489 0.497072 0.243376
O O8 0.000000 0.500000 0.380736
O O9 0.555431 0.108581 0.339314
O O10 0.592940 0.221032 0.208287
O O11 0.346267 0.210883 0.327660
O O12 0.689312 0.029383 0.500000
O O13 0.341379 0.719372 0.000000
#
# Coordination Sequence:
#
# PCOD9443559 Si02
#       5
#     8   8   8   8   8
#     4   9  18  34  57  85 117 152 193 245 303 359
#     4   9  19  35  57  85 118 155 193 241 304 367
#     4  11  22  37  59  85 119 161 208 254 309 367
#     4  10  20  36  62  92 119 152 201 256 305 364
#     4  11  23  39  59  85 121 163 206 256 312 370
#
# _framework density 20.907983999999999
#
# number of rings (size 3 to 8) (size 9 to 14) (size 15 to 20)
#    0.000    2.000    0.000    3.600    0.000    6.800 
#    0.000    3.000    0.000    6.600    0.000    0.000 
#    0.000    0.000    0.000    0.000    0.000    0.000 
#
# Total GULP energy -222882.110442 kJ/mol
# GULP energy per Si atom -5572.052761 kJ/mol
# Density = 2.086040 g / cm^3
# Si number density = 20.907984 Si / 1000 Ang^3
#
#
#
# Elastic Constant Matrix: (Units=GPa)
#
#
# Indices 1 2 3 4 5 6 
#
# 1 116.7029 29.9186 35.2142 0.0000 0.0000 0.0000
# 2 29.9186 83.3184 41.0929 0.0000 0.0000 0.0000
# 3 35.2142 41.0929 113.8419 0.0000 0.0000 0.0000
# 4 0.0000 0.0000 0.0000 43.5500 0.0000 0.0000
# 5 0.0000 0.0000 0.0000 0.0000 35.2043 0.0000
# 6 0.0000 0.0000 0.0000 0.0000 0.0000 41.3364
#
#
#
# Elastic Compliance Matrix: (Units=1/GPa)
#
#
# Indices 1 2 3 4 5 6 
#
# 1 0.009854 -0.002476 -0.002154 0.000000 0.000000 0.000000
# 2 -0.002476 0.015224 -0.004729 0.000000 0.000000 0.000000
# 3 -0.002154 -0.004729 0.011158 0.000000 0.000000 0.000000
# 4 0.000000 0.000000 0.000000 0.022962 0.000000 0.000000
# 5 0.000000 0.000000 0.000000 0.000000 0.028406 0.000000
# 6 0.000000 0.000000 0.000000 0.000000 0.000000 0.024192
#
#
# Mechanical properties :
#
#
# Convention : Reuss Voigt Hill
#
# Bulk Modulus (GPa) = 57.09082 58.47941 57.78512
# Shear Modulus (GPa) = 36.66980 37.86062 37.26521
#
# Velocity S-wave (km/s) = 4.19246 4.25999 4.22636
# Velocity P-wave (km/s) = 7.12746 7.22685 7.17733
#
# Compressibility (1/GPa) = 0.01751595
#
# Stress axis : x y z
#
# Youngs Moduli (GPa) = 101.48671 65.68689 89.62473
#
# Poissons Ratio (x) = 0.16263 0.19308
# Poissons Ratio (y) = 0.25126 0.42387
# Poissons Ratio (z) = 0.21863 0.31066
#
# Static dielectric constant tensor:
#      x y z
#    x 1.781330 0.000000 0.000000 
#    y 0.000000 1.786200 0.000000 
#    z 0.000000 0.000000 1.781630 
# 
# From -- ./inp_files/12707.got.cif
#   From: 2010.05.17/outbox.cif.g08.bks.cpg/sg58_7_cif.got.tgz:12707.got - 2010.06.03 14:20:14.
