data_PCOD9443055
_publ_section_title
;
Structure prediction by ZEFSAII (Michael W. Deem and Ramdas Pophale) SiO2 
 PCOD9443055
Probable space group: P N N M
;
_chemical_formula_sum "Si O2"
_cell_formula_units_Z 64
_cell_length_a 15.550187
_cell_length_b 24.857820
_cell_length_c 8.701893
_cell_angle_alpha 90.000000
_cell_angle_beta 90.000000
_cell_angle_gamma 90.000000
_cell_volume 3363.662347
_symmetry_space_group_name_H-M "P N N M"
_symmetry_group_IT_number 58
_symmetry_cell_setting 'orthorhombic'
loop_
_space_group_symop_operation_xyz
x,y,z
-x,-y,z
1/2+x,1/2-y,1/2-z
1/2-x,1/2+y,1/2-z
-x,-y,-z
x,y,-z
1/2-x,1/2+y,1/2+z
1/2+x,1/2-y,1/2+z
loop_
_atom_site_type_symbol
_atom_site_label
_atom_site_fract_x
_atom_site_fract_y
_atom_site_fract_z
Si Si1 0.854296 0.068710 0.682366
Si Si2 0.453665 0.605283 0.818036
Si Si3 0.488343 0.281771 0.683144
Si Si4 0.698295 0.683271 0.314965
Si Si5 0.294167 0.542942 0.319326
Si Si6 0.437072 0.928560 0.181923
Si Si7 0.385166 0.039671 0.680703
Si Si8 0.111475 0.306494 0.684046
O O1 0.840672 0.061949 0.500000
O O2 0.814351 0.124888 0.738809
O O3 0.956854 0.073745 0.710412
O O4 0.816574 0.018031 0.770849
O O5 0.471031 0.666093 0.764733
O O6 0.375055 0.578885 0.729137
O O7 0.436733 0.603378 0.000000
O O8 0.494606 0.288594 0.500000
O O9 0.386631 0.282276 0.723380
O O10 0.540537 0.229740 0.734787
O O11 0.699854 0.675656 0.500000
O O12 0.790450 0.707531 0.270783
O O13 0.278636 0.545781 0.500000
O O14 0.208026 0.559780 0.230429
O O15 0.537344 0.932591 0.226900
O O16 0.402164 0.869554 0.217673
O O17 0.391631 0.976510 0.274397
O O18 0.426240 0.938664 0.000000
O O19 0.399500 0.046088 0.500000
O O20 0.102776 0.299443 0.500000
#
# Coordination Sequence:
#
# PCOD9443055 Si02
#       8
#     8   8   8   8   8   8   8   8
#     4  10  20  34  56  85 115 147 187 234 284 340
#     4  10  21  38  57  79 113 151 187 233 287 342
#     4  10  21  38  59  84 114 149 192 242 288 339
#     4   9  19  37  59  84 113 149 191 235 288 342
#     4  12  23  35  54  82 115 152 193 232 279 343
#     4  10  20  37  60  85 114 150 189 236 288 344
#     4  11  22  37  57  83 117 153 188 234 288 343
#     4  10  21  38  61  85 112 150 193 238 290 342
#
# _framework density 19.026880999999999
#
# number of rings (size 3 to 8) (size 9 to 14) (size 15 to 20)
#    0.000    1.750    0.000    5.625    0.000    6.000 
#    2.250    0.000    0.000    0.000    0.000    0.000 
#    0.000    0.000    0.000    0.000    0.000    0.000 
#
# Total GULP energy -357658.542573 kJ/mol
# GULP energy per Si atom -5588.414728 kJ/mol
# Density = 1.898357 g / cm^3
# Si number density = 19.026881 Si / 1000 Ang^3
#
#
#
# Elastic Constant Matrix: (Units=GPa)
#
#
# Indices 1 2 3 4 5 6 
#
# 1 84.8890 30.6428 14.4213 0.0000 0.0000 0.0000
# 2 30.6428 22.9314 3.6841 0.0000 0.0000 0.0000
# 3 14.4213 3.6841 28.3100 0.0000 0.0000 0.0000
# 4 0.0000 0.0000 0.0000 32.0315 0.0000 0.0000
# 5 0.0000 0.0000 0.0000 0.0000 33.0669 0.0000
# 6 0.0000 0.0000 0.0000 0.0000 0.0000 12.2013
#
#
#
# Elastic Compliance Matrix: (Units=1/GPa)
#
#
# Indices 1 2 3 4 5 6 
#
# 1 0.024578 -0.031490 -0.008422 0.000000 0.000000 0.000000
# 2 -0.031490 0.084885 0.004995 0.000000 0.000000 0.000000
# 3 -0.008422 0.004995 0.038964 0.000000 0.000000 0.000000
# 4 0.000000 0.000000 0.000000 0.031219 0.000000 0.000000
# 5 0.000000 0.000000 0.000000 0.000000 0.030242 0.000000
# 6 0.000000 0.000000 0.000000 0.000000 0.000000 0.081959
#
#
# Mechanical properties :
#
#
# Convention : Reuss Voigt Hill
#
# Bulk Modulus (GPa) = 12.72395 25.95854 19.34124
# Shear Modulus (GPa) = 12.89061 21.28540 17.08800
#
# Velocity S-wave (km/s) = 2.60570 3.34833 3.00008
# Velocity P-wave (km/s) = 3.96922 5.34987 4.71041
#
# Compressibility (1/GPa) = 0.07859196
#
# Stress axis : x y z
#
# Youngs Moduli (GPa) = 40.68666 11.78058 25.66496
#
# Poissons Ratio (x) = 0.37097 0.21616
# Poissons Ratio (y) = 1.28123 -0.12819
# Poissons Ratio (z) = 0.34268 -0.05884
#
# Static dielectric constant tensor:
#      x y z
#    x 1.678260 0.000000 0.000000 
#    y 0.000000 1.628470 0.000000 
#    z 0.000000 0.000000 1.636610 
# 
# From -- ./inp_files/6888.got.cif
#   From: 2010.05.17/outbox.cif.g08.bks.cpg/sg58_4_cif.got.tgz:6888.got - 2010.06.03 14:20:14.
