data_PCOD9443821
_publ_section_title
;
Structure prediction by ZEFSAII (Michael W. Deem and Ramdas Pophale) SiO2 
 PCOD9443821
Probable space group: P N N M
;
_chemical_formula_sum "Si O2"
_cell_formula_units_Z 52
_cell_length_a 12.521034
_cell_length_b 9.814128
_cell_length_c 25.219659
_cell_angle_alpha 90.000000
_cell_angle_beta 90.000000
_cell_angle_gamma 90.000000
_cell_volume 3099.068123
_symmetry_space_group_name_H-M "P N N M"
_symmetry_group_IT_number 58
_symmetry_cell_setting 'orthorhombic'
loop_
_space_group_symop_operation_xyz
x,y,z
-x,-y,z
1/2+x,1/2-y,1/2-z
1/2-x,1/2+y,1/2-z
-x,-y,-z
x,y,-z
1/2-x,1/2+y,1/2+z
1/2+x,1/2-y,1/2+z
loop_
_atom_site_type_symbol
_atom_site_label
_atom_site_fract_x
_atom_site_fract_y
_atom_site_fract_z
Si Si1 0.170335 0.187182 0.161225
Si Si2 0.000000 0.000000 0.673130
Si Si3 0.233923 0.982327 0.351536
Si Si4 0.603834 0.904149 0.561970
Si Si5 0.825115 0.469613 0.263576
Si Si6 0.529731 0.227625 0.756843
Si Si7 0.040071 0.152371 0.058274
O O1 0.237803 0.323817 0.153280
O O2 0.243043 0.076824 0.191158
O O3 0.069545 0.223195 0.199098
O O4 0.127248 0.152245 0.103736
O O5 0.891481 0.002386 0.639915
O O6 0.009458 0.137356 0.708617
O O7 0.306294 0.051180 0.396597
O O8 0.264551 0.036052 0.292800
O O9 0.636586 0.915688 0.500000
O O10 0.557579 0.753384 0.571625
O O11 0.500000 0.000000 0.569980
O O12 0.876474 0.619596 0.273289
O O13 0.922715 0.362864 0.258314
O O14 0.080075 0.198285 0.000000
O O15 0.000000 0.000000 0.054391
#
# Coordination Sequence:
#
# PCOD9443821 Si02
#       7
#     8   4   8   8   8   8   8
#     4  11  20  35  58  81 112 154 185 228 289 344
#     4  12  22  36  51  78 119 142 190 232 268 330
#     4  11  22  35  56  85 114 148 193 234 279 343
#     4  10  20  38  62  85 111 146 187 238 291 334
#     4  10  21  36  53  78 114 151 190 226 283 340
#     4  10  22  35  51  79 113 147 188 233 278 339
#     4  10  22  37  57  89 116 140 185 240 291 342
#
# _framework density 16.779236999999998
#
# number of rings (size 3 to 8) (size 9 to 14) (size 15 to 20)
#    0.000    1.538    4.615    0.923    3.231    1.231 
#    0.000    0.385    0.000    0.000    0.000    3.231 
#    0.000    0.000    0.000    0.000    0.000    0.000 
#
# Total GULP energy -290015.822774 kJ/mol
# GULP energy per Si atom -5577.227361 kJ/mol
# Density = 1.674105 g / cm^3
# Si number density = 16.779237 Si / 1000 Ang^3
#
#
#
# Elastic Constant Matrix: (Units=GPa)
#
#
# Indices 1 2 3 4 5 6 
#
# 1 109.0055 32.9972 73.7428 0.0000 0.0000 0.0000
# 2 32.9972 92.3148 35.8159 0.0000 0.0000 0.0000
# 3 73.7428 35.8159 113.6418 0.0000 0.0000 0.0000
# 4 0.0000 0.0000 0.0000 21.4381 0.0000 0.0000
# 5 0.0000 0.0000 0.0000 0.0000 8.1803 0.0000
# 6 0.0000 0.0000 0.0000 0.0000 0.0000 19.8085
#
#
#
# Elastic Compliance Matrix: (Units=1/GPa)
#
#
# Indices 1 2 3 4 5 6 
#
# 1 0.016673 -0.002007 -0.010186 0.000000 0.000000 0.000000
# 2 -0.002007 0.012583 -0.002663 0.000000 0.000000 0.000000
# 3 -0.010186 -0.002663 0.016249 0.000000 0.000000 0.000000
# 4 0.000000 0.000000 0.000000 0.046646 0.000000 0.000000
# 5 0.000000 0.000000 0.000000 0.000000 0.122245 0.000000
# 6 0.000000 0.000000 0.000000 0.000000 0.000000 0.050483
#
#
# Mechanical properties :
#
#
# Convention : Reuss Voigt Hill
#
# Bulk Modulus (GPa) = 63.32739 66.67490 65.00115
# Shear Modulus (GPa) = 16.67467 21.37913 19.02690
#
# Velocity S-wave (km/s) = 3.15583 3.57338 3.37108
# Velocity P-wave (km/s) = 7.14860 7.53978 7.34679
#
# Compressibility (1/GPa) = 0.01579095
#
# Stress axis : x y z
#
# Youngs Moduli (GPa) = 59.97875 79.47046 61.54294
#
# Poissons Ratio (x) = 0.15953 0.62689
# Poissons Ratio (y) = 0.12041 0.16390
# Poissons Ratio (z) = 0.61096 0.21164
#
# Static dielectric constant tensor:
#      x y z
#    x 1.543150 0.000000 0.000000 
#    y 0.000000 1.591510 0.000000 
#    z 0.000000 0.000000 1.582810 
# 
# From -- ./inp_files/33279.got.cif
#   From: 2010.05.17/outbox.cif.g08.bks.cpg/sg58_17_cif.got.tgz:33279.got - 2010.06.03 14:20:14.
