data_PCOD9443421
_publ_section_title
;
Structure prediction by ZEFSAII (Michael W. Deem and Ramdas Pophale) SiO2 
 PCOD9443421
Probable space group: P N N M
;
_chemical_formula_sum "Si O2"
_cell_formula_units_Z 64
_cell_length_a 15.688434
_cell_length_b 21.785220
_cell_length_c 8.396090
_cell_angle_alpha 90.000000
_cell_angle_beta 90.000000
_cell_angle_gamma 90.000000
_cell_volume 2869.581940
_symmetry_space_group_name_H-M "P N N M"
_symmetry_group_IT_number 58
_symmetry_cell_setting 'orthorhombic'
loop_
_space_group_symop_operation_xyz
x,y,z
-x,-y,z
1/2+x,1/2-y,1/2-z
1/2-x,1/2+y,1/2-z
-x,-y,-z
x,y,-z
1/2-x,1/2+y,1/2+z
1/2+x,1/2-y,1/2+z
loop_
_atom_site_type_symbol
_atom_site_label
_atom_site_fract_x
_atom_site_fract_y
_atom_site_fract_z
Si Si1 0.739225 0.353287 0.818597
Si Si2 0.732893 0.496667 0.190381
Si Si3 0.942607 0.694005 0.688299
Si Si4 0.940291 0.056304 0.694656
Si Si5 0.922222 0.389998 0.176777
Si Si6 0.432048 0.305343 0.193698
Si Si7 0.263638 0.775078 0.685468
Si Si8 0.591717 0.005929 0.824140
O O1 0.721084 0.423890 0.768804
O O2 0.841739 0.345222 0.829423
O O3 0.714618 0.297323 0.707503
O O4 0.704335 0.345337 0.000000
O O5 0.654349 0.537019 0.245796
O O6 0.821742 0.526623 0.245324
O O7 0.734315 0.496130 0.000000
O O8 0.957044 0.686069 0.500000
O O9 0.842499 0.694558 0.722696
O O10 0.988342 0.639766 0.784677
O O11 0.997008 0.754648 0.739057
O O12 0.943163 0.056711 0.500000
O O13 0.958467 0.125938 0.745979
O O14 0.000000 0.000000 0.746590
O O15 0.894650 0.432824 0.322549
O O16 0.920217 0.419344 0.000000
O O17 0.333221 0.290955 0.240688
O O18 0.430950 0.304811 0.000000
O O19 0.268162 0.792025 0.500000
O O20 0.500000 0.000000 0.738978
O O21 0.580883 0.032019 0.000000
#
# Coordination Sequence:
#
# PCOD9443421 Si02
#       8
#     8   8   8   8   8   8   8   8
#     4   9  18  33  54  81 110 140 186 241 293 348
#     4   9  19  34  56  86 113 146 194 245 296 352
#     4  11  22  37  58  86 120 157 196 242 302 362
#     4   9  18  34  59  87 115 150 194 245 296 346
#     4  10  20  36  58  83 113 148 193 243 293 351
#     4   9  20  37  57  85 121 155 193 244 298 356
#     4  11  22  36  55  84 117 153 196 239 294 357
#     4  10  21  36  56  83 116 155 196 238 293 359
#
# _framework density 22.302899
#
# number of rings (size 3 to 8) (size 9 to 14) (size 15 to 20)
#    0.000    2.250    1.250    2.250    1.750    4.000 
#    0.000    1.250    0.000    2.625    0.000    0.000 
#    0.000    0.000    0.000    0.000    0.000    0.000 
#
# Total GULP energy -356278.951558 kJ/mol
# GULP energy per Si atom -5566.858618 kJ/mol
# Density = 2.225214 g / cm^3
# Si number density = 22.302899 Si / 1000 Ang^3
#
#
#
# Elastic Constant Matrix: (Units=GPa)
#
#
# Indices 1 2 3 4 5 6 
#
# 1 84.5609 6.1809 7.9473 0.0000 0.0000 0.0000
# 2 6.1809 43.7063 2.6084 0.0000 0.0000 0.0000
# 3 7.9473 2.6084 23.6805 0.0000 0.0000 0.0000
# 4 0.0000 0.0000 0.0000 16.7834 0.0000 0.0000
# 5 0.0000 0.0000 0.0000 0.0000 53.3793 0.0000
# 6 0.0000 0.0000 0.0000 0.0000 0.0000 27.0303
#
#
#
# Elastic Compliance Matrix: (Units=1/GPa)
#
#
# Indices 1 2 3 4 5 6 
#
# 1 0.012308 -0.001504 -0.003965 0.000000 0.000000 0.000000
# 2 -0.001504 0.023215 -0.002052 0.000000 0.000000 0.000000
# 3 -0.003965 -0.002052 0.043786 0.000000 0.000000 0.000000
# 4 0.000000 0.000000 0.000000 0.059583 0.000000 0.000000
# 5 0.000000 0.000000 0.000000 0.000000 0.018734 0.000000
# 6 0.000000 0.000000 0.000000 0.000000 0.000000 0.036995
#
#
# Mechanical properties :
#
#
# Convention : Reuss Voigt Hill
#
# Bulk Modulus (GPa) = 15.56029 20.60232 18.08131
# Shear Modulus (GPa) = 21.63696 28.45268 25.04482
#
# Velocity S-wave (km/s) = 3.11809 3.57562 3.35467
# Velocity P-wave (km/s) = 4.46713 5.12878 4.80934
#
# Compressibility (1/GPa) = 0.06426616
#
# Stress axis : x y z
#
# Youngs Moduli (GPa) = 81.24545 43.07531 22.83859
#
# Poissons Ratio (x) = 0.06479 0.09056
# Poissons Ratio (y) = 0.12219 0.04687
# Poissons Ratio (z) = 0.32215 0.08841
#
# Static dielectric constant tensor:
#      x y z
#    x 1.907690 0.000000 0.000000 
#    y 0.000000 1.927540 0.000000 
#    z 0.000000 0.000000 1.829070 
# 
# From -- ./inp_files/6837.got.cif
#   From: 2010.05.17/outbox.cif.g08.bks.cpg/sg58_4_cif.got.tgz:6837.got - 2010.06.03 14:20:14.
