data_PCOD9443888
_publ_section_title
;
Structure prediction by ZEFSAII (Michael W. Deem and Ramdas Pophale) SiO2 
 PCOD9443888
Probable space group: P N N M
;
_chemical_formula_sum "Si O2"
_cell_formula_units_Z 32
_cell_length_a 13.774557
_cell_length_b 17.508916
_cell_length_c 7.748922
_cell_angle_alpha 90.000000
_cell_angle_beta 90.000000
_cell_angle_gamma 90.000000
_cell_volume 1868.866112
_symmetry_space_group_name_H-M "P N N M"
_symmetry_group_IT_number 58
_symmetry_cell_setting 'orthorhombic'
loop_
_space_group_symop_operation_xyz
x,y,z
-x,-y,z
1/2+x,1/2-y,1/2-z
1/2-x,1/2+y,1/2-z
-x,-y,-z
x,y,-z
1/2-x,1/2+y,1/2+z
1/2+x,1/2-y,1/2+z
loop_
_atom_site_type_symbol
_atom_site_label
_atom_site_fract_x
_atom_site_fract_y
_atom_site_fract_z
Si Si1 0.390249 0.470486 0.500000
Si Si2 0.710883 0.789474 0.192981
Si Si3 0.618410 0.221102 0.500000
Si Si4 0.094138 0.788815 0.000000
Si Si5 0.603477 0.040642 0.500000
Si Si6 0.734945 0.460113 0.192919
O O1 0.500000 0.500000 0.500000
O O2 0.596364 0.131535 0.500000
O O3 0.334557 0.502828 0.332894
O O4 0.644710 0.748554 0.332797
O O5 0.734487 0.875440 0.250329
O O6 0.665857 0.790616 0.000000
O O7 0.812612 0.744995 0.160748
O O8 0.390401 0.379145 0.500000
O O9 0.980593 0.768081 0.000000
O O10 0.668345 0.010767 0.339003
O O11 0.500000 0.000000 0.500000
O O12 0.689926 0.456383 0.000000
#
# Coordination Sequence:
#
# PCOD9443888 Si02
#       6
#     4   8   4   4   4   8
#     4  12  24  40  61  92 125 164 208 252 296 372
#     4  10  21  40  62  89 123 156 202 252 302 365
#     4  10  22  40  59  90 123 154 202 254 292 366
#     4  12  22  40  65  86 123 166 198 246 314 352
#     4  10  20  38  65  84 119 158 198 248 306 360
#     4  10  21  39  64  88 123 160 198 253 310 356
#
# _framework density 17.122681
#
# number of rings (size 3 to 8) (size 9 to 14) (size 15 to 20)
#    1.500    0.000    2.500    4.500    0.000    0.500 
#    2.250    0.625    0.000    0.000    0.000    0.000 
#    0.000    0.000    0.000    0.000    0.000    0.000 
#
# Total GULP energy -178299.353458 kJ/mol
# GULP energy per Si atom -5571.854796 kJ/mol
# Density = 1.708371 g / cm^3
# Si number density = 17.122681 Si / 1000 Ang^3
#
#
#
# Elastic Constant Matrix: (Units=GPa)
#
#
# Indices 1 2 3 4 5 6 
#
# 1 68.4331 -16.4654 30.8978 0.0000 0.0000 0.0000
# 2 -16.4654 88.0294 16.7653 0.0000 0.0000 0.0000
# 3 30.8978 16.7653 125.9333 0.0000 0.0000 0.0000
# 4 0.0000 0.0000 0.0000 33.8118 0.0000 0.0000
# 5 0.0000 0.0000 0.0000 0.0000 29.4098 0.0000
# 6 0.0000 0.0000 0.0000 0.0000 0.0000 35.8620
#
#
#
# Elastic Compliance Matrix: (Units=1/GPa)
#
#
# Indices 1 2 3 4 5 6 
#
# 1 0.017884 0.004289 -0.004959 0.000000 0.000000 0.000000
# 2 0.004289 0.012684 -0.002741 0.000000 0.000000 0.000000
# 3 -0.004959 -0.002741 0.009522 0.000000 0.000000 0.000000
# 4 0.000000 0.000000 0.000000 0.029576 0.000000 0.000000
# 5 0.000000 0.000000 0.000000 0.000000 0.034002 0.000000
# 6 0.000000 0.000000 0.000000 0.000000 0.000000 0.027885
#
#
# Mechanical properties :
#
#
# Convention : Reuss Voigt Hill
#
# Bulk Modulus (GPa) = 30.05760 38.31015 34.18388
# Shear Modulus (GPa) = 33.45300 36.56326 35.00813
#
# Velocity S-wave (km/s) = 4.42489 4.62602 4.52657
# Velocity P-wave (km/s) = 6.61049 7.13834 6.87948
#
# Compressibility (1/GPa) = 0.03326945
#
# Stress axis : x y z
#
# Youngs Moduli (GPa) = 55.91641 78.83821 105.01679
#
# Poissons Ratio (x) = -0.33818 0.52076
# Poissons Ratio (y) = -0.23985 0.28786
# Poissons Ratio (z) = 0.27728 0.21610
#
# Static dielectric constant tensor:
#      x y z
#    x 1.548710 0.000000 0.000000 
#    y 0.000000 1.557030 0.000000 
#    z 0.000000 0.000000 1.576750 
# 
# From -- ./inp_files/3913.got.cif
#   From: 2010.05.17/outbox.cif.g08.bks.cpg/sg58_2_cif.got.tgz:3913.got - 2010.06.03 14:20:14.
