data_PCOD9443041
_publ_section_title
;
Structure prediction by ZEFSAII (Michael W. Deem and Ramdas Pophale) SiO2 
 PCOD9443041
Probable space group: P N N M
;
_chemical_formula_sum "Si O2"
_cell_formula_units_Z 56
_cell_length_a 16.124215
_cell_length_b 20.933449
_cell_length_c 7.618660
_cell_angle_alpha 90.000000
_cell_angle_beta 90.000000
_cell_angle_gamma 90.000000
_cell_volume 2571.567697
_symmetry_space_group_name_H-M "P N N M"
_symmetry_group_IT_number 58
_symmetry_cell_setting 'orthorhombic'
loop_
_space_group_symop_operation_xyz
x,y,z
-x,-y,z
1/2+x,1/2-y,1/2-z
1/2-x,1/2+y,1/2-z
-x,-y,-z
x,y,-z
1/2-x,1/2+y,1/2+z
1/2+x,1/2-y,1/2+z
loop_
_atom_site_type_symbol
_atom_site_label
_atom_site_fract_x
_atom_site_fract_y
_atom_site_fract_z
Si Si1 0.324694 0.165050 0.201212
Si Si2 0.667898 0.100592 0.791652
Si Si3 0.074239 0.045164 0.785161
Si Si4 0.491429 0.819599 0.294938
Si Si5 0.822811 0.191539 0.289334
Si Si6 0.011883 0.178645 0.204626
Si Si7 0.259701 0.030676 0.215163
O O1 0.424297 0.157916 0.204312
O O2 0.306895 0.235673 0.276154
O O3 0.287109 0.100563 0.279129
O O4 0.294473 0.167557 0.000000
O O5 0.585947 0.133843 0.718966
O O6 0.748297 0.144446 0.755979
O O7 0.685686 0.029120 0.724790
O O8 0.656832 0.097038 0.000000
O O9 0.058018 0.117189 0.721180
O O10 0.164271 0.020187 0.735038
O O11 0.071886 0.046113 0.000000
O O12 0.000000 0.000000 0.726095
O O13 0.513304 0.811917 0.500000
O O14 0.469500 0.748996 0.222348
O O15 0.830861 0.194622 0.500000
O O16 0.912442 0.169679 0.218711
O O17 0.035522 0.181013 0.000000
O O18 0.264064 0.031266 0.000000
#
# Coordination Sequence:
#
# PCOD9443041 Si02
#       7
#     8   8   8   8   8   8   8
#     4   9  19  37  59  80 106 143 188 234 278 325
#     4  11  22  36  56  81 110 144 187 229 271 327
#     4   9  16  28  52  83 109 135 176 227 271 312
#     4  10  21  36  55  81 111 143 182 228 282 332
#     4  10  20  34  56  82 112 144 178 226 280 329
#     4   9  18  33  56  81 107 141 181 223 270 329
#     4   9  19  34  55  81 107 142 189 235 272 319
#
# _framework density 21.776598
#
# number of rings (size 3 to 8) (size 9 to 14) (size 15 to 20)
#    0.000    2.429    0.000    2.143    2.000    4.000 
#    0.000    4.286    0.000    4.714    0.000    0.000 
#    0.000    0.000    0.000    0.000    0.000    0.000 
#
# Total GULP energy -312715.222418 kJ/mol
# GULP energy per Si atom -5584.200400 kJ/mol
# Density = 2.172703 g / cm^3
# Si number density = 21.776598 Si / 1000 Ang^3
#
#
#
# Elastic Constant Matrix: (Units=GPa)
#
#
# Indices 1 2 3 4 5 6 
#
# 1 19.1035 12.2017 -10.0246 0.0000 0.0000 0.0000
# 2 12.2017 71.2871 -0.1014 0.0000 0.0000 0.0000
# 3 -10.0246 -0.1014 50.6169 0.0000 0.0000 0.0000
# 4 0.0000 0.0000 0.0000 8.6110 0.0000 0.0000
# 5 0.0000 0.0000 0.0000 0.0000 19.8682 0.0000
# 6 0.0000 0.0000 0.0000 0.0000 0.0000 38.4296
#
#
#
# Elastic Compliance Matrix: (Units=1/GPa)
#
#
# Indices 1 2 3 4 5 6 
#
# 1 0.066505 -0.011364 0.013148 0.000000 0.000000 0.000000
# 2 -0.011364 0.015970 -0.002219 0.000000 0.000000 0.000000
# 3 0.013148 -0.002219 0.022356 0.000000 0.000000 0.000000
# 4 0.000000 0.000000 0.000000 0.116130 0.000000 0.000000
# 5 0.000000 0.000000 0.000000 0.000000 0.050332 0.000000
# 6 0.000000 0.000000 0.000000 0.000000 0.000000 0.026022
#
#
# Mechanical properties :
#
#
# Convention : Reuss Voigt Hill
#
# Bulk Modulus (GPa) = 9.61899 16.12874 12.87387
# Shear Modulus (GPa) = 15.02236 22.64388 18.83312
#
# Velocity S-wave (km/s) = 2.62933 3.22813 2.94399
# Velocity P-wave (km/s) = 3.69385 4.61703 4.18100
#
# Compressibility (1/GPa) = 0.10396097
#
# Stress axis : x y z
#
# Youngs Moduli (GPa) = 15.03651 62.61819 44.73110
#
# Poissons Ratio (x) = 0.71162 -0.58814
# Poissons Ratio (y) = 0.17088 0.09925
# Poissons Ratio (z) = -0.19771 0.13893
#
# Static dielectric constant tensor:
#      x y z
#    x 1.738570 0.000000 0.000000 
#    y 0.000000 1.810690 0.000000 
#    z 0.000000 0.000000 1.850420 
# 
# From -- ./inp_files/6446.got.cif
#   From: 2010.05.17/outbox.cif.g08.bks.cpg/sg58_4_cif.got.tgz:6446.got - 2010.06.03 14:20:14.
