data_PCOD9443993
_publ_section_title
;
Structure prediction by ZEFSAII (Michael W. Deem and Ramdas Pophale) SiO2 
 PCOD9443993
Probable space group: P N N M
;
_chemical_formula_sum "Si O2"
_cell_formula_units_Z 48
_cell_length_a 13.835642
_cell_length_b 9.647416
_cell_length_c 19.388287
_cell_angle_alpha 90.000000
_cell_angle_beta 90.000000
_cell_angle_gamma 90.000000
_cell_volume 2587.913534
_symmetry_space_group_name_H-M "P N N M"
_symmetry_group_IT_number 58
_symmetry_cell_setting 'orthorhombic'
loop_
_space_group_symop_operation_xyz
x,y,z
-x,-y,z
1/2+x,1/2-y,1/2-z
1/2-x,1/2+y,1/2-z
-x,-y,-z
x,y,-z
1/2-x,1/2+y,1/2+z
1/2+x,1/2-y,1/2+z
loop_
_atom_site_type_symbol
_atom_site_label
_atom_site_fract_x
_atom_site_fract_y
_atom_site_fract_z
Si Si1 0.541758 0.154588 0.420666
Si Si2 0.235888 0.525128 0.688937
Si Si3 0.435432 0.363843 0.825865
Si Si4 0.919022 0.383161 0.421930
Si Si5 0.068036 0.866818 0.169070
Si Si6 0.788350 0.663866 0.810301
O O1 0.562251 0.193038 0.500000
O O2 0.462278 0.255152 0.386770
O O3 0.636620 0.163266 0.372825
O O4 0.500000 0.000000 0.419230
O O5 0.168513 0.562002 0.624850
O O6 0.323716 0.425442 0.667152
O O7 0.181738 0.441070 0.749385
O O8 0.276576 0.675327 0.713641
O O9 0.500000 0.500000 0.833315
O O10 0.460334 0.250158 0.882365
O O11 0.449188 0.311504 0.747047
O O12 0.319537 0.386788 0.831652
O O13 0.888706 0.349812 0.500000
O O14 0.000000 0.500000 0.424076
O O15 0.000000 0.000000 0.160110
#
# Coordination Sequence:
#
# PCOD9443993 Si02
#       6
#     8   8   8   8   8   8
#     4  11  26  42  60  92 132 170 203 254 325 382
#     4  10  22  38  64  92 119 162 207 258 305 366
#     4   9  21  39  63  89 117 155 204 256 296 359
#     4  10  23  39  56  87 119 155 197 243 306 358
#     4  10  20  40  63  92 116 156 214 250 300 368
#     4  10  22  39  62  93 120 156 207 257 305 368
#
# _framework density 18.547758999999999
#
# number of rings (size 3 to 8) (size 9 to 14) (size 15 to 20)
#    0.000    2.000    1.667    0.000    9.333    4.000 
#    0.000    0.000    0.000    0.000    0.000    0.000 
#    0.000    0.000    0.000    0.000    0.000    0.000 
#
# Total GULP energy -267877.077796 kJ/mol
# GULP energy per Si atom -5580.772454 kJ/mol
# Density = 1.850554 g / cm^3
# Si number density = 18.547759 Si / 1000 Ang^3
#
#
#
# Elastic Constant Matrix: (Units=GPa)
#
#
# Indices 1 2 3 4 5 6 
#
# 1 52.2612 31.9380 33.1356 0.0000 0.0000 0.0000
# 2 31.9380 97.6325 87.8563 0.0000 0.0000 0.0000
# 3 33.1356 87.8563 153.5693 0.0000 0.0000 0.0000
# 4 0.0000 0.0000 0.0000 70.1921 0.0000 0.0000
# 5 0.0000 0.0000 0.0000 0.0000 18.6363 0.0000
# 6 0.0000 0.0000 0.0000 0.0000 0.0000 32.8078
#
#
#
# Elastic Compliance Matrix: (Units=1/GPa)
#
#
# Indices 1 2 3 4 5 6 
#
# 1 0.024065 -0.006595 -0.001420 0.000000 0.000000 0.000000
# 2 -0.006595 0.022917 -0.011688 0.000000 0.000000 0.000000
# 3 -0.001420 -0.011688 0.013505 0.000000 0.000000 0.000000
# 4 0.000000 0.000000 0.000000 0.014247 0.000000 0.000000
# 5 0.000000 0.000000 0.000000 0.000000 0.053659 0.000000
# 6 0.000000 0.000000 0.000000 0.000000 0.000000 0.030481
#
#
# Mechanical properties :
#
#
# Convention : Reuss Voigt Hill
#
# Bulk Modulus (GPa) = 47.43320 67.70253 57.56786
# Shear Modulus (GPa) = 24.35396 34.36278 29.35837
#
# Velocity S-wave (km/s) = 3.62752 4.30893 3.98282
# Velocity P-wave (km/s) = 6.57071 7.83178 7.22880
#
# Compressibility (1/GPa) = 0.02108228
#
# Stress axis : x y z
#
# Youngs Moduli (GPa) = 41.55414 43.63482 74.04818
#
# Poissons Ratio (x) = 0.28776 0.10512
# Poissons Ratio (y) = 0.27404 0.86548
# Poissons Ratio (z) = 0.05899 0.51001
#
# Static dielectric constant tensor:
#      x y z
#    x 1.654940 0.000000 0.000000 
#    y 0.000000 1.640010 0.000000 
#    z 0.000000 0.000000 1.644760 
# 
# From -- ./inp_files/25282.got.cif
#   From: 2010.05.17/outbox.cif.g08.bks.cpg/sg58_13_cif.got.tgz:25282.got - 2010.06.03 14:20:14.
