data_PCOD9443182
_publ_section_title
;
Structure prediction by ZEFSAII (Michael W. Deem and Ramdas Pophale) SiO2 
 PCOD9443182
Probable space group: P N N M
;
_chemical_formula_sum "Si O2"
_cell_formula_units_Z 40
_cell_length_a 12.176631
_cell_length_b 6.319897
_cell_length_c 23.473471
_cell_angle_alpha 90.000000
_cell_angle_beta 90.000000
_cell_angle_gamma 90.000000
_cell_volume 1806.402222
_symmetry_space_group_name_H-M "P N N M"
_symmetry_group_IT_number 58
_symmetry_cell_setting 'orthorhombic'
loop_
_space_group_symop_operation_xyz
x,y,z
-x,-y,z
1/2+x,1/2-y,1/2-z
1/2-x,1/2+y,1/2-z
-x,-y,-z
x,y,-z
1/2-x,1/2+y,1/2+z
1/2+x,1/2-y,1/2+z
loop_
_atom_site_type_symbol
_atom_site_label
_atom_site_fract_x
_atom_site_fract_y
_atom_site_fract_z
Si Si1 0.421092 0.671412 0.562729
Si Si2 0.891669 0.141253 0.214176
Si Si3 0.808010 0.461897 0.878133
Si Si4 0.307388 0.916154 0.935968
Si Si5 0.684578 0.852828 0.822698
O O1 0.500000 0.500000 0.591348
O O2 0.467908 0.708803 0.500000
O O3 0.303959 0.554291 0.559809
O O4 0.394438 0.892158 0.590033
O O5 0.872026 0.308196 0.164015
O O6 0.893748 0.280043 0.271913
O O7 0.784428 0.988480 0.205779
O O8 0.000000 0.000000 0.212690
O O9 0.733077 0.319234 0.919736
O O10 0.733139 0.630587 0.845142
O O11 0.359796 0.017443 0.878109
O O12 0.358443 0.922730 0.000000
#
# Coordination Sequence:
#
# PCOD9443182 Si02
#       5
#     8   8   8   8   8
#     4   9  18  31  49  78 117 157 202 241 286 358
#     4  11  23  39  61  89 121 162 205 253 313 367
#     4  10  20  35  56  77 120 157 200 251 299 363
#     4   9  19  33  55  83 110 155 202 248 311 362
#     4  10  21  39  59  87 125 153 205 259 302 375
#
# _framework density 22.143463000000001
#
# number of rings (size 3 to 8) (size 9 to 14) (size 15 to 20)
#    0.000    2.200    2.000    0.600    0.000   11.200 
#    0.000    3.000    0.000    6.000    0.000    1.400 
#    0.000    0.000    0.000    0.000    0.000    0.000 
#
# Total GULP energy -223237.030205 kJ/mol
# GULP energy per Si atom -5580.925755 kJ/mol
# Density = 2.209306 g / cm^3
# Si number density = 22.143463 Si / 1000 Ang^3
#
#
#
# Elastic Constant Matrix: (Units=GPa)
#
#
# Indices 1 2 3 4 5 6 
#
# 1 24.6190 21.1553 20.1573 0.0000 0.0000 0.0000
# 2 21.1553 148.3572 60.4981 0.0000 0.0000 0.0000
# 3 20.1573 60.4981 165.3179 0.0000 0.0000 0.0000
# 4 0.0000 0.0000 0.0000 -20.0722 0.0000 0.0000
# 5 0.0000 0.0000 0.0000 0.0000 13.6425 0.0000
# 6 0.0000 0.0000 0.0000 0.0000 0.0000 22.0605
#
#
#
# Elastic Compliance Matrix: (Units=1/GPa)
#
#
# Indices 1 2 3 4 5 6 
#
# 1 0.048410 -0.005285 -0.003969 0.000000 0.000000 0.000000
# 2 -0.005285 0.008500 -0.002466 0.000000 0.000000 0.000000
# 3 -0.003969 -0.002466 0.007435 0.000000 0.000000 0.000000
# 4 0.000000 0.000000 0.000000 -0.049820 0.000000 0.000000
# 5 0.000000 0.000000 0.000000 0.000000 0.073300 0.000000
# 6 0.000000 0.000000 0.000000 0.000000 0.000000 0.045330
#
#
# Mechanical properties :
#
#
# Convention : Reuss Voigt Hill
#
# Bulk Modulus (GPa) = 24.44649 60.21282 42.32966
# Shear Modulus (GPa) = 29.37224 18.89173 24.13198
#
# Velocity S-wave (km/s) = 3.64600 2.92404 3.30480
# Velocity P-wave (km/s) = 5.36549 6.21701 5.80688
#
# Compressibility (1/GPa) = 0.04090566
#
# Stress axis : x y z
#
# Youngs Moduli (GPa) = 20.65708 117.65102 134.49312
#
# Poissons Ratio (x) = 0.62175 0.53376
# Poissons Ratio (y) = 0.10917 0.33167
# Poissons Ratio (z) = 0.08198 0.29014
#
# Static dielectric constant tensor:
#      x y z
#    x 1.864280 0.000000 0.000000 
#    y 0.000000 1.795310 0.000000 
#    z 0.000000 0.000000 1.946070 
# 
# From -- ./inp_files/32132.got.cif
#   From: 2010.05.17/outbox.cif.g08.bks.cpg/sg58_17_cif.got.tgz:32132.got - 2010.06.03 14:20:14.
