data_PCOD9443362
_publ_section_title
;
Structure prediction by ZEFSAII (Michael W. Deem and Ramdas Pophale) SiO2 
 PCOD9443362
Probable space group: P N N M
;
_chemical_formula_sum "Si O2"
_cell_formula_units_Z 56
_cell_length_a 14.193162
_cell_length_b 11.670210
_cell_length_c 19.405639
_cell_angle_alpha 90.000000
_cell_angle_beta 90.000000
_cell_angle_gamma 90.000000
_cell_volume 3214.295341
_symmetry_space_group_name_H-M "P N N M"
_symmetry_group_IT_number 58
_symmetry_cell_setting 'orthorhombic'
loop_
_space_group_symop_operation_xyz
x,y,z
-x,-y,z
1/2+x,1/2-y,1/2-z
1/2-x,1/2+y,1/2-z
-x,-y,-z
x,y,-z
1/2-x,1/2+y,1/2+z
1/2+x,1/2-y,1/2+z
loop_
_atom_site_type_symbol
_atom_site_label
_atom_site_fract_x
_atom_site_fract_y
_atom_site_fract_z
Si Si1 0.389333 0.003895 0.188938
Si Si2 0.809045 0.318748 0.133043
Si Si3 0.093036 0.065975 0.853592
Si Si4 0.241010 0.706746 0.288650
Si Si5 0.248597 0.407844 0.422345
Si Si6 0.482745 0.795841 0.581130
Si Si7 0.677205 0.069207 0.342002
O O1 0.335348 0.934065 0.130214
O O2 0.363337 0.959910 0.265774
O O3 0.500000 0.000000 0.180248
O O4 0.345242 0.130735 0.184538
O O5 0.778294 0.274377 0.208303
O O6 0.769123 0.227164 0.080114
O O7 0.719647 0.951546 0.370866
O O8 0.921678 0.315779 0.123492
O O9 0.163730 0.130687 0.800459
O O10 0.055436 0.168126 0.902489
O O11 0.159445 0.975671 0.893697
O O12 0.000000 0.000000 0.826267
O O13 0.253323 0.824878 0.328976
O O14 0.229175 0.445993 0.500000
O O15 0.499751 0.809416 0.500000
O O16 0.405179 0.884637 0.608857
#
# Coordination Sequence:
#
# PCOD9443362 Si02
#       7
#     8   8   8   8   8   8   8
#     4  10  20  38  60  81 107 148 191 241 280 323
#     4  11  20  33  53  76 114 149 185 227 278 338
#     4  10  20  36  57  83 115 149 188 239 293 338
#     4   9  20  36  56  81 112 146 189 233 276 335
#     4  11  22  35  55  84 113 146 190 240 293 342
#     4  11  22  33  53  85 119 155 187 225 287 356
#     4  10  20  36  54  79 115 150 185 230 277 349
#
# _framework density 17.422170000000001
#
# number of rings (size 3 to 8) (size 9 to 14) (size 15 to 20)
#    0.000    1.714    2.857    3.000    0.000    2.571 
#    0.000    0.000    0.000    0.000    0.000    1.000 
#    0.000    0.000    0.000    0.000    0.000    0.000 
#
# Total GULP energy -312381.875775 kJ/mol
# GULP energy per Si atom -5578.247782 kJ/mol
# Density = 1.738252 g / cm^3
# Si number density = 17.422170 Si / 1000 Ang^3
#
#
#
# Elastic Constant Matrix: (Units=GPa)
#
#
# Indices 1 2 3 4 5 6 
#
# 1 80.2913 37.2723 25.1390 0.0000 0.0000 0.0000
# 2 37.2723 110.7887 21.0194 0.0000 0.0000 0.0000
# 3 25.1390 21.0194 81.4123 0.0000 0.0000 0.0000
# 4 0.0000 0.0000 0.0000 10.9708 0.0000 0.0000
# 5 0.0000 0.0000 0.0000 0.0000 11.6208 0.0000
# 6 0.0000 0.0000 0.0000 0.0000 0.0000 16.8805
#
#
#
# Elastic Compliance Matrix: (Units=1/GPa)
#
#
# Indices 1 2 3 4 5 6 
#
# 1 0.015739 -0.004598 -0.003673 0.000000 0.000000 0.000000
# 2 -0.004598 0.010834 -0.001377 0.000000 0.000000 0.000000
# 3 -0.003673 -0.001377 0.013773 0.000000 0.000000 0.000000
# 4 0.000000 0.000000 0.000000 0.091151 0.000000 0.000000
# 5 0.000000 0.000000 0.000000 0.000000 0.086052 0.000000
# 6 0.000000 0.000000 0.000000 0.000000 0.000000 0.059240
#
#
# Mechanical properties :
#
#
# Convention : Reuss Voigt Hill
#
# Bulk Modulus (GPa) = 47.50693 48.81705 48.16199
# Shear Modulus (GPa) = 16.49604 20.49855 18.49730
#
# Velocity S-wave (km/s) = 3.08042 3.43385 3.26192
# Velocity P-wave (km/s) = 6.32291 6.61836 6.47232
#
# Compressibility (1/GPa) = 0.02104956
#
# Stress axis : x y z
#
# Youngs Moduli (GPa) = 63.53574 92.29782 72.60634
#
# Poissons Ratio (x) = 0.42441 0.26667
# Poissons Ratio (y) = 0.29215 0.10001
# Poissons Ratio (z) = 0.23336 0.12713
#
# Static dielectric constant tensor:
#      x y z
#    x 1.570950 0.000000 0.000000 
#    y 0.000000 1.637480 0.000000 
#    z 0.000000 0.000000 1.578880 
# 
# From -- ./inp_files/27051.got.cif
#   From: 2010.05.17/outbox.cif.g08.bks.cpg/sg58_14_cif.got.tgz:27051.got - 2010.06.03 14:20:14.
