data_PCOD9443703
_publ_section_title
;
Structure prediction by ZEFSAII (Michael W. Deem and Ramdas Pophale) SiO2 
 PCOD9443703
Probable space group: P N N M
;
_chemical_formula_sum "Si O2"
_cell_formula_units_Z 48
_cell_length_a 33.375583
_cell_length_b 9.641022
_cell_length_c 7.654547
_cell_angle_alpha 90.000000
_cell_angle_beta 90.000000
_cell_angle_gamma 90.000000
_cell_volume 2463.039794
_symmetry_space_group_name_H-M "P N N M"
_symmetry_group_IT_number 58
_symmetry_cell_setting 'orthorhombic'
loop_
_space_group_symop_operation_xyz
x,y,z
-x,-y,z
1/2+x,1/2-y,1/2-z
1/2-x,1/2+y,1/2-z
-x,-y,-z
x,y,-z
1/2-x,1/2+y,1/2+z
1/2+x,1/2-y,1/2+z
loop_
_atom_site_type_symbol
_atom_site_label
_atom_site_fract_x
_atom_site_fract_y
_atom_site_fract_z
Si Si1 0.198934 0.072335 0.203483
Si Si2 0.861535 0.013102 0.500000
Si Si3 0.071518 0.190174 0.500000
Si Si4 0.232750 0.771971 0.797119
Si Si5 0.541975 0.918733 0.295243
Si Si6 0.508241 0.337782 0.702362
Si Si7 0.102224 0.480572 0.500000
Si Si8 0.172379 0.686173 0.500000
O O1 0.161848 0.045685 0.330858
O O2 0.224175 0.208227 0.252053
O O3 0.227667 0.937203 0.230259
O O4 0.187489 0.075782 0.000000
O O5 0.906102 0.955859 0.500000
O O6 0.856298 0.178395 0.500000
O O7 0.043305 0.204259 0.667788
O O8 0.103133 0.314680 0.500000
O O9 0.200953 0.700589 0.667981
O O10 0.223955 0.743983 0.000000
O O11 0.552045 0.937268 0.500000
O O12 0.530339 0.758177 0.263107
O O13 0.576392 0.969980 0.167442
O O14 0.500000 0.000000 0.262571
O O15 0.500000 0.500000 0.726153
O O16 0.519353 0.312655 0.500000
O O17 0.145254 0.551289 0.500000
#
# Coordination Sequence:
#
# PCOD9443703 Si02
#       8
#     8   4   4   8   8   8   4   4
#     4  10  20  37  62  87 113 146 189 236 286 343
#     4  10  24  40  54  85 122 158 192 236 296 346
#     4  12  24  38  58  85 124 156 194 244 292 346
#     4  10  20  37  62  87 114 146 189 238 284 344
#     4  10  20  38  62  86 115 155 198 245 291 338
#     4  10  22  39  61  90 116 151 202 245 290 345
#     4  12  24  37  58  86 122 156 198 240 292 346
#     4  10  24  40  54  86 122 157 194 238 290 348
#
# _framework density 19.488115000000001
#
# number of rings (size 3 to 8) (size 9 to 14) (size 15 to 20)
#    0.000    1.667    3.333    1.000    2.333    2.667 
#    0.000    0.000    0.000    0.000    0.000    0.000 
#    0.000    0.000    0.000    0.000    0.000    0.000 
#
# Total GULP energy -268160.717253 kJ/mol
# GULP energy per Si atom -5586.681609 kJ/mol
# Density = 1.944376 g / cm^3
# Si number density = 19.488115 Si / 1000 Ang^3
#
#
#
# Elastic Constant Matrix: (Units=GPa)
#
#
# Indices 1 2 3 4 5 6 
#
# 1 8.5185 -8.7675 7.4410 0.0000 0.0000 0.0000
# 2 -8.7675 43.8367 10.2332 0.0000 0.0000 0.0000
# 3 7.4410 10.2332 82.1480 0.0000 0.0000 0.0000
# 4 0.0000 0.0000 0.0000 50.0777 0.0000 0.0000
# 5 0.0000 0.0000 0.0000 0.0000 -2.9276 0.0000
# 6 0.0000 0.0000 0.0000 0.0000 0.0000 36.0938
#
#
#
# Elastic Compliance Matrix: (Units=1/GPa)
#
#
# Indices 1 2 3 4 5 6 
#
# 1 0.177421 0.040412 -0.021105 0.000000 0.000000 0.000000
# 2 0.040412 0.032700 -0.007734 0.000000 0.000000 0.000000
# 3 -0.021105 -0.007734 0.015048 0.000000 0.000000 0.000000
# 4 0.000000 0.000000 0.000000 0.019969 0.000000 0.000000
# 5 0.000000 0.000000 0.000000 0.000000 -0.341572 0.000000
# 6 0.000000 0.000000 0.000000 0.000000 0.000000 0.027706
#
#
# Mechanical properties :
#
#
# Convention : Reuss Voigt Hill
#
# Bulk Modulus (GPa) = 4.02716 16.92405 10.47560
# Shear Modulus (GPa) = -549.25103 25.02189 -262.11457
#
# Velocity S-wave (km/s) = -16.80627 3.58712 -11.60998
# Velocity P-wave (km/s) = 19.35278 5.08525 13.20361
#
# Compressibility (1/GPa) = 0.24831411
#
# Stress axis : x y z
#
# Youngs Moduli (GPa) = 5.63633 30.58119 66.45288
#
# Poissons Ratio (x) = -1.23583 1.40248
# Poissons Ratio (y) = -0.22777 0.51394
# Poissons Ratio (z) = 0.11895 0.23651
#
# Static dielectric constant tensor:
#      x y z
#    x 1.626440 0.000000 0.000000 
#    y 0.000000 1.706140 0.000000 
#    z 0.000000 0.000000 1.666780 
# 
# From -- ./inp_files/10820.got.cif
#   From: 2010.05.17/outbox.cif.g08.bks.cpg/sg58_6_cif.got.tgz:10820.got - 2010.06.03 14:20:14.
