data_PCOD9443570
_publ_section_title
;
Structure prediction by ZEFSAII (Michael W. Deem and Ramdas Pophale) SiO2 
 PCOD9443570
Probable space group: P N N M
;
_chemical_formula_sum "Si O2"
_cell_formula_units_Z 28
_cell_length_a 7.737265
_cell_length_b 12.794713
_cell_length_c 12.228732
_cell_angle_alpha 90.000000
_cell_angle_beta 90.000000
_cell_angle_gamma 90.000000
_cell_volume 1210.596593
_symmetry_space_group_name_H-M "P N N M"
_symmetry_group_IT_number 58
_symmetry_cell_setting 'orthorhombic'
loop_
_space_group_symop_operation_xyz
x,y,z
-x,-y,z
1/2+x,1/2-y,1/2-z
1/2-x,1/2+y,1/2-z
-x,-y,-z
x,y,-z
1/2-x,1/2+y,1/2+z
1/2+x,1/2-y,1/2+z
loop_
_atom_site_type_symbol
_atom_site_label
_atom_site_fract_x
_atom_site_fract_y
_atom_site_fract_z
Si Si1 0.000000 0.500000 0.219846
Si Si2 0.314511 0.803500 0.196883
Si Si3 0.849880 0.925167 0.340291
Si Si4 0.080782 0.163087 0.126162
O O1 0.935341 0.595950 0.296013
O O2 0.843603 0.462472 0.141844
O O3 0.377906 0.697582 0.136083
O O4 0.122475 0.822827 0.153583
O O5 0.318668 0.763074 0.323471
O O6 0.855298 0.927260 0.206760
O O7 0.000000 0.000000 0.380393
O O8 0.108766 0.145781 0.000000
#
# Coordination Sequence:
#
# PCOD9443570 Si02
#       4
#     4   8   8   8
#     4  12  18  38  64  86 124 170 196 258 312 366
#     4  10  20  38  60  89 123 159 209 249 310 360
#     4  10  20  36  63  86 124 162 200 259 311 359
#     4  10  21  40  61  88 127 160 202 261 309 365
#
# _framework density 23.129090999999999
#
# number of rings (size 3 to 8) (size 9 to 14) (size 15 to 20)
#    1.714    0.000    5.714    0.000    0.000    0.571 
#    0.000    7.857    0.000    0.857    0.000    0.000 
#    0.000    0.000    0.000    0.000    0.000    0.000 
#
# Total GULP energy -155942.396712 kJ/mol
# GULP energy per Si atom -5569.371311 kJ/mol
# Density = 2.307645 g / cm^3
# Si number density = 23.129091 Si / 1000 Ang^3
#
#
#
# Elastic Constant Matrix: (Units=GPa)
#
#
# Indices 1 2 3 4 5 6 
#
# 1 102.8313 40.9176 6.5142 0.0000 0.0000 0.0000
# 2 40.9176 141.9502 -8.9430 0.0000 0.0000 0.0000
# 3 6.5142 -8.9430 125.7742 0.0000 0.0000 0.0000
# 4 0.0000 0.0000 0.0000 -1.5660 0.0000 0.0000
# 5 0.0000 0.0000 0.0000 0.0000 7.0538 0.0000
# 6 0.0000 0.0000 0.0000 0.0000 0.0000 33.9397
#
#
#
# Elastic Compliance Matrix: (Units=1/GPa)
#
#
# Indices 1 2 3 4 5 6 
#
# 1 0.011065 -0.003240 -0.000803 0.000000 0.000000 0.000000
# 2 -0.003240 0.008025 0.000738 0.000000 0.000000 0.000000
# 3 -0.000803 0.000738 0.008045 0.000000 0.000000 0.000000
# 4 0.000000 0.000000 0.000000 -0.638585 0.000000 0.000000
# 5 0.000000 0.000000 0.000000 0.000000 0.141768 0.000000
# 6 0.000000 0.000000 0.000000 0.000000 0.000000 0.029464
#
#
# Mechanical properties :
#
#
# Convention : Reuss Voigt Hill
#
# Bulk Modulus (GPa) = 48.72183 49.72593 49.22388
# Shear Modulus (GPa) = -11.71601 30.02330 9.15364
#
# Velocity S-wave (km/s) = -2.25311 3.60679 1.99154
# Velocity P-wave (km/s) = 3.78712 6.23628 5.15914
#
# Compressibility (1/GPa) = 0.02052468
#
# Stress axis : x y z
#
# Youngs Moduli (GPa) = 90.37650 124.60736 124.30269
#
# Poissons Ratio (x) = 0.40374 0.09987
# Poissons Ratio (y) = 0.29283 -0.09179
# Poissons Ratio (z) = 0.07261 -0.09201
#
# Static dielectric constant tensor:
#      x y z
#    x 1.922890 0.000000 0.000000 
#    y 0.000000 1.941870 0.000000 
#    z 0.000000 0.000000 1.855540 
# 
# From -- ./inp_files/12270.got.cif
#   From: 2010.05.17/outbox.cif.g08.bks.cpg/sg58_7_cif.got.tgz:12270.got - 2010.06.03 14:20:14.
