data_PCOD9443655
_publ_section_title
;
Structure prediction by ZEFSAII (Michael W. Deem and Ramdas Pophale) SiO2 
 PCOD9443655
Probable space group: P N N M
;
_chemical_formula_sum "Si O2"
_cell_formula_units_Z 48
_cell_length_a 18.605123
_cell_length_b 9.622105
_cell_length_c 15.051084
_cell_angle_alpha 90.000000
_cell_angle_beta 90.000000
_cell_angle_gamma 90.000000
_cell_volume 2694.451786
_symmetry_space_group_name_H-M "P N N M"
_symmetry_group_IT_number 58
_symmetry_cell_setting 'orthorhombic'
loop_
_space_group_symop_operation_xyz
x,y,z
-x,-y,z
1/2+x,1/2-y,1/2-z
1/2-x,1/2+y,1/2-z
-x,-y,-z
x,y,-z
1/2-x,1/2+y,1/2+z
1/2+x,1/2-y,1/2+z
loop_
_atom_site_type_symbol
_atom_site_label
_atom_site_fract_x
_atom_site_fract_y
_atom_site_fract_z
Si Si1 0.323515 0.007978 0.354968
Si Si2 0.830971 0.162410 0.141416
Si Si3 0.042996 0.860773 0.000000
Si Si4 0.678031 0.646843 0.849904
Si Si5 0.577522 0.941395 0.000000
Si Si6 0.309281 0.024103 0.146696
Si Si7 0.567092 0.606828 0.000000
Si Si8 0.933891 0.603595 0.000000
O O1 0.317537 0.172943 0.372031
O O2 0.330852 0.990696 0.248289
O O3 0.247619 0.939786 0.375631
O O4 0.384313 0.933409 0.414361
O O5 0.902328 0.139819 0.083648
O O6 0.842056 0.134821 0.246249
O O7 0.761305 0.065467 0.119815
O O8 0.000000 0.000000 0.000000
O O9 0.978856 0.746577 0.000000
O O10 0.700776 0.808834 0.862209
O O11 0.614501 0.590190 0.911244
O O12 0.623266 0.996057 0.916874
O O13 0.500000 0.000000 0.000000
O O14 0.562094 0.775708 0.000000
O O15 0.500000 0.500000 0.000000
O O16 0.000000 0.500000 0.000000
#
# Coordination Sequence:
#
# PCOD9443655 Si02
#       8
#     8   8   4   8   4   8   4   4
#     4  10  20  37  60  85 110 149 194 234 280 337
#     4  10  20  39  58  84 115 147 193 235 279 339
#     4  12  27  39  55  87 121 158 187 238 299 349
#     4   9  20  37  61  84 112 149 192 236 281 336
#     4  10  21  37  53  82 113 146 186 225 282 335
#     4   9  20  37  59  84 113 150 189 237 280 336
#     4  10  21  37  55  82 113 146 184 232 282 327
#     4  12  23  39  57  85 119 152 193 234 289 349
#
# _framework density 17.814384
#
# number of rings (size 3 to 8) (size 9 to 14) (size 15 to 20)
#    0.000    2.000    1.667    1.000    2.333    2.667 
#    3.000    0.000    0.000    0.000    0.000    0.000 
#    0.000    0.000    0.000    0.000    0.000    0.000 
#
# Total GULP energy -267223.196213 kJ/mol
# GULP energy per Si atom -5567.149921 kJ/mol
# Density = 1.777384 g / cm^3
# Si number density = 17.814384 Si / 1000 Ang^3
#
#
#
# Elastic Constant Matrix: (Units=GPa)
#
#
# Indices 1 2 3 4 5 6 
#
# 1 181.4440 97.8419 98.7973 0.0000 0.0000 0.0000
# 2 97.8419 105.1550 62.3453 0.0000 0.0000 0.0000
# 3 98.7973 62.3453 93.6019 0.0000 0.0000 0.0000
# 4 0.0000 0.0000 0.0000 20.9141 0.0000 0.0000
# 5 0.0000 0.0000 0.0000 0.0000 -161.6632 0.0000
# 6 0.0000 0.0000 0.0000 0.0000 0.0000 46.8810
#
#
#
# Elastic Compliance Matrix: (Units=1/GPa)
#
#
# Indices 1 2 3 4 5 6 
#
# 1 0.016385 -0.008249 -0.011799 0.000000 0.000000 0.000000
# 2 -0.008249 0.019870 -0.004527 0.000000 0.000000 0.000000
# 3 -0.011799 -0.004527 0.026153 0.000000 0.000000 0.000000
# 4 0.000000 0.000000 0.000000 0.047815 0.000000 0.000000
# 5 0.000000 0.000000 0.000000 0.000000 -0.006186 0.000000
# 6 0.000000 0.000000 0.000000 0.000000 0.000000 0.021331
#
#
# Mechanical properties :
#
#
# Convention : Reuss Voigt Hill
#
# Bulk Modulus (GPa) = 75.44048 99.79666 87.61857
# Shear Modulus (GPa) = 27.94275 -10.69254 8.62511
#
# Velocity S-wave (km/s) = 3.96479 -2.45259 2.20276
# Velocity P-wave (km/s) = 7.96237 6.93697 7.46729
#
# Compressibility (1/GPa) = 0.01325548
#
# Stress axis : x y z
#
# Youngs Moduli (GPa) = 61.03323 50.32820 38.23612
#
# Poissons Ratio (x) = 0.41517 0.45116
# Poissons Ratio (y) = 0.50348 0.17311
# Poissons Ratio (z) = 0.72015 0.22785
#
# Static dielectric constant tensor:
#      x y z
#    x 1.545410 0.000000 0.000000 
#    y 0.000000 1.601330 0.000000 
#    z 0.000000 0.000000 1.655610 
# 
# From -- ./inp_files/22800.got.cif
#   From: 2010.05.17/outbox.cif.g08.bks.cpg/sg58_12_cif.got.tgz:22800.got - 2010.06.03 14:20:14.
