data_PCOD9443770
_publ_section_title
;
Structure prediction by ZEFSAII (Michael W. Deem and Ramdas Pophale) SiO2 
 PCOD9443770
Probable space group: P N N M
;
_chemical_formula_sum "Si O2"
_cell_formula_units_Z 48
_cell_length_a 30.635933
_cell_length_b 10.656009
_cell_length_c 7.847896
_cell_angle_alpha 90.000000
_cell_angle_beta 90.000000
_cell_angle_gamma 90.000000
_cell_volume 2561.998840
_symmetry_space_group_name_H-M "P N N M"
_symmetry_group_IT_number 58
_symmetry_cell_setting 'orthorhombic'
loop_
_space_group_symop_operation_xyz
x,y,z
-x,-y,z
1/2+x,1/2-y,1/2-z
1/2-x,1/2+y,1/2-z
-x,-y,-z
x,y,-z
1/2-x,1/2+y,1/2+z
1/2+x,1/2-y,1/2+z
loop_
_atom_site_type_symbol
_atom_site_label
_atom_site_fract_x
_atom_site_fract_y
_atom_site_fract_z
Si Si1 0.482371 0.800392 0.500000
Si Si2 0.378686 0.171992 0.195690
Si Si3 0.282057 0.206020 0.698947
Si Si4 0.035343 0.111419 0.302042
Si Si5 0.072317 0.546103 0.000000
Si Si6 0.621588 0.539379 0.204725
Si Si7 0.279646 0.486374 0.301871
O O1 0.477870 0.716657 0.331330
O O2 0.528902 0.868794 0.500000
O O3 0.444510 0.904456 0.500000
O O4 0.326159 0.164992 0.206721
O O5 0.400264 0.080388 0.331788
O O6 0.389346 0.316098 0.248342
O O7 0.392737 0.151818 0.000000
O O8 0.293966 0.222043 0.500000
O O9 0.268395 0.345204 0.761648
O O10 0.245476 0.100142 0.714074
O O11 0.037413 0.154145 0.500000
O O12 0.082008 0.051957 0.251745
O O13 0.000000 0.000000 0.295079
O O14 0.668139 0.503654 0.282275
O O15 0.626763 0.537513 0.000000
O O16 0.267619 0.493568 0.500000
#
# Coordination Sequence:
#
# PCOD9443770 Si02
#       7
#     4   8   8   8   4   8   8
#     4  11  25  40  60  86 127 155 200 250 302 357
#     4  10  20  38  64  86 114 156 201 241 294 355
#     4  10  20  38  59  85 120 153 201 253 293 360
#     4  10  21  39  62  91 120 152 198 250 306 362
#     4  11  24  42  58  88 118 162 206 244 289 358
#     4   9  19  35  59  87 114 147 193 247 300 355
#     4  10  21  35  56  85 116 156 198 244 302 355
#
# _framework density 18.735372999999999
#
# number of rings (size 3 to 8) (size 9 to 14) (size 15 to 20)
#    0.000    2.000    0.833    2.250    2.333    4.667 
#    3.000    1.667    0.000    0.000    0.000    0.000 
#    0.000    0.000    0.000    0.000    0.000    0.000 
#
# Total GULP energy -268015.697328 kJ/mol
# GULP energy per Si atom -5583.660361 kJ/mol
# Density = 1.869273 g / cm^3
# Si number density = 18.735373 Si / 1000 Ang^3
#
#
#
# Elastic Constant Matrix: (Units=GPa)
#
#
# Indices 1 2 3 4 5 6 
#
# 1 52.4880 43.0467 18.2286 0.0000 0.0000 0.0000
# 2 43.0467 88.2900 39.0419 0.0000 0.0000 0.0000
# 3 18.2286 39.0419 73.6888 0.0000 0.0000 0.0000
# 4 0.0000 0.0000 0.0000 -11.2312 0.0000 0.0000
# 5 0.0000 0.0000 0.0000 0.0000 191.7931 0.0000
# 6 0.0000 0.0000 0.0000 0.0000 0.0000 33.1364
#
#
#
# Elastic Compliance Matrix: (Units=1/GPa)
#
#
# Indices 1 2 3 4 5 6 
#
# 1 0.031758 -0.015684 0.000454 0.000000 0.000000 0.000000
# 2 -0.015684 0.022538 -0.008061 0.000000 0.000000 0.000000
# 3 0.000454 -0.008061 0.017729 0.000000 0.000000 0.000000
# 4 0.000000 0.000000 0.000000 -0.089037 0.000000 0.000000
# 5 0.000000 0.000000 0.000000 0.000000 0.005214 0.000000
# 6 0.000000 0.000000 0.000000 0.000000 0.000000 0.030178
#
#
# Mechanical properties :
#
#
# Convention : Reuss Voigt Hill
#
# Bulk Modulus (GPa) = 39.30587 46.12237 42.71412
# Shear Modulus (GPa) = 68.07924 50.34962 59.21443
#
# Velocity S-wave (km/s) = 6.03458 5.18965 5.62799
# Velocity P-wave (km/s) = 8.34146 7.78339 8.06725
#
# Compressibility (1/GPa) = 0.02544149
#
# Stress axis : x y z
#
# Youngs Moduli (GPa) = 31.48859 44.36920 56.40381
#
# Poissons Ratio (x) = 0.69591 -0.02561
# Poissons Ratio (y) = 0.49388 0.45469
# Poissons Ratio (z) = -0.01430 0.35767
#
# Static dielectric constant tensor:
#      x y z
#    x 1.626770 0.000000 0.000000 
#    y 0.000000 1.636990 0.000000 
#    z 0.000000 0.000000 1.656370 
# 
# From -- ./inp_files/10767.got.cif
#   From: 2010.05.17/outbox.cif.g08.bks.cpg/sg58_6_cif.got.tgz:10767.got - 2010.06.03 14:20:14.
