data_PCOD9443119
_publ_section_title
;
Structure prediction by ZEFSAII (Michael W. Deem and Ramdas Pophale) SiO2 
 PCOD9443119
Probable space group: P N N M
;
_chemical_formula_sum "Si O2"
_cell_formula_units_Z 64
_cell_length_a 9.400479
_cell_length_b 15.882169
_cell_length_c 22.435864
_cell_angle_alpha 90.000000
_cell_angle_beta 90.000000
_cell_angle_gamma 90.000000
_cell_volume 3349.674409
_symmetry_space_group_name_H-M "P N N M"
_symmetry_group_IT_number 58
_symmetry_cell_setting 'orthorhombic'
loop_
_space_group_symop_operation_xyz
x,y,z
-x,-y,z
1/2+x,1/2-y,1/2-z
1/2-x,1/2+y,1/2-z
-x,-y,-z
x,y,-z
1/2-x,1/2+y,1/2+z
1/2+x,1/2-y,1/2+z
loop_
_atom_site_type_symbol
_atom_site_label
_atom_site_fract_x
_atom_site_fract_y
_atom_site_fract_z
Si Si1 0.702338 0.597693 0.260280
Si Si2 0.792001 0.891950 0.429939
Si Si3 0.962537 0.869975 0.318814
Si Si4 0.727699 0.918782 0.222270
Si Si5 0.983974 0.283937 0.886601
Si Si6 0.479229 0.596283 0.630595
Si Si7 0.130778 0.442583 0.928750
Si Si8 0.525016 0.199062 0.247101
O O1 0.601569 0.580923 0.203478
O O2 0.798526 0.517129 0.271508
O O3 0.596475 0.601523 0.316434
O O4 0.809203 0.674470 0.253608
O O5 0.816438 0.880469 0.500000
O O6 0.922461 0.871545 0.387202
O O7 0.657675 0.831231 0.411728
O O8 0.757529 0.991334 0.419643
O O9 0.825031 0.894853 0.279371
O O10 0.996677 0.777532 0.295311
O O11 0.581630 0.870687 0.223478
O O12 0.827459 0.901477 0.164835
O O13 0.002246 0.185125 0.904967
O O14 0.112111 0.349139 0.902934
O O15 0.981750 0.282538 0.814999
O O16 0.500000 0.500000 0.604819
O O17 0.000000 0.500000 0.905070
O O18 0.112541 0.433290 0.000000
#
# Coordination Sequence:
#
# PCOD9443119 Si02
#       8
#     8   8   8   8   8   8   8   8
#     4  10  21  33  49  77 118 153 183 228 294 360
#     4  10  21  37  59  84 117 163 210 244 284 357
#     4  11  20  35  53  79 117 151 190 239 294 346
#     4  10  20  35  50  77 114 154 184 228 294 362
#     4  11  18  30  56  82 114 148 198 248 303 342
#     4   9  19  35  50  76 119 155 182 233 301 366
#     4   8  17  32  50  78 111 146 192 239 274 326
#     4  12  21  31  54  87 112 146 198 243 295 367
#
# _framework density 19.106335000000001
#
# number of rings (size 3 to 8) (size 9 to 14) (size 15 to 20)
#    0.000    1.875    3.750    4.125    1.750    1.000 
#    0.000    0.000    0.000    4.500    0.000    0.000 
#    0.000   14.000    0.000    0.000    0.000    0.500 
#
# Total GULP energy -356710.016683 kJ/mol
# GULP energy per Si atom -5573.594011 kJ/mol
# Density = 1.906285 g / cm^3
# Si number density = 19.106335 Si / 1000 Ang^3
#
#
#
# Elastic Constant Matrix: (Units=GPa)
#
#
# Indices 1 2 3 4 5 6 
#
# 1 60.4639 26.1663 16.3742 0.0000 0.0000 0.0000
# 2 26.1663 140.7124 44.4291 0.0000 0.0000 0.0000
# 3 16.3742 44.4291 60.0262 0.0000 0.0000 0.0000
# 4 0.0000 0.0000 0.0000 15.2698 0.0000 0.0000
# 5 0.0000 0.0000 0.0000 0.0000 19.0492 0.0000
# 6 0.0000 0.0000 0.0000 0.0000 0.0000 28.7674
#
#
#
# Elastic Compliance Matrix: (Units=1/GPa)
#
#
# Indices 1 2 3 4 5 6 
#
# 1 0.018461 -0.002405 -0.003256 0.000000 0.000000 0.000000
# 2 -0.002405 0.009587 -0.006440 0.000000 0.000000 0.000000
# 3 -0.003256 -0.006440 0.022314 0.000000 0.000000 0.000000
# 4 0.000000 0.000000 0.000000 0.065489 0.000000 0.000000
# 5 0.000000 0.000000 0.000000 0.000000 0.052496 0.000000
# 6 0.000000 0.000000 0.000000 0.000000 0.000000 0.034762
#
#
# Mechanical properties :
#
#
# Convention : Reuss Voigt Hill
#
# Bulk Modulus (GPa) = 38.22492 48.34906 43.28699
# Shear Modulus (GPa) = 21.18362 24.23280 22.70821
#
# Velocity S-wave (km/s) = 3.33336 3.56520 3.45123
# Velocity P-wave (km/s) = 5.90465 6.50444 6.21179
#
# Compressibility (1/GPa) = 0.02616094
#
# Stress axis : x y z
#
# Youngs Moduli (GPa) = 54.16742 104.30417 44.81433
#
# Poissons Ratio (x) = 0.25085 0.14591
# Poissons Ratio (y) = 0.13027 0.28861
# Poissons Ratio (z) = 0.17636 0.67173
#
# Static dielectric constant tensor:
#      x y z
#    x 1.687220 0.000000 0.000000 
#    y 0.000000 1.700450 0.000000 
#    z 0.000000 0.000000 1.646240 
# 
# From -- ./inp_files/29098.got.cif
#   From: 2010.05.17/outbox.cif.g08.bks.cpg/sg58_15_cif.got.tgz:29098.got - 2010.06.03 14:20:14.
