data_PCOD9443017
_publ_section_title
;
Structure prediction by ZEFSAII (Michael W. Deem and Ramdas Pophale) SiO2 
 PCOD9443017
Probable space group: P N N M
;
_chemical_formula_sum "Si O2"
_cell_formula_units_Z 64
_cell_length_a 17.751864
_cell_length_b 15.924048
_cell_length_c 10.951307
_cell_angle_alpha 90.000000
_cell_angle_beta 90.000000
_cell_angle_gamma 90.000000
_cell_volume 3095.732267
_symmetry_space_group_name_H-M "P N N M"
_symmetry_group_IT_number 58
_symmetry_cell_setting 'orthorhombic'
loop_
_space_group_symop_operation_xyz
x,y,z
-x,-y,z
1/2+x,1/2-y,1/2-z
1/2-x,1/2+y,1/2-z
-x,-y,-z
x,y,-z
1/2-x,1/2+y,1/2+z
1/2+x,1/2-y,1/2+z
loop_
_atom_site_type_symbol
_atom_site_label
_atom_site_fract_x
_atom_site_fract_y
_atom_site_fract_z
Si Si1 0.800248 0.375185 0.641987
Si Si2 0.343054 0.414481 0.366391
Si Si3 0.179217 0.327759 0.639233
Si Si4 0.925852 0.246547 0.631248
Si Si5 0.983413 0.215303 0.131676
Si Si6 0.919211 0.043571 0.634733
Si Si7 0.917023 0.505796 0.356215
Si Si8 0.150173 0.196400 0.855146
O O1 0.794293 0.398937 0.500000
O O2 0.856635 0.441473 0.700684
O O3 0.715263 0.367780 0.683456
O O4 0.842572 0.285033 0.646960
O O5 0.341788 0.457361 0.500000
O O6 0.263429 0.367438 0.350767
O O7 0.411619 0.346593 0.372130
O O8 0.364410 0.469059 0.248931
O O9 0.174379 0.290703 0.500000
O O10 0.120056 0.403470 0.645719
O O11 0.161485 0.268653 0.754006
O O12 0.954503 0.278035 0.500000
O O13 0.972344 0.272178 0.749678
O O14 0.927872 0.145437 0.627110
O O15 0.063154 0.168463 0.148176
O O16 0.986792 0.258936 0.000000
O O17 0.892360 0.015826 0.500000
O O18 0.000000 0.000000 0.655612
O O19 0.924927 0.481695 0.500000
O O20 0.000000 0.500000 0.301823
O O21 0.164354 0.219445 0.000000
#
# Coordination Sequence:
#
# PCOD9443017 Si02
#       8
#     8   8   8   8   8   8   8   8
#     4   9  18  34  57  82 107 143 194 241 279 327
#     4   9  18  34  51  74 108 144 182 221 273 333
#     4  10  21  37  58  85 114 143 182 240 295 337
#     4   9  17  30  52  76  97 133 184 229 267 316
#     4   9  18  31  48  75 111 145 175 214 265 328
#     4   9  17  30  48  75 109 144 182 224 269 324
#     4   9  19  36  58  85 113 144 190 248 296 330
#     4  10  20  34  55  83 114 149 187 228 276 338
#
# _framework density 20.673622000000002
#
# number of rings (size 3 to 8) (size 9 to 14) (size 15 to 20)
#    0.000    2.750    0.000    1.500    1.750    2.250 
#    4.500    0.000    0.000    1.875    0.000    0.000 
#    0.000    0.000    0.000    0.000    0.000    0.000 
#
# Total GULP energy -356290.011242 kJ/mol
# GULP energy per Si atom -5567.031426 kJ/mol
# Density = 2.062657 g / cm^3
# Si number density = 20.673622 Si / 1000 Ang^3
#
#
#
# Elastic Constant Matrix: (Units=GPa)
#
#
# Indices 1 2 3 4 5 6 
#
# 1 143.1952 29.2293 40.8485 0.0000 0.0000 0.0000
# 2 29.2293 56.3415 20.9119 0.0000 0.0000 0.0000
# 3 40.8485 20.9119 141.7206 0.0000 0.0000 0.0000
# 4 0.0000 0.0000 0.0000 7.5035 0.0000 0.0000
# 5 0.0000 0.0000 0.0000 0.0000 22.8288 0.0000
# 6 0.0000 0.0000 0.0000 0.0000 0.0000 12.5884
#
#
#
# Elastic Compliance Matrix: (Units=1/GPa)
#
#
# Indices 1 2 3 4 5 6 
#
# 1 0.008243 -0.003591 -0.001846 0.000000 0.000000 0.000000
# 2 -0.003591 0.020342 -0.001966 0.000000 0.000000 0.000000
# 3 -0.001846 -0.001966 0.007878 0.000000 0.000000 0.000000
# 4 0.000000 0.000000 0.000000 0.133270 0.000000 0.000000
# 5 0.000000 0.000000 0.000000 0.000000 0.043804 0.000000
# 6 0.000000 0.000000 0.000000 0.000000 0.000000 0.079438
#
#
# Mechanical properties :
#
#
# Convention : Reuss Voigt Hill
#
# Bulk Modulus (GPa) = 46.17678 58.13739 52.15709
# Shear Modulus (GPa) = 15.87290 25.26866 20.57078
#
# Velocity S-wave (km/s) = 2.77390 3.49988 3.15782
# Velocity P-wave (km/s) = 5.71349 6.67194 6.21123
#
# Compressibility (1/GPa) = 0.02165590
#
# Stress axis : x y z
#
# Youngs Moduli (GPa) = 121.31303 49.15963 126.92949
#
# Poissons Ratio (x) = 0.17655 0.23431
# Poissons Ratio (y) = 0.43567 0.24960
# Poissons Ratio (z) = 0.22395 0.09667
#
# Static dielectric constant tensor:
#      x y z
#    x 1.773540 0.000000 0.000000 
#    y 0.000000 1.768170 0.000000 
#    z 0.000000 0.000000 1.814490 
# 
# From -- ./inp_files/15920.got.cif
#   From: 2010.05.17/outbox.cif.g08.bks.cpg/sg58_8_cif.got.tgz:15920.got - 2010.06.03 14:20:14.
