data_PCOD9443719
_publ_section_title
;
Structure prediction by ZEFSAII (Michael W. Deem and Ramdas Pophale) SiO2 
 PCOD9443719
Probable space group: P N N M
;
_chemical_formula_sum "Si O2"
_cell_formula_units_Z 44
_cell_length_a 13.716389
_cell_length_b 9.733363
_cell_length_c 16.287311
_cell_angle_alpha 90.000000
_cell_angle_beta 90.000000
_cell_angle_gamma 90.000000
_cell_volume 2174.463404
_symmetry_space_group_name_H-M "P N N M"
_symmetry_group_IT_number 58
_symmetry_cell_setting 'orthorhombic'
loop_
_space_group_symop_operation_xyz
x,y,z
-x,-y,z
1/2+x,1/2-y,1/2-z
1/2-x,1/2+y,1/2-z
-x,-y,-z
x,y,-z
1/2-x,1/2+y,1/2+z
1/2+x,1/2-y,1/2+z
loop_
_atom_site_type_symbol
_atom_site_label
_atom_site_fract_x
_atom_site_fract_y
_atom_site_fract_z
Si Si1 0.753285 0.870167 0.090920
Si Si2 0.667805 0.009610 0.240925
Si Si3 0.789553 0.056448 0.593579
Si Si4 0.000000 0.000000 0.650182
Si Si5 0.517559 0.343042 0.409726
Si Si6 0.497823 0.214807 0.247544
O O1 0.738243 0.978489 0.164121
O O2 0.702069 0.722471 0.102844
O O3 0.866434 0.829770 0.088304
O O4 0.725893 0.924557 0.000000
O O5 0.585540 0.893285 0.225969
O O6 0.723918 0.006509 0.328623
O O7 0.605178 0.149400 0.236064
O O8 0.751799 0.031207 0.500000
O O9 0.898287 0.995585 0.601273
O O10 0.993546 0.138945 0.703609
O O11 0.500000 0.500000 0.385649
O O12 0.475752 0.322099 0.500000
O O13 0.479089 0.239909 0.343441
#
# Coordination Sequence:
#
# PCOD9443719 Si02
#       6
#     8   8   8   4   8   8
#     4  10  21  42  66  92 130 174 210 262 328 386
#     4  11  24  41  64  97 129 166 212 266 325 385
#     4  11  24  42  67  95 130 172 217 268 325 389
#     4  12  23  42  67  88 132 172 221 262 318 390
#     4  10  20  37  62  91 123 164 213 259 318 384
#     4  11  23  39  64  94 127 169 211 265 327 381
#
# _framework density 20.234876
#
# number of rings (size 3 to 8) (size 9 to 14) (size 15 to 20)
#    0.000    1.273    4.545    1.364    0.000    0.727 
#    0.000    5.455    0.000    0.000    0.000    0.000 
#    0.000    0.000    0.000    0.000    0.000    0.000 
#
# Total GULP energy -245319.802231 kJ/mol
# GULP energy per Si atom -5575.450051 kJ/mol
# Density = 2.018882 g / cm^3
# Si number density = 20.234876 Si / 1000 Ang^3
#
#
#
# Elastic Constant Matrix: (Units=GPa)
#
#
# Indices 1 2 3 4 5 6 
#
# 1 49.5530 3.4413 12.1647 0.0000 0.0000 0.0000
# 2 3.4413 63.6814 31.0529 0.0000 0.0000 0.0000
# 3 12.1647 31.0529 118.0437 0.0000 0.0000 0.0000
# 4 0.0000 0.0000 0.0000 37.8068 0.0000 0.0000
# 5 0.0000 0.0000 0.0000 0.0000 15.5838 0.0000
# 6 0.0000 0.0000 0.0000 0.0000 0.0000 29.3187
#
#
#
# Elastic Compliance Matrix: (Units=1/GPa)
#
#
# Indices 1 2 3 4 5 6 
#
# 1 0.020705 -0.000090 -0.002110 0.000000 0.000000 0.000000
# 2 -0.000090 0.018014 -0.004730 0.000000 0.000000 0.000000
# 3 -0.002110 -0.004730 0.009933 0.000000 0.000000 0.000000
# 4 0.000000 0.000000 0.000000 0.026450 0.000000 0.000000
# 5 0.000000 0.000000 0.000000 0.000000 0.064169 0.000000
# 6 0.000000 0.000000 0.000000 0.000000 0.000000 0.034108
#
#
# Mechanical properties :
#
#
# Convention : Reuss Voigt Hill
#
# Bulk Modulus (GPa) = 28.74151 36.06620 32.40385
# Shear Modulus (GPa) = 25.14632 28.84980 26.99806
#
# Velocity S-wave (km/s) = 3.52905 3.78000 3.65668
# Velocity P-wave (km/s) = 5.55341 6.07566 5.82040
#
# Compressibility (1/GPa) = 0.03479289
#
# Stress axis : x y z
#
# Youngs Moduli (GPa) = 48.29831 55.51134 100.67381
#
# Poissons Ratio (x) = 0.00499 0.21242
# Poissons Ratio (y) = 0.00434 0.47615
# Poissons Ratio (z) = 0.10191 0.26255
#
# Static dielectric constant tensor:
#      x y z
#    x 1.708050 0.000000 0.000000 
#    y 0.000000 1.741360 0.000000 
#    z 0.000000 0.000000 1.765330 
# 
# From -- ./inp_files/26734.got.cif
#   From: 2010.05.17/outbox.cif.g08.bks.cpg/sg58_14_cif.got.tgz:26734.got - 2010.06.03 14:20:14.
