data_PCOD9443331
_publ_section_title
;
Structure prediction by ZEFSAII (Michael W. Deem and Ramdas Pophale) SiO2 
 PCOD9443331
Probable space group: P N N M
;
_chemical_formula_sum "Si O2"
_cell_formula_units_Z 64
_cell_length_a 5.211404
_cell_length_b 30.447526
_cell_length_c 17.840340
_cell_angle_alpha 90.000000
_cell_angle_beta 90.000000
_cell_angle_gamma 90.000000
_cell_volume 2830.804510
_symmetry_space_group_name_H-M "P N N M"
_symmetry_group_IT_number 58
_symmetry_cell_setting 'orthorhombic'
loop_
_space_group_symop_operation_xyz
x,y,z
-x,-y,z
1/2+x,1/2-y,1/2-z
1/2-x,1/2+y,1/2-z
-x,-y,-z
x,y,-z
1/2-x,1/2+y,1/2+z
1/2+x,1/2-y,1/2+z
loop_
_atom_site_type_symbol
_atom_site_label
_atom_site_fract_x
_atom_site_fract_y
_atom_site_fract_z
Si Si1 0.419925 0.045213 0.667837
Si Si2 0.241675 0.921510 0.084379
Si Si3 0.982278 0.632462 0.912637
Si Si4 0.720098 0.783793 0.337594
Si Si5 0.973493 0.700319 0.312872
Si Si6 0.892905 0.146475 0.719815
Si Si7 0.241000 0.637294 0.584741
Si Si8 0.061514 0.944661 0.762501
O O1 0.371252 0.088344 0.616812
O O2 0.179008 0.032821 0.721385
O O3 0.669076 0.055891 0.718228
O O4 0.500000 0.000000 0.625727
O O5 0.023197 0.883569 0.083740
O O6 0.142759 0.952491 0.151820
O O7 0.522840 0.900361 0.099241
O O8 0.246009 0.940755 0.000000
O O9 0.111534 0.680042 0.895531
O O10 0.734436 0.634003 0.859392
O O11 0.929589 0.628167 0.000000
O O12 0.824298 0.736579 0.361683
O O13 0.530717 0.776929 0.267413
O O14 0.943759 0.811453 0.298650
O O15 0.812249 0.659357 0.282151
O O16 0.200716 0.678121 0.359513
O O17 0.042242 0.105665 0.753883
O O18 0.184261 0.652767 0.500000
#
# Coordination Sequence:
#
# PCOD9443331 Si02
#       8
#     8   8   8   8   8   8   8   8
#     4  11  24  42  68  97 120 155 209 264 323 383
#     4  10  20  35  59  91 124 163 201 242 300 360
#     4  10  24  42  61  88 123 162 206 257 324 388
#     4  11  21  36  59  85 114 160 210 255 308 366
#     4  11  21  33  58  84 117 160 211 260 300 351
#     4  10  20  37  58  87 116 163 204 253 301 366
#     4  10  21  34  52  83 123 160 203 251 293 343
#     4  11  20  39  67  91 125 161 201 260 308 377
#
# _framework density 22.608412000000001
#
# number of rings (size 3 to 8) (size 9 to 14) (size 15 to 20)
#    0.000    1.500    3.750    1.875    1.750    1.250 
#    0.000    0.000    0.000    4.500    0.000    0.000 
#    0.000    0.000    0.000    0.000    0.000    0.000 
#
# Total GULP energy -356733.985816 kJ/mol
# GULP energy per Si atom -5573.968528 kJ/mol
# Density = 2.255695 g / cm^3
# Si number density = 22.608412 Si / 1000 Ang^3
#
#
#
# Elastic Constant Matrix: (Units=GPa)
#
#
# Indices 1 2 3 4 5 6 
#
# 1 73.9823 7.3273 11.6602 0.0000 0.0000 0.0000
# 2 7.3273 68.8850 23.9193 0.0000 0.0000 0.0000
# 3 11.6602 23.9193 104.2424 0.0000 0.0000 0.0000
# 4 0.0000 0.0000 0.0000 4.6797 0.0000 0.0000
# 5 0.0000 0.0000 0.0000 0.0000 20.8285 0.0000
# 6 0.0000 0.0000 0.0000 0.0000 0.0000 29.0774
#
#
#
# Elastic Compliance Matrix: (Units=1/GPa)
#
#
# Indices 1 2 3 4 5 6 
#
# 1 0.013824 -0.001014 -0.001314 0.000000 0.000000 0.000000
# 2 -0.001014 0.015848 -0.003523 0.000000 0.000000 0.000000
# 3 -0.001314 -0.003523 0.010548 0.000000 0.000000 0.000000
# 4 0.000000 0.000000 0.000000 0.213687 0.000000 0.000000
# 5 0.000000 0.000000 0.000000 0.000000 0.048011 0.000000
# 6 0.000000 0.000000 0.000000 0.000000 0.000000 0.034391
#
#
# Mechanical properties :
#
#
# Convention : Reuss Voigt Hill
#
# Bulk Modulus (GPa) = 35.06460 36.99149 36.02804
# Shear Modulus (GPa) = 13.98532 24.53065 19.25798
#
# Velocity S-wave (km/s) = 2.48984 3.29754 2.92174
# Velocity P-wave (km/s) = 4.87944 5.55839 5.22995
#
# Compressibility (1/GPa) = 0.02851879
#
# Stress axis : x y z
#
# Youngs Moduli (GPa) = 72.33671 63.09878 94.80158
#
# Poissons Ratio (x) = 0.06400 0.12453
# Poissons Ratio (y) = 0.07338 0.33399
# Poissons Ratio (z) = 0.09502 0.22230
#
# Static dielectric constant tensor:
#      x y z
#    x 1.943700 0.000000 0.000000 
#    y 0.000000 2.021220 0.000000 
#    z 0.000000 0.000000 1.817380 
# 
# From -- ./inp_files/24505.got.cif
#   From: 2010.05.17/outbox.cif.g08.bks.cpg/sg58_13_cif.got.tgz:24505.got - 2010.06.03 14:20:14.
