data_PCOD9443101
_publ_section_title
;
Structure prediction by ZEFSAII (Michael W. Deem and Ramdas Pophale) SiO2 
 PCOD9443101
Probable space group: P N N M
;
_chemical_formula_sum "Si O2"
_cell_formula_units_Z 64
_cell_length_a 13.942433
_cell_length_b 17.813946
_cell_length_c 13.468117
_cell_angle_alpha 90.000000
_cell_angle_beta 90.000000
_cell_angle_gamma 90.000000
_cell_volume 3345.072833
_symmetry_space_group_name_H-M "P N N M"
_symmetry_group_IT_number 58
_symmetry_cell_setting 'orthorhombic'
loop_
_space_group_symop_operation_xyz
x,y,z
-x,-y,z
1/2+x,1/2-y,1/2-z
1/2-x,1/2+y,1/2-z
-x,-y,-z
x,y,-z
1/2-x,1/2+y,1/2+z
1/2+x,1/2-y,1/2+z
loop_
_atom_site_type_symbol
_atom_site_label
_atom_site_fract_x
_atom_site_fract_y
_atom_site_fract_z
Si Si1 0.332810 0.944057 0.117596
Si Si2 0.385542 0.510965 0.114198
Si Si3 0.239612 0.091749 0.885295
Si Si4 0.523863 0.411629 0.385900
Si Si5 0.663223 0.778717 0.209181
Si Si6 0.958577 0.692643 0.379800
Si Si7 0.340019 0.384693 0.267025
Si Si8 0.201049 0.178012 0.384905
O O1 0.416880 0.888765 0.152079
O O2 0.234074 0.902086 0.144968
O O3 0.313059 0.028713 0.155503
O O4 0.347267 0.948172 0.000000
O O5 0.500000 0.500000 0.128506
O O6 0.338790 0.454342 0.192087
O O7 0.349538 0.596525 0.124912
O O8 0.365000 0.488881 0.000000
O O9 0.283687 0.173006 0.874164
O O10 0.131627 0.093734 0.845167
O O11 0.225396 0.070702 0.000000
O O12 0.500000 0.500000 0.388324
O O13 0.518659 0.383546 0.500000
O O14 0.444558 0.375238 0.316002
O O15 0.551595 0.788999 0.184800
O O16 0.686001 0.691100 0.211032
O O17 0.709474 0.811943 0.310607
O O18 0.979482 0.691602 0.500000
O O19 0.877196 0.756422 0.365183
O O20 0.230994 0.186042 0.500000
#
# Coordination Sequence:
#
# PCOD9443101 Si02
#       8
#     8   8   8   8   8   8   8   8
#     4  10  20  38  63  89 118 154 197 245 304 368
#     4  10  22  38  59  87 117 157 202 248 300 350
#     4  10  22  39  59  88 123 155 195 250 307 363
#     4  10  20  34  58  92 124 148 183 246 323 377
#     4  12  25  36  60  88 123 160 206 244 298 356
#     4  10  22  41  62  87 122 161 201 249 304 365
#     4  12  22  33  59  88 122 155 198 247 301 364
#     4  10  22  42  64  88 124 161 203 252 300 361
#
# _framework density 19.132618000000001
#
# number of rings (size 3 to 8) (size 9 to 14) (size 15 to 20)
#    0.000    1.500    2.500    2.625    3.500    3.000 
#    0.000    1.875    0.000    0.750    0.000    2.625 
#    0.000    0.000    0.000    0.000    0.000    0.000 
#
# Total GULP energy -357060.680380 kJ/mol
# GULP energy per Si atom -5579.073131 kJ/mol
# Density = 1.908907 g / cm^3
# Si number density = 19.132618 Si / 1000 Ang^3
#
#
#
# Elastic Constant Matrix: (Units=GPa)
#
#
# Indices 1 2 3 4 5 6 
#
# 1 49.0655 16.7730 23.1431 0.0000 0.0000 0.0000
# 2 16.7730 81.5651 2.2642 0.0000 0.0000 0.0000
# 3 23.1431 2.2642 56.6875 0.0000 0.0000 0.0000
# 4 0.0000 0.0000 0.0000 83.3287 0.0000 0.0000
# 5 0.0000 0.0000 0.0000 0.0000 151.4747 0.0000
# 6 0.0000 0.0000 0.0000 0.0000 0.0000 25.9822
#
#
#
# Elastic Compliance Matrix: (Units=1/GPa)
#
#
# Indices 1 2 3 4 5 6 
#
# 1 0.027372 -0.005324 -0.010962 0.000000 0.000000 0.000000
# 2 -0.005324 0.013309 0.001642 0.000000 0.000000 0.000000
# 3 -0.010962 0.001642 0.022050 0.000000 0.000000 0.000000
# 4 0.000000 0.000000 0.000000 0.012001 0.000000 0.000000
# 5 0.000000 0.000000 0.000000 0.000000 0.006602 0.000000
# 6 0.000000 0.000000 0.000000 0.000000 0.000000 0.038488
#
#
# Mechanical properties :
#
#
# Convention : Reuss Voigt Hill
#
# Bulk Modulus (GPa) = 29.90174 30.18650 30.04412
# Shear Modulus (GPa) = 31.19977 61.83299 46.51638
#
# Velocity S-wave (km/s) = 4.04259 5.69107 4.93613
# Velocity P-wave (km/s) = 6.11985 7.68089 6.94438
#
# Compressibility (1/GPa) = 0.03344287
#
# Stress axis : x y z
#
# Youngs Moduli (GPa) = 36.53429 75.13451 45.35088
#
# Poissons Ratio (x) = 0.40004 0.49713
# Poissons Ratio (y) = 0.19452 -0.07447
# Poissons Ratio (z) = 0.40049 -0.12338
#
# Static dielectric constant tensor:
#      x y z
#    x 1.681330 0.000000 0.000000 
#    y 0.000000 1.680890 0.000000 
#    z 0.000000 0.000000 1.691940 
# 
# From -- ./inp_files/21487.got.cif
#   From: 2010.05.17/outbox.cif.g08.bks.cpg/sg58_11_cif.got.tgz:21487.got - 2010.06.03 14:20:14.
