data_PCOD9444214
_publ_section_title
;
Structure prediction by ZEFSAII (Michael W. Deem and Ramdas Pophale) SiO2 
 PCOD9444214
Probable space group: P N N M
;
_chemical_formula_sum "Si O2"
_cell_formula_units_Z 58
_cell_length_a 14.384923
_cell_length_b 25.077427
_cell_length_c 8.901379
_cell_angle_alpha 90.000000
_cell_angle_beta 90.000000
_cell_angle_gamma 90.000000
_cell_volume 3211.055478
_symmetry_space_group_name_H-M "P N N M"
_symmetry_group_IT_number 58
_symmetry_cell_setting 'orthorhombic'
loop_
_space_group_symop_operation_xyz
x,y,z
-x,-y,z
1/2+x,1/2-y,1/2-z
1/2-x,1/2+y,1/2-z
-x,-y,-z
x,y,-z
1/2-x,1/2+y,1/2+z
1/2+x,1/2-y,1/2+z
loop_
_atom_site_type_symbol
_atom_site_label
_atom_site_fract_x
_atom_site_fract_y
_atom_site_fract_z
Si Si1 0.113506 0.389239 0.325012
Si Si2 0.312988 0.998512 0.833381
Si Si3 0.440069 0.159690 0.323448
Si Si4 0.390270 0.683827 0.678888
Si Si5 0.000000 0.500000 0.500000
Si Si6 0.927070 0.225458 0.679013
Si Si7 0.272503 0.779407 0.826009
Si Si8 0.756837 0.898703 0.676440
O O1 0.085782 0.403646 0.500000
O O2 0.176965 0.438336 0.273150
O O3 0.021573 0.379460 0.229861
O O4 0.170220 0.334387 0.325072
O O5 0.263635 0.041701 0.731794
O O6 0.267374 0.996624 0.000000
O O7 0.420064 0.013540 0.870812
O O8 0.450569 0.172085 0.500000
O O9 0.448337 0.213613 0.227783
O O10 0.339067 0.134117 0.299203
O O11 0.395141 0.687048 0.500000
O O12 0.492046 0.689595 0.750283
O O13 0.330113 0.733526 0.742419
O O14 0.336917 0.630961 0.731624
O O15 0.927015 0.221351 0.500000
O O16 0.826428 0.213033 0.747487
O O17 0.258854 0.763020 0.000000
O O18 0.778136 0.896987 0.500000
#
# Coordination Sequence:
#
# PCOD9444214 Si02
#       8
#     8   8   8   8   2   8   8   8
#     4  10  21  36  58  82 117 155 196 238 293 346
#     4   9  19  35  55  82 112 157 194 238 282 350
#     4  11  22  33  53  82 118 156 192 240 287 346
#     4  12  24  39  60  86 115 153 195 244 296 353
#     4   8  16  32  58  80 124 146 206 236 276 358
#     4  12  24  39  58  83 117 155 194 241 298 349
#     4  11  22  38  58  86 117 152 194 240 287 356
#     4  11  23  37  56  84 120 157 199 243 290 345
#
# _framework density 18.062597
#
# number of rings (size 3 to 8) (size 9 to 14) (size 15 to 20)
#    0.414    0.828    2.759    4.552    0.000    2.207 
#    0.000    1.724    0.000    0.828    0.000    5.793 
#    0.000    0.000    0.000    0.000    0.000    0.000 
#
# Total GULP energy -323463.784014 kJ/mol
# GULP energy per Si atom -5576.961793 kJ/mol
# Density = 1.802149 g / cm^3
# Si number density = 18.062597 Si / 1000 Ang^3
#
#
#
# Elastic Constant Matrix: (Units=GPa)
#
#
# Indices 1 2 3 4 5 6 
#
# 1 66.7128 -15.0007 28.9585 0.0000 0.0000 0.0000
# 2 -15.0007 27.3905 2.5557 0.0000 0.0000 0.0000
# 3 28.9585 2.5557 100.5357 0.0000 0.0000 0.0000
# 4 0.0000 0.0000 0.0000 27.7133 0.0000 0.0000
# 5 0.0000 0.0000 0.0000 0.0000 -29.9783 0.0000
# 6 0.0000 0.0000 0.0000 0.0000 0.0000 14.0113
#
#
#
# Elastic Compliance Matrix: (Units=1/GPa)
#
#
# Indices 1 2 3 4 5 6 
#
# 1 0.020280 0.011680 -0.006139 0.000000 0.000000 0.000000
# 2 0.011680 0.043322 -0.004466 0.000000 0.000000 0.000000
# 3 -0.006139 -0.004466 0.011828 0.000000 0.000000 0.000000
# 4 0.000000 0.000000 0.000000 0.036084 0.000000 0.000000
# 5 0.000000 0.000000 0.000000 0.000000 -0.033357 0.000000
# 6 0.000000 0.000000 0.000000 0.000000 0.000000 0.071371
#
#
# Mechanical properties :
#
#
# Convention : Reuss Voigt Hill
#
# Bulk Modulus (GPa) = 12.88959 25.29623 19.09291
# Shear Modulus (GPa) = 28.86202 14.22427 21.54315
#
# Velocity S-wave (km/s) = 4.00170 2.80929 3.45729
# Velocity P-wave (km/s) = 5.33882 4.95560 5.15077
#
# Compressibility (1/GPa) = 0.07758201
#
# Stress axis : x y z
#
# Youngs Moduli (GPa) = 49.30856 23.08292 84.54233
#
# Poissons Ratio (x) = -0.26960 0.51897
# Poissons Ratio (y) = -0.57590 0.37752
# Poissons Ratio (z) = 0.30268 0.10308
#
# Static dielectric constant tensor:
#      x y z
#    x 1.647990 0.000000 0.000000 
#    y 0.000000 1.791470 0.000000 
#    z 0.000000 0.000000 1.611200 
# 
# From -- ./inp_files/6727.got.cif
#   From: 2010.05.17/outbox.cif.g08.bks.cpg/sg58_4_cif.got.tgz:6727.got - 2010.06.03 14:20:14.
