data_PCOD9444245
_publ_section_title
;
Structure prediction by ZEFSAII (Michael W. Deem and Ramdas Pophale) SiO2 
 PCOD9444245
Probable space group: P N N M
;
_chemical_formula_sum "Si O2"
_cell_formula_units_Z 48
_cell_length_a 16.161259
_cell_length_b 5.345565
_cell_length_c 25.734416
_cell_angle_alpha 90.000000
_cell_angle_beta 90.000000
_cell_angle_gamma 90.000000
_cell_volume 2223.223489
_symmetry_space_group_name_H-M "P N N M"
_symmetry_group_IT_number 58
_symmetry_cell_setting 'orthorhombic'
loop_
_space_group_symop_operation_xyz
x,y,z
-x,-y,z
1/2+x,1/2-y,1/2-z
1/2-x,1/2+y,1/2-z
-x,-y,-z
x,y,-z
1/2-x,1/2+y,1/2+z
1/2+x,1/2-y,1/2+z
loop_
_atom_site_type_symbol
_atom_site_label
_atom_site_fract_x
_atom_site_fract_y
_atom_site_fract_z
Si Si1 0.050144 0.241282 0.632194
Si Si2 0.418480 0.832260 0.656605
Si Si3 0.317862 0.830122 0.439969
Si Si4 0.736705 0.153277 0.899634
Si Si5 0.613999 0.434624 0.242138
Si Si6 0.704251 0.798799 0.707665
O O1 0.140223 0.279197 0.606793
O O2 0.067818 0.168951 0.692523
O O3 0.000000 0.500000 0.628674
O O4 0.000000 0.000000 0.610892
O O5 0.394057 0.759428 0.598311
O O6 0.426309 0.639560 0.703615
O O7 0.500000 0.000000 0.655265
O O8 0.337025 0.977987 0.676373
O O9 0.341591 0.829364 0.500000
O O10 0.252481 0.606405 0.429137
O O11 0.281662 0.106133 0.425789
O O12 0.773578 0.117291 0.840925
O O13 0.634582 0.726880 0.249867
O O14 0.709251 0.345584 0.235399
#
# Coordination Sequence:
#
# PCOD9444245 Si02
#       6
#     8   8   8   8   8   8
#     4  11  25  39  62  99 138 170 203 259 323 388
#     4  11  24  38  58  90 129 166 211 269 325 372
#     4  11  23  44  70  94 118 165 223 271 324 387
#     4  10  22  43  69  91 126 169 216 261 319 388
#     4  11  21  35  59  86 130 176 218 243 306 381
#     4  10  21  36  60  84 124 175 215 253 299 381
#
# _framework density 21.59027
#
# number of rings (size 3 to 8) (size 9 to 14) (size 15 to 20)
#    0.000    1.333    3.333    2.000    4.667    0.333 
#    0.000    0.000    0.000   13.000    0.000    0.000 
#    0.000    0.000    0.000    0.000    0.000    0.000 
#
# Total GULP energy -267653.046094 kJ/mol
# GULP energy per Si atom -5576.105127 kJ/mol
# Density = 2.154113 g / cm^3
# Si number density = 21.590270 Si / 1000 Ang^3
#
#
#
# Elastic Constant Matrix: (Units=GPa)
#
#
# Indices 1 2 3 4 5 6 
#
# 1 93.7835 17.0184 27.5447 0.0000 0.0000 0.0000
# 2 17.0184 78.3390 14.1324 0.0000 0.0000 0.0000
# 3 27.5447 14.1324 106.9636 0.0000 0.0000 0.0000
# 4 0.0000 0.0000 0.0000 27.6436 0.0000 0.0000
# 5 0.0000 0.0000 0.0000 0.0000 8.5235 0.0000
# 6 0.0000 0.0000 0.0000 0.0000 0.0000 43.4699
#
#
#
# Elastic Compliance Matrix: (Units=1/GPa)
#
#
# Indices 1 2 3 4 5 6 
#
# 1 0.011855 -0.002074 -0.002779 0.000000 0.000000 0.000000
# 2 -0.002074 0.013440 -0.001242 0.000000 0.000000 0.000000
# 3 -0.002779 -0.001242 0.010229 0.000000 0.000000 0.000000
# 4 0.000000 0.000000 0.000000 0.036175 0.000000 0.000000
# 5 0.000000 0.000000 0.000000 0.000000 0.117323 0.000000
# 6 0.000000 0.000000 0.000000 0.000000 0.000000 0.023004
#
#
# Mechanical properties :
#
#
# Convention : Reuss Voigt Hill
#
# Bulk Modulus (GPa) = 42.85517 44.05301 43.45409
# Shear Modulus (GPa) = 21.55235 30.62010 26.08623
#
# Velocity S-wave (km/s) = 3.16293 3.77003 3.47975
# Velocity P-wave (km/s) = 5.76465 6.27688 6.02621
#
# Compressibility (1/GPa) = 0.02333441
#
# Stress axis : x y z
#
# Youngs Moduli (GPa) = 84.34963 74.40695 97.76483
#
# Poissons Ratio (x) = 0.15433 0.27168
# Poissons Ratio (y) = 0.17495 0.12138
# Poissons Ratio (z) = 0.23440 0.09238
#
# Static dielectric constant tensor:
#      x y z
#    x 2.141510 0.000000 0.000000 
#    y 0.000000 1.947630 0.000000 
#    z 0.000000 0.000000 1.811630 
# 
# From -- ./inp_files/33691.got.cif
#   From: 2010.05.17/outbox.cif.g08.bks.cpg/sg58_17_cif.got.tgz:33691.got - 2010.06.03 14:20:14.
