data_PCOD9444872
_publ_section_title
;
Structure prediction by ZEFSAII (Michael W. Deem and Ramdas Pophale) SiO2 
 PCOD9444872
Probable space group: P N N M
;
_chemical_formula_sum "Si O2"
_cell_formula_units_Z 32
_cell_length_a 4.995827
_cell_length_b 17.685235
_cell_length_c 13.931119
_cell_angle_alpha 90.000000
_cell_angle_beta 90.000000
_cell_angle_gamma 90.000000
_cell_volume 1230.847443
_symmetry_space_group_name_H-M "P N N M"
_symmetry_group_IT_number 58
_symmetry_cell_setting 'orthorhombic'
loop_
_space_group_symop_operation_xyz
x,y,z
-x,-y,z
1/2+x,1/2-y,1/2-z
1/2-x,1/2+y,1/2-z
-x,-y,-z
x,y,-z
1/2-x,1/2+y,1/2+z
1/2+x,1/2-y,1/2+z
loop_
_atom_site_type_symbol
_atom_site_label
_atom_site_fract_x
_atom_site_fract_y
_atom_site_fract_z
Si Si1 0.641952 0.429659 0.320873
Si Si2 0.819520 0.075514 0.500000
Si Si3 0.000000 0.500000 0.840629
Si Si4 0.646530 0.742895 0.000000
Si Si5 0.981181 0.773365 0.806986
Si Si6 0.486054 0.094714 0.000000
O O1 0.500000 0.500000 0.370406
O O2 0.779413 0.461615 0.226699
O O3 0.437835 0.361796 0.307417
O O4 0.852736 0.399817 0.396151
O O5 0.633848 0.063311 0.592856
O O6 0.961061 0.156661 0.500000
O O7 0.000000 0.000000 0.500000
O O8 0.841144 0.749404 0.906401
O O9 0.429141 0.812425 0.000000
O O10 0.742414 0.770145 0.727964
O O11 0.500000 0.000000 0.000000
#
# Coordination Sequence:
#
# PCOD9444872 Si02
#       6
#     8   4   4   4   8   4
#     4  11  24  41  73 100 139 185 238 295 362 429
#     4  11  25  44  68 100 142 189 238 286 365 423
#     4  11  24  41  70  98 140 187 236 301 352 436
#     4  10  25  46  69 107 153 188 246 307 361 440
#     4  11  27  47  73 107 147 193 243 300 365 434
#     4  10  21  44  70 102 138 189 232 304 363 429
#
# _framework density 25.998346999999999
#
# number of rings (size 3 to 8) (size 9 to 14) (size 15 to 20)
#    0.000    1.250    1.250    2.625   10.500    1.000 
#    0.000    0.000    0.000    0.000    0.000    0.000 
#    0.000    0.000    0.000    0.000    0.000    0.000 
#
# Total GULP energy -178542.977535 kJ/mol
# GULP energy per Si atom -5579.468048 kJ/mol
# Density = 2.593917 g / cm^3
# Si number density = 25.998347 Si / 1000 Ang^3
#
#
#
# Elastic Constant Matrix: (Units=GPa)
#
#
# Indices 1 2 3 4 5 6 
#
# 1 74.2567 15.8154 14.4692 0.0000 0.0000 0.0000
# 2 15.8154 211.1676 2.9607 0.0000 0.0000 0.0000
# 3 14.4692 2.9607 113.7531 0.0000 0.0000 0.0000
# 4 0.0000 0.0000 0.0000 12.2236 0.0000 0.0000
# 5 0.0000 0.0000 0.0000 0.0000 43.2250 0.0000
# 6 0.0000 0.0000 0.0000 0.0000 0.0000 34.3413
#
#
#
# Elastic Compliance Matrix: (Units=1/GPa)
#
#
# Indices 1 2 3 4 5 6 
#
# 1 0.014028 -0.001026 -0.001758 0.000000 0.000000 0.000000
# 2 -0.001026 0.004812 0.000005 0.000000 0.000000 0.000000
# 3 -0.001758 0.000005 0.009014 0.000000 0.000000 0.000000
# 4 0.000000 0.000000 0.000000 0.081809 0.000000 0.000000
# 5 0.000000 0.000000 0.000000 0.000000 0.023135 0.000000
# 6 0.000000 0.000000 0.000000 0.000000 0.000000 0.029119
#
#
# Mechanical properties :
#
#
# Convention : Reuss Voigt Hill
#
# Bulk Modulus (GPa) = 44.84734 51.74090 48.29412
# Shear Modulus (GPa) = 28.58661 42.35345 35.47003
#
# Velocity S-wave (km/s) = 3.31955 4.04057 3.69768
# Velocity P-wave (km/s) = 5.65509 6.45857 6.07014
#
# Compressibility (1/GPa) = 0.02229787
#
# Stress axis : x y z
#
# Youngs Moduli (GPa) = 71.28707 207.79901 110.93366
#
# Poissons Ratio (x) = 0.21320 0.19498
# Poissons Ratio (y) = 0.07314 -0.00058
# Poissons Ratio (z) = 0.12529 -0.00109
#
# Static dielectric constant tensor:
#      x y z
#    x 2.159440 0.000000 0.000000 
#    y 0.000000 2.188520 0.000000 
#    z 0.000000 0.000000 1.990480 
# 
# From -- ./inp_files/18301.got.cif
#   From: 2010.05.17/outbox.cif.g08.bks.cpg/sg58_10_cif.got.tgz:18301.got - 2010.06.03 14:20:14.
