data_PCOD9444496
_publ_section_title
;
Structure prediction by ZEFSAII (Michael W. Deem and Ramdas Pophale) SiO2 
 PCOD9444496
Probable space group: P N N M
;
_chemical_formula_sum "Si O2"
_cell_formula_units_Z 64
_cell_length_a 18.974411
_cell_length_b 19.926852
_cell_length_c 7.684960
_cell_angle_alpha 90.000000
_cell_angle_beta 90.000000
_cell_angle_gamma 90.000000
_cell_volume 2905.685526
_symmetry_space_group_name_H-M "P N N M"
_symmetry_group_IT_number 58
_symmetry_cell_setting 'orthorhombic'
loop_
_space_group_symop_operation_xyz
x,y,z
-x,-y,z
1/2+x,1/2-y,1/2-z
1/2-x,1/2+y,1/2-z
-x,-y,-z
x,y,-z
1/2-x,1/2+y,1/2+z
1/2+x,1/2-y,1/2+z
loop_
_atom_site_type_symbol
_atom_site_label
_atom_site_fract_x
_atom_site_fract_y
_atom_site_fract_z
Si Si1 0.370204 0.708738 0.701208
Si Si2 0.276493 0.468490 0.286459
Si Si3 0.435069 0.460216 0.300882
Si Si4 0.170364 0.356467 0.701186
Si Si5 0.471833 0.928896 0.704088
Si Si6 0.241531 0.617501 0.287551
Si Si7 0.028263 0.814609 0.700648
Si Si8 0.907184 0.323438 0.711527
O O1 0.383198 0.691169 0.500000
O O2 0.342156 0.784913 0.710320
O O3 0.310837 0.657932 0.770298
O O4 0.445548 0.703037 0.792068
O O5 0.275645 0.465831 0.500000
O O6 0.357204 0.467986 0.225459
O O7 0.231969 0.404201 0.226982
O O8 0.243027 0.539689 0.235529
O O9 0.500000 0.500000 0.216858
O O10 0.428979 0.485799 0.500000
O O11 0.455376 0.382532 0.299893
O O12 0.185918 0.341351 0.500000
O O13 0.098449 0.399601 0.710479
O O14 0.455462 0.937655 0.500000
O O15 0.533891 0.875139 0.725283
O O16 0.500000 0.000000 0.773884
O O17 0.242284 0.619224 0.500000
O O18 0.169939 0.653520 0.231251
O O19 0.048260 0.826042 0.500000
O O20 0.071397 0.750898 0.768929
O O21 0.909371 0.324010 0.500000
#
# Coordination Sequence:
#
# PCOD9444496 Si02
#       8
#     8   8   8   8   8   8   8   8
#     4  11  22  38  63  88 117 157 200 248 300 356
#     4   9  19  36  59  88 118 152 201 252 294 353
#     4  10  21  39  64  90 118 159 208 253 303 359
#     4  11  22  37  58  86 119 157 198 242 296 355
#     4  11  23  38  58  86 119 154 196 241 289 347
#     4   9  19  37  61  87 114 153 202 245 295 355
#     4  11  23  38  59  89 124 158 199 248 300 359
#     4  10  21  38  60  87 119 158 200 243 294 359
#
# _framework density 22.025784000000002
#
# number of rings (size 3 to 8) (size 9 to 14) (size 15 to 20)
#    0.000    1.750    1.250    3.000    1.750    4.750 
#    0.000    1.875    0.000    5.250    0.000    0.000 
#    0.000    0.000    0.000    0.000    0.000    0.000 
#
# Total GULP energy -357853.679208 kJ/mol
# GULP energy per Si atom -5591.463738 kJ/mol
# Density = 2.197565 g / cm^3
# Si number density = 22.025784 Si / 1000 Ang^3
#
#
#
# Elastic Constant Matrix: (Units=GPa)
#
#
# Indices 1 2 3 4 5 6 
#
# 1 111.1252 17.7217 -9.5129 0.0000 0.0000 0.0000
# 2 17.7217 78.0231 -12.9942 0.0000 0.0000 0.0000
# 3 -9.5129 -12.9942 43.5750 0.0000 0.0000 0.0000
# 4 0.0000 0.0000 0.0000 15.8486 0.0000 0.0000
# 5 0.0000 0.0000 0.0000 0.0000 -14.9239 0.0000
# 6 0.0000 0.0000 0.0000 0.0000 0.0000 44.9340
#
#
#
# Elastic Compliance Matrix: (Units=1/GPa)
#
#
# Indices 1 2 3 4 5 6 
#
# 1 0.009429 -0.001893 0.001494 0.000000 0.000000 0.000000
# 2 -0.001893 0.013866 0.003722 0.000000 0.000000 0.000000
# 3 0.001494 0.003722 0.024385 0.000000 0.000000 0.000000
# 4 0.000000 0.000000 0.000000 0.063097 0.000000 0.000000
# 5 0.000000 0.000000 0.000000 0.000000 -0.067007 0.000000
# 6 0.000000 0.000000 0.000000 0.000000 0.000000 0.022255
#
#
# Mechanical properties :
#
#
# Convention : Reuss Voigt Hill
#
# Bulk Modulus (GPa) = 18.40740 24.79474 21.60107
# Shear Modulus (GPa) = 64.52604 25.00565 44.76585
#
# Velocity S-wave (km/s) = 5.41842 3.37306 4.51314
# Velocity P-wave (km/s) = 6.89355 5.14312 6.08164
#
# Compressibility (1/GPa) = 0.05432598
#
# Stress axis : x y z
#
# Youngs Moduli (GPa) = 106.06037 72.11645 41.00891
#
# Poissons Ratio (x) = 0.13650 -0.06126
# Poissons Ratio (y) = 0.20075 -0.15263
# Poissons Ratio (z) = -0.15845 -0.26840
#
# Static dielectric constant tensor:
#      x y z
#    x 1.774770 0.000000 0.000000 
#    y 0.000000 1.756730 0.000000 
#    z 0.000000 0.000000 1.827120 
# 
# From -- ./inp_files/8379.got.cif
#   From: 2010.05.17/outbox.cif.g08.bks.cpg/sg58_5_cif.got.tgz:8379.got - 2010.06.03 14:20:14.
