data_PCOD9444428
_publ_section_title
;
Structure prediction by ZEFSAII (Michael W. Deem and Ramdas Pophale) SiO2 
 PCOD9444428
Probable space group: P N N M
;
_chemical_formula_sum "Si O2"
_cell_formula_units_Z 40
_cell_length_a 8.380637
_cell_length_b 8.089882
_cell_length_c 23.032486
_cell_angle_alpha 90.000000
_cell_angle_beta 90.000000
_cell_angle_gamma 90.000000
_cell_volume 1561.564879
_symmetry_space_group_name_H-M "P N N M"
_symmetry_group_IT_number 58
_symmetry_cell_setting 'orthorhombic'
loop_
_space_group_symop_operation_xyz
x,y,z
-x,-y,z
1/2+x,1/2-y,1/2-z
1/2-x,1/2+y,1/2-z
-x,-y,-z
x,y,-z
1/2-x,1/2+y,1/2+z
1/2+x,1/2-y,1/2+z
loop_
_atom_site_type_symbol
_atom_site_label
_atom_site_fract_x
_atom_site_fract_y
_atom_site_fract_z
Si Si1 0.160574 0.067412 0.435757
Si Si2 0.725441 0.145732 0.773070
Si Si3 0.274226 0.701704 0.435108
Si Si4 0.886649 0.298405 0.679381
Si Si5 0.061739 0.691292 0.135990
O O1 0.115078 0.132257 0.500000
O O2 0.258459 0.898971 0.443182
O O3 0.277286 0.186328 0.402619
O O4 0.000000 0.000000 0.405609
O O5 0.768065 0.159312 0.704882
O O6 0.565642 0.231289 0.798643
O O7 0.878530 0.221231 0.805676
O O8 0.687735 0.958485 0.789103
O O9 0.271040 0.627254 0.500000
O O10 0.134293 0.662810 0.388893
O O11 0.436748 0.693792 0.398494
O O12 0.000000 0.500000 0.143199
#
# Coordination Sequence:
#
# PCOD9444428 Si02
#       5
#     8   8   8   8   8
#     4   9  17  31  56  89 127 173 221 270 328 396
#     4  11  26  45  71 100 136 177 229 285 344 408
#     4  10  21  39  63  94 136 179 223 275 337 408
#     4  11  26  46  69 102 134 180 227 281 347 407
#     4  10  21  37  63  94 133 171 224 272 339 399
#
# _framework density 25.615331999999999
#
# number of rings (size 3 to 8) (size 9 to 14) (size 15 to 20)
#    0.000    1.800    0.000    3.000    8.400    5.600 
#    0.000    6.000    0.000    0.000    0.000    0.000 
#    0.000    0.000    0.000    0.000    0.000    0.000 
#
# Total GULP energy -223398.565459 kJ/mol
# GULP energy per Si atom -5584.964136 kJ/mol
# Density = 2.555703 g / cm^3
# Si number density = 25.615332 Si / 1000 Ang^3
#
#
#
# Elastic Constant Matrix: (Units=GPa)
#
#
# Indices 1 2 3 4 5 6 
#
# 1 131.6050 -5.5663 47.3615 0.0000 0.0000 0.0000
# 2 -5.5663 21.5147 1.4656 0.0000 0.0000 0.0000
# 3 47.3615 1.4656 149.6012 0.0000 0.0000 0.0000
# 4 0.0000 0.0000 0.0000 18.1015 0.0000 0.0000
# 5 0.0000 0.0000 0.0000 0.0000 33.8729 0.0000
# 6 0.0000 0.0000 0.0000 0.0000 0.0000 35.9412
#
#
#
# Elastic Compliance Matrix: (Units=1/GPa)
#
#
# Indices 1 2 3 4 5 6 
#
# 1 0.008702 0.002441 -0.002779 0.000000 0.000000 0.000000
# 2 0.002441 0.047195 -0.001235 0.000000 0.000000 0.000000
# 3 -0.002779 -0.001235 0.007576 0.000000 0.000000 0.000000
# 4 0.000000 0.000000 0.000000 0.055244 0.000000 0.000000
# 5 0.000000 0.000000 0.000000 0.000000 0.029522 0.000000
# 6 0.000000 0.000000 0.000000 0.000000 0.000000 0.027823
#
#
# Mechanical properties :
#
#
# Convention : Reuss Voigt Hill
#
# Bulk Modulus (GPa) = 16.57633 43.24918 29.91276
# Shear Modulus (GPa) = 25.08553 34.88045 29.98299
#
# Velocity S-wave (km/s) = 3.13280 3.69413 3.42498
# Velocity P-wave (km/s) = 4.42394 5.92589 5.22912
#
# Compressibility (1/GPa) = 0.06032698
#
# Stress axis : x y z
#
# Youngs Moduli (GPa) = 114.91979 21.18853 131.99149
#
# Poissons Ratio (x) = -0.05171 0.36677
# Poissons Ratio (y) = -0.28047 0.16301
# Poissons Ratio (z) = 0.31933 0.02617
#
# Static dielectric constant tensor:
#      x y z
#    x 2.039890 0.000000 0.000000 
#    y 0.000000 2.028670 0.000000 
#    z 0.000000 0.000000 2.146610 
# 
# From -- ./inp_files/31248.got.cif
#   From: 2010.05.17/outbox.cif.g08.bks.cpg/sg58_16_cif.got.tgz:31248.got - 2010.06.03 14:20:14.
