data_PCOD9444742
_publ_section_title
;
Structure prediction by ZEFSAII (Michael W. Deem and Ramdas Pophale) SiO2 
 PCOD9444742
Probable space group: P N N M
;
_chemical_formula_sum "Si O2"
_cell_formula_units_Z 56
_cell_length_a 21.341504
_cell_length_b 15.308566
_cell_length_c 8.692059
_cell_angle_alpha 90.000000
_cell_angle_beta 90.000000
_cell_angle_gamma 90.000000
_cell_volume 2839.763669
_symmetry_space_group_name_H-M "P N N M"
_symmetry_group_IT_number 58
_symmetry_cell_setting 'orthorhombic'
loop_
_space_group_symop_operation_xyz
x,y,z
-x,-y,z
1/2+x,1/2-y,1/2-z
1/2-x,1/2+y,1/2-z
-x,-y,-z
x,y,-z
1/2-x,1/2+y,1/2+z
1/2+x,1/2-y,1/2+z
loop_
_atom_site_type_symbol
_atom_site_label
_atom_site_fract_x
_atom_site_fract_y
_atom_site_fract_z
Si Si1 0.844555 0.179913 0.314872
Si Si2 0.258043 0.684498 0.186138
Si Si3 0.632481 0.054485 0.323257
Si Si4 0.395479 0.761295 0.182777
Si Si5 0.225615 0.987259 0.322039
Si Si6 0.950187 0.421339 0.322050
Si Si7 0.524584 0.737225 0.319657
O O1 0.840303 0.180439 0.500000
O O2 0.797715 0.256051 0.254218
O O3 0.821039 0.085018 0.255130
O O4 0.915819 0.194769 0.263657
O O5 0.326757 0.724219 0.220111
O O6 0.262990 0.584088 0.242893
O O7 0.248934 0.683892 0.000000
O O8 0.610413 0.050817 0.500000
O O9 0.605412 0.138835 0.239610
O O10 0.707134 0.059610 0.323219
O O11 0.612802 0.966697 0.236483
O O12 0.455335 0.714149 0.257646
O O13 0.403539 0.759402 0.000000
O O14 0.205948 0.002227 0.500000
O O15 0.946692 0.393200 0.500000
O O16 0.967141 0.340074 0.217309
O O17 0.000000 0.500000 0.310498
O O18 0.528086 0.721018 0.500000
#
# Coordination Sequence:
#
# PCOD9444742 Si02
#       7
#     8   8   8   8   8   8   8
#     4  11  22  40  64  91 124 160 202 253 309 363
#     4  10  21  40  65  92 123 161 207 253 304 364
#     4  11  20  34  58  86 120 158 196 241 300 365
#     4  11  22  37  59  87 120 158 203 252 301 357
#     4   9  20  38  61  89 119 155 200 248 300 362
#     4  11  22  35  54  84 119 152 194 244 298 362
#     4  12  25  40  59  84 120 163 205 250 309 369
#
# _framework density 19.719951999999999
#
# number of rings (size 3 to 8) (size 9 to 14) (size 15 to 20)
#    0.000    1.286    2.857    3.857    0.000    2.286 
#    0.000    2.857    0.000    4.286    0.000    0.000 
#    0.000    0.000    0.000    0.000    0.000    0.000 
#
# Total GULP energy -312660.347757 kJ/mol
# GULP energy per Si atom -5583.220496 kJ/mol
# Density = 1.967507 g / cm^3
# Si number density = 19.719952 Si / 1000 Ang^3
#
#
#
# Elastic Constant Matrix: (Units=GPa)
#
#
# Indices 1 2 3 4 5 6 
#
# 1 80.3235 7.5563 28.4313 0.0000 0.0000 0.0000
# 2 7.5563 55.1334 7.9663 0.0000 0.0000 0.0000
# 3 28.4313 7.9663 44.8758 0.0000 0.0000 0.0000
# 4 0.0000 0.0000 0.0000 21.1485 0.0000 0.0000
# 5 0.0000 0.0000 0.0000 0.0000 29.9752 0.0000
# 6 0.0000 0.0000 0.0000 0.0000 0.0000 19.1431
#
#
#
# Elastic Compliance Matrix: (Units=1/GPa)
#
#
# Indices 1 2 3 4 5 6 
#
# 1 0.016079 -0.000751 -0.010054 0.000000 0.000000 0.000000
# 2 -0.000751 0.018650 -0.002835 0.000000 0.000000 0.000000
# 3 -0.010054 -0.002835 0.029156 0.000000 0.000000 0.000000
# 4 0.000000 0.000000 0.000000 0.047285 0.000000 0.000000
# 5 0.000000 0.000000 0.000000 0.000000 0.033361 0.000000
# 6 0.000000 0.000000 0.000000 0.000000 0.000000 0.052238
#
#
# Mechanical properties :
#
#
# Convention : Reuss Voigt Hill
#
# Bulk Modulus (GPa) = 27.31748 29.80451 28.56100
# Shear Modulus (GPa) = 21.16395 23.14527 22.15461
#
# Velocity S-wave (km/s) = 3.27957 3.42964 3.35544
# Velocity P-wave (km/s) = 5.31258 5.55248 5.43385
#
# Compressibility (1/GPa) = 0.03660660
#
# Stress axis : x y z
#
# Youngs Moduli (GPa) = 62.19349 53.61818 34.29776
#
# Poissons Ratio (x) = 0.04027 0.34481
# Poissons Ratio (y) = 0.04671 0.09723
# Poissons Ratio (z) = 0.62526 0.15201
#
# Static dielectric constant tensor:
#      x y z
#    x 1.727360 0.000000 0.000000 
#    y 0.000000 1.701960 0.000000 
#    z 0.000000 0.000000 1.683920 
# 
# From -- ./inp_files/6330.got.cif
#   From: 2010.05.17/outbox.cif.g08.bks.cpg/sg58_4_cif.got.tgz:6330.got - 2010.06.03 14:20:14.
