data_PCOD9444439
_publ_section_title
;
Structure prediction by ZEFSAII (Michael W. Deem and Ramdas Pophale) SiO2 
 PCOD9444439
Probable space group: P N N M
;
_chemical_formula_sum "Si O2"
_cell_formula_units_Z 56
_cell_length_a 15.339845
_cell_length_b 14.334892
_cell_length_c 13.611794
_cell_angle_alpha 90.000000
_cell_angle_beta 90.000000
_cell_angle_gamma 90.000000
_cell_volume 2993.165733
_symmetry_space_group_name_H-M "P N N M"
_symmetry_group_IT_number 58
_symmetry_cell_setting 'orthorhombic'
loop_
_space_group_symop_operation_xyz
x,y,z
-x,-y,z
1/2+x,1/2-y,1/2-z
1/2-x,1/2+y,1/2-z
-x,-y,-z
x,y,-z
1/2-x,1/2+y,1/2+z
1/2+x,1/2-y,1/2+z
loop_
_atom_site_type_symbol
_atom_site_label
_atom_site_fract_x
_atom_site_fract_y
_atom_site_fract_z
Si Si1 0.945687 0.408110 0.118730
Si Si2 0.068834 0.636846 0.385257
Si Si3 0.877403 0.573458 0.382459
Si Si4 0.553378 0.724958 0.739306
Si Si5 0.247751 0.609607 0.885937
Si Si6 0.793162 0.170145 0.884811
Si Si7 0.056316 0.094687 0.617229
O O1 0.975545 0.309611 0.166149
O O2 0.845511 0.425614 0.151742
O O3 0.000000 0.500000 0.145430
O O4 0.947422 0.397776 0.000000
O O5 0.072108 0.658078 0.500000
O O6 0.110274 0.536193 0.369286
O O7 0.108775 0.718035 0.320903
O O8 0.967099 0.624477 0.354370
O O9 0.872828 0.589439 0.500000
O O10 0.787174 0.611451 0.342210
O O11 0.618173 0.661640 0.675944
O O12 0.485754 0.667360 0.805613
O O13 0.237803 0.721878 0.881121
O O14 0.343096 0.580632 0.850130
O O15 0.248537 0.581567 0.000000
O O16 0.808499 0.147932 0.000000
O O17 0.056201 0.126071 0.500000
O O18 0.000000 0.000000 0.620380
#
# Coordination Sequence:
#
# PCOD9444439 Si02
#       7
#     8   8   8   8   8   8   8
#     4   9  19  36  57  85 118 148 184 233 287 338
#     4   9  17  29  49  78 108 134 166 224 291 337
#     4   8  15  29  49  74 104 136 173 219 281 338
#     4  11  20  31  51  83 112 145 191 227 267 328
#     4   8  15  32  55  76 104 146 188 225 272 333
#     4   9  17  32  52  76 105 144 185 223 269 330
#     4  10  21  38  57  77 108 151 194 235 282 337
#
# _framework density 18.709288999999998
#
# number of rings (size 3 to 8) (size 9 to 14) (size 15 to 20)
#    0.000    2.857    0.000    3.429    2.000    2.286 
#    5.143    1.429    0.000    1.714    0.000   27.000 
#    0.000    0.000    0.000    0.000    0.000    0.000 
#
# Total GULP energy -311746.602688 kJ/mol
# GULP energy per Si atom -5566.903619 kJ/mol
# Density = 1.866671 g / cm^3
# Si number density = 18.709289 Si / 1000 Ang^3
#
#
#
# Elastic Constant Matrix: (Units=GPa)
#
#
# Indices 1 2 3 4 5 6 
#
# 1 118.1249 47.8380 32.2751 0.0000 0.0000 0.0000
# 2 47.8380 52.7837 19.1057 0.0000 0.0000 0.0000
# 3 32.2751 19.1057 82.3710 0.0000 0.0000 0.0000
# 4 0.0000 0.0000 0.0000 25.1559 0.0000 0.0000
# 5 0.0000 0.0000 0.0000 0.0000 16.7035 0.0000
# 6 0.0000 0.0000 0.0000 0.0000 0.0000 29.2739
#
#
#
# Elastic Compliance Matrix: (Units=1/GPa)
#
#
# Indices 1 2 3 4 5 6 
#
# 1 0.013927 -0.011623 -0.002761 0.000000 0.000000 0.000000
# 2 -0.011623 0.030381 -0.002493 0.000000 0.000000 0.000000
# 3 -0.002761 -0.002493 0.013800 0.000000 0.000000 0.000000
# 4 0.000000 0.000000 0.000000 0.039752 0.000000 0.000000
# 5 0.000000 0.000000 0.000000 0.000000 0.059868 0.000000
# 6 0.000000 0.000000 0.000000 0.000000 0.000000 0.034160
#
#
# Mechanical properties :
#
#
# Convention : Reuss Voigt Hill
#
# Bulk Modulus (GPa) = 41.05876 50.19080 45.62478
# Shear Modulus (GPa) = 21.38948 24.49737 22.94343
#
# Velocity S-wave (km/s) = 3.38487 3.62245 3.50567
# Velocity P-wave (km/s) = 6.10490 6.66191 6.38948
#
# Compressibility (1/GPa) = 0.02435534
#
# Stress axis : x y z
#
# Youngs Moduli (GPa) = 71.80337 32.91521 72.46238
#
# Poissons Ratio (x) = 0.38256 0.20008
# Poissons Ratio (y) = 0.83454 0.18063
# Poissons Ratio (z) = 0.19826 0.08205
#
# Static dielectric constant tensor:
#      x y z
#    x 1.685700 0.000000 0.000000 
#    y 0.000000 1.693720 0.000000 
#    z 0.000000 0.000000 1.699100 
# 
# From -- ./inp_files/22320.got.cif
#   From: 2010.05.17/outbox.cif.g08.bks.cpg/sg58_12_cif.got.tgz:22320.got - 2010.06.03 14:20:14.
