data_PCOD9444046
_publ_section_title
;
Structure prediction by ZEFSAII (Michael W. Deem and Ramdas Pophale) SiO2 
 PCOD9444046
Probable space group: P N N M
;
_chemical_formula_sum "Si O2"
_cell_formula_units_Z 48
_cell_length_a 5.557915
_cell_length_b 13.639318
_cell_length_c 30.550760
_cell_angle_alpha 90.000000
_cell_angle_beta 90.000000
_cell_angle_gamma 90.000000
_cell_volume 2315.936109
_symmetry_space_group_name_H-M "P N N M"
_symmetry_group_IT_number 58
_symmetry_cell_setting 'orthorhombic'
loop_
_space_group_symop_operation_xyz
x,y,z
-x,-y,z
1/2+x,1/2-y,1/2-z
1/2-x,1/2+y,1/2-z
-x,-y,-z
x,y,-z
1/2-x,1/2+y,1/2+z
1/2+x,1/2-y,1/2+z
loop_
_atom_site_type_symbol
_atom_site_label
_atom_site_fract_x
_atom_site_fract_y
_atom_site_fract_z
Si Si1 0.304586 0.294022 0.908683
Si Si2 0.300956 0.199875 0.550427
Si Si3 0.284092 0.741665 0.684985
Si Si4 0.556776 0.103806 0.242829
Si Si5 0.546196 0.108952 0.927282
Si Si6 0.160335 0.909332 0.842514
O O1 0.546237 0.339553 0.930143
O O2 0.346401 0.290841 0.856401
O O3 0.317587 0.180861 0.926544
O O4 0.041530 0.329635 0.923244
O O5 0.329434 0.172372 0.500000
O O6 0.249067 0.318628 0.552837
O O7 0.360152 0.820448 0.720813
O O8 0.508433 0.689464 0.661352
O O9 0.140766 0.659242 0.712599
O O10 0.752866 0.074184 0.206662
O O11 0.500000 0.000000 0.264485
O O12 0.625528 0.098501 0.876698
O O13 0.500000 0.000000 0.944858
O O14 0.000000 0.000000 0.857466
#
# Coordination Sequence:
#
# PCOD9444046 Si02
#       6
#     8   8   8   8   8   8
#     4  10  21  37  55  77 107 151 193 237 299 355
#     4  10  21  36  54  78 109 144 194 247 295 359
#     4  12  22  38  57  80 119 158 196 251 300 346
#     4  12  24  37  56  88 114 156 209 249 299 353
#     4  10  21  32  52  77 108 149 194 238 287 346
#     4  12  21  35  57  80 114 157 209 248 286 355
#
# _framework density 20.725960000000001
#
# number of rings (size 3 to 8) (size 9 to 14) (size 15 to 20)
#    1.000    0.000    6.667    2.000    0.000    0.333 
#    0.000    0.833    0.000    0.000    0.000    0.000 
#    0.000    4.000    0.000    0.000    0.000    0.000 
#
# Total GULP energy -267366.387730 kJ/mol
# GULP energy per Si atom -5570.133078 kJ/mol
# Density = 2.067879 g / cm^3
# Si number density = 20.725960 Si / 1000 Ang^3
#
#
#
# Elastic Constant Matrix: (Units=GPa)
#
#
# Indices 1 2 3 4 5 6 
#
# 1 99.7029 14.0459 28.8639 0.0000 0.0000 0.0000
# 2 14.0459 24.8355 20.1706 0.0000 0.0000 0.0000
# 3 28.8639 20.1706 86.0034 0.0000 0.0000 0.0000
# 4 0.0000 0.0000 0.0000 -162.7185 0.0000 0.0000
# 5 0.0000 0.0000 0.0000 0.0000 35.1601 0.0000
# 6 0.0000 0.0000 0.0000 0.0000 0.0000 11.3766
#
#
#
# Elastic Compliance Matrix: (Units=1/GPa)
#
#
# Indices 1 2 3 4 5 6 
#
# 1 0.011444 -0.004142 -0.002869 0.000000 0.000000 0.000000
# 2 -0.004142 0.051238 -0.010627 0.000000 0.000000 0.000000
# 3 -0.002869 -0.010627 0.015083 0.000000 0.000000 0.000000
# 4 0.000000 0.000000 0.000000 -0.006146 0.000000 0.000000
# 5 0.000000 0.000000 0.000000 0.000000 0.028441 0.000000
# 6 0.000000 0.000000 0.000000 0.000000 0.000000 0.087899
#
#
# Mechanical properties :
#
#
# Convention : Reuss Voigt Hill
#
# Bulk Modulus (GPa) = 23.53567 37.41138 30.47353
# Shear Modulus (GPa) = 21.06156 -13.40560 3.82798
#
# Velocity S-wave (km/s) = 3.19124 -2.54599 1.36050
# Velocity P-wave (km/s) = 4.99589 3.07359 4.14764
#
# Compressibility (1/GPa) = 0.04248870
#
# Stress axis : x y z
#
# Youngs Moduli (GPa) = 87.38225 19.51669 66.30064
#
# Poissons Ratio (x) = 0.08083 0.19024
# Poissons Ratio (y) = 0.36192 0.70457
# Poissons Ratio (z) = 0.25073 0.20740
#
# Static dielectric constant tensor:
#      x y z
#    x 1.821320 0.000000 0.000000 
#    y 0.000000 1.756050 0.000000 
#    z 0.000000 0.000000 1.745470 
# 
# From -- ./inp_files/34160.got.cif
#   From: 2010.05.17/outbox.cif.g08.bks.cpg/sg58_18_cif.got.tgz:34160.got - 2010.06.03 14:20:14.
