data_PCOD9444025
_publ_section_title
;
Structure prediction by ZEFSAII (Michael W. Deem and Ramdas Pophale) SiO2 
 PCOD9444025
Probable space group: P N N M
;
_chemical_formula_sum "Si O2"
_cell_formula_units_Z 46
_cell_length_a 12.172754
_cell_length_b 12.101646
_cell_length_c 16.108710
_cell_angle_alpha 90.000000
_cell_angle_beta 90.000000
_cell_angle_gamma 90.000000
_cell_volume 2372.979865
_symmetry_space_group_name_H-M "P N N M"
_symmetry_group_IT_number 58
_symmetry_cell_setting 'orthorhombic'
loop_
_space_group_symop_operation_xyz
x,y,z
-x,-y,z
1/2+x,1/2-y,1/2-z
1/2-x,1/2+y,1/2-z
-x,-y,-z
x,y,-z
1/2-x,1/2+y,1/2+z
1/2+x,1/2-y,1/2+z
loop_
_atom_site_type_symbol
_atom_site_label
_atom_site_fract_x
_atom_site_fract_y
_atom_site_fract_z
Si Si1 0.996885 0.619106 0.336148
Si Si2 0.920028 0.394734 0.094318
Si Si3 0.776253 0.276153 0.401783
Si Si4 0.000000 0.500000 0.500000
Si Si5 0.554025 0.278193 0.699921
Si Si6 0.805848 0.011032 0.404208
Si Si7 0.000000 0.000000 0.277293
O O1 0.117992 0.669092 0.356927
O O2 0.953043 0.581943 0.425972
O O3 0.000000 0.500000 0.289311
O O4 0.927986 0.707999 0.284718
O O5 0.802209 0.442509 0.118454
O O6 0.000000 0.500000 0.093173
O O7 0.972132 0.300829 0.149894
O O8 0.912664 0.352906 0.000000
O O9 0.776139 0.311273 0.500000
O O10 0.664123 0.301146 0.352585
O O11 0.785294 0.142985 0.401345
O O12 0.494211 0.391157 0.722452
O O13 0.836271 0.985038 0.500000
O O14 0.897849 0.985061 0.338124
#
# Coordination Sequence:
#
# PCOD9444025 Si02
#       7
#     8   8   8   2   8   8   4
#     4  10  21  41  66  97 130 173 229 276 327 406
#     4  10  20  41  69  97 119 160 224 280 335 396
#     4  11  21  41  68  95 131 179 224 275 343 403
#     4   8  20  40  68  98 126 176 230 280 334 404
#     4  12  25  38  64 100 136 170 220 281 335 408
#     4  10  22  40  65  90 126 172 226 275 326 395
#     4  12  27  40  55  94 138 182 208 270 343 397
#
# _framework density 19.384909
#
# number of rings (size 3 to 8) (size 9 to 14) (size 15 to 20)
#    0.522    0.870    4.348    1.304    2.435    0.000 
#    1.565    1.739    0.000    2.087    0.000    0.000 
#    0.000    0.000    0.000    0.000    0.000    0.000 
#
# Total GULP energy -256131.743711 kJ/mol
# GULP energy per Si atom -5568.081385 kJ/mol
# Density = 1.934079 g / cm^3
# Si number density = 19.384909 Si / 1000 Ang^3
#
#
#
# Elastic Constant Matrix: (Units=GPa)
#
#
# Indices 1 2 3 4 5 6 
#
# 1 89.5466 17.9325 50.0580 0.0000 0.0000 0.0000
# 2 17.9325 74.8535 15.9027 0.0000 0.0000 0.0000
# 3 50.0580 15.9027 68.0411 0.0000 0.0000 0.0000
# 4 0.0000 0.0000 0.0000 14.1459 0.0000 0.0000
# 5 0.0000 0.0000 0.0000 0.0000 24.8029 0.0000
# 6 0.0000 0.0000 0.0000 0.0000 0.0000 28.5589
#
#
#
# Elastic Compliance Matrix: (Units=1/GPa)
#
#
# Indices 1 2 3 4 5 6 
#
# 1 0.019167 -0.001679 -0.013709 0.000000 0.000000 0.000000
# 2 -0.001679 0.014205 -0.002084 0.000000 0.000000 0.000000
# 3 -0.013709 -0.002084 0.025270 0.000000 0.000000 0.000000
# 4 0.000000 0.000000 0.000000 0.070692 0.000000 0.000000
# 5 0.000000 0.000000 0.000000 0.000000 0.040318 0.000000
# 6 0.000000 0.000000 0.000000 0.000000 0.000000 0.035015
#
#
# Mechanical properties :
#
#
# Convention : Reuss Voigt Hill
#
# Bulk Modulus (GPa) = 42.20065 44.46975 43.33520
# Shear Modulus (GPa) = 20.20117 23.40473 21.80295
#
# Velocity S-wave (km/s) = 3.23167 3.47849 3.35735
# Velocity P-wave (km/s) = 5.97847 6.25487 6.11823
#
# Compressibility (1/GPa) = 0.02369632
#
# Stress axis : x y z
#
# Youngs Moduli (GPa) = 52.17265 70.39979 39.57299
#
# Poissons Ratio (x) = 0.11823 0.54250
# Poissons Ratio (y) = 0.08762 0.08249
# Poissons Ratio (z) = 0.71522 0.14674
#
# Static dielectric constant tensor:
#      x y z
#    x 1.665870 0.000000 0.000000 
#    y 0.000000 1.704670 0.000000 
#    z 0.000000 0.000000 1.711080 
# 
# From -- ./inp_files/26181.got.cif
#   From: 2010.05.17/outbox.cif.g08.bks.cpg/sg58_14_cif.got.tgz:26181.got - 2010.06.03 14:20:14.
