data_PCOD9444959
_publ_section_title
;
Structure prediction by ZEFSAII (Michael W. Deem and Ramdas Pophale) SiO2 
 PCOD9444959
Probable space group: P N N M
;
_chemical_formula_sum "Si O2"
_cell_formula_units_Z 64
_cell_length_a 12.190320
_cell_length_b 29.642186
_cell_length_c 8.960457
_cell_angle_alpha 90.000000
_cell_angle_beta 90.000000
_cell_angle_gamma 90.000000
_cell_volume 3237.840822
_symmetry_space_group_name_H-M "P N N M"
_symmetry_group_IT_number 58
_symmetry_cell_setting 'orthorhombic'
loop_
_space_group_symop_operation_xyz
x,y,z
-x,-y,z
1/2+x,1/2-y,1/2-z
1/2-x,1/2+y,1/2-z
-x,-y,-z
x,y,-z
1/2-x,1/2+y,1/2+z
1/2+x,1/2-y,1/2+z
loop_
_atom_site_type_symbol
_atom_site_label
_atom_site_fract_x
_atom_site_fract_y
_atom_site_fract_z
Si Si1 0.059864 0.562067 0.829004
Si Si2 0.847465 0.339838 0.827634
Si Si3 0.484520 0.776925 0.821272
Si Si4 0.805988 0.564409 0.176619
Si Si5 0.269730 0.522615 0.676032
Si Si6 0.371631 0.607790 0.180008
Si Si7 0.780119 0.662416 0.320660
Si Si8 0.450249 0.320760 0.820360
O O1 0.073556 0.616213 0.822116
O O2 0.148817 0.542160 0.717051
O O3 0.933849 0.550205 0.802352
O O4 0.090101 0.548683 0.000000
O O5 0.730219 0.359378 0.777007
O O6 0.904975 0.300427 0.737427
O O7 0.835603 0.325806 0.000000
O O8 0.380051 0.805678 0.768408
O O9 0.482512 0.724358 0.780331
O O10 0.484834 0.779386 0.000000
O O11 0.728919 0.525981 0.245404
O O12 0.792551 0.612217 0.255981
O O13 0.787296 0.569042 0.000000
O O14 0.283520 0.518604 0.500000
O O15 0.352185 0.559668 0.744056
O O16 0.482134 0.634223 0.218039
O O17 0.364641 0.602233 0.000000
O O18 0.781125 0.660891 0.500000
O O19 0.665322 0.680779 0.260820
O O20 0.434866 0.320899 0.000000
#
# Coordination Sequence:
#
# PCOD9444959 Si02
#       8
#     8   8   8   8   8   8   8   8
#     4   9  18  33  53  81 118 159 200 240 287 352
#     4   9  17  32  57  86 115 152 195 239 288 346
#     4  10  22  38  59  88 121 154 191 242 300 358
#     4  11  21  37  60  84 118 163 207 246 296 363
#     4  11  22  34  55  88 124 157 198 251 308 359
#     4   9  20  40  62  83 115 159 207 250 292 353
#     4  11  24  41  62  91 126 156 196 254 310 354
#     4  10  23  43  64  85 116 160 206 247 294 360
#
# _framework density 19.766258000000001
#
# number of rings (size 3 to 8) (size 9 to 14) (size 15 to 20)
#    0.000    2.000    1.250    3.000    1.750    6.000 
#    0.000    0.625    0.000    3.750    0.000    0.000 
#    0.000    0.000    0.000    0.000    0.000    0.000 
#
# Total GULP energy -357440.445742 kJ/mol
# GULP energy per Si atom -5585.006965 kJ/mol
# Density = 1.972127 g / cm^3
# Si number density = 19.766258 Si / 1000 Ang^3
#
#
#
# Elastic Constant Matrix: (Units=GPa)
#
#
# Indices 1 2 3 4 5 6 
#
# 1 43.2068 17.4024 16.9832 0.0000 0.0000 0.0000
# 2 17.4024 90.0669 32.3596 0.0000 0.0000 0.0000
# 3 16.9832 32.3596 44.8114 0.0000 0.0000 0.0000
# 4 0.0000 0.0000 0.0000 30.1978 0.0000 0.0000
# 5 0.0000 0.0000 0.0000 0.0000 20.8308 0.0000
# 6 0.0000 0.0000 0.0000 0.0000 0.0000 14.0264
#
#
#
# Elastic Compliance Matrix: (Units=1/GPa)
#
#
# Indices 1 2 3 4 5 6 
#
# 1 0.027492 -0.002118 -0.008890 0.000000 0.000000 0.000000
# 2 -0.002118 0.015156 -0.010142 0.000000 0.000000 0.000000
# 3 -0.008890 -0.010142 0.033009 0.000000 0.000000 0.000000
# 4 0.000000 0.000000 0.000000 0.033115 0.000000 0.000000
# 5 0.000000 0.000000 0.000000 0.000000 0.048006 0.000000
# 6 0.000000 0.000000 0.000000 0.000000 0.000000 0.071294
#
#
# Mechanical properties :
#
#
# Convention : Reuss Voigt Hill
#
# Bulk Modulus (GPa) = 29.97847 34.61950 32.29898
# Shear Modulus (GPa) = 17.76265 20.43365 19.09815
#
# Velocity S-wave (km/s) = 3.00098 3.21871 3.11175
# Velocity P-wave (km/s) = 5.21605 5.60053 5.41171
#
# Compressibility (1/GPa) = 0.03335727
#
# Stress axis : x y z
#
# Youngs Moduli (GPa) = 36.37441 65.98106 30.29514
#
# Poissons Ratio (x) = 0.13974 0.26932
# Poissons Ratio (y) = 0.07704 0.30725
# Poissons Ratio (z) = 0.32336 0.66917
#
# Static dielectric constant tensor:
#      x y z
#    x 1.694840 0.000000 0.000000 
#    y 0.000000 1.714120 0.000000 
#    z 0.000000 0.000000 1.663390 
# 
# From -- ./inp_files/4663.got.cif
#   From: 2010.05.17/outbox.cif.g08.bks.cpg/sg58_3_cif.got.tgz:4663.got - 2010.06.03 14:20:14.
