data_PCOD9444772
_publ_section_title
;
Structure prediction by ZEFSAII (Michael W. Deem and Ramdas Pophale) SiO2 
 PCOD9444772
Probable space group: P N N M
;
_chemical_formula_sum "Si O2"
_cell_formula_units_Z 40
_cell_length_a 8.127238
_cell_length_b 9.053101
_cell_length_c 23.432310
_cell_angle_alpha 90.000000
_cell_angle_beta 90.000000
_cell_angle_gamma 90.000000
_cell_volume 1724.072195
_symmetry_space_group_name_H-M "P N N M"
_symmetry_group_IT_number 58
_symmetry_cell_setting 'orthorhombic'
loop_
_space_group_symop_operation_xyz
x,y,z
-x,-y,z
1/2+x,1/2-y,1/2-z
1/2-x,1/2+y,1/2-z
-x,-y,-z
x,y,-z
1/2-x,1/2+y,1/2+z
1/2+x,1/2-y,1/2+z
loop_
_atom_site_type_symbol
_atom_site_label
_atom_site_fract_x
_atom_site_fract_y
_atom_site_fract_z
Si Si1 0.817048 0.176092 0.635499
Si Si2 0.708687 0.843561 0.335283
Si Si3 0.863410 0.699639 0.567950
Si Si4 0.164512 0.084487 0.932357
Si Si5 0.499748 0.171563 0.769983
O O1 0.681719 0.263626 0.600446
O O2 0.851964 0.255504 0.694990
O O3 0.979487 0.216832 0.596362
O O4 0.772617 0.009613 0.652435
O O5 0.712539 0.773355 0.397871
O O6 0.545364 0.827337 0.297024
O O7 0.844414 0.756470 0.296536
O O8 0.865758 0.721668 0.500000
O O9 0.821338 0.525428 0.577596
O O10 0.158297 0.110057 0.000000
O O11 0.000000 0.000000 0.915027
O O12 0.500000 0.000000 0.785970
#
# Coordination Sequence:
#
# PCOD9444772 Si02
#       5
#     8   8   8   8   8
#     4  11  22  40  66  96 128 170 225 278 332 392
#     4  11  25  42  65  98 131 171 221 278 340 400
#     4  10  21  40  67  97 131 173 221 273 331 397
#     4  10  22  40  63  95 135 179 223 271 338 409
#     4  11  23  42  63  89 130 172 218 271 336 408
#
# _framework density 23.200887000000002
#
# number of rings (size 3 to 8) (size 9 to 14) (size 15 to 20)
#    0.000    1.400    0.000    7.200    0.000    7.200 
#    0.000    4.000    0.000    4.200    0.000    0.000 
#    0.000    0.000    0.000    0.000    0.000    0.000 
#
# Total GULP energy -223211.630641 kJ/mol
# GULP energy per Si atom -5580.290766 kJ/mol
# Density = 2.314808 g / cm^3
# Si number density = 23.200887 Si / 1000 Ang^3
#
#
#
# Elastic Constant Matrix: (Units=GPa)
#
#
# Indices 1 2 3 4 5 6 
#
# 1 103.9168 35.2857 33.4087 0.0000 0.0000 0.0000
# 2 35.2857 168.9617 49.6123 0.0000 0.0000 0.0000
# 3 33.4087 49.6123 116.8448 0.0000 0.0000 0.0000
# 4 0.0000 0.0000 0.0000 27.0482 0.0000 0.0000
# 5 0.0000 0.0000 0.0000 0.0000 39.1618 0.0000
# 6 0.0000 0.0000 0.0000 0.0000 0.0000 29.9169
#
#
#
# Elastic Compliance Matrix: (Units=1/GPa)
#
#
# Indices 1 2 3 4 5 6 
#
# 1 0.010946 -0.001562 -0.002467 0.000000 0.000000 0.000000
# 2 -0.001562 0.006984 -0.002519 0.000000 0.000000 0.000000
# 3 -0.002467 -0.002519 0.010333 0.000000 0.000000 0.000000
# 4 0.000000 0.000000 0.000000 0.036971 0.000000 0.000000
# 5 0.000000 0.000000 0.000000 0.000000 0.025535 0.000000
# 6 0.000000 0.000000 0.000000 0.000000 0.000000 0.033426
#
#
# Mechanical properties :
#
#
# Convention : Reuss Voigt Hill
#
# Bulk Modulus (GPa) = 65.92380 69.59297 67.75839
# Shear Modulus (GPa) = 35.12537 37.31982 36.22259
#
# Velocity S-wave (km/s) = 3.89519 4.01503 3.95556
# Velocity P-wave (km/s) = 6.97897 7.18017 7.08029
#
# Compressibility (1/GPa) = 0.01516903
#
# Stress axis : x y z
#
# Youngs Moduli (GPa) = 91.35410 143.17816 96.77513
#
# Poissons Ratio (x) = 0.22360 0.23872
# Poissons Ratio (y) = 0.14267 0.24378
# Poissons Ratio (z) = 0.22535 0.36067
#
# Static dielectric constant tensor:
#      x y z
#    x 2.012640 0.000000 0.000000 
#    y 0.000000 3.952480 0.000000 
#    z 0.000000 0.000000 1.841210 
# 
# From -- ./inp_files/31286.got.cif
#   From: 2010.05.17/outbox.cif.g08.bks.cpg/sg58_16_cif.got.tgz:31286.got - 2010.06.03 14:20:14.
