data_PCOD9444305
_publ_section_title
;
Structure prediction by ZEFSAII (Michael W. Deem and Ramdas Pophale) SiO2 
 PCOD9444305
Probable space group: P N N M
;
_chemical_formula_sum "Si O2"
_cell_formula_units_Z 48
_cell_length_a 10.989748
_cell_length_b 8.078485
_cell_length_c 26.199069
_cell_angle_alpha 90.000000
_cell_angle_beta 90.000000
_cell_angle_gamma 90.000000
_cell_volume 2325.966822
_symmetry_space_group_name_H-M "P N N M"
_symmetry_group_IT_number 58
_symmetry_cell_setting 'orthorhombic'
loop_
_space_group_symop_operation_xyz
x,y,z
-x,-y,z
1/2+x,1/2-y,1/2-z
1/2-x,1/2+y,1/2-z
-x,-y,-z
x,y,-z
1/2-x,1/2+y,1/2+z
1/2+x,1/2-y,1/2+z
loop_
_atom_site_type_symbol
_atom_site_label
_atom_site_fract_x
_atom_site_fract_y
_atom_site_fract_z
Si Si1 0.066802 0.691024 0.669838
Si Si2 0.400205 0.357712 0.558459
Si Si3 0.000000 0.500000 0.912981
Si Si4 0.236120 0.411876 0.148051
Si Si5 0.308966 0.771183 0.136096
Si Si6 0.239880 0.455947 0.268310
Si Si7 0.500000 0.500000 0.757847
O O1 0.130313 0.564002 0.708882
O O2 0.945973 0.659291 0.636767
O O3 0.179838 0.755096 0.636344
O O4 0.025208 0.842967 0.706239
O O5 0.500000 0.500000 0.572636
O O6 0.363676 0.393505 0.500000
O O7 0.452034 0.167595 0.559661
O O8 0.285650 0.353165 0.597067
O O9 0.107857 0.427671 0.878444
O O10 0.309001 0.574566 0.129688
O O11 0.219294 0.416190 0.209306
O O12 0.258530 0.800229 0.193585
O O13 0.375807 0.530498 0.272750
#
# Coordination Sequence:
#
# PCOD9444305 Si02
#       7
#     8   8   4   8   8   8   4
#     4  11  21  37  55  81 127 176 209 263 308 384
#     4  10  24  47  71  96 128 167 222 293 340 383
#     4  10  23  38  74 100 124 168 227 266 342 402
#     4  10  21  37  56  87 133 169 205 265 314 389
#     4  11  22  39  57  91 119 169 212 264 328 392
#     4  11  23  34  56  84 131 175 216 253 312 388
#     4  10  22  36  52  80 126 172 216 250 302 364
#
# _framework density 20.636579999999999
#
# number of rings (size 3 to 8) (size 9 to 14) (size 15 to 20)
#    0.000    1.500    3.333    2.750    5.833    1.333 
#    0.000    0.000    0.000   11.000    0.000    0.000 
#    0.000    0.000    0.000    0.000    0.000    0.000 
#
# Total GULP energy -267694.289751 kJ/mol
# GULP energy per Si atom -5576.964370 kJ/mol
# Density = 2.058961 g / cm^3
# Si number density = 20.636580 Si / 1000 Ang^3
#
#
#
# Elastic Constant Matrix: (Units=GPa)
#
#
# Indices 1 2 3 4 5 6 
#
# 1 163.3699 27.9354 59.9184 0.0000 0.0000 0.0000
# 2 27.9354 66.8297 17.0211 0.0000 0.0000 0.0000
# 3 59.9184 17.0211 79.3279 0.0000 0.0000 0.0000
# 4 0.0000 0.0000 0.0000 18.9381 0.0000 0.0000
# 5 0.0000 0.0000 0.0000 0.0000 17.6411 0.0000
# 6 0.0000 0.0000 0.0000 0.0000 0.0000 38.9298
#
#
#
# Elastic Compliance Matrix: (Units=1/GPa)
#
#
# Indices 1 2 3 4 5 6 
#
# 1 0.008733 -0.002084 -0.006149 0.000000 0.000000 0.000000
# 2 -0.002084 0.016326 -0.001929 0.000000 0.000000 0.000000
# 3 -0.006149 -0.001929 0.017664 0.000000 0.000000 0.000000
# 4 0.000000 0.000000 0.000000 0.052804 0.000000 0.000000
# 5 0.000000 0.000000 0.000000 0.000000 0.056686 0.000000
# 6 0.000000 0.000000 0.000000 0.000000 0.000000 0.025687
#
#
# Mechanical properties :
#
#
# Convention : Reuss Voigt Hill
#
# Bulk Modulus (GPa) = 44.64458 57.69747 51.17103
# Shear Modulus (GPa) = 24.30854 28.74531 26.52692
#
# Velocity S-wave (km/s) = 3.43583 3.73625 3.58918
# Velocity P-wave (km/s) = 6.11723 6.82878 6.48278
#
# Compressibility (1/GPa) = 0.02239914
#
# Stress axis : x y z
#
# Youngs Moduli (GPa) = 114.51303 61.25248 56.61210
#
# Poissons Ratio (x) = 0.12767 0.34809
# Poissons Ratio (y) = 0.23868 0.10919
# Poissons Ratio (z) = 0.70411 0.11814
#
# Static dielectric constant tensor:
#      x y z
#    x 1.800410 0.000000 0.000000 
#    y 0.000000 1.888930 0.000000 
#    z 0.000000 0.000000 1.691260 
# 
# From -- ./inp_files/33529.got.cif
#   From: 2010.05.17/outbox.cif.g08.bks.cpg/sg58_17_cif.got.tgz:33529.got - 2010.06.03 14:20:14.
