data_PCOD9444498
_publ_section_title
;
Structure prediction by ZEFSAII (Michael W. Deem and Ramdas Pophale) SiO2 
 PCOD9444498
Probable space group: P N N M
;
_chemical_formula_sum "Si O2"
_cell_formula_units_Z 64
_cell_length_a 31.489950
_cell_length_b 12.207337
_cell_length_c 8.586419
_cell_angle_alpha 90.000000
_cell_angle_beta 90.000000
_cell_angle_gamma 90.000000
_cell_volume 3300.691862
_symmetry_space_group_name_H-M "P N N M"
_symmetry_group_IT_number 58
_symmetry_cell_setting 'orthorhombic'
loop_
_space_group_symop_operation_xyz
x,y,z
-x,-y,z
1/2+x,1/2-y,1/2-z
1/2-x,1/2+y,1/2-z
-x,-y,-z
x,y,-z
1/2-x,1/2+y,1/2+z
1/2+x,1/2-y,1/2+z
loop_
_atom_site_type_symbol
_atom_site_label
_atom_site_fract_x
_atom_site_fract_y
_atom_site_fract_z
Si Si1 0.126576 0.112277 0.188261
Si Si2 0.049188 0.256279 0.686237
Si Si3 0.204905 0.711334 0.185991
Si Si4 0.459094 0.231664 0.314264
Si Si5 0.830366 0.509968 0.683912
Si Si6 0.796092 0.734331 0.815138
Si Si7 0.874541 0.139732 0.810275
Si Si8 0.569804 0.995808 0.185958
O O1 0.086090 0.179754 0.247376
O O2 0.169626 0.174563 0.236781
O O3 0.125824 0.986308 0.241254
O O4 0.125638 0.113265 0.000000
O O5 0.051783 0.254846 0.500000
O O6 0.056537 0.382604 0.737564
O O7 0.002357 0.223397 0.741051
O O8 0.196409 0.595095 0.266191
O O9 0.251236 0.753522 0.230753
O O10 0.167651 0.794649 0.237554
O O11 0.201566 0.698419 0.000000
O O12 0.461648 0.240570 0.500000
O O13 0.417063 0.296690 0.259924
O O14 0.453471 0.104796 0.267045
O O15 0.825751 0.531573 0.500000
O O16 0.816063 0.616770 0.776606
O O17 0.879864 0.485429 0.714813
O O18 0.789647 0.745819 0.000000
O O19 0.874758 0.139399 0.000000
O O20 0.562101 0.987546 0.000000
#
# Coordination Sequence:
#
# PCOD9444498 Si02
#       8
#     8   8   8   8   8   8   8   8
#     4  10  22  42  64  85 117 160 205 249 298 361
#     4  11  23  40  60  88 123 157 199 249 309 363
#     4  11  23  41  65  93 126 163 206 255 309 366
#     4  11  22  38  62  90 120 157 204 249 301 366
#     4  11  22  40  65  91 125 165 204 251 309 364
#     4  11  24  40  63  95 125 159 207 256 306 368
#     4   9  21  41  62  86 119 160 201 248 301 359
#     4  10  21  38  60  87 123 160 196 248 308 360
#
# _framework density 19.389873000000001
#
# number of rings (size 3 to 8) (size 9 to 14) (size 15 to 20)
#    0.000    1.500    2.500    2.250    1.750    4.000 
#    0.000    5.000    0.000    0.000    0.000    0.000 
#    0.000    0.000    0.000    0.000    0.000    0.000 
#
# Total GULP energy -357767.220672 kJ/mol
# GULP energy per Si atom -5590.112823 kJ/mol
# Density = 1.934574 g / cm^3
# Si number density = 19.389873 Si / 1000 Ang^3
#
#
#
# Elastic Constant Matrix: (Units=GPa)
#
#
# Indices 1 2 3 4 5 6 
#
# 1 105.0977 23.3620 9.0246 0.0000 0.0000 0.0000
# 2 23.3620 95.6588 -2.6923 0.0000 0.0000 0.0000
# 3 9.0246 -2.6923 9.6401 0.0000 0.0000 0.0000
# 4 0.0000 0.0000 0.0000 19.8096 0.0000 0.0000
# 5 0.0000 0.0000 0.0000 0.0000 29.6862 0.0000
# 6 0.0000 0.0000 0.0000 0.0000 0.0000 11.6951
#
#
#
# Elastic Compliance Matrix: (Units=1/GPa)
#
#
# Indices 1 2 3 4 5 6 
#
# 1 0.011162 -0.003044 -0.011299 0.000000 0.000000 0.000000
# 2 -0.003044 0.011367 0.006024 0.000000 0.000000 0.000000
# 3 -0.011299 0.006024 0.115994 0.000000 0.000000 0.000000
# 4 0.000000 0.000000 0.000000 0.050481 0.000000 0.000000
# 5 0.000000 0.000000 0.000000 0.000000 0.033686 0.000000
# 6 0.000000 0.000000 0.000000 0.000000 0.000000 0.085506
#
#
# Mechanical properties :
#
#
# Convention : Reuss Voigt Hill
#
# Bulk Modulus (GPa) = 8.20450 29.97615 19.09033
# Shear Modulus (GPa) = 13.68133 24.28500 18.98316
#
# Velocity S-wave (km/s) = 2.65918 3.54285 3.13233
# Velocity P-wave (km/s) = 3.69714 5.67705 4.79050
#
# Compressibility (1/GPa) = 0.12188434
#
# Stress axis : x y z
#
# Youngs Moduli (GPa) = 89.59072 87.97572 8.62112
#
# Poissons Ratio (x) = 0.26780 0.09741
# Poissons Ratio (y) = 0.27271 -0.05193
# Poissons Ratio (z) = 1.01232 -0.52998
#
# Static dielectric constant tensor:
#      x y z
#    x 1.663190 0.000000 0.000000 
#    y 0.000000 1.654540 0.000000 
#    z 0.000000 0.000000 1.657790 
# 
# From -- ./inp_files/4767.got.cif
#   From: 2010.05.17/outbox.cif.g08.bks.cpg/sg58_3_cif.got.tgz:4767.got - 2010.06.03 14:20:14.
