data_PCOD9444870
_publ_section_title
;
Structure prediction by ZEFSAII (Michael W. Deem and Ramdas Pophale) SiO2 
 PCOD9444870
Probable space group: P N N M
;
_chemical_formula_sum "Si O2"
_cell_formula_units_Z 36
_cell_length_a 14.165274
_cell_length_b 12.936690
_cell_length_c 9.852099
_cell_angle_alpha 90.000000
_cell_angle_beta 90.000000
_cell_angle_gamma 90.000000
_cell_volume 1805.414467
_symmetry_space_group_name_H-M "P N N M"
_symmetry_group_IT_number 58
_symmetry_cell_setting 'orthorhombic'
loop_
_space_group_symop_operation_xyz
x,y,z
-x,-y,z
1/2+x,1/2-y,1/2-z
1/2-x,1/2+y,1/2-z
-x,-y,-z
x,y,-z
1/2-x,1/2+y,1/2+z
1/2+x,1/2-y,1/2+z
loop_
_atom_site_type_symbol
_atom_site_label
_atom_site_fract_x
_atom_site_fract_y
_atom_site_fract_z
Si Si1 0.974989 0.689435 0.500000
Si Si2 0.879504 0.739847 0.000000
Si Si3 0.405153 0.574441 0.000000
Si Si4 0.890346 0.988146 0.000000
Si Si5 0.770863 0.973873 0.242286
Si Si6 0.301805 0.174554 0.000000
Si Si7 0.577663 0.085656 0.279480
O O1 0.937161 0.806084 0.500000
O O2 0.940449 0.624176 0.371638
O O3 0.088078 0.694657 0.500000
O O4 0.926484 0.686501 0.127702
O O5 0.885005 0.862773 0.000000
O O6 0.765807 0.725731 0.000000
O O7 0.500000 0.500000 0.000000
O O8 0.338655 0.558500 0.866417
O O9 0.838578 0.030746 0.866775
O O10 0.000000 0.000000 0.000000
O O11 0.681691 0.037926 0.293316
O O12 0.723591 0.887595 0.140267
O O13 0.500000 0.000000 0.316854
#
# Coordination Sequence:
#
# PCOD9444870 Si02
#       7
#     4   4   4   4   8   4   8
#     4  12  23  42  69  99 125 177 222 261 317 401
#     4  10  24  40  61  97 131 170 206 277 321 378
#     4  12  27  44  65 103 135 167 217 277 334 382
#     4  10  21  45  65  89 128 177 221 254 319 393
#     4  10  22  42  65  91 133 167 214 272 316 385
#     4  10  21  44  65  92 129 177 218 260 320 386
#     4  12  23  42  67  98 132 168 220 265 329 384
#
# _framework density 19.940021000000002
#
# number of rings (size 3 to 8) (size 9 to 14) (size 15 to 20)
#    0.000    1.333    2.222    6.000    3.111    0.000 
#    0.000    2.222    0.000    0.000    0.000    0.000 
#    0.000    0.000    0.000    0.000    0.000    0.000 
#
# Total GULP energy -200727.544367 kJ/mol
# GULP energy per Si atom -5575.765121 kJ/mol
# Density = 1.989464 g / cm^3
# Si number density = 19.940021 Si / 1000 Ang^3
#
#
#
# Elastic Constant Matrix: (Units=GPa)
#
#
# Indices 1 2 3 4 5 6 
#
# 1 146.8838 26.1793 25.5975 0.0000 0.0000 0.0000
# 2 26.1793 63.3284 2.8116 0.0000 0.0000 0.0000
# 3 25.5975 2.8116 105.9495 0.0000 0.0000 0.0000
# 4 0.0000 0.0000 0.0000 35.4944 0.0000 0.0000
# 5 0.0000 0.0000 0.0000 0.0000 28.2614 0.0000
# 6 0.0000 0.0000 0.0000 0.0000 0.0000 41.1630
#
#
#
# Elastic Compliance Matrix: (Units=1/GPa)
#
#
# Indices 1 2 3 4 5 6 
#
# 1 0.007668 -0.003091 -0.001770 0.000000 0.000000 0.000000
# 2 -0.003091 0.017055 0.000294 0.000000 0.000000 0.000000
# 3 -0.001770 0.000294 0.009858 0.000000 0.000000 0.000000
# 4 0.000000 0.000000 0.000000 0.028173 0.000000 0.000000
# 5 0.000000 0.000000 0.000000 0.000000 0.035384 0.000000
# 6 0.000000 0.000000 0.000000 0.000000 0.000000 0.024294
#
#
# Mechanical properties :
#
#
# Convention : Reuss Voigt Hill
#
# Bulk Modulus (GPa) = 39.29774 47.25982 43.27878
# Shear Modulus (GPa) = 35.70165 38.42197 37.06181
#
# Velocity S-wave (km/s) = 4.23596 4.39438 4.31590
# Velocity P-wave (km/s) = 6.60873 7.03562 6.82551
#
# Compressibility (1/GPa) = 0.02544676
#
# Stress axis : x y z
#
# Youngs Moduli (GPa) = 130.41933 58.63217 101.43635
#
# Poissons Ratio (x) = 0.18124 0.17959
# Poissons Ratio (y) = 0.40314 -0.02984
# Poissons Ratio (z) = 0.23090 -0.01725
#
# Static dielectric constant tensor:
#      x y z
#    x 1.827840 0.000000 0.000000 
#    y 0.000000 1.718880 0.000000 
#    z 0.000000 0.000000 1.670820 
# 
# From -- ./inp_files/5352.got.cif
#   From: 2010.05.17/outbox.cif.g08.bks.cpg/sg58_3_cif.got.tgz:5352.got - 2010.06.03 14:20:14.
