data_PCOD9444642
_publ_section_title
;
Structure prediction by ZEFSAII (Michael W. Deem and Ramdas Pophale) SiO2 
 PCOD9444642
Probable space group: P N N M
;
_chemical_formula_sum "Si O2"
_cell_formula_units_Z 58
_cell_length_a 17.832211
_cell_length_b 20.478046
_cell_length_c 7.508822
_cell_angle_alpha 90.000000
_cell_angle_beta 90.000000
_cell_angle_gamma 90.000000
_cell_volume 2741.987798
_symmetry_space_group_name_H-M "P N N M"
_symmetry_group_IT_number 58
_symmetry_cell_setting 'orthorhombic'
loop_
_space_group_symop_operation_xyz
x,y,z
-x,-y,z
1/2+x,1/2-y,1/2-z
1/2-x,1/2+y,1/2-z
-x,-y,-z
x,y,-z
1/2-x,1/2+y,1/2+z
1/2+x,1/2-y,1/2+z
loop_
_atom_site_type_symbol
_atom_site_label
_atom_site_fract_x
_atom_site_fract_y
_atom_site_fract_z
Si Si1 0.146891 0.399084 0.782228
Si Si2 0.746025 0.716729 0.792549
Si Si3 0.978072 0.365199 0.782564
Si Si4 0.926049 0.221918 0.785582
Si Si5 0.500000 0.500000 0.000000
Si Si6 0.660952 0.952542 0.282215
Si Si7 0.204898 0.139696 0.704824
Si Si8 0.039907 0.107406 0.203441
O O1 0.205310 0.343846 0.722458
O O2 0.062448 0.381243 0.726718
O O3 0.166518 0.472489 0.725338
O O4 0.148159 0.399550 0.000000
O O5 0.657500 0.705056 0.775750
O O6 0.766042 0.786175 0.708521
O O7 0.765247 0.723831 0.000000
O O8 0.951282 0.293625 0.723031
O O9 0.917017 0.418866 0.727098
O O10 0.978465 0.364897 0.000000
O O11 0.985617 0.166621 0.737449
O O12 0.923905 0.225035 0.000000
O O13 0.530778 0.450185 0.156787
O O14 0.661022 0.951597 0.500000
O O15 0.730183 0.907708 0.222665
O O16 0.192821 0.120638 0.500000
O O17 0.125316 0.132408 0.797410
O O18 0.019216 0.089218 0.000000
#
# Coordination Sequence:
#
# PCOD9444642 Si02
#       8
#     8   8   8   8   2   8   8   8
#     4   9  18  31  50  85 120 153 199 258 323 387
#     4  11  22  35  57  91 129 168 218 274 327 395
#     4   9  15  30  56  84 119 157 199 256 318 391
#     4  10  21  39  62  91 124 164 216 274 331 394
#     4  12  26  48  68  98 132 176 226 288 340 414
#     4   9  17  30  54  87 122 159 203 257 324 395
#     4  11  21  39  63  93 129 173 222 271 331 402
#     4  11  25  45  70  98 133 177 229 284 342 407
#
# _framework density 21.152538
#
# number of rings (size 3 to 8) (size 9 to 14) (size 15 to 20)
#    0.000    1.931    2.069    2.276    0.966    4.966 
#    2.483    0.000    0.000    2.483    0.000    0.966 
#    0.000    0.000    0.000    0.000    0.000    0.000 
#
# Total GULP energy -323645.713140 kJ/mol
# GULP energy per Si atom -5580.098502 kJ/mol
# Density = 2.110439 g / cm^3
# Si number density = 21.152538 Si / 1000 Ang^3
#
#
#
# Elastic Constant Matrix: (Units=GPa)
#
#
# Indices 1 2 3 4 5 6 
#
# 1 211.0088 70.8960 10.9459 0.0000 0.0000 0.0000
# 2 70.8960 219.9687 7.7234 0.0000 0.0000 0.0000
# 3 10.9459 7.7234 70.5474 0.0000 0.0000 0.0000
# 4 0.0000 0.0000 0.0000 -2.7587 0.0000 0.0000
# 5 0.0000 0.0000 0.0000 0.0000 12.8747 0.0000
# 6 0.0000 0.0000 0.0000 0.0000 0.0000 289.0819
#
#
#
# Elastic Compliance Matrix: (Units=1/GPa)
#
#
# Indices 1 2 3 4 5 6 
#
# 1 0.005344 -0.001700 -0.000643 0.000000 0.000000 0.000000
# 2 -0.001700 0.005104 -0.000295 0.000000 0.000000 0.000000
# 3 -0.000643 -0.000295 0.014307 0.000000 0.000000 0.000000
# 4 0.000000 0.000000 0.000000 -0.362487 0.000000 0.000000
# 5 0.000000 0.000000 0.000000 0.000000 0.077672 0.000000
# 6 0.000000 0.000000 0.000000 0.000000 0.000000 0.003459
#
#
# Mechanical properties :
#
#
# Convention : Reuss Voigt Hill
#
# Bulk Modulus (GPa) = 51.33669 75.62837 63.48253
# Shear Modulus (GPa) = -20.42212 87.30355 33.44071
#
# Velocity S-wave (km/s) = -3.11057 6.43140 3.98041
# Velocity P-wave (km/s) = 3.37958 9.53845 7.15554
#
# Compressibility (1/GPa) = 0.01947925
#
# Stress axis : x y z
#
# Youngs Moduli (GPa) = 187.14134 195.91475 69.89612
#
# Poissons Ratio (x) = 0.33299 0.04494
# Poissons Ratio (y) = 0.31808 0.02063
# Poissons Ratio (z) = 0.12033 0.05781
#
# Static dielectric constant tensor:
#      x y z
#    x 1.719140 0.000000 0.000000 
#    y 0.000000 1.720510 0.000000 
#    z 0.000000 0.000000 1.815300 
# 
# From -- ./inp_files/7989.got.cif
#   From: 2010.05.17/outbox.cif.g08.bks.cpg/sg58_4_cif.got.tgz:7989.got - 2010.06.03 14:20:14.
