data_PCOD9444697
_publ_section_title
;
Structure prediction by ZEFSAII (Michael W. Deem and Ramdas Pophale) SiO2 
 PCOD9444697
Probable space group: P N N M
;
_chemical_formula_sum "Si O2"
_cell_formula_units_Z 32
_cell_length_a 21.944248
_cell_length_b 11.035725
_cell_length_c 5.515071
_cell_angle_alpha 90.000000
_cell_angle_beta 90.000000
_cell_angle_gamma 90.000000
_cell_volume 1335.588529
_symmetry_space_group_name_H-M "P N N M"
_symmetry_group_IT_number 58
_symmetry_cell_setting 'orthorhombic'
loop_
_space_group_symop_operation_xyz
x,y,z
-x,-y,z
1/2+x,1/2-y,1/2-z
1/2-x,1/2+y,1/2-z
-x,-y,-z
x,y,-z
1/2-x,1/2+y,1/2+z
1/2+x,1/2-y,1/2+z
loop_
_atom_site_type_symbol
_atom_site_label
_atom_site_fract_x
_atom_site_fract_y
_atom_site_fract_z
Si Si1 0.311571 0.771312 0.000000
Si Si2 0.153398 0.869925 0.500000
Si Si3 0.698804 0.557101 0.500000
Si Si4 0.057030 0.254395 0.500000
Si Si5 0.945737 0.400608 0.000000
Si Si6 0.982404 0.856314 0.000000
Si Si7 0.268797 0.690848 0.500000
Si Si8 0.426800 0.144518 0.000000
O O1 0.245213 0.832270 0.000000
O O2 0.379226 0.825089 0.000000
O O3 0.308143 0.706577 0.741107
O O4 0.159405 0.939797 0.754210
O O5 0.211632 0.779320 0.500000
O O6 0.095383 0.783572 0.500000
O O7 0.747496 0.448841 0.500000
O O8 0.050915 0.173886 0.744406
O O9 0.000481 0.347942 0.500000
O O10 0.908019 0.413493 0.246602
O O11 0.000000 0.500000 0.000000
O O12 0.968628 0.258575 0.000000
O O13 0.000000 0.000000 0.000000
#
# Coordination Sequence:
#
# PCOD9444697 Si02
#       8
#     4   4   4   4   4   4   4   4
#     4  10  21  40  62  86 123 157 202 258 307 373
#     4  10  21  40  64  87 123 159 202 260 307 372
#     4  10  21  40  63  87 121 155 211 255 310 368
#     4  10  21  40  60  90 123 163 204 250 313 383
#     4  10  21  40  60  86 126 166 205 250 299 368
#     4  10  21  40  58  84 128 164 203 246 297 370
#     4  10  21  40  60  92 115 156 207 258 314 361
#     4  10  21  40  63  90 125 162 208 253 315 385
#
# _framework density 23.959475000000001
#
# number of rings (size 3 to 8) (size 9 to 14) (size 15 to 20)
#    0.000    2.000    0.000    3.000    0.000    0.000 
#   36.000    0.000    0.000    0.000    0.000    0.000 
#    0.000    0.000    0.000    0.000    0.000    0.000 
#
# Total GULP energy -178328.551503 kJ/mol
# GULP energy per Si atom -5572.767234 kJ/mol
# Density = 2.390494 g / cm^3
# Si number density = 23.959475 Si / 1000 Ang^3
#
#
#
# Elastic Constant Matrix: (Units=GPa)
#
#
# Indices 1 2 3 4 5 6 
#
# 1 44.2694 -15.2141 11.7714 0.0000 0.0000 0.0000
# 2 -15.2141 66.9768 36.2370 0.0000 0.0000 0.0000
# 3 11.7714 36.2370 246.3416 0.0000 0.0000 0.0000
# 4 0.0000 0.0000 0.0000 0.8759 0.0000 0.0000
# 5 0.0000 0.0000 0.0000 0.0000 3.6533 0.0000
# 6 0.0000 0.0000 0.0000 0.0000 0.0000 -15.7563
#
#
#
# Elastic Compliance Matrix: (Units=1/GPa)
#
#
# Indices 1 2 3 4 5 6 
#
# 1 0.025609 0.007040 -0.002259 0.000000 0.000000 0.000000
# 2 0.007040 0.018157 -0.003007 0.000000 0.000000 0.000000
# 3 -0.002259 -0.003007 0.004610 0.000000 0.000000 0.000000
# 4 0.000000 0.000000 0.000000 1.141709 0.000000 0.000000
# 5 0.000000 0.000000 0.000000 0.000000 0.273729 0.000000
# 6 0.000000 0.000000 0.000000 0.000000 0.000000 -0.063467
#
#
# Mechanical properties :
#
#
# Convention : Reuss Voigt Hill
#
# Bulk Modulus (GPa) = 19.25985 47.01957 33.13971
# Shear Modulus (GPa) = 3.53580 19.40746 11.47163
#
# Velocity S-wave (km/s) = 1.21612 2.84916 2.19051
# Velocity P-wave (km/s) = 3.16668 5.52185 4.50104
#
# Compressibility (1/GPa) = 0.05192149
#
# Stress axis : x y z
#
# Youngs Moduli (GPa) = 39.04877 55.07629 216.93262
#
# Poissons Ratio (x) = -0.38771 0.49010
# Poissons Ratio (y) = -0.27489 0.65237
# Poissons Ratio (z) = 0.08822 0.16563
#
# Static dielectric constant tensor:
#      x y z
#    x 1.415040 0.000000 0.000000 
#    y 0.000000 1.962960 0.000000 
#    z 0.000000 0.000000 1.955750 
# 
# From -- ./inp_files/848.got.cif
#   From: 2010.05.17/outbox.cif.g08.bks.cpg/sg58_1_cif.got.tgz:848.got - 2010.06.03 14:20:14.
