data_PCOD9444594
_publ_section_title
;
Structure prediction by ZEFSAII (Michael W. Deem and Ramdas Pophale) SiO2 
 PCOD9444594
Probable space group: P N N M
;
_chemical_formula_sum "Si O2"
_cell_formula_units_Z 58
_cell_length_a 24.705024
_cell_length_b 13.717714
_cell_length_c 7.825879
_cell_angle_alpha 90.000000
_cell_angle_beta 90.000000
_cell_angle_gamma 90.000000
_cell_volume 2652.162639
_symmetry_space_group_name_H-M "P N N M"
_symmetry_group_IT_number 58
_symmetry_cell_setting 'orthorhombic'
loop_
_space_group_symop_operation_xyz
x,y,z
-x,-y,z
1/2+x,1/2-y,1/2-z
1/2-x,1/2+y,1/2-z
-x,-y,-z
x,y,-z
1/2-x,1/2+y,1/2+z
1/2+x,1/2-y,1/2+z
loop_
_atom_site_type_symbol
_atom_site_label
_atom_site_fract_x
_atom_site_fract_y
_atom_site_fract_z
Si Si1 0.500000 0.000000 0.000000
Si Si2 0.766609 0.743057 0.314419
Si Si3 0.747443 0.038575 0.300961
Si Si4 0.676252 0.860944 0.809416
Si Si5 0.970397 0.659809 0.798355
Si Si6 0.621705 0.315108 0.700145
Si Si7 0.871898 0.025701 0.706085
Si Si8 0.078107 0.767287 0.290635
O O1 0.520535 0.077027 0.154428
O O2 0.742600 0.761707 0.500000
O O3 0.778724 0.630243 0.291589
O O4 0.720141 0.774223 0.185025
O O5 0.821382 0.802512 0.294988
O O6 0.751716 0.061385 0.500000
O O7 0.808909 0.024895 0.234489
O O8 0.708807 0.946424 0.280501
O O9 0.622215 0.813943 0.736113
O O10 0.663061 0.895733 0.000000
O O11 0.918697 0.727758 0.755893
O O12 0.021408 0.733057 0.782608
O O13 0.966027 0.627395 0.000000
O O14 0.633656 0.306550 0.500000
O O15 0.601231 0.424467 0.735879
O O16 0.871493 0.025514 0.500000
O O17 0.901309 0.125327 0.760684
O O18 0.076120 0.765255 0.500000
#
# Coordination Sequence:
#
# PCOD9444594 Si02
#       8
#     2   8   8   8   8   8   8   8
#     4  12  26  52  84  96 144 172 234 292 356 406
#     4  12  24  38  62  93 132 180 229 277 339 409
#     4  11  22  39  60  92 131 176 224 275 337 402
#     4  11  22  39  63  93 134 176 224 277 339 406
#     4  11  27  49  77 108 135 180 234 289 351 412
#     4  11  25  44  67  99 138 177 228 288 344 410
#     4  10  21  38  67 100 138 181 223 269 339 418
#     4  10  22  44  69  98 139 184 225 283 349 411
#
# _framework density 21.868946000000001
#
# number of rings (size 3 to 8) (size 9 to 14) (size 15 to 20)
#    0.000    1.103    3.448    2.690    1.931    3.862 
#    0.000    2.759    0.000    0.000    0.000    0.000 
#    0.000    0.000    0.000    0.000    0.000    0.000 
#
# Total GULP energy -323484.958599 kJ/mol
# GULP energy per Si atom -5577.326872 kJ/mol
# Density = 2.181917 g / cm^3
# Si number density = 21.868946 Si / 1000 Ang^3
#
#
#
# Elastic Constant Matrix: (Units=GPa)
#
#
# Indices 1 2 3 4 5 6 
#
# 1 33.8944 -26.9807 -6.9657 0.0000 0.0000 0.0000
# 2 -26.9807 53.7303 7.2439 0.0000 0.0000 0.0000
# 3 -6.9657 7.2439 68.7657 0.0000 0.0000 0.0000
# 4 0.0000 0.0000 0.0000 35.5278 0.0000 0.0000
# 5 0.0000 0.0000 0.0000 0.0000 36.6366 0.0000
# 6 0.0000 0.0000 0.0000 0.0000 0.0000 13.3176
#
#
#
# Elastic Compliance Matrix: (Units=1/GPa)
#
#
# Indices 1 2 3 4 5 6 
#
# 1 0.049548 0.024552 0.002433 0.000000 0.000000 0.000000
# 2 0.024552 0.031046 -0.000783 0.000000 0.000000 0.000000
# 3 0.002433 -0.000783 0.014871 0.000000 0.000000 0.000000
# 4 0.000000 0.000000 0.000000 0.028147 0.000000 0.000000
# 5 0.000000 0.000000 0.000000 0.000000 0.027295 0.000000
# 6 0.000000 0.000000 0.000000 0.000000 0.000000 0.075089
#
#
# Mechanical properties :
#
#
# Convention : Reuss Voigt Hill
#
# Bulk Modulus (GPa) = 6.76279 11.44282 9.10281
# Shear Modulus (GPa) = 22.43342 29.30258 25.86800
#
# Velocity S-wave (km/s) = 3.20630 3.66446 3.44301
# Velocity P-wave (km/s) = 4.09955 4.81125 4.46959
#
# Compressibility (1/GPa) = 0.14786789
#
# Stress axis : x y z
#
# Youngs Moduli (GPa) = 20.18263 32.21018 67.24465
#
# Poissons Ratio (x) = -0.79084 -0.16358
# Poissons Ratio (y) = -0.49553 0.05268
# Poissons Ratio (z) = -0.04910 0.02523
#
# Static dielectric constant tensor:
#      x y z
#    x 1.765880 0.000000 0.000000 
#    y 0.000000 1.845100 0.000000 
#    z 0.000000 0.000000 1.799800 
# 
# From -- ./inp_files/9911.got.cif
#   From: 2010.05.17/outbox.cif.g08.bks.cpg/sg58_5_cif.got.tgz:9911.got - 2010.06.03 14:20:14.
