data_PCOD9444756
_publ_section_title
;
Structure prediction by ZEFSAII (Michael W. Deem and Ramdas Pophale) SiO2 
 PCOD9444756
Probable space group: P N N M
;
_chemical_formula_sum "Si O2"
_cell_formula_units_Z 48
_cell_length_a 15.121090
_cell_length_b 19.166822
_cell_length_c 8.406652
_cell_angle_alpha 90.000000
_cell_angle_beta 90.000000
_cell_angle_gamma 90.000000
_cell_volume 2436.443124
_symmetry_space_group_name_H-M "P N N M"
_symmetry_group_IT_number 58
_symmetry_cell_setting 'orthorhombic'
loop_
_space_group_symop_operation_xyz
x,y,z
-x,-y,z
1/2+x,1/2-y,1/2-z
1/2-x,1/2+y,1/2-z
-x,-y,-z
x,y,-z
1/2-x,1/2+y,1/2+z
1/2+x,1/2-y,1/2+z
loop_
_atom_site_type_symbol
_atom_site_label
_atom_site_fract_x
_atom_site_fract_y
_atom_site_fract_z
Si Si1 0.250157 0.582999 0.307633
Si Si2 0.815248 0.262444 0.688278
Si Si3 0.903264 0.524258 0.694014
Si Si4 0.152374 0.321166 0.688083
Si Si5 0.052800 0.068835 0.689796
Si Si6 0.504227 0.280340 0.314780
O O1 0.258424 0.580696 0.500000
O O2 0.222522 0.661764 0.264078
O O3 0.172871 0.529930 0.258932
O O4 0.344119 0.563789 0.233857
O O5 0.833886 0.264485 0.500000
O O6 0.739664 0.206239 0.725121
O O7 0.905471 0.244616 0.777284
O O8 0.905814 0.524285 0.500000
O O9 0.878969 0.602578 0.743588
O O10 0.000000 0.500000 0.749252
O O11 0.171121 0.324763 0.500000
O O12 0.074037 0.266221 0.718262
O O13 0.043221 0.075318 0.500000
O O14 0.015559 0.139029 0.768282
O O15 0.000000 0.000000 0.742442
O O16 0.525220 0.271738 0.500000
#
# Coordination Sequence:
#
# PCOD9444756 Si02
#       6
#     8   8   8   8   8   8
#     4  10  21  40  66  94 124 165 211 255 310 379
#     4  11  23  40  64  93 126 165 208 260 318 378
#     4   9  19  37  62  92 124 162 206 251 306 373
#     4  11  22  39  64  95 128 162 206 262 316 377
#     4  11  25  43  63  91 126 165 208 264 326 378
#     4  12  25  42  65  92 124 168 215 261 313 378
#
# _framework density 19.700849000000002
#
# number of rings (size 3 to 8) (size 9 to 14) (size 15 to 20)
#    0.000    1.333    1.667    4.000    2.333    4.667 
#    0.000    0.833    0.000    3.500    0.000    0.000 
#    0.000    0.000    0.000    0.000    0.000    0.000 
#
# Total GULP energy -268465.202867 kJ/mol
# GULP energy per Si atom -5593.025060 kJ/mol
# Density = 1.965601 g / cm^3
# Si number density = 19.700849 Si / 1000 Ang^3
#
#
#
# Elastic Constant Matrix: (Units=GPa)
#
#
# Indices 1 2 3 4 5 6 
#
# 1 79.2974 12.7981 -4.8748 0.0000 0.0000 0.0000
# 2 12.7981 93.6035 9.8158 0.0000 0.0000 0.0000
# 3 -4.8748 9.8158 21.4513 0.0000 0.0000 0.0000
# 4 0.0000 0.0000 0.0000 21.3220 0.0000 0.0000
# 5 0.0000 0.0000 0.0000 0.0000 30.4655 0.0000
# 6 0.0000 0.0000 0.0000 0.0000 0.0000 39.4744
#
#
#
# Elastic Compliance Matrix: (Units=1/GPa)
#
#
# Indices 1 2 3 4 5 6 
#
# 1 0.013218 -0.002229 0.004024 0.000000 0.000000 0.000000
# 2 -0.002229 0.011598 -0.005814 0.000000 0.000000 0.000000
# 3 0.004024 -0.005814 0.050192 0.000000 0.000000 0.000000
# 4 0.000000 0.000000 0.000000 0.046900 0.000000 0.000000
# 5 0.000000 0.000000 0.000000 0.000000 0.032824 0.000000
# 6 0.000000 0.000000 0.000000 0.000000 0.000000 0.025333
#
#
# Mechanical properties :
#
#
# Convention : Reuss Voigt Hill
#
# Bulk Modulus (GPa) = 14.93213 25.53672 20.23442
# Shear Modulus (GPa) = 23.76137 30.02658 26.89397
#
# Velocity S-wave (km/s) = 3.47668 3.90824 3.69876
# Velocity P-wave (km/s) = 4.86952 5.77548 5.34174
#
# Compressibility (1/GPa) = 0.06696969
#
# Stress axis : x y z
#
# Youngs Moduli (GPa) = 75.65493 86.22321 19.92354
#
# Poissons Ratio (x) = 0.19221 -0.08017
# Poissons Ratio (y) = 0.16865 0.11583
# Poissons Ratio (z) = -0.30442 0.50127
#
# Static dielectric constant tensor:
#      x y z
#    x 1.643920 0.000000 0.000000 
#    y 0.000000 1.668650 0.000000 
#    z 0.000000 0.000000 1.672200 
# 
# From -- ./inp_files/5833.got.cif
#   From: 2010.05.17/outbox.cif.g08.bks.cpg/sg58_3_cif.got.tgz:5833.got - 2010.06.03 14:20:14.
