data_PCOD9444293
_publ_section_title
;
Structure prediction by ZEFSAII (Michael W. Deem and Ramdas Pophale) SiO2 
 PCOD9444293
Probable space group: P N N M
;
_chemical_formula_sum "Si O2"
_cell_formula_units_Z 64
_cell_length_a 12.339475
_cell_length_b 30.678764
_cell_length_c 7.713436
_cell_angle_alpha 90.000000
_cell_angle_beta 90.000000
_cell_angle_gamma 90.000000
_cell_volume 2919.997109
_symmetry_space_group_name_H-M "P N N M"
_symmetry_group_IT_number 58
_symmetry_cell_setting 'orthorhombic'
loop_
_space_group_symop_operation_xyz
x,y,z
-x,-y,z
1/2+x,1/2-y,1/2-z
1/2-x,1/2+y,1/2-z
-x,-y,-z
x,y,-z
1/2-x,1/2+y,1/2+z
1/2+x,1/2-y,1/2+z
loop_
_atom_site_type_symbol
_atom_site_label
_atom_site_fract_x
_atom_site_fract_y
_atom_site_fract_z
Si Si1 0.028740 0.224629 0.291192
Si Si2 0.641794 0.112099 0.704047
Si Si3 0.472649 0.182154 0.208850
Si Si4 0.147141 0.839502 0.702047
Si Si5 0.045060 0.928311 0.210298
Si Si6 0.737737 0.023922 0.793254
Si Si7 0.800746 0.933873 0.788831
Si Si8 0.266463 0.664619 0.708919
O O1 0.019833 0.225516 0.500000
O O2 0.034232 0.274415 0.228812
O O3 0.132801 0.195413 0.251473
O O4 0.918924 0.201238 0.223433
O O5 0.660019 0.110611 0.500000
O O6 0.532677 0.137889 0.740571
O O7 0.741505 0.141285 0.780538
O O8 0.651181 0.062014 0.761578
O O9 0.348730 0.183018 0.269389
O O10 0.472197 0.183053 0.000000
O O11 0.168677 0.829620 0.500000
O O12 0.064476 0.880042 0.717346
O O13 0.925848 0.944592 0.255117
O O14 0.147190 0.956612 0.270862
O O15 0.049586 0.925885 0.000000
O O16 0.727122 0.974383 0.728479
O O17 0.747231 0.020563 0.000000
O O18 0.777759 0.885108 0.725825
O O19 0.794114 0.931780 0.000000
O O20 0.263208 0.662406 0.500000
#
# Coordination Sequence:
#
# PCOD9444293 Si02
#       8
#     8   8   8   8   8   8   8   8
#     4  10  21  37  56  80 110 141 176 219 278 336
#     4  10  21  37  57  80 110 146 189 230 270 325
#     4  10  23  40  58  79 108 145 184 229 277 325
#     4   9  18  32  51  77 109 143 173 215 271 324
#     4   9  15  26  47  77 110 142 177 221 269 322
#     4   9  17  30  52  79 112 147 181 226 280 330
#     4   9  16  29  51  81 110 142 184 228 276 328
#     4  10  21  38  60  84 111 143 186 232 274 325
#
# _framework density 21.917829999999999
#
# number of rings (size 3 to 8) (size 9 to 14) (size 15 to 20)
#    0.000    2.500    1.250    0.750    1.750    3.000 
#    0.000    1.875    0.000    6.750    0.000    0.000 
#    0.000    0.000    0.000    0.000    0.000    0.000 
#
# Total GULP energy -356998.130128 kJ/mol
# GULP energy per Si atom -5578.095783 kJ/mol
# Density = 2.186794 g / cm^3
# Si number density = 21.917830 Si / 1000 Ang^3
#
#
#
# Elastic Constant Matrix: (Units=GPa)
#
#
# Indices 1 2 3 4 5 6 
#
# 1 38.7107 18.8022 2.8790 0.0000 0.0000 0.0000
# 2 18.8022 127.5129 8.2695 0.0000 0.0000 0.0000
# 3 2.8790 8.2695 29.8248 0.0000 0.0000 0.0000
# 4 0.0000 0.0000 0.0000 16.7062 0.0000 0.0000
# 5 0.0000 0.0000 0.0000 0.0000 10.5861 0.0000
# 6 0.0000 0.0000 0.0000 0.0000 0.0000 13.4305
#
#
#
# Elastic Compliance Matrix: (Units=1/GPa)
#
#
# Indices 1 2 3 4 5 6 
#
# 1 0.027899 -0.004011 -0.001581 0.000000 0.000000 0.000000
# 2 -0.004011 0.008563 -0.001987 0.000000 0.000000 0.000000
# 3 -0.001581 -0.001987 0.034233 0.000000 0.000000 0.000000
# 4 0.000000 0.000000 0.000000 0.059858 0.000000 0.000000
# 5 0.000000 0.000000 0.000000 0.000000 0.094464 0.000000
# 6 0.000000 0.000000 0.000000 0.000000 0.000000 0.074457
#
#
# Mechanical properties :
#
#
# Convention : Reuss Voigt Hill
#
# Bulk Modulus (GPa) = 18.00642 28.43888 23.22265
# Shear Modulus (GPa) = 15.00856 19.21772 17.11314
#
# Velocity S-wave (km/s) = 2.61964 2.96431 2.79729
# Velocity P-wave (km/s) = 4.16933 4.97187 4.58818
#
# Compressibility (1/GPa) = 0.05553575
#
# Stress axis : x y z
#
# Youngs Moduli (GPa) = 35.84417 116.78596 29.21182
#
# Poissons Ratio (x) = 0.46845 0.04618
# Poissons Ratio (y) = 0.14378 0.05804
# Poissons Ratio (z) = 0.05667 0.23205
#
# Static dielectric constant tensor:
#      x y z
#    x 1.784440 0.000000 0.000000 
#    y 0.000000 1.835160 0.000000 
#    z 0.000000 0.000000 1.818620 
# 
# From -- ./inp_files/4726.got.cif
#   From: 2010.05.17/outbox.cif.g08.bks.cpg/sg58_3_cif.got.tgz:4726.got - 2010.06.03 14:20:14.
