data_PCOD9444017
_publ_section_title
;
Structure prediction by ZEFSAII (Michael W. Deem and Ramdas Pophale) SiO2 
 PCOD9444017
Probable space group: P N N M
;
_chemical_formula_sum "Si O2"
_cell_formula_units_Z 56
_cell_length_a 5.190987
_cell_length_b 15.631927
_cell_length_c 30.036942
_cell_angle_alpha 90.000000
_cell_angle_beta 90.000000
_cell_angle_gamma 90.000000
_cell_volume 2437.351559
_symmetry_space_group_name_H-M "P N N M"
_symmetry_group_IT_number 58
_symmetry_cell_setting 'orthorhombic'
loop_
_space_group_symop_operation_xyz
x,y,z
-x,-y,z
1/2+x,1/2-y,1/2-z
1/2-x,1/2+y,1/2-z
-x,-y,-z
x,y,-z
1/2-x,1/2+y,1/2+z
1/2+x,1/2-y,1/2+z
loop_
_atom_site_type_symbol
_atom_site_label
_atom_site_fract_x
_atom_site_fract_y
_atom_site_fract_z
Si Si1 0.378694 0.253638 0.948967
Si Si2 0.882015 0.086954 0.392523
Si Si3 0.818681 0.807233 0.248250
Si Si4 0.752086 0.198798 0.128606
Si Si5 0.879516 0.412023 0.326658
Si Si6 0.606616 0.415961 0.581082
Si Si7 0.598837 0.865567 0.339382
O O1 0.284888 0.344880 0.929446
O O2 0.606830 0.234578 0.914574
O O3 0.198322 0.168855 0.945041
O O4 0.456939 0.262533 0.000000
O O5 0.644463 0.081219 0.357414
O O6 0.133243 0.116369 0.364823
O O7 0.000000 0.000000 0.413020
O O8 0.604478 0.730691 0.242132
O O9 0.831072 0.873290 0.206754
O O10 0.684164 0.861012 0.288385
O O11 0.569225 0.169320 0.167999
O O12 0.958599 0.266994 0.145830
O O13 0.867672 0.112828 0.110322
O O14 0.802060 0.429649 0.378053
O O15 0.000000 0.500000 0.309154
O O16 0.500000 0.500000 0.556269
#
# Coordination Sequence:
#
# PCOD9444017 Si02
#       7
#     8   8   8   8   8   8   8
#     4  10  24  41  64  97 129 165 216 275 337 403
#     4  11  24  44  70  95 131 177 224 273 338 403
#     4  12  25  40  65  96 131 176 224 275 324 384
#     4  10  20  41  62  88 126 172 211 263 328 402
#     4  11  23  37  61  94 125 168 220 273 319 388
#     4  11  21  39  68  92 126 173 217 265 333 405
#     4  11  22  43  67  95 131 178 222 272 331 397
#
# _framework density 22.975759
#
# number of rings (size 3 to 8) (size 9 to 14) (size 15 to 20)
#    0.000    1.143    4.286    2.143    2.000    2.286 
#    0.000    1.429    0.000    2.571    0.000    0.000 
#    0.000    0.000    0.000    0.000    0.000    0.000 
#
# Total GULP energy -311851.522733 kJ/mol
# GULP energy per Si atom -5568.777192 kJ/mol
# Density = 2.292347 g / cm^3
# Si number density = 22.975759 Si / 1000 Ang^3
#
#
#
# Elastic Constant Matrix: (Units=GPa)
#
#
# Indices 1 2 3 4 5 6 
#
# 1 85.4721 19.2945 7.6310 0.0000 0.0000 0.0000
# 2 19.2945 109.2144 35.6751 0.0000 0.0000 0.0000
# 3 7.6310 35.6751 74.4938 0.0000 0.0000 0.0000
# 4 0.0000 0.0000 0.0000 8.5483 0.0000 0.0000
# 5 0.0000 0.0000 0.0000 0.0000 -24.3715 0.0000
# 6 0.0000 0.0000 0.0000 0.0000 0.0000 40.9175
#
#
#
# Elastic Compliance Matrix: (Units=1/GPa)
#
#
# Indices 1 2 3 4 5 6 
#
# 1 0.012190 -0.002069 -0.000258 0.000000 0.000000 0.000000
# 2 -0.002069 0.011206 -0.005154 0.000000 0.000000 0.000000
# 3 -0.000258 -0.005154 0.015919 0.000000 0.000000 0.000000
# 4 0.000000 0.000000 0.000000 0.116982 0.000000 0.000000
# 5 0.000000 0.000000 0.000000 0.000000 -0.041031 0.000000
# 6 0.000000 0.000000 0.000000 0.000000 0.000000 0.024439
#
#
# Mechanical properties :
#
#
# Convention : Reuss Voigt Hill
#
# Bulk Modulus (GPa) = 41.06544 43.82014 42.44279
# Shear Modulus (GPa) = 30.71558 18.79085 24.75321
#
# Velocity S-wave (km/s) = 3.66029 2.86292 3.28588
# Velocity P-wave (km/s) = 5.98129 5.48107 5.73663
#
# Compressibility (1/GPa) = 0.02435138
#
# Stress axis : x y z
#
# Youngs Moduli (GPa) = 82.03534 89.24129 62.81894
#
# Poissons Ratio (x) = 0.18467 0.01619
# Poissons Ratio (y) = 0.16976 0.32379
# Poissons Ratio (z) = 0.02114 0.45998
#
# Static dielectric constant tensor:
#      x y z
#    x 1.988490 0.000000 0.000000 
#    y 0.000000 2.102540 0.000000 
#    z 0.000000 0.000000 1.833580 
# 
# From -- ./inp_files/34196.got.cif
#   From: 2010.05.17/outbox.cif.g08.bks.cpg/sg58_18_cif.got.tgz:34196.got - 2010.06.03 14:20:14.
