data_PCOD9444460
_publ_section_title
;
Structure prediction by ZEFSAII (Michael W. Deem and Ramdas Pophale) SiO2 
 PCOD9444460
Probable space group: P N N M
;
_chemical_formula_sum "Si O2"
_cell_formula_units_Z 48
_cell_length_a 12.659392
_cell_length_b 18.123932
_cell_length_c 10.898630
_cell_angle_alpha 90.000000
_cell_angle_beta 90.000000
_cell_angle_gamma 90.000000
_cell_volume 2500.559431
_symmetry_space_group_name_H-M "P N N M"
_symmetry_group_IT_number 58
_symmetry_cell_setting 'orthorhombic'
loop_
_space_group_symop_operation_xyz
x,y,z
-x,-y,z
1/2+x,1/2-y,1/2-z
1/2-x,1/2+y,1/2-z
-x,-y,-z
x,y,-z
1/2-x,1/2+y,1/2+z
1/2+x,1/2-y,1/2+z
loop_
_atom_site_type_symbol
_atom_site_label
_atom_site_fract_x
_atom_site_fract_y
_atom_site_fract_z
Si Si1 0.620591 0.973035 0.641697
Si Si2 0.038324 0.677365 0.141553
Si Si3 0.686888 0.224196 0.645779
Si Si4 0.096225 0.119028 0.855284
Si Si5 0.377020 0.335346 0.294384
Si Si6 0.257714 0.477264 0.364213
O O1 0.661888 0.978459 0.500000
O O2 0.611639 0.888279 0.688600
O O3 0.683831 0.017087 0.745019
O O4 0.500000 0.000000 0.638667
O O5 0.092148 0.757189 0.145230
O O6 0.920678 0.685949 0.196932
O O7 0.022876 0.655837 0.000000
O O8 0.682239 0.217377 0.500000
O O9 0.671729 0.311278 0.673123
O O10 0.795610 0.189311 0.689601
O O11 0.155231 0.041689 0.845585
O O12 0.991762 0.127895 0.772773
O O13 0.063529 0.126934 0.000000
O O14 0.313212 0.397895 0.365831
O O15 0.208712 0.490262 0.500000
#
# Coordination Sequence:
#
# PCOD9444460 Si02
#       6
#     8   8   8   8   8   8
#     4  10  21  38  59  81 108 145 186 226 271 324
#     4   9  18  34  54  76 102 135 179 224 267 319
#     4   9  18  33  54  77 102 136 178 225 272 319
#     4   9  19  36  55  77 107 143 180 219 269 326
#     4  11  19  31  55  80 106 139 179 222 268 323
#     4  11  22  35  54  82 113 144 181 224 270 322
#
# _framework density 19.195703000000002
#
# number of rings (size 3 to 8) (size 9 to 14) (size 15 to 20)
#    0.000    2.167    0.000    5.000    0.000    3.667 
#    0.000    0.833    0.000   16.000    0.000    0.000 
#    0.000    0.000    0.000    0.000    0.000    0.000 
#
# Total GULP energy -267218.495400 kJ/mol
# GULP energy per Si atom -5567.051988 kJ/mol
# Density = 1.915201 g / cm^3
# Si number density = 19.195703 Si / 1000 Ang^3
#
#
#
# Elastic Constant Matrix: (Units=GPa)
#
#
# Indices 1 2 3 4 5 6 
#
# 1 83.7807 29.4809 51.5336 0.0000 0.0000 0.0000
# 2 29.4809 99.6486 29.4222 0.0000 0.0000 0.0000
# 3 51.5336 29.4222 64.7770 0.0000 0.0000 0.0000
# 4 0.0000 0.0000 0.0000 42.1535 0.0000 0.0000
# 5 0.0000 0.0000 0.0000 0.0000 24.7247 0.0000
# 6 0.0000 0.0000 0.0000 0.0000 0.0000 33.1065
#
#
#
# Elastic Compliance Matrix: (Units=1/GPa)
#
#
# Indices 1 2 3 4 5 6 
#
# 1 0.023610 -0.001662 -0.018028 0.000000 0.000000 0.000000
# 2 -0.001662 0.011707 -0.003995 0.000000 0.000000 0.000000
# 3 -0.018028 -0.003995 0.031594 0.000000 0.000000 0.000000
# 4 0.000000 0.000000 0.000000 0.023723 0.000000 0.000000
# 5 0.000000 0.000000 0.000000 0.000000 0.040445 0.000000
# 6 0.000000 0.000000 0.000000 0.000000 0.000000 0.030206
#
#
# Mechanical properties :
#
#
# Convention : Reuss Voigt Hill
#
# Bulk Modulus (GPa) = 51.17508 52.11997 51.64752
# Shear Modulus (GPa) = 23.23767 29.18158 26.20962
#
# Velocity S-wave (km/s) = 3.48309 3.90322 3.69913
# Velocity P-wave (km/s) = 6.54931 6.89379 6.72376
#
# Compressibility (1/GPa) = 0.01954076
#
# Stress axis : x y z
#
# Youngs Moduli (GPa) = 42.35536 85.42247 31.65125
#
# Poissons Ratio (x) = 0.14197 0.57061
# Poissons Ratio (y) = 0.07039 0.12645
# Poissons Ratio (z) = 0.76358 0.34126
#
# Static dielectric constant tensor:
#      x y z
#    x 1.693900 0.000000 0.000000 
#    y 0.000000 1.732950 0.000000 
#    z 0.000000 0.000000 1.656560 
# 
# From -- ./inp_files/14391.got.cif
#   From: 2010.05.17/outbox.cif.g08.bks.cpg/sg58_8_cif.got.tgz:14391.got - 2010.06.03 14:20:14.
