data_PCOD9444142
_publ_section_title
;
Structure prediction by ZEFSAII (Michael W. Deem and Ramdas Pophale) SiO2 
 PCOD9444142
Probable space group: P N N M
;
_chemical_formula_sum "Si O2"
_cell_formula_units_Z 56
_cell_length_a 16.525390
_cell_length_b 5.247220
_cell_length_c 30.213063
_cell_angle_alpha 90.000000
_cell_angle_beta 90.000000
_cell_angle_gamma 90.000000
_cell_volume 2619.845902
_symmetry_space_group_name_H-M "P N N M"
_symmetry_group_IT_number 58
_symmetry_cell_setting 'orthorhombic'
loop_
_space_group_symop_operation_xyz
x,y,z
-x,-y,z
1/2+x,1/2-y,1/2-z
1/2-x,1/2+y,1/2-z
-x,-y,-z
x,y,-z
1/2-x,1/2+y,1/2+z
1/2+x,1/2-y,1/2+z
loop_
_atom_site_type_symbol
_atom_site_label
_atom_site_fract_x
_atom_site_fract_y
_atom_site_fract_z
Si Si1 0.141313 0.398182 0.657408
Si Si2 0.546010 0.249167 0.692754
Si Si3 0.476869 0.252782 0.595645
Si Si4 0.085835 0.892373 0.391438
Si Si5 0.257252 0.397056 0.052147
Si Si6 0.697020 0.171257 0.252018
Si Si7 0.702488 0.596392 0.599887
O O1 0.089613 0.626538 0.635495
O O2 0.142154 0.403618 0.710007
O O3 0.233972 0.428072 0.640006
O O4 0.114995 0.120804 0.640542
O O5 0.500000 0.500000 0.709415
O O6 0.533214 0.246751 0.639675
O O7 0.638402 0.235172 0.707219
O O8 0.500000 0.000000 0.709610
O O9 0.500000 0.500000 0.568514
O O10 0.385439 0.293831 0.611794
O O11 0.500000 0.000000 0.570555
O O12 0.151250 0.856913 0.430240
O O13 0.000000 0.000000 0.407756
O O14 0.235350 0.683189 0.067162
O O15 0.203774 0.179238 0.076331
O O16 0.250914 0.368844 0.000000
O O17 0.746532 0.426534 0.239696
#
# Coordination Sequence:
#
# PCOD9444142 Si02
#       7
#     8   8   8   8   8   8   8
#     4  10  23  38  59  88 121 170 209 254 301 384
#     4  10  23  40  58  87 119 161 203 269 312 361
#     4  10  21  35  61  86 116 152 207 256 297 362
#     4  10  21  40  63  91 124 164 209 250 303 374
#     4  10  21  39  64  96 125 159 202 252 313 375
#     4  12  26  40  62  90 128 166 211 268 327 368
#     4  10  21  38  62  88 124 164 206 246 311 369
#
# _framework density 21.375302999999999
#
# number of rings (size 3 to 8) (size 9 to 14) (size 15 to 20)
#    0.000    1.714    0.000    3.429    8.000    2.000 
#    0.000    0.000    0.000   13.714    0.000    0.000 
#    0.000    0.000    0.000    0.000    0.000    0.000 
#
# Total GULP energy -312704.691832 kJ/mol
# GULP energy per Si atom -5584.012354 kJ/mol
# Density = 2.132665 g / cm^3
# Si number density = 21.375303 Si / 1000 Ang^3
#
#
#
# Elastic Constant Matrix: (Units=GPa)
#
#
# Indices 1 2 3 4 5 6 
#
# 1 93.4275 30.0023 8.2305 0.0000 0.0000 0.0000
# 2 30.0023 163.9827 -0.6061 0.0000 0.0000 0.0000
# 3 8.2305 -0.6061 59.7980 0.0000 0.0000 0.0000
# 4 0.0000 0.0000 0.0000 52.5307 0.0000 0.0000
# 5 0.0000 0.0000 0.0000 0.0000 1.1496 0.0000
# 6 0.0000 0.0000 0.0000 0.0000 0.0000 41.4278
#
#
#
# Elastic Compliance Matrix: (Units=1/GPa)
#
#
# Indices 1 2 3 4 5 6 
#
# 1 0.011524 -0.002114 -0.001608 0.000000 0.000000 0.000000
# 2 -0.002114 0.006486 0.000357 0.000000 0.000000 0.000000
# 3 -0.001608 0.000357 0.016948 0.000000 0.000000 0.000000
# 4 0.000000 0.000000 0.000000 0.019036 0.000000 0.000000
# 5 0.000000 0.000000 0.000000 0.000000 0.869882 0.000000
# 6 0.000000 0.000000 0.000000 0.000000 0.000000 0.024138
#
#
# Mechanical properties :
#
#
# Convention : Reuss Voigt Hill
#
# Bulk Modulus (GPa) = 35.42595 43.60683 39.51639
# Shear Modulus (GPa) = 5.18589 37.66038 21.42313
#
# Velocity S-wave (km/s) = 1.55929 4.20201 3.16925
# Velocity P-wave (km/s) = 4.45546 6.63230 5.64971
#
# Compressibility (1/GPa) = 0.02822789
#
# Stress axis : x y z
#
# Youngs Moduli (GPa) = 86.77468 154.16937 59.00457
#
# Poissons Ratio (x) = 0.32597 0.09485
# Poissons Ratio (y) = 0.18348 -0.02105
# Poissons Ratio (z) = 0.13950 -0.05500
#
# Static dielectric constant tensor:
#      x y z
#    x 1.817930 0.000000 0.000000 
#    y 0.000000 1.874320 0.000000 
#    z 0.000000 0.000000 1.717830 
# 
# From -- ./inp_files/35037.got.cif
#   From: 2010.05.17/outbox.cif.g08.bks.cpg/sg58_18_cif.got.tgz:35037.got - 2010.06.03 14:20:14.
