data_PCOD9444224
_publ_section_title
;
Structure prediction by ZEFSAII (Michael W. Deem and Ramdas Pophale) SiO2 
 PCOD9444224
Probable space group: P N N M
;
_chemical_formula_sum "Si O2"
_cell_formula_units_Z 64
_cell_length_a 22.554733
_cell_length_b 13.794809
_cell_length_c 10.621915
_cell_angle_alpha 90.000000
_cell_angle_beta 90.000000
_cell_angle_gamma 90.000000
_cell_volume 3304.883872
_symmetry_space_group_name_H-M "P N N M"
_symmetry_group_IT_number 58
_symmetry_cell_setting 'orthorhombic'
loop_
_space_group_symop_operation_xyz
x,y,z
-x,-y,z
1/2+x,1/2-y,1/2-z
1/2-x,1/2+y,1/2-z
-x,-y,-z
x,y,-z
1/2-x,1/2+y,1/2+z
1/2+x,1/2-y,1/2+z
loop_
_atom_site_type_symbol
_atom_site_label
_atom_site_fract_x
_atom_site_fract_y
_atom_site_fract_z
Si Si1 0.568005 0.466736 0.866424
Si Si2 0.956415 0.830643 0.850201
Si Si3 0.253087 0.597166 0.851609
Si Si4 0.389256 0.079776 0.647347
Si Si5 0.225097 0.259917 0.857521
Si Si6 0.910961 0.208926 0.148246
Si Si7 0.603754 0.131310 0.348881
Si Si8 0.326165 0.405434 0.804209
O O1 0.500000 0.500000 0.864218
O O2 0.578217 0.402560 0.742160
O O3 0.613415 0.556022 0.866934
O O4 0.577211 0.412852 0.000000
O O5 0.938918 0.720435 0.816749
O O6 0.026418 0.841781 0.824913
O O7 0.945210 0.846529 0.000000
O O8 0.182285 0.581723 0.850596
O O9 0.268979 0.681833 0.753484
O O10 0.285685 0.500698 0.802761
O O11 0.269298 0.613826 0.000000
O O12 0.408443 0.079475 0.500000
O O13 0.409206 0.182365 0.705292
O O14 0.408562 0.976033 0.703444
O O15 0.170389 0.331041 0.824723
O O16 0.284876 0.323132 0.863064
O O17 0.213708 0.220513 0.000000
O O18 0.853873 0.145869 0.182350
O O19 0.910059 0.222610 0.000000
O O20 0.599786 0.121942 0.500000
#
# Coordination Sequence:
#
# PCOD9444224 Si02
#       8
#     8   8   8   8   8   8   8   8
#     4  11  23  38  56  83 115 154 198 238 284 348
#     4  10  21  39  61  89 117 151 195 247 302 348
#     4  11  22  37  58  83 115 153 191 233 288 349
#     4   9  17  33  55  84 116 146 184 235 289 343
#     4  11  22  37  59  87 115 149 193 241 290 341
#     4  10  21  36  58  88 121 153 194 246 298 345
#     4   9  18  34  58  85 117 150 189 241 294 349
#     4  12  22  37  60  85 115 160 200 234 285 350
#
# _framework density 19.365279999999998
#
# number of rings (size 3 to 8) (size 9 to 14) (size 15 to 20)
#    0.000    1.625    3.750    1.875    0.000    1.750 
#    0.000    2.500    0.000    0.750    0.000    0.875 
#    0.000    0.000    0.000    0.000    0.000    0.000 
#
# Total GULP energy -356433.453921 kJ/mol
# GULP energy per Si atom -5569.272718 kJ/mol
# Density = 1.932120 g / cm^3
# Si number density = 19.365280 Si / 1000 Ang^3
#
#
#
# Elastic Constant Matrix: (Units=GPa)
#
#
# Indices 1 2 3 4 5 6 
#
# 1 46.0341 1.1557 19.5803 0.0000 0.0000 0.0000
# 2 1.1557 81.1466 50.7524 0.0000 0.0000 0.0000
# 3 19.5803 50.7524 62.8477 0.0000 0.0000 0.0000
# 4 0.0000 0.0000 0.0000 18.2861 0.0000 0.0000
# 5 0.0000 0.0000 0.0000 0.0000 6.8387 0.0000
# 6 0.0000 0.0000 0.0000 0.0000 0.0000 30.9452
#
#
#
# Elastic Compliance Matrix: (Units=1/GPa)
#
#
# Indices 1 2 3 4 5 6 
#
# 1 0.028914 0.010552 -0.017529 0.000000 0.000000 0.000000
# 2 0.010552 0.028750 -0.026504 0.000000 0.000000 0.000000
# 3 -0.017529 -0.026504 0.042776 0.000000 0.000000 0.000000
# 4 0.000000 0.000000 0.000000 0.054686 0.000000 0.000000
# 5 0.000000 0.000000 0.000000 0.000000 0.146227 0.000000
# 6 0.000000 0.000000 0.000000 0.000000 0.000000 0.032315
#
#
# Mechanical properties :
#
#
# Convention : Reuss Voigt Hill
#
# Bulk Modulus (GPa) = 29.87170 37.00058 33.43614
# Shear Modulus (GPa) = 12.14210 19.11666 15.62938
#
# Velocity S-wave (km/s) = 2.50672 3.14532 2.84400
# Velocity P-wave (km/s) = 4.88232 5.68673 5.29981
#
# Compressibility (1/GPa) = 0.03347650
#
# Stress axis : x y z
#
# Youngs Moduli (GPa) = 34.58541 34.78274 23.37759
#
# Poissons Ratio (x) = -0.36701 0.40979
# Poissons Ratio (y) = -0.36493 0.61960
# Poissons Ratio (z) = 0.60625 0.92189
#
# Static dielectric constant tensor:
#      x y z
#    x 1.702240 0.000000 0.000000 
#    y 0.000000 1.739700 0.000000 
#    z 0.000000 0.000000 1.689170 
# 
# From -- ./inp_files/17532.got.cif
#   From: 2010.05.17/outbox.cif.g08.bks.cpg/sg58_9_cif.got.tgz:17532.got - 2010.06.03 14:20:14.
