data_PCOD9444774
_publ_section_title
;
Structure prediction by ZEFSAII (Michael W. Deem and Ramdas Pophale) SiO2 
 PCOD9444774
Probable space group: P N N M
;
_chemical_formula_sum "Si O2"
_cell_formula_units_Z 40
_cell_length_a 7.326321
_cell_length_b 10.803899
_cell_length_c 24.786173
_cell_angle_alpha 90.000000
_cell_angle_beta 90.000000
_cell_angle_gamma 90.000000
_cell_volume 1961.895791
_symmetry_space_group_name_H-M "P N N M"
_symmetry_group_IT_number 58
_symmetry_cell_setting 'orthorhombic'
loop_
_space_group_symop_operation_xyz
x,y,z
-x,-y,z
1/2+x,1/2-y,1/2-z
1/2-x,1/2+y,1/2-z
-x,-y,-z
x,y,-z
1/2-x,1/2+y,1/2+z
1/2+x,1/2-y,1/2+z
loop_
_atom_site_type_symbol
_atom_site_label
_atom_site_fract_x
_atom_site_fract_y
_atom_site_fract_z
Si Si1 0.637140 0.611593 0.062603
Si Si2 0.592455 0.134084 0.060933
Si Si3 0.914728 0.621087 0.154133
Si Si4 0.732116 0.698635 0.330054
Si Si5 0.560687 0.638528 0.780991
O O1 0.500000 0.500000 0.076971
O O2 0.540506 0.746212 0.069826
O O3 0.815831 0.594817 0.098139
O O4 0.680999 0.599916 0.000000
O O5 0.705989 0.126242 0.116654
O O6 0.500000 0.000000 0.057328
O O7 0.675537 0.155367 0.000000
O O8 0.749125 0.673429 0.189386
O O9 0.000000 0.500000 0.181844
O O10 0.088605 0.704609 0.146384
O O11 0.616368 0.636237 0.281902
O O12 0.903540 0.767736 0.301084
O O13 0.500000 0.500000 0.796597
#
# Coordination Sequence:
#
# PCOD9444774 Si02
#       5
#     8   8   8   8   8
#     4  10  21  40  67  98 136 178 226 282 338 400
#     4  10  23  44  70  99 138 182 227 286 344 403
#     4  12  23  38  67  96 131 176 220 288 339 404
#     4  12  25  41  69  96 133 181 229 274 345 417
#     4  12  25  43  63  99 136 173 228 285 342 406
#
# _framework density 20.388442999999999
#
# number of rings (size 3 to 8) (size 9 to 14) (size 15 to 20)
#    0.000    0.800    6.000    1.800    0.000    5.200 
#    0.000    0.000    0.000    4.200    0.000    0.000 
#    0.000    0.000    0.000    0.000    0.000    0.000 
#
# Total GULP energy -222957.494460 kJ/mol
# GULP energy per Si atom -5573.937362 kJ/mol
# Density = 2.034204 g / cm^3
# Si number density = 20.388443 Si / 1000 Ang^3
#
#
#
# Elastic Constant Matrix: (Units=GPa)
#
#
# Indices 1 2 3 4 5 6 
#
# 1 102.8620 19.5903 46.2760 0.0000 0.0000 0.0000
# 2 19.5903 70.0864 11.5655 0.0000 0.0000 0.0000
# 3 46.2760 11.5655 158.3936 0.0000 0.0000 0.0000
# 4 0.0000 0.0000 0.0000 -65.5961 0.0000 0.0000
# 5 0.0000 0.0000 0.0000 0.0000 28.5608 0.0000
# 6 0.0000 0.0000 0.0000 0.0000 0.0000 21.6458
#
#
#
# Elastic Compliance Matrix: (Units=1/GPa)
#
#
# Indices 1 2 3 4 5 6 
#
# 1 0.011690 -0.002737 -0.003215 0.000000 0.000000 0.000000
# 2 -0.002737 0.015083 -0.000302 0.000000 0.000000 0.000000
# 3 -0.003215 -0.000302 0.007275 0.000000 0.000000 0.000000
# 4 0.000000 0.000000 0.000000 -0.015245 0.000000 0.000000
# 5 0.000000 0.000000 0.000000 0.000000 0.035013 0.000000
# 6 0.000000 0.000000 0.000000 0.000000 0.000000 0.046198
#
#
# Mechanical properties :
#
#
# Convention : Reuss Voigt Hill
#
# Bulk Modulus (GPa) = 46.42651 54.02283 50.22467
# Shear Modulus (GPa) = 41.77058 13.84944 27.81001
#
# Velocity S-wave (km/s) = 4.53121 2.60913 3.69726
# Velocity P-wave (km/s) = 7.08493 5.96917 6.55085
#
# Compressibility (1/GPa) = 0.02153942
#
# Stress axis : x y z
#
# Youngs Moduli (GPa) = 85.54655 66.30029 137.46054
#
# Poissons Ratio (x) = 0.18145 0.44199
# Poissons Ratio (y) = 0.23413 0.04148
# Poissons Ratio (z) = 0.27506 0.02000
#
# Static dielectric constant tensor:
#      x y z
#    x 1.712240 0.000000 0.000000 
#    y 0.000000 1.735610 0.000000 
#    z 0.000000 0.000000 1.781590 
# 
# From -- ./inp_files/32671.got.cif
#   From: 2010.05.17/outbox.cif.g08.bks.cpg/sg58_17_cif.got.tgz:32671.got - 2010.06.03 14:20:14.
