data_PCOD9444205
_publ_section_title
;
Structure prediction by ZEFSAII (Michael W. Deem and Ramdas Pophale) SiO2 
 PCOD9444205
Probable space group: P N N M
;
_chemical_formula_sum "Si O2"
_cell_formula_units_Z 64
_cell_length_a 9.382437
_cell_length_b 26.137184
_cell_length_c 13.721774
_cell_angle_alpha 90.000000
_cell_angle_beta 90.000000
_cell_angle_gamma 90.000000
_cell_volume 3364.997255
_symmetry_space_group_name_H-M "P N N M"
_symmetry_group_IT_number 58
_symmetry_cell_setting 'orthorhombic'
loop_
_space_group_symop_operation_xyz
x,y,z
-x,-y,z
1/2+x,1/2-y,1/2-z
1/2-x,1/2+y,1/2-z
-x,-y,-z
x,y,-z
1/2-x,1/2+y,1/2+z
1/2+x,1/2-y,1/2+z
loop_
_atom_site_type_symbol
_atom_site_label
_atom_site_fract_x
_atom_site_fract_y
_atom_site_fract_z
Si Si1 0.581253 0.734836 0.615597
Si Si2 0.054981 0.166562 0.742970
Si Si3 0.327434 0.499307 0.883976
Si Si4 0.951402 0.657859 0.114397
Si Si5 0.534586 0.116497 0.116119
Si Si6 0.225403 0.896114 0.270120
Si Si7 0.909035 0.734277 0.616369
Si Si8 0.678680 0.905167 0.720341
O O1 0.586679 0.734132 0.500000
O O2 0.473851 0.692333 0.653322
O O3 0.522434 0.789499 0.647476
O O4 0.743773 0.727638 0.649439
O O5 0.935827 0.122700 0.737174
O O6 0.034221 0.214812 0.669607
O O7 0.206088 0.140180 0.728842
O O8 0.500000 0.500000 0.876440
O O9 0.271392 0.447822 0.832750
O O10 0.258121 0.545933 0.823895
O O11 0.292917 0.501510 0.000000
O O12 0.057958 0.612801 0.144707
O O13 0.805748 0.647354 0.168506
O O14 0.930650 0.659595 0.000000
O O15 0.682984 0.100562 0.169984
O O16 0.520517 0.178403 0.130547
O O17 0.406856 0.090148 0.177320
O O18 0.535814 0.106622 0.000000
O O19 0.910599 0.744017 0.500000
#
# Coordination Sequence:
#
# PCOD9444205 Si02
#       8
#     8   8   8   8   8   8   8   8
#     4  10  21  36  57  86 122 163 202 245 298 361
#     4  12  22  35  61  89 122 161 205 250 303 357
#     4  11  24  43  66  94 125 156 199 254 314 376
#     4  10  21  37  57  89 127 160 200 247 302 371
#     4  10  23  43  64  89 124 163 206 255 305 362
#     4  11  23  40  63  90 122 162 207 256 310 363
#     4  10  21  36  58  88 124 166 205 242 298 366
#     4  11  23  40  63  89 121 161 206 257 309 362
#
# _framework density 19.019333
#
# number of rings (size 3 to 8) (size 9 to 14) (size 15 to 20)
#    0.000    1.375    3.750    2.250    0.000    4.000 
#    0.000    6.875    0.000    0.750    0.000    0.000 
#    0.000    0.000    0.000    0.000    0.000    0.000 
#
# Total GULP energy -357085.873005 kJ/mol
# GULP energy per Si atom -5579.466766 kJ/mol
# Density = 1.897604 g / cm^3
# Si number density = 19.019333 Si / 1000 Ang^3
#
#
#
# Elastic Constant Matrix: (Units=GPa)
#
#
# Indices 1 2 3 4 5 6 
#
# 1 56.4546 13.7160 33.3616 0.0000 0.0000 0.0000
# 2 13.7160 76.9746 45.7760 0.0000 0.0000 0.0000
# 3 33.3616 45.7760 105.0075 0.0000 0.0000 0.0000
# 4 0.0000 0.0000 0.0000 22.5061 0.0000 0.0000
# 5 0.0000 0.0000 0.0000 0.0000 23.7486 0.0000
# 6 0.0000 0.0000 0.0000 0.0000 0.0000 29.1528
#
#
#
# Elastic Compliance Matrix: (Units=1/GPa)
#
#
# Indices 1 2 3 4 5 6 
#
# 1 0.021813 0.000316 -0.007068 0.000000 0.000000 0.000000
# 2 0.000316 0.017542 -0.007748 0.000000 0.000000 0.000000
# 3 -0.007068 -0.007748 0.015146 0.000000 0.000000 0.000000
# 4 0.000000 0.000000 0.000000 0.044432 0.000000 0.000000
# 5 0.000000 0.000000 0.000000 0.000000 0.042108 0.000000
# 6 0.000000 0.000000 0.000000 0.000000 0.000000 0.034302
#
#
# Mechanical properties :
#
#
# Convention : Reuss Voigt Hill
#
# Bulk Modulus (GPa) = 39.21113 47.12710 43.16912
# Shear Modulus (GPa) = 23.49133 24.78704 24.13918
#
# Velocity S-wave (km/s) = 3.51825 3.61398 3.56644
# Velocity P-wave (km/s) = 6.09634 6.49975 6.30127
#
# Compressibility (1/GPa) = 0.02550296
#
# Stress axis : x y z
#
# Youngs Moduli (GPa) = 45.84341 57.00446 66.02276
#
# Poissons Ratio (x) = -0.01804 0.46666
# Poissons Ratio (y) = -0.01451 0.51154
# Poissons Ratio (z) = 0.32403 0.44166
#
# Static dielectric constant tensor:
#      x y z
#    x 1.667130 0.000000 0.000000 
#    y 0.000000 1.665110 0.000000 
#    z 0.000000 0.000000 1.668020 
# 
# From -- ./inp_files/20294.got.cif
#   From: 2010.05.17/outbox.cif.g08.bks.cpg/sg58_11_cif.got.tgz:20294.got - 2010.06.03 14:20:14.
