data_PCOD9445066
_publ_section_title
;
Structure prediction by ZEFSAII (Michael W. Deem and Ramdas Pophale) SiO2 
 PCOD9445066
Probable space group: P N N M
;
_chemical_formula_sum "Si O2"
_cell_formula_units_Z 44
_cell_length_a 5.059307
_cell_length_b 27.463462
_cell_length_c 13.711301
_cell_angle_alpha 90.000000
_cell_angle_beta 90.000000
_cell_angle_gamma 90.000000
_cell_volume 1905.131602
_symmetry_space_group_name_H-M "P N N M"
_symmetry_group_IT_number 58
_symmetry_cell_setting 'orthorhombic'
loop_
_space_group_symop_operation_xyz
x,y,z
-x,-y,z
1/2+x,1/2-y,1/2-z
1/2-x,1/2+y,1/2-z
-x,-y,-z
x,y,-z
1/2-x,1/2+y,1/2+z
1/2+x,1/2-y,1/2+z
loop_
_atom_site_type_symbol
_atom_site_label
_atom_site_fract_x
_atom_site_fract_y
_atom_site_fract_z
Si Si1 0.523083 0.241982 0.104446
Si Si2 0.794191 0.312465 0.772576
Si Si3 0.585953 0.651154 0.394981
Si Si4 0.553329 0.553759 0.690909
Si Si5 0.543320 0.915837 0.304535
Si Si6 0.243736 0.536103 0.000000
O O1 0.699086 0.288922 0.127058
O O2 0.365599 0.233467 0.203661
O O3 0.686962 0.191614 0.100612
O O4 0.385116 0.248198 0.000000
O O5 0.576717 0.336299 0.701643
O O6 0.991398 0.357165 0.795793
O O7 0.441272 0.654893 0.500000
O O8 0.664634 0.595033 0.381348
O O9 0.500000 0.500000 0.652010
O O10 0.261049 0.568834 0.725365
O O11 0.768505 0.556537 0.779818
O O12 0.689051 0.930750 0.404756
O O13 0.500000 0.500000 0.000000
O O14 0.000000 0.500000 0.000000
#
# Coordination Sequence:
#
# PCOD9445066 Si02
#       6
#     8   8   8   8   8   4
#     4  11  22  39  65  91 127 171 220 272 340 407
#     4  11  22  41  64  93 132 169 223 279 340 404
#     4  10  22  40  63  91 126 173 216 272 339 402
#     4  11  22  41  65  94 128 173 220 275 337 399
#     4  11  24  40  66  93 132 173 222 275 338 400
#     4  12  24  42  66  96 134 176 226 278 333 402
#
# _framework density 23.095517000000001
#
# number of rings (size 3 to 8) (size 9 to 14) (size 15 to 20)
#    0.000    1.091    3.636    3.818    1.273    0.364 
#    0.000    0.000    8.000    3.273    0.000    0.000 
#    0.000    0.000    0.000    0.000    0.000    0.000 
#
# Total GULP energy -245145.584923 kJ/mol
# GULP energy per Si atom -5571.490566 kJ/mol
# Density = 2.304295 g / cm^3
# Si number density = 23.095517 Si / 1000 Ang^3
#
#
#
# Elastic Constant Matrix: (Units=GPa)
#
#
# Indices 1 2 3 4 5 6 
#
# 1 76.5129 10.9222 5.6002 0.0000 0.0000 0.0000
# 2 10.9222 109.2341 35.7881 0.0000 0.0000 0.0000
# 3 5.6002 35.7881 96.3170 0.0000 0.0000 0.0000
# 4 0.0000 0.0000 0.0000 102.6439 0.0000 0.0000
# 5 0.0000 0.0000 0.0000 0.0000 36.4949 0.0000
# 6 0.0000 0.0000 0.0000 0.0000 0.0000 33.2471
#
#
#
# Elastic Compliance Matrix: (Units=1/GPa)
#
#
# Indices 1 2 3 4 5 6 
#
# 1 0.013267 -0.001223 -0.000317 0.000000 0.000000 0.000000
# 2 -0.001223 0.010536 -0.003844 0.000000 0.000000 0.000000
# 3 -0.000317 -0.003844 0.011829 0.000000 0.000000 0.000000
# 4 0.000000 0.000000 0.000000 0.009742 0.000000 0.000000
# 5 0.000000 0.000000 0.000000 0.000000 0.027401 0.000000
# 6 0.000000 0.000000 0.000000 0.000000 0.000000 0.030078
#
#
# Mechanical properties :
#
#
# Convention : Reuss Voigt Hill
#
# Bulk Modulus (GPa) = 40.21636 42.96498 41.59067
# Shear Modulus (GPa) = 41.01396 49.79411 45.40404
#
# Velocity S-wave (km/s) = 4.21864 4.64832 4.43868
# Velocity P-wave (km/s) = 6.41718 6.88859 6.65706
#
# Compressibility (1/GPa) = 0.02486550
#
# Stress axis : x y z
#
# Youngs Moduli (GPa) = 75.37250 94.91052 84.53766
#
# Poissons Ratio (x) = 0.11605 0.02681
# Poissons Ratio (y) = 0.09216 0.32495
# Poissons Ratio (z) = 0.02390 0.36482
#
# Static dielectric constant tensor:
#      x y z
#    x 1.942080 0.000000 0.000000 
#    y 0.000000 2.060100 0.000000 
#    z 0.000000 0.000000 1.976930 
# 
# From -- ./inp_files/18543.got.cif
#   From: 2010.05.17/outbox.cif.g08.bks.cpg/sg58_10_cif.got.tgz:18543.got - 2010.06.03 14:20:14.
