data_PCOD9445322
_publ_section_title
;
Structure prediction by ZEFSAII (Michael W. Deem and Ramdas Pophale) SiO2 
 PCOD9445322
Probable space group: P N N M
;
_chemical_formula_sum "Si O2"
_cell_formula_units_Z 48
_cell_length_a 10.769503
_cell_length_b 8.701992
_cell_length_c 21.179228
_cell_angle_alpha 90.000000
_cell_angle_beta 90.000000
_cell_angle_gamma 90.000000
_cell_volume 1984.835262
_symmetry_space_group_name_H-M "P N N M"
_symmetry_group_IT_number 58
_symmetry_cell_setting 'orthorhombic'
loop_
_space_group_symop_operation_xyz
x,y,z
-x,-y,z
1/2+x,1/2-y,1/2-z
1/2-x,1/2+y,1/2-z
-x,-y,-z
x,y,-z
1/2-x,1/2+y,1/2+z
1/2+x,1/2-y,1/2+z
loop_
_atom_site_type_symbol
_atom_site_label
_atom_site_fract_x
_atom_site_fract_y
_atom_site_fract_z
Si Si1 0.243797 0.168739 0.233135
Si Si2 0.372895 0.596297 0.866878
Si Si3 0.531992 0.837677 0.925655
Si Si4 0.216153 0.318818 0.887551
Si Si5 0.883652 0.118111 0.811808
Si Si6 0.961914 0.322653 0.071746
O O1 0.171808 0.149827 0.298861
O O2 0.180386 0.288444 0.184967
O O3 0.369937 0.254572 0.255939
O O4 0.230786 0.001825 0.199631
O O5 0.500000 0.500000 0.858465
O O6 0.415660 0.729278 0.912709
O O7 0.264189 0.492033 0.896581
O O8 0.658104 0.774759 0.896829
O O9 0.500000 0.000000 0.897286
O O10 0.553605 0.848561 0.000000
O O11 0.103788 0.258654 0.928673
O O12 0.892166 0.216881 0.876680
O O13 0.000000 0.000000 0.808354
O O14 0.000000 0.500000 0.090972
O O15 0.912727 0.322535 0.000000
#
# Coordination Sequence:
#
# PCOD9445322 Si02
#       6
#     8   8   8   8   8   8
#     4  12  25  44  71 108 139 187 243 304 377 441
#     4  10  23  42  66  98 142 186 238 299 368 438
#     4  10  24  43  66  99 138 187 244 300 358 427
#     4  11  23  41  69 100 140 188 238 299 364 441
#     4  12  27  48  75 109 150 196 251 312 379 455
#     4  11  26  48  75 109 153 202 251 306 378 460
#
# _framework density 24.183365999999999
#
# number of rings (size 3 to 8) (size 9 to 14) (size 15 to 20)
#    0.000    1.000    3.333    2.000    4.667    4.000 
#    0.000    2.500    0.000    0.000    0.000    0.000 
#    0.000    0.000    0.000    0.000    0.000    0.000 
#
# Total GULP energy -267995.925504 kJ/mol
# GULP energy per Si atom -5583.248448 kJ/mol
# Density = 2.412832 g / cm^3
# Si number density = 24.183366 Si / 1000 Ang^3
#
#
#
# Elastic Constant Matrix: (Units=GPa)
#
#
# Indices 1 2 3 4 5 6 
#
# 1 69.4757 40.8609 24.5688 0.0000 0.0000 0.0000
# 2 40.8609 140.8592 33.1423 0.0000 0.0000 0.0000
# 3 24.5688 33.1423 95.0760 0.0000 0.0000 0.0000
# 4 0.0000 0.0000 0.0000 32.7068 0.0000 0.0000
# 5 0.0000 0.0000 0.0000 0.0000 35.5368 0.0000
# 6 0.0000 0.0000 0.0000 0.0000 0.0000 36.1222
#
#
#
# Elastic Compliance Matrix: (Units=1/GPa)
#
#
# Indices 1 2 3 4 5 6 
#
# 1 0.018162 -0.004536 -0.003112 0.000000 0.000000 0.000000
# 2 -0.004536 0.008867 -0.001919 0.000000 0.000000 0.000000
# 3 -0.003112 -0.001919 0.011991 0.000000 0.000000 0.000000
# 4 0.000000 0.000000 0.000000 0.030575 0.000000 0.000000
# 5 0.000000 0.000000 0.000000 0.000000 0.028140 0.000000
# 6 0.000000 0.000000 0.000000 0.000000 0.000000 0.027684
#
#
# Mechanical properties :
#
#
# Convention : Reuss Voigt Hill
#
# Bulk Modulus (GPa) = 50.28720 55.83945 53.06332
# Shear Modulus (GPa) = 33.07316 34.66241 33.86779
#
# Velocity S-wave (km/s) = 3.70212 3.79002 3.74633
# Velocity P-wave (km/s) = 6.25408 6.50327 6.37989
#
# Compressibility (1/GPa) = 0.01988578
#
# Stress axis : x y z
#
# Youngs Moduli (GPa) = 55.06020 112.78287 83.39687
#
# Poissons Ratio (x) = 0.51161 0.25953
# Poissons Ratio (y) = 0.24977 0.16000
# Poissons Ratio (z) = 0.17135 0.21638
#
# Static dielectric constant tensor:
#      x y z
#    x 1.999540 0.000000 0.000000 
#    y 0.000000 2.021420 0.000000 
#    z 0.000000 0.000000 1.881310 
# 
# From -- ./inp_files/31903.got.cif
#   From: 2010.05.17/outbox.cif.g08.bks.cpg/sg58_16_cif.got.tgz:31903.got - 2010.06.03 14:20:14.
