data_PCOD9445996
_publ_section_title
;
Structure prediction by ZEFSAII (Michael W. Deem and Ramdas Pophale) SiO2 
 PCOD9445996
Probable space group: P N N M
;
_chemical_formula_sum "Si O2"
_cell_formula_units_Z 40
_cell_length_a 9.000000
_cell_length_b 24.000000
_cell_length_c 9.000000
_cell_angle_alpha 90.000000
_cell_angle_beta 90.000000
_cell_angle_gamma 90.000000
_cell_volume 1944.000000
_symmetry_space_group_name_H-M "P N N M"
_symmetry_group_IT_number 58
_symmetry_cell_setting 'orthorhombic'
loop_
_space_group_symop_operation_xyz
x,y,z
-x,-y,z
1/2+x,1/2-y,1/2-z
1/2-x,1/2+y,1/2-z
-x,-y,-z
x,y,-z
1/2-x,1/2+y,1/2+z
1/2+x,1/2-y,1/2+z
loop_
_atom_site_type_symbol
_atom_site_label
_atom_site_fract_x
_atom_site_fract_y
_atom_site_fract_z
Si Si1 0.842636 0.526548 0.177374
Si Si2 0.994677 0.228538 0.177174
Si Si3 0.222169 0.675530 0.823826
Si Si4 0.331706 0.382680 0.324033
Si Si5 0.658476 0.431849 0.676520
O O1 0.801018 0.587466 0.238066
O O2 0.715003 0.486020 0.239623
O O3 0.000000 0.500000 0.226432
O O4 0.841493 0.527402 0.000000
O O5 0.925064 0.288703 0.205244
O O6 0.869131 0.181562 0.209807
O O7 0.137595 0.212885 0.272627
O O8 0.028929 0.222890 0.000000
O O9 0.239020 0.619028 0.731982
O O10 0.231047 0.663921 0.000000
O O11 0.305054 0.387996 0.500000
O O12 0.489072 0.413686 0.290645
O O13 0.670132 0.439868 0.500000
#
# Coordination Sequence:
#
# PCOD9445996 Si02
#       5
#     8   8   8   8   8
#     4  11  24  38  53  80 113 141 176 224 274 322
#     4   9  20  37  55  80 113 144 179 223 267 317
#     4  10  20  35  57  84 112 144 183 224 267 317
#     4   9  19  37  58  79 105 141 183 222 265 321
#     4  10  21  38  59  81 107 142 183 224 269 324
#
# _framework density 20.576132000000001
#
# number of rings (size 3 to 8) (size 9 to 14) (size 15 to 20)
#    0.000    2.200    0.000    3.600    0.000   11.200 
#    0.000    4.000    0.000    0.000    0.000    0.000 
#    0.000    0.000    0.000    0.000    0.000    0.000 
#
# Total GULP energy -223495.818752 kJ/mol
# GULP energy per Si atom -5587.395469 kJ/mol
# Density = 2.052930 g / cm^3
# Si number density = 20.576132 Si / 1000 Ang^3
#
#
#
# Elastic Constant Matrix: (Units=GPa)
#
#
# Indices 1 2 3 4 5 6 
#
# 1 1.5381 0.3894 1.3183 0.0000 0.0000 0.0000
# 2 0.3894 42.5900 -2.8501 0.0000 0.0000 0.0000
# 3 1.3183 -2.8501 17.5480 0.0000 0.0000 0.0000
# 4 0.0000 0.0000 0.0000 -54.9784 0.0000 0.0000
# 5 0.0000 0.0000 0.0000 0.0000 5.8826 0.0000
# 6 0.0000 0.0000 0.0000 0.0000 0.0000 32.5544
#
#
#
# Elastic Compliance Matrix: (Units=1/GPa)
#
#
# Indices 1 2 3 4 5 6 
#
# 1 0.699109 -0.010015 -0.054149 0.000000 0.000000 0.000000
# 2 -0.010015 0.023881 0.004631 0.000000 0.000000 0.000000
# 3 -0.054149 0.004631 0.061807 0.000000 0.000000 0.000000
# 4 0.000000 0.000000 0.000000 -0.018189 0.000000 0.000000
# 5 0.000000 0.000000 0.000000 0.000000 0.169993 0.000000
# 6 0.000000 0.000000 0.000000 0.000000 0.000000 0.030718
#
#
# Mechanical properties :
#
#
# Convention : Reuss Voigt Hill
#
# Bulk Modulus (GPa) = 1.50211 6.59904 4.05058
# Shear Modulus (GPa) = 3.82177 0.87961 2.35069
#
# Velocity S-wave (km/s) = 1.36434 0.65454 1.07001
# Velocity P-wave (km/s) = 1.79262 1.94559 1.87067
#
# Compressibility (1/GPa) = 0.66573039
#
# Stress axis : x y z
#
# Youngs Moduli (GPa) = 1.43039 41.87405 16.17941
#
# Poissons Ratio (x) = 0.41937 0.87610
# Poissons Ratio (y) = 0.01433 -0.07493
# Poissons Ratio (z) = 0.07745 -0.19392
#
# Static dielectric constant tensor:
#      x y z
#    x 1.727110 0.000000 0.000000 
#    y 0.000000 1.769810 0.000000 
#    z 0.000000 0.000000 1.681480 
# 
# From -- ./inp_files/2395.got.cif
#   From: 2010.05.17/outbox.ucp.g08.bks.cvg/sg58_2_cif.got.tgz:2395.got - 2010.06.11 16:41:41.
