data_PCOD9445036
_publ_section_title
;
Structure prediction by ZEFSAII (Michael W. Deem and Ramdas Pophale) SiO2 
 PCOD9445036
Probable space group: P N N M
;
_chemical_formula_sum "Si O2"
_cell_formula_units_Z 48
_cell_length_a 11.557556
_cell_length_b 8.076049
_cell_length_c 27.293743
_cell_angle_alpha 90.000000
_cell_angle_beta 90.000000
_cell_angle_gamma 90.000000
_cell_volume 2547.581284
_symmetry_space_group_name_H-M "P N N M"
_symmetry_group_IT_number 58
_symmetry_cell_setting 'orthorhombic'
loop_
_space_group_symop_operation_xyz
x,y,z
-x,-y,z
1/2+x,1/2-y,1/2-z
1/2-x,1/2+y,1/2-z
-x,-y,-z
x,y,-z
1/2-x,1/2+y,1/2+z
1/2+x,1/2-y,1/2+z
loop_
_atom_site_type_symbol
_atom_site_label
_atom_site_fract_x
_atom_site_fract_y
_atom_site_fract_z
Si Si1 0.759641 0.132470 0.378949
Si Si2 0.552980 0.321655 0.661898
Si Si3 0.506521 0.195960 0.861356
Si Si4 0.379851 0.602261 0.054275
Si Si5 0.862113 0.697156 0.737972
Si Si6 0.157874 0.615923 0.198910
O O1 0.650769 0.256175 0.375378
O O2 0.879827 0.225524 0.368202
O O3 0.781849 0.025848 0.427791
O O4 0.734288 0.998662 0.336517
O O5 0.500000 0.500000 0.650555
O O6 0.611149 0.315601 0.715950
O O7 0.449969 0.188402 0.669053
O O8 0.593338 0.267630 0.902671
O O9 0.554738 0.233972 0.807407
O O10 0.500000 0.000000 0.866800
O O11 0.500000 0.500000 0.051690
O O12 0.356579 0.670505 0.000000
O O13 0.873734 0.509659 0.757280
O O14 0.732935 0.734269 0.719826
#
# Coordination Sequence:
#
# PCOD9445036 Si02
#       6
#     8   8   8   8   8   8
#     4  10  22  40  59  85 115 154 194 240 292 352
#     4  11  25  37  57  81 118 160 198 243 283 343
#     4  11  23  35  59  90 120 152 194 246 295 354
#     4   9  19  39  64  88 115 149 191 247 309 359
#     4  11  23  35  56  80 121 158 201 238 285 345
#     4  11  23  39  55  81 118 163 199 240 281 345
#
# _framework density 18.841401999999999
#
# number of rings (size 3 to 8) (size 9 to 14) (size 15 to 20)
#    0.000    1.500    1.667    4.000   14.000    0.333 
#    0.000    0.000    0.000    2.500    0.000    0.000 
#    0.000    0.000    0.000    0.000    0.000    0.000 
#
# Total GULP energy -267945.782798 kJ/mol
# GULP energy per Si atom -5582.203808 kJ/mol
# Density = 1.879852 g / cm^3
# Si number density = 18.841402 Si / 1000 Ang^3
#
#
#
# Elastic Constant Matrix: (Units=GPa)
#
#
# Indices 1 2 3 4 5 6 
#
# 1 108.2305 45.4644 26.6104 0.0000 0.0000 0.0000
# 2 45.4644 77.7104 13.7784 0.0000 0.0000 0.0000
# 3 26.6104 13.7784 61.7433 0.0000 0.0000 0.0000
# 4 0.0000 0.0000 0.0000 14.1721 0.0000 0.0000
# 5 0.0000 0.0000 0.0000 0.0000 12.3177 0.0000
# 6 0.0000 0.0000 0.0000 0.0000 0.0000 41.6075
#
#
#
# Elastic Compliance Matrix: (Units=1/GPa)
#
#
# Indices 1 2 3 4 5 6 
#
# 1 0.013188 -0.006984 -0.004125 0.000000 0.000000 0.000000
# 2 -0.006984 0.017097 -0.000805 0.000000 0.000000 0.000000
# 3 -0.004125 -0.000805 0.018154 0.000000 0.000000 0.000000
# 4 0.000000 0.000000 0.000000 0.070561 0.000000 0.000000
# 5 0.000000 0.000000 0.000000 0.000000 0.081184 0.000000
# 6 0.000000 0.000000 0.000000 0.000000 0.000000 0.024034
#
#
# Mechanical properties :
#
#
# Convention : Reuss Voigt Hill
#
# Bulk Modulus (GPa) = 40.63483 46.59896 43.61690
# Shear Modulus (GPa) = 19.51223 24.40819 21.96021
#
# Velocity S-wave (km/s) = 3.22157 3.60315 3.41769
# Velocity P-wave (km/s) = 5.95413 6.48815 6.22687
#
# Compressibility (1/GPa) = 0.02460943
#
# Stress axis : x y z
#
# Youngs Moduli (GPa) = 75.82923 58.48965 55.08528
#
# Poissons Ratio (x) = 0.40849 0.22723
# Poissons Ratio (y) = 0.52959 0.04436
# Poissons Ratio (z) = 0.31280 0.04710
#
# Static dielectric constant tensor:
#      x y z
#    x 1.700370 0.000000 0.000000 
#    y 0.000000 1.669410 0.000000 
#    z 0.000000 0.000000 1.649070 
# 
# From -- ./inp_files/33517.got.cif
#   From: 2010.05.17/outbox.cif.g08.bks.cpg/sg58_17_cif.got.tgz:33517.got - 2010.06.03 14:20:14.
