data_PCOD9445490
_publ_section_title
;
Structure prediction by ZEFSAII (Michael W. Deem and Ramdas Pophale) SiO2 
 PCOD9445490
Probable space group: P N N M
;
_chemical_formula_sum "Si O2"
_cell_formula_units_Z 64
_cell_length_a 12.544586
_cell_length_b 17.264230
_cell_length_c 13.214845
_cell_angle_alpha 90.000000
_cell_angle_beta 90.000000
_cell_angle_gamma 90.000000
_cell_volume 2861.973578
_symmetry_space_group_name_H-M "P N N M"
_symmetry_group_IT_number 58
_symmetry_cell_setting 'orthorhombic'
loop_
_space_group_symop_operation_xyz
x,y,z
-x,-y,z
1/2+x,1/2-y,1/2-z
1/2-x,1/2+y,1/2-z
-x,-y,-z
x,y,-z
1/2-x,1/2+y,1/2+z
1/2+x,1/2-y,1/2+z
loop_
_atom_site_type_symbol
_atom_site_label
_atom_site_fract_x
_atom_site_fract_y
_atom_site_fract_z
Si Si1 0.453198 0.287013 0.671651
Si Si2 0.317235 0.007035 0.889868
Si Si3 0.413537 0.563020 0.329850
Si Si4 0.653272 0.486285 0.110960
Si Si5 0.362982 0.814776 0.677623
Si Si6 0.367254 0.325655 0.888963
Si Si7 0.383791 0.997590 0.326504
Si Si8 0.714409 0.179900 0.108945
O O1 0.535339 0.355345 0.645987
O O2 0.521328 0.212239 0.642856
O O3 0.427230 0.292800 0.791543
O O4 0.339307 0.299951 0.620351
O O5 0.383251 0.028899 0.789509
O O6 0.297413 0.913938 0.887941
O O7 0.201302 0.045743 0.876691
O O8 0.363294 0.027301 0.000000
O O9 0.500000 0.500000 0.363422
O O10 0.398933 0.552802 0.208376
O O11 0.637765 0.579869 0.120695
O O12 0.779944 0.469028 0.119034
O O13 0.614164 0.462458 0.000000
O O14 0.254991 0.794419 0.618243
O O15 0.361237 0.906747 0.680159
O O16 0.344313 0.786797 0.793050
O O17 0.410509 0.307165 0.000000
O O18 0.500000 0.000000 0.373614
O O19 0.674715 0.206955 0.000000
#
# Coordination Sequence:
#
# PCOD9445490 Si02
#       8
#     8   8   8   8   8   8   8   8
#     4  11  20  33  53  78 104 138 170 209 257 305
#     4   9  18  33  53  77 104 133 169 212 253 301
#     4  11  18  31  51  79 109 132 167 204 253 310
#     4   9  18  33  53  77 104 133 169 212 253 301
#     4   9  20  36  53  72 102 138 169 208 259 302
#     4   9  18  35  55  73  99 138 175 204 249 311
#     4   9  18  36  57  74  97 134 177 215 254 302
#     4   9  18  35  55  73  99 138 175 204 249 311
#
# _framework density 22.362190999999999
#
# number of rings (size 3 to 8) (size 9 to 14) (size 15 to 20)
#    0.000    2.500    2.500    1.500    0.000    3.000 
#    9.000    0.000    0.000    0.000    0.000    0.000 
#    0.000    0.000    0.000    0.000    0.000    0.000 
#
# Total GULP energy -357134.634182 kJ/mol
# GULP energy per Si atom -5580.228659 kJ/mol
# Density = 2.231129 g / cm^3
# Si number density = 22.362191 Si / 1000 Ang^3
#
#
#
# Elastic Constant Matrix: (Units=GPa)
#
#
# Indices 1 2 3 4 5 6 
#
# 1 74.8071 -17.5972 -7.7042 0.0000 0.0000 0.0000
# 2 -17.5972 -15.6118 8.4046 0.0000 0.0000 0.0000
# 3 -7.7042 8.4046 83.2833 0.0000 0.0000 0.0000
# 4 0.0000 0.0000 0.0000 4.4381 0.0000 0.0000
# 5 0.0000 0.0000 0.0000 0.0000 -6.8445 0.0000
# 6 0.0000 0.0000 0.0000 0.0000 0.0000 21.4247
#
#
#
# Elastic Compliance Matrix: (Units=1/GPa)
#
#
# Indices 1 2 3 4 5 6 
#
# 1 0.010955 -0.011195 0.002143 0.000000 0.000000 0.000000
# 2 -0.011195 -0.049314 0.003941 0.000000 0.000000 0.000000
# 3 0.002143 0.003941 0.011808 0.000000 0.000000 0.000000
# 4 0.000000 0.000000 0.000000 0.225320 0.000000 0.000000
# 5 0.000000 0.000000 0.000000 0.000000 -0.146103 0.000000
# 6 0.000000 0.000000 0.000000 0.000000 0.000000 0.046675
#
#
# Mechanical properties :
#
#
# Convention : Reuss Voigt Hill
#
# Bulk Modulus (GPa) = -27.19445 12.07609 -7.55918
# Shear Modulus (GPa) = 51.38545 14.42869 32.90707
#
# Velocity S-wave (km/s) = 4.79881 2.54289 3.84024
# Velocity P-wave (km/s) = 4.30320 3.74615 4.03430
#
# Compressibility (1/GPa) = -0.03677221
#
# Stress axis : x y z
#
# Youngs Moduli (GPa) = 91.28175 -20.27812 84.69014
#
# Poissons Ratio (x) = -0.22700 -0.18150
# Poissons Ratio (y) = 1.02186 -0.33377
# Poissons Ratio (z) = -0.19563 0.07992
#
# Static dielectric constant tensor:
#      x y z
#    x 1.826730 0.000000 0.000000 
#    y 0.000000 2.029730 0.000000 
#    z 0.000000 0.000000 1.859760 
# 
# From -- ./inp_files/21499.got.cif
#   From: 2010.05.17/outbox.cif.g08.bks.cpg/sg58_11_cif.got.tgz:21499.got - 2010.06.03 14:20:14.
