data_PCOD9445125
_publ_section_title
;
Structure prediction by ZEFSAII (Michael W. Deem and Ramdas Pophale) SiO2 
 PCOD9445125
Probable space group: P N N M
;
_chemical_formula_sum "Si O2"
_cell_formula_units_Z 40
_cell_length_a 8.725480
_cell_length_b 21.981628
_cell_length_c 9.990293
_cell_angle_alpha 90.000000
_cell_angle_beta 90.000000
_cell_angle_gamma 90.000000
_cell_volume 1916.140750
_symmetry_space_group_name_H-M "P N N M"
_symmetry_group_IT_number 58
_symmetry_cell_setting 'orthorhombic'
loop_
_space_group_symop_operation_xyz
x,y,z
-x,-y,z
1/2+x,1/2-y,1/2-z
1/2-x,1/2+y,1/2-z
-x,-y,-z
x,y,-z
1/2-x,1/2+y,1/2+z
1/2+x,1/2-y,1/2+z
loop_
_atom_site_type_symbol
_atom_site_label
_atom_site_fract_x
_atom_site_fract_y
_atom_site_fract_z
Si Si1 0.642032 0.720872 0.204457
Si Si2 0.726244 0.824873 0.000000
Si Si3 0.420415 0.670613 0.000000
Si Si4 0.156445 0.399846 0.210122
Si Si5 0.064413 0.639934 0.000000
Si Si6 0.031948 0.427779 0.500000
Si Si7 0.627726 0.550575 0.000000
Si Si8 0.537079 0.725620 0.500000
O O1 0.479486 0.706294 0.131681
O O2 0.755609 0.663994 0.186685
O O3 0.627478 0.724421 0.362519
O O4 0.691563 0.782413 0.129630
O O5 0.620806 0.884618 0.000000
O O6 0.910489 0.827541 0.000000
O O7 0.243835 0.653317 0.000000
O O8 0.526092 0.611299 0.000000
O O9 0.996188 0.395018 0.130436
O O10 0.125404 0.412147 0.364912
O O11 0.262513 0.447844 0.130226
O O12 0.977837 0.705099 0.000000
O O13 0.000000 0.500000 0.500000
O O14 0.500000 0.500000 0.000000
#
# Coordination Sequence:
#
# PCOD9445125 Si02
#       8
#     8   4   4   8   4   4   4   4
#     4  10  22  41  63  98 128 171 218 284 362 405
#     4  11  24  43  65  97 139 173 227 288 338 426
#     4   9  22  37  60  93 131 163 213 274 349 424
#     4  10  22  45  66  92 135 174 225 286 347 405
#     4  11  21  37  67  97 126 165 215 285 356 396
#     4  12  28  45  65  99 149 197 227 278 349 424
#     4   9  20  44  70  90 121 173 238 286 321 400
#     4  12  23  34  65  95 131 165 219 269 361 417
#
# _framework density 20.875292000000002
#
# number of rings (size 3 to 8) (size 9 to 14) (size 15 to 20)
#    0.000    1.600    2.000    3.000    5.600    3.200 
#    3.600    2.500    0.000    0.000    0.000    0.000 
#    0.000    0.000    0.000    0.000    0.000    0.000 
#
# Total GULP energy -223259.330051 kJ/mol
# GULP energy per Si atom -5581.483251 kJ/mol
# Density = 2.082778 g / cm^3
# Si number density = 20.875292 Si / 1000 Ang^3
#
#
#
# Elastic Constant Matrix: (Units=GPa)
#
#
# Indices 1 2 3 4 5 6 
#
# 1 102.1620 17.1288 54.3953 0.0000 0.0000 0.0000
# 2 17.1288 65.0338 15.9176 0.0000 0.0000 0.0000
# 3 54.3953 15.9176 169.0019 0.0000 0.0000 0.0000
# 4 0.0000 0.0000 0.0000 14.2388 0.0000 0.0000
# 5 0.0000 0.0000 0.0000 0.0000 -77.6889 0.0000
# 6 0.0000 0.0000 0.0000 0.0000 0.0000 23.6840
#
#
#
# Elastic Compliance Matrix: (Units=1/GPa)
#
#
# Indices 1 2 3 4 5 6 
#
# 1 0.012138 -0.002294 -0.003691 0.000000 0.000000 0.000000
# 2 -0.002294 0.016173 -0.000785 0.000000 0.000000 0.000000
# 3 -0.003691 -0.000785 0.007179 0.000000 0.000000 0.000000
# 4 0.000000 0.000000 0.000000 0.070231 0.000000 0.000000
# 5 0.000000 0.000000 0.000000 0.000000 -0.012872 0.000000
# 6 0.000000 0.000000 0.000000 0.000000 0.000000 0.042223
#
#
# Mechanical properties :
#
#
# Convention : Reuss Voigt Hill
#
# Bulk Modulus (GPa) = 45.55586 56.78679 51.17133
# Shear Modulus (GPa) = 32.06623 8.63049 20.34836
#
# Velocity S-wave (km/s) = 3.92354 2.03551 3.12550
# Velocity P-wave (km/s) = 6.51121 5.72593 6.13116
#
# Compressibility (1/GPa) = 0.02195107
#
# Stress axis : x y z
#
# Youngs Moduli (GPa) = 82.38564 61.83194 139.29625
#
# Poissons Ratio (x) = 0.14182 0.51411
# Poissons Ratio (y) = 0.18896 0.10935
# Poissons Ratio (z) = 0.30406 0.04854
#
# Static dielectric constant tensor:
#      x y z
#    x 1.780450 0.000000 0.000000 
#    y 0.000000 1.776520 0.000000 
#    z 0.000000 0.000000 2.171280 
# 
# From -- ./inp_files/2530.got.cif
#   From: 2010.05.17/outbox.cif.g08.bks.cpg/sg58_2_cif.got.tgz:2530.got - 2010.06.03 14:20:14.
