data_PCOD9445888
_publ_section_title
;
Structure prediction by ZEFSAII (Michael W. Deem and Ramdas Pophale) SiO2 
 PCOD9445888
Probable space group: P N N M
;
_chemical_formula_sum "Si O2"
_cell_formula_units_Z 32
_cell_length_a 7.816434
_cell_length_b 19.190879
_cell_length_c 7.663529
_cell_angle_alpha 90.000000
_cell_angle_beta 90.000000
_cell_angle_gamma 90.000000
_cell_volume 1149.561837
_symmetry_space_group_name_H-M "P N N M"
_symmetry_group_IT_number 58
_symmetry_cell_setting 'orthorhombic'
loop_
_space_group_symop_operation_xyz
x,y,z
-x,-y,z
1/2+x,1/2-y,1/2-z
1/2-x,1/2+y,1/2-z
-x,-y,-z
x,y,-z
1/2-x,1/2+y,1/2+z
1/2+x,1/2-y,1/2+z
loop_
_atom_site_type_symbol
_atom_site_label
_atom_site_fract_x
_atom_site_fract_y
_atom_site_fract_z
Si Si1 0.239375 0.978038 0.292002
Si Si2 0.834284 0.727727 0.714435
Si Si3 0.574509 0.889237 0.798624
Si Si4 0.999568 0.137880 0.296486
O O1 0.237788 0.968004 0.500000
O O2 0.405094 0.938530 0.218882
O O3 0.077153 0.934271 0.222098
O O4 0.273459 0.060341 0.266813
O O5 0.830886 0.725925 0.500000
O O6 0.997744 0.681926 0.779182
O O7 0.859207 0.807658 0.773713
O O8 0.669764 0.687779 0.784905
O O9 0.606012 0.878370 0.000000
O O10 0.037955 0.127373 0.500000
#
# Coordination Sequence:
#
# PCOD9445888 Si02
#       4
#     8   8   8   8
#     4   9  15  24  40  61  85 110 139 177 216 253
#     4   9  18  31  46  66  91 117 146 181 219 259
#     4   9  15  24  40  61  85 110 139 177 216 253
#     4   9  18  31  46  66  91 117 146 181 219 259
#
# _framework density 27.836691999999999
#
# number of rings (size 3 to 8) (size 9 to 14) (size 15 to 20)
#    0.000    3.000    0.000    3.000    0.000    3.000 
#    0.000    0.000    0.000    1.500    0.000   10.500 
#    0.000    0.000    0.000    0.000    0.000    0.000 
#
# Total GULP energy -178909.881254 kJ/mol
# GULP energy per Si atom -5590.933789 kJ/mol
# Density = 2.777333 g / cm^3
# Si number density = 27.836692 Si / 1000 Ang^3
#
#
#
# Elastic Constant Matrix: (Units=GPa)
#
#
# Indices 1 2 3 4 5 6 
#
# 1 77.2043 -8.7308 9.4053 0.0000 0.0000 0.0000
# 2 -8.7308 223.6977 15.8774 0.0000 0.0000 0.0000
# 3 9.4053 15.8774 99.6990 0.0000 0.0000 0.0000
# 4 0.0000 0.0000 0.0000 35.2937 0.0000 0.0000
# 5 0.0000 0.0000 0.0000 0.0000 39.5793 0.0000
# 6 0.0000 0.0000 0.0000 0.0000 0.0000 62.0503
#
#
#
# Elastic Compliance Matrix: (Units=1/GPa)
#
#
# Indices 1 2 3 4 5 6 
#
# 1 0.013185 0.000610 -0.001341 0.000000 0.000000 0.000000
# 2 0.000610 0.004550 -0.000782 0.000000 0.000000 0.000000
# 3 -0.001341 -0.000782 0.010281 0.000000 0.000000 0.000000
# 4 0.000000 0.000000 0.000000 0.028334 0.000000 0.000000
# 5 0.000000 0.000000 0.000000 0.000000 0.025266 0.000000
# 6 0.000000 0.000000 0.000000 0.000000 0.000000 0.016116
#
#
# Mechanical properties :
#
#
# Convention : Reuss Voigt Hill
#
# Bulk Modulus (GPa) = 40.01703 48.18943 44.10323
# Shear Modulus (GPa) = 45.83479 52.98792 49.41136
#
# Velocity S-wave (km/s) = 4.06219 4.36768 4.21770
# Velocity P-wave (km/s) = 6.03396 6.54099 6.29258
#
# Compressibility (1/GPa) = 0.02498936
#
# Stress axis : x y z
#
# Youngs Moduli (GPa) = 75.84401 219.79821 97.26456
#
# Poissons Ratio (x) = -0.13403 0.13043
# Poissons Ratio (y) = -0.04625 0.07607
# Poissons Ratio (z) = 0.10170 0.17190
#
# Static dielectric constant tensor:
#      x y z
#    x 2.355380 0.000000 0.000000 
#    y 0.000000 2.254410 0.000000 
#    z 0.000000 0.000000 1.945820 
# 
# From -- ./inp_files/2147.got.cif
#   From: 2010.05.17/outbox.cif.g08.bks.cpg/sg58_2_cif.got.tgz:2147.got - 2010.06.03 14:20:14.
