data_PCOD9445699
_publ_section_title
;
Structure prediction by ZEFSAII (Michael W. Deem and Ramdas Pophale) SiO2 
 PCOD9445699
Probable space group: P N N M
;
_chemical_formula_sum "Si O2"
_cell_formula_units_Z 40
_cell_length_a 12.814853
_cell_length_b 5.393116
_cell_length_c 27.532278
_cell_angle_alpha 90.000000
_cell_angle_beta 90.000000
_cell_angle_gamma 90.000000
_cell_volume 1902.810487
_symmetry_space_group_name_H-M "P N N M"
_symmetry_group_IT_number 58
_symmetry_cell_setting 'orthorhombic'
loop_
_space_group_symop_operation_xyz
x,y,z
-x,-y,z
1/2+x,1/2-y,1/2-z
1/2-x,1/2+y,1/2-z
-x,-y,-z
x,y,-z
1/2-x,1/2+y,1/2+z
1/2+x,1/2-y,1/2+z
loop_
_atom_site_type_symbol
_atom_site_label
_atom_site_fract_x
_atom_site_fract_y
_atom_site_fract_z
Si Si1 0.721273 0.491916 0.444207
Si Si2 0.775540 0.610431 0.186488
Si Si3 0.621563 0.015502 0.141200
Si Si4 0.107756 0.145345 0.262356
Si Si5 0.877320 0.469910 0.093438
O O1 0.753649 0.466478 0.500000
O O2 0.815926 0.566864 0.408322
O O3 0.330315 0.770420 0.427471
O O4 0.643914 0.726358 0.438489
O O5 0.878564 0.728181 0.210314
O O6 0.712674 0.514535 0.233003
O O7 0.818786 0.429980 0.145132
O O8 0.687373 0.780603 0.161240
O O9 0.616349 0.193600 0.188469
O O10 0.500000 0.000000 0.128033
O O11 0.000000 0.000000 0.264426
O O12 0.000000 0.500000 0.100261
#
# Coordination Sequence:
#
# PCOD9445699 Si02
#       5
#     8   8   8   8   8
#     4  11  25  45  70 101 133 174 228 286 340 403
#     4  11  24  39  63  96 134 173 222 268 330 398
#     4  11  23  41  65  92 130 175 221 276 333 399
#     4  12  23  39  66  94 130 179 222 267 331 402
#     4  11  25  44  70  99 138 176 223 279 342 406
#
# _framework density 21.021535
#
# number of rings (size 3 to 8) (size 9 to 14) (size 15 to 20)
#    0.000    0.800    6.000    1.200    0.000    8.400 
#    0.000    0.000    0.000    4.200    0.000    0.000 
#    0.000    0.000    0.000    0.000    0.000    0.000 
#
# Total GULP energy -222945.451315 kJ/mol
# GULP energy per Si atom -5573.636283 kJ/mol
# Density = 2.097369 g / cm^3
# Si number density = 21.021535 Si / 1000 Ang^3
#
#
#
# Elastic Constant Matrix: (Units=GPa)
#
#
# Indices 1 2 3 4 5 6 
#
# 1 113.2671 15.8901 37.2741 0.0000 0.0000 0.0000
# 2 15.8901 56.1331 11.1648 0.0000 0.0000 0.0000
# 3 37.2741 11.1648 104.7639 0.0000 0.0000 0.0000
# 4 0.0000 0.0000 0.0000 23.1095 0.0000 0.0000
# 5 0.0000 0.0000 0.0000 0.0000 23.7345 0.0000
# 6 0.0000 0.0000 0.0000 0.0000 0.0000 21.6714
#
#
#
# Elastic Compliance Matrix: (Units=1/GPa)
#
#
# Indices 1 2 3 4 5 6 
#
# 1 0.010265 -0.002227 -0.003415 0.000000 0.000000 0.000000
# 2 -0.002227 0.018684 -0.001199 0.000000 0.000000 0.000000
# 3 -0.003415 -0.001199 0.010888 0.000000 0.000000 0.000000
# 4 0.000000 0.000000 0.000000 0.043272 0.000000 0.000000
# 5 0.000000 0.000000 0.000000 0.000000 0.042133 0.000000
# 6 0.000000 0.000000 0.000000 0.000000 0.000000 0.046144
#
#
# Mechanical properties :
#
#
# Convention : Reuss Voigt Hill
#
# Bulk Modulus (GPa) = 38.23255 44.75799 41.49527
# Shear Modulus (GPa) = 25.80185 27.69207 26.74696
#
# Velocity S-wave (km/s) = 3.50723 3.63343 3.57089
# Velocity P-wave (km/s) = 5.88453 6.24020 6.06497
#
# Compressibility (1/GPa) = 0.02615572
#
# Stress axis : x y z
#
# Youngs Moduli (GPa) = 97.42019 53.52304 91.84407
#
# Poissons Ratio (x) = 0.11917 0.31363
# Poissons Ratio (y) = 0.21691 0.11012
# Poissons Ratio (z) = 0.33267 0.06417
#
# Static dielectric constant tensor:
#      x y z
#    x 1.729320 0.000000 0.000000 
#    y 0.000000 1.847150 0.000000 
#    z 0.000000 0.000000 1.745580 
# 
# From -- ./inp_files/33461.got.cif
#   From: 2010.05.17/outbox.cif.g08.bks.cpg/sg58_17_cif.got.tgz:33461.got - 2010.06.03 14:20:14.
