data_PCOD9445698
_publ_section_title
;
Structure prediction by ZEFSAII (Michael W. Deem and Ramdas Pophale) SiO2 
 PCOD9445698
Probable space group: P N N M
;
_chemical_formula_sum "Si O2"
_cell_formula_units_Z 32
_cell_length_a 12.529399
_cell_length_b 4.878197
_cell_length_c 24.584501
_cell_angle_alpha 90.000000
_cell_angle_beta 90.000000
_cell_angle_gamma 90.000000
_cell_volume 1502.626252
_symmetry_space_group_name_H-M "P N N M"
_symmetry_group_IT_number 58
_symmetry_cell_setting 'orthorhombic'
loop_
_space_group_symop_operation_xyz
x,y,z
-x,-y,z
1/2+x,1/2-y,1/2-z
1/2-x,1/2+y,1/2-z
-x,-y,-z
x,y,-z
1/2-x,1/2+y,1/2+z
1/2+x,1/2-y,1/2+z
loop_
_atom_site_type_symbol
_atom_site_label
_atom_site_fract_x
_atom_site_fract_y
_atom_site_fract_z
Si Si1 0.748014 0.538037 0.214132
Si Si2 0.875969 0.558968 0.110518
Si Si3 0.571333 0.751426 0.866505
Si Si4 0.753405 0.040860 0.063361
O O1 0.746626 0.223887 0.232160
O O2 0.845117 0.606153 0.173535
O O3 0.643249 0.620742 0.180623
O O4 0.845581 0.819271 0.074434
O O5 0.000000 0.500000 0.104539
O O6 0.796202 0.315445 0.091927
O O7 0.500000 0.500000 0.889266
O O8 0.649734 0.900797 0.909421
O O9 0.500000 0.000000 0.844597
O O10 0.735865 0.091723 0.000000
#
# Coordination Sequence:
#
# PCOD9445698 Si02
#       4
#     8   8   8   8
#     4  11  23  41  63  90 123 160 204 252 303 363
#     4  11  24  42  63  92 126 160 205 256 306 367
#     4  11  23  41  63  91 126 162 206 256 307 368
#     4  11  24  42  64  92 125 161 205 255 307 368
#
# _framework density 21.296049
#
# number of rings (size 3 to 8) (size 9 to 14) (size 15 to 20)
#    0.000    1.000    0.000    9.000    0.000    7.000 
#    0.000    2.500    0.000    0.000    0.000    0.000 
#    0.000    0.000    0.000    0.000    0.000    0.000 
#
# Total GULP energy -178978.167724 kJ/mol
# GULP energy per Si atom -5593.067741 kJ/mol
# Density = 2.124758 g / cm^3
# Si number density = 21.296049 Si / 1000 Ang^3
#
#
#
# Elastic Constant Matrix: (Units=GPa)
#
#
# Indices 1 2 3 4 5 6 
#
# 1 62.8955 0.7157 13.4493 0.0000 0.0000 0.0000
# 2 0.7157 85.0687 -2.0084 0.0000 0.0000 0.0000
# 3 13.4493 -2.0084 79.7751 0.0000 0.0000 0.0000
# 4 0.0000 0.0000 0.0000 48.4513 0.0000 0.0000
# 5 0.0000 0.0000 0.0000 0.0000 36.2537 0.0000
# 6 0.0000 0.0000 0.0000 0.0000 0.0000 -26.3643
#
#
#
# Elastic Compliance Matrix: (Units=1/GPa)
#
#
# Indices 1 2 3 4 5 6 
#
# 1 0.016498 -0.000205 -0.002786 0.000000 0.000000 0.000000
# 2 -0.000205 0.011765 0.000331 0.000000 0.000000 0.000000
# 3 -0.002786 0.000331 0.013013 0.000000 0.000000 0.000000
# 4 0.000000 0.000000 0.000000 0.020639 0.000000 0.000000
# 5 0.000000 0.000000 0.000000 0.000000 0.027583 0.000000
# 6 0.000000 0.000000 0.000000 0.000000 0.000000 -0.037930
#
#
# Mechanical properties :
#
#
# Convention : Reuss Voigt Hill
#
# Bulk Modulus (GPa) = 27.81265 28.00584 27.90925
# Shear Modulus (GPa) = 72.59640 26.04032 49.31836
#
# Velocity S-wave (km/s) = 5.84492 3.50062 4.81754
# Velocity P-wave (km/s) = 7.65762 5.43308 6.63919
#
# Compressibility (1/GPa) = 0.03595486
#
# Stress axis : x y z
#
# Youngs Moduli (GPa) = 60.61503 84.99979 76.84426
#
# Poissons Ratio (x) = 0.01739 0.21413
# Poissons Ratio (y) = 0.01240 -0.02541
# Poissons Ratio (z) = 0.16890 -0.02811
#
# Static dielectric constant tensor:
#      x y z
#    x 1.778360 0.000000 0.000000 
#    y 0.000000 1.769190 0.000000 
#    z 0.000000 0.000000 1.747420 
# 
# From -- ./inp_files/27917.got.cif
#   From: 2010.05.17/outbox.cif.g08.bks.cpg/sg58_14_cif.got.tgz:27917.got - 2010.06.03 14:20:14.
