data_PCOD9445087
_publ_section_title
;
Structure prediction by ZEFSAII (Michael W. Deem and Ramdas Pophale) SiO2 
 PCOD9445087
Probable space group: P N N M
;
_chemical_formula_sum "Si O2"
_cell_formula_units_Z 34
_cell_length_a 20.345739
_cell_length_b 9.518911
_cell_length_c 7.605472
_cell_angle_alpha 90.000000
_cell_angle_beta 90.000000
_cell_angle_gamma 90.000000
_cell_volume 1472.946277
_symmetry_space_group_name_H-M "P N N M"
_symmetry_group_IT_number 58
_symmetry_cell_setting 'orthorhombic'
loop_
_space_group_symop_operation_xyz
x,y,z
-x,-y,z
1/2+x,1/2-y,1/2-z
1/2-x,1/2+y,1/2-z
-x,-y,-z
x,y,-z
1/2-x,1/2+y,1/2+z
1/2+x,1/2-y,1/2+z
loop_
_atom_site_type_symbol
_atom_site_label
_atom_site_fract_x
_atom_site_fract_y
_atom_site_fract_z
Si Si1 0.426017 0.521663 0.712033
Si Si2 0.000000 0.500000 0.500000
Si Si3 0.192341 0.829258 0.212881
Si Si4 0.557259 0.165332 0.304171
Si Si5 0.320369 0.003971 0.206728
O O1 0.500000 0.500000 0.777757
O O2 0.427619 0.502416 0.500000
O O3 0.371436 0.414237 0.778252
O O4 0.409781 0.685053 0.741338
O O5 0.007014 0.379890 0.344756
O O6 0.192377 0.668518 0.271209
O O7 0.257584 0.914151 0.265485
O O8 0.191562 0.830296 0.000000
O O9 0.527872 0.176869 0.500000
O O10 0.614733 0.050052 0.301968
O O11 0.333741 0.976674 0.000000
#
# Coordination Sequence:
#
# PCOD9445087 Si02
#       5
#     8   2   8   8   8
#     4   9  20  39  64  95 131 177 225 270 333 404
#     4  12  26  44  66 106 136 172 230 276 316 422
#     4  10  22  40  65  94 133 178 226 279 335 400
#     4  11  24  44  70  95 138 180 218 278 338 391
#     4  11  23  41  64  98 135 172 230 283 330 404
#
# _framework density 23.082985999999998
#
# number of rings (size 3 to 8) (size 9 to 14) (size 15 to 20)
#    0.000    1.647    1.176    2.471    3.294    3.765 
#    2.118    0.588    0.000    0.000    0.000    0.000 
#    0.000    0.000    0.000    0.000    0.000    0.000 
#
# Total GULP energy -189691.014158 kJ/mol
# GULP energy per Si atom -5579.147475 kJ/mol
# Density = 2.303045 g / cm^3
# Si number density = 23.082986 Si / 1000 Ang^3
#
#
#
# Elastic Constant Matrix: (Units=GPa)
#
#
# Indices 1 2 3 4 5 6 
#
# 1 54.2443 31.3728 18.0172 0.0000 0.0000 0.0000
# 2 31.3728 155.6720 15.7554 0.0000 0.0000 0.0000
# 3 18.0172 15.7554 97.2914 0.0000 0.0000 0.0000
# 4 0.0000 0.0000 0.0000 30.6283 0.0000 0.0000
# 5 0.0000 0.0000 0.0000 0.0000 -44.6662 0.0000
# 6 0.0000 0.0000 0.0000 0.0000 0.0000 47.6233
#
#
#
# Elastic Compliance Matrix: (Units=1/GPa)
#
#
# Indices 1 2 3 4 5 6 
#
# 1 0.021920 -0.004074 -0.003400 0.000000 0.000000 0.000000
# 2 -0.004074 0.007288 -0.000426 0.000000 0.000000 0.000000
# 3 -0.003400 -0.000426 0.010977 0.000000 0.000000 0.000000
# 4 0.000000 0.000000 0.000000 0.032650 0.000000 0.000000
# 5 0.000000 0.000000 0.000000 0.000000 -0.022388 0.000000
# 6 0.000000 0.000000 0.000000 0.000000 0.000000 0.020998
#
#
# Mechanical properties :
#
#
# Convention : Reuss Voigt Hill
#
# Bulk Modulus (GPa) = 41.00563 48.61097 44.80830
# Shear Modulus (GPa) = 52.42655 22.85457 37.64056
#
# Velocity S-wave (km/s) = 4.77090 3.15001 4.04253
# Velocity P-wave (km/s) = 6.93914 5.85961 6.42210
#
# Compressibility (1/GPa) = 0.02438690
#
# Stress axis : x y z
#
# Youngs Moduli (GPa) = 45.61981 137.21549 91.10004
#
# Poissons Ratio (x) = 0.55895 0.30971
# Poissons Ratio (y) = 0.18583 0.03879
# Poissons Ratio (z) = 0.15509 0.05843
#
# Static dielectric constant tensor:
#      x y z
#    x 1.901560 0.000000 0.000000 
#    y 0.000000 1.840090 0.000000 
#    z 0.000000 0.000000 1.855820 
# 
# From -- ./inp_files/2288.got.cif
#   From: 2010.05.17/outbox.cif.g08.bks.cpg/sg58_2_cif.got.tgz:2288.got - 2010.06.03 14:20:14.
