data_PCOD9445167
_publ_section_title
;
Structure prediction by ZEFSAII (Michael W. Deem and Ramdas Pophale) SiO2 
 PCOD9445167
Probable space group: P N N M
;
_chemical_formula_sum "Si O2"
_cell_formula_units_Z 24
_cell_length_a 16.997572
_cell_length_b 9.889334
_cell_length_c 7.984290
_cell_angle_alpha 90.000000
_cell_angle_beta 90.000000
_cell_angle_gamma 90.000000
_cell_volume 1342.116566
_symmetry_space_group_name_H-M "P N N M"
_symmetry_group_IT_number 58
_symmetry_cell_setting 'orthorhombic'
loop_
_space_group_symop_operation_xyz
x,y,z
-x,-y,z
1/2+x,1/2-y,1/2-z
1/2-x,1/2+y,1/2-z
-x,-y,-z
x,y,-z
1/2-x,1/2+y,1/2+z
1/2+x,1/2-y,1/2+z
loop_
_atom_site_type_symbol
_atom_site_label
_atom_site_fract_x
_atom_site_fract_y
_atom_site_fract_z
Si Si1 0.423926 0.595736 0.500000
Si Si2 0.185638 0.016804 0.690281
Si Si3 0.179038 0.723561 0.187858
Si Si4 0.529626 0.848238 0.500000
O O1 0.500000 0.500000 0.500000
O O2 0.374328 0.563254 0.666156
O O3 0.456877 0.746984 0.500000
O O4 0.161722 0.052807 0.500000
O O5 0.191651 0.854376 0.700089
O O6 0.267487 0.094434 0.727561
O O7 0.088040 0.682769 0.157339
O O8 0.203889 0.769372 0.000000
O O9 0.500000 0.000000 0.500000
#
# Coordination Sequence:
#
# PCOD9445167 Si02
#       4
#     4   8   8   4
#     4  12  22  44  64  90 128 166 202 263 310 369
#     4  11  23  38  64  92 124 168 209 250 313 380
#     4   9  21  40  58  93 122 159 211 247 307 376
#     4  10  22  42  64  92 128 162 210 260 316 361
#
# _framework density 17.882203000000001
#
# number of rings (size 3 to 8) (size 9 to 14) (size 15 to 20)
#    1.000    0.667    5.000    0.000    7.000    0.667 
#    0.000    0.000    0.000    2.000    0.000    0.000 
#    0.000    0.000    0.000    0.000    0.000    0.000 
#
# Total GULP energy -133615.354762 kJ/mol
# GULP energy per Si atom -5567.306448 kJ/mol
# Density = 1.784150 g / cm^3
# Si number density = 17.882203 Si / 1000 Ang^3
#
#
#
# Elastic Constant Matrix: (Units=GPa)
#
#
# Indices 1 2 3 4 5 6 
#
# 1 58.9029 38.5852 35.6683 0.0000 0.0000 0.0000
# 2 38.5852 141.5058 31.3738 0.0000 0.0000 0.0000
# 3 35.6683 31.3738 89.2051 0.0000 0.0000 0.0000
# 4 0.0000 0.0000 0.0000 -35.3754 0.0000 0.0000
# 5 0.0000 0.0000 0.0000 0.0000 23.5168 0.0000
# 6 0.0000 0.0000 0.0000 0.0000 0.0000 43.8001
#
#
#
# Elastic Compliance Matrix: (Units=1/GPa)
#
#
# Indices 1 2 3 4 5 6 
#
# 1 0.025353 -0.005060 -0.008357 0.000000 0.000000 0.000000
# 2 -0.005060 0.008674 -0.001028 0.000000 0.000000 0.000000
# 3 -0.008357 -0.001028 0.014913 0.000000 0.000000 0.000000
# 4 0.000000 0.000000 0.000000 -0.028268 0.000000 0.000000
# 5 0.000000 0.000000 0.000000 0.000000 0.042523 0.000000
# 6 0.000000 0.000000 0.000000 0.000000 0.000000 0.022831
#
#
# Mechanical properties :
#
#
# Convention : Reuss Voigt Hill
#
# Bulk Modulus (GPa) = 49.87533 55.65203 52.76368
# Shear Modulus (GPa) = 41.11860 18.65405 29.88633
#
# Velocity S-wave (km/s) = 4.80042 3.23331 4.09258
# Velocity P-wave (km/s) = 7.66009 6.71774 7.20434
#
# Compressibility (1/GPa) = 0.02004999
#
# Stress axis : x y z
#
# Youngs Moduli (GPa) = 39.44370 115.28125 67.05457
#
# Poissons Ratio (x) = 0.58333 0.56041
# Poissons Ratio (y) = 0.19959 0.06891
# Poissons Ratio (z) = 0.32965 0.11846
#
# Static dielectric constant tensor:
#      x y z
#    x 1.612830 0.000000 0.000000 
#    y 0.000000 1.675990 0.000000 
#    z 0.000000 0.000000 1.646940 
# 
# From -- ./inp_files/4933.got.cif
#   From: 2010.05.17/outbox.cif.g08.bks.cpg/sg58_3_cif.got.tgz:4933.got - 2010.06.03 14:20:14.
