data_PCOD9445050
_publ_section_title
;
Structure prediction by ZEFSAII (Michael W. Deem and Ramdas Pophale) SiO2 
 PCOD9445050
Probable space group: P N N M
;
_chemical_formula_sum "Si O2"
_cell_formula_units_Z 56
_cell_length_a 8.431953
_cell_length_b 20.045489
_cell_length_c 13.670946
_cell_angle_alpha 90.000000
_cell_angle_beta 90.000000
_cell_angle_gamma 90.000000
_cell_volume 2310.699126
_symmetry_space_group_name_H-M "P N N M"
_symmetry_group_IT_number 58
_symmetry_cell_setting 'orthorhombic'
loop_
_space_group_symop_operation_xyz
x,y,z
-x,-y,z
1/2+x,1/2-y,1/2-z
1/2-x,1/2+y,1/2-z
-x,-y,-z
x,y,-z
1/2-x,1/2+y,1/2+z
1/2+x,1/2-y,1/2+z
loop_
_atom_site_type_symbol
_atom_site_label
_atom_site_fract_x
_atom_site_fract_y
_atom_site_fract_z
Si Si1 0.619450 0.899289 0.387645
Si Si2 0.711812 0.063821 0.887943
Si Si3 0.168577 0.587405 0.611146
Si Si4 0.331954 0.488650 0.112365
Si Si5 0.125189 0.728492 0.699452
Si Si6 0.713519 0.267795 0.888931
Si Si7 0.286248 0.860716 0.689903
O O1 0.561939 0.905858 0.500000
O O2 0.768345 0.848319 0.390424
O O3 0.472616 0.873343 0.325059
O O4 0.684863 0.968951 0.347958
O O5 0.521016 0.073965 0.890065
O O6 0.762386 0.111767 0.798366
O O7 0.743772 0.985260 0.866363
O O8 0.767611 0.077883 0.000000
O O9 0.216230 0.603926 0.500000
O O10 0.191360 0.655052 0.673393
O O11 0.500000 0.500000 0.161748
O O12 0.297090 0.411677 0.117356
O O13 0.341860 0.512081 0.000000
O O14 0.143758 0.746577 0.814298
O O15 0.236812 0.787130 0.659017
O O16 0.949454 0.740302 0.656802
O O17 0.730139 0.244055 0.000000
#
# Coordination Sequence:
#
# PCOD9445050 Si02
#       7
#     8   8   8   8   8   8   8
#     4  10  22  40  64  96 135 178 229 292 362 436
#     4   9  20  39  65  97 128 175 237 295 352 413
#     4   9  19  37  64  96 132 174 232 299 355 427
#     4  10  22  40  61  91 130 175 227 287 360 433
#     4  12  25  42  67 104 141 188 240 291 379 445
#     4  11  25  45  68  98 143 187 232 301 366 436
#     4  12  24  37  66 102 134 181 233 298 357 446
#
# _framework density 24.23509
#
# number of rings (size 3 to 8) (size 9 to 14) (size 15 to 20)
#    0.000    1.571    0.000    5.571    6.000    6.286 
#    0.000    1.429    0.000    1.286    0.000    0.000 
#    0.000    0.000    0.000    0.000    0.000    0.000 
#
# Total GULP energy -312577.500843 kJ/mol
# GULP energy per Si atom -5581.741086 kJ/mol
# Density = 2.417993 g / cm^3
# Si number density = 24.235090 Si / 1000 Ang^3
#
#
#
# Elastic Constant Matrix: (Units=GPa)
#
#
# Indices 1 2 3 4 5 6 
#
# 1 69.9546 39.4453 23.1335 0.0000 0.0000 0.0000
# 2 39.4453 176.3337 33.1994 0.0000 0.0000 0.0000
# 3 23.1335 33.1994 153.8300 0.0000 0.0000 0.0000
# 4 0.0000 0.0000 0.0000 30.9426 0.0000 0.0000
# 5 0.0000 0.0000 0.0000 0.0000 20.8029 0.0000
# 6 0.0000 0.0000 0.0000 0.0000 0.0000 35.9988
#
#
#
# Elastic Compliance Matrix: (Units=1/GPa)
#
#
# Indices 1 2 3 4 5 6 
#
# 1 0.016818 -0.003425 -0.001790 0.000000 0.000000 0.000000
# 2 -0.003425 0.006609 -0.000911 0.000000 0.000000 0.000000
# 3 -0.001790 -0.000911 0.006967 0.000000 0.000000 0.000000
# 4 0.000000 0.000000 0.000000 0.032318 0.000000 0.000000
# 5 0.000000 0.000000 0.000000 0.000000 0.048070 0.000000
# 6 0.000000 0.000000 0.000000 0.000000 0.000000 0.027779
#
#
# Mechanical properties :
#
#
# Convention : Reuss Voigt Hill
#
# Bulk Modulus (GPa) = 55.12411 65.74162 60.43287
# Shear Modulus (GPa) = 31.87553 37.83821 34.85687
#
# Velocity S-wave (km/s) = 3.63059 3.95561 3.79658
# Velocity P-wave (km/s) = 6.35373 6.93167 6.64898
#
# Compressibility (1/GPa) = 0.01814088
#
# Stress axis : x y z
#
# Youngs Moduli (GPa) = 59.45912 151.31273 143.54364
#
# Poissons Ratio (x) = 0.51827 0.25694
# Poissons Ratio (y) = 0.20366 0.13080
# Poissons Ratio (z) = 0.10643 0.13788
#
# Static dielectric constant tensor:
#      x y z
#    x 1.933030 0.000000 0.000000 
#    y 0.000000 2.014510 0.000000 
#    z 0.000000 0.000000 2.025100 
# 
# From -- ./inp_files/20104.got.cif
#   From: 2010.05.17/outbox.cif.g08.bks.cpg/sg58_11_cif.got.tgz:20104.got - 2010.06.03 14:20:14.
