data_PCOD9445015
_publ_section_title
;
Structure prediction by ZEFSAII (Michael W. Deem and Ramdas Pophale) SiO2 
 PCOD9445015
Probable space group: P N N M
;
_chemical_formula_sum "Si O2"
_cell_formula_units_Z 56
_cell_length_a 19.201764
_cell_length_b 13.195991
_cell_length_c 9.943993
_cell_angle_alpha 90.000000
_cell_angle_beta 90.000000
_cell_angle_gamma 90.000000
_cell_volume 2519.671643
_symmetry_space_group_name_H-M "P N N M"
_symmetry_group_IT_number 58
_symmetry_cell_setting 'orthorhombic'
loop_
_space_group_symop_operation_xyz
x,y,z
-x,-y,z
1/2+x,1/2-y,1/2-z
1/2-x,1/2+y,1/2-z
-x,-y,-z
x,y,-z
1/2-x,1/2+y,1/2+z
1/2+x,1/2-y,1/2+z
loop_
_atom_site_type_symbol
_atom_site_label
_atom_site_fract_x
_atom_site_fract_y
_atom_site_fract_z
Si Si1 0.347544 0.021733 0.346783
Si Si2 0.713623 0.187997 0.252782
Si Si3 0.571269 0.257702 0.148891
Si Si4 0.528055 0.852024 0.349620
Si Si5 0.883816 0.978645 0.338568
Si Si6 0.739834 0.400944 0.651024
Si Si7 0.128601 0.842030 0.153087
O O1 0.329478 0.055536 0.500000
O O2 0.429404 0.043711 0.331481
O O3 0.312471 0.081759 0.224369
O O4 0.317537 0.909621 0.326661
O O5 0.652491 0.225252 0.153511
O O6 0.724011 0.282308 0.351292
O O7 0.788823 0.169353 0.185018
O O8 0.529589 0.185923 0.247906
O O9 0.569608 0.377935 0.181838
O O10 0.542990 0.244889 0.000000
O O11 0.498397 0.850172 0.500000
O O12 0.588422 0.764787 0.342382
O O13 0.874290 0.991197 0.500000
O O14 0.814005 0.950303 0.256067
O O15 0.904204 0.081976 0.263580
O O16 0.737169 0.442587 0.500000
O O17 0.120143 0.881103 0.000000
#
# Coordination Sequence:
#
# PCOD9445015 Si02
#       7
#     8   8   8   8   8   8   8
#     4  11  23  41  64  92 128 168 213 261 323 384
#     4  11  23  40  67  98 130 167 214 264 327 381
#     4  10  24  45  66  91 129 177 218 265 321 386
#     4  10  24  44  65  91 129 176 218 268 323 386
#     4  10  22  39  63  93 128 167 211 263 327 385
#     4  11  22  36  59  95 129 162 208 259 315 378
#     4  11  22  39  66  99 130 167 216 271 331 386
#
# _framework density 22.225117000000001
#
# number of rings (size 3 to 8) (size 9 to 14) (size 15 to 20)
#    0.000    1.429    2.857    1.714    0.000    8.000 
#    0.000    5.000    0.000    0.000    0.000    0.000 
#    0.000    0.000    0.000    0.000    0.000    0.000 
#
# Total GULP energy -312686.705761 kJ/mol
# GULP energy per Si atom -5583.691174 kJ/mol
# Density = 2.217453 g / cm^3
# Si number density = 22.225117 Si / 1000 Ang^3
#
#
#
# Elastic Constant Matrix: (Units=GPa)
#
#
# Indices 1 2 3 4 5 6 
#
# 1 87.3563 10.9611 35.2262 0.0000 0.0000 0.0000
# 2 10.9611 87.7195 26.1303 0.0000 0.0000 0.0000
# 3 35.2262 26.1303 120.1293 0.0000 0.0000 0.0000
# 4 0.0000 0.0000 0.0000 36.6675 0.0000 0.0000
# 5 0.0000 0.0000 0.0000 0.0000 16.9775 0.0000
# 6 0.0000 0.0000 0.0000 0.0000 0.0000 33.2160
#
#
#
# Elastic Compliance Matrix: (Units=1/GPa)
#
#
# Indices 1 2 3 4 5 6 
#
# 1 0.013005 -0.000523 -0.003700 0.000000 0.000000 0.000000
# 2 -0.000523 0.012211 -0.002503 0.000000 0.000000 0.000000
# 3 -0.003700 -0.002503 0.009954 0.000000 0.000000 0.000000
# 4 0.000000 0.000000 0.000000 0.027272 0.000000 0.000000
# 5 0.000000 0.000000 0.000000 0.000000 0.058901 0.000000
# 6 0.000000 0.000000 0.000000 0.000000 0.000000 0.030106
#
#
# Mechanical properties :
#
#
# Convention : Reuss Voigt Hill
#
# Bulk Modulus (GPa) = 46.04361 48.87115 47.45738
# Shear Modulus (GPa) = 29.04624 32.23137 30.63880
#
# Velocity S-wave (km/s) = 3.61904 3.81231 3.71693
# Velocity P-wave (km/s) = 6.18265 6.43546 6.31032
#
# Compressibility (1/GPa) = 0.02171854
#
# Stress axis : x y z
#
# Youngs Moduli (GPa) = 76.89409 81.89443 100.46563
#
# Poissons Ratio (x) = 0.04283 0.37170
# Poissons Ratio (y) = 0.04021 0.25144
# Poissons Ratio (z) = 0.28449 0.20496
#
# Static dielectric constant tensor:
#      x y z
#    x 1.835250 0.000000 0.000000 
#    y 0.000000 1.893390 0.000000 
#    z 0.000000 0.000000 1.756600 
# 
# From -- ./inp_files/9031.got.cif
#   From: 2010.05.17/outbox.cif.g08.bks.cpg/sg58_5_cif.got.tgz:9031.got - 2010.06.03 14:20:14.
