data_PCOD9445814
_publ_section_title
;
Structure prediction by ZEFSAII (Michael W. Deem and Ramdas Pophale) SiO2 
 PCOD9445814
Probable space group: P N N M
;
_chemical_formula_sum "Si O2"
_cell_formula_units_Z 28
_cell_length_a 12.028680
_cell_length_b 4.678140
_cell_length_c 18.402586
_cell_angle_alpha 90.000000
_cell_angle_beta 90.000000
_cell_angle_gamma 90.000000
_cell_volume 1035.547542
_symmetry_space_group_name_H-M "P N N M"
_symmetry_group_IT_number 58
_symmetry_cell_setting 'orthorhombic'
loop_
_space_group_symop_operation_xyz
x,y,z
-x,-y,z
1/2+x,1/2-y,1/2-z
1/2-x,1/2+y,1/2-z
-x,-y,-z
x,y,-z
1/2-x,1/2+y,1/2+z
1/2+x,1/2-y,1/2+z
loop_
_atom_site_type_symbol
_atom_site_label
_atom_site_fract_x
_atom_site_fract_y
_atom_site_fract_z
Si Si1 0.846239 0.170588 0.000000
Si Si2 0.804604 0.140728 0.500000
Si Si3 0.500000 0.500000 0.366256
Si Si4 0.066141 0.241195 0.616458
Si Si5 0.671624 0.231759 0.746640
O O1 0.816754 0.501998 0.000000
O O2 0.911940 0.125688 0.924747
O O3 0.732796 0.972380 0.000000
O O4 0.868951 0.982245 0.565427
O O5 0.422094 0.694621 0.313155
O O6 0.128644 0.409959 0.678955
O O7 0.000000 0.500000 0.577834
O O8 0.000000 0.000000 0.661645
O O9 0.735765 0.508166 0.777482
#
# Coordination Sequence:
#
# PCOD9445814 Si02
#       5
#     4   4   4   8   8
#     4  11  26  45  72 103 138 192 233 300 360 419
#     4  12  24  46  70 105 142 183 248 289 357 435
#     4  11  26  48  72 103 148 184 246 299 354 434
#     4  12  24  43  68 103 140 189 238 297 361 419
#     4  12  26  44  70 103 142 191 237 297 362 431
#
# _framework density 27.038834999999999
#
# number of rings (size 3 to 8) (size 9 to 14) (size 15 to 20)
#    0.000    0.286    1.429    7.714    0.000    4.571 
#    0.000    0.000    0.000    0.000    0.000    0.000 
#    0.000    0.000    0.000    0.000    0.000    0.000 
#
# Total GULP energy -156190.668093 kJ/mol
# GULP energy per Si atom -5578.238146 kJ/mol
# Density = 2.697729 g / cm^3
# Si number density = 27.038835 Si / 1000 Ang^3
#
#
#
# Elastic Constant Matrix: (Units=GPa)
#
#
# Indices 1 2 3 4 5 6 
#
# 1 93.2464 44.0219 38.1643 0.0000 0.0000 0.0000
# 2 44.0219 151.5234 17.8672 0.0000 0.0000 0.0000
# 3 38.1643 17.8672 165.0166 0.0000 0.0000 0.0000
# 4 0.0000 0.0000 0.0000 12.4611 0.0000 0.0000
# 5 0.0000 0.0000 0.0000 0.0000 1.7946 0.0000
# 6 0.0000 0.0000 0.0000 0.0000 0.0000 30.1460
#
#
#
# Elastic Compliance Matrix: (Units=1/GPa)
#
#
# Indices 1 2 3 4 5 6 
#
# 1 0.013553 -0.003614 -0.002743 0.000000 0.000000 0.000000
# 2 -0.003614 0.007649 0.000008 0.000000 0.000000 0.000000
# 3 -0.002743 0.000008 0.006694 0.000000 0.000000 0.000000
# 4 0.000000 0.000000 0.000000 0.080250 0.000000 0.000000
# 5 0.000000 0.000000 0.000000 0.000000 0.557221 0.000000
# 6 0.000000 0.000000 0.000000 0.000000 0.000000 0.033172
#
#
# Mechanical properties :
#
#
# Convention : Reuss Voigt Hill
#
# Bulk Modulus (GPa) = 65.80552 67.76589 66.78571
# Shear Modulus (GPa) = 6.98028 29.52922 18.25475
#
# Velocity S-wave (km/s) = 1.60847 3.30829 2.60115
# Velocity P-wave (km/s) = 5.27635 6.30157 5.81161
#
# Compressibility (1/GPa) = 0.01519629
#
# Stress axis : x y z
#
# Youngs Moduli (GPa) = 73.78286 130.74036 149.39644
#
# Poissons Ratio (x) = 0.47251 0.40983
# Poissons Ratio (y) = 0.26666 -0.00115
# Poissons Ratio (z) = 0.20240 -0.00101
#
# Static dielectric constant tensor:
#      x y z
#    x 2.627620 0.000000 0.000000 
#    y 0.000000 2.048740 0.000000 
#    z 0.000000 0.000000 2.001190 
# 
# From -- ./inp_files/29261.got.cif
#   From: 2010.05.17/outbox.cif.g08.bks.cpg/sg58_15_cif.got.tgz:29261.got - 2010.06.03 14:20:14.
