data_PCOD9445115
_publ_section_title
;
Structure prediction by ZEFSAII (Michael W. Deem and Ramdas Pophale) SiO2 
 PCOD9445115
Probable space group: P N N M
;
_chemical_formula_sum "Si O2"
_cell_formula_units_Z 64
_cell_length_a 5.688897
_cell_length_b 18.611581
_cell_length_c 31.431115
_cell_angle_alpha 90.000000
_cell_angle_beta 90.000000
_cell_angle_gamma 90.000000
_cell_volume 3327.906570
_symmetry_space_group_name_H-M "P N N M"
_symmetry_group_IT_number 58
_symmetry_cell_setting 'orthorhombic'
loop_
_space_group_symop_operation_xyz
x,y,z
-x,-y,z
1/2+x,1/2-y,1/2-z
1/2-x,1/2+y,1/2-z
-x,-y,-z
x,y,-z
1/2-x,1/2+y,1/2+z
1/2+x,1/2-y,1/2+z
loop_
_atom_site_type_symbol
_atom_site_label
_atom_site_fract_x
_atom_site_fract_y
_atom_site_fract_z
Si Si1 0.406045 0.225493 0.049459
Si Si2 0.891963 0.229632 0.901246
Si Si3 0.739762 0.673797 0.259505
Si Si4 0.595119 0.929803 0.807244
Si Si5 0.139545 0.067244 0.274372
Si Si6 0.585044 0.808930 0.313004
Si Si7 0.185304 0.563208 0.545720
Si Si8 0.966183 0.919161 0.129778
O O1 0.143420 0.233633 0.072039
O O2 0.440862 0.139681 0.047363
O O3 0.648635 0.249194 0.073593
O O4 0.395146 0.251549 0.000000
O O5 0.865274 0.148065 0.881168
O O6 0.921637 0.281782 0.860827
O O7 0.513927 0.626030 0.250753
O O8 0.710425 0.748179 0.283973
O O9 0.908847 0.625486 0.288638
O O10 0.840580 0.685338 0.212185
O O11 0.713733 0.963269 0.765189
O O12 0.771178 0.888294 0.838156
O O13 0.500000 0.000000 0.831914
O O14 0.291552 0.113867 0.306923
O O15 0.000000 0.000000 0.293225
O O16 0.307842 0.559281 0.500000
O O17 0.358738 0.562688 0.584435
O O18 0.000000 0.500000 0.549183
O O19 0.000000 0.000000 0.148945
#
# Coordination Sequence:
#
# PCOD9445115 Si02
#       8
#     8   8   8   8   8   8   8   8
#     4  10  22  41  63  87 117 157 198 254 320 382
#     4  11  25  39  62  88 124 156 207 261 311 377
#     4  11  23  39  57  82 121 159 214 254 312 365
#     4  11  23  35  55  79 114 156 213 266 310 361
#     4  11  22  41  59  83 116 162 206 256 306 366
#     4  11  25  36  60  87 117 168 206 259 308 367
#     4   9  18  33  51  73 104 146 197 251 309 366
#     4  11  23  33  50  80 111 155 204 263 316 366
#
# _framework density 19.231309
#
# number of rings (size 3 to 8) (size 9 to 14) (size 15 to 20)
#    0.000    1.375    2.500    2.625    8.750    0.750 
#    0.000    0.000    0.000    0.000    0.000    0.000 
#    0.000    3.000    0.000    0.000    0.000    0.000 
#
# Total GULP energy -356594.673000 kJ/mol
# GULP energy per Si atom -5571.791766 kJ/mol
# Density = 1.918754 g / cm^3
# Si number density = 19.231309 Si / 1000 Ang^3
#
#
#
# Elastic Constant Matrix: (Units=GPa)
#
#
# Indices 1 2 3 4 5 6 
#
# 1 71.0644 13.1248 44.5592 0.0000 0.0000 0.0000
# 2 13.1248 56.1723 27.9176 0.0000 0.0000 0.0000
# 3 44.5592 27.9176 112.9242 0.0000 0.0000 0.0000
# 4 0.0000 0.0000 0.0000 30.7238 0.0000 0.0000
# 5 0.0000 0.0000 0.0000 0.0000 23.2411 0.0000
# 6 0.0000 0.0000 0.0000 0.0000 0.0000 30.4423
#
#
#
# Elastic Compliance Matrix: (Units=1/GPa)
#
#
# Indices 1 2 3 4 5 6 
#
# 1 0.018730 -0.000802 -0.007192 0.000000 0.000000 0.000000
# 2 -0.000802 0.020330 -0.004710 0.000000 0.000000 0.000000
# 3 -0.007192 -0.004710 0.012858 0.000000 0.000000 0.000000
# 4 0.000000 0.000000 0.000000 0.032548 0.000000 0.000000
# 5 0.000000 0.000000 0.000000 0.000000 0.043027 0.000000
# 6 0.000000 0.000000 0.000000 0.000000 0.000000 0.032849
#
#
# Mechanical properties :
#
#
# Convention : Reuss Voigt Hill
#
# Bulk Modulus (GPa) = 37.72122 45.70711 41.71417
# Shear Modulus (GPa) = 25.69546 27.18539 26.44042
#
# Velocity S-wave (km/s) = 3.65927 3.76387 3.71194
# Velocity P-wave (km/s) = 6.12460 6.53510 6.33318
#
# Compressibility (1/GPa) = 0.02651028
#
# Stress axis : x y z
#
# Youngs Moduli (GPa) = 53.39140 49.18728 77.77279
#
# Poissons Ratio (x) = 0.03943 0.55937
# Poissons Ratio (y) = 0.04280 0.36630
# Poissons Ratio (z) = 0.38401 0.23167
#
# Static dielectric constant tensor:
#      x y z
#    x 1.721130 0.000000 0.000000 
#    y 0.000000 2.094030 0.000000 
#    z 0.000000 0.000000 1.672200 
# 
# From -- ./inp_files/34268.got.cif
#   From: 2010.05.17/outbox.cif.g08.bks.cpg/sg58_18_cif.got.tgz:34268.got - 2010.06.03 14:20:14.
