data_PCOD9445293
_publ_section_title
;
Structure prediction by ZEFSAII (Michael W. Deem and Ramdas Pophale) SiO2 
 PCOD9445293
Probable space group: P N N M
;
_chemical_formula_sum "Si O2"
_cell_formula_units_Z 40
_cell_length_a 7.395310
_cell_length_b 10.695052
_cell_length_c 22.015356
_cell_angle_alpha 90.000000
_cell_angle_beta 90.000000
_cell_angle_gamma 90.000000
_cell_volume 1741.265506
_symmetry_space_group_name_H-M "P N N M"
_symmetry_group_IT_number 58
_symmetry_cell_setting 'orthorhombic'
loop_
_space_group_symop_operation_xyz
x,y,z
-x,-y,z
1/2+x,1/2-y,1/2-z
1/2-x,1/2+y,1/2-z
-x,-y,-z
x,y,-z
1/2-x,1/2+y,1/2+z
1/2+x,1/2-y,1/2+z
loop_
_atom_site_type_symbol
_atom_site_label
_atom_site_fract_x
_atom_site_fract_y
_atom_site_fract_z
Si Si1 0.679901 0.545650 0.354118
Si Si2 0.576004 0.203290 0.069536
Si Si3 0.356697 0.346614 0.838336
Si Si4 0.917916 0.820525 0.221802
Si Si5 0.211603 0.538351 0.068318
O O1 0.500000 0.500000 0.389786
O O2 0.836190 0.585615 0.397368
O O3 0.602508 0.663989 0.316771
O O4 0.702401 0.437466 0.303288
O O5 0.406504 0.248128 0.108984
O O6 0.725053 0.317067 0.071134
O O7 0.529880 0.180567 0.000000
O O8 0.184620 0.302011 0.799202
O O9 0.521721 0.341423 0.790497
O O10 0.309292 0.468613 0.876557
O O11 0.000000 0.500000 0.072665
O O12 0.270020 0.495344 0.000000
#
# Coordination Sequence:
#
# PCOD9445293 Si02
#       5
#     8   8   8   8   8
#     4   8  21  44  60  90 129 170 222 263 327 395
#     4  11  23  40  68  98 132 173 218 275 332 394
#     4  12  22  42  64  94 136 170 223 279 328 400
#     4   9  23  39  64  90 126 177 217 268 326 390
#     4  10  23  41  68 102 131 170 217 271 342 403
#
# _framework density 22.971800000000002
#
# number of rings (size 3 to 8) (size 9 to 14) (size 15 to 20)
#    1.200    0.600    0.000    3.600    5.600    2.800 
#    0.000    4.000    0.000    0.000    0.000    0.000 
#    0.000    0.000    0.000    0.000    0.000    0.000 
#
# Total GULP energy -223077.184873 kJ/mol
# GULP energy per Si atom -5576.929622 kJ/mol
# Density = 2.291951 g / cm^3
# Si number density = 22.971800 Si / 1000 Ang^3
#
#
#
# Elastic Constant Matrix: (Units=GPa)
#
#
# Indices 1 2 3 4 5 6 
#
# 1 55.8150 16.6436 46.8379 0.0000 0.0000 0.0000
# 2 16.6436 50.0620 48.7212 0.0000 0.0000 0.0000
# 3 46.8379 48.7212 193.9209 0.0000 0.0000 0.0000
# 4 0.0000 0.0000 0.0000 144.0291 0.0000 0.0000
# 5 0.0000 0.0000 0.0000 0.0000 31.8133 0.0000
# 6 0.0000 0.0000 0.0000 0.0000 0.0000 35.0709
#
#
#
# Elastic Compliance Matrix: (Units=1/GPa)
#
#
# Indices 1 2 3 4 5 6 
#
# 1 0.022793 -0.002938 -0.004767 0.000000 0.000000 0.000000
# 2 -0.002938 0.026819 -0.006028 0.000000 0.000000 0.000000
# 3 -0.004767 -0.006028 0.007823 0.000000 0.000000 0.000000
# 4 0.000000 0.000000 0.000000 0.006943 0.000000 0.000000
# 5 0.000000 0.000000 0.000000 0.000000 0.031433 0.000000
# 6 0.000000 0.000000 0.000000 0.000000 0.000000 0.028514
#
#
# Mechanical properties :
#
#
# Convention : Reuss Voigt Hill
#
# Bulk Modulus (GPa) = 33.36991 58.24480 45.80736
# Shear Modulus (GPa) = 30.90596 54.68898 42.79747
#
# Velocity S-wave (km/s) = 3.67193 4.88454 4.32098
# Velocity P-wave (km/s) = 5.70398 7.56449 6.69914
#
# Compressibility (1/GPa) = 0.02996711
#
# Stress axis : x y z
#
# Youngs Moduli (GPa) = 43.87359 37.28689 127.83336
#
# Poissons Ratio (x) = 0.10956 0.60937
# Poissons Ratio (y) = 0.12892 0.77063
# Poissons Ratio (z) = 0.20914 0.22478
#
# Static dielectric constant tensor:
#      x y z
#    x 1.883430 0.000000 0.000000 
#    y 0.000000 1.972120 0.000000 
#    z 0.000000 0.000000 1.818290 
# 
# From -- ./inp_files/24979.got.cif
#   From: 2010.05.17/outbox.cif.g08.bks.cpg/sg58_13_cif.got.tgz:24979.got - 2010.06.03 14:20:14.
