data_PCOD9445297
_publ_section_title
;
Structure prediction by ZEFSAII (Michael W. Deem and Ramdas Pophale) SiO2 
 PCOD9445297
Probable space group: P N N M
;
_chemical_formula_sum "Si O2"
_cell_formula_units_Z 48
_cell_length_a 18.736721
_cell_length_b 13.223156
_cell_length_c 9.233040
_cell_angle_alpha 90.000000
_cell_angle_beta 90.000000
_cell_angle_gamma 90.000000
_cell_volume 2287.564923
_symmetry_space_group_name_H-M "P N N M"
_symmetry_group_IT_number 58
_symmetry_cell_setting 'orthorhombic'
loop_
_space_group_symop_operation_xyz
x,y,z
-x,-y,z
1/2+x,1/2-y,1/2-z
1/2-x,1/2+y,1/2-z
-x,-y,-z
x,y,-z
1/2-x,1/2+y,1/2+z
1/2+x,1/2-y,1/2+z
loop_
_atom_site_type_symbol
_atom_site_label
_atom_site_fract_x
_atom_site_fract_y
_atom_site_fract_z
Si Si1 0.243572 0.667346 0.659812
Si Si2 0.960484 0.236509 0.669885
Si Si3 0.870929 0.763935 0.663814
Si Si4 0.803308 0.548722 0.267919
Si Si5 0.930402 0.430043 0.155047
Si Si6 0.168509 0.837162 0.173100
O O1 0.237140 0.714771 0.500000
O O2 0.324046 0.677153 0.718392
O O3 0.199105 0.726894 0.782245
O O4 0.216340 0.553649 0.648799
O O5 0.946310 0.221183 0.500000
O O6 0.938038 0.349929 0.716521
O O7 0.911352 0.162386 0.765383
O O8 0.045137 0.228995 0.694567
O O9 0.857755 0.801574 0.500000
O O10 0.843688 0.646839 0.667118
O O11 0.861812 0.502715 0.159956
O O12 0.724113 0.592058 0.239344
O O13 0.000000 0.500000 0.161553
O O14 0.930787 0.373970 0.000000
O O15 0.173734 0.854408 0.000000
#
# Coordination Sequence:
#
# PCOD9445297 Si02
#       6
#     8   8   8   8   8   8
#     4  11  22  37  61  91 121 161 209 255 302 372
#     4  11  23  40  63  90 122 164 209 255 313 374
#     4  10  23  42  62  88 125 166 203 253 315 370
#     4  11  22  39  63  92 125 164 203 250 309 374
#     4  11  23  38  60  94 128 159 200 253 314 371
#     4  11  24  41  61  88 126 167 204 256 315 369
#
# _framework density 20.983011000000001
#
# number of rings (size 3 to 8) (size 9 to 14) (size 15 to 20)
#    0.000    1.167    3.333    4.000    0.000    7.000 
#    0.000    0.833    0.000    4.000    0.000    0.000 
#    0.000    0.000    0.000    0.000    0.000    0.000 
#
# Total GULP energy -267415.979970 kJ/mol
# GULP energy per Si atom -5571.166249 kJ/mol
# Density = 2.093525 g / cm^3
# Si number density = 20.983011 Si / 1000 Ang^3
#
#
#
# Elastic Constant Matrix: (Units=GPa)
#
#
# Indices 1 2 3 4 5 6 
#
# 1 140.5507 19.2430 60.4914 0.0000 0.0000 0.0000
# 2 19.2430 29.9183 13.1013 0.0000 0.0000 0.0000
# 3 60.4914 13.1013 81.7221 0.0000 0.0000 0.0000
# 4 0.0000 0.0000 0.0000 9.6986 0.0000 0.0000
# 5 0.0000 0.0000 0.0000 0.0000 -6.6276 0.0000
# 6 0.0000 0.0000 0.0000 0.0000 0.0000 33.3253
#
#
#
# Elastic Compliance Matrix: (Units=1/GPa)
#
#
# Indices 1 2 3 4 5 6 
#
# 1 0.010811 -0.003710 -0.007408 0.000000 0.000000 0.000000
# 2 -0.003710 0.037221 -0.003221 0.000000 0.000000 0.000000
# 3 -0.007408 -0.003221 0.018236 0.000000 0.000000 0.000000
# 4 0.000000 0.000000 0.000000 0.103108 0.000000 0.000000
# 5 0.000000 0.000000 0.000000 0.000000 -0.150884 0.000000
# 6 0.000000 0.000000 0.000000 0.000000 0.000000 0.030007
#
#
# Mechanical properties :
#
#
# Convention : Reuss Voigt Hill
#
# Bulk Modulus (GPa) = 26.60198 48.65138 37.62668
# Shear Modulus (GPa) = 55.73712 17.90295 36.82003
#
# Velocity S-wave (km/s) = 5.15952 2.92415 4.19352
# Velocity P-wave (km/s) = 6.94259 5.88534 6.43571
#
# Compressibility (1/GPa) = 0.03759118
#
# Stress axis : x y z
#
# Youngs Moduli (GPa) = 92.49907 26.86662 54.83605
#
# Poissons Ratio (x) = 0.09966 0.40621
# Poissons Ratio (y) = 0.34313 0.17664
# Poissons Ratio (z) = 0.68520 0.08654
#
# Static dielectric constant tensor:
#      x y z
#    x 1.806680 0.000000 0.000000 
#    y 0.000000 1.770720 0.000000 
#    z 0.000000 0.000000 1.739230 
# 
# From -- ./inp_files/7717.got.cif
#   From: 2010.05.17/outbox.cif.g08.bks.cpg/sg58_4_cif.got.tgz:7717.got - 2010.06.03 14:20:14.
