data_PCOD9445467
_publ_section_title
;
Structure prediction by ZEFSAII (Michael W. Deem and Ramdas Pophale) SiO2 
 PCOD9445467
Probable space group: P N N M
;
_chemical_formula_sum "Si O2"
_cell_formula_units_Z 34
_cell_length_a 17.993489
_cell_length_b 5.356186
_cell_length_c 14.373682
_cell_angle_alpha 90.000000
_cell_angle_beta 90.000000
_cell_angle_gamma 90.000000
_cell_volume 1385.284788
_symmetry_space_group_name_H-M "P N N M"
_symmetry_group_IT_number 58
_symmetry_cell_setting 'orthorhombic'
loop_
_space_group_symop_operation_xyz
x,y,z
-x,-y,z
1/2+x,1/2-y,1/2-z
1/2-x,1/2+y,1/2-z
-x,-y,-z
x,y,-z
1/2-x,1/2+y,1/2+z
1/2+x,1/2-y,1/2+z
loop_
_atom_site_type_symbol
_atom_site_label
_atom_site_fract_x
_atom_site_fract_y
_atom_site_fract_z
Si Si1 0.789508 0.787362 0.105324
Si Si2 0.424383 0.349382 0.653957
Si Si3 0.660386 0.002179 0.778938
Si Si4 0.000000 0.500000 0.000000
Si Si5 0.451066 0.746421 0.103423
O O1 0.892026 0.278262 0.245841
O O2 0.717119 0.934221 0.139997
O O3 0.798139 0.577681 0.184324
O O4 0.782815 0.696012 0.000000
O O5 0.500000 0.500000 0.669023
O O6 0.361934 0.534456 0.612518
O O7 0.448208 0.134775 0.581044
O O8 0.609527 0.224180 0.816640
O O9 0.500000 0.500000 0.111317
O O10 0.500000 0.000000 0.106635
O O11 0.416040 0.739415 0.000000
#
# Coordination Sequence:
#
# PCOD9445467 Si02
#       5
#     8   8   8   2   8
#     4  12  28  52  78 116 166 213 275 340 416 504
#     4  12  28  48  76 117 160 212 275 342 417 498
#     4  12  28  49  80 117 160 223 272 340 425 509
#     4  12  26  48  80 118 162 212 272 354 414 498
#     4  10  25  48  78 116 158 211 277 344 412 492
#
# _framework density 24.543692
#
# number of rings (size 3 to 8) (size 9 to 14) (size 15 to 20)
#    0.000    0.471    3.529    2.471   13.176    0.000 
#    0.000    0.000    0.000    2.118    0.000    0.000 
#    0.000    0.000    0.000    0.000    0.000    0.000 
#
# Total GULP energy -190150.281028 kJ/mol
# GULP energy per Si atom -5592.655324 kJ/mol
# Density = 2.448783 g / cm^3
# Si number density = 24.543692 Si / 1000 Ang^3
#
#
#
# Elastic Constant Matrix: (Units=GPa)
#
#
# Indices 1 2 3 4 5 6 
#
# 1 106.3095 26.4458 37.4951 0.0000 0.0000 0.0000
# 2 26.4458 82.8670 16.1817 0.0000 0.0000 0.0000
# 3 37.4951 16.1817 155.0544 0.0000 0.0000 0.0000
# 4 0.0000 0.0000 0.0000 30.9225 0.0000 0.0000
# 5 0.0000 0.0000 0.0000 0.0000 22.9514 0.0000
# 6 0.0000 0.0000 0.0000 0.0000 0.0000 35.2301
#
#
#
# Elastic Compliance Matrix: (Units=1/GPa)
#
#
# Indices 1 2 3 4 5 6 
#
# 1 0.010990 -0.003051 -0.002339 0.000000 0.000000 0.000000
# 2 -0.003051 0.013165 -0.000636 0.000000 0.000000 0.000000
# 3 -0.002339 -0.000636 0.007081 0.000000 0.000000 0.000000
# 4 0.000000 0.000000 0.000000 0.032339 0.000000 0.000000
# 5 0.000000 0.000000 0.000000 0.000000 0.043570 0.000000
# 6 0.000000 0.000000 0.000000 0.000000 0.000000 0.028385
#
#
# Mechanical properties :
#
#
# Convention : Reuss Voigt Hill
#
# Bulk Modulus (GPa) = 52.12461 56.05291 54.08876
# Shear Modulus (GPa) = 32.47203 35.42802 33.95002
#
# Velocity S-wave (km/s) = 3.64129 3.80342 3.72324
# Velocity P-wave (km/s) = 6.24198 6.49427 6.36937
#
# Compressibility (1/GPa) = 0.01918480
#
# Stress axis : x y z
#
# Youngs Moduli (GPa) = 90.98806 75.95704 141.21405
#
# Poissons Ratio (x) = 0.23172 0.33035
# Poissons Ratio (y) = 0.27757 0.08985
# Poissons Ratio (z) = 0.21285 0.04833
#
# Static dielectric constant tensor:
#      x y z
#    x 1.963350 0.000000 0.000000 
#    y 0.000000 2.020800 0.000000 
#    z 0.000000 0.000000 1.921270 
# 
# From -- ./inp_files/23088.got.cif
#   From: 2010.05.17/outbox.cif.g08.bks.cpg/sg58_12_cif.got.tgz:23088.got - 2010.06.03 14:20:14.
