data_PCOD9445649
_publ_section_title
;
Structure prediction by ZEFSAII (Michael W. Deem and Ramdas Pophale) SiO2 
 PCOD9445649
Probable space group: P N N M
;
_chemical_formula_sum "Si O2"
_cell_formula_units_Z 34
_cell_length_a 7.943289
_cell_length_b 7.914634
_cell_length_c 22.752348
_cell_angle_alpha 90.000000
_cell_angle_beta 90.000000
_cell_angle_gamma 90.000000
_cell_volume 1430.399738
_symmetry_space_group_name_H-M "P N N M"
_symmetry_group_IT_number 58
_symmetry_cell_setting 'orthorhombic'
loop_
_space_group_symop_operation_xyz
x,y,z
-x,-y,z
1/2+x,1/2-y,1/2-z
1/2-x,1/2+y,1/2-z
-x,-y,-z
x,y,-z
1/2-x,1/2+y,1/2+z
1/2+x,1/2-y,1/2+z
loop_
_atom_site_type_symbol
_atom_site_label
_atom_site_fract_x
_atom_site_fract_y
_atom_site_fract_z
Si Si1 0.099022 0.239976 0.181418
Si Si2 0.740079 0.403141 0.794725
Si Si3 0.500000 0.500000 0.000000
Si Si4 0.093759 0.242668 0.593436
Si Si5 0.231639 0.089453 0.067207
O O1 0.214246 0.407544 0.186693
O O2 0.172409 0.109508 0.228861
O O3 0.111263 0.164716 0.116526
O O4 0.913479 0.299265 0.198832
O O5 0.611254 0.314904 0.839623
O O6 0.619832 0.415681 0.948640
O O7 0.220383 0.395549 0.579871
O O8 0.909789 0.311904 0.575177
O O9 0.176199 0.111325 0.000000
#
# Coordination Sequence:
#
# PCOD9445649 Si02
#       5
#     8   8   2   8   8
#     4  11  25  45  67  96 140 169 235 281 351 403
#     4  11  25  44  67 100 128 182 221 294 340 410
#     4  12  20  38  64 100 128 174 214 266 316 412
#     4  11  22  39  67  97 132 172 228 264 339 395
#     4  11  22  43  64 101 135 179 218 282 329 410
#
# _framework density 23.769580999999999
#
# number of rings (size 3 to 8) (size 9 to 14) (size 15 to 20)
#    0.000    0.941    2.353    4.941    0.000    9.412 
#    2.118    2.353    0.000    0.000    0.000    0.000 
#    0.000    0.000    0.000    0.000    0.000    0.000 
#
# Total GULP energy -190076.397073 kJ/mol
# GULP energy per Si atom -5590.482267 kJ/mol
# Density = 2.371548 g / cm^3
# Si number density = 23.769581 Si / 1000 Ang^3
#
#
#
# Elastic Constant Matrix: (Units=GPa)
#
#
# Indices 1 2 3 4 5 6 
#
# 1 91.1552 22.1382 37.6970 0.0000 0.0000 0.0000
# 2 22.1382 118.3621 45.3891 0.0000 0.0000 0.0000
# 3 37.6970 45.3891 176.4688 0.0000 0.0000 0.0000
# 4 0.0000 0.0000 0.0000 80.4462 0.0000 0.0000
# 5 0.0000 0.0000 0.0000 0.0000 32.9425 0.0000
# 6 0.0000 0.0000 0.0000 0.0000 0.0000 27.5424
#
#
#
# Elastic Compliance Matrix: (Units=1/GPa)
#
#
# Indices 1 2 3 4 5 6 
#
# 1 0.012247 -0.001428 -0.002249 0.000000 0.000000 0.000000
# 2 -0.001428 0.009540 -0.002149 0.000000 0.000000 0.000000
# 3 -0.002249 -0.002149 0.006700 0.000000 0.000000 0.000000
# 4 0.000000 0.000000 0.000000 0.012431 0.000000 0.000000
# 5 0.000000 0.000000 0.000000 0.000000 0.030356 0.000000
# 6 0.000000 0.000000 0.000000 0.000000 0.000000 0.036308
#
#
# Mechanical properties :
#
#
# Convention : Reuss Voigt Hill
#
# Bulk Modulus (GPa) = 59.39935 66.27051 62.83493
# Shear Modulus (GPa) = 40.04995 46.90368 43.47682
#
# Velocity S-wave (km/s) = 4.10924 4.44696 4.28143
# Velocity P-wave (km/s) = 6.89626 7.36941 7.13676
#
# Compressibility (1/GPa) = 0.01683520
#
# Stress axis : x y z
#
# Youngs Moduli (GPa) = 81.65135 104.82485 149.25928
#
# Poissons Ratio (x) = 0.14972 0.33566
# Poissons Ratio (y) = 0.11662 0.32069
# Poissons Ratio (z) = 0.18362 0.22522
#
# Static dielectric constant tensor:
#      x y z
#    x 1.911450 0.000000 0.000000 
#    y 0.000000 1.962160 0.000000 
#    z 0.000000 0.000000 1.903750 
# 
# From -- ./inp_files/28550.got.cif
#   From: 2010.05.17/outbox.cif.g08.bks.cpg/sg58_15_cif.got.tgz:28550.got - 2010.06.03 14:20:14.
