data_PCOD9445528
_publ_section_title
;
Structure prediction by ZEFSAII (Michael W. Deem and Ramdas Pophale) SiO2 
 PCOD9445528
Probable space group: P N N M
;
_chemical_formula_sum "Si O2"
_cell_formula_units_Z 40
_cell_length_a 11.115640
_cell_length_b 7.732461
_cell_length_c 23.797039
_cell_angle_alpha 90.000000
_cell_angle_beta 90.000000
_cell_angle_gamma 90.000000
_cell_volume 2045.385315
_symmetry_space_group_name_H-M "P N N M"
_symmetry_group_IT_number 58
_symmetry_cell_setting 'orthorhombic'
loop_
_space_group_symop_operation_xyz
x,y,z
-x,-y,z
1/2+x,1/2-y,1/2-z
1/2-x,1/2+y,1/2-z
-x,-y,-z
x,y,-z
1/2-x,1/2+y,1/2+z
1/2+x,1/2-y,1/2+z
loop_
_atom_site_type_symbol
_atom_site_label
_atom_site_fract_x
_atom_site_fract_y
_atom_site_fract_z
Si Si1 0.641988 0.004949 0.692613
Si Si2 0.757487 0.804508 0.120259
Si Si3 0.294153 0.091553 0.000000
Si Si4 0.435896 0.746588 0.000000
Si Si5 0.265924 0.862786 0.811138
Si Si6 0.982461 0.811034 0.374847
O O1 0.678069 0.131835 0.641656
O O2 0.706305 0.085374 0.747334
O O3 0.500000 0.000000 0.701281
O O4 0.686672 0.809338 0.685016
O O5 0.613336 0.774805 0.125012
O O6 0.788708 0.970049 0.158185
O O7 0.775343 0.851645 0.055430
O O8 0.428005 0.177293 0.000000
O O9 0.332018 0.890943 0.000000
O O10 0.431032 0.659801 0.938494
O O11 0.389725 0.808851 0.842105
O O12 0.000000 0.000000 0.348167
#
# Coordination Sequence:
#
# PCOD9445528 Si02
#       6
#     8   8   4   4   8   8
#     4  12  27  44  65  93 126 166 215 260 315 381
#     4  11  22  42  63  96 131 167 212 260 316 377
#     4   9  18  34  63  90 130 172 207 258 317 372
#     4   9  17  30  56  99 131 163 200 261 317 375
#     4  12  24  42  66  92 124 169 206 265 321 375
#     4  11  20  35  64  98 134 161 207 258 323 377
#
# _framework density 19.556215999999999
#
# number of rings (size 3 to 8) (size 9 to 14) (size 15 to 20)
#    0.000    1.000    6.000    2.100    0.000    0.800 
#    0.000    1.500    0.000    1.200    0.000    0.000 
#    0.000    0.000    0.000    0.000    0.000    0.000 
#
# Total GULP energy -223423.316578 kJ/mol
# GULP energy per Si atom -5585.582914 kJ/mol
# Density = 1.951171 g / cm^3
# Si number density = 19.556216 Si / 1000 Ang^3
#
#
#
# Elastic Constant Matrix: (Units=GPa)
#
#
# Indices 1 2 3 4 5 6 
#
# 1 33.2019 36.9662 7.5189 0.0000 0.0000 0.0000
# 2 36.9662 131.1850 40.2547 0.0000 0.0000 0.0000
# 3 7.5189 40.2547 94.4159 0.0000 0.0000 0.0000
# 4 0.0000 0.0000 0.0000 36.2026 0.0000 0.0000
# 5 0.0000 0.0000 0.0000 0.0000 21.0927 0.0000
# 6 0.0000 0.0000 0.0000 0.0000 0.0000 21.9629
#
#
#
# Elastic Compliance Matrix: (Units=1/GPa)
#
#
# Indices 1 2 3 4 5 6 
#
# 1 0.044234 -0.013097 0.002061 0.000000 0.000000 0.000000
# 2 -0.013097 0.012648 -0.004350 0.000000 0.000000 0.000000
# 3 0.002061 -0.004350 0.012282 0.000000 0.000000 0.000000
# 4 0.000000 0.000000 0.000000 0.027622 0.000000 0.000000
# 5 0.000000 0.000000 0.000000 0.000000 0.047410 0.000000
# 6 0.000000 0.000000 0.000000 0.000000 0.000000 0.045531
#
#
# Mechanical properties :
#
#
# Convention : Reuss Voigt Hill
#
# Bulk Modulus (GPa) = 26.04631 47.58696 36.81664
# Shear Modulus (GPa) = 21.43205 27.45583 24.44394
#
# Velocity S-wave (km/s) = 3.31406 3.75099 3.53927
# Velocity P-wave (km/s) = 5.29071 6.56857 5.96396
#
# Compressibility (1/GPa) = 0.03839316
#
# Stress axis : x y z
#
# Youngs Moduli (GPa) = 22.60711 79.06331 81.42170
#
# Poissons Ratio (x) = 1.03550 -0.16784
# Poissons Ratio (y) = 0.29609 0.35415
# Poissons Ratio (z) = -0.04660 0.34389
#
# Static dielectric constant tensor:
#      x y z
#    x 1.643890 0.000000 0.000000 
#    y 0.000000 1.695700 0.000000 
#    z 0.000000 0.000000 1.712100 
# 
# From -- ./inp_files/29424.got.cif
#   From: 2010.05.17/outbox.cif.g08.bks.cpg/sg58_15_cif.got.tgz:29424.got - 2010.06.03 14:20:14.
