data_PCOD9445190
_publ_section_title
;
Structure prediction by ZEFSAII (Michael W. Deem and Ramdas Pophale) SiO2 
 PCOD9445190
Probable space group: P N N M
;
_chemical_formula_sum "Si O2"
_cell_formula_units_Z 48
_cell_length_a 8.833511
_cell_length_b 9.863423
_cell_length_c 27.537527
_cell_angle_alpha 90.000000
_cell_angle_beta 90.000000
_cell_angle_gamma 90.000000
_cell_volume 2399.307705
_symmetry_space_group_name_H-M "P N N M"
_symmetry_group_IT_number 58
_symmetry_cell_setting 'orthorhombic'
loop_
_space_group_symop_operation_xyz
x,y,z
-x,-y,z
1/2+x,1/2-y,1/2-z
1/2-x,1/2+y,1/2-z
-x,-y,-z
x,y,-z
1/2-x,1/2+y,1/2+z
1/2+x,1/2-y,1/2+z
loop_
_atom_site_type_symbol
_atom_site_label
_atom_site_fract_x
_atom_site_fract_y
_atom_site_fract_z
Si Si1 0.387883 0.876552 0.306286
Si Si2 0.567071 0.649516 0.855663
Si Si3 0.560961 0.347170 0.447647
Si Si4 0.392039 0.873063 0.805336
Si Si5 0.422945 0.146601 0.943524
Si Si6 0.429329 0.351059 0.349467
O O1 0.243292 0.863397 0.341054
O O2 0.339719 0.892614 0.250202
O O3 0.488791 0.742246 0.310386
O O4 0.500000 0.000000 0.318894
O O5 0.500000 0.500000 0.860284
O O6 0.486059 0.735940 0.813322
O O7 0.537299 0.739216 0.904015
O O8 0.500000 0.500000 0.450886
O O9 0.534466 0.279586 0.500000
O O10 0.740427 0.361193 0.439797
O O11 0.474145 0.287152 0.401603
O O12 0.247038 0.864266 0.839683
O O13 0.500000 0.000000 0.817247
O O14 0.500000 0.000000 0.933809
O O15 0.460017 0.180748 0.000000
O O16 0.500000 0.500000 0.347751
#
# Coordination Sequence:
#
# PCOD9445190 Si02
#       6
#     8   8   8   8   8   8
#     4  11  24  44  62  89 126 171 214 259 318 382
#     4  12  25  41  63  95 132 168 208 264 324 380
#     4   9  19  36  61  93 124 156 203 257 310 370
#     4  11  25  41  65  92 125 165 218 265 312 376
#     4  10  22  42  69  96 127 166 213 265 318 379
#     4  11  22  38  64  92 121 164 208 262 316 373
#
# _framework density 20.005770999999999
#
# number of rings (size 3 to 8) (size 9 to 14) (size 15 to 20)
#    0.000    1.333    1.667    3.500    7.000    5.667 
#    0.000    0.000    0.000    4.500    0.000    0.000 
#    0.000    0.000    0.000    0.000    0.000    0.000 
#
# Total GULP energy -268060.393575 kJ/mol
# GULP energy per Si atom -5584.591533 kJ/mol
# Density = 1.996024 g / cm^3
# Si number density = 20.005771 Si / 1000 Ang^3
#
#
#
# Elastic Constant Matrix: (Units=GPa)
#
#
# Indices 1 2 3 4 5 6 
#
# 1 120.1846 46.1978 50.8416 0.0000 0.0000 0.0000
# 2 46.1978 117.3017 37.6997 0.0000 0.0000 0.0000
# 3 50.8416 37.6997 112.1916 0.0000 0.0000 0.0000
# 4 0.0000 0.0000 0.0000 -148.2350 0.0000 0.0000
# 5 0.0000 0.0000 0.0000 0.0000 25.7125 0.0000
# 6 0.0000 0.0000 0.0000 0.0000 0.0000 30.9933
#
#
#
# Elastic Compliance Matrix: (Units=1/GPa)
#
#
# Indices 1 2 3 4 5 6 
#
# 1 0.011230 -0.003125 -0.004039 0.000000 0.000000 0.000000
# 2 -0.003125 0.010427 -0.002088 0.000000 0.000000 0.000000
# 3 -0.004039 -0.002088 0.011445 0.000000 0.000000 0.000000
# 4 0.000000 0.000000 0.000000 -0.006746 0.000000 0.000000
# 5 0.000000 0.000000 0.000000 0.000000 0.038892 0.000000
# 6 0.000000 0.000000 0.000000 0.000000 0.000000 0.032265
#
#
# Mechanical properties :
#
#
# Convention : Reuss Voigt Hill
#
# Bulk Modulus (GPa) = 68.49763 68.79514 68.64638
# Shear Modulus (GPa) = 41.36249 -3.97660 18.69294
#
# Velocity S-wave (km/s) = 4.55194 -1.41140 3.06008
# Velocity P-wave (km/s) = 7.87021 5.63970 6.84640
#
# Compressibility (1/GPa) = 0.01459905
#
# Stress axis : x y z
#
# Youngs Moduli (GPa) = 89.04417 95.90835 87.37241
#
# Poissons Ratio (x) = 0.29969 0.35292
# Poissons Ratio (y) = 0.27824 0.18240
# Poissons Ratio (z) = 0.35967 0.20022
#
# Static dielectric constant tensor:
#      x y z
#    x 1.685730 0.000000 0.000000 
#    y 0.000000 1.657410 0.000000 
#    z 0.000000 0.000000 1.813100 
# 
# From -- ./inp_files/34604.got.cif
#   From: 2010.05.17/outbox.cif.g08.bks.cpg/sg58_18_cif.got.tgz:34604.got - 2010.06.03 14:20:14.
