data_PCOD9445539
_publ_section_title
;
Structure prediction by ZEFSAII (Michael W. Deem and Ramdas Pophale) SiO2 
 PCOD9445539
Probable space group: P N N M
;
_chemical_formula_sum "Si O2"
_cell_formula_units_Z 36
_cell_length_a 15.693515
_cell_length_b 6.355016
_cell_length_c 19.289927
_cell_angle_alpha 90.000000
_cell_angle_beta 90.000000
_cell_angle_gamma 90.000000
_cell_volume 1923.833395
_symmetry_space_group_name_H-M "P N N M"
_symmetry_group_IT_number 58
_symmetry_cell_setting 'orthorhombic'
loop_
_space_group_symop_operation_xyz
x,y,z
-x,-y,z
1/2+x,1/2-y,1/2-z
1/2-x,1/2+y,1/2-z
-x,-y,-z
x,y,-z
1/2-x,1/2+y,1/2+z
1/2+x,1/2-y,1/2+z
loop_
_atom_site_type_symbol
_atom_site_label
_atom_site_fract_x
_atom_site_fract_y
_atom_site_fract_z
Si Si1 0.786856 0.795343 0.176317
Si Si2 0.000000 0.500000 0.753354
Si Si3 0.165452 0.359009 0.678420
Si Si4 0.221824 0.593935 0.080368
Si Si5 0.077788 0.860064 0.854716
O O1 0.781529 0.693007 0.251664
O O2 0.804320 0.618666 0.119681
O O3 0.700870 0.914586 0.155797
O O4 0.862301 0.965335 0.181081
O O5 0.930340 0.614710 0.704888
O O6 0.956116 0.321792 0.802379
O O7 0.197163 0.193206 0.621390
O O8 0.141461 0.749913 0.091265
O O9 0.239619 0.563089 0.000000
O O10 0.000000 0.000000 0.883317
#
# Coordination Sequence:
#
# PCOD9445539 Si02
#       5
#     8   4   8   8   8
#     4  11  20  38  65  90 121 162 212 253 308 374
#     4  12  22  38  64 104 124 156 214 274 306 366
#     4  11  21  37  66  92 120 164 214 262 307 370
#     4  11  25  42  60  91 132 170 209 259 316 376
#     4  11  21  37  65  95 128 159 206 256 319 369
#
# _framework density 18.71264
#
# number of rings (size 3 to 8) (size 9 to 14) (size 15 to 20)
#    0.000    0.889    6.667    1.333    0.000    4.000 
#    0.000    4.444    0.000    1.333    0.000    0.000 
#    0.000    0.000    0.000    0.000    0.000    0.000 
#
# Total GULP energy -200773.320783 kJ/mol
# GULP energy per Si atom -5577.036688 kJ/mol
# Density = 1.867005 g / cm^3
# Si number density = 18.712640 Si / 1000 Ang^3
#
#
#
# Elastic Constant Matrix: (Units=GPa)
#
#
# Indices 1 2 3 4 5 6 
#
# 1 64.9618 27.9831 21.5146 0.0000 0.0000 0.0000
# 2 27.9831 99.6215 47.8124 0.0000 0.0000 0.0000
# 3 21.5146 47.8124 109.0938 0.0000 0.0000 0.0000
# 4 0.0000 0.0000 0.0000 8.6502 0.0000 0.0000
# 5 0.0000 0.0000 0.0000 0.0000 -14.3283 0.0000
# 6 0.0000 0.0000 0.0000 0.0000 0.0000 29.1006
#
#
#
# Elastic Compliance Matrix: (Units=1/GPa)
#
#
# Indices 1 2 3 4 5 6 
#
# 1 0.017748 -0.004186 -0.001666 0.000000 0.000000 0.000000
# 2 -0.004186 0.013699 -0.005178 0.000000 0.000000 0.000000
# 3 -0.001666 -0.005178 0.011764 0.000000 0.000000 0.000000
# 4 0.000000 0.000000 0.000000 0.115604 0.000000 0.000000
# 5 0.000000 0.000000 0.000000 0.000000 -0.069792 0.000000
# 6 0.000000 0.000000 0.000000 0.000000 0.000000 0.034364
#
#
# Mechanical properties :
#
#
# Convention : Reuss Voigt Hill
#
# Bulk Modulus (GPa) = 47.27685 52.03303 49.65494
# Shear Modulus (GPa) = 32.78725 16.44231 24.61478
#
# Velocity S-wave (km/s) = 4.19040 2.96746 3.63079
# Velocity P-wave (km/s) = 6.98084 6.29347 6.64605
#
# Compressibility (1/GPa) = 0.02115200
#
# Stress axis : x y z
#
# Youngs Moduli (GPa) = 56.34286 72.99727 85.00205
#
# Poissons Ratio (x) = 0.30557 0.14158
# Poissons Ratio (y) = 0.23585 0.44017
# Poissons Ratio (z) = 0.09384 0.37801
#
# Static dielectric constant tensor:
#      x y z
#    x 1.710900 0.000000 0.000000 
#    y 0.000000 1.696080 0.000000 
#    z 0.000000 0.000000 1.606850 
# 
# From -- ./inp_files/28012.got.cif
#   From: 2010.05.17/outbox.cif.g08.bks.cpg/sg58_15_cif.got.tgz:28012.got - 2010.06.03 14:20:14.
