data_PCOD9445666
_publ_section_title
;
Structure prediction by ZEFSAII (Michael W. Deem and Ramdas Pophale) SiO2 
 PCOD9445666
Probable space group: P N N M
;
_chemical_formula_sum "Si O2"
_cell_formula_units_Z 40
_cell_length_a 8.546219
_cell_length_b 8.091064
_cell_length_c 26.713280
_cell_angle_alpha 90.000000
_cell_angle_beta 90.000000
_cell_angle_gamma 90.000000
_cell_volume 1847.170016
_symmetry_space_group_name_H-M "P N N M"
_symmetry_group_IT_number 58
_symmetry_cell_setting 'orthorhombic'
loop_
_space_group_symop_operation_xyz
x,y,z
-x,-y,z
1/2+x,1/2-y,1/2-z
1/2-x,1/2+y,1/2-z
-x,-y,-z
x,y,-z
1/2-x,1/2+y,1/2+z
1/2+x,1/2-y,1/2+z
loop_
_atom_site_type_symbol
_atom_site_label
_atom_site_fract_x
_atom_site_fract_y
_atom_site_fract_z
Si Si1 0.184747 0.510323 0.121462
Si Si2 0.104102 0.358972 0.295232
Si Si3 0.639237 0.598314 0.218383
Si Si4 0.683388 0.142279 0.905867
Si Si5 0.672750 0.792616 0.941779
O O1 0.270337 0.502635 0.175667
O O2 0.225015 0.684373 0.094744
O O3 0.247644 0.352184 0.090532
O O4 0.000000 0.500000 0.128463
O O5 0.239668 0.318861 0.256100
O O6 0.175518 0.413421 0.347690
O O7 0.000000 0.500000 0.269932
O O8 0.970982 0.228469 0.309164
O O9 0.500000 0.500000 0.247083
O O10 0.509346 0.185556 0.925800
O O11 0.742100 0.977992 0.933911
O O12 0.680948 0.748522 0.000000
#
# Coordination Sequence:
#
# PCOD9445666 Si02
#       5
#     8   8   8   8   8
#     4  12  26  45  70 103 150 188 234 294 360 430
#     4  12  23  40  66  97 139 184 232 291 348 413
#     4  12  24  43  64 100 139 186 237 288 352 429
#     4  11  22  46  70 103 139 181 241 301 348 427
#     4  11  24  47  78 104 135 185 243 302 366 423
#
# _framework density 21.654747
#
# number of rings (size 3 to 8) (size 9 to 14) (size 15 to 20)
#    0.000    0.400    6.000    3.600    2.800    3.600 
#    0.000    1.000    0.000    0.000    0.000    0.000 
#    0.000    0.000    0.000    0.000    0.000    0.000 
#
# Total GULP energy -223225.569312 kJ/mol
# GULP energy per Si atom -5580.639233 kJ/mol
# Density = 2.160546 g / cm^3
# Si number density = 21.654747 Si / 1000 Ang^3
#
#
#
# Elastic Constant Matrix: (Units=GPa)
#
#
# Indices 1 2 3 4 5 6 
#
# 1 122.1769 60.9283 38.6598 0.0000 0.0000 0.0000
# 2 60.9283 120.0548 15.9260 0.0000 0.0000 0.0000
# 3 38.6598 15.9260 110.6794 0.0000 0.0000 0.0000
# 4 0.0000 0.0000 0.0000 27.8776 0.0000 0.0000
# 5 0.0000 0.0000 0.0000 0.0000 7.1335 0.0000
# 6 0.0000 0.0000 0.0000 0.0000 0.0000 20.3167
#
#
#
# Elastic Compliance Matrix: (Units=1/GPa)
#
#
# Indices 1 2 3 4 5 6 
#
# 1 0.012100 -0.005689 -0.003408 0.000000 0.000000 0.000000
# 2 -0.005689 0.011166 0.000380 0.000000 0.000000 0.000000
# 3 -0.003408 0.000380 0.010171 0.000000 0.000000 0.000000
# 4 0.000000 0.000000 0.000000 0.035871 0.000000 0.000000
# 5 0.000000 0.000000 0.000000 0.000000 0.140184 0.000000
# 6 0.000000 0.000000 0.000000 0.000000 0.000000 0.049221
#
#
# Mechanical properties :
#
#
# Convention : Reuss Voigt Hill
#
# Bulk Modulus (GPa) = 62.48337 64.88214 63.68275
# Shear Modulus (GPa) = 17.76321 26.89203 22.32762
#
# Velocity S-wave (km/s) = 2.86718 3.52782 3.21452
# Velocity P-wave (km/s) = 6.31490 6.82797 6.57644
#
# Compressibility (1/GPa) = 0.01600426
#
# Stress axis : x y z
#
# Youngs Moduli (GPa) = 82.64362 89.55630 98.32114
#
# Poissons Ratio (x) = 0.50947 0.33507
# Poissons Ratio (y) = 0.47014 -0.03739
# Poissons Ratio (z) = 0.28164 -0.03406
#
# Static dielectric constant tensor:
#      x y z
#    x 1.775980 0.000000 0.000000 
#    y 0.000000 1.979970 0.000000 
#    z 0.000000 0.000000 1.711030 
# 
# From -- ./inp_files/33132.got.cif
#   From: 2010.05.17/outbox.cif.g08.bks.cpg/sg58_17_cif.got.tgz:33132.got - 2010.06.03 14:20:14.
