data_PCOD9445450
_publ_section_title
;
Structure prediction by ZEFSAII (Michael W. Deem and Ramdas Pophale) SiO2 
 PCOD9445450
Probable space group: P N N M
;
_chemical_formula_sum "Si O2"
_cell_formula_units_Z 52
_cell_length_a 5.167228
_cell_length_b 22.121920
_cell_length_c 20.550888
_cell_angle_alpha 90.000000
_cell_angle_beta 90.000000
_cell_angle_gamma 90.000000
_cell_volume 2349.151548
_symmetry_space_group_name_H-M "P N N M"
_symmetry_group_IT_number 58
_symmetry_cell_setting 'orthorhombic'
loop_
_space_group_symop_operation_xyz
x,y,z
-x,-y,z
1/2+x,1/2-y,1/2-z
1/2-x,1/2+y,1/2-z
-x,-y,-z
x,y,-z
1/2-x,1/2+y,1/2+z
1/2+x,1/2-y,1/2+z
loop_
_atom_site_type_symbol
_atom_site_label
_atom_site_fract_x
_atom_site_fract_y
_atom_site_fract_z
Si Si1 0.067336 0.567340 0.909926
Si Si2 0.586643 0.069641 0.076634
Si Si3 0.326164 0.338978 0.881642
Si Si4 0.381334 0.565809 0.206659
Si Si5 0.957090 0.757267 0.794003
Si Si6 0.928622 0.859225 0.500000
Si Si7 0.096496 0.110616 0.849814
O O1 0.113041 0.569024 0.832560
O O2 0.000000 0.500000 0.928734
O O3 0.845778 0.615064 0.925933
O O4 0.321467 0.591763 0.944435
O O5 0.359357 0.108755 0.109127
O O6 0.859285 0.081694 0.111105
O O7 0.500000 0.000000 0.085290
O O8 0.608676 0.081562 0.000000
O O9 0.455099 0.379009 0.824512
O O10 0.141594 0.291428 0.846433
O O11 0.506150 0.312827 0.938895
O O12 0.500000 0.500000 0.190550
O O13 0.356918 0.574140 0.282907
O O14 0.728869 0.759785 0.739521
O O15 0.976273 0.821954 0.828001
#
# Coordination Sequence:
#
# PCOD9445450 Si02
#       7
#     8   8   8   8   8   4   8
#     4  11  22  38  65  93 135 178 230 292 350 412
#     4  11  25  48  74 107 148 183 227 296 376 449
#     4  11  24  44  62  93 134 180 231 283 347 408
#     4  11  22  38  63  99 133 166 229 293 353 411
#     4  12  26  48  73  99 142 188 236 298 357 424
#     4  10  25  41  61  97 129 188 232 280 344 411
#     4  12  25  44  73 109 138 188 240 287 364 443
#
# _framework density 22.135653000000001
#
# number of rings (size 3 to 8) (size 9 to 14) (size 15 to 20)
#    0.000    0.769    3.077    4.385    4.308    2.462 
#    2.769    0.000    0.000    0.000    0.000    0.000 
#    0.000    0.000    0.000    0.000    0.000    0.000 
#
# Total GULP energy -289826.707114 kJ/mol
# GULP energy per Si atom -5573.590521 kJ/mol
# Density = 2.208527 g / cm^3
# Si number density = 22.135653 Si / 1000 Ang^3
#
#
#
# Elastic Constant Matrix: (Units=GPa)
#
#
# Indices 1 2 3 4 5 6 
#
# 1 67.4791 -3.5533 30.1478 0.0000 0.0000 0.0000
# 2 -3.5533 42.9237 10.6501 0.0000 0.0000 0.0000
# 3 30.1478 10.6501 145.5074 0.0000 0.0000 0.0000
# 4 0.0000 0.0000 0.0000 1.8999 0.0000 0.0000
# 5 0.0000 0.0000 0.0000 0.0000 -596.7952 0.0000
# 6 0.0000 0.0000 0.0000 0.0000 0.0000 29.6533
#
#
#
# Elastic Compliance Matrix: (Units=1/GPa)
#
#
# Indices 1 2 3 4 5 6 
#
# 1 0.016544 0.002261 -0.003593 0.000000 0.000000 0.000000
# 2 0.002261 0.024037 -0.002228 0.000000 0.000000 0.000000
# 3 -0.003593 -0.002228 0.007780 0.000000 0.000000 0.000000
# 4 0.000000 0.000000 0.000000 0.526343 0.000000 0.000000
# 5 0.000000 0.000000 0.000000 0.000000 -0.001676 0.000000
# 6 0.000000 0.000000 0.000000 0.000000 0.000000 0.033723
#
#
# Mechanical properties :
#
#
# Convention : Reuss Voigt Hill
#
# Bulk Modulus (GPa) = 24.24773 36.71104 30.47939
# Shear Modulus (GPa) = 7.96663 -98.47070 -45.25204
#
# Velocity S-wave (km/s) = 1.89916 -6.67695 -4.52630
# Velocity P-wave (km/s) = 3.97329 6.54383 3.67659
#
# Compressibility (1/GPa) = 0.04124097
#
# Stress axis : x y z
#
# Youngs Moduli (GPa) = 60.44557 41.60242 128.53396
#
# Poissons Ratio (x) = -0.09407 0.46185
# Poissons Ratio (y) = -0.13667 0.28635
# Poissons Ratio (z) = 0.21719 0.09268
#
# Static dielectric constant tensor:
#      x y z
#    x 1.988810 0.000000 0.000000 
#    y 0.000000 1.819700 0.000000 
#    z 0.000000 0.000000 1.804750 
# 
# From -- ./inp_files/28184.got.cif
#   From: 2010.05.17/outbox.cif.g08.bks.cpg/sg58_15_cif.got.tgz:28184.got - 2010.06.03 14:20:14.
