data_PCOD9445335
_publ_section_title
;
Structure prediction by ZEFSAII (Michael W. Deem and Ramdas Pophale) SiO2 
 PCOD9445335
Probable space group: P N N M
;
_chemical_formula_sum "Si O2"
_cell_formula_units_Z 32
_cell_length_a 6.665641
_cell_length_b 16.189839
_cell_length_c 13.353097
_cell_angle_alpha 90.000000
_cell_angle_beta 90.000000
_cell_angle_gamma 90.000000
_cell_volume 1441.008204
_symmetry_space_group_name_H-M "P N N M"
_symmetry_group_IT_number 58
_symmetry_cell_setting 'orthorhombic'
loop_
_space_group_symop_operation_xyz
x,y,z
-x,-y,z
1/2+x,1/2-y,1/2-z
1/2-x,1/2+y,1/2-z
-x,-y,-z
x,y,-z
1/2-x,1/2+y,1/2+z
1/2+x,1/2-y,1/2+z
loop_
_atom_site_type_symbol
_atom_site_label
_atom_site_fract_x
_atom_site_fract_y
_atom_site_fract_z
Si Si1 0.654716 0.717246 0.613838
Si Si2 0.527319 0.132096 0.739796
Si Si3 0.110179 0.911989 0.610947
Si Si4 0.391923 0.588635 0.698459
O O1 0.709746 0.737738 0.500000
O O2 0.572849 0.795759 0.673894
O O3 0.833504 0.672774 0.674793
O O4 0.472053 0.651036 0.615920
O O5 0.672188 0.083471 0.662567
O O6 0.345386 0.082741 0.790436
O O7 0.121218 0.874754 0.500000
O O8 0.975190 0.871065 0.696914
O O9 0.000000 0.000000 0.601078
O O10 0.500000 0.500000 0.686641
#
# Coordination Sequence:
#
# PCOD9445335 Si02
#       4
#     8   8   8   8
#     4  11  24  42  69 101 134 180 227 279 343 401
#     4  11  22  44  65  99 137 178 226 282 334 406
#     4   9  20  37  62  96 133 174 217 269 333 395
#     4  10  23  43  65  94 137 178 224 282 338 404
#
# _framework density 22.206675000000001
#
# number of rings (size 3 to 8) (size 9 to 14) (size 15 to 20)
#    0.000    1.750    2.500    0.750    0.000   12.500 
#    0.000    7.500    0.000    0.000    0.000    0.000 
#    0.000    0.000    0.000    0.000    0.000    0.000 
#
# Total GULP energy -178613.189447 kJ/mol
# GULP energy per Si atom -5581.662170 kJ/mol
# Density = 2.215613 g / cm^3
# Si number density = 22.206675 Si / 1000 Ang^3
#
#
#
# Elastic Constant Matrix: (Units=GPa)
#
#
# Indices 1 2 3 4 5 6 
#
# 1 180.2174 49.6773 31.4761 0.0000 0.0000 0.0000
# 2 49.6773 82.8548 6.5617 0.0000 0.0000 0.0000
# 3 31.4761 6.5617 121.4423 0.0000 0.0000 0.0000
# 4 0.0000 0.0000 0.0000 34.9464 0.0000 0.0000
# 5 0.0000 0.0000 0.0000 0.0000 -0.3416 0.0000
# 6 0.0000 0.0000 0.0000 0.0000 0.0000 43.3052
#
#
#
# Elastic Compliance Matrix: (Units=1/GPa)
#
#
# Indices 1 2 3 4 5 6 
#
# 1 0.006937 -0.004034 -0.001580 0.000000 0.000000 0.000000
# 2 -0.004034 0.014467 0.000264 0.000000 0.000000 0.000000
# 3 -0.001580 0.000264 0.008630 0.000000 0.000000 0.000000
# 4 0.000000 0.000000 0.000000 0.028615 0.000000 0.000000
# 5 0.000000 0.000000 0.000000 0.000000 -2.926991 0.000000
# 6 0.000000 0.000000 0.000000 0.000000 0.000000 0.023092
#
#
# Mechanical properties :
#
#
# Convention : Reuss Voigt Hill
#
# Bulk Modulus (GPa) = 51.72410 62.21608 56.97009
# Shear Modulus (GPa) = -1.76797 35.36863 16.80033
#
# Velocity S-wave (km/s) = -0.89324 3.99520 2.75352
# Velocity P-wave (km/s) = 4.72005 7.02565 5.98493
#
# Compressibility (1/GPa) = 0.01933335
#
# Stress axis : x y z
#
# Youngs Moduli (GPa) = 144.15931 69.12256 115.88017
#
# Poissons Ratio (x) = 0.27884 0.18308
# Poissons Ratio (y) = 0.58153 -0.03058
# Poissons Ratio (z) = 0.22776 -0.01824
#
# Static dielectric constant tensor:
#      x y z
#    x 1.848240 0.000000 0.000000 
#    y 0.000000 1.864130 0.000000 
#    z 0.000000 0.000000 1.863860 
# 
# From -- ./inp_files/18268.got.cif
#   From: 2010.05.17/outbox.cif.g08.bks.cpg/sg58_10_cif.got.tgz:18268.got - 2010.06.03 14:20:14.
