data_PCOD9445056
_publ_section_title
;
Structure prediction by ZEFSAII (Michael W. Deem and Ramdas Pophale) SiO2 
 PCOD9445056
Probable space group: P N N M
;
_chemical_formula_sum "Si O2"
_cell_formula_units_Z 52
_cell_length_a 13.914141
_cell_length_b 18.605138
_cell_length_c 8.183717
_cell_angle_alpha 90.000000
_cell_angle_beta 90.000000
_cell_angle_gamma 90.000000
_cell_volume 2118.555757
_symmetry_space_group_name_H-M "P N N M"
_symmetry_group_IT_number 58
_symmetry_cell_setting 'orthorhombic'
loop_
_space_group_symop_operation_xyz
x,y,z
-x,-y,z
1/2+x,1/2-y,1/2-z
1/2-x,1/2+y,1/2-z
-x,-y,-z
x,y,-z
1/2-x,1/2+y,1/2+z
1/2+x,1/2-y,1/2+z
loop_
_atom_site_type_symbol
_atom_site_label
_atom_site_fract_x
_atom_site_fract_y
_atom_site_fract_z
Si Si1 0.676693 0.769170 0.182800
Si Si2 0.554081 0.650732 0.322861
Si Si3 0.625114 0.272204 0.813225
Si Si4 0.620346 0.510720 0.500000
Si Si5 0.738511 0.489451 0.809782
Si Si6 0.078789 0.585812 0.685735
Si Si7 0.376090 0.890148 0.691778
O O1 0.630001 0.691406 0.209713
O O2 0.763147 0.791896 0.299629
O O3 0.593454 0.828011 0.196937
O O4 0.717279 0.772741 0.000000
O O5 0.571930 0.686434 0.500000
O O6 0.447880 0.672497 0.268780
O O7 0.569499 0.566719 0.360692
O O8 0.624278 0.193188 0.735125
O O9 0.595272 0.265848 0.000000
O O10 0.674525 0.468768 0.652057
O O11 0.839774 0.446983 0.800798
O O12 0.777242 0.569942 0.764077
O O13 0.702426 0.486603 0.000000
O O14 0.100668 0.563968 0.500000
O O15 0.967498 0.573669 0.723067
O O16 0.388893 0.898996 0.500000
#
# Coordination Sequence:
#
# PCOD9445056 Si02
#       7
#     8   8   8   4   8   8   8
#     4  11  23  39  62  95 128 171 215 271 333 392
#     4  10  22  40  62  89 126 166 209 268 322 388
#     4  12  24  38  63  93 131 171 216 266 334 396
#     4  10  24  42  67  89 130 169 218 267 329 380
#     4  11  24  41  64  96 129 178 226 269 323 397
#     4  11  23  39  63  92 132 172 218 272 332 393
#     4  11  23  37  59  92 131 174 216 269 327 399
#
# _framework density 24.545021999999999
#
# number of rings (size 3 to 8) (size 9 to 14) (size 15 to 20)
#    0.462    0.615    2.308    4.615    4.308    6.154 
#    0.000    0.000    0.000    1.846    0.000    2.154 
#    0.000    0.000    0.000    0.000    0.000    0.000 
#
# Total GULP energy -289662.692090 kJ/mol
# GULP energy per Si atom -5570.436386 kJ/mol
# Density = 2.448916 g / cm^3
# Si number density = 24.545022 Si / 1000 Ang^3
#
#
#
# Elastic Constant Matrix: (Units=GPa)
#
#
# Indices 1 2 3 4 5 6 
#
# 1 51.8741 10.9587 10.8143 0.0000 0.0000 0.0000
# 2 10.9587 66.5110 14.7622 0.0000 0.0000 0.0000
# 3 10.8143 14.7622 76.2925 0.0000 0.0000 0.0000
# 4 0.0000 0.0000 0.0000 48.5318 0.0000 0.0000
# 5 0.0000 0.0000 0.0000 0.0000 168.4138 0.0000
# 6 0.0000 0.0000 0.0000 0.0000 0.0000 52.7755
#
#
#
# Elastic Compliance Matrix: (Units=1/GPa)
#
#
# Indices 1 2 3 4 5 6 
#
# 1 0.020364 -0.002836 -0.002338 0.000000 0.000000 0.000000
# 2 -0.002836 0.016105 -0.002714 0.000000 0.000000 0.000000
# 3 -0.002338 -0.002714 0.013964 0.000000 0.000000 0.000000
# 4 0.000000 0.000000 0.000000 0.020605 0.000000 0.000000
# 5 0.000000 0.000000 0.000000 0.000000 0.005938 0.000000
# 6 0.000000 0.000000 0.000000 0.000000 0.000000 0.018948
#
#
# Mechanical properties :
#
#
# Convention : Reuss Voigt Hill
#
# Bulk Modulus (GPa) = 28.85482 29.74979 29.30230
# Shear Modulus (GPa) = 40.56715 64.48706 52.52711
#
# Velocity S-wave (km/s) = 4.06983 5.13128 4.63107
# Velocity P-wave (km/s) = 5.81946 6.87412 6.36866
#
# Compressibility (1/GPa) = 0.03465625
#
# Stress axis : x y z
#
# Youngs Moduli (GPa) = 49.10631 62.09310 71.61280
#
# Poissons Ratio (x) = 0.17612 0.16741
# Poissons Ratio (y) = 0.13929 0.19437
# Poissons Ratio (z) = 0.11480 0.16853
#
# Static dielectric constant tensor:
#      x y z
#    x 2.124360 0.000000 0.000000 
#    y 0.000000 1.991370 0.000000 
#    z 0.000000 0.000000 1.902350 
# 
# From -- ./inp_files/6190.got.cif
#   From: 2010.05.17/outbox.cif.g08.bks.cpg/sg58_4_cif.got.tgz:6190.got - 2010.06.03 14:20:14.
