data_PCOD9445786
_publ_section_title
;
Structure prediction by ZEFSAII (Michael W. Deem and Ramdas Pophale) SiO2 
 PCOD9445786
Probable space group: P N N M
;
_chemical_formula_sum "Si O2"
_cell_formula_units_Z 34
_cell_length_a 6.814873
_cell_length_b 7.364619
_cell_length_c 24.239630
_cell_angle_alpha 90.000000
_cell_angle_beta 90.000000
_cell_angle_gamma 90.000000
_cell_volume 1216.561413
_symmetry_space_group_name_H-M "P N N M"
_symmetry_group_IT_number 58
_symmetry_cell_setting 'orthorhombic'
loop_
_space_group_symop_operation_xyz
x,y,z
-x,-y,z
1/2+x,1/2-y,1/2-z
1/2-x,1/2+y,1/2-z
-x,-y,-z
x,y,-z
1/2-x,1/2+y,1/2+z
1/2+x,1/2-y,1/2+z
loop_
_atom_site_type_symbol
_atom_site_label
_atom_site_fract_x
_atom_site_fract_y
_atom_site_fract_z
Si Si1 0.500000 0.500000 0.000000
Si Si2 0.327658 0.647813 0.680307
Si Si3 0.264315 0.541682 0.798126
Si Si4 0.730925 0.955029 0.940460
Si Si5 0.174149 0.648207 0.083963
O O1 0.649244 0.425422 0.952088
O O2 0.500000 0.500000 0.680837
O O3 0.210364 0.603834 0.736491
O O4 0.248621 0.642961 0.618042
O O5 0.356345 0.859997 0.689762
O O6 0.500000 0.500000 0.797516
O O7 0.236014 0.666933 0.851738
O O8 0.853419 0.143855 0.936320
O O9 0.500000 0.000000 0.942751
O O10 0.766787 0.859543 0.000000
O O11 0.000000 0.500000 0.077669
#
# Coordination Sequence:
#
# PCOD9445786 Si02
#       5
#     2   8   8   8   8
#     4  12  26  44  74 104 156 188 256 314 380 470
#     4  11  25  46  73 108 145 193 253 316 385 458
#     4  11  24  46  75 108 150 195 251 320 388 454
#     4  11  25  44  67 104 151 196 248 314 388 452
#     4  12  25  46  75 108 145 201 253 313 386 463
#
# _framework density 27.947624000000001
#
# number of rings (size 3 to 8) (size 9 to 14) (size 15 to 20)
#    0.000    0.706    2.353    4.588    0.000    5.176 
#    0.000    0.000    0.000    0.000    0.000    0.000 
#    0.000    0.000    0.000    0.000    0.000    0.000 
#
# Total GULP energy -190066.777146 kJ/mol
# GULP energy per Si atom -5590.199328 kJ/mol
# Density = 2.788401 g / cm^3
# Si number density = 27.947624 Si / 1000 Ang^3
#
#
#
# Elastic Constant Matrix: (Units=GPa)
#
#
# Indices 1 2 3 4 5 6 
#
# 1 81.5989 25.3831 53.0992 0.0000 0.0000 0.0000
# 2 25.3831 139.2508 70.0822 0.0000 0.0000 0.0000
# 3 53.0992 70.0822 352.7132 0.0000 0.0000 0.0000
# 4 0.0000 0.0000 0.0000 40.7983 0.0000 0.0000
# 5 0.0000 0.0000 0.0000 0.0000 41.4499 0.0000
# 6 0.0000 0.0000 0.0000 0.0000 0.0000 30.6410
#
#
#
# Elastic Compliance Matrix: (Units=1/GPa)
#
#
# Indices 1 2 3 4 5 6 
#
# 1 0.013918 -0.001647 -0.001768 0.000000 0.000000 0.000000
# 2 -0.001647 0.008174 -0.001376 0.000000 0.000000 0.000000
# 3 -0.001768 -0.001376 0.003375 0.000000 0.000000 0.000000
# 4 0.000000 0.000000 0.000000 0.024511 0.000000 0.000000
# 5 0.000000 0.000000 0.000000 0.000000 0.024126 0.000000
# 6 0.000000 0.000000 0.000000 0.000000 0.000000 0.032636
#
#
# Mechanical properties :
#
#
# Convention : Reuss Voigt Hill
#
# Bulk Modulus (GPa) = 62.95601 96.74354 79.84978
# Shear Modulus (GPa) = 41.11279 50.91108 46.01194
#
# Velocity S-wave (km/s) = 3.83961 4.27272 4.06194
# Velocity P-wave (km/s) = 6.49862 7.68327 7.11565
#
# Compressibility (1/GPa) = 0.01588411
#
# Stress axis : x y z
#
# Youngs Moduli (GPa) = 71.84960 122.33690 296.31699
#
# Poissons Ratio (x) = 0.20152 0.52388
# Poissons Ratio (y) = 0.11835 0.40778
# Poissons Ratio (z) = 0.12703 0.16836
#
# Static dielectric constant tensor:
#      x y z
#    x 2.374890 0.000000 0.000000 
#    y 0.000000 2.149110 0.000000 
#    z 0.000000 0.000000 2.097690 
# 
# From -- ./inp_files/28539.got.cif
#   From: 2010.05.17/outbox.cif.g08.bks.cpg/sg58_15_cif.got.tgz:28539.got - 2010.06.03 14:20:14.
