data_PCOD9445169
_publ_section_title
;
Structure prediction by ZEFSAII (Michael W. Deem and Ramdas Pophale) SiO2 
 PCOD9445169
Probable space group: P N N M
;
_chemical_formula_sum "Si O2"
_cell_formula_units_Z 40
_cell_length_a 18.830005
_cell_length_b 12.663553
_cell_length_c 8.964826
_cell_angle_alpha 90.000000
_cell_angle_beta 90.000000
_cell_angle_gamma 90.000000
_cell_volume 2137.705489
_symmetry_space_group_name_H-M "P N N M"
_symmetry_group_IT_number 58
_symmetry_cell_setting 'orthorhombic'
loop_
_space_group_symop_operation_xyz
x,y,z
-x,-y,z
1/2+x,1/2-y,1/2-z
1/2-x,1/2+y,1/2-z
-x,-y,-z
x,y,-z
1/2-x,1/2+y,1/2+z
1/2+x,1/2-y,1/2+z
loop_
_atom_site_type_symbol
_atom_site_label
_atom_site_fract_x
_atom_site_fract_y
_atom_site_fract_z
Si Si1 0.812209 0.101612 0.321088
Si Si2 0.150104 0.455495 0.178052
Si Si3 0.449852 0.780842 0.178041
Si Si4 0.924769 0.944171 0.178264
Si Si5 0.115879 0.678532 0.678470
O O1 0.821902 0.090767 0.500000
O O2 0.729955 0.082328 0.286496
O O3 0.837830 0.219174 0.280071
O O4 0.862031 0.016748 0.240897
O O5 0.094157 0.377820 0.255406
O O6 0.139050 0.573743 0.236725
O O7 0.140685 0.451553 0.000000
O O8 0.424339 0.671340 0.249562
O O9 0.533446 0.796163 0.210277
O O10 0.441171 0.776941 0.000000
O O11 0.919507 0.935399 0.000000
O O12 0.000000 0.000000 0.215200
O O13 0.122694 0.661565 0.500000
#
# Coordination Sequence:
#
# PCOD9445169 Si02
#       5
#     8   8   8   8   8
#     4  10  23  43  63  89 126 168 207 249 309 373
#     4  11  25  41  62  94 129 163 205 259 314 363
#     4  11  23  41  67  92 121 166 212 252 308 373
#     4  11  23  39  63  95 126 158 203 259 312 359
#     4  10  22  42  65  88 122 167 211 253 303 371
#
# _framework density 18.711652000000001
#
# number of rings (size 3 to 8) (size 9 to 14) (size 15 to 20)
#    0.000    1.400    2.000    2.400    2.800    7.200 
#    0.000    0.000    0.000    0.000    0.000    0.000 
#    0.000    0.000    0.000    0.000    0.000    0.000 
#
# Total GULP energy -223712.347089 kJ/mol
# GULP energy per Si atom -5592.808677 kJ/mol
# Density = 1.866906 g / cm^3
# Si number density = 18.711652 Si / 1000 Ang^3
#
#
#
# Elastic Constant Matrix: (Units=GPa)
#
#
# Indices 1 2 3 4 5 6 
#
# 1 50.9641 58.8169 34.7702 0.0000 0.0000 0.0000
# 2 58.8169 170.5721 52.7942 0.0000 0.0000 0.0000
# 3 34.7702 52.7942 35.4287 0.0000 0.0000 0.0000
# 4 0.0000 0.0000 0.0000 35.2147 0.0000 0.0000
# 5 0.0000 0.0000 0.0000 0.0000 23.2196 0.0000
# 6 0.0000 0.0000 0.0000 0.0000 0.0000 25.3473
#
#
#
# Elastic Compliance Matrix: (Units=1/GPa)
#
#
# Indices 1 2 3 4 5 6 
#
# 1 0.061326 -0.004674 -0.053221 0.000000 0.000000 0.000000
# 2 -0.004674 0.011238 -0.012159 0.000000 0.000000 0.000000
# 3 -0.053221 -0.012159 0.098576 0.000000 0.000000 0.000000
# 4 0.000000 0.000000 0.000000 0.028397 0.000000 0.000000
# 5 0.000000 0.000000 0.000000 0.000000 0.043067 0.000000
# 6 0.000000 0.000000 0.000000 0.000000 0.000000 0.039452
#
#
# Mechanical properties :
#
#
# Convention : Reuss Voigt Hill
#
# Bulk Modulus (GPa) = 32.22491 61.08083 46.65287
# Shear Modulus (GPa) = 11.56049 24.12857 17.84453
#
# Velocity S-wave (km/s) = 2.48830 3.59485 3.09149
# Velocity P-wave (km/s) = 5.05121 7.06715 6.14245
#
# Compressibility (1/GPa) = 0.03103190
#
# Stress axis : x y z
#
# Youngs Moduli (GPa) = 16.30634 88.98766 10.14441
#
# Poissons Ratio (x) = 0.41591 0.53990
# Poissons Ratio (y) = 0.07621 0.12334
# Poissons Ratio (z) = 0.86785 1.08198
#
# Static dielectric constant tensor:
#      x y z
#    x 1.624750 0.000000 0.000000 
#    y 0.000000 1.605730 0.000000 
#    z 0.000000 0.000000 1.625180 
# 
# From -- ./inp_files/3772.got.cif
#   From: 2010.05.17/outbox.cif.g08.bks.cpg/sg58_2_cif.got.tgz:3772.got - 2010.06.03 14:20:14.
