data_PCOD9445436
_publ_section_title
;
Structure prediction by ZEFSAII (Michael W. Deem and Ramdas Pophale) SiO2 
 PCOD9445436
Probable space group: P N N M
;
_chemical_formula_sum "Si O2"
_cell_formula_units_Z 36
_cell_length_a 15.187611
_cell_length_b 5.010559
_cell_length_c 19.890602
_cell_angle_alpha 90.000000
_cell_angle_beta 90.000000
_cell_angle_gamma 90.000000
_cell_volume 1513.643405
_symmetry_space_group_name_H-M "P N N M"
_symmetry_group_IT_number 58
_symmetry_cell_setting 'orthorhombic'
loop_
_space_group_symop_operation_xyz
x,y,z
-x,-y,z
1/2+x,1/2-y,1/2-z
1/2-x,1/2+y,1/2-z
-x,-y,-z
x,y,-z
1/2-x,1/2+y,1/2+z
1/2+x,1/2-y,1/2+z
loop_
_atom_site_type_symbol
_atom_site_label
_atom_site_fract_x
_atom_site_fract_y
_atom_site_fract_z
Si Si1 0.098550 0.374212 0.924882
Si Si2 0.433887 0.740956 0.000000
Si Si3 0.058229 0.240561 0.783413
Si Si4 0.760857 0.702110 0.573933
Si Si5 0.781057 0.498672 0.715758
O O1 0.094810 0.187467 0.858974
O O2 0.182052 0.579528 0.915842
O O3 0.000000 0.500000 0.926289
O O4 0.106210 0.258582 0.000000
O O5 0.500000 0.500000 0.000000
O O6 0.363204 0.710511 0.938180
O O7 0.500000 0.000000 0.000000
O O8 0.132579 0.334961 0.733377
O O9 0.000000 0.500000 0.791335
O O10 0.000000 0.000000 0.759308
O O11 0.743958 0.581159 0.500000
O O12 0.765033 0.507420 0.636876
O O13 0.786834 0.204042 0.747172
#
# Coordination Sequence:
#
# PCOD9445436 Si02
#       5
#     8   4   8   8   8
#     4   9  18  39  68 100 140 179 228 280 347 429
#     4  10  24  46  71 102 137 182 244 300 348 416
#     4  11  24  42  66  99 139 181 230 292 355 420
#     4   9  22  45  71 103 140 189 235 294 358 422
#     4  12  25  44  70 103 140 185 237 293 356 426
#
# _framework density 23.783674000000001
#
# number of rings (size 3 to 8) (size 9 to 14) (size 15 to 20)
#    0.667    1.111    2.222    1.333    3.111    4.000 
#    0.000    1.111    0.000    0.000    0.000    0.000 
#    0.000    0.000    0.000    0.000    0.000    0.000 
#
# Total GULP energy -200553.163445 kJ/mol
# GULP energy per Si atom -5570.921207 kJ/mol
# Density = 2.372954 g / cm^3
# Si number density = 23.783674 Si / 1000 Ang^3
#
#
#
# Elastic Constant Matrix: (Units=GPa)
#
#
# Indices 1 2 3 4 5 6 
#
# 1 191.6593 46.1133 -4.4944 0.0000 0.0000 0.0000
# 2 46.1133 84.7212 -0.8586 0.0000 0.0000 0.0000
# 3 -4.4944 -0.8586 94.9359 0.0000 0.0000 0.0000
# 4 0.0000 0.0000 0.0000 74.7074 0.0000 0.0000
# 5 0.0000 0.0000 0.0000 0.0000 -1.6947 0.0000
# 6 0.0000 0.0000 0.0000 0.0000 0.0000 55.0391
#
#
#
# Elastic Compliance Matrix: (Units=1/GPa)
#
#
# Indices 1 2 3 4 5 6 
#
# 1 0.006010 -0.003269 0.000255 0.000000 0.000000 0.000000
# 2 -0.003269 0.013582 -0.000032 0.000000 0.000000 0.000000
# 3 0.000255 -0.000032 0.010545 0.000000 0.000000 0.000000
# 4 0.000000 0.000000 0.000000 0.013386 0.000000 0.000000
# 5 0.000000 0.000000 0.000000 0.000000 -0.590059 0.000000
# 6 0.000000 0.000000 0.000000 0.000000 0.000000 0.018169
#
#
# Mechanical properties :
#
#
# Convention : Reuss Voigt Hill
#
# Bulk Modulus (GPa) = 41.58651 50.31522 45.95086
# Shear Modulus (GPa) = -9.72269 47.64742 18.96237
#
# Velocity S-wave (km/s) = -2.02407 4.48075 2.82669
# Velocity P-wave (km/s) = 3.47287 6.92610 5.47867
#
# Compressibility (1/GPa) = 0.02404626
#
# Stress axis : x y z
#
# Youngs Moduli (GPa) = 166.38918 73.62575 94.82985
#
# Poissons Ratio (x) = 0.24066 -0.02418
# Poissons Ratio (y) = 0.54387 0.00303
# Poissons Ratio (z) = -0.04242 0.00235
#
# Static dielectric constant tensor:
#      x y z
#    x 1.949750 0.000000 0.000000 
#    y 0.000000 1.930290 0.000000 
#    z 0.000000 0.000000 1.908280 
# 
# From -- ./inp_files/29840.got.cif
#   From: 2010.05.17/outbox.cif.g08.bks.cpg/sg58_15_cif.got.tgz:29840.got - 2010.06.03 14:20:14.
