data_PCOD9445415
_publ_section_title
;
Structure prediction by ZEFSAII (Michael W. Deem and Ramdas Pophale) SiO2 
 PCOD9445415
Probable space group: P N N M
;
_chemical_formula_sum "Si O2"
_cell_formula_units_Z 36
_cell_length_a 6.535449
_cell_length_b 12.803591
_cell_length_c 22.131008
_cell_angle_alpha 90.000000
_cell_angle_beta 90.000000
_cell_angle_gamma 90.000000
_cell_volume 1851.861137
_symmetry_space_group_name_H-M "P N N M"
_symmetry_group_IT_number 58
_symmetry_cell_setting 'orthorhombic'
loop_
_space_group_symop_operation_xyz
x,y,z
-x,-y,z
1/2+x,1/2-y,1/2-z
1/2-x,1/2+y,1/2-z
-x,-y,-z
x,y,-z
1/2-x,1/2+y,1/2+z
1/2+x,1/2-y,1/2+z
loop_
_atom_site_type_symbol
_atom_site_label
_atom_site_fract_x
_atom_site_fract_y
_atom_site_fract_z
Si Si1 0.509147 0.875166 0.069677
Si Si2 0.287268 0.201128 0.390632
Si Si3 0.518631 0.376376 0.220302
Si Si4 0.252304 0.544270 0.000000
Si Si5 0.811436 0.768960 0.836240
O O1 0.303192 0.811417 0.085792
O O2 0.665981 0.832295 0.119057
O O3 0.500000 0.000000 0.074474
O O4 0.564772 0.849738 0.000000
O O5 0.181581 0.167525 0.327989
O O6 0.244525 0.114064 0.440185
O O7 0.524386 0.212473 0.377745
O O8 0.500000 0.500000 0.214727
O O9 0.312070 0.317183 0.201634
O O10 0.581902 0.343840 0.287591
O O11 0.500000 0.500000 0.000000
O O12 0.000000 0.500000 0.000000
#
# Coordination Sequence:
#
# PCOD9445415 Si02
#       5
#     8   8   8   4   8
#     4  10  24  44  68  97 137 179 231 292 359 431
#     4  11  25  45  68 101 139 183 234 299 354 438
#     4  11  25  44  67  95 139 178 234 288 363 425
#     4  12  30  48  77 109 145 197 248 304 374 437
#     4  11  25  43  67  99 135 180 232 294 352 439
#
# _framework density 19.439902
#
# number of rings (size 3 to 8) (size 9 to 14) (size 15 to 20)
#    0.000    1.111    3.333    0.667   14.000    0.000 
#    0.000    2.222    0.000    0.000    0.000    0.000 
#    0.000    0.000    0.000    0.000    0.000    0.000 
#
# Total GULP energy -200679.413870 kJ/mol
# GULP energy per Si atom -5574.428163 kJ/mol
# Density = 1.939566 g / cm^3
# Si number density = 19.439902 Si / 1000 Ang^3
#
#
#
# Elastic Constant Matrix: (Units=GPa)
#
#
# Indices 1 2 3 4 5 6 
#
# 1 101.3290 36.6125 32.1230 0.0000 0.0000 0.0000
# 2 36.6125 101.9389 26.9623 0.0000 0.0000 0.0000
# 3 32.1230 26.9623 104.7523 0.0000 0.0000 0.0000
# 4 0.0000 0.0000 0.0000 218.7343 0.0000 0.0000
# 5 0.0000 0.0000 0.0000 0.0000 13.1416 0.0000
# 6 0.0000 0.0000 0.0000 0.0000 0.0000 18.8641
#
#
#
# Elastic Compliance Matrix: (Units=1/GPa)
#
#
# Indices 1 2 3 4 5 6 
#
# 1 0.012045 -0.003594 -0.002769 0.000000 0.000000 0.000000
# 2 -0.003594 0.011599 -0.001883 0.000000 0.000000 0.000000
# 3 -0.002769 -0.001883 0.010880 0.000000 0.000000 0.000000
# 4 0.000000 0.000000 0.000000 0.004572 0.000000 0.000000
# 5 0.000000 0.000000 0.000000 0.000000 0.076094 0.000000
# 6 0.000000 0.000000 0.000000 0.000000 0.000000 0.053011
#
#
# Mechanical properties :
#
#
# Convention : Reuss Voigt Hill
#
# Bulk Modulus (GPa) = 55.45631 55.49065 55.47348
# Shear Modulus (GPa) = 26.21878 64.30282 45.26080
#
# Velocity S-wave (km/s) = 3.67646 5.75757 4.83042
# Velocity P-wave (km/s) = 6.82721 8.53265 7.72712
#
# Compressibility (1/GPa) = 0.01803221
#
# Stress axis : x y z
#
# Youngs Moduli (GPa) = 83.02131 86.21662 91.91072
#
# Poissons Ratio (x) = 0.30985 0.25447
# Poissons Ratio (y) = 0.29836 0.17310
# Poissons Ratio (z) = 0.22986 0.16237
#
# Static dielectric constant tensor:
#      x y z
#    x 1.729960 0.000000 0.000000 
#    y 0.000000 1.802840 0.000000 
#    z 0.000000 0.000000 1.648900 
# 
# From -- ./inp_files/30803.got.cif
#   From: 2010.05.17/outbox.cif.g08.bks.cpg/sg58_16_cif.got.tgz:30803.got - 2010.06.03 14:20:14.
