data_PCOD9446997
_publ_section_title
;
Structure prediction by ZEFSAII (Michael W. Deem and Ramdas Pophale) SiO2 
 PCOD9446997
Probable space group: P M M N
;
_chemical_formula_sum "Si O2"
_cell_formula_units_Z 56
_cell_length_a 7.422269
_cell_length_b 15.869667
_cell_length_c 22.037159
_cell_angle_alpha 90.000000
_cell_angle_beta 90.000000
_cell_angle_gamma 90.000000
_cell_volume 2595.733542
_symmetry_space_group_name_H-M "P M M N"
_symmetry_group_IT_number 59
_space_group.IT_coordinate_system_code '2'
_symmetry_cell_setting 'orthorhombic'
loop_
_space_group_symop_operation_xyz
x,y,z
1/2-x,1/2-y,z
1/2+x,-y,-z
-x,1/2+y,-z
-x,-y,-z
1/2+x,1/2+y,-z
1/2-x,y,z
x,1/2-y,z
loop_
_atom_site_type_symbol
_atom_site_label
_atom_site_fract_x
_atom_site_fract_y
_atom_site_fract_z
Si Si1 0.535068 0.400456 0.495758
Si Si2 0.531491 0.658891 0.906410
Si Si3 0.035244 0.409151 0.969793
Si Si4 0.538390 0.997968 0.285515
Si Si5 0.029462 0.844539 0.636987
Si Si6 0.460341 0.478990 0.847791
Si Si7 0.467917 0.657171 0.373432
O O1 0.500000 0.500000 0.500000
O O2 0.750000 0.387186 0.495185
O O3 0.468442 0.364735 0.431770
O O4 0.467458 0.358815 0.557739
O O5 0.750000 0.655426 0.906075
O O6 0.476236 0.750000 0.881286
O O7 0.469510 0.575827 0.871080
O O8 0.470786 0.652096 0.976933
O O9 0.250000 0.395819 0.964813
O O10 0.962605 0.419703 0.901506
O O11 0.000000 0.500000 0.000000
O O12 0.750000 0.015326 0.275623
O O13 0.460263 0.976618 0.219490
O O14 0.523943 0.919087 0.330507
O O15 0.465625 0.081435 0.318547
O O16 0.250000 0.847259 0.636299
O O17 0.976703 0.750000 0.654503
O O18 0.250000 0.455480 0.843320
O O19 0.250000 0.655991 0.374591
O O20 0.525593 0.750000 0.352698
#
# Coordination Sequence:
#
# PCOD9446997 Si02
#       7
#     8   8   8   8   8   8   8
#     4  10  18  31  53  76  98 127 165 210 258 302
#     4   9  17  29  47  71  96 124 160 200 245 297
#     4   8  14  27  45  65  90 120 154 192 232 277
#     4  10  20  34  52  76 103 134 172 210 249 297
#     4   9  17  30  49  72  99 131 165 201 245 300
#     4   9  18  31  48  70  97 129 164 201 244 293
#     4  10  21  36  54  75 100 133 172 212 256 304
#
# _framework density 21.573862999999999
#
# number of rings (size 3 to 8) (size 9 to 14) (size 15 to 20)
#    0.000    2.714    1.429    0.429    0.000    3.429 
#    0.000    2.143    0.000    5.143    0.000    0.000 
#    0.000    0.000    0.000    0.000    0.000    0.000 
#
# Total GULP energy -312304.953577 kJ/mol
# GULP energy per Si atom -5576.874171 kJ/mol
# Density = 2.152476 g / cm^3
# Si number density = 21.573863 Si / 1000 Ang^3
#
#
#
# Elastic Constant Matrix: (Units=GPa)
#
#
# Indices 1 2 3 4 5 6 
#
# 1 68.9277 -11.5594 6.2248 0.0000 0.0000 0.0000
# 2 -11.5594 77.4602 15.6748 0.0000 0.0000 0.0000
# 3 6.2248 15.6748 132.0944 0.0000 0.0000 0.0000
# 4 0.0000 0.0000 0.0000 6.2791 0.0000 0.0000
# 5 0.0000 0.0000 0.0000 0.0000 -10.8866 0.0000
# 6 0.0000 0.0000 0.0000 0.0000 0.0000 13.6577
#
#
#
# Elastic Compliance Matrix: (Units=1/GPa)
#
#
# Indices 1 2 3 4 5 6 
#
# 1 0.015007 0.002441 -0.000997 0.000000 0.000000 0.000000
# 2 0.002441 0.013625 -0.001732 0.000000 0.000000 0.000000
# 3 -0.000997 -0.001732 0.007823 0.000000 0.000000 0.000000
# 4 0.000000 0.000000 0.000000 0.159259 0.000000 0.000000
# 5 0.000000 0.000000 0.000000 0.000000 -0.091856 0.000000
# 6 0.000000 0.000000 0.000000 0.000000 0.000000 0.073219
#
#
# Mechanical properties :
#
#
# Convention : Reuss Voigt Hill
#
# Bulk Modulus (GPa) = 27.87065 33.24029 30.55547
# Shear Modulus (GPa) = 26.36973 19.68617 23.02795
#
# Velocity S-wave (km/s) = 3.49993 3.02404 3.27065
# Velocity P-wave (km/s) = 5.41105 5.25683 5.33450
#
# Compressibility (1/GPa) = 0.03588004
#
# Stress axis : x y z
#
# Youngs Moduli (GPa) = 66.63379 73.39662 127.83113
#
# Poissons Ratio (x) = -0.17918 0.12743
# Poissons Ratio (y) = -0.16267 0.22138
# Poissons Ratio (z) = 0.06643 0.12711
#
# Static dielectric constant tensor:
#      x y z
#    x 1.846310 0.000000 0.000000 
#    y 0.000000 1.749540 0.000000 
#    z 0.000000 0.000000 1.800640 
# 
# From -- ./inp_files/29176.got.cif
#   From: 2010.05.17/outbox.cif.g08.bks.cpg/sg59_15_cif.got.tgz:29176.got - 2010.06.03 14:40:33.
