data_PCOD9446334
_publ_section_title
;
Structure prediction by ZEFSAII (Michael W. Deem and Ramdas Pophale) SiO2 
 PCOD9446334
Probable space group: P M M N
;
_chemical_formula_sum "Si O2"
_cell_formula_units_Z 56
_cell_length_a 27.312282
_cell_length_b 9.399731
_cell_length_c 14.763349
_cell_angle_alpha 90.000000
_cell_angle_beta 90.000000
_cell_angle_gamma 90.000000
_cell_volume 3790.166594
_symmetry_space_group_name_H-M "P M M N"
_symmetry_group_IT_number 59
_space_group.IT_coordinate_system_code '2'
_symmetry_cell_setting 'orthorhombic'
loop_
_space_group_symop_operation_xyz
x,y,z
1/2-x,1/2-y,z
1/2+x,-y,-z
-x,1/2+y,-z
-x,-y,-z
1/2+x,1/2+y,-z
1/2-x,y,z
x,1/2-y,z
loop_
_atom_site_type_symbol
_atom_site_label
_atom_site_fract_x
_atom_site_fract_y
_atom_site_fract_z
Si Si1 0.458149 0.080602 0.381711
Si Si2 0.056942 0.421440 0.173651
Si Si3 0.613947 0.420185 0.262761
Si Si4 0.376997 0.415985 0.016263
Si Si5 0.430918 0.581262 0.555137
Si Si6 0.193626 0.579530 0.884168
Si Si7 0.459917 0.416877 0.866141
O O1 0.452112 0.250000 0.390572
O O2 0.443021 0.040522 0.279897
O O3 0.515827 0.049789 0.399541
O O4 0.429085 0.002261 0.461341
O O5 0.049731 0.250000 0.166765
O O6 0.105740 0.456519 0.116991
O O7 0.011004 0.501707 0.129608
O O8 0.604162 0.250000 0.253516
O O9 0.609623 0.453369 0.369038
O O10 0.663811 0.451976 0.208613
O O11 0.571961 0.507480 0.211625
O O12 0.362536 0.250000 0.015220
O O13 0.335859 0.507386 0.966293
O O14 0.426126 0.428759 0.955086
O O15 0.429530 0.750000 0.537471
O O16 0.250000 0.533788 0.879979
O O17 0.192272 0.750000 0.895618
O O18 0.467435 0.250000 0.847484
#
# Coordination Sequence:
#
# PCOD9446334 Si02
#       7
#     8   8   8   8   8   8   8
#     4   9  17  27  40  58  83 116 149 180 209 242
#     4  10  18  30  43  58  86 122 154 178 210 255
#     4   9  16  29  46  62  86 118 147 175 215 266
#     4   9  19  31  44  63  87 116 147 180 216 259
#     4   9  16  27  41  59  82 114 149 178 212 249
#     4   9  18  32  50  70  89 110 139 178 222 267
#     4  10  18  26  39  63  89 114 148 183 214 247
#
# _framework density 14.775076
#
# number of rings (size 3 to 8) (size 9 to 14) (size 15 to 20)
#    0.000    2.714    1.429    0.857    0.000    2.571 
#    0.000    0.000    0.000    0.000    0.000    1.000 
#    0.000    3.429    0.000    0.000    0.000    0.000 
#
# Total GULP energy -311860.444192 kJ/mol
# GULP energy per Si atom -5568.936503 kJ/mol
# Density = 1.474145 g / cm^3
# Si number density = 14.775076 Si / 1000 Ang^3
#
#
#
# Elastic Constant Matrix: (Units=GPa)
#
#
# Indices 1 2 3 4 5 6 
#
# 1 82.9311 33.3543 43.2033 0.0000 0.0000 0.0000
# 2 33.3543 23.5562 32.4018 0.0000 0.0000 0.0000
# 3 43.2033 32.4018 86.5170 0.0000 0.0000 0.0000
# 4 0.0000 0.0000 0.0000 21.9524 0.0000 0.0000
# 5 0.0000 0.0000 0.0000 0.0000 11.0965 0.0000
# 6 0.0000 0.0000 0.0000 0.0000 0.0000 16.9297
#
#
#
# Elastic Compliance Matrix: (Units=1/GPa)
#
#
# Indices 1 2 3 4 5 6 
#
# 1 0.028143 -0.042319 0.001795 0.000000 0.000000 0.000000
# 2 -0.042319 0.151190 -0.035490 0.000000 0.000000 0.000000
# 3 0.001795 -0.035490 0.023954 0.000000 0.000000 0.000000
# 4 0.000000 0.000000 0.000000 0.045553 0.000000 0.000000
# 5 0.000000 0.000000 0.000000 0.000000 0.090119 0.000000
# 6 0.000000 0.000000 0.000000 0.000000 0.000000 0.059068
#
#
# Mechanical properties :
#
#
# Convention : Reuss Voigt Hill
#
# Bulk Modulus (GPa) = 19.50871 45.65811 32.58341
# Shear Modulus (GPa) = 8.81617 15.59872 12.20744
#
# Velocity S-wave (km/s) = 2.44538 3.25275 2.87752
# Velocity P-wave (km/s) = 4.60496 6.71389 5.75682
#
# Compressibility (1/GPa) = 0.05125916
#
# Stress axis : x y z
#
# Youngs Moduli (GPa) = 35.53263 6.61420 41.74733
#
# Poissons Ratio (x) = 0.27990 -0.07495
# Poissons Ratio (y) = 1.50369 1.48163
# Poissons Ratio (z) = -0.06379 0.23474
#
# Static dielectric constant tensor:
#      x y z
#    x 1.469300 0.000000 0.000000 
#    y 0.000000 1.490630 0.000000 
#    z 0.000000 0.000000 1.509950 
# 
# From -- ./inp_files/24945.got.cif
#   From: 2010.05.17/outbox.cif.g08.bks.cpg/sg59_13_cif.got.tgz:24945.got - 2010.06.03 14:40:33.
