data_PCOD9446871
_publ_section_title
;
Structure prediction by ZEFSAII (Michael W. Deem and Ramdas Pophale) SiO2 
 PCOD9446871
Probable space group: P M M N
;
_chemical_formula_sum "Si O2"
_cell_formula_units_Z 64
_cell_length_a 30.093400
_cell_length_b 7.817401
_cell_length_c 12.901074
_cell_angle_alpha 90.000000
_cell_angle_beta 90.000000
_cell_angle_gamma 90.000000
_cell_volume 3035.005722
_symmetry_space_group_name_H-M "P M M N"
_symmetry_group_IT_number 59
_space_group.IT_coordinate_system_code '2'
_symmetry_cell_setting 'orthorhombic'
loop_
_space_group_symop_operation_xyz
x,y,z
1/2-x,1/2-y,z
1/2+x,-y,-z
-x,1/2+y,-z
-x,-y,-z
1/2+x,1/2+y,-z
1/2-x,y,z
x,1/2-y,z
loop_
_atom_site_type_symbol
_atom_site_label
_atom_site_fract_x
_atom_site_fract_y
_atom_site_fract_z
Si Si1 0.202467 0.959081 0.919587
Si Si2 0.894238 0.043895 0.144170
Si Si3 0.033167 0.449134 0.274012
Si Si4 0.581159 0.544893 0.918213
Si Si5 0.179455 0.550330 0.147540
Si Si6 0.441229 0.959468 0.645222
Si Si7 0.395798 0.950609 0.434277
Si Si8 0.701031 0.948308 0.623565
O O1 0.250000 0.011989 0.874212
O O2 0.201180 0.750000 0.919235
O O3 0.156672 0.018123 0.868160
O O4 0.200520 0.012022 0.040140
O O5 0.893020 0.250000 0.147121
O O6 0.916278 0.985338 0.250244
O O7 0.920647 0.996914 0.039571
O O8 0.022152 0.250000 0.259159
O O9 0.042507 0.518996 0.158820
O O10 0.078342 0.462906 0.339339
O O11 0.992068 0.519524 0.340357
O O12 0.584318 0.750000 0.908167
O O13 0.626993 0.467376 0.874244
O O14 0.190501 0.750000 0.160808
O O15 0.194107 0.460501 0.252297
O O16 0.439856 0.750000 0.640750
O O17 0.416722 0.017759 0.541284
O O18 0.405869 0.750000 0.424907
O O19 0.342874 0.971135 0.426414
O O20 0.750000 0.021298 0.598661
O O21 0.700973 0.750000 0.593893
#
# Coordination Sequence:
#
# PCOD9446871 Si02
#       8
#     8   8   8   8   8   8   8   8
#     4   8  14  25  45  74 102 132 172 215 262 316
#     4   9  18  34  54  75 107 146 185 230 279 330
#     4  10  20  36  58  81 112 147 180 228 291 345
#     4  10  19  31  51  80 114 147 179 221 276 336
#     4  10  18  30  51  78 110 145 179 223 272 323
#     4   9  20  38  57  80 108 145 189 237 287 331
#     4  11  22  37  59  83 110 142 189 240 278 327
#     4  11  23  37  54  79 113 150 183 219 275 339
#
# _framework density 21.087275000000002
#
# number of rings (size 3 to 8) (size 9 to 14) (size 15 to 20)
#    0.000    2.250    1.250    3.000    0.000    2.500 
#    0.000    3.125    0.000    5.625    0.000    0.000 
#    0.000    0.000    0.000    0.000    0.000    0.000 
#
# Total GULP energy -357130.035007 kJ/mol
# GULP energy per Si atom -5580.156797 kJ/mol
# Density = 2.103928 g / cm^3
# Si number density = 21.087275 Si / 1000 Ang^3
#
#
#
# Elastic Constant Matrix: (Units=GPa)
#
#
# Indices 1 2 3 4 5 6 
#
# 1 69.1005 -8.4989 12.9932 0.0000 0.0000 0.0000
# 2 -8.4989 26.0743 -9.7955 0.0000 0.0000 0.0000
# 3 12.9932 -9.7955 69.6236 0.0000 0.0000 0.0000
# 4 0.0000 0.0000 0.0000 6.0472 0.0000 0.0000
# 5 0.0000 0.0000 0.0000 0.0000 -4.1685 0.0000
# 6 0.0000 0.0000 0.0000 0.0000 0.0000 12.2335
#
#
#
# Elastic Compliance Matrix: (Units=1/GPa)
#
#
# Indices 1 2 3 4 5 6 
#
# 1 0.015415 0.004164 -0.002291 0.000000 0.000000 0.000000
# 2 0.004164 0.041617 0.005078 0.000000 0.000000 0.000000
# 3 -0.002291 0.005078 0.015505 0.000000 0.000000 0.000000
# 4 0.000000 0.000000 0.000000 0.165366 0.000000 0.000000
# 5 0.000000 0.000000 0.000000 0.000000 -0.239892 0.000000
# 6 0.000000 0.000000 0.000000 0.000000 0.000000 0.081743
#
#
# Mechanical properties :
#
#
# Convention : Reuss Voigt Hill
#
# Bulk Modulus (GPa) = 11.56892 17.13288 14.35090
# Shear Modulus (GPa) = 52.81833 14.16240 33.49037
#
# Velocity S-wave (km/s) = 5.01018 2.59435 3.98952
# Velocity P-wave (km/s) = 6.24238 4.13722 5.29546
#
# Compressibility (1/GPa) = 0.08643850
#
# Stress axis : x y z
#
# Youngs Moduli (GPa) = 64.87380 24.02868 64.49565
#
# Poissons Ratio (x) = -0.10005 0.14775
# Poissons Ratio (y) = -0.27012 -0.32752
# Poissons Ratio (z) = 0.14862 -0.12202
#
# Static dielectric constant tensor:
#      x y z
#    x 1.800500 0.000000 0.000000 
#    y 0.000000 1.756610 0.000000 
#    z 0.000000 0.000000 1.736450 
# 
# From -- ./inp_files/19301.got.cif
#   From: 2010.05.17/outbox.cif.g08.bks.cpg/sg59_10_cif.got.tgz:19301.got - 2010.06.03 14:40:33.
