data_PCOD9446131
_publ_section_title
;
Structure prediction by ZEFSAII (Michael W. Deem and Ramdas Pophale) SiO2 
 PCOD9446131
Probable space group: P M M N
;
_chemical_formula_sum "Si O2"
_cell_formula_units_Z 40
_cell_length_a 8.446984
_cell_length_b 18.735990
_cell_length_c 14.469984
_cell_angle_alpha 90.000000
_cell_angle_beta 90.000000
_cell_angle_gamma 90.000000
_cell_volume 2290.057402
_symmetry_space_group_name_H-M "P M M N"
_symmetry_group_IT_number 59
_space_group.IT_coordinate_system_code '2'
_symmetry_cell_setting 'orthorhombic'
loop_
_space_group_symop_operation_xyz
x,y,z
1/2-x,1/2-y,z
1/2+x,-y,-z
-x,1/2+y,-z
-x,-y,-z
1/2+x,1/2+y,-z
1/2-x,y,z
x,1/2-y,z
loop_
_atom_site_type_symbol
_atom_site_label
_atom_site_fract_x
_atom_site_fract_y
_atom_site_fract_z
Si Si1 0.562188 0.827917 0.665096
Si Si2 0.564841 0.371091 0.145289
Si Si3 0.939005 0.922718 0.036906
Si Si4 0.937088 0.022007 0.788402
Si Si5 0.562549 0.479741 0.399459
O O1 0.750000 0.836426 0.652026
O O2 0.513130 0.750000 0.628578
O O3 0.525327 0.829138 0.774684
O O4 0.478212 0.896756 0.621714
O O5 0.750000 0.354286 0.146360
O O6 0.536609 0.452808 0.178830
O O7 0.497766 0.368000 0.041531
O O8 0.750000 0.923217 0.040473
O O9 0.011559 0.916840 0.139581
O O10 0.000000 0.000000 0.000000
O O11 0.750000 0.007655 0.799407
O O12 0.978945 0.026920 0.680689
O O13 0.500000 0.500000 0.500000
O O14 0.750000 0.489981 0.393393
#
# Coordination Sequence:
#
# PCOD9446131 Si02
#       5
#     8   8   8   8   8
#     4  10  20  34  51  72  99 130 164 203 250 304
#     4  10  17  26  41  63  91 122 155 190 231 280
#     4  10  16  24  38  59  88 120 152 184 223 270
#     4  10  17  27  42  63  91 121 155 194 239 286
#     4  11  21  34  51  72  99 130 167 211 260 306
#
# _framework density 17.466811
#
# number of rings (size 3 to 8) (size 9 to 14) (size 15 to 20)
#    0.000    1.800    0.000   12.600    0.000    1.600 
#    0.000    0.000    0.000    0.000    0.000    1.400 
#    0.000   11.200    0.000    0.000    0.000    0.000 
#
# Total GULP energy -222910.045235 kJ/mol
# GULP energy per Si atom -5572.751131 kJ/mol
# Density = 1.742706 g / cm^3
# Si number density = 17.466811 Si / 1000 Ang^3
#
#
#
# Elastic Constant Matrix: (Units=GPa)
#
#
# Indices 1 2 3 4 5 6 
#
# 1 74.7301 0.1783 12.1891 0.0000 0.0000 0.0000
# 2 0.1783 34.8200 22.5739 0.0000 0.0000 0.0000
# 3 12.1891 22.5739 130.1053 0.0000 0.0000 0.0000
# 4 0.0000 0.0000 0.0000 7.9613 0.0000 0.0000
# 5 0.0000 0.0000 0.0000 0.0000 32.1059 0.0000
# 6 0.0000 0.0000 0.0000 0.0000 0.0000 10.8923
#
#
#
# Elastic Compliance Matrix: (Units=1/GPa)
#
#
# Indices 1 2 3 4 5 6 
#
# 1 0.013612 0.000853 -0.001423 0.000000 0.000000 0.000000
# 2 0.000853 0.032412 -0.005704 0.000000 0.000000 0.000000
# 3 -0.001423 -0.005704 0.008809 0.000000 0.000000 0.000000
# 4 0.000000 0.000000 0.000000 0.125607 0.000000 0.000000
# 5 0.000000 0.000000 0.000000 0.000000 0.031147 0.000000
# 6 0.000000 0.000000 0.000000 0.000000 0.000000 0.091808
#
#
# Mechanical properties :
#
#
# Convention : Reuss Voigt Hill
#
# Bulk Modulus (GPa) = 23.64887 34.39312 29.02100
# Shear Modulus (GPa) = 15.14975 23.83950 19.49462
#
# Velocity S-wave (km/s) = 2.94827 3.69839 3.34443
# Velocity P-wave (km/s) = 5.01582 6.16204 5.61824
#
# Compressibility (1/GPa) = 0.04228532
#
# Stress axis : x y z
#
# Youngs Moduli (GPa) = 73.46674 30.85233 113.51997
#
# Poissons Ratio (x) = -0.02632 0.16156
# Poissons Ratio (y) = -0.06266 0.64748
# Poissons Ratio (z) = 0.10456 0.17597
#
# Static dielectric constant tensor:
#      x y z
#    x 1.572340 0.000000 0.000000 
#    y 0.000000 1.667200 0.000000 
#    z 0.000000 0.000000 1.657690 
# 
# From -- ./inp_files/20658.got.cif
#   From: 2010.05.17/outbox.cif.g08.bks.cpg/sg59_11_cif.got.tgz:20658.got - 2010.06.03 14:40:33.
