data_PCOD9446756
_publ_section_title
;
Structure prediction by ZEFSAII (Michael W. Deem and Ramdas Pophale) SiO2 
 PCOD9446756
Probable space group: P M M N
;
_chemical_formula_sum "Si O2"
_cell_formula_units_Z 64
_cell_length_a 31.297189
_cell_length_b 8.658692
_cell_length_c 14.825022
_cell_angle_alpha 90.000000
_cell_angle_beta 90.000000
_cell_angle_gamma 90.000000
_cell_volume 4017.473036
_symmetry_space_group_name_H-M "P M M N"
_symmetry_group_IT_number 59
_space_group.IT_coordinate_system_code '2'
_symmetry_cell_setting 'orthorhombic'
loop_
_space_group_symop_operation_xyz
x,y,z
1/2-x,1/2-y,z
1/2+x,-y,-z
-x,1/2+y,-z
-x,-y,-z
1/2+x,1/2+y,-z
1/2-x,y,z
x,1/2-y,z
loop_
_atom_site_type_symbol
_atom_site_label
_atom_site_fract_x
_atom_site_fract_y
_atom_site_fract_z
Si Si1 0.201641 0.437033 0.850735
Si Si2 0.798679 0.436535 0.350209
Si Si3 0.423293 0.071971 0.738940
Si Si4 0.040246 0.064144 0.057092
Si Si5 0.525621 0.070597 0.746671
Si Si6 0.384433 0.930838 0.565902
Si Si7 0.383431 0.064385 0.934152
Si Si8 0.958677 0.932857 0.553162
O O1 0.250000 0.485319 0.873632
O O2 0.200467 0.250000 0.848525
O O3 0.192420 0.494859 0.749150
O O4 0.164952 0.492293 0.919343
O O5 0.750000 0.479871 0.374595
O O6 0.800650 0.250000 0.343078
O O7 0.835387 0.483719 0.420620
O O8 0.410828 0.250000 0.716653
O O9 0.474216 0.064257 0.739794
O O10 0.406238 0.037010 0.838218
O O11 0.404732 0.958699 0.664555
O O12 0.038577 0.250000 0.051452
O O13 0.038020 0.011687 0.160427
O O14 0.084401 0.007446 0.010844
O O15 0.000000 0.000000 0.000000
O O16 0.538243 0.250000 0.750695
O O17 0.542423 0.995162 0.654986
O O18 0.385127 0.750000 0.542883
O O19 0.415410 0.019607 0.498157
O O20 0.380786 0.250000 0.946195
O O21 0.963365 0.750000 0.553137
O O22 0.000000 0.000000 0.500000
#
# Coordination Sequence:
#
# PCOD9446756 Si02
#       8
#     8   8   8   8   8   8   8   8
#     4   9  16  27  46  70  95 127 166 203 242 292
#     4   9  18  31  46  69 102 134 164 202 248 295
#     4  10  18  30  48  68  99 135 164 203 247 288
#     4  11  21  34  50  70  98 133 170 208 249 297
#     4  11  22  37  52  71  99 132 168 211 252 294
#     4  11  21  32  49  74 101 135 173 206 244 296
#     4   9  17  30  46  68  98 131 164 200 245 287
#     4  12  24  37  53  74 100 133 169 208 250 298
#
# _framework density 15.930410999999999
#
# number of rings (size 3 to 8) (size 9 to 14) (size 15 to 20)
#    0.000    1.750    3.750    2.250    0.000    1.000 
#    0.000    1.250    0.000    0.000    0.000    0.875 
#    0.000    3.000    0.000    0.000    0.000    0.000 
#
# Total GULP energy -356953.725724 kJ/mol
# GULP energy per Si atom -5577.401964 kJ/mol
# Density = 1.589415 g / cm^3
# Si number density = 15.930411 Si / 1000 Ang^3
#
#
#
# Elastic Constant Matrix: (Units=GPa)
#
#
# Indices 1 2 3 4 5 6 
#
# 1 118.7255 31.8986 60.1305 0.0000 0.0000 0.0000
# 2 31.8986 50.1165 26.5769 0.0000 0.0000 0.0000
# 3 60.1305 26.5769 85.0681 0.0000 0.0000 0.0000
# 4 0.0000 0.0000 0.0000 23.7931 0.0000 0.0000
# 5 0.0000 0.0000 0.0000 0.0000 20.9719 0.0000
# 6 0.0000 0.0000 0.0000 0.0000 0.0000 15.5483
#
#
#
# Elastic Compliance Matrix: (Units=1/GPa)
#
#
# Indices 1 2 3 4 5 6 
#
# 1 0.013868 -0.004349 -0.008444 0.000000 0.000000 0.000000
# 2 -0.004349 0.025280 -0.004824 0.000000 0.000000 0.000000
# 3 -0.008444 -0.004824 0.019231 0.000000 0.000000 0.000000
# 4 0.000000 0.000000 0.000000 0.042029 0.000000 0.000000
# 5 0.000000 0.000000 0.000000 0.000000 0.047683 0.000000
# 6 0.000000 0.000000 0.000000 0.000000 0.000000 0.064316
#
#
# Mechanical properties :
#
#
# Convention : Reuss Voigt Hill
#
# Bulk Modulus (GPa) = 43.20541 54.56912 48.88727
# Shear Modulus (GPa) = 19.58068 21.08292 20.33180
#
# Velocity S-wave (km/s) = 3.50971 3.64186 3.57639
# Velocity P-wave (km/s) = 6.60336 7.21202 6.91439
#
# Compressibility (1/GPa) = 0.02314525
#
# Stress axis : x y z
#
# Youngs Moduli (GPa) = 72.11002 39.55755 51.99989
#
# Poissons Ratio (x) = 0.17203 0.43907
# Poissons Ratio (y) = 0.31360 0.25084
# Poissons Ratio (z) = 0.60888 0.19082
#
# Static dielectric constant tensor:
#      x y z
#    x 1.568950 0.000000 0.000000 
#    y 0.000000 1.549430 0.000000 
#    z 0.000000 0.000000 1.507350 
# 
# From -- ./inp_files/25026.got.cif
#   From: 2010.05.17/outbox.cif.g08.bks.cpg/sg59_13_cif.got.tgz:25026.got - 2010.06.03 14:40:33.
