data_PCOD9446207
_publ_section_title
;
Structure prediction by ZEFSAII (Michael W. Deem and Ramdas Pophale) SiO2 
 PCOD9446207
Probable space group: P M M N
;
_chemical_formula_sum "Si O2"
_cell_formula_units_Z 48
_cell_length_a 21.062018
_cell_length_b 15.358949
_cell_length_c 8.941674
_cell_angle_alpha 90.000000
_cell_angle_beta 90.000000
_cell_angle_gamma 90.000000
_cell_volume 2892.546238
_symmetry_space_group_name_H-M "P M M N"
_symmetry_group_IT_number 59
_space_group.IT_coordinate_system_code '2'
_symmetry_cell_setting 'orthorhombic'
loop_
_space_group_symop_operation_xyz
x,y,z
1/2-x,1/2-y,z
1/2+x,-y,-z
-x,1/2+y,-z
-x,-y,-z
1/2+x,1/2+y,-z
1/2-x,y,z
x,1/2-y,z
loop_
_atom_site_type_symbol
_atom_site_label
_atom_site_fract_x
_atom_site_fract_y
_atom_site_fract_z
Si Si1 0.915037 0.847673 0.525730
Si Si2 0.023562 0.430762 0.191346
Si Si3 0.675044 0.350507 0.166110
Si Si4 0.932135 0.107224 0.943279
Si Si5 0.601212 0.021978 0.382096
Si Si6 0.943739 0.342095 0.609093
O O1 0.887665 0.750000 0.523266
O O2 0.931394 0.879630 0.694212
O O3 0.984474 0.843215 0.449462
O O4 0.881250 0.924507 0.432108
O O5 0.060270 0.505221 0.099623
O O6 0.966089 0.474123 0.290397
O O7 0.985602 0.373875 0.068985
O O8 0.750000 0.358718 0.143620
O O9 0.661695 0.250000 0.212627
O O10 0.649831 0.422123 0.283575
O O11 0.634527 0.368857 0.016945
O O12 0.942482 0.153172 0.786492
O O13 0.589781 0.076183 0.533645
O O14 0.914842 0.250000 0.558363
#
# Coordination Sequence:
#
# PCOD9446207 Si02
#       6
#     8   8   8   8   8   8
#     4  10  18  29  47  74 104 130 163 200 243 299
#     4   9  17  29  47  73 105 138 158 194 252 309
#     4  10  22  37  52  71  97 133 171 202 243 302
#     4  10  17  29  49  71 104 134 164 198 244 298
#     4  10  17  33  50  69 101 133 165 204 249 295
#     4  10  17  26  46  76 103 132 162 197 243 293
#
# _framework density 16.594376
#
# number of rings (size 3 to 8) (size 9 to 14) (size 15 to 20)
#    0.000    2.167    3.333    2.000    0.000    4.667 
#    0.000    0.833    0.000    3.500    0.000    0.000 
#    0.000    0.000    0.000    0.000    0.000    0.000 
#
# Total GULP energy -267279.567901 kJ/mol
# GULP energy per Si atom -5568.324331 kJ/mol
# Density = 1.655661 g / cm^3
# Si number density = 16.594376 Si / 1000 Ang^3
#
#
#
# Elastic Constant Matrix: (Units=GPa)
#
#
# Indices 1 2 3 4 5 6 
#
# 1 40.4327 27.8253 13.8527 0.0000 0.0000 0.0000
# 2 27.8253 116.2386 26.6927 0.0000 0.0000 0.0000
# 3 13.8527 26.6927 91.3051 0.0000 0.0000 0.0000
# 4 0.0000 0.0000 0.0000 -0.3150 0.0000 0.0000
# 5 0.0000 0.0000 0.0000 0.0000 10.3421 0.0000
# 6 0.0000 0.0000 0.0000 0.0000 0.0000 15.9328
#
#
#
# Elastic Compliance Matrix: (Units=1/GPa)
#
#
# Indices 1 2 3 4 5 6 
#
# 1 0.030195 -0.006621 -0.002646 0.000000 0.000000 0.000000
# 2 -0.006621 0.010674 -0.002116 0.000000 0.000000 0.000000
# 3 -0.002646 -0.002116 0.011972 0.000000 0.000000 0.000000
# 4 0.000000 0.000000 0.000000 -3.174564 0.000000 0.000000
# 5 0.000000 0.000000 0.000000 0.000000 0.096692 0.000000
# 6 0.000000 0.000000 0.000000 0.000000 0.000000 0.062764
#
#
# Mechanical properties :
#
#
# Convention : Reuss Voigt Hill
#
# Bulk Modulus (GPa) = 33.24832 42.74641 37.99737
# Shear Modulus (GPa) = -1.70679 17.16570 7.72945
#
# Velocity S-wave (km/s) = -1.01527 3.21974 2.16055
# Velocity P-wave (km/s) = 4.32493 6.29586 5.40106
#
# Compressibility (1/GPa) = 0.03007671
#
# Stress axis : x y z
#
# Youngs Moduli (GPa) = 33.11797 93.68789 83.52631
#
# Poissons Ratio (x) = 0.62027 0.22098
# Poissons Ratio (y) = 0.21926 0.17674
# Poissons Ratio (z) = 0.08762 0.19824
#
# Static dielectric constant tensor:
#      x y z
#    x 1.519730 0.000000 0.000000 
#    y 0.000000 1.629760 0.000000 
#    z 0.000000 0.000000 1.575490 
# 
# From -- ./inp_files/9231.got.cif
#   From: 2010.05.17/outbox.cif.g08.bks.cpg/sg59_5_cif.got.tgz:9231.got - 2010.06.03 14:40:33.
