data_PCOD9446885
_publ_section_title
;
Structure prediction by ZEFSAII (Michael W. Deem and Ramdas Pophale) SiO2 
 PCOD9446885
Probable space group: P M M N
;
_chemical_formula_sum "Si O2"
_cell_formula_units_Z 64
_cell_length_a 19.884099
_cell_length_b 9.083960
_cell_length_c 20.394034
_cell_angle_alpha 90.000000
_cell_angle_beta 90.000000
_cell_angle_gamma 90.000000
_cell_volume 3683.700126
_symmetry_space_group_name_H-M "P M M N"
_symmetry_group_IT_number 59
_space_group.IT_coordinate_system_code '2'
_symmetry_cell_setting 'orthorhombic'
loop_
_space_group_symop_operation_xyz
x,y,z
1/2-x,1/2-y,z
1/2+x,-y,-z
-x,1/2+y,-z
-x,-y,-z
1/2+x,1/2+y,-z
1/2-x,y,z
x,1/2-y,z
loop_
_atom_site_type_symbol
_atom_site_label
_atom_site_fract_x
_atom_site_fract_y
_atom_site_fract_z
Si Si1 0.095240 0.420121 0.728773
Si Si2 0.591757 0.423716 0.035254
Si Si3 0.444770 0.425436 0.095188
Si Si4 0.928153 0.425356 0.404317
Si Si5 0.170825 0.082879 0.858272
Si Si6 0.438611 0.919996 0.233126
Si Si7 0.171512 0.427231 0.491012
Si Si8 0.580414 0.926545 0.630800
O O1 0.111031 0.250000 0.710523
O O2 0.099484 0.524109 0.666295
O O3 0.141441 0.466758 0.788849
O O4 0.019050 0.423126 0.755078
O O5 0.592469 0.250000 0.023099
O O6 0.522224 0.458703 0.074275
O O7 0.649032 0.477640 0.083649
O O8 0.594913 0.508742 0.966608
O O9 0.437378 0.250000 0.099333
O O10 0.426333 0.498254 0.164441
O O11 0.925916 0.250000 0.412660
O O12 0.880712 0.501176 0.457951
O O13 0.007706 0.470267 0.401393
O O14 0.250000 0.090297 0.853757
O O15 0.144105 0.250000 0.870157
O O16 0.417212 0.750000 0.229354
O O17 0.410813 0.997470 0.298698
O O18 0.250000 0.472782 0.498008
O O19 0.169247 0.250000 0.499243
O O20 0.140354 0.460667 0.419424
O O21 0.577140 0.750000 0.640229
#
# Coordination Sequence:
#
# PCOD9446885 Si02
#       8
#     8   8   8   8   8   8   8   8
#     4   9  18  32  49  72 103 136 172 209 248 303
#     4  10  20  32  49  74 103 134 170 213 259 303
#     4  10  19  31  51  76 104 134 166 211 262 309
#     4  10  20  33  53  79 107 136 170 218 269 313
#     4  10  20  34  51  70  99 140 179 212 249 302
#     4  10  18  30  52  79 106 133 166 211 261 310
#     4  10  21  37  56  76 102 139 179 216 258 315
#     4   9  19  35  54  78 107 137 172 216 266 318
#
# _framework density 17.373836000000001
#
# number of rings (size 3 to 8) (size 9 to 14) (size 15 to 20)
#    0.000    2.250    1.250    1.875    0.000    4.000 
#    0.000    1.250    0.000    0.750    0.000    1.750 
#    0.000    0.000    0.000    0.000    0.000    0.000 
#
# Total GULP energy -356872.163951 kJ/mol
# GULP energy per Si atom -5576.127562 kJ/mol
# Density = 1.733429 g / cm^3
# Si number density = 17.373836 Si / 1000 Ang^3
#
#
#
# Elastic Constant Matrix: (Units=GPa)
#
#
# Indices 1 2 3 4 5 6 
#
# 1 35.1913 13.6222 29.9207 0.0000 0.0000 0.0000
# 2 13.6222 36.3858 37.9434 0.0000 0.0000 0.0000
# 3 29.9207 37.9434 97.6902 0.0000 0.0000 0.0000
# 4 0.0000 0.0000 0.0000 28.6169 0.0000 0.0000
# 5 0.0000 0.0000 0.0000 0.0000 5.3704 0.0000
# 6 0.0000 0.0000 0.0000 0.0000 0.0000 18.3167
#
#
#
# Elastic Compliance Matrix: (Units=1/GPa)
#
#
# Indices 1 2 3 4 5 6 
#
# 1 0.038696 -0.003576 -0.010463 0.000000 0.000000 0.000000
# 2 -0.003576 0.046523 -0.016975 0.000000 0.000000 0.000000
# 3 -0.010463 -0.016975 0.020034 0.000000 0.000000 0.000000
# 4 0.000000 0.000000 0.000000 0.034944 0.000000 0.000000
# 5 0.000000 0.000000 0.000000 0.000000 0.186207 0.000000
# 6 0.000000 0.000000 0.000000 0.000000 0.000000 0.054595
#
#
# Mechanical properties :
#
#
# Convention : Reuss Voigt Hill
#
# Bulk Modulus (GPa) = 23.13416 36.91553 30.02485
# Shear Modulus (GPa) = 10.93047 16.31285 13.62166
#
# Velocity S-wave (km/s) = 2.51098 3.06752 2.80310
# Velocity P-wave (km/s) = 4.66381 5.81723 5.27216
#
# Compressibility (1/GPa) = 0.04322612
#
# Stress axis : x y z
#
# Youngs Moduli (GPa) = 25.84220 21.49457 49.91502
#
# Poissons Ratio (x) = 0.07687 0.52226
# Poissons Ratio (y) = 0.09242 0.84728
# Poissons Ratio (z) = 0.27038 0.36486
#
# Static dielectric constant tensor:
#      x y z
#    x 1.587020 0.000000 0.000000 
#    y 0.000000 1.598030 0.000000 
#    z 0.000000 0.000000 1.576150 
# 
# From -- ./inp_files/28219.got.cif
#   From: 2010.05.17/outbox.cif.g08.bks.cpg/sg59_15_cif.got.tgz:28219.got - 2010.06.03 14:40:33.
