data_PCOD9446457
_publ_section_title
;
Structure prediction by ZEFSAII (Michael W. Deem and Ramdas Pophale) SiO2 
 PCOD9446457
Probable space group: P M M N
;
_chemical_formula_sum "Si O2"
_cell_formula_units_Z 64
_cell_length_a 7.619637
_cell_length_b 20.076767
_cell_length_c 21.125237
_cell_angle_alpha 90.000000
_cell_angle_beta 90.000000
_cell_angle_gamma 90.000000
_cell_volume 3231.689675
_symmetry_space_group_name_H-M "P M M N"
_symmetry_group_IT_number 59
_space_group.IT_coordinate_system_code '2'
_symmetry_cell_setting 'orthorhombic'
loop_
_space_group_symop_operation_xyz
x,y,z
1/2-x,1/2-y,z
1/2+x,-y,-z
-x,1/2+y,-z
-x,-y,-z
1/2+x,1/2+y,-z
1/2-x,y,z
x,1/2-y,z
loop_
_atom_site_type_symbol
_atom_site_label
_atom_site_fract_x
_atom_site_fract_y
_atom_site_fract_z
Si Si1 0.534523 0.924437 0.293469
Si Si2 0.535080 0.069573 0.343766
Si Si3 0.460462 0.422866 0.984046
Si Si4 0.041548 0.576943 0.514892
Si Si5 0.960009 0.323915 0.241728
Si Si6 0.541890 0.825048 0.400217
Si Si7 0.540239 0.595889 0.880410
Si Si8 0.456760 0.056323 0.847945
O O1 0.750000 0.924091 0.292562
O O2 0.473257 0.865032 0.338929
O O3 0.472620 0.923076 0.220640
O O4 0.482365 0.994870 0.324720
O O5 0.750000 0.069435 0.343798
O O6 0.475256 0.089161 0.413913
O O7 0.473101 0.121608 0.291299
O O8 0.250000 0.414075 0.980583
O O9 0.523961 0.387712 0.048335
O O10 0.500000 0.500000 0.000000
O O11 0.530664 0.411800 0.912997
O O12 0.250000 0.583656 0.516090
O O13 0.000000 0.500000 0.500000
O O14 0.978920 0.627840 0.461433
O O15 0.750000 0.321620 0.250160
O O16 0.030482 0.250000 0.251988
O O17 0.994028 0.349676 0.171258
O O18 0.750000 0.819132 0.390316
O O19 0.470988 0.750000 0.408182
O O20 0.750000 0.589149 0.883384
O O21 0.471986 0.523750 0.856936
O O22 0.250000 0.071975 0.846455
#
# Coordination Sequence:
#
# PCOD9446457 Si02
#       8
#     8   8   8   8   8   8   8   8
#     4   9  15  28  52  76  98 127 164 206 251 292
#     4   9  17  31  52  75  96 123 164 211 251 291
#     4   8  15  25  40  66  95 123 154 195 240 286
#     4  11  21  35  57  81 107 136 170 208 253 307
#     4  10  20  34  51  69  90 124 171 212 246 294
#     4  10  21  37  55  77 106 137 170 210 257 307
#     4  10  18  28  43  67 102 131 156 196 253 303
#     4   9  15  27  49  71  93 125 168 207 239 283
#
# _framework density 19.803881000000001
#
# number of rings (size 3 to 8) (size 9 to 14) (size 15 to 20)
#    0.000    2.500    2.500    0.750    0.000    1.500 
#    0.000    4.375    0.000    0.750    0.000    3.500 
#    0.000    0.000    0.000    0.000    0.000    0.000 
#
# Total GULP energy -356791.605796 kJ/mol
# GULP energy per Si atom -5574.868841 kJ/mol
# Density = 1.975881 g / cm^3
# Si number density = 19.803881 Si / 1000 Ang^3
#
#
#
# Elastic Constant Matrix: (Units=GPa)
#
#
# Indices 1 2 3 4 5 6 
#
# 1 39.6806 1.3948 7.9148 0.0000 0.0000 0.0000
# 2 1.3948 123.6168 88.0900 0.0000 0.0000 0.0000
# 3 7.9148 88.0900 190.5696 0.0000 0.0000 0.0000
# 4 0.0000 0.0000 0.0000 15.2148 0.0000 0.0000
# 5 0.0000 0.0000 0.0000 0.0000 15.2264 0.0000
# 6 0.0000 0.0000 0.0000 0.0000 0.0000 8.0185
#
#
#
# Elastic Compliance Matrix: (Units=1/GPa)
#
#
# Indices 1 2 3 4 5 6 
#
# 1 0.025452 0.000695 -0.001378 0.000000 0.000000 0.000000
# 2 0.000695 0.012082 -0.005614 0.000000 0.000000 0.000000
# 3 -0.001378 -0.005614 0.007900 0.000000 0.000000 0.000000
# 4 0.000000 0.000000 0.000000 0.065726 0.000000 0.000000
# 5 0.000000 0.000000 0.000000 0.000000 0.065676 0.000000
# 6 0.000000 0.000000 0.000000 0.000000 0.000000 0.124711
#
#
# Mechanical properties :
#
#
# Convention : Reuss Voigt Hill
#
# Bulk Modulus (GPa) = 30.45135 60.96293 45.70714
# Shear Modulus (GPa) = 15.38052 24.78976 20.08514
#
# Velocity S-wave (km/s) = 2.78985 3.54186 3.18811
# Velocity P-wave (km/s) = 5.07814 6.89758 6.05657
#
# Compressibility (1/GPa) = 0.03283927
#
# Stress axis : x y z
#
# Youngs Moduli (GPa) = 39.29007 82.76736 126.58861
#
# Poissons Ratio (x) = -0.05753 0.17448
# Poissons Ratio (y) = -0.02731 0.71064
# Poissons Ratio (z) = 0.05416 0.46464
#
# Static dielectric constant tensor:
#      x y z
#    x -0.186010 0.000000 0.000000 
#    y 0.000000 1.658460 0.000000 
#    z 0.000000 0.000000 1.743450 
# 
# From -- ./inp_files/29797.got.cif
#   From: 2010.05.17/outbox.cif.g08.bks.cpg/sg59_15_cif.got.tgz:29797.got - 2010.06.03 14:40:33.
