data_PCOD9446304
_publ_section_title
;
Structure prediction by ZEFSAII (Michael W. Deem and Ramdas Pophale) SiO2 
 PCOD9446304
Probable space group: P M M N
;
_chemical_formula_sum "Si O2"
_cell_formula_units_Z 56
_cell_length_a 13.238579
_cell_length_b 17.906977
_cell_length_c 11.465832
_cell_angle_alpha 90.000000
_cell_angle_beta 90.000000
_cell_angle_gamma 90.000000
_cell_volume 2718.123725
_symmetry_space_group_name_H-M "P M M N"
_symmetry_group_IT_number 59
_space_group.IT_coordinate_system_code '2'
_symmetry_cell_setting 'orthorhombic'
loop_
_space_group_symop_operation_xyz
x,y,z
1/2-x,1/2-y,z
1/2+x,-y,-z
-x,1/2+y,-z
-x,-y,-z
1/2+x,1/2+y,-z
1/2-x,y,z
x,1/2-y,z
loop_
_atom_site_type_symbol
_atom_site_label
_atom_site_fract_x
_atom_site_fract_y
_atom_site_fract_z
Si Si1 0.636074 0.566048 0.431336
Si Si2 0.863271 0.479008 0.073189
Si Si3 0.923482 0.961945 0.828996
Si Si4 0.362752 0.887019 0.548310
Si Si5 0.430687 0.337496 0.348582
Si Si6 0.632751 0.330056 0.929248
Si Si7 0.934083 0.394339 0.698997
O O1 0.750000 0.575832 0.387082
O O2 0.620285 0.477192 0.452207
O O3 0.623116 0.614944 0.548845
O O4 0.546937 0.593414 0.348015
O O5 0.750000 0.487498 0.120677
O O6 0.958085 0.484925 0.157789
O O7 0.878155 0.530556 0.958434
O O8 0.877071 0.396301 0.020105
O O9 0.909552 0.882285 0.770290
O O10 0.884692 0.027551 0.743699
O O11 0.250000 0.872064 0.591118
O O12 0.450211 0.848730 0.622793
O O13 0.374998 0.863895 0.413164
O O14 0.404911 0.250000 0.348089
O O15 0.750000 0.331383 0.891469
O O16 0.609743 0.250000 0.982412
O O17 0.568967 0.344112 0.813557
#
# Coordination Sequence:
#
# PCOD9446304 Si02
#       7
#     8   8   8   8   8   8   8
#     4  10  20  35  54  75 105 145 185 218 248 299
#     4   9  20  35  55  76 101 134 172 225 269 312
#     4  10  19  35  53  79 103 131 182 217 261 323
#     4  10  19  34  55  78 107 142 178 215 256 310
#     4  11  22  36  53  80 117 146 173 216 268 325
#     4   9  18  32  51  77 104 132 168 212 267 321
#     4  10  17  32  54  78 104 135 177 217 257 304
#
# _framework density 20.602447999999999
#
# number of rings (size 3 to 8) (size 9 to 14) (size 15 to 20)
#    0.000    2.143    2.857    1.286    0.000    5.714 
#    0.000    0.000    0.000    0.000    0.000    0.000 
#    0.000    0.000    0.000    0.000    0.000    0.000 
#
# Total GULP energy -312607.170811 kJ/mol
# GULP energy per Si atom -5582.270907 kJ/mol
# Density = 2.055556 g / cm^3
# Si number density = 20.602448 Si / 1000 Ang^3
#
#
#
# Elastic Constant Matrix: (Units=GPa)
#
#
# Indices 1 2 3 4 5 6 
#
# 1 63.4527 -8.0502 -7.3578 0.0000 0.0000 0.0000
# 2 -8.0502 92.5023 23.8097 0.0000 0.0000 0.0000
# 3 -7.3578 23.8097 45.6241 0.0000 0.0000 0.0000
# 4 0.0000 0.0000 0.0000 4.7151 0.0000 0.0000
# 5 0.0000 0.0000 0.0000 0.0000 -0.8446 0.0000
# 6 0.0000 0.0000 0.0000 0.0000 0.0000 14.2724
#
#
#
# Elastic Compliance Matrix: (Units=1/GPa)
#
#
# Indices 1 2 3 4 5 6 
#
# 1 0.016117 0.000847 0.002157 0.000000 0.000000 0.000000
# 2 0.000847 0.012533 -0.006404 0.000000 0.000000 0.000000
# 3 0.002157 -0.006404 0.025608 0.000000 0.000000 0.000000
# 4 0.000000 0.000000 0.000000 0.212086 0.000000 0.000000
# 5 0.000000 0.000000 0.000000 0.000000 -1.184035 0.000000
# 6 0.000000 0.000000 0.000000 0.000000 0.000000 0.070065
#
#
# Mechanical properties :
#
#
# Convention : Reuss Voigt Hill
#
# Bulk Modulus (GPa) = 21.07062 24.26473 22.66767
# Shear Modulus (GPa) = -6.06055 16.50708 5.22326
#
# Velocity S-wave (km/s) = -1.71699 2.83365 1.59398
# Velocity P-wave (km/s) = 2.51370 4.74439 3.79658
#
# Compressibility (1/GPa) = 0.04745946
#
# Stress axis : x y z
#
# Youngs Moduli (GPa) = 62.04473 79.79209 39.05040
#
# Poissons Ratio (x) = -0.06762 -0.08423
# Poissons Ratio (y) = -0.05258 0.25007
# Poissons Ratio (z) = -0.13383 0.51096
#
# Static dielectric constant tensor:
#      x y z
#    x 1.767600 0.000000 0.000000 
#    y 0.000000 1.749000 0.000000 
#    z 0.000000 0.000000 1.743690 
# 
# From -- ./inp_files/16978.got.cif
#   From: 2010.05.17/outbox.cif.g08.bks.cpg/sg59_9_cif.got.tgz:16978.got - 2010.06.03 14:40:33.
