data_PCOD9446778
_publ_section_title
;
Structure prediction by ZEFSAII (Michael W. Deem and Ramdas Pophale) SiO2 
 PCOD9446778
Probable space group: P M M N
;
_chemical_formula_sum "Si O2"
_cell_formula_units_Z 64
_cell_length_a 19.291136
_cell_length_b 8.848640
_cell_length_c 22.153948
_cell_angle_alpha 90.000000
_cell_angle_beta 90.000000
_cell_angle_gamma 90.000000
_cell_volume 3781.685961
_symmetry_space_group_name_H-M "P M M N"
_symmetry_group_IT_number 59
_space_group.IT_coordinate_system_code '2'
_symmetry_cell_setting 'orthorhombic'
loop_
_space_group_symop_operation_xyz
x,y,z
1/2-x,1/2-y,z
1/2+x,-y,-z
-x,1/2+y,-z
-x,-y,-z
1/2+x,1/2+y,-z
1/2-x,y,z
x,1/2-y,z
loop_
_atom_site_type_symbol
_atom_site_label
_atom_site_fract_x
_atom_site_fract_y
_atom_site_fract_z
Si Si1 0.366813 0.423302 0.267127
Si Si2 0.468484 0.067210 0.439227
Si Si3 0.914063 0.431052 0.851627
Si Si4 0.172720 0.930457 0.390495
Si Si5 0.171081 0.065716 0.906402
Si Si6 0.068705 0.430524 0.803450
Si Si7 0.925617 0.568046 0.981432
Si Si8 0.974017 0.421989 0.314225
O O1 0.342505 0.250000 0.264349
O O2 0.366821 0.501372 0.201832
O O3 0.330828 0.514159 0.320975
O O4 0.447494 0.420290 0.288008
O O5 0.467934 0.250000 0.440100
O O6 0.515784 0.017695 0.381852
O O7 0.500000 0.000000 0.500000
O O8 0.390627 0.009241 0.425527
O O9 0.907167 0.250000 0.853948
O O10 0.902689 0.503907 0.916779
O O11 0.994021 0.467127 0.833274
O O12 0.250000 0.966331 0.413950
O O13 0.162916 0.750000 0.392396
O O14 0.250000 0.013034 0.907358
O O15 0.171761 0.250000 0.904375
O O16 0.128565 0.012676 0.847816
O O17 0.128794 0.025493 0.966423
O O18 0.072422 0.250000 0.801205
O O19 0.069883 0.490578 0.735428
O O20 0.930887 0.750000 0.978993
O O21 0.000000 0.500000 0.000000
O O22 0.949224 0.250000 0.317693
#
# Coordination Sequence:
#
# PCOD9446778 Si02
#       8
#     8   8   8   8   8   8   8   8
#     4   9  17  30  48  73 101 132 167 207 255 305
#     4  10  20  34  54  80 111 144 183 225 265 310
#     4  10  18  30  48  73  99 125 164 213 259 307
#     4  10  20  34  53  78 109 145 182 221 268 320
#     4   9  18  33  50  69  95 126 164 210 260 313
#     4   9  16  28  48  72  92 119 160 203 250 298
#     4  11  20  32  50  72  96 128 170 216 264 317
#     4   8  16  29  46  72 101 127 156 198 248 294
#
# _framework density 16.923669
#
# number of rings (size 3 to 8) (size 9 to 14) (size 15 to 20)
#    0.000    2.500    1.250    2.625    0.000    5.000 
#    0.000    0.625    0.000    6.375    0.000    3.500 
#    0.000    0.000    0.000    0.000    0.000    0.000 
#
# Total GULP energy -356702.328426 kJ/mol
# GULP energy per Si atom -5573.473882 kJ/mol
# Density = 1.688515 g / cm^3
# Si number density = 16.923669 Si / 1000 Ang^3
#
#
#
# Elastic Constant Matrix: (Units=GPa)
#
#
# Indices 1 2 3 4 5 6 
#
# 1 86.0776 32.9703 61.9700 0.0000 0.0000 0.0000
# 2 32.9703 45.2901 43.6049 0.0000 0.0000 0.0000
# 3 61.9700 43.6049 162.0543 0.0000 0.0000 0.0000
# 4 0.0000 0.0000 0.0000 32.3506 0.0000 0.0000
# 5 0.0000 0.0000 0.0000 0.0000 15.8466 0.0000
# 6 0.0000 0.0000 0.0000 0.0000 0.0000 14.2556
#
#
#
# Elastic Compliance Matrix: (Units=1/GPa)
#
#
# Indices 1 2 3 4 5 6 
#
# 1 0.018360 -0.008916 -0.004622 0.000000 0.000000 0.000000
# 2 -0.008916 0.034130 -0.005774 0.000000 0.000000 0.000000
# 3 -0.004622 -0.005774 0.009492 0.000000 0.000000 0.000000
# 4 0.000000 0.000000 0.000000 0.030911 0.000000 0.000000
# 5 0.000000 0.000000 0.000000 0.000000 0.063105 0.000000
# 6 0.000000 0.000000 0.000000 0.000000 0.000000 0.070148
#
#
# Mechanical properties :
#
#
# Convention : Reuss Voigt Hill
#
# Bulk Modulus (GPa) = 42.81186 63.39027 53.10107
# Shear Modulus (GPa) = 18.34496 22.81568 20.58032
#
# Velocity S-wave (km/s) = 3.29596 3.67570 3.49100
# Velocity P-wave (km/s) = 6.31161 7.45334 6.90611
#
# Compressibility (1/GPa) = 0.02335801
#
# Stress axis : x y z
#
# Youngs Moduli (GPa) = 54.46678 29.30010 105.35363
#
# Poissons Ratio (x) = 0.26123 0.48693
# Poissons Ratio (y) = 0.48561 0.60832
# Poissons Ratio (z) = 0.25174 0.16918
#
# Static dielectric constant tensor:
#      x y z
#    x 1.570750 0.000000 0.000000 
#    y 0.000000 1.576040 0.000000 
#    z 0.000000 0.000000 1.570230 
# 
# From -- ./inp_files/30929.got.cif
#   From: 2010.05.17/outbox.cif.g08.bks.cpg/sg59_16_cif.got.tgz:30929.got - 2010.06.03 14:40:33.
