data_PCOD9446685
_publ_section_title
;
Structure prediction by ZEFSAII (Michael W. Deem and Ramdas Pophale) SiO2 
 PCOD9446685
Probable space group: P M M N
;
_chemical_formula_sum "Si O2"
_cell_formula_units_Z 64
_cell_length_a 15.517475
_cell_length_b 28.152181
_cell_length_c 8.023274
_cell_angle_alpha 90.000000
_cell_angle_beta 90.000000
_cell_angle_gamma 90.000000
_cell_volume 3504.973384
_symmetry_space_group_name_H-M "P M M N"
_symmetry_group_IT_number 59
_space_group.IT_coordinate_system_code '2'
_symmetry_cell_setting 'orthorhombic'
loop_
_space_group_symop_operation_xyz
x,y,z
1/2-x,1/2-y,z
1/2+x,-y,-z
-x,1/2+y,-z
-x,-y,-z
1/2+x,1/2+y,-z
1/2-x,y,z
x,1/2-y,z
loop_
_atom_site_type_symbol
_atom_site_label
_atom_site_fract_x
_atom_site_fract_y
_atom_site_fract_z
Si Si1 0.656438 0.804136 0.375539
Si Si2 0.849004 0.695485 0.780777
Si Si3 0.576261 0.464165 0.064097
Si Si4 0.345002 0.451066 0.745041
Si Si5 0.482470 0.121792 0.653214
Si Si6 0.649990 0.076862 0.732721
Si Si7 0.541040 0.604874 0.744830
Si Si8 0.154462 0.021927 0.362852
O O1 0.750000 0.825723 0.328876
O O2 0.655614 0.750000 0.319585
O O3 0.654239 0.804485 0.577701
O O4 0.572771 0.831242 0.315184
O O5 0.750000 0.686081 0.836935
O O6 0.871838 0.750000 0.830745
O O7 0.914628 0.652399 0.819147
O O8 0.632800 0.498045 0.180225
O O9 0.538639 0.418175 0.158813
O O10 0.500000 0.500000 0.000000
O O11 0.633908 0.444410 0.914940
O O12 0.250000 0.435074 0.804625
O O13 0.427468 0.416731 0.760348
O O14 0.340038 0.456683 0.545935
O O15 0.581702 0.118485 0.703199
O O16 0.477985 0.113161 0.452380
O O17 0.750000 0.088269 0.700311
O O18 0.617553 0.031216 0.623532
O O19 0.607121 0.560525 0.747482
O O20 0.250000 0.015077 0.294449
#
# Coordination Sequence:
#
# PCOD9446685 Si02
#       8
#     8   8   8   8   8   8   8   8
#     4   8  14  26  48  79 109 129 150 190 245 299
#     4   8  14  26  46  75 106 130 156 193 238 292
#     4  12  21  33  45  65  96 133 169 208 243 286
#     4  10  19  31  48  70  99 129 161 199 240 289
#     4  10  18  31  51  75  97 127 165 202 242 294
#     4  11  22  35  48  65  94 131 170 209 246 286
#     4  10  18  29  49  72  98 128 162 201 242 293
#     4   9  17  29  46  69  95 126 161 197 238 287
#
# _framework density 18.259765999999999
#
# number of rings (size 3 to 8) (size 9 to 14) (size 15 to 20)
#    0.000    2.250    2.500    2.625    0.000    5.000 
#    0.000    0.625    0.000    1.125    0.000    1.750 
#    0.000    3.500    0.000    0.000    0.000    0.000 
#
# Total GULP energy -356405.019676 kJ/mol
# GULP energy per Si atom -5568.828432 kJ/mol
# Density = 1.821821 g / cm^3
# Si number density = 18.259766 Si / 1000 Ang^3
#
#
#
# Elastic Constant Matrix: (Units=GPa)
#
#
# Indices 1 2 3 4 5 6 
#
# 1 101.0167 48.7390 7.5573 0.0000 0.0000 0.0000
# 2 48.7390 78.8156 6.8030 0.0000 0.0000 0.0000
# 3 7.5573 6.8030 12.7590 0.0000 0.0000 0.0000
# 4 0.0000 0.0000 0.0000 5.3528 0.0000 0.0000
# 5 0.0000 0.0000 0.0000 0.0000 15.7613 0.0000
# 6 0.0000 0.0000 0.0000 0.0000 0.0000 30.6921
#
#
#
# Elastic Compliance Matrix: (Units=1/GPa)
#
#
# Indices 1 2 3 4 5 6 
#
# 1 0.014295 -0.008500 -0.003935 0.000000 0.000000 0.000000
# 2 -0.008500 0.018354 -0.004752 0.000000 0.000000 0.000000
# 3 -0.003935 -0.004752 0.083240 0.000000 0.000000 0.000000
# 4 0.000000 0.000000 0.000000 0.186817 0.000000 0.000000
# 5 0.000000 0.000000 0.000000 0.000000 0.063446 0.000000
# 6 0.000000 0.000000 0.000000 0.000000 0.000000 0.032582
#
#
# Mechanical properties :
#
#
# Convention : Reuss Voigt Hill
#
# Bulk Modulus (GPa) = 12.26754 35.42111 23.84433
# Shear Modulus (GPa) = 10.86295 18.99406 14.92851
#
# Velocity S-wave (km/s) = 2.44173 3.22873 2.86241
# Velocity P-wave (km/s) = 3.83175 5.77410 4.90013
#
# Compressibility (1/GPa) = 0.08151596
#
# Stress axis : x y z
#
# Youngs Moduli (GPa) = 69.95470 54.48258 12.01347
#
# Poissons Ratio (x) = 0.46312 0.04727
# Poissons Ratio (y) = 0.59463 0.05708
# Poissons Ratio (z) = 0.27525 0.25889
#
# Static dielectric constant tensor:
#      x y z
#    x 1.667090 0.000000 0.000000 
#    y 0.000000 1.648160 0.000000 
#    z 0.000000 0.000000 1.673020 
# 
# From -- ./inp_files/9756.got.cif
#   From: 2010.05.17/outbox.cif.g08.bks.cpg/sg59_5_cif.got.tgz:9756.got - 2010.06.03 14:40:33.
