data_PCOD9446522
_publ_section_title
;
Structure prediction by ZEFSAII (Michael W. Deem and Ramdas Pophale) SiO2 
 PCOD9446522
Probable space group: P M M N
;
_chemical_formula_sum "Si O2"
_cell_formula_units_Z 64
_cell_length_a 20.871766
_cell_length_b 7.596380
_cell_length_c 20.703674
_cell_angle_alpha 90.000000
_cell_angle_beta 90.000000
_cell_angle_gamma 90.000000
_cell_volume 3282.564734
_symmetry_space_group_name_H-M "P M M N"
_symmetry_group_IT_number 59
_space_group.IT_coordinate_system_code '2'
_symmetry_cell_setting 'orthorhombic'
loop_
_space_group_symop_operation_xyz
x,y,z
1/2-x,1/2-y,z
1/2+x,-y,-z
-x,1/2+y,-z
-x,-y,-z
1/2+x,1/2+y,-z
1/2-x,y,z
x,1/2-y,z
loop_
_atom_site_type_symbol
_atom_site_label
_atom_site_fract_x
_atom_site_fract_y
_atom_site_fract_z
Si Si1 0.418220 0.463333 0.738570
Si Si2 0.821582 0.965327 0.151826
Si Si3 0.928448 0.961851 0.407862
Si Si4 0.572949 0.042630 0.614490
Si Si5 0.323536 0.958927 0.483141
Si Si6 0.913763 0.537533 0.042613
Si Si7 0.561921 0.550045 0.762184
Si Si8 0.446016 0.460745 0.096928
O O1 0.426276 0.250000 0.741915
O O2 0.362991 0.517746 0.786700
O O3 0.406319 0.508956 0.664386
O O4 0.484819 0.545714 0.760411
O O5 0.750000 0.027916 0.156548
O O6 0.821438 0.750000 0.151249
O O7 0.855804 0.023694 0.086512
O O8 0.931658 0.750000 0.412546
O O9 0.003128 0.027386 0.410429
O O10 0.874182 0.019028 0.458088
O O11 0.570431 0.250000 0.599920
O O12 0.634770 0.968575 0.577319
O O13 0.579258 0.027289 0.692067
O O14 0.250000 0.027799 0.491385
O O15 0.316241 0.750000 0.473706
O O16 0.912626 0.750000 0.039180
O O17 0.979098 0.491609 0.080578
O O18 0.913575 0.471491 0.969020
O O19 0.585784 0.750000 0.761408
O O20 0.576141 0.469056 0.833062
O O21 0.437048 0.250000 0.100428
#
# Coordination Sequence:
#
# PCOD9446522 Si02
#       8
#     8   8   8   8   8   8   8   8
#     4   9  17  30  46  67  94 122 156 192 227 275
#     4   9  16  26  43  65  89 122 162 196 222 262
#     4   9  18  31  50  74  98 126 159 197 238 285
#     4   9  19  35  53  73  97 126 162 200 239 287
#     4  10  21  36  53  73  98 127 160 200 243 289
#     4   9  16  27  44  64  88 121 157 189 225 274
#     4  10  18  28  46  71  98 121 148 194 245 286
#     4   9  17  27  42  67  95 117 145 193 241 276
#
# _framework density 19.496949000000001
#
# number of rings (size 3 to 8) (size 9 to 14) (size 15 to 20)
#    0.000    2.750    1.250    1.500    0.000    3.750 
#    0.000    1.250    0.000    2.250    0.000    1.750 
#    0.000    0.000    0.000    0.000    0.000    0.000 
#
# Total GULP energy -356425.521349 kJ/mol
# GULP energy per Si atom -5569.148771 kJ/mol
# Density = 1.945257 g / cm^3
# Si number density = 19.496949 Si / 1000 Ang^3
#
#
#
# Elastic Constant Matrix: (Units=GPa)
#
#
# Indices 1 2 3 4 5 6 
#
# 1 84.4098 13.3648 61.0900 0.0000 0.0000 0.0000
# 2 13.3648 37.9175 7.2679 0.0000 0.0000 0.0000
# 3 61.0900 7.2679 137.6296 0.0000 0.0000 0.0000
# 4 0.0000 0.0000 0.0000 2.3625 0.0000 0.0000
# 5 0.0000 0.0000 0.0000 0.0000 12.7849 0.0000
# 6 0.0000 0.0000 0.0000 0.0000 0.0000 8.6572
#
#
#
# Elastic Compliance Matrix: (Units=1/GPa)
#
#
# Indices 1 2 3 4 5 6 
#
# 1 0.018330 -0.004951 -0.007875 0.000000 0.000000 0.000000
# 2 -0.004951 0.027980 0.000720 0.000000 0.000000 0.000000
# 3 -0.007875 0.000720 0.010723 0.000000 0.000000 0.000000
# 4 0.000000 0.000000 0.000000 0.423277 0.000000 0.000000
# 5 0.000000 0.000000 0.000000 0.000000 0.078217 0.000000
# 6 0.000000 0.000000 0.000000 0.000000 0.000000 0.115510
#
#
# Mechanical properties :
#
#
# Convention : Reuss Voigt Hill
#
# Bulk Modulus (GPa) = 30.46767 47.04470 38.75618
# Shear Modulus (GPa) = 7.05029 16.64321 11.84675
#
# Velocity S-wave (km/s) = 1.90367 2.92487 2.46767
# Velocity P-wave (km/s) = 4.52689 5.96558 5.29532
#
# Compressibility (1/GPa) = 0.03282168
#
# Stress axis : x y z
#
# Youngs Moduli (GPa) = 54.55498 35.73954 93.25542
#
# Poissons Ratio (x) = 0.17696 0.73436
# Poissons Ratio (y) = 0.27012 -0.06716
# Poissons Ratio (z) = 0.42961 -0.02574
#
# Static dielectric constant tensor:
#      x y z
#    x 1.665770 0.000000 0.000000 
#    y 0.000000 1.772490 0.000000 
#    z 0.000000 0.000000 1.725960 
# 
# From -- ./inp_files/30989.got.cif
#   From: 2010.05.17/outbox.cif.g08.bks.cpg/sg59_16_cif.got.tgz:30989.got - 2010.06.03 14:40:33.
