data_PCOD9446938
_publ_section_title
;
Structure prediction by ZEFSAII (Michael W. Deem and Ramdas Pophale) SiO2 
 PCOD9446938
Probable space group: P M M N
;
_chemical_formula_sum "Si O2"
_cell_formula_units_Z 56
_cell_length_a 19.621746
_cell_length_b 7.494424
_cell_length_c 18.586343
_cell_angle_alpha 90.000000
_cell_angle_beta 90.000000
_cell_angle_gamma 90.000000
_cell_volume 2733.190213
_symmetry_space_group_name_H-M "P M M N"
_symmetry_group_IT_number 59
_space_group.IT_coordinate_system_code '2'
_symmetry_cell_setting 'orthorhombic'
loop_
_space_group_symop_operation_xyz
x,y,z
1/2-x,1/2-y,z
1/2+x,-y,-z
-x,1/2+y,-z
-x,-y,-z
1/2+x,1/2+y,-z
1/2-x,y,z
x,1/2-y,z
loop_
_atom_site_type_symbol
_atom_site_label
_atom_site_fract_x
_atom_site_fract_y
_atom_site_fract_z
Si Si1 0.934686 0.469494 0.695521
Si Si2 0.828875 0.964234 0.970586
Si Si3 0.172487 0.961091 0.186938
Si Si4 0.170399 0.468134 0.871891
Si Si5 0.574630 0.463541 0.531991
Si Si6 0.085520 0.038132 0.735989
Si Si7 0.672421 0.034585 0.406446
O O1 0.935226 0.250000 0.695187
O O2 0.877277 0.530345 0.751456
O O3 0.921043 0.528747 0.613816
O O4 0.009662 0.529936 0.720348
O O5 0.750000 0.025599 0.968787
O O6 0.828857 0.750000 0.971693
O O7 0.858024 0.016987 0.893380
O O8 0.855390 0.023455 0.048587
O O9 0.250000 0.035174 0.188540
O O10 0.178177 0.750000 0.199034
O O11 0.250000 0.520697 0.863614
O O12 0.170544 0.250000 0.870632
O O13 0.124214 0.532835 0.806351
O O14 0.500000 0.500000 0.500000
O O15 0.582675 0.250000 0.535207
O O16 0.630673 0.531864 0.475784
O O17 0.078500 0.250000 0.747132
O O18 0.131748 0.011441 0.665730
O O19 0.750000 0.969872 0.404140
O O20 0.674253 0.250000 0.410389
#
# Coordination Sequence:
#
# PCOD9446938 Si02
#       7
#     8   8   8   8   8   8   8
#     4   9  18  31  49  72  95 122 159 200 241 283
#     4   8  14  27  46  66  90 120 155 195 239 286
#     4   9  17  30  48  69  93 122 159 201 242 286
#     4   8  14  25  44  69  92 119 157 196 234 280
#     4  10  19  34  53  71  95 128 164 197 237 287
#     4  10  18  31  51  72  96 127 164 201 236 281
#     4  10  21  34  49  73 103 130 157 196 244 288
#
# _framework density 20.488879000000001
#
# number of rings (size 3 to 8) (size 9 to 14) (size 15 to 20)
#    0.000    2.857    1.429    1.286    0.000    1.429 
#    0.000    5.714    0.000    2.571    0.000    2.000 
#    0.000    0.000    0.000    0.000    0.000    0.000 
#
# Total GULP energy -312330.471929 kJ/mol
# GULP energy per Si atom -5577.329856 kJ/mol
# Density = 2.044225 g / cm^3
# Si number density = 20.488879 Si / 1000 Ang^3
#
#
#
# Elastic Constant Matrix: (Units=GPa)
#
#
# Indices 1 2 3 4 5 6 
#
# 1 125.5563 -0.4763 106.8645 0.0000 0.0000 0.0000
# 2 -0.4763 52.3549 0.3412 0.0000 0.0000 0.0000
# 3 106.8645 0.3412 242.5340 0.0000 0.0000 0.0000
# 4 0.0000 0.0000 0.0000 16.3367 0.0000 0.0000
# 5 0.0000 0.0000 0.0000 0.0000 30.0443 0.0000
# 6 0.0000 0.0000 0.0000 0.0000 0.0000 2.1657
#
#
#
# Elastic Compliance Matrix: (Units=1/GPa)
#
#
# Indices 1 2 3 4 5 6 
#
# 1 0.012745 0.000153 -0.005616 0.000000 0.000000 0.000000
# 2 0.000153 0.019102 -0.000094 0.000000 0.000000 0.000000
# 3 -0.005616 -0.000094 0.006598 0.000000 0.000000 0.000000
# 4 0.000000 0.000000 0.000000 0.061212 0.000000 0.000000
# 5 0.000000 0.000000 0.000000 0.000000 0.033284 0.000000
# 6 0.000000 0.000000 0.000000 0.000000 0.000000 0.461755
#
#
# Mechanical properties :
#
#
# Convention : Reuss Voigt Hill
#
# Bulk Modulus (GPa) = 36.58946 70.43377 53.51162
# Shear Modulus (GPa) = 8.13113 30.62371 19.37742
#
# Velocity S-wave (km/s) = 1.99429 3.87026 3.07865
# Velocity P-wave (km/s) = 4.81662 7.37720 6.22989
#
# Compressibility (1/GPa) = 0.02733028
#
# Stress axis : x y z
#
# Youngs Moduli (GPa) = 78.46250 52.34940 151.56791
#
# Poissons Ratio (x) = -0.00799 0.85118
# Poissons Ratio (y) = -0.01197 0.01426
# Poissons Ratio (z) = 0.44063 0.00493
#
# Static dielectric constant tensor:
#      x y z
#    x 1.701140 0.000000 0.000000 
#    y 0.000000 1.799390 0.000000 
#    z 0.000000 0.000000 1.730810 
# 
# From -- ./inp_files/28102.got.cif
#   From: 2010.05.17/outbox.cif.g08.bks.cpg/sg59_15_cif.got.tgz:28102.got - 2010.06.03 14:40:33.
