data_PCOD9446048
_publ_section_title
;
Structure prediction by ZEFSAII (Michael W. Deem and Ramdas Pophale) SiO2 
 PCOD9446048
Probable space group: P N N M
;
_chemical_formula_sum "Si O2"
_cell_formula_units_Z 40
_cell_length_a 12.000000
_cell_length_b 18.000000
_cell_length_c 9.000000
_cell_angle_alpha 90.000000
_cell_angle_beta 90.000000
_cell_angle_gamma 90.000000
_cell_volume 1944.000000
_symmetry_space_group_name_H-M "P N N M"
_symmetry_group_IT_number 58
_symmetry_cell_setting 'orthorhombic'
loop_
_space_group_symop_operation_xyz
x,y,z
-x,-y,z
1/2+x,1/2-y,1/2-z
1/2-x,1/2+y,1/2-z
-x,-y,-z
x,y,-z
1/2-x,1/2+y,1/2+z
1/2+x,1/2-y,1/2+z
loop_
_atom_site_type_symbol
_atom_site_label
_atom_site_fract_x
_atom_site_fract_y
_atom_site_fract_z
Si Si1 0.101580 0.822806 0.324962
Si Si2 0.177576 0.376269 0.326776
Si Si3 0.066862 0.076701 0.827132
Si Si4 0.170100 0.550995 0.329533
Si Si5 0.961927 0.325007 0.825925
O O1 0.119073 0.826575 0.500000
O O2 0.200077 0.864314 0.238288
O O3 0.098433 0.739161 0.266455
O O4 0.986290 0.861834 0.278221
O O5 0.173672 0.354690 0.500000
O O6 0.149353 0.463448 0.317012
O O7 0.088085 0.331270 0.231885
O O8 0.198146 0.064665 0.806898
O O9 0.048060 0.097908 0.000000
O O10 0.000000 0.000000 0.802026
O O11 0.141704 0.573272 0.500000
O O12 0.099193 0.598577 0.215524
O O13 0.957797 0.309438 0.000000
#
# Coordination Sequence:
#
# PCOD9446048 Si02
#       5
#     8   8   8   8   8
#     4  12  26  43  65  96 133 173 218 269 326 385
#     4  11  23  45  71  96 129 170 217 267 326 390
#     4  10  20  41  68  96 129 170 216 263 320 384
#     4  10  22  42  70  98 130 171 216 266 325 390
#     4  12  27  44  65  95 134 175 218 270 326 386
#
# _framework density 20.576132000000001
#
# number of rings (size 3 to 8) (size 9 to 14) (size 15 to 20)
#    0.000    1.000    2.000    4.800    2.800    5.200 
#    0.000    0.000    0.000    0.000    0.000    0.000 
#    0.000    0.000    0.000    0.000    0.000    0.000 
#
# Total GULP energy -223839.981453 kJ/mol
# GULP energy per Si atom -5595.999536 kJ/mol
# Density = 2.052930 g / cm^3
# Si number density = 20.576132 Si / 1000 Ang^3
#
#
#
# Elastic Constant Matrix: (Units=GPa)
#
#
# Indices 1 2 3 4 5 6 
#
# 1 40.1718 -4.7141 12.6384 0.0000 0.0000 0.0000
# 2 -4.7141 38.2645 10.3448 0.0000 0.0000 0.0000
# 3 12.6384 10.3448 38.8399 0.0000 0.0000 0.0000
# 4 0.0000 0.0000 0.0000 67.7770 0.0000 0.0000
# 5 0.0000 0.0000 0.0000 0.0000 60.2884 0.0000
# 6 0.0000 0.0000 0.0000 0.0000 0.0000 22.4696
#
#
#
# Elastic Compliance Matrix: (Units=1/GPa)
#
#
# Indices 1 2 3 4 5 6 
#
# 1 0.029222 0.006650 -0.011280 0.000000 0.000000 0.000000
# 2 0.006650 0.029675 -0.010068 0.000000 0.000000 0.000000
# 3 -0.011280 -0.010068 0.032099 0.000000 0.000000 0.000000
# 4 0.000000 0.000000 0.000000 0.014754 0.000000 0.000000
# 5 0.000000 0.000000 0.000000 0.000000 0.016587 0.000000
# 6 0.000000 0.000000 0.000000 0.000000 0.000000 0.044504
#
#
# Mechanical properties :
#
#
# Convention : Reuss Voigt Hill
#
# Bulk Modulus (GPa) = 16.23376 17.09049 16.66212
# Shear Modulus (GPa) = 23.06590 36.70748 29.88669
#
# Velocity S-wave (km/s) = 3.35177 4.22831 3.81529
# Velocity P-wave (km/s) = 4.78392 5.67116 5.24633
#
# Compressibility (1/GPa) = 0.06160002
#
# Stress axis : x y z
#
# Youngs Moduli (GPa) = 34.22062 33.69858 31.15397
#
# Poissons Ratio (x) = -0.22408 0.35141
# Poissons Ratio (y) = -0.22755 0.31364
# Poissons Ratio (z) = 0.38600 0.33926
#
# Static dielectric constant tensor:
#      x y z
#    x 1.722540 0.000000 0.000000 
#    y 0.000000 1.747290 0.000000 
#    z 0.000000 0.000000 1.684000 
# 
# From -- ./inp_files/3768.got.cif
#   From: 2010.05.17/outbox.ucp.g08.bks.cvg/sg58_2_cif.got.tgz:3768.got - 2010.06.11 16:41:41.
