data_PCOD9446899
_publ_section_title
;
Structure prediction by ZEFSAII (Michael W. Deem and Ramdas Pophale) SiO2 
 PCOD9446899
Probable space group: P M M N
;
_chemical_formula_sum "Si O2"
_cell_formula_units_Z 48
_cell_length_a 8.567819
_cell_length_b 20.066187
_cell_length_c 15.787752
_cell_angle_alpha 90.000000
_cell_angle_beta 90.000000
_cell_angle_gamma 90.000000
_cell_volume 2714.284922
_symmetry_space_group_name_H-M "P M M N"
_symmetry_group_IT_number 59
_space_group.IT_coordinate_system_code '2'
_symmetry_cell_setting 'orthorhombic'
loop_
_space_group_symop_operation_xyz
x,y,z
1/2-x,1/2-y,z
1/2+x,-y,-z
-x,1/2+y,-z
-x,-y,-z
1/2+x,1/2+y,-z
1/2-x,y,z
x,1/2-y,z
loop_
_atom_site_type_symbol
_atom_site_label
_atom_site_fract_x
_atom_site_fract_y
_atom_site_fract_z
Si Si1 0.566435 0.750000 0.014306
Si Si2 0.434119 0.826117 0.868924
Si Si3 0.433824 0.111634 0.289402
Si Si4 0.434942 0.750000 0.200374
Si Si5 0.568964 0.250000 0.353447
Si Si6 0.563816 0.354039 0.653883
Si Si7 0.063802 0.006731 0.596599
Si Si8 0.928821 0.750000 0.472166
O O1 0.750000 0.750000 0.000895
O O2 0.495956 0.814022 0.964050
O O3 0.523834 0.750000 0.112140
O O4 0.250000 0.838086 0.869295
O O5 0.460443 0.750000 0.833696
O O6 0.516000 0.879814 0.809108
O O7 0.250000 0.100097 0.295720
O O8 0.481851 0.183198 0.326145
O O9 0.521895 0.057062 0.345775
O O10 0.250000 0.750000 0.182423
O O11 0.468346 0.815247 0.258038
O O12 0.750000 0.250000 0.326716
O O13 0.554420 0.250000 0.454243
O O14 0.750000 0.346439 0.638252
O O15 0.515159 0.430223 0.643237
O O16 0.463841 0.313975 0.584983
O O17 0.250000 0.015081 0.592318
O O18 0.000000 0.000000 0.500000
O O19 0.750000 0.750000 0.502853
#
# Coordination Sequence:
#
# PCOD9446899 Si02
#       8
#     4   8   8   4   4   8   8   4
#     4  10  18  30  54  88 119 145 180 226 274 331
#     4   9  18  33  53  79 112 143 177 220 272 327
#     4  12  23  36  55  80 110 145 186 231 280 332
#     4   9  19  36  61  87 114 147 180 225 281 334
#     4  12  22  34  50  74 105 139 182 228 278 329
#     4  10  21  39  58  80 109 143 186 232 280 331
#     4  12  25  41  58  79 111 152 195 236 282 334
#     4  11  21  34  53  77 104 137 178 229 281 328
#
# _framework density 17.684217
#
# number of rings (size 3 to 8) (size 9 to 14) (size 15 to 20)
#    0.500    0.833    0.833    7.500    0.000    2.000 
#    0.000    0.000    0.000    1.000    0.000    0.000 
#    0.000    0.000    0.000    0.000    0.000    0.000 
#
# Total GULP energy -267694.458773 kJ/mol
# GULP energy per Si atom -5576.967891 kJ/mol
# Density = 1.764397 g / cm^3
# Si number density = 17.684217 Si / 1000 Ang^3
#
#
#
# Elastic Constant Matrix: (Units=GPa)
#
#
# Indices 1 2 3 4 5 6 
#
# 1 85.7955 11.0944 26.0150 0.0000 0.0000 0.0000
# 2 11.0944 92.8285 29.5397 0.0000 0.0000 0.0000
# 3 26.0150 29.5397 90.3230 0.0000 0.0000 0.0000
# 4 0.0000 0.0000 0.0000 9.0061 0.0000 0.0000
# 5 0.0000 0.0000 0.0000 0.0000 31.7136 0.0000
# 6 0.0000 0.0000 0.0000 0.0000 0.0000 19.3552
#
#
#
# Elastic Compliance Matrix: (Units=1/GPa)
#
#
# Indices 1 2 3 4 5 6 
#
# 1 0.012784 -0.000398 -0.003552 0.000000 0.000000 0.000000
# 2 -0.000398 0.012036 -0.003822 0.000000 0.000000 0.000000
# 3 -0.003552 -0.003822 0.013344 0.000000 0.000000 0.000000
# 4 0.000000 0.000000 0.000000 0.111036 0.000000 0.000000
# 5 0.000000 0.000000 0.000000 0.000000 0.031532 0.000000
# 6 0.000000 0.000000 0.000000 0.000000 0.000000 0.051666
#
#
# Mechanical properties :
#
#
# Convention : Reuss Voigt Hill
#
# Bulk Modulus (GPa) = 44.20539 44.69392 44.44966
# Shear Modulus (GPa) = 19.57084 25.50152 22.53618
#
# Velocity S-wave (km/s) = 3.33029 3.80155 3.57370
# Velocity P-wave (km/s) = 6.31183 6.67812 6.49756
#
# Compressibility (1/GPa) = 0.02262168
#
# Stress axis : x y z
#
# Youngs Moduli (GPa) = 78.22217 83.08220 74.93791
#
# Poissons Ratio (x) = 0.03303 0.26619
# Poissons Ratio (y) = 0.03110 0.28641
# Poissons Ratio (z) = 0.27785 0.31753
#
# Static dielectric constant tensor:
#      x y z
#    x 1.587000 0.000000 0.000000 
#    y 0.000000 1.611260 0.000000 
#    z 0.000000 0.000000 1.644640 
# 
# From -- ./inp_files/20652.got.cif
#   From: 2010.05.17/outbox.cif.g08.bks.cpg/sg59_11_cif.got.tgz:20652.got - 2010.06.03 14:40:33.
