data_PCOD9446613
_publ_section_title
;
Structure prediction by ZEFSAII (Michael W. Deem and Ramdas Pophale) SiO2 
 PCOD9446613
Probable space group: P M M N
;
_chemical_formula_sum "Si O2"
_cell_formula_units_Z 64
_cell_length_a 8.600800
_cell_length_b 22.273822
_cell_length_c 19.737626
_cell_angle_alpha 90.000000
_cell_angle_beta 90.000000
_cell_angle_gamma 90.000000
_cell_volume 3781.190073
_symmetry_space_group_name_H-M "P M M N"
_symmetry_group_IT_number 59
_space_group.IT_coordinate_system_code '2'
_symmetry_cell_setting 'orthorhombic'
loop_
_space_group_symop_operation_xyz
x,y,z
1/2-x,1/2-y,z
1/2+x,-y,-z
-x,1/2+y,-z
-x,-y,-z
1/2+x,1/2+y,-z
1/2-x,y,z
x,1/2-y,z
loop_
_atom_site_type_symbol
_atom_site_label
_atom_site_fract_x
_atom_site_fract_y
_atom_site_fract_z
Si Si1 0.435405 0.393086 0.098044
Si Si2 0.564040 0.989592 0.173663
Si Si3 0.437262 0.440169 0.963056
Si Si4 0.429761 0.180275 0.221136
Si Si5 0.435562 0.441990 0.541271
Si Si6 0.562177 0.682267 0.530004
Si Si7 0.430133 0.619157 0.656165
Si Si8 0.933139 0.010104 0.675187
O O1 0.250000 0.406321 0.099162
O O2 0.517294 0.446923 0.139321
O O3 0.459684 0.334436 0.142824
O O4 0.482530 0.390754 0.019182
O O5 0.750000 0.987355 0.181777
O O6 0.511859 0.942020 0.115226
O O7 0.489773 0.982478 0.247459
O O8 0.250000 0.442920 0.960063
O O9 0.500000 0.500000 0.000000
O O10 0.250000 0.161670 0.236092
O O11 0.443525 0.250000 0.235140
O O12 0.543975 0.143620 0.268612
O O13 0.500000 0.500000 0.500000
O O14 0.250000 0.444492 0.535162
O O15 0.487947 0.376865 0.512566
O O16 0.484600 0.448526 0.619436
O O17 0.750000 0.681784 0.531734
O O18 0.514581 0.750000 0.508344
O O19 0.497089 0.667999 0.604500
O O20 0.750000 0.481066 0.671965
O O21 0.524789 0.557531 0.652021
O O22 0.250000 0.892845 0.642144
#
# Coordination Sequence:
#
# PCOD9446613 Si02
#       8
#     8   8   8   8   8   8   8   8
#     4   9  16  28  45  64  92 130 165 199 246 298
#     4  10  18  29  46  70  97 124 161 207 254 302
#     4   8  15  26  42  65  91 120 155 195 239 289
#     4  10  20  32  46  66  97 137 176 210 249 301
#     4  11  22  37  58  82 109 139 173 213 260 313
#     4  10  22  40  60  80 105 139 175 211 258 316
#     4  12  23  34  51  74 102 136 177 219 258 304
#     4  12  23  35  52  74 104 140 175 214 263 316
#
# _framework density 16.925889000000002
#
# number of rings (size 3 to 8) (size 9 to 14) (size 15 to 20)
#    0.000    1.750    2.500    3.375    0.000    3.000 
#    0.000    0.000    0.000    0.000    0.000    0.875 
#    0.000    5.000    0.000    0.000    0.000    0.000 
#
# Total GULP energy -356627.237449 kJ/mol
# GULP energy per Si atom -5572.300585 kJ/mol
# Density = 1.688736 g / cm^3
# Si number density = 16.925889 Si / 1000 Ang^3
#
#
#
# Elastic Constant Matrix: (Units=GPa)
#
#
# Indices 1 2 3 4 5 6 
#
# 1 27.1823 18.4023 14.6413 0.0000 0.0000 0.0000
# 2 18.4023 65.4285 39.3825 0.0000 0.0000 0.0000
# 3 14.6413 39.3825 96.3906 0.0000 0.0000 0.0000
# 4 0.0000 0.0000 0.0000 22.2929 0.0000 0.0000
# 5 0.0000 0.0000 0.0000 0.0000 20.7058 0.0000
# 6 0.0000 0.0000 0.0000 0.0000 0.0000 12.7812
#
#
#
# Elastic Compliance Matrix: (Units=1/GPa)
#
#
# Indices 1 2 3 4 5 6 
#
# 1 0.045805 -0.011531 -0.002246 0.000000 0.000000 0.000000
# 2 -0.011531 0.023171 -0.007716 0.000000 0.000000 0.000000
# 3 -0.002246 -0.007716 0.013868 0.000000 0.000000 0.000000
# 4 0.000000 0.000000 0.000000 0.044857 0.000000 0.000000
# 5 0.000000 0.000000 0.000000 0.000000 0.048296 0.000000
# 6 0.000000 0.000000 0.000000 0.000000 0.000000 0.078240
#
#
# Mechanical properties :
#
#
# Convention : Reuss Voigt Hill
#
# Bulk Modulus (GPa) = 25.08878 37.09484 31.09181
# Shear Modulus (GPa) = 16.10257 18.92764 17.51511
#
# Velocity S-wave (km/s) = 3.08775 3.34768 3.22034
# Velocity P-wave (km/s) = 5.25045 6.07505 5.67774
#
# Compressibility (1/GPa) = 0.03985846
#
# Stress axis : x y z
#
# Youngs Moduli (GPa) = 21.83169 43.15703 72.10814
#
# Poissons Ratio (x) = 0.49764 0.16198
# Poissons Ratio (y) = 0.25174 0.55636
# Poissons Ratio (z) = 0.04904 0.33298
#
# Static dielectric constant tensor:
#      x y z
#    x 1.591310 0.000000 0.000000 
#    y 0.000000 1.581690 0.000000 
#    z 0.000000 0.000000 1.618850 
# 
# From -- ./inp_files/29669.got.cif
#   From: 2010.05.17/outbox.cif.g08.bks.cpg/sg59_15_cif.got.tgz:29669.got - 2010.06.03 14:40:33.
