data_PCOD9446728
_publ_section_title
;
Structure prediction by ZEFSAII (Michael W. Deem and Ramdas Pophale) SiO2 
 PCOD9446728
Probable space group: P M M N
;
_chemical_formula_sum "Si O2"
_cell_formula_units_Z 64
_cell_length_a 30.828373
_cell_length_b 7.565116
_cell_length_c 15.329777
_cell_angle_alpha 90.000000
_cell_angle_beta 90.000000
_cell_angle_gamma 90.000000
_cell_volume 3575.213931
_symmetry_space_group_name_H-M "P M M N"
_symmetry_group_IT_number 59
_space_group.IT_coordinate_system_code '2'
_symmetry_cell_setting 'orthorhombic'
loop_
_space_group_symop_operation_xyz
x,y,z
1/2-x,1/2-y,z
1/2+x,-y,-z
-x,1/2+y,-z
-x,-y,-z
1/2+x,1/2+y,-z
1/2-x,y,z
x,1/2-y,z
loop_
_atom_site_type_symbol
_atom_site_label
_atom_site_fract_x
_atom_site_fract_y
_atom_site_fract_z
Si Si1 0.436518 0.537031 0.950419
Si Si2 0.621846 0.045856 0.198035
Si Si3 0.964542 0.536948 0.674519
Si Si4 0.563370 0.540814 0.357191
Si Si5 0.472369 0.460994 0.129193
Si Si6 0.298413 0.964209 0.692010
Si Si7 0.107405 0.032919 0.462301
Si Si8 0.297862 0.456776 0.488496
O O1 0.436901 0.750000 0.942669
O O2 0.397273 0.468757 0.891065
O O3 0.481568 0.469754 0.907493
O O4 0.438012 0.495297 0.052534
O O5 0.632927 0.250000 0.179871
O O6 0.663771 0.967435 0.245478
O O7 0.583535 0.041988 0.270034
O O8 0.961672 0.750000 0.676134
O O9 0.962193 0.471083 0.774337
O O10 0.925907 0.474469 0.612287
O O11 0.012100 0.492101 0.637735
O O12 0.570561 0.750000 0.349922
O O13 0.588318 0.477522 0.443623
O O14 0.476849 0.250000 0.136938
O O15 0.250000 0.010066 0.722287
O O16 0.301394 0.750000 0.686723
O O17 0.303236 0.031091 0.593300
O O18 0.107902 0.250000 0.463060
O O19 0.157000 0.971127 0.450819
O O20 0.250000 0.533585 0.467862
O O21 0.296204 0.250000 0.464844
#
# Coordination Sequence:
#
# PCOD9446728 Si02
#       8
#     8   8   8   8   8   8   8   8
#     4   9  17  29  44  62  83 109 142 176 215 257
#     4  10  18  30  46  64  89 121 148 173 215 264
#     4  10  19  33  47  59  86 121 152 182 218 260
#     4  11  20  29  42  65  92 117 152 183 208 249
#     4   9  17  29  44  62  81 109 145 179 216 253
#     4   9  17  28  44  66  89 114 145 179 213 254
#     4   9  18  30  44  64  88 118 151 181 212 255
#     4   9  16  28  45  64  88 115 144 179 218 255
#
# _framework density 17.901026999999999
#
# number of rings (size 3 to 8) (size 9 to 14) (size 15 to 20)
#    0.000    2.500    2.500    0.750    0.000    1.000 
#    0.000    1.250    0.000    0.000    0.000    0.875 
#    0.000    1.000    0.000    0.000    0.000    0.000 
#
# Total GULP energy -356872.743105 kJ/mol
# GULP energy per Si atom -5576.136611 kJ/mol
# Density = 1.786028 g / cm^3
# Si number density = 17.901027 Si / 1000 Ang^3
#
#
#
# Elastic Constant Matrix: (Units=GPa)
#
#
# Indices 1 2 3 4 5 6 
#
# 1 132.6404 -3.2427 35.3047 0.0000 0.0000 0.0000
# 2 -3.2427 42.8699 -0.7253 0.0000 0.0000 0.0000
# 3 35.3047 -0.7253 59.9274 0.0000 0.0000 0.0000
# 4 0.0000 0.0000 0.0000 10.5692 0.0000 0.0000
# 5 0.0000 0.0000 0.0000 0.0000 21.0623 0.0000
# 6 0.0000 0.0000 0.0000 0.0000 0.0000 5.9686
#
#
#
# Elastic Compliance Matrix: (Units=1/GPa)
#
#
# Indices 1 2 3 4 5 6 
#
# 1 0.008956 0.000588 -0.005269 0.000000 0.000000 0.000000
# 2 0.000588 0.023370 -0.000064 0.000000 0.000000 0.000000
# 3 -0.005269 -0.000064 0.019790 0.000000 0.000000 0.000000
# 4 0.000000 0.000000 0.000000 0.094615 0.000000 0.000000
# 5 0.000000 0.000000 0.000000 0.000000 0.047478 0.000000
# 6 0.000000 0.000000 0.000000 0.000000 0.000000 0.167543
#
#
# Mechanical properties :
#
#
# Convention : Reuss Voigt Hill
#
# Bulk Modulus (GPa) = 23.45932 33.12347 28.29140
# Shear Modulus (GPa) = 12.97184 21.12675 17.04929
#
# Velocity S-wave (km/s) = 2.69484 3.43913 3.08948
# Velocity P-wave (km/s) = 4.77664 5.85781 5.34464
#
# Compressibility (1/GPa) = 0.04262697
#
# Stress axis : x y z
#
# Youngs Moduli (GPa) = 111.65655 42.79028 50.52992
#
# Poissons Ratio (x) = -0.02517 0.26625
# Poissons Ratio (y) = -0.06569 0.00322
# Poissons Ratio (z) = 0.58833 0.00273
#
# Static dielectric constant tensor:
#      x y z
#    x 1.636830 0.000000 0.000000 
#    y 0.000000 1.665520 0.000000 
#    z 0.000000 0.000000 1.602420 
# 
# From -- ./inp_files/21913.got.cif
#   From: 2010.05.17/outbox.cif.g08.bks.cpg/sg59_11_cif.got.tgz:21913.got - 2010.06.03 14:40:33.
