data_PCOD9446792
_publ_section_title
;
Structure prediction by ZEFSAII (Michael W. Deem and Ramdas Pophale) SiO2 
 PCOD9446792
Probable space group: P M M N
;
_chemical_formula_sum "Si O2"
_cell_formula_units_Z 64
_cell_length_a 17.195119
_cell_length_b 26.937345
_cell_length_c 8.588967
_cell_angle_alpha 90.000000
_cell_angle_beta 90.000000
_cell_angle_gamma 90.000000
_cell_volume 3978.330950
_symmetry_space_group_name_H-M "P M M N"
_symmetry_group_IT_number 59
_space_group.IT_coordinate_system_code '2'
_symmetry_cell_setting 'orthorhombic'
loop_
_space_group_symop_operation_xyz
x,y,z
1/2-x,1/2-y,z
1/2+x,-y,-z
-x,1/2+y,-z
-x,-y,-z
1/2+x,1/2+y,-z
1/2-x,y,z
x,1/2-y,z
loop_
_atom_site_type_symbol
_atom_site_label
_atom_site_fract_x
_atom_site_fract_y
_atom_site_fract_z
Si Si1 0.426647 0.611797 0.801225
Si Si2 0.919858 0.893983 0.595860
Si Si3 0.659315 0.103935 0.510098
Si Si4 0.984605 0.372516 0.709343
Si Si5 0.989186 0.692334 0.001565
Si Si6 0.060219 0.961358 0.070850
Si Si7 0.341064 0.191954 0.209531
Si Si8 0.158321 0.497617 0.349328
O O1 0.506359 0.597684 0.710652
O O2 0.363647 0.617643 0.665747
O O3 0.450938 0.660876 0.895934
O O4 0.404831 0.570248 0.927909
O O5 0.868082 0.849181 0.665258
O O6 0.954840 0.878998 0.429867
O O7 0.876004 0.946232 0.589120
O O8 0.750000 0.112885 0.542422
O O9 0.600336 0.131024 0.628437
O O10 0.643038 0.045117 0.539297
O O11 0.982644 0.421253 0.818690
O O12 0.004118 0.327788 0.823952
O O13 0.007050 0.750000 0.991811
O O14 0.902187 0.684855 0.931962
O O15 0.120876 0.988713 0.182844
O O16 0.000000 0.000000 0.000000
O O17 0.250000 0.184928 0.170030
O O18 0.350127 0.250000 0.260748
O O19 0.250000 0.492707 0.332571
#
# Coordination Sequence:
#
# PCOD9446792 Si02
#       8
#     8   8   8   8   8   8   8   8
#     4   9  18  31  53  76  94 132 166 201 251 298
#     4  10  18  31  49  72 101 128 171 204 242 296
#     4   9  19  34  51  73 103 133 165 205 253 305
#     4   9  20  32  51  75  96 132 169 201 252 297
#     4   9  18  35  55  77 100 126 169 213 248 298
#     4  10  18  30  49  71  97 129 168 204 239 296
#     4   9  18  33  52  72  98 133 168 207 253 293
#     4  10  20  31  46  70 102 138 166 205 254 290
#
# _framework density 16.087147000000002
#
# number of rings (size 3 to 8) (size 9 to 14) (size 15 to 20)
#    0.000    2.625    1.250    0.375    1.750    2.500 
#    0.000    5.000    0.000    3.750    0.000    0.000 
#    0.000    0.000    0.000    0.000    0.000    0.000 
#
# Total GULP energy -356506.681817 kJ/mol
# GULP energy per Si atom -5570.416903 kJ/mol
# Density = 1.605053 g / cm^3
# Si number density = 16.087147 Si / 1000 Ang^3
#
#
#
# Elastic Constant Matrix: (Units=GPa)
#
#
# Indices 1 2 3 4 5 6 
#
# 1 71.5742 37.2202 37.2955 0.0000 0.0000 0.0000
# 2 37.2202 49.5491 40.4251 0.0000 0.0000 0.0000
# 3 37.2955 40.4251 108.8994 0.0000 0.0000 0.0000
# 4 0.0000 0.0000 0.0000 9.5274 0.0000 0.0000
# 5 0.0000 0.0000 0.0000 0.0000 15.6886 0.0000
# 6 0.0000 0.0000 0.0000 0.0000 0.0000 18.2941
#
#
#
# Elastic Compliance Matrix: (Units=1/GPa)
#
#
# Indices 1 2 3 4 5 6 
#
# 1 0.023265 -0.015744 -0.002123 0.000000 0.000000 0.000000
# 2 -0.015744 0.039604 -0.009310 0.000000 0.000000 0.000000
# 3 -0.002123 -0.009310 0.013366 0.000000 0.000000 0.000000
# 4 0.000000 0.000000 0.000000 0.104961 0.000000 0.000000
# 5 0.000000 0.000000 0.000000 0.000000 0.063740 0.000000
# 6 0.000000 0.000000 0.000000 0.000000 0.000000 0.054663
#
#
# Mechanical properties :
#
#
# Convention : Reuss Voigt Hill
#
# Bulk Modulus (GPa) = 45.70172 51.10050 48.40111
# Shear Modulus (GPa) = 13.84099 16.37414 15.10756
#
# Velocity S-wave (km/s) = 2.93640 3.19382 3.06781
# Velocity P-wave (km/s) = 6.32195 6.74051 6.53458
#
# Compressibility (1/GPa) = 0.02188101
#
# Stress axis : x y z
#
# Youngs Moduli (GPa) = 42.98273 25.25012 74.81742
#
# Poissons Ratio (x) = 0.39753 0.15887
# Poissons Ratio (y) = 0.67671 0.69652
# Poissons Ratio (z) = 0.09127 0.23507
#
# Static dielectric constant tensor:
#      x y z
#    x 1.526860 0.000000 0.000000 
#    y 0.000000 1.539920 0.000000 
#    z 0.000000 0.000000 1.532150 
# 
# From -- ./inp_files/10800.got.cif
#   From: 2010.05.17/outbox.cif.g08.bks.cpg/sg59_6_cif.got.tgz:10800.got - 2010.06.03 14:40:33.
