data_PCOD9446517
_publ_section_title
;
Structure prediction by ZEFSAII (Michael W. Deem and Ramdas Pophale) SiO2 
 PCOD9446517
Probable space group: P M M N
;
_chemical_formula_sum "Si O2"
_cell_formula_units_Z 48
_cell_length_a 18.737587
_cell_length_b 7.728843
_cell_length_c 17.172305
_cell_angle_alpha 90.000000
_cell_angle_beta 90.000000
_cell_angle_gamma 90.000000
_cell_volume 2486.890945
_symmetry_space_group_name_H-M "P M M N"
_symmetry_group_IT_number 59
_space_group.IT_coordinate_system_code '2'
_symmetry_cell_setting 'orthorhombic'
loop_
_space_group_symop_operation_xyz
x,y,z
1/2-x,1/2-y,z
1/2+x,-y,-z
-x,1/2+y,-z
-x,-y,-z
1/2+x,1/2+y,-z
1/2-x,y,z
x,1/2-y,z
loop_
_atom_site_type_symbol
_atom_site_label
_atom_site_fract_x
_atom_site_fract_y
_atom_site_fract_z
Si Si1 0.328882 0.042132 0.165128
Si Si2 0.916232 0.541688 0.506818
Si Si3 0.331902 0.037715 0.646388
Si Si4 0.598296 0.541713 0.678095
Si Si5 0.025642 0.954749 0.085828
Si Si6 0.951600 0.957920 0.239836
O O1 0.250000 0.977945 0.144041
O O2 0.325483 0.250000 0.170098
O O3 0.352830 0.976848 0.250812
O O4 0.393018 0.003534 0.106036
O O5 0.910227 0.750000 0.507184
O O6 0.871687 0.479666 0.432510
O O7 0.888582 0.477312 0.590787
O O8 0.000000 0.500000 0.500000
O O9 0.250000 0.982552 0.649170
O O10 0.332411 0.250000 0.646041
O O11 0.379313 0.979457 0.719893
O O12 0.605169 0.750000 0.676776
O O13 0.517463 0.498112 0.702765
O O14 0.021967 0.750000 0.092636
O O15 0.975545 0.027612 0.155403
O O16 0.000000 0.000000 0.000000
O O17 0.945808 0.750000 0.234289
#
# Coordination Sequence:
#
# PCOD9446517 Si02
#       6
#     8   8   8   8   8   8
#     4   9  18  33  52  75 105 135 164 205 256 304
#     4  10  18  28  46  70  97 131 168 205 244 289
#     4   9  17  29  46  69  96 126 163 205 242 279
#     4   9  17  28  46  72  97 127 164 201 243 291
#     4  10  20  34  54  78 102 130 167 208 251 307
#     4   9  17  31  50  70  93 125 163 200 241 293
#
# _framework density 19.301207000000002
#
# number of rings (size 3 to 8) (size 9 to 14) (size 15 to 20)
#    0.000    2.667    1.667    0.500    0.000    1.667 
#    0.000    4.167    0.000    5.000    0.000    2.333 
#    0.000    0.000    0.000    0.000    0.000    0.000 
#
# Total GULP energy -267638.072620 kJ/mol
# GULP energy per Si atom -5575.793180 kJ/mol
# Density = 1.925728 g / cm^3
# Si number density = 19.301207 Si / 1000 Ang^3
#
#
#
# Elastic Constant Matrix: (Units=GPa)
#
#
# Indices 1 2 3 4 5 6 
#
# 1 163.8992 11.2957 108.2561 0.0000 0.0000 0.0000
# 2 11.2957 27.9248 8.2361 0.0000 0.0000 0.0000
# 3 108.2561 8.2361 163.9190 0.0000 0.0000 0.0000
# 4 0.0000 0.0000 0.0000 9.9374 0.0000 0.0000
# 5 0.0000 0.0000 0.0000 0.0000 18.2720 0.0000
# 6 0.0000 0.0000 0.0000 0.0000 0.0000 19.0889
#
#
#
# Elastic Compliance Matrix: (Units=1/GPa)
#
#
# Indices 1 2 3 4 5 6 
#
# 1 0.010970 -0.002335 -0.007128 0.000000 0.000000 0.000000
# 2 -0.002335 0.036846 -0.000309 0.000000 0.000000 0.000000
# 3 -0.007128 -0.000309 0.010823 0.000000 0.000000 0.000000
# 4 0.000000 0.000000 0.000000 0.100630 0.000000 0.000000
# 5 0.000000 0.000000 0.000000 0.000000 0.054728 0.000000
# 6 0.000000 0.000000 0.000000 0.000000 0.000000 0.052387
#
#
# Mechanical properties :
#
#
# Convention : Reuss Voigt Hill
#
# Bulk Modulus (GPa) = 25.57814 67.92432 46.75123
# Shear Modulus (GPa) = 16.72465 24.65667 20.69066
#
# Velocity S-wave (km/s) = 2.94684 3.57805 3.27767
# Velocity P-wave (km/s) = 4.98592 7.23450 6.21279
#
# Compressibility (1/GPa) = 0.03909588
#
# Stress axis : x y z
#
# Youngs Moduli (GPa) = 91.15767 27.13977 92.39337
#
# Poissons Ratio (x) = 0.06338 0.65854
# Poissons Ratio (y) = 0.21287 0.02856
# Poissons Ratio (z) = 0.64973 0.00839
#
# Static dielectric constant tensor:
#      x y z
#    x 1.652220 0.000000 0.000000 
#    y 0.000000 1.734060 0.000000 
#    z 0.000000 0.000000 1.656710 
# 
# From -- ./inp_files/25738.got.cif
#   From: 2010.05.17/outbox.cif.g08.bks.cpg/sg59_13_cif.got.tgz:25738.got - 2010.06.03 14:40:33.
