data_PCOD9446444
_publ_section_title
;
Structure prediction by ZEFSAII (Michael W. Deem and Ramdas Pophale) SiO2 
 PCOD9446444
Probable space group: P M M N
;
_chemical_formula_sum "Si O2"
_cell_formula_units_Z 64
_cell_length_a 30.109766
_cell_length_b 9.337489
_cell_length_c 14.395325
_cell_angle_alpha 90.000000
_cell_angle_beta 90.000000
_cell_angle_gamma 90.000000
_cell_volume 4047.239993
_symmetry_space_group_name_H-M "P M M N"
_symmetry_group_IT_number 59
_space_group.IT_coordinate_system_code '2'
_symmetry_cell_setting 'orthorhombic'
loop_
_space_group_symop_operation_xyz
x,y,z
1/2-x,1/2-y,z
1/2+x,-y,-z
-x,1/2+y,-z
-x,-y,-z
1/2+x,1/2+y,-z
1/2-x,y,z
x,1/2-y,z
loop_
_atom_site_type_symbol
_atom_site_label
_atom_site_fract_x
_atom_site_fract_y
_atom_site_fract_z
Si Si1 0.060785 0.085388 0.961699
Si Si2 0.800677 0.421563 0.016488
Si Si3 0.351946 0.413816 0.828387
Si Si4 0.902358 0.084985 0.319318
Si Si5 0.010746 0.914538 0.812489
Si Si6 0.383405 0.579462 0.109872
Si Si7 0.452133 0.577163 0.495383
Si Si8 0.568206 0.419935 0.712425
O O1 0.047552 0.250000 0.976266
O O2 0.103530 0.086958 0.892321
O O3 0.024099 0.994859 0.906813
O O4 0.079444 0.008199 0.053189
O O5 0.750000 0.459285 0.993703
O O6 0.803232 0.250000 0.029977
O O7 0.816810 0.498812 0.110196
O O8 0.835898 0.457932 0.935068
O O9 0.338227 0.250000 0.814233
O O10 0.365858 0.490022 0.732747
O O11 0.887205 0.250000 0.327224
O O12 0.945589 0.084698 0.252644
O O13 0.920609 0.034464 0.418903
O O14 0.998662 0.750000 0.829077
O O15 0.972731 0.996049 0.757035
O O16 0.390346 0.750000 0.093840
O O17 0.390313 0.551973 0.219170
O O18 0.500000 0.500000 0.500000
O O19 0.458861 0.750000 0.502671
O O20 0.429556 0.544729 0.396197
O O21 0.558943 0.250000 0.718088
#
# Coordination Sequence:
#
# PCOD9446444 Si02
#       8
#     8   8   8   8   8   8   8   8
#     4   9  17  29  44  62  86 118 154 189 226 269
#     4   9  17  31  52  74  95 119 145 176 220 277
#     4   9  17  28  45  70  95 118 146 184 227 271
#     4   9  17  29  44  63  89 121 156 193 235 276
#     4  10  18  28  43  62  85 118 158 196 232 269
#     4   9  18  32  46  64  90 118 149 185 225 274
#     4  10  19  31  46  65  88 120 162 204 242 272
#     4  10  20  31  44  62  88 120 156 196 234 269
#
# _framework density 15.813245999999999
#
# number of rings (size 3 to 8) (size 9 to 14) (size 15 to 20)
#    0.000    2.625    1.250    1.125    0.000    5.250 
#    0.000    0.000    0.000    0.000    0.000    0.875 
#    0.000    5.000    0.000    0.125    0.000    0.375 
#
# Total GULP energy -356744.941897 kJ/mol
# GULP energy per Si atom -5574.139717 kJ/mol
# Density = 1.577725 g / cm^3
# Si number density = 15.813246 Si / 1000 Ang^3
#
#
#
# Elastic Constant Matrix: (Units=GPa)
#
#
# Indices 1 2 3 4 5 6 
#
# 1 61.2490 30.3142 42.1690 0.0000 0.0000 0.0000
# 2 30.3142 42.4522 47.1382 0.0000 0.0000 0.0000
# 3 42.1690 47.1382 133.1576 0.0000 0.0000 0.0000
# 4 0.0000 0.0000 0.0000 13.7607 0.0000 0.0000
# 5 0.0000 0.0000 0.0000 0.0000 15.0626 0.0000
# 6 0.0000 0.0000 0.0000 0.0000 0.0000 15.6516
#
#
#
# Elastic Compliance Matrix: (Units=1/GPa)
#
#
# Indices 1 2 3 4 5 6 
#
# 1 0.025835 -0.015428 -0.002720 0.000000 0.000000 0.000000
# 2 -0.015428 0.048025 -0.012115 0.000000 0.000000 0.000000
# 3 -0.002720 -0.012115 0.012660 0.000000 0.000000 0.000000
# 4 0.000000 0.000000 0.000000 0.072671 0.000000 0.000000
# 5 0.000000 0.000000 0.000000 0.000000 0.066390 0.000000
# 6 0.000000 0.000000 0.000000 0.000000 0.000000 0.063891
#
#
# Mechanical properties :
#
#
# Convention : Reuss Voigt Hill
#
# Bulk Modulus (GPa) = 38.47047 52.90017 45.68532
# Shear Modulus (GPa) = 13.94061 16.71080 15.32570
#
# Velocity S-wave (km/s) = 2.97236 3.25431 3.11652
# Velocity P-wave (km/s) = 6.01338 6.90264 6.47330
#
# Compressibility (1/GPa) = 0.02599396
#
# Stress axis : x y z
#
# Youngs Moduli (GPa) = 38.70644 20.82227 78.98794
#
# Poissons Ratio (x) = 0.32125 0.21485
# Poissons Ratio (y) = 0.59717 0.95696
# Poissons Ratio (z) = 0.10528 0.25227
#
# Static dielectric constant tensor:
#      x y z
#    x 1.512440 0.000000 0.000000 
#    y 0.000000 1.533510 0.000000 
#    z 0.000000 0.000000 1.545070 
# 
# From -- ./inp_files/21928.got.cif
#   From: 2010.05.17/outbox.cif.g08.bks.cpg/sg59_11_cif.got.tgz:21928.got - 2010.06.03 14:40:33.
