data_PCOD9446709
_publ_section_title
;
Structure prediction by ZEFSAII (Michael W. Deem and Ramdas Pophale) SiO2 
 PCOD9446709
Probable space group: P M M N
;
_chemical_formula_sum "Si O2"
_cell_formula_units_Z 32
_cell_length_a 7.588114
_cell_length_b 25.668907
_cell_length_c 7.623244
_cell_angle_alpha 90.000000
_cell_angle_beta 90.000000
_cell_angle_gamma 90.000000
_cell_volume 1484.844737
_symmetry_space_group_name_H-M "P M M N"
_symmetry_group_IT_number 59
_space_group.IT_coordinate_system_code '2'
_symmetry_cell_setting 'orthorhombic'
loop_
_space_group_symop_operation_xyz
x,y,z
1/2-x,1/2-y,z
1/2+x,-y,-z
-x,1/2+y,-z
-x,-y,-z
1/2+x,1/2+y,-z
1/2-x,y,z
x,1/2-y,z
loop_
_atom_site_type_symbol
_atom_site_label
_atom_site_fract_x
_atom_site_fract_y
_atom_site_fract_z
Si Si1 0.038795 0.636953 0.791953
Si Si2 0.455415 0.250000 0.172830
Si Si3 0.033298 0.862746 0.193598
Si Si4 0.038628 0.560809 0.492511
Si Si5 0.949058 0.250000 0.771766
O O1 0.250000 0.632219 0.798528
O O2 0.970719 0.593431 0.659372
O O3 0.998735 0.696016 0.732550
O O4 0.974425 0.631439 0.992274
O O5 0.250000 0.250000 0.129468
O O6 0.556247 0.250000 0.986200
O O7 0.250000 0.860629 0.191700
O O8 0.976790 0.909821 0.317151
O O9 0.971902 0.806539 0.267646
O O10 0.250000 0.566005 0.493168
O O11 0.000000 0.500000 0.500000
O O12 0.750000 0.250000 0.700945
#
# Coordination Sequence:
#
# PCOD9446709 Si02
#       5
#     8   4   8   8   4
#     4   9  18  34  54  73  97 132 167 198 241 298
#     4  10  18  29  50  80 107 127 154 199 251 296
#     4   8  15  30  52  75  97 124 161 202 241 287
#     4  10  21  35  51  72  98 131 172 211 245 287
#     4   8  14  29  52  74  99 129 160 195 239 298
#
# _framework density 21.551075000000001
#
# number of rings (size 3 to 8) (size 9 to 14) (size 15 to 20)
#    0.000    3.000    0.000    2.625    0.000    3.000 
#    0.000    8.750    0.000    6.000    0.000    0.000 
#    0.000    0.000    0.000    0.000    0.000    0.000 
#
# Total GULP energy -178520.240129 kJ/mol
# GULP energy per Si atom -5578.757504 kJ/mol
# Density = 2.150202 g / cm^3
# Si number density = 21.551075 Si / 1000 Ang^3
#
#
#
# Elastic Constant Matrix: (Units=GPa)
#
#
# Indices 1 2 3 4 5 6 
#
# 1 51.7896 -8.0306 5.2271 0.0000 0.0000 0.0000
# 2 -8.0306 233.7329 105.3859 0.0000 0.0000 0.0000
# 3 5.2271 105.3859 114.4709 0.0000 0.0000 0.0000
# 4 0.0000 0.0000 0.0000 40.0474 0.0000 0.0000
# 5 0.0000 0.0000 0.0000 0.0000 -1.9989 0.0000
# 6 0.0000 0.0000 0.0000 0.0000 0.0000 24.4457
#
#
#
# Elastic Compliance Matrix: (Units=1/GPa)
#
#
# Indices 1 2 3 4 5 6 
#
# 1 0.019863 0.001866 -0.002625 0.000000 0.000000 0.000000
# 2 0.001866 0.007490 -0.006981 0.000000 0.000000 0.000000
# 3 -0.002625 -0.006981 0.015282 0.000000 0.000000 0.000000
# 4 0.000000 0.000000 0.000000 0.024970 0.000000 0.000000
# 5 0.000000 0.000000 0.000000 0.000000 -0.500271 0.000000
# 6 0.000000 0.000000 0.000000 0.000000 0.000000 0.040907
#
#
# Mechanical properties :
#
#
# Convention : Reuss Voigt Hill
#
# Bulk Modulus (GPa) = 36.82394 67.23981 52.03187
# Shear Modulus (GPa) = -13.61556 32.32624 9.35534
#
# Velocity S-wave (km/s) = -2.51625 3.87716 2.08577
# Velocity P-wave (km/s) = 2.94650 7.16318 5.47691
#
# Compressibility (1/GPa) = 0.02715625
#
# Stress axis : x y z
#
# Youngs Moduli (GPa) = 50.34443 133.51149 65.43460
#
# Poissons Ratio (x) = -0.24913 0.17176
# Poissons Ratio (y) = -0.09394 0.45678
# Poissons Ratio (z) = 0.13215 0.93201
#
# Static dielectric constant tensor:
#      x y z
#    x 1.828500 0.000000 0.000000 
#    y 0.000000 1.775660 0.000000 
#    z 0.000000 0.000000 1.787970 
# 
# From -- ./inp_files/5576.got.cif
#   From: 2010.05.17/outbox.cif.g08.bks.cpg/sg59_3_cif.got.tgz:5576.got - 2010.06.03 14:40:33.
