data_PCOD9446458
_publ_section_title
;
Structure prediction by ZEFSAII (Michael W. Deem and Ramdas Pophale) SiO2 
 PCOD9446458
Probable space group: P M M N
;
_chemical_formula_sum "Si O2"
_cell_formula_units_Z 56
_cell_length_a 14.340154
_cell_length_b 14.082743
_cell_length_c 17.164196
_cell_angle_alpha 90.000000
_cell_angle_beta 90.000000
_cell_angle_gamma 90.000000
_cell_volume 3466.287126
_symmetry_space_group_name_H-M "P M M N"
_symmetry_group_IT_number 59
_space_group.IT_coordinate_system_code '2'
_symmetry_cell_setting 'orthorhombic'
loop_
_space_group_symop_operation_xyz
x,y,z
1/2-x,1/2-y,z
1/2+x,-y,-z
-x,1/2+y,-z
-x,-y,-z
1/2+x,1/2+y,-z
1/2-x,y,z
x,1/2-y,z
loop_
_atom_site_type_symbol
_atom_site_label
_atom_site_fract_x
_atom_site_fract_y
_atom_site_fract_z
Si Si1 0.862245 0.467474 0.679727
Si Si2 0.644587 0.365170 0.352727
Si Si3 0.861392 0.478163 0.988007
Si Si4 0.986850 0.637907 0.929335
Si Si5 0.968944 0.861086 0.744936
Si Si6 0.136356 0.859773 0.474027
Si Si7 0.362816 0.642865 0.166545
O O1 0.750000 0.466115 0.679031
O O2 0.897347 0.571809 0.700380
O O3 0.894684 0.424956 0.597414
O O4 0.894470 0.401312 0.751742
O O5 0.750000 0.399959 0.339510
O O6 0.649430 0.250000 0.355334
O O7 0.571097 0.389925 0.286518
O O8 0.610234 0.393332 0.439206
O O9 0.750000 0.481481 0.998769
O O10 0.916375 0.416081 0.051778
O O11 0.908676 0.581299 0.978630
O O12 0.883569 0.423927 0.906593
O O13 0.992810 0.750000 0.947428
O O14 0.963282 0.628395 0.837871
O O15 0.954721 0.750000 0.726663
O O16 0.250000 0.858647 0.474181
O O17 0.106825 0.750000 0.462507
O O18 0.250000 0.647065 0.170269
O O19 0.397436 0.750000 0.155030
#
# Coordination Sequence:
#
# PCOD9446458 Si02
#       7
#     8   8   8   8   8   8   8
#     4  10  18  28  43  67  97 126 156 189 229 280
#     4   8  15  29  47  66  90 121 157 198 239 273
#     4  10  20  35  53  74  98 126 162 202 245 290
#     4  10  21  35  51  73 101 131 164 201 241 291
#     4  10  20  32  46  67  96 128 159 189 226 280
#     4   8  14  26  45  68  93 120 153 196 240 276
#     4   9  16  27  45  68  92 118 148 187 236 282
#
# _framework density 16.155615000000001
#
# number of rings (size 3 to 8) (size 9 to 14) (size 15 to 20)
#    0.000    2.714    1.429    1.714    0.000    4.286 
#    0.000    2.857    0.000    0.000    0.000    0.000 
#    0.000    2.286    0.000    0.143    0.000    0.000 
#
# Total GULP energy -311796.889575 kJ/mol
# GULP energy per Si atom -5567.801600 kJ/mol
# Density = 1.611884 g / cm^3
# Si number density = 16.155615 Si / 1000 Ang^3
#
#
#
# Elastic Constant Matrix: (Units=GPa)
#
#
# Indices 1 2 3 4 5 6 
#
# 1 38.7324 22.4887 -2.1683 0.0000 0.0000 0.0000
# 2 22.4887 85.5064 21.9720 0.0000 0.0000 0.0000
# 3 -2.1683 21.9720 14.1341 0.0000 0.0000 0.0000
# 4 0.0000 0.0000 0.0000 19.1593 0.0000 0.0000
# 5 0.0000 0.0000 0.0000 0.0000 19.7995 0.0000
# 6 0.0000 0.0000 0.0000 0.0000 0.0000 16.8622
#
#
#
# Elastic Compliance Matrix: (Units=1/GPa)
#
#
# Indices 1 2 3 4 5 6 
#
# 1 0.039405 -0.019844 0.036893 0.000000 0.000000 0.000000
# 2 -0.019844 0.029467 -0.048852 0.000000 0.000000 0.000000
# 3 0.036893 -0.048852 0.152353 0.000000 0.000000 0.000000
# 4 0.000000 0.000000 0.000000 0.052194 0.000000 0.000000
# 5 0.000000 0.000000 0.000000 0.000000 0.050506 0.000000
# 6 0.000000 0.000000 0.000000 0.000000 0.000000 0.059304
#
#
# Mechanical properties :
#
#
# Convention : Reuss Voigt Hill
#
# Bulk Modulus (GPa) = 6.34438 24.77307 15.55872
# Shear Modulus (GPa) = 10.01250 17.56956 13.79103
#
# Velocity S-wave (km/s) = 2.49219 3.30134 2.92488
# Velocity P-wave (km/s) = 3.49527 5.46800 4.58890
#
# Compressibility (1/GPa) = 0.15761979
#
# Stress axis : x y z
#
# Youngs Moduli (GPa) = 25.37728 33.93590 6.56371
#
# Poissons Ratio (x) = 0.67343 -0.24216
# Poissons Ratio (y) = 0.50359 0.32065
# Poissons Ratio (z) = -0.93625 1.65784
#
# Static dielectric constant tensor:
#      x y z
#    x 1.538570 0.000000 0.000000 
#    y 0.000000 1.545740 0.000000 
#    z 0.000000 0.000000 1.555330 
# 
# From -- ./inp_files/23311.got.cif
#   From: 2010.05.17/outbox.cif.g08.bks.cpg/sg59_12_cif.got.tgz:23311.got - 2010.06.03 14:40:33.
