data_PCOD9446465
_publ_section_title
;
Structure prediction by ZEFSAII (Michael W. Deem and Ramdas Pophale) SiO2 
 PCOD9446465
Probable space group: P M M N
;
_chemical_formula_sum "Si O2"
_cell_formula_units_Z 64
_cell_length_a 7.737502
_cell_length_b 22.144494
_cell_length_c 20.064599
_cell_angle_alpha 90.000000
_cell_angle_beta 90.000000
_cell_angle_gamma 90.000000
_cell_volume 3437.929923
_symmetry_space_group_name_H-M "P M M N"
_symmetry_group_IT_number 59
_space_group.IT_coordinate_system_code '2'
_symmetry_cell_setting 'orthorhombic'
loop_
_space_group_symop_operation_xyz
x,y,z
1/2-x,1/2-y,z
1/2+x,-y,-z
-x,1/2+y,-z
-x,-y,-z
1/2+x,1/2+y,-z
1/2-x,y,z
x,1/2-y,z
loop_
_atom_site_type_symbol
_atom_site_label
_atom_site_fract_x
_atom_site_fract_y
_atom_site_fract_z
Si Si1 0.455223 0.383987 0.099100
Si Si2 0.539798 0.987189 0.167024
Si Si3 0.457492 0.435453 0.966662
Si Si4 0.549967 0.183285 0.221774
Si Si5 0.458996 0.439203 0.542490
Si Si6 0.539620 0.681479 0.534952
Si Si7 0.554312 0.608149 0.660939
Si Si8 0.052735 0.023071 0.683198
O O1 0.250000 0.374773 0.097221
O O2 0.489026 0.447274 0.137980
O O3 0.537033 0.333024 0.144564
O O4 0.521600 0.389469 0.023191
O O5 0.750000 0.987564 0.169667
O O6 0.481926 0.939918 0.109690
O O7 0.475530 0.975051 0.242119
O O8 0.250000 0.429515 0.964067
O O9 0.500000 0.500000 0.000000
O O10 0.750000 0.179279 0.241992
O O11 0.483579 0.250000 0.234707
O O12 0.448853 0.135628 0.265793
O O13 0.500000 0.500000 0.500000
O O14 0.250000 0.437369 0.545054
O O15 0.517289 0.375968 0.509543
O O16 0.526018 0.444870 0.618432
O O17 0.750000 0.683789 0.530716
O O18 0.478198 0.750000 0.520965
O O19 0.494866 0.659513 0.609701
O O20 0.750000 0.591070 0.641586
O O21 0.446685 0.547279 0.662169
O O22 0.250000 0.044957 0.689702
#
# Coordination Sequence:
#
# PCOD9446465 Si02
#       8
#     8   8   8   8   8   8   8   8
#     4  10  18  28  44  65  87 115 154 194 230 270
#     4   9  16  28  44  63  91 122 148 180 229 282
#     4   8  15  26  41  62  86 113 144 179 219 267
#     4  11  23  35  45  61  90 127 162 196 235 281
#     4  10  19  32  49  70  96 126 162 203 243 288
#     4   9  18  32  49  69  93 124 162 201 242 283
#     4  11  20  31  49  69  92 123 159 199 236 282
#     4  10  19  29  46  70  97 127 157 190 238 293
#
# _framework density 18.615855
#
# number of rings (size 3 to 8) (size 9 to 14) (size 15 to 20)
#    0.000    2.250    2.500    1.500    0.000    2.000 
#    0.000    0.000    0.000    1.125    0.000    0.875 
#    0.000    5.000    0.000    0.000    0.000    0.250 
#
# Total GULP energy -356511.275172 kJ/mol
# GULP energy per Si atom -5570.488675 kJ/mol
# Density = 1.857348 g / cm^3
# Si number density = 18.615855 Si / 1000 Ang^3
#
#
#
# Elastic Constant Matrix: (Units=GPa)
#
#
# Indices 1 2 3 4 5 6 
#
# 1 34.6905 -0.3607 3.4739 0.0000 0.0000 0.0000
# 2 -0.3607 70.7083 43.8412 0.0000 0.0000 0.0000
# 3 3.4739 43.8412 130.7647 0.0000 0.0000 0.0000
# 4 0.0000 0.0000 0.0000 21.9454 0.0000 0.0000
# 5 0.0000 0.0000 0.0000 0.0000 9.4542 0.0000
# 6 0.0000 0.0000 0.0000 0.0000 0.0000 5.0761
#
#
#
# Elastic Compliance Matrix: (Units=1/GPa)
#
#
# Indices 1 2 3 4 5 6 
#
# 1 0.028938 0.000788 -0.001033 0.000000 0.000000 0.000000
# 2 0.000788 0.017875 -0.006014 0.000000 0.000000 0.000000
# 3 -0.001033 -0.006014 0.009691 0.000000 0.000000 0.000000
# 4 0.000000 0.000000 0.000000 0.045568 0.000000 0.000000
# 5 0.000000 0.000000 0.000000 0.000000 0.105773 0.000000
# 6 0.000000 0.000000 0.000000 0.000000 0.000000 0.197001
#
#
# Mechanical properties :
#
#
# Convention : Reuss Voigt Hill
#
# Bulk Modulus (GPa) = 22.73412 36.67469 29.70440
# Shear Modulus (GPa) = 11.57336 19.90908 15.74122
#
# Velocity S-wave (km/s) = 2.49608 3.27382 2.91104
# Velocity P-wave (km/s) = 4.53277 5.83387 5.22399
#
# Compressibility (1/GPa) = 0.04398675
#
# Stress axis : x y z
#
# Youngs Moduli (GPa) = 34.55669 55.94252 103.18776
#
# Poissons Ratio (x) = -0.04409 0.10659
# Poissons Ratio (y) = -0.02724 0.62057
# Poissons Ratio (z) = 0.03570 0.33644
#
# Static dielectric constant tensor:
#      x y z
#    x 1.680200 0.000000 0.000000 
#    y 0.000000 1.624320 0.000000 
#    z 0.000000 0.000000 1.706280 
# 
# From -- ./inp_files/29668.got.cif
#   From: 2010.05.17/outbox.cif.g08.bks.cpg/sg59_15_cif.got.tgz:29668.got - 2010.06.03 14:40:33.
