data_PCOD9447844
_publ_section_title
;
Structure prediction by ZEFSAII (Michael W. Deem and Ramdas Pophale) SiO2 
 PCOD9447844
Probable space group: P M M N
;
_chemical_formula_sum "Si O2"
_cell_formula_units_Z 48
_cell_length_a 8.998255
_cell_length_b 24.100040
_cell_length_c 14.191963
_cell_angle_alpha 90.000000
_cell_angle_beta 90.000000
_cell_angle_gamma 90.000000
_cell_volume 3077.645047
_symmetry_space_group_name_H-M "P M M N"
_symmetry_group_IT_number 59
_space_group.IT_coordinate_system_code '2'
_symmetry_cell_setting 'orthorhombic'
loop_
_space_group_symop_operation_xyz
x,y,z
1/2-x,1/2-y,z
1/2+x,-y,-z
-x,1/2+y,-z
-x,-y,-z
1/2+x,1/2+y,-z
1/2-x,y,z
x,1/2-y,z
loop_
_atom_site_type_symbol
_atom_site_label
_atom_site_fract_x
_atom_site_fract_y
_atom_site_fract_z
Si Si1 0.572546 0.685388 0.140517
Si Si2 0.571668 0.185895 0.656888
Si Si3 0.571483 0.414930 0.527336
Si Si4 0.571332 0.974244 0.641822
Si Si5 0.427251 0.587569 0.028082
Si Si6 0.428588 0.475499 0.141097
O O1 0.750000 0.679144 0.141463
O O2 0.537335 0.750000 0.119922
O O3 0.507207 0.673174 0.244259
O O4 0.500640 0.643218 0.067028
O O5 0.750000 0.180456 0.670636
O O6 0.540010 0.250000 0.632337
O O7 0.526945 0.142424 0.576659
O O8 0.750000 0.415126 0.516784
O O9 0.498259 0.428822 0.427539
O O10 0.531463 0.465754 0.597533
O O11 0.750000 0.970064 0.638930
O O12 0.524692 0.970323 0.750388
O O13 0.250000 0.468093 0.135504
O O14 0.460988 0.537047 0.100766
O O15 0.492476 0.567567 0.928452
O O16 0.750000 0.406534 0.977009
#
# Coordination Sequence:
#
# PCOD9447844 Si02
#       6
#     8   8   8   8   8   8
#     4  10  20  32  47  69  96 124 153 187 227 272
#     4   9  17  30  48  68  91 120 151 185 227 271
#     4   9  17  29  45  67  93 118 149 188 226 266
#     4   9  17  29  45  65  91 122 151 182 223 269
#     4  10  19  31  49  71  94 121 153 190 232 277
#     4   9  18  32  48  68  95 123 153 191 233 276
#
# _framework density 15.59634
#
# number of rings (size 3 to 8) (size 9 to 14) (size 15 to 20)
#    0.000    2.667    0.000    2.000    0.000    5.667 
#    0.000    3.333    0.000    1.000    0.000    4.667 
#    0.000    0.000    0.000    0.000    0.000    0.000 
#
# Total GULP energy -267631.595064 kJ/mol
# GULP energy per Si atom -5575.658230 kJ/mol
# Density = 1.556084 g / cm^3
# Si number density = 15.596340 Si / 1000 Ang^3
#
#
#
# Elastic Constant Matrix: (Units=GPa)
#
#
# Indices 1 2 3 4 5 6 
#
# 1 25.6987 37.0018 45.4628 0.0000 0.0000 0.0000
# 2 37.0018 85.7498 73.6700 0.0000 0.0000 0.0000
# 3 45.4628 73.6700 153.3912 0.0000 0.0000 0.0000
# 4 0.0000 0.0000 0.0000 26.7548 0.0000 0.0000
# 5 0.0000 0.0000 0.0000 0.0000 29.5698 0.0000
# 6 0.0000 0.0000 0.0000 0.0000 0.0000 23.2045
#
#
#
# Elastic Compliance Matrix: (Units=1/GPa)
#
#
# Indices 1 2 3 4 5 6 
#
# 1 0.130599 -0.039327 -0.019820 0.000000 0.000000 0.000000
# 2 -0.039327 0.031696 -0.003567 0.000000 0.000000 0.000000
# 3 -0.019820 -0.003567 0.014107 0.000000 0.000000 0.000000
# 4 0.000000 0.000000 0.000000 0.037376 0.000000 0.000000
# 5 0.000000 0.000000 0.000000 0.000000 0.033818 0.000000
# 6 0.000000 0.000000 0.000000 0.000000 0.000000 0.043095
#
#
# Mechanical properties :
#
#
# Convention : Reuss Voigt Hill
#
# Bulk Modulus (GPa) = 19.61763 64.12322 41.87042
# Shear Modulus (GPa) = 11.54439 23.15283 17.34861
#
# Velocity S-wave (km/s) = 2.72361 3.85711 3.33881
# Velocity P-wave (km/s) = 4.74304 7.81280 6.46283
#
# Compressibility (1/GPa) = 0.05097456
#
# Stress axis : x y z
#
# Youngs Moduli (GPa) = 7.65703 31.54948 70.88802
#
# Poissons Ratio (x) = 1.24074 1.40499
# Poissons Ratio (y) = 0.30113 0.25286
# Poissons Ratio (z) = 0.15176 0.11254
#
# Static dielectric constant tensor:
#      x y z
#    x 1.521450 0.000000 0.000000 
#    y 0.000000 1.512280 0.000000 
#    z 0.000000 0.000000 1.496400 
# 
# From -- ./inp_files/14312.got.cif
#   From: 2010.05.17/outbox.cif.g08.bks.cpg/sg59_8_cif.got.tgz:14312.got - 2010.06.03 14:40:33.
