data_PCOD9447893
_publ_section_title
;
Structure prediction by ZEFSAII (Michael W. Deem and Ramdas Pophale) SiO2 
 PCOD9447893
Probable space group: P M M N
;
_chemical_formula_sum "Si O2"
_cell_formula_units_Z 40
_cell_length_a 7.991747
_cell_length_b 9.092938
_cell_length_c 30.041753
_cell_angle_alpha 90.000000
_cell_angle_beta 90.000000
_cell_angle_gamma 90.000000
_cell_volume 2183.087926
_symmetry_space_group_name_H-M "P M M N"
_symmetry_group_IT_number 59
_space_group.IT_coordinate_system_code '2'
_symmetry_cell_setting 'orthorhombic'
loop_
_space_group_symop_operation_xyz
x,y,z
1/2-x,1/2-y,z
1/2+x,-y,-z
-x,1/2+y,-z
-x,-y,-z
1/2+x,1/2+y,-z
1/2-x,y,z
x,1/2-y,z
loop_
_atom_site_type_symbol
_atom_site_label
_atom_site_fract_x
_atom_site_fract_y
_atom_site_fract_z
Si Si1 0.049709 0.417476 0.455033
Si Si2 0.555950 0.072246 0.953613
Si Si3 0.947591 0.580647 0.365888
Si Si4 0.750000 0.570060 0.211884
Si Si5 0.934896 0.070670 0.729530
Si Si6 0.250000 0.428714 0.890290
O O1 0.250000 0.418236 0.451933
O O2 0.989887 0.250000 0.457541
O O3 0.000000 0.500000 0.500000
O O4 0.980725 0.493224 0.410763
O O5 0.750000 0.033714 0.943529
O O6 0.548258 0.250000 0.957681
O O7 0.418209 0.027402 0.916787
O O8 0.500000 0.000000 0.000000
O O9 0.750000 0.581271 0.356133
O O10 0.001231 0.750000 0.373079
O O11 0.036505 0.522496 0.321470
O O12 0.750000 0.750000 0.211880
O O13 0.584878 0.522348 0.238653
O O14 0.750000 0.521268 0.160759
O O15 0.750000 0.027894 0.744957
O O16 0.941874 0.250000 0.728342
O O17 0.250000 0.250000 0.889593
#
# Coordination Sequence:
#
# PCOD9447893 Si02
#       6
#     8   8   8   4   8   4
#     4  11  24  39  54  76 105 136 172 213 259 313
#     4  10  19  31  49  73 101 137 179 220 267 320
#     4  10  19  33  54  79 105 133 170 213 254 305
#     4   9  16  28  44  69 105 139 171 213 264 317
#     4   9  16  27  46  72 102 136 172 211 257 308
#     4   9  18  30  45  69 105 139 173 223 270 309
#
# _framework density 18.322669000000001
#
# number of rings (size 3 to 8) (size 9 to 14) (size 15 to 20)
#    0.000    2.200    2.000    1.800    0.000    6.000 
#    0.000    4.000    0.000    0.000    0.000    2.800 
#    0.000    0.000    0.000    0.000    0.000    0.000 
#
# Total GULP energy -223148.974574 kJ/mol
# GULP energy per Si atom -5578.724364 kJ/mol
# Density = 1.828097 g / cm^3
# Si number density = 18.322669 Si / 1000 Ang^3
#
#
#
# Elastic Constant Matrix: (Units=GPa)
#
#
# Indices 1 2 3 4 5 6 
#
# 1 147.9627 20.9301 83.2434 0.0000 0.0000 0.0000
# 2 20.9301 30.1532 29.6292 0.0000 0.0000 0.0000
# 3 83.2434 29.6292 161.6920 0.0000 0.0000 0.0000
# 4 0.0000 0.0000 0.0000 19.2961 0.0000 0.0000
# 5 0.0000 0.0000 0.0000 0.0000 27.7362 0.0000
# 6 0.0000 0.0000 0.0000 0.0000 0.0000 15.7712
#
#
#
# Elastic Compliance Matrix: (Units=1/GPa)
#
#
# Indices 1 2 3 4 5 6 
#
# 1 0.009634 -0.002212 -0.004554 0.000000 0.000000 0.000000
# 2 -0.002212 0.040955 -0.006366 0.000000 0.000000 0.000000
# 3 -0.004554 -0.006366 0.009696 0.000000 0.000000 0.000000
# 4 0.000000 0.000000 0.000000 0.051824 0.000000 0.000000
# 5 0.000000 0.000000 0.000000 0.000000 0.036054 0.000000
# 6 0.000000 0.000000 0.000000 0.000000 0.000000 0.063407
#
#
# Mechanical properties :
#
#
# Convention : Reuss Voigt Hill
#
# Bulk Modulus (GPa) = 29.39460 67.49035 48.44248
# Shear Modulus (GPa) = 20.06639 26.29439 23.18039
#
# Velocity S-wave (km/s) = 3.31292 3.79235 3.56071
# Velocity P-wave (km/s) = 5.54180 7.48934 6.58793
#
# Compressibility (1/GPa) = 0.03401985
#
# Stress axis : x y z
#
# Youngs Moduli (GPa) = 103.80361 24.41722 103.13690
#
# Poissons Ratio (x) = 0.05400 0.46972
# Poissons Ratio (y) = 0.22958 0.65658
# Poissons Ratio (z) = 0.47276 0.15544
#
# Static dielectric constant tensor:
#      x y z
#    x 1.650860 0.000000 0.000000 
#    y 0.000000 1.626090 0.000000 
#    z 0.000000 0.000000 1.609920 
# 
# From -- ./inp_files/32432.got.cif
#   From: 2010.05.17/outbox.cif.g08.bks.cpg/sg59_17_cif.got.tgz:32432.got - 2010.06.03 14:40:33.
