data_PCOD9447460
_publ_section_title
;
Structure prediction by ZEFSAII (Michael W. Deem and Ramdas Pophale) SiO2 
 PCOD9447460
Probable space group: P M M N
;
_chemical_formula_sum "Si O2"
_cell_formula_units_Z 40
_cell_length_a 36.371983
_cell_length_b 12.527613
_cell_length_c 5.264426
_cell_angle_alpha 90.000000
_cell_angle_beta 90.000000
_cell_angle_gamma 90.000000
_cell_volume 2398.757434
_symmetry_space_group_name_H-M "P M M N"
_symmetry_group_IT_number 59
_space_group.IT_coordinate_system_code '2'
_symmetry_cell_setting 'orthorhombic'
loop_
_space_group_symop_operation_xyz
x,y,z
1/2-x,1/2-y,z
1/2+x,-y,-z
-x,1/2+y,-z
-x,-y,-z
1/2+x,1/2+y,-z
1/2-x,y,z
x,1/2-y,z
loop_
_atom_site_type_symbol
_atom_site_label
_atom_site_fract_x
_atom_site_fract_y
_atom_site_fract_z
Si Si1 0.707710 0.620100 0.817999
Si Si2 0.663478 0.879183 0.319492
Si Si3 0.539626 0.370402 0.034787
Si Si4 0.962083 0.921244 0.746751
Si Si5 0.079780 0.059986 0.760826
O O1 0.750000 0.584387 0.803233
O O2 0.708467 0.750000 0.814668
O O3 0.683597 0.586118 0.577120
O O4 0.687937 0.588268 0.078155
O O5 0.661676 0.750000 0.321473
O O6 0.622124 0.920342 0.292789
O O7 0.549022 0.250000 0.968547
O O8 0.501732 0.373496 0.193491
O O9 0.570151 0.435065 0.194287
O O10 0.533416 0.450523 0.796196
O O11 0.944738 0.900237 0.474789
O O12 0.934407 0.888390 0.975100
#
# Coordination Sequence:
#
# PCOD9447460 Si02
#       5
#     8   8   8   8   8
#     4   9  17  30  47  68  94 127 158 179 214 274
#     4  10  19  29  46  69  98 128 150 185 229 269
#     4   9  20  34  50  66  89 125 163 198 239 274
#     4   9  20  34  47  67  91 122 160 204 230 273
#     4  10  19  34  45  69  96 120 155 197 231 274
#
# _framework density 16.675298000000002
#
# number of rings (size 3 to 8) (size 9 to 14) (size 15 to 20)
#    1.200    1.400    0.000    2.400    0.000    4.800 
#    0.000    0.000    0.000    0.000    0.000    0.000 
#    0.000    4.800    0.000    0.000    0.000    0.000 
#
# Total GULP energy -222773.344249 kJ/mol
# GULP energy per Si atom -5569.333606 kJ/mol
# Density = 1.663734 g / cm^3
# Si number density = 16.675298 Si / 1000 Ang^3
#
#
#
# Elastic Constant Matrix: (Units=GPa)
#
#
# Indices 1 2 3 4 5 6 
#
# 1 80.0801 6.4544 -1.2391 0.0000 0.0000 0.0000
# 2 6.4544 42.4854 5.3429 0.0000 0.0000 0.0000
# 3 -1.2391 5.3429 63.0336 0.0000 0.0000 0.0000
# 4 0.0000 0.0000 0.0000 -2.0047 0.0000 0.0000
# 5 0.0000 0.0000 0.0000 0.0000 25.8206 0.0000
# 6 0.0000 0.0000 0.0000 0.0000 0.0000 10.7126
#
#
#
# Elastic Compliance Matrix: (Units=1/GPa)
#
#
# Indices 1 2 3 4 5 6 
#
# 1 0.012653 -0.001975 0.000416 0.000000 0.000000 0.000000
# 2 -0.001975 0.024099 -0.002082 0.000000 0.000000 0.000000
# 3 0.000416 -0.002082 0.016049 0.000000 0.000000 0.000000
# 4 0.000000 0.000000 0.000000 -0.498826 0.000000 0.000000
# 5 0.000000 0.000000 0.000000 0.000000 0.038729 0.000000
# 6 0.000000 0.000000 0.000000 0.000000 0.000000 0.093348
#
#
# Mechanical properties :
#
#
# Convention : Reuss Voigt Hill
#
# Bulk Modulus (GPa) = 21.96765 22.96837 22.46801
# Shear Modulus (GPa) = -17.15305 18.57509 0.71102
#
# Velocity S-wave (km/s) = -3.21074 3.34118 0.65370
# Velocity P-wave (km/s) = 0.73671 5.35616 3.75138
#
# Compressibility (1/GPa) = 0.04552149
#
# Stress axis : x y z
#
# Youngs Moduli (GPa) = 79.03205 41.49509 62.30849
#
# Poissons Ratio (x) = 0.08194 -0.02593
# Poissons Ratio (y) = 0.15606 0.12970
# Poissons Ratio (z) = -0.03289 0.08637
#
# Static dielectric constant tensor:
#      x y z
#    x 1.539030 0.000000 0.000000 
#    y 0.000000 1.569530 0.000000 
#    z 0.000000 0.000000 1.592450 
# 
# From -- ./inp_files/4510.got.cif
#   From: 2010.05.17/outbox.cif.g08.bks.cpg/sg59_3_cif.got.tgz:4510.got - 2010.06.03 14:40:33.
