data_PCOD9447095
_publ_section_title
;
Structure prediction by ZEFSAII (Michael W. Deem and Ramdas Pophale) SiO2 
 PCOD9447095
Probable space group: P M M N
;
_chemical_formula_sum "Si O2"
_cell_formula_units_Z 48
_cell_length_a 10.045471
_cell_length_b 9.674190
_cell_length_c 28.418109
_cell_angle_alpha 90.000000
_cell_angle_beta 90.000000
_cell_angle_gamma 90.000000
_cell_volume 2761.722846
_symmetry_space_group_name_H-M "P M M N"
_symmetry_group_IT_number 59
_space_group.IT_coordinate_system_code '2'
_symmetry_cell_setting 'orthorhombic'
loop_
_space_group_symop_operation_xyz
x,y,z
1/2-x,1/2-y,z
1/2+x,-y,-z
-x,1/2+y,-z
-x,-y,-z
1/2+x,1/2+y,-z
1/2-x,y,z
x,1/2-y,z
loop_
_atom_site_type_symbol
_atom_site_label
_atom_site_fract_x
_atom_site_fract_y
_atom_site_fract_z
Si Si1 0.403043 0.583618 0.285874
Si Si2 0.405078 0.086749 0.800223
Si Si3 0.598991 0.750000 0.554107
Si Si4 0.463569 0.581063 0.894305
Si Si5 0.911903 0.250000 0.535492
Si Si6 0.250000 0.084604 0.066378
Si Si7 0.905440 0.472823 0.610766
Si Si8 0.750000 0.919993 0.043733
O O1 0.250000 0.533075 0.279617
O O2 0.397989 0.750000 0.287684
O O3 0.497331 0.547401 0.242404
O O4 0.459981 0.537879 0.336619
O O5 0.250000 0.078226 0.786230
O O6 0.429785 0.250000 0.812842
O O7 0.428316 0.984612 0.843915
O O8 0.750000 0.750000 0.533792
O O9 0.490460 0.750000 0.513133
O O10 0.586300 0.878307 0.588615
O O11 0.444232 0.750000 0.896121
O O12 0.615728 0.545553 0.906988
O O13 0.373937 0.496370 0.931474
O O14 0.750000 0.250000 0.528241
O O15 0.954508 0.376333 0.568786
O O16 0.250000 0.250000 0.065496
O O17 0.250000 0.044732 0.011584
O O18 0.750000 0.431838 0.617052
O O19 0.750000 0.750000 0.049838
#
# Coordination Sequence:
#
# PCOD9447095 Si02
#       8
#     8   8   4   8   4   4   8   4
#     4   9  17  33  57  79  99 136 187 229 269 324
#     4  10  21  37  56  80 111 144 181 230 284 334
#     4  10  20  32  48  76 110 136 168 218 265 320
#     4  11  22  39  60  84 119 154 188 233 288 340
#     4  10  18  32  54  74 100 140 178 208 261 320
#     4   9  22  39  59  87 121 149 191 241 280 325
#     4   9  17  32  53  74 102 136 174 221 268 318
#     4  11  21  39  63  87 115 157 195 231 276 337
#
# _framework density 17.380455000000001
#
# number of rings (size 3 to 8) (size 9 to 14) (size 15 to 20)
#    0.000    2.167    1.667    1.750    1.167    0.000 
#    1.500    5.417    0.000    0.000    0.000    0.000 
#    0.000    0.000    0.000    0.000    0.000    0.000 
#
# Total GULP energy -267304.484766 kJ/mol
# GULP energy per Si atom -5568.843433 kJ/mol
# Density = 1.734090 g / cm^3
# Si number density = 17.380455 Si / 1000 Ang^3
#
#
#
# Elastic Constant Matrix: (Units=GPa)
#
#
# Indices 1 2 3 4 5 6 
#
# 1 96.6747 23.2155 48.0284 0.0000 0.0000 0.0000
# 2 23.2155 63.4806 17.6022 0.0000 0.0000 0.0000
# 3 48.0284 17.6022 98.7224 0.0000 0.0000 0.0000
# 4 0.0000 0.0000 0.0000 -12.4854 0.0000 0.0000
# 5 0.0000 0.0000 0.0000 0.0000 16.4147 0.0000
# 6 0.0000 0.0000 0.0000 0.0000 0.0000 17.8960
#
#
#
# Elastic Compliance Matrix: (Units=1/GPa)
#
#
# Indices 1 2 3 4 5 6 
#
# 1 0.014337 -0.003481 -0.006354 0.000000 0.000000 0.000000
# 2 -0.003481 0.017417 -0.001412 0.000000 0.000000 0.000000
# 3 -0.006354 -0.001412 0.013472 0.000000 0.000000 0.000000
# 4 0.000000 0.000000 0.000000 -0.080094 0.000000 0.000000
# 5 0.000000 0.000000 0.000000 0.000000 0.060921 0.000000
# 6 0.000000 0.000000 0.000000 0.000000 0.000000 0.055878
#
#
# Mechanical properties :
#
#
# Convention : Reuss Voigt Hill
#
# Bulk Modulus (GPa) = 43.99056 48.50774 46.24915
# Shear Modulus (GPa) = 44.64116 15.70050 30.17083
#
# Velocity S-wave (km/s) = 5.07350 3.00883 4.17094
# Velocity P-wave (km/s) = 7.72567 6.32777 7.06139
#
# Compressibility (1/GPa) = 0.02273215
#
# Stress axis : x y z
#
# Youngs Moduli (GPa) = 69.75121 57.41367 74.22574
#
# Poissons Ratio (x) = 0.19987 0.47164
# Poissons Ratio (y) = 0.24282 0.10480
# Poissons Ratio (z) = 0.44320 0.08106
#
# Static dielectric constant tensor:
#      x y z
#    x 1.604920 0.000000 0.000000 
#    y 0.000000 1.566940 0.000000 
#    z 0.000000 0.000000 1.581550 
# 
# From -- ./inp_files/33116.got.cif
#   From: 2010.05.17/outbox.cif.g08.bks.cpg/sg59_17_cif.got.tgz:33116.got - 2010.06.03 14:40:33.
