data_PCOD9447875
_publ_section_title
;
Structure prediction by ZEFSAII (Michael W. Deem and Ramdas Pophale) SiO2 
 PCOD9447875
Probable space group: P M M N
;
_chemical_formula_sum "Si O2"
_cell_formula_units_Z 64
_cell_length_a 17.811393
_cell_length_b 8.543061
_cell_length_c 23.912661
_cell_angle_alpha 90.000000
_cell_angle_beta 90.000000
_cell_angle_gamma 90.000000
_cell_volume 3638.641770
_symmetry_space_group_name_H-M "P M M N"
_symmetry_group_IT_number 59
_space_group.IT_coordinate_system_code '2'
_symmetry_cell_setting 'orthorhombic'
loop_
_space_group_symop_operation_xyz
x,y,z
1/2-x,1/2-y,z
1/2+x,-y,-z
-x,1/2+y,-z
-x,-y,-z
1/2+x,1/2+y,-z
1/2-x,y,z
x,1/2-y,z
loop_
_atom_site_type_symbol
_atom_site_label
_atom_site_fract_x
_atom_site_fract_y
_atom_site_fract_z
Si Si1 0.905730 0.561277 0.570455
Si Si2 0.982024 0.437462 0.741605
Si Si3 0.832209 0.438696 0.678736
Si Si4 0.484470 0.062933 0.134136
Si Si5 0.336860 0.438684 0.545270
Si Si6 0.334535 0.059524 0.067518
Si Si7 0.429053 0.437395 0.965014
Si Si8 0.943806 0.436962 0.366104
O O1 0.904576 0.750000 0.569835
O O2 0.847082 0.502572 0.616702
O O3 0.884265 0.505693 0.508703
O O4 0.986522 0.509909 0.594142
O O5 0.982279 0.250000 0.744478
O O6 0.041293 0.492180 0.694858
O O7 0.900861 0.491401 0.717562
O O8 0.992843 0.506114 0.802798
O O9 0.750000 0.487588 0.698904
O O10 0.834640 0.250000 0.676608
O O11 0.483587 0.250000 0.131610
O O12 0.403924 0.007921 0.107417
O O13 0.553573 0.003234 0.096120
O O14 0.250000 0.479784 0.536991
O O15 0.342432 0.250000 0.547770
O O16 0.370083 0.508192 0.601924
O O17 0.250000 0.004975 0.081333
O O18 0.333746 0.250000 0.070223
O O19 0.358196 0.017188 0.003693
O O20 0.430865 0.250000 0.962714
O O21 0.500000 0.500000 0.000000
O O22 0.946242 0.250000 0.362031
#
# Coordination Sequence:
#
# PCOD9447875 Si02
#       8
#     8   8   8   8   8   8   8   8
#     4   9  18  32  50  72  97 127 162 198 240 294
#     4  10  20  34  51  69  94 129 167 204 243 289
#     4   9  18  31  46  67  97 130 161 197 243 293
#     4  10  19  31  49  72  98 128 165 205 239 280
#     4  10  20  33  50  73 100 128 158 196 247 304
#     4   8  15  28  47  73 103 131 158 191 232 277
#     4   9  16  28  48  71  97 129 162 196 233 275
#     4  10  20  34  52  73  97 126 164 207 247 290
#
# _framework density 17.588979999999999
#
# number of rings (size 3 to 8) (size 9 to 14) (size 15 to 20)
#    0.000    2.625    0.000    3.000    0.000    3.000 
#    0.000    0.000    0.000   13.875    0.000    1.750 
#    0.000    0.000    0.000    0.000    0.000    0.000 
#
# Total GULP energy -356671.341302 kJ/mol
# GULP energy per Si atom -5572.989708 kJ/mol
# Density = 1.754895 g / cm^3
# Si number density = 17.588980 Si / 1000 Ang^3
#
#
#
# Elastic Constant Matrix: (Units=GPa)
#
#
# Indices 1 2 3 4 5 6 
#
# 1 29.3195 11.7756 27.3292 0.0000 0.0000 0.0000
# 2 11.7756 22.1559 23.8147 0.0000 0.0000 0.0000
# 3 27.3292 23.8147 134.3409 0.0000 0.0000 0.0000
# 4 0.0000 0.0000 0.0000 28.0271 0.0000 0.0000
# 5 0.0000 0.0000 0.0000 0.0000 12.4865 0.0000
# 6 0.0000 0.0000 0.0000 0.0000 0.0000 17.8172
#
#
#
# Elastic Compliance Matrix: (Units=1/GPa)
#
#
# Indices 1 2 3 4 5 6 
#
# 1 0.047435 -0.018332 -0.006400 0.000000 0.000000 0.000000
# 2 -0.018332 0.062844 -0.007411 0.000000 0.000000 0.000000
# 3 -0.006400 -0.007411 0.010060 0.000000 0.000000 0.000000
# 4 0.000000 0.000000 0.000000 0.035680 0.000000 0.000000
# 5 0.000000 0.000000 0.000000 0.000000 0.080087 0.000000
# 6 0.000000 0.000000 0.000000 0.000000 0.000000 0.056125
#
#
# Mechanical properties :
#
#
# Convention : Reuss Voigt Hill
#
# Bulk Modulus (GPa) = 17.84049 34.62837 26.23443
# Shear Modulus (GPa) = 13.32617 19.85927 16.59272
#
# Velocity S-wave (km/s) = 2.75552 3.36382 3.07475
# Velocity P-wave (km/s) = 4.50431 5.90062 5.24910
#
# Compressibility (1/GPa) = 0.05605228
#
# Stress axis : x y z
#
# Youngs Moduli (GPa) = 21.08133 15.91240 99.40848
#
# Poissons Ratio (x) = 0.29171 0.63622
# Poissons Ratio (y) = 0.38647 0.73673
# Poissons Ratio (z) = 0.13492 0.11793
#
# Static dielectric constant tensor:
#      x y z
#    x 1.612700 0.000000 0.000000 
#    y 0.000000 1.590980 0.000000 
#    z 0.000000 0.000000 1.594500 
# 
# From -- ./inp_files/32324.got.cif
#   From: 2010.05.17/outbox.cif.g08.bks.cpg/sg59_17_cif.got.tgz:32324.got - 2010.06.03 14:40:33.
