data_PCOD9447237
_publ_section_title
;
Structure prediction by ZEFSAII (Michael W. Deem and Ramdas Pophale) SiO2 
 PCOD9447237
Probable space group: P M M N
;
_chemical_formula_sum "Si O2"
_cell_formula_units_Z 48
_cell_length_a 28.944497
_cell_length_b 8.427829
_cell_length_c 10.430609
_cell_angle_alpha 90.000000
_cell_angle_beta 90.000000
_cell_angle_gamma 90.000000
_cell_volume 2544.435158
_symmetry_space_group_name_H-M "P M M N"
_symmetry_group_IT_number 59
_space_group.IT_coordinate_system_code '2'
_symmetry_cell_setting 'orthorhombic'
loop_
_space_group_symop_operation_xyz
x,y,z
1/2-x,1/2-y,z
1/2+x,-y,-z
-x,1/2+y,-z
-x,-y,-z
1/2+x,1/2+y,-z
1/2-x,y,z
x,1/2-y,z
loop_
_atom_site_type_symbol
_atom_site_label
_atom_site_fract_x
_atom_site_fract_y
_atom_site_fract_z
Si Si1 0.604785 0.557761 0.752178
Si Si2 0.250000 0.442599 0.623654
Si Si3 0.494830 0.060198 0.353848
Si Si4 0.352173 0.559913 0.984176
Si Si5 0.750000 0.058806 0.084284
Si Si6 0.346157 0.056905 0.503701
Si Si7 0.590277 0.559684 0.259823
O O1 0.604947 0.750000 0.757664
O O2 0.553233 0.506988 0.710668
O O3 0.638325 0.505441 0.636557
O O4 0.622748 0.494126 0.886603
O O5 0.250000 0.250000 0.630544
O O6 0.250000 0.506877 0.767581
O O7 0.204175 0.494551 0.549298
O O8 0.493837 0.250000 0.359614
O O9 0.500000 0.000000 0.500000
O O10 0.538559 0.004854 0.271095
O O11 0.351801 0.750000 0.978175
O O12 0.298606 0.503240 0.976590
O O13 0.380653 0.496921 0.862130
O O14 0.750000 0.250000 0.078187
O O15 0.346359 0.250000 0.503108
O O16 0.382926 0.007181 0.611330
O O17 0.588771 0.750000 0.258911
#
# Coordination Sequence:
#
# PCOD9447237 Si02
#       7
#     8   4   8   8   4   8   8
#     4  10  22  41  60  86 122 158 197 245 297 355
#     4  10  18  33  62  92 116 148 196 249 300 354
#     4  11  22  38  62  91 123 158 200 250 304 361
#     4  11  24  41  60  88 123 160 201 247 300 360
#     4  10  22  39  58  84 122 158 194 243 298 358
#     4   9  18  34  58  89 118 146 192 247 292 346
#     4  11  21  38  63  90 119 156 201 249 297 354
#
# _framework density 18.864697
#
# number of rings (size 3 to 8) (size 9 to 14) (size 15 to 20)
#    0.000    1.667    3.333    1.500    0.000    3.333 
#    0.000    1.667    0.000    0.000    0.000    0.000 
#    0.000    0.000    0.000    0.000    0.000    0.000 
#
# Total GULP energy -268091.406087 kJ/mol
# GULP energy per Si atom -5585.237627 kJ/mol
# Density = 1.882176 g / cm^3
# Si number density = 18.864697 Si / 1000 Ang^3
#
#
#
# Elastic Constant Matrix: (Units=GPa)
#
#
# Indices 1 2 3 4 5 6 
#
# 1 148.6287 22.4633 49.2591 0.0000 0.0000 0.0000
# 2 22.4633 25.8849 15.6676 0.0000 0.0000 0.0000
# 3 49.2591 15.6676 114.4720 0.0000 0.0000 0.0000
# 4 0.0000 0.0000 0.0000 23.3754 0.0000 0.0000
# 5 0.0000 0.0000 0.0000 0.0000 33.7240 0.0000
# 6 0.0000 0.0000 0.0000 0.0000 0.0000 21.9914
#
#
#
# Elastic Compliance Matrix: (Units=1/GPa)
#
#
# Indices 1 2 3 4 5 6 
#
# 1 0.008545 -0.005659 -0.002903 0.000000 0.000000 0.000000
# 2 -0.005659 0.045869 -0.003843 0.000000 0.000000 0.000000
# 3 -0.002903 -0.003843 0.010511 0.000000 0.000000 0.000000
# 4 0.000000 0.000000 0.000000 0.042780 0.000000 0.000000
# 5 0.000000 0.000000 0.000000 0.000000 0.029652 0.000000
# 6 0.000000 0.000000 0.000000 0.000000 0.000000 0.045472
#
#
# Mechanical properties :
#
#
# Convention : Reuss Voigt Hill
#
# Bulk Modulus (GPa) = 24.92737 51.52952 38.22844
# Shear Modulus (GPa) = 22.62321 29.25788 25.94055
#
# Velocity S-wave (km/s) = 3.46675 3.94246 3.71224
# Velocity P-wave (km/s) = 5.40990 6.93532 6.21955
#
# Compressibility (1/GPa) = 0.04011655
#
# Stress axis : x y z
#
# Youngs Moduli (GPa) = 117.02088 21.80100 95.13999
#
# Poissons Ratio (x) = 0.12337 0.27617
# Poissons Ratio (y) = 0.66221 0.36562
# Poissons Ratio (z) = 0.33968 0.08378
#
# Static dielectric constant tensor:
#      x y z
#    x 1.665140 0.000000 0.000000 
#    y 0.000000 1.653150 0.000000 
#    z 0.000000 0.000000 1.606240 
# 
# From -- ./inp_files/13040.got.cif
#   From: 2010.05.17/outbox.cif.g08.bks.cpg/sg59_7_cif.got.tgz:13040.got - 2010.06.03 14:40:33.
