data_PCOD9447216
_publ_section_title
;
Structure prediction by ZEFSAII (Michael W. Deem and Ramdas Pophale) SiO2 
 PCOD9447216
Probable space group: P M M N
;
_chemical_formula_sum "Si O2"
_cell_formula_units_Z 48
_cell_length_a 7.682239
_cell_length_b 19.064236
_cell_length_c 14.705429
_cell_angle_alpha 90.000000
_cell_angle_beta 90.000000
_cell_angle_gamma 90.000000
_cell_volume 2153.698564
_symmetry_space_group_name_H-M "P M M N"
_symmetry_group_IT_number 59
_space_group.IT_coordinate_system_code '2'
_symmetry_cell_setting 'orthorhombic'
loop_
_space_group_symop_operation_xyz
x,y,z
1/2-x,1/2-y,z
1/2+x,-y,-z
-x,1/2+y,-z
-x,-y,-z
1/2+x,1/2+y,-z
1/2-x,y,z
x,1/2-y,z
loop_
_atom_site_type_symbol
_atom_site_label
_atom_site_fract_x
_atom_site_fract_y
_atom_site_fract_z
Si Si1 0.444243 0.516350 0.897809
Si Si2 0.540275 0.250000 0.003354
Si Si3 0.541041 0.135728 0.859889
Si Si4 0.540192 0.021697 0.602268
Si Si5 0.050865 0.399822 0.266330
Si Si6 0.039874 0.675128 0.343687
Si Si7 0.540236 0.750000 0.783143
O O1 0.250000 0.545065 0.899226
O O2 0.454981 0.439844 0.853417
O O3 0.551394 0.569288 0.836020
O O4 0.500000 0.500000 0.000000
O O5 0.750000 0.250000 0.997482
O O6 0.481663 0.181835 0.945748
O O7 0.491944 0.250000 0.108416
O O8 0.750000 0.124415 0.868262
O O9 0.510558 0.173664 0.764716
O O10 0.750000 0.024857 0.616793
O O11 0.472079 0.960824 0.670211
O O12 0.500000 0.000000 0.500000
O O13 0.473341 0.100698 0.619591
O O14 0.250000 0.391181 0.297285
O O15 0.971507 0.322224 0.260659
O O16 0.250000 0.674978 0.356982
O O17 0.973849 0.750000 0.380477
O O18 0.750000 0.750000 0.773035
#
# Coordination Sequence:
#
# PCOD9447216 Si02
#       7
#     8   4   8   8   8   8   4
#     4  12  24  36  54  82 115 155 200 245 290 350
#     4  10  20  32  54  85 118 156 197 244 291 344
#     4  10  18  33  56  82 113 151 194 239 288 344
#     4  10  21  39  64  89 118 152 191 243 300 358
#     4  10  21  41  63  83 113 156 199 244 298 351
#     4   9  16  32  60  88 113 148 190 232 285 349
#     4  10  22  38  58  81 112 154 201 244 287 350
#
# _framework density 22.287241000000002
#
# number of rings (size 3 to 8) (size 9 to 14) (size 15 to 20)
#    0.000    1.833    2.500    2.500    0.000    4.667 
#    1.500    0.000    0.000    1.000    0.000    0.000 
#    0.000    0.000    0.000    0.000    0.000    0.000 
#
# Total GULP energy -268007.097113 kJ/mol
# GULP energy per Si atom -5583.481190 kJ/mol
# Density = 2.223651 g / cm^3
# Si number density = 22.287241 Si / 1000 Ang^3
#
#
#
# Elastic Constant Matrix: (Units=GPa)
#
#
# Indices 1 2 3 4 5 6 
#
# 1 42.8689 5.1660 -2.1270 0.0000 0.0000 0.0000
# 2 5.1660 223.4997 70.0257 0.0000 0.0000 0.0000
# 3 -2.1270 70.0257 89.3392 0.0000 0.0000 0.0000
# 4 0.0000 0.0000 0.0000 23.5626 0.0000 0.0000
# 5 0.0000 0.0000 0.0000 0.0000 21.9659 0.0000
# 6 0.0000 0.0000 0.0000 0.0000 0.0000 -61.0083
#
#
#
# Elastic Compliance Matrix: (Units=1/GPa)
#
#
# Indices 1 2 3 4 5 6 
#
# 1 0.023507 -0.000953 0.001306 0.000000 0.000000 0.000000
# 2 -0.000953 0.005969 -0.004702 0.000000 0.000000 0.000000
# 3 0.001306 -0.004702 0.014910 0.000000 0.000000 0.000000
# 4 0.000000 0.000000 0.000000 0.042440 0.000000 0.000000
# 5 0.000000 0.000000 0.000000 0.000000 0.045525 0.000000
# 6 0.000000 0.000000 0.000000 0.000000 0.000000 -0.016391
#
#
# Mechanical properties :
#
#
# Convention : Reuss Voigt Hill
#
# Bulk Modulus (GPa) = 28.01926 55.75970 41.88948
# Shear Modulus (GPa) = 36.61612 15.74691 26.18151
#
# Velocity S-wave (km/s) = 4.05769 2.66097 3.43115
# Velocity P-wave (km/s) = 5.87812 5.87486 5.87649
#
# Compressibility (1/GPa) = 0.03568974
#
# Stress axis : x y z
#
# Youngs Moduli (GPa) = 42.54136 167.52181 67.07096
#
# Poissons Ratio (x) = 0.15959 -0.08762
# Poissons Ratio (y) = 0.04053 0.31534
# Poissons Ratio (z) = -0.05557 0.78762
#
# Static dielectric constant tensor:
#      x y z
#    x 1.825610 0.000000 0.000000 
#    y 0.000000 1.852360 0.000000 
#    z 0.000000 0.000000 1.793040 
# 
# From -- ./inp_files/20497.got.cif
#   From: 2010.05.17/outbox.cif.g08.bks.cpg/sg59_11_cif.got.tgz:20497.got - 2010.06.03 14:40:33.
