data_PCOD9447753
_publ_section_title
;
Structure prediction by ZEFSAII (Michael W. Deem and Ramdas Pophale) SiO2 
 PCOD9447753
Probable space group: P M M N
;
_chemical_formula_sum "Si O2"
_cell_formula_units_Z 56
_cell_length_a 19.441095
_cell_length_b 9.136677
_cell_length_c 16.768746
_cell_angle_alpha 90.000000
_cell_angle_beta 90.000000
_cell_angle_gamma 90.000000
_cell_volume 2978.582139
_symmetry_space_group_name_H-M "P M M N"
_symmetry_group_IT_number 59
_space_group.IT_coordinate_system_code '2'
_symmetry_cell_setting 'orthorhombic'
loop_
_space_group_symop_operation_xyz
x,y,z
1/2-x,1/2-y,z
1/2+x,-y,-z
-x,1/2+y,-z
-x,-y,-z
1/2+x,1/2+y,-z
1/2-x,y,z
x,1/2-y,z
loop_
_atom_site_type_symbol
_atom_site_label
_atom_site_fract_x
_atom_site_fract_y
_atom_site_fract_z
Si Si1 0.940474 0.081460 0.391699
Si Si2 0.981691 0.916075 0.240992
Si Si3 0.099709 0.082491 0.454397
Si Si4 0.863541 0.415245 0.694473
Si Si5 0.667658 0.921575 0.023826
Si Si6 0.962893 0.074385 0.076663
Si Si7 0.829776 0.084777 0.867454
O O1 0.921053 0.250000 0.381329
O O2 0.020343 0.079883 0.422260
O O3 0.936133 0.996190 0.308056
O O4 0.899317 0.005942 0.463392
O O5 0.958593 0.750000 0.223479
O O6 0.055794 0.906224 0.283568
O O7 0.990121 0.007621 0.159887
O O8 0.118452 0.250000 0.467733
O O9 0.143870 0.010137 0.384117
O O10 0.837795 0.250000 0.681698
O O11 0.833591 0.471640 0.777507
O O12 0.750000 0.942594 0.036275
O O13 0.652954 0.750000 0.035749
O O14 0.617240 0.023478 0.074791
O O15 0.647426 0.970523 0.933730
O O16 0.969383 0.250000 0.073016
O O17 0.000000 0.000000 0.000000
O O18 0.750000 0.105064 0.885575
O O19 0.862383 0.250000 0.871913
#
# Coordination Sequence:
#
# PCOD9447753 Si02
#       7
#     8   8   8   8   8   8   8
#     4   9  16  27  42  62  90 122 156 192 233 285
#     4  10  19  31  47  69  98 129 162 201 247 298
#     4   9  16  25  40  62  88 120 155 191 231 280
#     4   9  17  28  43  65  94 127 159 194 239 290
#     4  10  21  37  56  77 102 134 173 215 258 306
#     4  12  24  37  54  77 106 138 173 214 262 312
#     4   9  17  30  48  69  94 126 164 203 243 290
#
# _framework density 18.800891
#
# number of rings (size 3 to 8) (size 9 to 14) (size 15 to 20)
#    0.000    2.286    0.000    3.857    0.000    6.571 
#    0.000    0.000    0.000    0.000    0.000    1.000 
#    0.000    5.714    0.000    0.000    0.000    0.000 
#
# Total GULP energy -312041.434537 kJ/mol
# GULP energy per Si atom -5572.168474 kJ/mol
# Density = 1.875810 g / cm^3
# Si number density = 18.800891 Si / 1000 Ang^3
#
#
#
# Elastic Constant Matrix: (Units=GPa)
#
#
# Indices 1 2 3 4 5 6 
#
# 1 24.7525 19.8222 5.1482 0.0000 0.0000 0.0000
# 2 19.8222 133.9742 58.3848 0.0000 0.0000 0.0000
# 3 5.1482 58.3848 92.0976 0.0000 0.0000 0.0000
# 4 0.0000 0.0000 0.0000 27.3432 0.0000 0.0000
# 5 0.0000 0.0000 0.0000 0.0000 19.9877 0.0000
# 6 0.0000 0.0000 0.0000 0.0000 0.0000 14.7488
#
#
#
# Elastic Compliance Matrix: (Units=1/GPa)
#
#
# Indices 1 2 3 4 5 6 
#
# 1 0.046217 -0.007893 0.002420 0.000000 0.000000 0.000000
# 2 -0.007893 0.011661 -0.006951 0.000000 0.000000 0.000000
# 3 0.002420 -0.006951 0.015130 0.000000 0.000000 0.000000
# 4 0.000000 0.000000 0.000000 0.036572 0.000000 0.000000
# 5 0.000000 0.000000 0.000000 0.000000 0.050031 0.000000
# 6 0.000000 0.000000 0.000000 0.000000 0.000000 0.067802
#
#
# Mechanical properties :
#
#
# Convention : Reuss Voigt Hill
#
# Bulk Modulus (GPa) = 20.76416 46.39275 33.57846
# Shear Modulus (GPa) = 18.63483 23.58054 21.10768
#
# Velocity S-wave (km/s) = 3.15170 3.54535 3.35430
# Velocity P-wave (km/s) = 4.93077 6.44117 5.73590
#
# Compressibility (1/GPa) = 0.04815991
#
# Stress axis : x y z
#
# Youngs Moduli (GPa) = 21.63694 85.75401 66.09569
#
# Poissons Ratio (x) = 0.67683 -0.15995
# Poissons Ratio (y) = 0.17077 0.45946
# Poissons Ratio (z) = -0.05236 0.59611
#
# Static dielectric constant tensor:
#      x y z
#    x 1.715840 0.000000 0.000000 
#    y 0.000000 1.658020 0.000000 
#    z 0.000000 0.000000 1.656100 
# 
# From -- ./inp_files/24253.got.cif
#   From: 2010.05.17/outbox.cif.g08.bks.cpg/sg59_13_cif.got.tgz:24253.got - 2010.06.03 14:40:33.
