data_PCOD9447291
_publ_section_title
;
Structure prediction by ZEFSAII (Michael W. Deem and Ramdas Pophale) SiO2 
 PCOD9447291
Probable space group: P M M N
;
_chemical_formula_sum "Si O2"
_cell_formula_units_Z 60
_cell_length_a 21.689865
_cell_length_b 20.480427
_cell_length_c 6.030194
_cell_angle_alpha 90.000000
_cell_angle_beta 90.000000
_cell_angle_gamma 90.000000
_cell_volume 2678.718890
_symmetry_space_group_name_H-M "P M M N"
_symmetry_group_IT_number 59
_space_group.IT_coordinate_system_code '2'
_symmetry_cell_setting 'orthorhombic'
loop_
_space_group_symop_operation_xyz
x,y,z
1/2-x,1/2-y,z
1/2+x,-y,-z
-x,1/2+y,-z
-x,-y,-z
1/2+x,1/2+y,-z
1/2-x,y,z
x,1/2-y,z
loop_
_atom_site_type_symbol
_atom_site_label
_atom_site_fract_x
_atom_site_fract_y
_atom_site_fract_z
Si Si1 0.075148 0.676902 0.321022
Si Si2 0.625304 0.631019 0.963675
Si Si3 0.399905 0.580683 0.971044
Si Si4 0.821759 0.985417 0.711448
Si Si5 0.879154 0.750000 0.258883
Si Si6 0.958358 0.851196 0.569189
Si Si7 0.178393 0.827133 0.655920
Si Si8 0.414786 0.472048 0.669487
O O1 0.071683 0.750000 0.228561
O O2 0.142310 0.664426 0.423703
O O3 0.027221 0.671866 0.522575
O O4 0.059552 0.623401 0.138048
O O5 0.668462 0.589459 0.796647
O O6 0.568243 0.656188 0.814517
O O7 0.650269 0.692139 0.099254
O O8 0.602875 0.577431 0.136899
O O9 0.355790 0.629634 0.837960
O O10 0.437131 0.536415 0.796495
O O11 0.358005 0.532862 0.120848
O O12 0.750000 0.000758 0.702723
O O13 0.854838 0.991813 0.473895
O O14 0.914861 0.806969 0.410026
O O15 0.953925 0.927362 0.496561
O O16 0.250000 0.844232 0.637602
O O17 0.173452 0.750000 0.711095
#
# Coordination Sequence:
#
# PCOD9447291 Si02
#       8
#     8   8   8   8   4   8   8   8
#     4  11  24  40  60  93 123 157 209 258 304 367
#     4   9  20  37  62  93 124 163 204 248 311 368
#     4  11  22  39  61  90 122 158 206 256 314 371
#     4  10  21  40  65  90 121 160 209 261 309 370
#     4  10  18  34  63  90 121 160 202 246 304 366
#     4  10  20  39  60  90 126 162 204 252 306 370
#     4  10  23  42  61  85 121 162 204 256 310 366
#     4   9  21  38  59  90 123 162 203 250 309 367
#
# _framework density 22.398768
#
# number of rings (size 3 to 8) (size 9 to 14) (size 15 to 20)
#    0.000    2.000    0.667    2.000    0.000    7.467 
#    2.400   11.000    0.000    3.200    0.000    0.000 
#    0.000    0.000    0.000    0.000    0.000    0.000 
#
# Total GULP energy -334235.996930 kJ/mol
# GULP energy per Si atom -5570.599949 kJ/mol
# Density = 2.234779 g / cm^3
# Si number density = 22.398768 Si / 1000 Ang^3
#
#
#
# Elastic Constant Matrix: (Units=GPa)
#
#
# Indices 1 2 3 4 5 6 
#
# 1 37.2180 10.1405 12.6120 0.0000 0.0000 0.0000
# 2 10.1405 110.7698 33.2151 0.0000 0.0000 0.0000
# 3 12.6120 33.2151 67.6372 0.0000 0.0000 0.0000
# 4 0.0000 0.0000 0.0000 37.4223 0.0000 0.0000
# 5 0.0000 0.0000 0.0000 0.0000 7.3501 0.0000
# 6 0.0000 0.0000 0.0000 0.0000 0.0000 16.1916
#
#
#
# Elastic Compliance Matrix: (Units=1/GPa)
#
#
# Indices 1 2 3 4 5 6 
#
# 1 0.028817 -0.001204 -0.004782 0.000000 0.000000 0.000000
# 2 -0.001204 0.010637 -0.004999 0.000000 0.000000 0.000000
# 3 -0.004782 -0.004999 0.018131 0.000000 0.000000 0.000000
# 4 0.000000 0.000000 0.000000 0.026722 0.000000 0.000000
# 5 0.000000 0.000000 0.000000 0.000000 0.136052 0.000000
# 6 0.000000 0.000000 0.000000 0.000000 0.000000 0.061761
#
#
# Mechanical properties :
#
#
# Convention : Reuss Voigt Hill
#
# Bulk Modulus (GPa) = 28.07803 36.39559 32.23681
# Shear Modulus (GPa) = 15.82469 22.83664 19.33066
#
# Velocity S-wave (km/s) = 2.66089 3.19650 2.94091
# Velocity P-wave (km/s) = 4.69075 5.46879 5.09465
#
# Compressibility (1/GPa) = 0.03561504
#
# Stress axis : x y z
#
# Youngs Moduli (GPa) = 34.70140 94.01185 55.15308
#
# Poissons Ratio (x) = 0.11321 0.26375
# Poissons Ratio (y) = 0.04179 0.27571
# Poissons Ratio (z) = 0.16594 0.46997
#
# Static dielectric constant tensor:
#      x y z
#    x 1.801700 0.000000 0.000000 
#    y 0.000000 1.843910 0.000000 
#    z 0.000000 0.000000 1.845210 
# 
# From -- ./inp_files/3475.got.cif
#   From: 2010.05.17/outbox.cif.g08.bks.cpg/sg59_2_cif.got.tgz:3475.got - 2010.06.03 14:40:33.
