data_PCOD9447874
_publ_section_title
;
Structure prediction by ZEFSAII (Michael W. Deem and Ramdas Pophale) SiO2 
 PCOD9447874
Probable space group: P M M N
;
_chemical_formula_sum "Si O2"
_cell_formula_units_Z 56
_cell_length_a 14.265936
_cell_length_b 14.527295
_cell_length_c 15.659901
_cell_angle_alpha 90.000000
_cell_angle_beta 90.000000
_cell_angle_gamma 90.000000
_cell_volume 3245.443398
_symmetry_space_group_name_H-M "P M M N"
_symmetry_group_IT_number 59
_space_group.IT_coordinate_system_code '2'
_symmetry_cell_setting 'orthorhombic'
loop_
_space_group_symop_operation_xyz
x,y,z
1/2-x,1/2-y,z
1/2+x,-y,-z
-x,1/2+y,-z
-x,-y,-z
1/2+x,1/2+y,-z
1/2-x,y,z
x,1/2-y,z
loop_
_atom_site_type_symbol
_atom_site_label
_atom_site_fract_x
_atom_site_fract_y
_atom_site_fract_z
Si Si1 0.642136 0.542725 0.166283
Si Si2 0.138452 0.354854 0.493816
Si Si3 0.856569 0.145766 0.081051
Si Si4 0.361465 0.491490 0.646738
Si Si5 0.956535 0.859171 0.013304
Si Si6 0.357863 0.362032 0.163062
Si Si7 0.984120 0.641597 0.675838
O O1 0.750000 0.568777 0.146642
O O2 0.622928 0.563489 0.264609
O O3 0.576095 0.589437 0.097398
O O4 0.635382 0.432444 0.152296
O O5 0.250000 0.361827 0.479115
O O6 0.119260 0.250000 0.523548
O O7 0.113077 0.429119 0.565650
O O8 0.085010 0.368073 0.405106
O O9 0.750000 0.141850 0.048228
O O10 0.873900 0.250000 0.113297
O O11 0.934845 0.126727 0.010397
O O12 0.250000 0.512515 0.643270
O O13 0.425315 0.581264 0.654717
O O14 0.940775 0.750000 0.023819
O O15 0.898098 0.889752 0.929411
O O16 0.250000 0.392090 0.174843
O O17 0.357517 0.250000 0.164246
O O18 0.427514 0.390084 0.239424
O O19 0.006264 0.750000 0.685949
#
# Coordination Sequence:
#
# PCOD9447874 Si02
#       7
#     8   8   8   8   8   8   8
#     4  10  20  32  47  68  96 131 165 197 237 285
#     4   9  18  34  55  76  98 126 160 199 243 287
#     4   9  18  32  48  66  91 126 166 204 242 285
#     4  10  21  34  49  73 102 130 162 198 234 282
#     4  10  19  31  49  72  98 128 161 201 245 286
#     4   9  17  29  46  71 100 126 158 202 248 292
#     4  10  19  32  52  75  99 128 159 196 245 293
#
# _framework density 17.254961999999999
#
# number of rings (size 3 to 8) (size 9 to 14) (size 15 to 20)
#    0.000    2.429    0.000    2.571    0.000    5.143 
#    0.000    2.857    0.000    0.857    0.000    0.000 
#    0.000    2.286    0.000    0.000    0.000    0.429 
#
# Total GULP energy -312346.277342 kJ/mol
# GULP energy per Si atom -5577.612095 kJ/mol
# Density = 1.721569 g / cm^3
# Si number density = 17.254962 Si / 1000 Ang^3
#
#
#
# Elastic Constant Matrix: (Units=GPa)
#
#
# Indices 1 2 3 4 5 6 
#
# 1 74.3936 28.7866 34.0412 0.0000 0.0000 0.0000
# 2 28.7866 38.3560 25.7261 0.0000 0.0000 0.0000
# 3 34.0412 25.7261 76.9060 0.0000 0.0000 0.0000
# 4 0.0000 0.0000 0.0000 13.3842 0.0000 0.0000
# 5 0.0000 0.0000 0.0000 0.0000 18.7788 0.0000
# 6 0.0000 0.0000 0.0000 0.0000 0.0000 24.9571
#
#
#
# Elastic Compliance Matrix: (Units=1/GPa)
#
#
# Indices 1 2 3 4 5 6 
#
# 1 0.020346 -0.011899 -0.005025 0.000000 0.000000 0.000000
# 2 -0.011899 0.040572 -0.008305 0.000000 0.000000 0.000000
# 3 -0.005025 -0.008305 0.018005 0.000000 0.000000 0.000000
# 4 0.000000 0.000000 0.000000 0.074715 0.000000 0.000000
# 5 0.000000 0.000000 0.000000 0.000000 0.053251 0.000000
# 6 0.000000 0.000000 0.000000 0.000000 0.000000 0.040069
#
#
# Mechanical properties :
#
#
# Convention : Reuss Voigt Hill
#
# Bulk Modulus (GPa) = 35.13145 40.75149 37.94147
# Shear Modulus (GPa) = 16.29161 18.16413 17.22787
#
# Velocity S-wave (km/s) = 3.07607 3.24804 3.16322
# Velocity P-wave (km/s) = 5.74636 6.14287 5.94792
#
# Compressibility (1/GPa) = 0.02846452
#
# Stress axis : x y z
#
# Youngs Moduli (GPa) = 49.14985 24.64734 55.53896
#
# Poissons Ratio (x) = 0.29329 0.27910
# Poissons Ratio (y) = 0.58485 0.46125
# Poissons Ratio (z) = 0.24699 0.20470
#
# Static dielectric constant tensor:
#      x y z
#    x 1.598770 0.000000 0.000000 
#    y 0.000000 1.598890 0.000000 
#    z 0.000000 0.000000 1.568800 
# 
# From -- ./inp_files/16962.got.cif
#   From: 2010.05.17/outbox.cif.g08.bks.cpg/sg59_9_cif.got.tgz:16962.got - 2010.06.03 14:40:33.
