data_PCOD9447859
_publ_section_title
;
Structure prediction by ZEFSAII (Michael W. Deem and Ramdas Pophale) SiO2 
 PCOD9447859
Probable space group: P M M N
;
_chemical_formula_sum "Si O2"
_cell_formula_units_Z 40
_cell_length_a 13.810666
_cell_length_b 7.807910
_cell_length_c 15.560619
_cell_angle_alpha 90.000000
_cell_angle_beta 90.000000
_cell_angle_gamma 90.000000
_cell_volume 1677.939471
_symmetry_space_group_name_H-M "P M M N"
_symmetry_group_IT_number 59
_space_group.IT_coordinate_system_code '2'
_symmetry_cell_setting 'orthorhombic'
loop_
_space_group_symop_operation_xyz
x,y,z
1/2-x,1/2-y,z
1/2+x,-y,-z
-x,1/2+y,-z
-x,-y,-z
1/2+x,1/2+y,-z
1/2-x,y,z
x,1/2-y,z
loop_
_atom_site_type_symbol
_atom_site_label
_atom_site_fract_x
_atom_site_fract_y
_atom_site_fract_z
Si Si1 0.068064 0.049208 0.108755
Si Si2 0.355461 0.550629 0.930333
Si Si3 0.648119 0.540445 0.334871
Si Si4 0.568004 0.452031 0.708455
Si Si5 0.890625 0.952640 0.523229
O O1 0.063885 0.250000 0.086515
O O2 0.127509 0.961176 0.033035
O O3 0.108753 0.029066 0.204166
O O4 0.956601 0.979094 0.107325
O O5 0.250000 0.472637 0.910160
O O6 0.352383 0.750000 0.904967
O O7 0.750000 0.487667 0.291906
O O8 0.644258 0.750000 0.332739
O O9 0.543134 0.479482 0.302832
O O10 0.655926 0.486700 0.434692
O O11 0.562010 0.250000 0.721012
O O12 0.625054 0.481289 0.619434
O O13 0.875898 0.750000 0.527306
O O14 0.000000 0.000000 0.500000
#
# Coordination Sequence:
#
# PCOD9447859 Si02
#       5
#     8   8   8   8   8
#     4  10  20  34  54  80 107 135 171 213 258 311
#     4   9  19  37  58  78 104 137 170 209 260 315
#     4   8  15  28  46  69  95 124 162 207 252 297
#     4  10  19  31  49  71  98 132 167 206 252 302
#     4   9  16  28  47  67  91 125 161 199 244 295
#
# _framework density 23.838763
#
# number of rings (size 3 to 8) (size 9 to 14) (size 15 to 20)
#    0.000    2.800    0.000    3.000    0.000    2.000 
#    0.000    1.000    0.000   24.600    0.000    0.000 
#    0.000    0.000    0.000    0.000    0.000    0.000 
#
# Total GULP energy -222963.272377 kJ/mol
# GULP energy per Si atom -5574.081809 kJ/mol
# Density = 2.378450 g / cm^3
# Si number density = 23.838763 Si / 1000 Ang^3
#
#
#
# Elastic Constant Matrix: (Units=GPa)
#
#
# Indices 1 2 3 4 5 6 
#
# 1 71.7149 -2.4308 -9.7216 0.0000 0.0000 0.0000
# 2 -2.4308 42.6297 -8.1307 0.0000 0.0000 0.0000
# 3 -9.7216 -8.1307 138.2199 0.0000 0.0000 0.0000
# 4 0.0000 0.0000 0.0000 23.1536 0.0000 0.0000
# 5 0.0000 0.0000 0.0000 0.0000 -7.3320 0.0000
# 6 0.0000 0.0000 0.0000 0.0000 0.0000 -3.4842
#
#
#
# Elastic Compliance Matrix: (Units=1/GPa)
#
#
# Indices 1 2 3 4 5 6 
#
# 1 0.014121 0.001006 0.001052 0.000000 0.000000 0.000000
# 2 0.001006 0.023796 0.001471 0.000000 0.000000 0.000000
# 3 0.001052 0.001471 0.007395 0.000000 0.000000 0.000000
# 4 0.000000 0.000000 0.000000 0.043190 0.000000 0.000000
# 5 0.000000 0.000000 0.000000 0.000000 -0.136388 0.000000
# 6 0.000000 0.000000 0.000000 0.000000 0.000000 -0.287006
#
#
# Mechanical properties :
#
#
# Convention : Reuss Voigt Hill
#
# Bulk Modulus (GPa) = 19.09511 23.55536 21.32524
# Shear Modulus (GPa) = -15.40860 20.65731 2.62436
#
# Velocity S-wave (km/s) = -2.54513 2.94690 1.05037
# Velocity P-wave (km/s) = 0.78067 4.63482 3.23049
#
# Compressibility (1/GPa) = 0.05236944
#
# Stress axis : x y z
#
# Youngs Moduli (GPa) = 70.81726 42.02444 135.21984
#
# Poissons Ratio (x) = -0.04227 -0.14230
# Poissons Ratio (y) = -0.07124 -0.19884
# Poissons Ratio (z) = -0.07452 -0.06180
#
# Static dielectric constant tensor:
#      x y z
#    x 1.980220 0.000000 0.000000 
#    y 0.000000 1.899800 0.000000 
#    z 0.000000 0.000000 1.911960 
# 
# From -- ./inp_files/19869.got.cif
#   From: 2010.05.17/outbox.cif.g08.bks.cpg/sg59_10_cif.got.tgz:19869.got - 2010.06.03 14:40:33.
