data_PCOD9447535
_publ_section_title
;
Structure prediction by ZEFSAII (Michael W. Deem and Ramdas Pophale) SiO2 
 PCOD9447535
Probable space group: P M M N
;
_chemical_formula_sum "Si O2"
_cell_formula_units_Z 64
_cell_length_a 30.537768
_cell_length_b 7.552177
_cell_length_c 15.679791
_cell_angle_alpha 90.000000
_cell_angle_beta 90.000000
_cell_angle_gamma 90.000000
_cell_volume 3616.177344
_symmetry_space_group_name_H-M "P M M N"
_symmetry_group_IT_number 59
_space_group.IT_coordinate_system_code '2'
_symmetry_cell_setting 'orthorhombic'
loop_
_space_group_symop_operation_xyz
x,y,z
1/2-x,1/2-y,z
1/2+x,-y,-z
-x,1/2+y,-z
-x,-y,-z
1/2+x,1/2+y,-z
1/2-x,y,z
x,1/2-y,z
loop_
_atom_site_type_symbol
_atom_site_label
_atom_site_fract_x
_atom_site_fract_y
_atom_site_fract_z
Si Si1 0.948420 0.545872 0.116469
Si Si2 0.201728 0.036362 0.793990
Si Si3 0.892827 0.537007 0.956701
Si Si4 0.798458 0.534258 0.006825
Si Si5 0.537104 0.461022 0.620251
Si Si6 0.438466 0.536599 0.559595
Si Si7 0.039670 0.962408 0.188513
Si Si8 0.390597 0.955887 0.723365
O O1 0.957158 0.750000 0.092628
O O2 0.917400 0.543468 0.199523
O O3 0.995337 0.467193 0.143168
O O4 0.921559 0.467594 0.036938
O O5 0.250000 0.978357 0.765195
O O6 0.200706 0.250000 0.792096
O O7 0.196765 0.985279 0.893371
O O8 0.160654 0.971062 0.741184
O O9 0.890402 0.750000 0.966271
O O10 0.918990 0.496635 0.871104
O O11 0.842621 0.472853 0.960565
O O12 0.750000 0.474721 0.977734
O O13 0.797701 0.750000 0.003622
O O14 0.544795 0.250000 0.623445
O O15 0.486282 0.491095 0.596811
O O16 0.563338 0.531292 0.537663
O O17 0.545009 0.532004 0.715136
O O18 0.435265 0.750000 0.554529
O O19 0.404410 0.473536 0.630756
O O20 0.033658 0.750000 0.195864
O O21 0.403426 0.750000 0.726864
#
# Coordination Sequence:
#
# PCOD9447535 Si02
#       8
#     8   8   8   8   8   8   8   8
#     4  10  19  32  45  62  90 126 164 187 213 267
#     4   9  17  31  50  67  88 121 157 188 221 273
#     4  10  19  30  46  65  89 121 154 190 223 269
#     4   8  14  27  47  67  85 110 147 187 224 264
#     4   9  17  31  48  64  86 118 153 189 224 263
#     4   9  18  30  45  67  91 116 148 184 228 271
#     4  10  20  31  45  64  90 123 157 194 228 264
#     4  11  20  28  44  70  98 122 147 189 233 271
#
# _framework density 17.698248
#
# number of rings (size 3 to 8) (size 9 to 14) (size 15 to 20)
#    0.000    2.500    2.500    1.500    0.000    2.250 
#    0.000    0.000    0.000    0.375    0.000    0.875 
#    0.000    5.000    0.000    0.000    0.000    0.000 
#
# Total GULP energy -356802.521859 kJ/mol
# GULP energy per Si atom -5575.039404 kJ/mol
# Density = 1.765797 g / cm^3
# Si number density = 17.698248 Si / 1000 Ang^3
#
#
#
# Elastic Constant Matrix: (Units=GPa)
#
#
# Indices 1 2 3 4 5 6 
#
# 1 131.5984 -7.2304 81.5065 0.0000 0.0000 0.0000
# 2 -7.2304 39.2636 -0.1483 0.0000 0.0000 0.0000
# 3 81.5065 -0.1483 136.3041 0.0000 0.0000 0.0000
# 4 0.0000 0.0000 0.0000 2.3100 0.0000 0.0000
# 5 0.0000 0.0000 0.0000 0.0000 24.8715 0.0000
# 6 0.0000 0.0000 0.0000 0.0000 0.0000 10.4237
#
#
#
# Elastic Compliance Matrix: (Units=1/GPa)
#
#
# Indices 1 2 3 4 5 6 
#
# 1 0.012261 0.002230 -0.007329 0.000000 0.000000 0.000000
# 2 0.002230 0.025875 -0.001305 0.000000 0.000000 0.000000
# 3 -0.007329 -0.001305 0.011718 0.000000 0.000000 0.000000
# 4 0.000000 0.000000 0.000000 0.432906 0.000000 0.000000
# 5 0.000000 0.000000 0.000000 0.000000 0.040207 0.000000
# 6 0.000000 0.000000 0.000000 0.000000 0.000000 0.095935
#
#
# Mechanical properties :
#
#
# Convention : Reuss Voigt Hill
#
# Bulk Modulus (GPa) = 26.99476 50.60243 38.79859
# Shear Modulus (GPa) = 7.76327 23.05692 15.41009
#
# Velocity S-wave (km/s) = 2.09666 3.61332 2.95399
# Velocity P-wave (km/s) = 4.59861 6.78690 5.79695
#
# Compressibility (1/GPa) = 0.03704423
#
# Stress axis : x y z
#
# Youngs Moduli (GPa) = 81.56051 38.64790 85.34007
#
# Poissons Ratio (x) = -0.08619 0.62548
# Poissons Ratio (y) = -0.18189 0.11140
# Poissons Ratio (z) = 0.59778 0.05045
#
# Static dielectric constant tensor:
#      x y z
#    x 1.601990 0.000000 0.000000 
#    y 0.000000 1.699370 0.000000 
#    z 0.000000 0.000000 1.611820 
# 
# From -- ./inp_files/25096.got.cif
#   From: 2010.05.17/outbox.cif.g08.bks.cpg/sg59_13_cif.got.tgz:25096.got - 2010.06.03 14:40:33.
