data_PCOD9447976
_publ_section_title
;
Structure prediction by ZEFSAII (Michael W. Deem and Ramdas Pophale) SiO2 
 PCOD9447976
Probable space group: P M M N
;
_chemical_formula_sum "Si O2"
_cell_formula_units_Z 64
_cell_length_a 9.877143
_cell_length_b 19.878761
_cell_length_c 18.063883
_cell_angle_alpha 90.000000
_cell_angle_beta 90.000000
_cell_angle_gamma 90.000000
_cell_volume 3546.759702
_symmetry_space_group_name_H-M "P M M N"
_symmetry_group_IT_number 59
_space_group.IT_coordinate_system_code '2'
_symmetry_cell_setting 'orthorhombic'
loop_
_space_group_symop_operation_xyz
x,y,z
1/2-x,1/2-y,z
1/2+x,-y,-z
-x,1/2+y,-z
-x,-y,-z
1/2+x,1/2+y,-z
1/2-x,y,z
x,1/2-y,z
loop_
_atom_site_type_symbol
_atom_site_label
_atom_site_fract_x
_atom_site_fract_y
_atom_site_fract_z
Si Si1 0.913364 0.082946 0.867377
Si Si2 0.602225 0.670606 0.410432
Si Si3 0.413541 0.674904 0.999676
Si Si4 0.912370 0.172138 0.173936
Si Si5 0.595997 0.097604 0.493643
Si Si6 0.403082 0.476423 0.387378
Si Si7 0.909773 0.951594 0.781387
Si Si8 0.409137 0.330456 0.757000
O O1 0.750000 0.088794 0.860014
O O2 0.954311 0.113580 0.947158
O O3 0.989962 0.130677 0.809774
O O4 0.947340 0.006450 0.844323
O O5 0.750000 0.641450 0.430909
O O6 0.615628 0.750000 0.402861
O O7 0.491359 0.656112 0.470934
O O8 0.567400 0.646855 0.327803
O O9 0.250000 0.677032 0.002558
O O10 0.461279 0.750000 0.024283
O O11 0.448055 0.666438 0.913587
O O12 0.750000 0.161441 0.181656
O O13 0.939976 0.250000 0.195983
O O14 0.998888 0.114918 0.214162
O O15 0.750000 0.114307 0.477391
O O16 0.517942 0.070135 0.422446
O O17 0.593372 0.041747 0.559693
O O18 0.250000 0.448233 0.395274
O O19 0.425143 0.485516 0.299892
O O20 0.750000 0.935186 0.790129
O O21 0.250000 0.343196 0.773720
O O22 0.430201 0.250000 0.762369
#
# Coordination Sequence:
#
# PCOD9447976 Si02
#       8
#     8   8   8   8   8   8   8   8
#     4  10  19  31  50  77 107 137 170 209 251 300
#     4   9  18  32  48  67  97 136 168 196 243 303
#     4   8  15  30  52  76 103 138 175 206 244 297
#     4   9  19  37  58  76  97 131 175 217 256 305
#     4  10  19  32  53  77  97 123 166 212 245 284
#     4   9  19  35  51  70 101 135 161 194 249 309
#     4  10  21  35  52  78 108 133 164 209 258 306
#     4   9  18  31  46  69 104 143 179 211 245 293
#
# _framework density 18.044637999999999
#
# number of rings (size 3 to 8) (size 9 to 14) (size 15 to 20)
#    0.000    2.750    0.000    3.000    0.000    4.750 
#    0.000    2.500    0.000    1.500    0.000    0.000 
#    0.000    0.000    0.000    0.000    0.000    0.000 
#
# Total GULP energy -356364.879189 kJ/mol
# GULP energy per Si atom -5568.201237 kJ/mol
# Density = 1.800357 g / cm^3
# Si number density = 18.044638 Si / 1000 Ang^3
#
#
#
# Elastic Constant Matrix: (Units=GPa)
#
#
# Indices 1 2 3 4 5 6 
#
# 1 44.3124 24.2287 10.2909 0.0000 0.0000 0.0000
# 2 24.2287 54.2156 12.1789 0.0000 0.0000 0.0000
# 3 10.2909 12.1789 36.5377 0.0000 0.0000 0.0000
# 4 0.0000 0.0000 0.0000 26.2841 0.0000 0.0000
# 5 0.0000 0.0000 0.0000 0.0000 22.3010 0.0000
# 6 0.0000 0.0000 0.0000 0.0000 0.0000 26.0645
#
#
#
# Elastic Compliance Matrix: (Units=1/GPa)
#
#
# Indices 1 2 3 4 5 6 
#
# 1 0.030498 -0.012647 -0.004374 0.000000 0.000000 0.000000
# 2 -0.012647 0.025182 -0.004832 0.000000 0.000000 0.000000
# 3 -0.004374 -0.004832 0.030212 0.000000 0.000000 0.000000
# 4 0.000000 0.000000 0.000000 0.038046 0.000000 0.000000
# 5 0.000000 0.000000 0.000000 0.000000 0.044841 0.000000
# 6 0.000000 0.000000 0.000000 0.000000 0.000000 0.038366
#
#
# Mechanical properties :
#
#
# Convention : Reuss Voigt Hill
#
# Bulk Modulus (GPa) = 23.70467 25.38472 24.54470
# Shear Modulus (GPa) = 18.87418 20.82105 19.84761
#
# Velocity S-wave (km/s) = 3.23766 3.40054 3.32010
# Velocity P-wave (km/s) = 5.20978 5.43291 5.32251
#
# Compressibility (1/GPa) = 0.04218579
#
# Stress axis : x y z
#
# Youngs Moduli (GPa) = 32.78930 39.71086 33.09991
#
# Poissons Ratio (x) = 0.50221 0.14479
# Poissons Ratio (y) = 0.41468 0.15993
# Poissons Ratio (z) = 0.14343 0.19187
#
# Static dielectric constant tensor:
#      x y z
#    x 1.592670 0.000000 0.000000 
#    y 0.000000 1.630400 0.000000 
#    z 0.000000 0.000000 1.630640 
# 
# From -- ./inp_files/26318.got.cif
#   From: 2010.05.17/outbox.cif.g08.bks.cpg/sg59_14_cif.got.tgz:26318.got - 2010.06.03 14:40:33.
