data_PCOD9447235
_publ_section_title
;
Structure prediction by ZEFSAII (Michael W. Deem and Ramdas Pophale) SiO2 
 PCOD9447235
Probable space group: P M M N
;
_chemical_formula_sum "Si O2"
_cell_formula_units_Z 48
_cell_length_a 14.582461
_cell_length_b 8.386412
_cell_length_c 20.832412
_cell_angle_alpha 90.000000
_cell_angle_beta 90.000000
_cell_angle_gamma 90.000000
_cell_volume 2547.689949
_symmetry_space_group_name_H-M "P M M N"
_symmetry_group_IT_number 59
_space_group.IT_coordinate_system_code '2'
_symmetry_cell_setting 'orthorhombic'
loop_
_space_group_symop_operation_xyz
x,y,z
1/2-x,1/2-y,z
1/2+x,-y,-z
-x,1/2+y,-z
-x,-y,-z
1/2+x,1/2+y,-z
1/2-x,y,z
x,1/2-y,z
loop_
_atom_site_type_symbol
_atom_site_label
_atom_site_fract_x
_atom_site_fract_y
_atom_site_fract_z
Si Si1 0.939676 0.558681 0.813080
Si Si2 0.250000 0.442974 0.890564
Si Si3 0.750000 0.060571 0.760030
Si Si4 0.442523 0.556084 0.689701
Si Si5 0.550104 0.940316 0.063860
Si Si6 0.250000 0.943590 0.742885
Si Si7 0.449494 0.056939 0.436024
Si Si8 0.250000 0.057083 0.388037
O O1 0.939773 0.750000 0.816914
O O2 0.838240 0.498804 0.798829
O O3 0.997780 0.508805 0.750862
O O4 0.988725 0.491761 0.875729
O O5 0.250000 0.250000 0.891469
O O6 0.344863 0.498270 0.924133
O O7 0.250000 0.496747 0.816180
O O8 0.750000 0.250000 0.755970
O O9 0.750000 0.994478 0.686785
O O10 0.442210 0.750000 0.687462
O O11 0.339796 0.503401 0.704486
O O12 0.490098 0.501200 0.624687
O O13 0.554318 0.750000 0.061016
O O14 0.500000 0.000000 0.000000
O O15 0.250000 0.750000 0.745971
O O16 0.448331 0.250000 0.436450
O O17 0.344056 0.004570 0.423255
O O18 0.500000 0.000000 0.500000
O O19 0.250000 0.250000 0.387616
#
# Coordination Sequence:
#
# PCOD9447235 Si02
#       8
#     8   4   4   8   8   4   8   4
#     4  11  21  39  64  89 118 159 203 249 305 362
#     4  10  22  39  60  87 122 157 192 247 312 358
#     4  12  24  37  60  95 126 155 200 257 308 365
#     4   9  18  33  58  87 116 151 196 245 292 351
#     4  11  24  42  62  90 126 164 206 254 307 367
#     4  10  18  33  60  92 116 149 202 244 286 354
#     4  10  21  38  58  85 119 157 199 246 300 361
#     4  10  20  39  62  82 116 163 206 246 304 371
#
# _framework density 18.840596000000001
#
# number of rings (size 3 to 8) (size 9 to 14) (size 15 to 20)
#    0.000    1.667    3.333    1.750    0.000    2.667 
#    0.000    4.167    0.000    0.000    0.000    0.000 
#    0.000    0.000    0.000    0.000    0.000    0.000 
#
# Total GULP energy -268004.868354 kJ/mol
# GULP energy per Si atom -5583.434757 kJ/mol
# Density = 1.879771 g / cm^3
# Si number density = 18.840596 Si / 1000 Ang^3
#
#
#
# Elastic Constant Matrix: (Units=GPa)
#
#
# Indices 1 2 3 4 5 6 
#
# 1 235.9911 29.9438 119.8652 0.0000 0.0000 0.0000
# 2 29.9438 26.1122 25.0928 0.0000 0.0000 0.0000
# 3 119.8652 25.0928 185.5279 0.0000 0.0000 0.0000
# 4 0.0000 0.0000 0.0000 34.2374 0.0000 0.0000
# 5 0.0000 0.0000 0.0000 0.0000 33.1472 0.0000
# 6 0.0000 0.0000 0.0000 0.0000 0.0000 15.0943
#
#
#
# Elastic Compliance Matrix: (Units=1/GPa)
#
#
# Indices 1 2 3 4 5 6 
#
# 1 0.006656 -0.004023 -0.003756 0.000000 0.000000 0.000000
# 2 -0.004023 0.046449 -0.003683 0.000000 0.000000 0.000000
# 3 -0.003756 -0.003683 0.008315 0.000000 0.000000 0.000000
# 4 0.000000 0.000000 0.000000 0.029208 0.000000 0.000000
# 5 0.000000 0.000000 0.000000 0.000000 0.030168 0.000000
# 6 0.000000 0.000000 0.000000 0.000000 0.000000 0.066250
#
#
# Mechanical properties :
#
#
# Convention : Reuss Voigt Hill
#
# Bulk Modulus (GPa) = 25.97725 88.60387 57.29056
# Shear Modulus (GPa) = 22.44152 34.67774 28.55963
#
# Velocity S-wave (km/s) = 3.45501 4.29486 3.89762
# Velocity P-wave (km/s) = 5.45289 8.46904 7.12245
#
# Compressibility (1/GPa) = 0.03849523
#
# Stress axis : x y z
#
# Youngs Moduli (GPa) = 150.24886 21.52908 120.26758
#
# Poissons Ratio (x) = 0.08661 0.45172
# Poissons Ratio (y) = 0.60444 0.44296
# Poissons Ratio (z) = 0.56433 0.07929
#
# Static dielectric constant tensor:
#      x y z
#    x 1.592100 0.000000 0.000000 
#    y 0.000000 1.650360 0.000000 
#    z 0.000000 0.000000 1.610410 
# 
# From -- ./inp_files/27500.got.cif
#   From: 2010.05.17/outbox.cif.g08.bks.cpg/sg59_14_cif.got.tgz:27500.got - 2010.06.03 14:40:33.
