data_PCOD9447011
_publ_section_title
;
Structure prediction by ZEFSAII (Michael W. Deem and Ramdas Pophale) SiO2 
 PCOD9447011
Probable space group: P M M N
;
_chemical_formula_sum "Si O2"
_cell_formula_units_Z 64
_cell_length_a 8.602933
_cell_length_b 29.894282
_cell_length_c 12.769787
_cell_angle_alpha 90.000000
_cell_angle_beta 90.000000
_cell_angle_gamma 90.000000
_cell_volume 3284.114731
_symmetry_space_group_name_H-M "P M M N"
_symmetry_group_IT_number 59
_space_group.IT_coordinate_system_code '2'
_symmetry_cell_setting 'orthorhombic'
loop_
_space_group_symop_operation_xyz
x,y,z
1/2-x,1/2-y,z
1/2+x,-y,-z
-x,1/2+y,-z
-x,-y,-z
1/2+x,1/2+y,-z
1/2-x,y,z
x,1/2-y,z
loop_
_atom_site_type_symbol
_atom_site_label
_atom_site_fract_x
_atom_site_fract_y
_atom_site_fract_z
Si Si1 0.064451 0.940829 0.850677
Si Si2 0.067187 0.574924 0.423401
Si Si3 0.564316 0.200121 0.870075
Si Si4 0.435546 0.110210 0.949283
Si Si5 0.934487 0.668627 0.349593
Si Si6 0.936855 0.896908 0.641010
Si Si7 0.436575 0.201901 0.421442
Si Si8 0.062846 0.037958 0.778736
O O1 0.250000 0.938578 0.863395
O O2 0.014208 0.917739 0.742651
O O3 0.018714 0.992843 0.839487
O O4 0.985094 0.916136 0.947387
O O5 0.250000 0.570406 0.439321
O O6 0.024993 0.622721 0.370985
O O7 0.983219 0.576532 0.535564
O O8 0.007594 0.539866 0.337299
O O9 0.750000 0.198013 0.860360
O O10 0.521066 0.250000 0.906945
O O11 0.507604 0.159390 0.941615
O O12 0.489854 0.191701 0.756021
O O13 0.250000 0.114105 0.945192
O O14 0.485567 0.080425 0.848999
O O15 0.750000 0.658515 0.342792
O O16 0.960196 0.697796 0.453612
O O17 0.750000 0.897261 0.650419
O O18 0.991406 0.845143 0.626330
O O19 0.250000 0.202221 0.405221
O O20 0.498894 0.250000 0.384105
O O21 0.250000 0.038980 0.769029
#
# Coordination Sequence:
#
# PCOD9447011 Si02
#       8
#     8   8   8   8   8   8   8   8
#     4  11  24  42  63  86 117 155 200 251 305 359
#     4  11  21  34  58  89 123 159 192 238 300 355
#     4  11  23  37  56  87 124 159 197 243 298 353
#     4  11  23  41  65  89 118 155 200 248 300 360
#     4  10  18  31  53  83 120 157 193 236 289 356
#     4  10  21  38  59  84 119 158 201 249 297 357
#     4   8  15  29  52  81 110 145 191 240 286 336
#     4  10  22  40  63  91 119 153 196 246 302 366
#
# _framework density 19.487748
#
# number of rings (size 3 to 8) (size 9 to 14) (size 15 to 20)
#    0.000    1.750    1.250    4.500    0.000    3.500 
#    0.000    0.625    0.000    9.750    0.000    0.000 
#    0.000    0.000    0.000    0.000    0.000    0.000 
#
# Total GULP energy -357483.995394 kJ/mol
# GULP energy per Si atom -5585.687428 kJ/mol
# Density = 1.944339 g / cm^3
# Si number density = 19.487748 Si / 1000 Ang^3
#
#
#
# Elastic Constant Matrix: (Units=GPa)
#
#
# Indices 1 2 3 4 5 6 
#
# 1 22.3657 7.2950 -9.6896 0.0000 0.0000 0.0000
# 2 7.2950 68.2438 8.3032 0.0000 0.0000 0.0000
# 3 -9.6896 8.3032 52.6383 0.0000 0.0000 0.0000
# 4 0.0000 0.0000 0.0000 18.7026 0.0000 0.0000
# 5 0.0000 0.0000 0.0000 0.0000 30.7677 0.0000
# 6 0.0000 0.0000 0.0000 0.0000 0.0000 10.4272
#
#
#
# Elastic Compliance Matrix: (Units=1/GPa)
#
#
# Indices 1 2 3 4 5 6 
#
# 1 0.051496 -0.006788 0.010550 0.000000 0.000000 0.000000
# 2 -0.006788 0.015835 -0.003747 0.000000 0.000000 0.000000
# 3 0.010550 -0.003747 0.021531 0.000000 0.000000 0.000000
# 4 0.000000 0.000000 0.000000 0.053468 0.000000 0.000000
# 5 0.000000 0.000000 0.000000 0.000000 0.032502 0.000000
# 6 0.000000 0.000000 0.000000 0.000000 0.000000 0.095903
#
#
# Mechanical properties :
#
#
# Convention : Reuss Voigt Hill
#
# Bulk Modulus (GPa) = 11.24978 17.22945 14.23962
# Shear Modulus (GPa) = 16.64799 21.13545 18.89172
#
# Velocity S-wave (km/s) = 2.92598 3.29682 3.11692
# Velocity P-wave (km/s) = 4.14734 4.83244 4.50293
#
# Compressibility (1/GPa) = 0.08889060
#
# Stress axis : x y z
#
# Youngs Moduli (GPa) = 19.41891 63.15144 46.44515
#
# Poissons Ratio (x) = 0.42870 -0.49000
# Poissons Ratio (y) = 0.13182 0.17405
# Poissons Ratio (z) = -0.20487 0.23666
#
# Static dielectric constant tensor:
#      x y z
#    x 1.656970 0.000000 0.000000 
#    y 0.000000 1.720420 0.000000 
#    z 0.000000 0.000000 1.653310 
# 
# From -- ./inp_files/15078.got.cif
#   From: 2010.05.17/outbox.cif.g08.bks.cpg/sg59_8_cif.got.tgz:15078.got - 2010.06.03 14:40:33.
