data_PCOD9447257
_publ_section_title
;
Structure prediction by ZEFSAII (Michael W. Deem and Ramdas Pophale) SiO2 
 PCOD9447257
Probable space group: P M M N
;
_chemical_formula_sum "Si O2"
_cell_formula_units_Z 32
_cell_length_a 16.480320
_cell_length_b 18.173466
_cell_length_c 4.975810
_cell_angle_alpha 90.000000
_cell_angle_beta 90.000000
_cell_angle_gamma 90.000000
_cell_volume 1490.277661
_symmetry_space_group_name_H-M "P M M N"
_symmetry_group_IT_number 59
_space_group.IT_coordinate_system_code '2'
_symmetry_cell_setting 'orthorhombic'
loop_
_space_group_symop_operation_xyz
x,y,z
1/2-x,1/2-y,z
1/2+x,-y,-z
-x,1/2+y,-z
-x,-y,-z
1/2+x,1/2+y,-z
1/2-x,y,z
x,1/2-y,z
loop_
_atom_site_type_symbol
_atom_site_label
_atom_site_fract_x
_atom_site_fract_y
_atom_site_fract_z
Si Si1 0.970818 0.832977 0.589447
Si Si2 0.750000 0.363751 0.810758
Si Si3 0.575842 0.132946 0.918874
Si Si4 0.090368 0.485795 0.384008
Si Si5 0.250000 0.959113 0.679013
O O1 0.941218 0.750000 0.629302
O O2 0.909428 0.898508 0.667269
O O3 0.006426 0.841494 0.289003
O O4 0.046589 0.849046 0.785203
O O5 0.750000 0.435461 0.012002
O O6 0.837381 0.330417 0.867319
O O7 0.750000 0.384929 0.498697
O O8 0.589206 0.045938 0.855025
O O9 0.166991 0.502584 0.576742
O O10 0.000000 0.500000 0.500000
#
# Coordination Sequence:
#
# PCOD9447257 Si02
#       5
#     8   4   8   8   4
#     4  11  22  36  53  79 111 148 187 227 276 335
#     4  10  18  34  55  82 109 134 177 236 275 322
#     4  10  20  36  57  80 107 145 188 230 280 336
#     4   9  19  36  59  82 110 145 185 231 278 326
#     4  10  20  32  55  88 109 134 183 230 273 326
#
# _framework density 21.472508000000001
#
# number of rings (size 3 to 8) (size 9 to 14) (size 15 to 20)
#    0.000    2.000    0.000    6.000    0.000    6.000 
#    0.000    4.375    0.000    0.000    0.000   14.000 
#    0.000    0.000    0.000    0.000    0.000    0.000 
#
# Total GULP energy -178366.982049 kJ/mol
# GULP energy per Si atom -5573.968189 kJ/mol
# Density = 2.142364 g / cm^3
# Si number density = 21.472508 Si / 1000 Ang^3
#
#
#
# Elastic Constant Matrix: (Units=GPa)
#
#
# Indices 1 2 3 4 5 6 
#
# 1 76.3913 12.4067 -2.5979 0.0000 0.0000 0.0000
# 2 12.4067 173.4467 -2.6355 0.0000 0.0000 0.0000
# 3 -2.5979 -2.6355 39.0050 0.0000 0.0000 0.0000
# 4 0.0000 0.0000 0.0000 10.8975 0.0000 0.0000
# 5 0.0000 0.0000 0.0000 0.0000 27.8665 0.0000
# 6 0.0000 0.0000 0.0000 0.0000 0.0000 -16.3097
#
#
#
# Elastic Compliance Matrix: (Units=1/GPa)
#
#
# Indices 1 2 3 4 5 6 
#
# 1 0.013271 -0.000937 0.000821 0.000000 0.000000 0.000000
# 2 -0.000937 0.005838 0.000332 0.000000 0.000000 0.000000
# 3 0.000821 0.000332 0.025715 0.000000 0.000000 0.000000
# 4 0.000000 0.000000 0.000000 0.091764 0.000000 0.000000
# 5 0.000000 0.000000 0.000000 0.000000 0.035885 0.000000
# 6 0.000000 0.000000 0.000000 0.000000 0.000000 -0.061313
#
#
# Mechanical properties :
#
#
# Convention : Reuss Voigt Hill
#
# Bulk Modulus (GPa) = 22.09723 33.68775 27.89249
# Shear Modulus (GPa) = 39.74166 23.26884 31.50525
#
# Velocity S-wave (km/s) = 4.30678 3.29547 3.83461
# Velocity P-wave (km/s) = 5.91983 5.49572 5.71171
#
# Compressibility (1/GPa) = 0.04525455
#
# Stress axis : x y z
#
# Youngs Moduli (GPa) = 75.35489 171.30584 38.88804
#
# Poissons Ratio (x) = 0.16048 -0.03191
# Poissons Ratio (y) = 0.07059 -0.01291
# Poissons Ratio (z) = -0.06183 -0.05688
#
# Static dielectric constant tensor:
#      x y z
#    x 1.794190 0.000000 0.000000 
#    y 0.000000 1.892230 0.000000 
#    z 0.000000 0.000000 1.770770 
# 
# From -- ./inp_files/1841.got.cif
#   From: 2010.05.17/outbox.cif.g08.bks.cpg/sg59_1_cif.got.tgz:1841.got - 2010.06.03 14:40:33.
