data_PCOD9447748
_publ_section_title
;
Structure prediction by ZEFSAII (Michael W. Deem and Ramdas Pophale) SiO2 
 PCOD9447748
Probable space group: P M M N
;
_chemical_formula_sum "Si O2"
_cell_formula_units_Z 64
_cell_length_a 8.962612
_cell_length_b 23.761064
_cell_length_c 19.531037
_cell_angle_alpha 90.000000
_cell_angle_beta 90.000000
_cell_angle_gamma 90.000000
_cell_volume 4159.353025
_symmetry_space_group_name_H-M "P M M N"
_symmetry_group_IT_number 59
_space_group.IT_coordinate_system_code '2'
_symmetry_cell_setting 'orthorhombic'
loop_
_space_group_symop_operation_xyz
x,y,z
1/2-x,1/2-y,z
1/2+x,-y,-z
-x,1/2+y,-z
-x,-y,-z
1/2+x,1/2+y,-z
1/2-x,y,z
x,1/2-y,z
loop_
_atom_site_type_symbol
_atom_site_label
_atom_site_fract_x
_atom_site_fract_y
_atom_site_fract_z
Si Si1 0.571142 0.026037 0.100937
Si Si2 0.428722 0.001239 0.746675
Si Si3 0.570238 0.315055 0.890839
Si Si4 0.070752 0.684709 0.395430
Si Si5 0.072366 0.414634 0.527832
Si Si6 0.072329 0.018971 0.392779
Si Si7 0.070796 0.624935 0.251944
Si Si8 0.571988 0.911163 0.020936
O O1 0.750000 0.032522 0.094624
O O2 0.530494 0.026648 0.180689
O O3 0.533110 0.964138 0.070577
O O4 0.491226 0.071255 0.052916
O O5 0.250000 0.002324 0.741375
O O6 0.498828 0.971576 0.680621
O O7 0.489534 0.065101 0.747470
O O8 0.750000 0.317342 0.896703
O O9 0.524127 0.250000 0.896258
O O10 0.531481 0.340232 0.816137
O O11 0.498721 0.355363 0.947433
O O12 0.250000 0.680501 0.403465
O O13 0.028751 0.750000 0.399855
O O14 0.034415 0.659798 0.320342
O O15 0.991216 0.645402 0.450742
O O16 0.250000 0.417184 0.538546
O O17 0.041523 0.433545 0.449848
O O18 0.994470 0.461367 0.575879
O O19 0.250000 0.012627 0.385743
O O20 0.250000 0.615537 0.251541
O O21 0.750000 0.906532 0.018892
#
# Coordination Sequence:
#
# PCOD9447748 Si02
#       8
#     8   8   8   8   8   8   8   8
#     4   9  19  33  48  69  98 126 157 199 247 295
#     4  11  20  31  49  74 101 128 160 199 245 293
#     4  10  20  33  49  69  97 135 172 202 238 285
#     4  10  20  33  49  70  98 133 170 204 240 285
#     4  10  20  33  49  70  96 127 165 206 244 285
#     4  10  20  33  49  70  97 128 162 201 247 296
#     4  10  19  31  47  68  98 134 170 201 233 279
#     4  10  19  32  49  70  95 126 164 204 243 285
#
# _framework density 15.387008
#
# number of rings (size 3 to 8) (size 9 to 14) (size 15 to 20)
#    0.000    2.000    2.500    1.875    0.000    5.000 
#    0.000    0.000    0.000    2.250    0.000    0.875 
#    0.000    5.000    0.000    0.000    0.000    0.000 
#
# Total GULP energy -357160.104001 kJ/mol
# GULP energy per Si atom -5580.626625 kJ/mol
# Density = 1.535199 g / cm^3
# Si number density = 15.387008 Si / 1000 Ang^3
#
#
#
# Elastic Constant Matrix: (Units=GPa)
#
#
# Indices 1 2 3 4 5 6 
#
# 1 37.6781 39.0494 54.3626 0.0000 0.0000 0.0000
# 2 39.0494 91.1729 66.5556 0.0000 0.0000 0.0000
# 3 54.3626 66.5556 143.1283 0.0000 0.0000 0.0000
# 4 0.0000 0.0000 0.0000 20.3195 0.0000 0.0000
# 5 0.0000 0.0000 0.0000 0.0000 24.5603 0.0000
# 6 0.0000 0.0000 0.0000 0.0000 0.0000 23.1862
#
#
#
# Elastic Compliance Matrix: (Units=1/GPa)
#
#
# Indices 1 2 3 4 5 6 
#
# 1 0.072038 -0.016472 -0.019702 0.000000 0.000000 0.000000
# 2 -0.016472 0.020371 -0.003216 0.000000 0.000000 0.000000
# 3 -0.019702 -0.003216 0.015965 0.000000 0.000000 0.000000
# 4 0.000000 0.000000 0.000000 0.049214 0.000000 0.000000
# 5 0.000000 0.000000 0.000000 0.000000 0.040716 0.000000
# 6 0.000000 0.000000 0.000000 0.000000 0.000000 0.043129
#
#
# Mechanical properties :
#
#
# Convention : Reuss Voigt Hill
#
# Bulk Modulus (GPa) = 33.79007 65.76826 49.77916
# Shear Modulus (GPa) = 15.14797 21.08064 18.11430
#
# Velocity S-wave (km/s) = 3.14102 3.70541 3.43483
# Velocity P-wave (km/s) = 5.92980 7.81935 6.93919
#
# Compressibility (1/GPa) = 0.02959450
#
# Stress axis : x y z
#
# Youngs Moduli (GPa) = 13.88165 49.08956 62.63525
#
# Poissons Ratio (x) = 0.80858 1.23402
# Poissons Ratio (y) = 0.22865 0.20146
# Poissons Ratio (z) = 0.27349 0.15789
#
# Static dielectric constant tensor:
#      x y z
#    x 1.512430 0.000000 0.000000 
#    y 0.000000 1.483130 0.000000 
#    z 0.000000 0.000000 1.515480 
# 
# From -- ./inp_files/26485.got.cif
#   From: 2010.05.17/outbox.cif.g08.bks.cpg/sg59_14_cif.got.tgz:26485.got - 2010.06.03 14:40:33.
