data_PCOD9447136
_publ_section_title
;
Structure prediction by ZEFSAII (Michael W. Deem and Ramdas Pophale) SiO2 
 PCOD9447136
Probable space group: P M M N
;
_chemical_formula_sum "Si O2"
_cell_formula_units_Z 64
_cell_length_a 24.470287
_cell_length_b 7.911417
_cell_length_c 15.928318
_cell_angle_alpha 90.000000
_cell_angle_beta 90.000000
_cell_angle_gamma 90.000000
_cell_volume 3083.637062
_symmetry_space_group_name_H-M "P M M N"
_symmetry_group_IT_number 59
_space_group.IT_coordinate_system_code '2'
_symmetry_cell_setting 'orthorhombic'
loop_
_space_group_symop_operation_xyz
x,y,z
1/2-x,1/2-y,z
1/2+x,-y,-z
-x,1/2+y,-z
-x,-y,-z
1/2+x,1/2+y,-z
1/2-x,y,z
x,1/2-y,z
loop_
_atom_site_type_symbol
_atom_site_label
_atom_site_fract_x
_atom_site_fract_y
_atom_site_fract_z
Si Si1 0.496117 0.453450 0.902490
Si Si2 0.610317 0.955044 0.344613
Si Si3 0.374065 0.946286 0.343251
Si Si4 0.508601 0.948437 0.596908
Si Si5 0.113127 0.542363 0.158266
Si Si6 0.688443 0.950116 0.492605
Si Si7 0.878361 0.545837 0.158752
Si Si8 0.688413 0.452855 0.995784
O O1 0.495565 0.250000 0.895926
O O2 0.550718 0.513724 0.856211
O O3 0.439088 0.516553 0.865433
O O4 0.500000 0.500000 0.000000
O O5 0.609272 0.750000 0.347310
O O6 0.647612 0.019135 0.421214
O O7 0.633296 0.007841 0.253992
O O8 0.547782 0.011568 0.355938
O O9 0.358736 0.750000 0.343095
O O10 0.366058 0.014262 0.249165
O O11 0.438336 0.961174 0.365438
O O12 0.339297 0.029039 0.416960
O O13 0.520003 0.750000 0.600077
O O14 0.500000 0.000000 0.500000
O O15 0.112981 0.750000 0.158885
O O16 0.149545 0.485518 0.079593
O O17 0.750000 0.020412 0.489966
O O18 0.692375 0.750000 0.476228
O O19 0.879176 0.750000 0.158103
O O20 0.837336 0.491218 0.086156
O O21 0.750000 0.518975 0.988945
O O22 0.690305 0.250000 0.987444
#
# Coordination Sequence:
#
# PCOD9447136 Si02
#       8
#     8   8   8   8   8   8   8   8
#     4  10  18  32  55  82 111 145 181 226 280 337
#     4  10  21  39  62  86 117 155 195 239 289 352
#     4  11  22  38  62  89 117 153 197 244 291 349
#     4  12  23  37  60  90 123 156 189 235 293 353
#     4   9  19  36  58  83 114 149 189 237 289 343
#     4  10  22  40  60  83 114 153 197 245 296 348
#     4  10  21  36  58  87 116 148 191 239 289 344
#     4  10  21  38  59  82 112 153 198 242 287 339
#
# _framework density 20.754712000000001
#
# number of rings (size 3 to 8) (size 9 to 14) (size 15 to 20)
#    0.000    1.750    2.500    2.250    0.000    4.000 
#    0.000    6.250    0.000    0.000    0.000    0.000 
#    0.000    0.000    0.000    0.000    0.000    0.000 
#
# Total GULP energy -357597.480870 kJ/mol
# GULP energy per Si atom -5587.460639 kJ/mol
# Density = 2.070747 g / cm^3
# Si number density = 20.754712 Si / 1000 Ang^3
#
#
#
# Elastic Constant Matrix: (Units=GPa)
#
#
# Indices 1 2 3 4 5 6 
#
# 1 92.4717 -6.5996 8.7924 0.0000 0.0000 0.0000
# 2 -6.5996 22.9682 -8.1034 0.0000 0.0000 0.0000
# 3 8.7924 -8.1034 99.3265 0.0000 0.0000 0.0000
# 4 0.0000 0.0000 0.0000 19.7236 0.0000 0.0000
# 5 0.0000 0.0000 0.0000 0.0000 2.1767 0.0000
# 6 0.0000 0.0000 0.0000 0.0000 0.0000 19.0459
#
#
#
# Elastic Compliance Matrix: (Units=1/GPa)
#
#
# Indices 1 2 3 4 5 6 
#
# 1 0.011094 0.002925 -0.000743 0.000000 0.000000 0.000000
# 2 0.002925 0.045600 0.003461 0.000000 0.000000 0.000000
# 3 -0.000743 0.003461 0.010416 0.000000 0.000000 0.000000
# 4 0.000000 0.000000 0.000000 0.050701 0.000000 0.000000
# 5 0.000000 0.000000 0.000000 0.000000 0.459408 0.000000
# 6 0.000000 0.000000 0.000000 0.000000 0.000000 0.052505
#
#
# Mechanical properties :
#
#
# Convention : Reuss Voigt Hill
#
# Bulk Modulus (GPa) = 12.75573 22.54948 17.65261
# Shear Modulus (GPa) = 7.75713 22.90105 15.32909
#
# Velocity S-wave (km/s) = 1.93537 3.32537 2.72064
# Velocity P-wave (km/s) = 3.33968 5.06285 4.28870
#
# Compressibility (1/GPa) = 0.07839612
#
# Stress axis : x y z
#
# Youngs Moduli (GPa) = 90.14227 21.92977 96.00627
#
# Poissons Ratio (x) = -0.06415 0.07137
# Poissons Ratio (y) = -0.26370 -0.33230
# Poissons Ratio (z) = 0.06701 -0.07590
#
# Static dielectric constant tensor:
#      x y z
#    x 1.639050 0.000000 0.000000 
#    y 0.000000 1.763250 0.000000 
#    z 0.000000 0.000000 1.725810 
# 
# From -- ./inp_files/21516.got.cif
#   From: 2010.05.17/outbox.cif.g08.bks.cpg/sg59_11_cif.got.tgz:21516.got - 2010.06.03 14:40:33.
