data_PCOD9448782
_publ_section_title
;
Structure prediction by ZEFSAII (Michael W. Deem and Ramdas Pophale) SiO2 
 PCOD9448782
Probable space group: P M M N
;
_chemical_formula_sum "Si O2"
_cell_formula_units_Z 64
_cell_length_a 9.006115
_cell_length_b 23.218118
_cell_length_c 15.564349
_cell_angle_alpha 90.000000
_cell_angle_beta 90.000000
_cell_angle_gamma 90.000000
_cell_volume 3254.583833
_symmetry_space_group_name_H-M "P M M N"
_symmetry_group_IT_number 59
_space_group.IT_coordinate_system_code '2'
_symmetry_cell_setting 'orthorhombic'
loop_
_space_group_symop_operation_xyz
x,y,z
1/2-x,1/2-y,z
1/2+x,-y,-z
-x,1/2+y,-z
-x,-y,-z
1/2+x,1/2+y,-z
1/2-x,y,z
x,1/2-y,z
loop_
_atom_site_type_symbol
_atom_site_label
_atom_site_fract_x
_atom_site_fract_y
_atom_site_fract_z
Si Si1 0.573752 0.488706 0.324652
Si Si2 0.071821 0.184219 0.759836
Si Si3 0.076158 0.511172 0.148949
Si Si4 0.573315 0.314282 0.456558
Si Si5 0.074238 0.380554 0.102975
Si Si6 0.424087 0.864754 0.070624
Si Si7 0.570996 0.606410 0.402276
Si Si8 0.927810 0.633285 0.700834
O O1 0.750000 0.477683 0.329907
O O2 0.531347 0.513515 0.230727
O O3 0.533123 0.539214 0.390920
O O4 0.483835 0.429576 0.330110
O O5 0.250000 0.179959 0.767209
O O6 0.033815 0.250000 0.736819
O O7 0.024997 0.140823 0.684184
O O8 0.001657 0.167925 0.850949
O O9 0.250000 0.510429 0.177870
O O10 0.049784 0.449855 0.103851
O O11 0.055320 0.567130 0.091098
O O12 0.750000 0.321105 0.452459
O O13 0.538940 0.250000 0.489518
O O14 0.503631 0.362029 0.518290
O O15 0.503853 0.322025 0.362503
O O16 0.250000 0.370807 0.093460
O O17 0.029973 0.360580 0.198781
O O18 0.990916 0.353103 0.022902
O O19 0.250000 0.852257 0.071614
O O20 0.750000 0.610636 0.409334
O O21 0.750000 0.635966 0.695177
#
# Coordination Sequence:
#
# PCOD9448782 Si02
#       8
#     8   8   8   8   8   8   8   8
#     4  10  19  33  58  90 122 155 191 235 289 344
#     4  10  21  38  58  80 112 155 200 243 286 342
#     4   9  18  32  50  79 117 155 190 229 279 340
#     4  11  25  43  64  90 116 147 192 244 295 346
#     4   9  19  35  55  80 112 149 192 233 279 339
#     4  11  21  32  52  82 115 151 192 237 287 337
#     4  10  21  38  62  90 118 153 194 235 287 350
#     4  10  22  41  63  87 118 155 194 240 293 351
#
# _framework density 19.664573000000001
#
# number of rings (size 3 to 8) (size 9 to 14) (size 15 to 20)
#    0.000    2.000    1.250    3.000    0.000    6.750 
#    0.000    0.625    0.000    0.750    0.000    0.000 
#    0.000    0.000    0.000    0.000    0.000    0.000 
#
# Total GULP energy -357422.253839 kJ/mol
# GULP energy per Si atom -5584.722716 kJ/mol
# Density = 1.961982 g / cm^3
# Si number density = 19.664573 Si / 1000 Ang^3
#
#
#
# Elastic Constant Matrix: (Units=GPa)
#
#
# Indices 1 2 3 4 5 6 
#
# 1 10.3491 7.5301 15.6264 0.0000 0.0000 0.0000
# 2 7.5301 15.6976 22.0157 0.0000 0.0000 0.0000
# 3 15.6264 22.0157 71.1473 0.0000 0.0000 0.0000
# 4 0.0000 0.0000 0.0000 12.4073 0.0000 0.0000
# 5 0.0000 0.0000 0.0000 0.0000 30.4894 0.0000
# 6 0.0000 0.0000 0.0000 0.0000 0.0000 21.7702
#
#
#
# Elastic Compliance Matrix: (Units=1/GPa)
#
#
# Indices 1 2 3 4 5 6 
#
# 1 0.163941 -0.049720 -0.020622 0.000000 0.000000 0.000000
# 2 -0.049720 0.127626 -0.028572 0.000000 0.000000 0.000000
# 3 -0.020622 -0.028572 0.027426 0.000000 0.000000 0.000000
# 4 0.000000 0.000000 0.000000 0.080598 0.000000 0.000000
# 5 0.000000 0.000000 0.000000 0.000000 0.032798 0.000000
# 6 0.000000 0.000000 0.000000 0.000000 0.000000 0.045934
#
#
# Mechanical properties :
#
#
# Convention : Reuss Voigt Hill
#
# Bulk Modulus (GPa) = 8.25319 20.83761 14.54540
# Shear Modulus (GPa) = 6.97798 16.40151 11.68974
#
# Velocity S-wave (km/s) = 1.88579 2.89115 2.44079
# Velocity P-wave (km/s) = 2.99127 4.66525 3.91869
#
# Compressibility (1/GPa) = 0.12116523
#
# Stress axis : x y z
#
# Youngs Moduli (GPa) = 6.09976 7.83538 36.46179
#
# Poissons Ratio (x) = 0.38957 0.75191
# Poissons Ratio (y) = 0.30328 1.04179
# Poissons Ratio (z) = 0.12579 0.22387
#
# Static dielectric constant tensor:
#      x y z
#    x 1.650120 0.000000 0.000000 
#    y 0.000000 1.698270 0.000000 
#    z 0.000000 0.000000 1.684700 
# 
# From -- ./inp_files/21543.got.cif
#   From: 2010.05.17/outbox.cif.g08.bks.cpg/sg59_11_cif.got.tgz:21543.got - 2010.06.03 14:40:33.
