data_PCOD9448669
_publ_section_title
;
Structure prediction by ZEFSAII (Michael W. Deem and Ramdas Pophale) SiO2 
 PCOD9448669
Probable space group: P M M N
;
_chemical_formula_sum "Si O2"
_cell_formula_units_Z 64
_cell_length_a 20.540192
_cell_length_b 8.898680
_cell_length_c 20.373753
_cell_angle_alpha 90.000000
_cell_angle_beta 90.000000
_cell_angle_gamma 90.000000
_cell_volume 3723.926711
_symmetry_space_group_name_H-M "P M M N"
_symmetry_group_IT_number 59
_space_group.IT_coordinate_system_code '2'
_symmetry_cell_setting 'orthorhombic'
loop_
_space_group_symop_operation_xyz
x,y,z
1/2-x,1/2-y,z
1/2+x,-y,-z
-x,1/2+y,-z
-x,-y,-z
1/2+x,1/2+y,-z
1/2-x,y,z
x,1/2-y,z
loop_
_atom_site_type_symbol
_atom_site_label
_atom_site_fract_x
_atom_site_fract_y
_atom_site_fract_z
Si Si1 0.323161 0.569108 0.427495
Si Si2 0.324910 0.569564 0.056331
Si Si3 0.566212 0.431959 0.471292
Si Si4 0.953496 0.428239 0.324288
Si Si5 0.577763 0.930428 0.839757
Si Si6 0.174971 0.569610 0.902089
Si Si7 0.562590 0.571268 0.185662
Si Si8 0.392829 0.072754 0.306805
O O1 0.250000 0.515858 0.440174
O O2 0.323188 0.750000 0.428399
O O3 0.374270 0.518829 0.482792
O O4 0.347751 0.515348 0.356741
O O5 0.250000 0.528036 0.072797
O O6 0.330593 0.750000 0.063990
O O7 0.377090 0.488932 0.102001
O O8 0.335108 0.535589 0.979294
O O9 0.500000 0.500000 0.500000
O O10 0.561268 0.250000 0.473236
O O11 0.574247 0.473954 0.394910
O O12 0.941951 0.250000 0.313884
O O13 0.929213 0.516731 0.260846
O O14 0.031716 0.449061 0.327301
O O15 0.571770 0.750000 0.841186
O O16 0.610014 0.972245 0.769498
O O17 0.505472 0.999994 0.839580
O O18 0.250000 0.530333 0.885857
O O19 0.168336 0.750000 0.894365
O O20 0.122226 0.487678 0.857783
O O21 0.557949 0.750000 0.182920
O O22 0.378489 0.250000 0.311596
#
# Coordination Sequence:
#
# PCOD9448669 Si02
#       8
#     8   8   8   8   8   8   8   8
#     4  10  21  34  49  75 108 138 171 215 264 315
#     4   9  19  36  57  81 108 140 182 227 270 323
#     4  10  19  33  55  78 102 135 178 222 263 315
#     4   9  18  34  54  77 105 135 174 222 267 319
#     4  10  21  36  54  78 111 146 183 224 267 323
#     4   9  19  38  61  81 106 143 182 221 272 332
#     4  11  22  35  55  83 112 141 178 228 276 322
#     4   9  18  33  51  72 100 136 177 215 255 307
#
# _framework density 17.186160000000001
#
# number of rings (size 3 to 8) (size 9 to 14) (size 15 to 20)
#    0.000    2.375    1.250    3.000    0.000    5.250 
#    0.000    4.375    0.000    2.250    0.000    0.000 
#    0.000    0.000    0.000    0.000    0.000    0.000 
#
# Total GULP energy -357053.036007 kJ/mol
# GULP energy per Si atom -5578.953688 kJ/mol
# Density = 1.714704 g / cm^3
# Si number density = 17.186160 Si / 1000 Ang^3
#
#
#
# Elastic Constant Matrix: (Units=GPa)
#
#
# Indices 1 2 3 4 5 6 
#
# 1 131.1212 56.8752 102.7940 0.0000 0.0000 0.0000
# 2 56.8752 46.4633 57.8439 0.0000 0.0000 0.0000
# 3 102.7940 57.8439 129.2047 0.0000 0.0000 0.0000
# 4 0.0000 0.0000 0.0000 28.6874 0.0000 0.0000
# 5 0.0000 0.0000 0.0000 0.0000 22.3052 0.0000
# 6 0.0000 0.0000 0.0000 0.0000 0.0000 27.0224
#
#
#
# Elastic Compliance Matrix: (Units=1/GPa)
#
#
# Indices 1 2 3 4 5 6 
#
# 1 0.022931 -0.012103 -0.012825 0.000000 0.000000 0.000000
# 2 -0.012103 0.055009 -0.014998 0.000000 0.000000 0.000000
# 3 -0.012825 -0.014998 0.024658 0.000000 0.000000 0.000000
# 4 0.000000 0.000000 0.000000 0.034859 0.000000 0.000000
# 5 0.000000 0.000000 0.000000 0.000000 0.044833 0.000000
# 6 0.000000 0.000000 0.000000 0.000000 0.000000 0.037006
#
#
# Mechanical properties :
#
#
# Convention : Reuss Voigt Hill
#
# Bulk Modulus (GPa) = 43.96517 82.42392 63.19454
# Shear Modulus (GPa) = 16.30105 21.55475 18.92790
#
# Velocity S-wave (km/s) = 3.08311 3.54530 3.32225
# Velocity P-wave (km/s) = 6.18962 8.05124 7.18101
#
# Compressibility (1/GPa) = 0.02274528
#
# Stress axis : x y z
#
# Youngs Moduli (GPa) = 43.61003 18.17882 40.55505
#
# Poissons Ratio (x) = 0.22001 0.52012
# Poissons Ratio (y) = 0.52779 0.60826
# Poissons Ratio (z) = 0.55930 0.27265
#
# Static dielectric constant tensor:
#      x y z
#    x 1.562080 0.000000 0.000000 
#    y 0.000000 1.577600 0.000000 
#    z 0.000000 0.000000 1.576700 
# 
# From -- ./inp_files/28142.got.cif
#   From: 2010.05.17/outbox.cif.g08.bks.cpg/sg59_15_cif.got.tgz:28142.got - 2010.06.03 14:40:33.
