data_PCOD9448441
_publ_section_title
;
Structure prediction by ZEFSAII (Michael W. Deem and Ramdas Pophale) SiO2 
 PCOD9448441
Probable space group: P M M N
;
_chemical_formula_sum "Si O2"
_cell_formula_units_Z 56
_cell_length_a 8.903292
_cell_length_b 15.095757
_cell_length_c 21.955138
_cell_angle_alpha 90.000000
_cell_angle_beta 90.000000
_cell_angle_gamma 90.000000
_cell_volume 2950.812976
_symmetry_space_group_name_H-M "P M M N"
_symmetry_group_IT_number 59
_space_group.IT_coordinate_system_code '2'
_symmetry_cell_setting 'orthorhombic'
loop_
_space_group_symop_operation_xyz
x,y,z
1/2-x,1/2-y,z
1/2+x,-y,-z
-x,1/2+y,-z
-x,-y,-z
1/2+x,1/2+y,-z
1/2-x,y,z
x,1/2-y,z
loop_
_atom_site_type_symbol
_atom_site_label
_atom_site_fract_x
_atom_site_fract_y
_atom_site_fract_z
Si Si1 0.073227 0.649459 0.799213
Si Si2 0.573560 0.105544 0.932582
Si Si3 0.428073 0.914038 0.933999
Si Si4 0.431270 0.853626 0.501515
Si Si5 0.429689 0.489496 0.592754
Si Si6 0.073542 0.506198 0.274766
Si Si7 0.078243 0.350660 0.809190
O O1 0.250000 0.630256 0.788267
O O2 0.043188 0.750000 0.781177
O O3 0.049103 0.638458 0.871720
O O4 0.974732 0.581070 0.761984
O O5 0.750000 0.118598 0.920622
O O6 0.478253 0.147261 0.878648
O O7 0.529940 0.001538 0.931381
O O8 0.541134 0.134564 0.002025
O O9 0.250000 0.939536 0.936448
O O10 0.250000 0.854084 0.496143
O O11 0.478045 0.750000 0.506309
O O12 0.500557 0.907083 0.444582
O O13 0.470559 0.917791 0.558669
O O14 0.250000 0.482004 0.591432
O O15 0.488423 0.489890 0.661228
O O16 0.250000 0.508190 0.285446
O O17 0.023502 0.586991 0.231795
O O18 0.250000 0.383435 0.807056
O O19 0.073712 0.250000 0.787021
#
# Coordination Sequence:
#
# PCOD9448441 Si02
#       7
#     8   8   8   8   8   8   8
#     4  10  21  38  60  84 113 154 199 242 293 354
#     4  10  19  32  55  85 113 145 187 241 300 357
#     4   9  18  33  55  81 113 150 190 236 293 359
#     4   9  19  38  64  94 126 158 195 237 278 327
#     4  10  21  38  62  91 123 161 198 234 285 342
#     4  12  25  41  61  86 119 157 199 248 296 343
#     4  11  24  41  60  82 111 151 198 247 302 363
#
# _framework density 18.977820999999999
#
# number of rings (size 3 to 8) (size 9 to 14) (size 15 to 20)
#    0.000    1.857    1.429    2.571    0.000    4.571 
#    0.000    2.857    0.000    0.000    0.000    0.000 
#    0.000    0.000    0.000    0.000    0.000    0.000 
#
# Total GULP energy -312677.637324 kJ/mol
# GULP energy per Si atom -5583.529238 kJ/mol
# Density = 1.893463 g / cm^3
# Si number density = 18.977821 Si / 1000 Ang^3
#
#
#
# Elastic Constant Matrix: (Units=GPa)
#
#
# Indices 1 2 3 4 5 6 
#
# 1 27.6986 23.3946 14.8702 0.0000 0.0000 0.0000
# 2 23.3946 96.7415 28.1390 0.0000 0.0000 0.0000
# 3 14.8702 28.1390 94.0076 0.0000 0.0000 0.0000
# 4 0.0000 0.0000 0.0000 -217.7100 0.0000 0.0000
# 5 0.0000 0.0000 0.0000 0.0000 34.3658 0.0000
# 6 0.0000 0.0000 0.0000 0.0000 0.0000 4.2211
#
#
#
# Elastic Compliance Matrix: (Units=1/GPa)
#
#
# Indices 1 2 3 4 5 6 
#
# 1 0.046985 -0.010078 -0.004416 0.000000 0.000000 0.000000
# 2 -0.010078 0.013484 -0.002442 0.000000 0.000000 0.000000
# 3 -0.004416 -0.002442 0.012067 0.000000 0.000000 0.000000
# 4 0.000000 0.000000 0.000000 -0.004593 0.000000 0.000000
# 5 0.000000 0.000000 0.000000 0.000000 0.029099 0.000000
# 6 0.000000 0.000000 0.000000 0.000000 0.000000 0.236908
#
#
# Mechanical properties :
#
#
# Convention : Reuss Voigt Hill
#
# Bulk Modulus (GPa) = 25.86298 39.02839 32.44568
# Shear Modulus (GPa) = 13.13338 -25.68839 -6.27751
#
# Velocity S-wave (km/s) = 2.63352 -3.68312 -1.82071
# Velocity P-wave (km/s) = 4.78590 1.58831 3.56564
#
# Compressibility (1/GPa) = 0.03866530
#
# Stress axis : x y z
#
# Youngs Moduli (GPa) = 21.28321 74.16061 82.87150
#
# Poissons Ratio (x) = 0.74739 0.36593
# Poissons Ratio (y) = 0.21449 0.20238
# Poissons Ratio (z) = 0.09398 0.18110
#
# Static dielectric constant tensor:
#      x y z
#    x 1.642210 0.000000 0.000000 
#    y 0.000000 1.664970 0.000000 
#    z 0.000000 0.000000 1.646740 
# 
# From -- ./inp_files/29078.got.cif
#   From: 2010.05.17/outbox.cif.g08.bks.cpg/sg59_15_cif.got.tgz:29078.got - 2010.06.03 14:40:33.
