data_PCOD9448611
_publ_section_title
;
Structure prediction by ZEFSAII (Michael W. Deem and Ramdas Pophale) SiO2 
 PCOD9448611
Probable space group: P M M N
;
_chemical_formula_sum "Si O2"
_cell_formula_units_Z 56
_cell_length_a 15.007286
_cell_length_b 20.401316
_cell_length_c 9.024969
_cell_angle_alpha 90.000000
_cell_angle_beta 90.000000
_cell_angle_gamma 90.000000
_cell_volume 2763.160174
_symmetry_space_group_name_H-M "P M M N"
_symmetry_group_IT_number 59
_space_group.IT_coordinate_system_code '2'
_symmetry_cell_setting 'orthorhombic'
loop_
_space_group_symop_operation_xyz
x,y,z
1/2-x,1/2-y,z
1/2+x,-y,-z
-x,1/2+y,-z
-x,-y,-z
1/2+x,1/2+y,-z
1/2-x,y,z
x,1/2-y,z
loop_
_atom_site_type_symbol
_atom_site_label
_atom_site_fract_x
_atom_site_fract_y
_atom_site_fract_z
Si Si1 0.657337 0.427684 0.322087
Si Si2 0.352057 0.479860 0.130571
Si Si3 0.426296 0.320698 0.427240
Si Si4 0.999323 0.624301 0.870619
Si Si5 0.599242 0.968623 0.528443
Si Si6 0.117974 0.823648 0.426188
Si Si7 0.647760 0.132927 0.911565
O O1 0.750000 0.419117 0.237912
O O2 0.569921 0.416932 0.227041
O O3 0.653965 0.497250 0.400189
O O4 0.655107 0.374779 0.454784
O O5 0.250000 0.457682 0.108123
O O6 0.423995 0.426662 0.072621
O O7 0.370932 0.487431 0.306424
O O8 0.359850 0.553896 0.072255
O O9 0.380387 0.250000 0.444985
O O10 0.454266 0.329371 0.253715
O O11 0.386743 0.390634 0.472166
O O12 0.514650 0.319808 0.528344
O O13 0.064357 0.658279 0.990210
O O14 0.500000 0.000000 0.500000
O O15 0.153168 0.750000 0.443229
O O16 0.133156 0.847759 0.259680
O O17 0.750000 0.153438 0.948358
#
# Coordination Sequence:
#
# PCOD9448611 Si02
#       7
#     8   8   8   8   8   8   8
#     4  11  20  33  54  80 112 147 182 221 267 325
#     4  10  19  33  54  78 105 140 182 228 273 318
#     4   9  19  35  56  78 108 144 181 220 271 329
#     4  10  21  35  53  77 111 142 181 225 276 320
#     4  11  16  32  56  81 105 137 182 225 268 310
#     4  10  20  34  53  79 111 149 187 217 260 331
#     4  11  21  33  50  78 111 145 180 221 268 319
#
# _framework density 20.266651
#
# number of rings (size 3 to 8) (size 9 to 14) (size 15 to 20)
#    0.000    1.714    5.714    1.714    0.000    1.714 
#    0.000    0.000    0.000   13.286    0.000    0.000 
#    0.000    1.714    0.000    0.000    0.000    0.000 
#
# Total GULP energy -312022.578460 kJ/mol
# GULP energy per Si atom -5571.831758 kJ/mol
# Density = 2.022052 g / cm^3
# Si number density = 20.266651 Si / 1000 Ang^3
#
#
#
# Elastic Constant Matrix: (Units=GPa)
#
#
# Indices 1 2 3 4 5 6 
#
# 1 75.7282 12.9602 15.2669 0.0000 0.0000 0.0000
# 2 12.9602 125.6939 23.1227 0.0000 0.0000 0.0000
# 3 15.2669 23.1227 62.2989 0.0000 0.0000 0.0000
# 4 0.0000 0.0000 0.0000 8.9782 0.0000 0.0000
# 5 0.0000 0.0000 0.0000 0.0000 -3.3758 0.0000
# 6 0.0000 0.0000 0.0000 0.0000 0.0000 161.5416
#
#
#
# Elastic Compliance Matrix: (Units=1/GPa)
#
#
# Indices 1 2 3 4 5 6 
#
# 1 0.013980 -0.000871 -0.003103 0.000000 0.000000 0.000000
# 2 -0.000871 0.008593 -0.002976 0.000000 0.000000 0.000000
# 3 -0.003103 -0.002976 0.017917 0.000000 0.000000 0.000000
# 4 0.000000 0.000000 0.000000 0.111381 0.000000 0.000000
# 5 0.000000 0.000000 0.000000 0.000000 -0.296227 0.000000
# 6 0.000000 0.000000 0.000000 0.000000 0.000000 0.006190
#
#
# Mechanical properties :
#
#
# Convention : Reuss Voigt Hill
#
# Bulk Modulus (GPa) = 37.60735 40.71340 39.16037
# Shear Modulus (GPa) = -43.32618 47.58688 2.13035
#
# Velocity S-wave (km/s) = -4.62866 4.85091 1.02637
# Velocity P-wave (km/s) = 3.15744 7.17688 4.55731
#
# Compressibility (1/GPa) = 0.02659055
#
# Stress axis : x y z
#
# Youngs Moduli (GPa) = 71.53264 116.37271 55.81421
#
# Poissons Ratio (x) = 0.10132 0.17317
# Poissons Ratio (y) = 0.06228 0.16610
# Poissons Ratio (z) = 0.22194 0.34633
#
# Static dielectric constant tensor:
#      x y z
#    x 1.760990 0.000000 0.000000 
#    y 0.000000 1.757130 0.000000 
#    z 0.000000 0.000000 1.728320 
# 
# From -- ./inp_files/9329.got.cif
#   From: 2010.05.17/outbox.cif.g08.bks.cpg/sg59_5_cif.got.tgz:9329.got - 2010.06.03 14:40:33.
