data_PCOD9448144
_publ_section_title
;
Structure prediction by ZEFSAII (Michael W. Deem and Ramdas Pophale) SiO2 
 PCOD9448144
Probable space group: P M M N
;
_chemical_formula_sum "Si O2"
_cell_formula_units_Z 48
_cell_length_a 32.466999
_cell_length_b 7.829929
_cell_length_c 9.134640
_cell_angle_alpha 90.000000
_cell_angle_beta 90.000000
_cell_angle_gamma 90.000000
_cell_volume 2322.156086
_symmetry_space_group_name_H-M "P M M N"
_symmetry_group_IT_number 59
_space_group.IT_coordinate_system_code '2'
_symmetry_cell_setting 'orthorhombic'
loop_
_space_group_symop_operation_xyz
x,y,z
1/2-x,1/2-y,z
1/2+x,-y,-z
-x,1/2+y,-z
-x,-y,-z
1/2+x,1/2+y,-z
1/2-x,y,z
x,1/2-y,z
loop_
_atom_site_type_symbol
_atom_site_label
_atom_site_fract_x
_atom_site_fract_y
_atom_site_fract_z
Si Si1 0.592158 0.953464 0.337652
Si Si2 0.750000 0.445422 0.698301
Si Si3 0.087037 0.957346 0.319400
Si Si4 0.997556 0.955130 0.327945
Si Si5 0.175505 0.948178 0.814774
Si Si6 0.250000 0.438098 0.617938
Si Si7 0.167726 0.959666 0.148241
O O1 0.594712 0.750000 0.315003
O O2 0.547519 0.017464 0.279355
O O3 0.593195 0.987543 0.512079
O O4 0.631091 0.036498 0.260436
O O5 0.750000 0.250000 0.752430
O O6 0.750000 0.443376 0.523456
O O7 0.792537 0.519212 0.760285
O O8 0.086767 0.750000 0.319101
O O9 0.041540 0.015912 0.266599
O O10 0.125094 0.017144 0.221605
O O11 0.996599 0.750000 0.313698
O O12 0.000000 0.000000 0.500000
O O13 0.187882 0.750000 0.821602
O O14 0.209928 0.037994 0.717397
O O15 0.172584 0.013643 0.980402
O O16 0.250000 0.250000 0.552689
O O17 0.166230 0.750000 0.150627
#
# Coordination Sequence:
#
# PCOD9448144 Si02
#       7
#     8   4   8   8   8   4   8
#     4  10  19  32  50  78 110 140 175 221 268 314
#     4  10  19  36  60  84 106 134 171 216 264 312
#     4   9  16  31  54  78 102 139 185 227 267 312
#     4   8  15  27  47  73 104 137 175 221 268 310
#     4  11  22  38  57  78 105 141 177 212 254 310
#     4  12  25  40  58  84 110 134 167 212 260 312
#     4   9  19  34  55  79 104 135 179 223 258 302
#
# _framework density 20.670445999999998
#
# number of rings (size 3 to 8) (size 9 to 14) (size 15 to 20)
#    0.000    2.333    0.000    3.250    0.000    3.333 
#    0.000    5.000    0.000    0.000    0.000    0.000 
#    0.000    0.000    0.000    0.000    0.000    0.000 
#
# Total GULP energy -267797.519866 kJ/mol
# GULP energy per Si atom -5579.114997 kJ/mol
# Density = 2.062340 g / cm^3
# Si number density = 20.670446 Si / 1000 Ang^3
#
#
#
# Elastic Constant Matrix: (Units=GPa)
#
#
# Indices 1 2 3 4 5 6 
#
# 1 187.5220 -4.3632 59.4227 0.0000 0.0000 0.0000
# 2 -4.3632 32.2305 -9.7251 0.0000 0.0000 0.0000
# 3 59.4227 -9.7251 82.4748 0.0000 0.0000 0.0000
# 4 0.0000 0.0000 0.0000 -18.3265 0.0000 0.0000
# 5 0.0000 0.0000 0.0000 0.0000 -21.6701 0.0000
# 6 0.0000 0.0000 0.0000 0.0000 0.0000 -16.2323
#
#
#
# Elastic Compliance Matrix: (Units=1/GPa)
#
#
# Indices 1 2 3 4 5 6 
#
# 1 0.006921 -0.000589 -0.005056 0.000000 0.000000 0.000000
# 2 -0.000589 0.032221 0.004224 0.000000 0.000000 0.000000
# 3 -0.005056 0.004224 0.016266 0.000000 0.000000 0.000000
# 4 0.000000 0.000000 0.000000 -0.054566 0.000000 0.000000
# 5 0.000000 0.000000 0.000000 0.000000 -0.046147 0.000000
# 6 0.000000 0.000000 0.000000 0.000000 0.000000 -0.061606
#
#
# Mechanical properties :
#
#
# Convention : Reuss Voigt Hill
#
# Bulk Modulus (GPa) = 19.02379 43.65511 31.33945
# Shear Modulus (GPa) = -57.77322 5.88042 -25.94640
#
# Velocity S-wave (km/s) = -5.29248 1.68850 -3.54678
# Velocity P-wave (km/s) = 5.30319 4.99668 1.25638
#
# Compressibility (1/GPa) = 0.05256577
#
# Stress axis : x y z
#
# Youngs Moduli (GPa) = 144.48344 31.03548 61.47852
#
# Poissons Ratio (x) = 0.01827 0.31084
# Poissons Ratio (y) = 0.08505 -0.25966
# Poissons Ratio (z) = 0.73052 -0.13108
#
# Static dielectric constant tensor:
#      x y z
#    x 1.765410 0.000000 0.000000 
#    y 0.000000 1.750760 0.000000 
#    z 0.000000 0.000000 1.677790 
# 
# From -- ./inp_files/6407.got.cif
#   From: 2010.05.17/outbox.cif.g08.bks.cpg/sg59_4_cif.got.tgz:6407.got - 2010.06.03 14:40:33.
