data_PCOD9448330
_publ_section_title
;
Structure prediction by ZEFSAII (Michael W. Deem and Ramdas Pophale) SiO2 
 PCOD9448330
Probable space group: P M M N
;
_chemical_formula_sum "Si O2"
_cell_formula_units_Z 64
_cell_length_a 18.143545
_cell_length_b 7.502160
_cell_length_c 21.200702
_cell_angle_alpha 90.000000
_cell_angle_beta 90.000000
_cell_angle_gamma 90.000000
_cell_volume 2885.750037
_symmetry_space_group_name_H-M "P M M N"
_symmetry_group_IT_number 59
_space_group.IT_coordinate_system_code '2'
_symmetry_cell_setting 'orthorhombic'
loop_
_space_group_symop_operation_xyz
x,y,z
1/2-x,1/2-y,z
1/2+x,-y,-z
-x,1/2+y,-z
-x,-y,-z
1/2+x,1/2+y,-z
1/2-x,y,z
x,1/2-y,z
loop_
_atom_site_type_symbol
_atom_site_label
_atom_site_fract_x
_atom_site_fract_y
_atom_site_fract_z
Si Si1 0.605131 0.034806 0.122610
Si Si2 0.562085 0.534054 0.362656
Si Si3 0.559072 0.956861 0.851023
Si Si4 0.086651 0.538753 0.012614
Si Si5 0.830632 0.538101 0.255522
Si Si6 0.107726 0.458116 0.386687
Si Si7 0.834965 0.967804 0.478853
Si Si8 0.332389 0.031118 0.255029
O O1 0.601657 0.250000 0.118289
O O2 0.522699 0.965947 0.139204
O O3 0.655768 0.990179 0.181537
O O4 0.625268 0.973096 0.051762
O O5 0.558522 0.750000 0.361835
O O6 0.601810 0.471111 0.298303
O O7 0.479224 0.471172 0.373763
O O8 0.614122 0.477460 0.420563
O O9 0.546993 0.750000 0.835580
O O10 0.607244 0.033782 0.794818
O O11 0.601219 0.964256 0.918060
O O12 0.097249 0.750000 0.017364
O O13 0.000000 0.500000 0.000000
O O14 0.750000 0.466479 0.273815
O O15 0.828521 0.750000 0.266583
O O16 0.128209 0.250000 0.389335
O O17 0.131561 0.531131 0.454545
O O18 0.148725 0.531697 0.325360
O O19 0.750000 0.022439 0.472211
O O20 0.835821 0.750000 0.478218
O O21 0.250000 0.979572 0.236850
O O22 0.334808 0.250000 0.254987
#
# Coordination Sequence:
#
# PCOD9448330 Si02
#       8
#     8   8   8   8   8   8   8   8
#     4   9  18  32  50  73  99 127 159 199 249 296
#     4  10  20  34  52  74 102 133 164 203 250 295
#     4   9  17  30  49  73 100 128 160 200 244 291
#     4   9  17  30  49  73  99 126 160 201 243 290
#     4  10  21  35  50  70  96 128 167 207 245 290
#     4  10  19  32  53  78 101 128 168 211 243 283
#     4   9  17  31  53  78 102 132 169 205 242 287
#     4   9  17  30  49  73 100 130 165 205 246 287
#
# _framework density 22.177945000000001
#
# number of rings (size 3 to 8) (size 9 to 14) (size 15 to 20)
#    0.000    2.625    0.000    3.000    0.000    7.250 
#    0.000    1.250    0.000    6.750    0.000    0.000 
#    0.000    0.000    0.000    0.000    0.000    0.000 
#
# Total GULP energy -357219.901657 kJ/mol
# GULP energy per Si atom -5581.560963 kJ/mol
# Density = 2.212747 g / cm^3
# Si number density = 22.177945 Si / 1000 Ang^3
#
#
#
# Elastic Constant Matrix: (Units=GPa)
#
#
# Indices 1 2 3 4 5 6 
#
# 1 43.6178 -9.9006 -11.7900 0.0000 0.0000 0.0000
# 2 -9.9006 56.2306 -11.3303 0.0000 0.0000 0.0000
# 3 -11.7900 -11.3303 68.9155 0.0000 0.0000 0.0000
# 4 0.0000 0.0000 0.0000 1.9712 0.0000 0.0000
# 5 0.0000 0.0000 0.0000 0.0000 -1.0677 0.0000
# 6 0.0000 0.0000 0.0000 0.0000 0.0000 11.2457
#
#
#
# Elastic Compliance Matrix: (Units=1/GPa)
#
#
# Indices 1 2 3 4 5 6 
#
# 1 0.025626 0.005580 0.005302 0.000000 0.000000 0.000000
# 2 0.005580 0.019608 0.004178 0.000000 0.000000 0.000000
# 3 0.005302 0.004178 0.016104 0.000000 0.000000 0.000000
# 4 0.000000 0.000000 0.000000 0.507295 0.000000 0.000000
# 5 0.000000 0.000000 0.000000 0.000000 -0.936580 0.000000
# 6 0.000000 0.000000 0.000000 0.000000 0.000000 0.088923
#
#
# Mechanical properties :
#
#
# Convention : Reuss Voigt Hill
#
# Bulk Modulus (GPa) = 10.93383 11.41358 11.17371
# Shear Modulus (GPa) = -17.94319 15.88217 -1.03051
#
# Velocity S-wave (km/s) = -2.84748 2.67895 -0.68240
# Velocity P-wave (km/s) = 2.42282 3.83752 2.10434
#
# Compressibility (1/GPa) = 0.09145927
#
# Stress axis : x y z
#
# Youngs Moduli (GPa) = 39.02280 50.99864 62.09458
#
# Poissons Ratio (x) = -0.28459 -0.32919
# Poissons Ratio (y) = -0.21776 -0.25946
# Poissons Ratio (z) = -0.20688 -0.21309
#
# Static dielectric constant tensor:
#      x y z
#    x 1.779740 0.000000 0.000000 
#    y 0.000000 1.869090 0.000000 
#    z 0.000000 0.000000 1.824850 
# 
# From -- ./inp_files/30809.got.cif
#   From: 2010.05.17/outbox.cif.g08.bks.cpg/sg59_16_cif.got.tgz:30809.got - 2010.06.03 14:40:33.
