data_PCOD9448165
_publ_section_title
;
Structure prediction by ZEFSAII (Michael W. Deem and Ramdas Pophale) SiO2 
 PCOD9448165
Probable space group: P M M N
;
_chemical_formula_sum "Si O2"
_cell_formula_units_Z 64
_cell_length_a 8.761663
_cell_length_b 25.036166
_cell_length_c 15.578581
_cell_angle_alpha 90.000000
_cell_angle_beta 90.000000
_cell_angle_gamma 90.000000
_cell_volume 3417.293371
_symmetry_space_group_name_H-M "P M M N"
_symmetry_group_IT_number 59
_space_group.IT_coordinate_system_code '2'
_symmetry_cell_setting 'orthorhombic'
loop_
_space_group_symop_operation_xyz
x,y,z
1/2-x,1/2-y,z
1/2+x,-y,-z
-x,1/2+y,-z
-x,-y,-z
1/2+x,1/2+y,-z
1/2-x,y,z
x,1/2-y,z
loop_
_atom_site_type_symbol
_atom_site_label
_atom_site_fract_x
_atom_site_fract_y
_atom_site_fract_z
Si Si1 0.566868 0.312332 0.552773
Si Si2 0.568454 0.812839 0.631336
Si Si3 0.432046 0.614258 0.779312
Si Si4 0.435101 0.617810 0.282344
Si Si5 0.571482 0.651760 0.101743
Si Si6 0.566397 0.308839 0.068640
Si Si7 0.920979 0.001041 0.752072
Si Si8 0.578316 0.044462 0.944291
O O1 0.750000 0.316459 0.541057
O O2 0.531404 0.250000 0.570517
O O3 0.485535 0.327857 0.464400
O O4 0.524054 0.348726 0.633535
O O5 0.750000 0.819671 0.639342
O O6 0.531966 0.750000 0.642235
O O7 0.484235 0.847392 0.702536
O O8 0.250000 0.611791 0.784205
O O9 0.486568 0.643240 0.868027
O O10 0.492357 0.554953 0.758057
O O11 0.250000 0.616031 0.274023
O O12 0.497762 0.646855 0.196568
O O13 0.487113 0.555599 0.290081
O O14 0.750000 0.662610 0.109485
O O15 0.534476 0.593878 0.062025
O O16 0.496631 0.688075 0.028277
O O17 0.750000 0.311899 0.064413
O O18 0.525563 0.250000 0.104916
O O19 0.750000 0.991416 0.716969
O O20 0.907456 0.020716 0.849744
O O21 0.750000 0.059803 0.973864
O O22 0.500000 0.000000 0.000000
#
# Coordination Sequence:
#
# PCOD9448165 Si02
#       8
#     8   8   8   8   8   8   8   8
#     4   9  18  35  61  88 110 137 178 226 274 326
#     4  10  21  37  58  84 113 143 175 218 275 335
#     4  11  22  36  57  82 107 140 185 232 276 325
#     4   9  19  37  58  81 113 151 187 226 273 324
#     4  11  22  34  51  77 109 144 180 220 267 321
#     4  10  22  39  56  75 104 143 185 232 284 334
#     4   9  19  34  51  74 107 144 181 222 269 323
#     4  10  19  32  51  74 101 136 179 225 269 316
#
# _framework density 18.728273000000002
#
# number of rings (size 3 to 8) (size 9 to 14) (size 15 to 20)
#    0.000    2.125    0.000    4.125    0.000    8.000 
#    0.000    1.875    0.000    0.000    0.000    0.000 
#    0.000    0.000    0.000    0.000    0.000    0.000 
#
# Total GULP energy -356811.980458 kJ/mol
# GULP energy per Si atom -5575.187195 kJ/mol
# Density = 1.868565 g / cm^3
# Si number density = 18.728273 Si / 1000 Ang^3
#
#
#
# Elastic Constant Matrix: (Units=GPa)
#
#
# Indices 1 2 3 4 5 6 
#
# 1 33.9814 27.1651 21.3147 0.0000 0.0000 0.0000
# 2 27.1651 90.7684 53.0423 0.0000 0.0000 0.0000
# 3 21.3147 53.0423 83.6454 0.0000 0.0000 0.0000
# 4 0.0000 0.0000 0.0000 34.5095 0.0000 0.0000
# 5 0.0000 0.0000 0.0000 0.0000 22.2933 0.0000
# 6 0.0000 0.0000 0.0000 0.0000 0.0000 16.9165
#
#
#
# Elastic Compliance Matrix: (Units=1/GPa)
#
#
# Indices 1 2 3 4 5 6 
#
# 1 0.039542 -0.009447 -0.004086 0.000000 0.000000 0.000000
# 2 -0.009447 0.019760 -0.010123 0.000000 0.000000 0.000000
# 3 -0.004086 -0.010123 0.019416 0.000000 0.000000 0.000000
# 4 0.000000 0.000000 0.000000 0.028978 0.000000 0.000000
# 5 0.000000 0.000000 0.000000 0.000000 0.044857 0.000000
# 6 0.000000 0.000000 0.000000 0.000000 0.000000 0.059114
#
#
# Mechanical properties :
#
#
# Convention : Reuss Voigt Hill
#
# Bulk Modulus (GPa) = 31.84020 45.71549 38.77784
# Shear Modulus (GPa) = 18.55655 21.86872 20.21263
#
# Velocity S-wave (km/s) = 3.15116 3.42085 3.28877
# Velocity P-wave (km/s) = 5.50253 6.32975 5.93058
#
# Compressibility (1/GPa) = 0.03140684
#
# Stress axis : x y z
#
# Youngs Moduli (GPa) = 25.28929 50.60748 51.50421
#
# Poissons Ratio (x) = 0.47807 0.21044
# Poissons Ratio (y) = 0.23890 0.52139
# Poissons Ratio (z) = 0.10333 0.51231
#
# Static dielectric constant tensor:
#      x y z
#    x 1.654500 0.000000 0.000000 
#    y 0.000000 1.651330 0.000000 
#    z 0.000000 0.000000 1.628110 
# 
# From -- ./inp_files/21621.got.cif
#   From: 2010.05.17/outbox.cif.g08.bks.cpg/sg59_11_cif.got.tgz:21621.got - 2010.06.03 14:40:33.
