data_PCOD9448696
_publ_section_title
;
Structure prediction by ZEFSAII (Michael W. Deem and Ramdas Pophale) SiO2 
 PCOD9448696
Probable space group: P M M N
;
_chemical_formula_sum "Si O2"
_cell_formula_units_Z 64
_cell_length_a 22.838842
_cell_length_b 8.041009
_cell_length_c 18.106581
_cell_angle_alpha 90.000000
_cell_angle_beta 90.000000
_cell_angle_gamma 90.000000
_cell_volume 3325.225330
_symmetry_space_group_name_H-M "P M M N"
_symmetry_group_IT_number 59
_space_group.IT_coordinate_system_code '2'
_symmetry_cell_setting 'orthorhombic'
loop_
_space_group_symop_operation_xyz
x,y,z
1/2-x,1/2-y,z
1/2+x,-y,-z
-x,1/2+y,-z
-x,-y,-z
1/2+x,1/2+y,-z
1/2-x,y,z
x,1/2-y,z
loop_
_atom_site_type_symbol
_atom_site_label
_atom_site_fract_x
_atom_site_fract_y
_atom_site_fract_z
Si Si1 0.684953 0.944763 0.040963
Si Si2 0.815539 0.049736 0.627349
Si Si3 0.599558 0.059633 0.757162
Si Si4 0.415580 0.448208 0.471710
Si Si5 0.027058 0.551413 0.620424
Si Si6 0.552186 0.555980 0.057160
Si Si7 0.525395 0.439570 0.220246
Si Si8 0.813703 0.556802 0.864428
O O1 0.750000 0.012095 0.065870
O O2 0.684188 0.750000 0.065158
O O3 0.619331 0.016744 0.055534
O O4 0.687540 0.947457 0.952320
O O5 0.750000 0.983760 0.629307
O O6 0.813143 0.250000 0.630605
O O7 0.854475 0.996174 0.696820
O O8 0.852121 0.997833 0.556199
O O9 0.582043 0.250000 0.740799
O O10 0.543728 0.945044 0.763591
O O11 0.634621 0.052166 0.833234
O O12 0.421580 0.250000 0.473915
O O13 0.464428 0.512114 0.412145
O O14 0.430184 0.516312 0.552388
O O15 0.021590 0.750000 0.629969
O O16 0.047544 0.487680 0.700856
O O17 0.559167 0.750000 0.039453
O O18 0.533786 0.531760 0.142669
O O19 0.500000 0.500000 0.000000
O O20 0.546145 0.250000 0.210245
O O21 0.750000 0.500369 0.836303
O O22 0.822173 0.750000 0.843046
#
# Coordination Sequence:
#
# PCOD9448696 Si02
#       8
#     8   8   8   8   8   8   8   8
#     4   8  16  33  55  76 100 136 182 227 274 333
#     4  10  21  35  50  72 108 150 183 216 266 328
#     4  11  21  32  48  72 105 142 183 226 269 320
#     4  10  19  33  55  81 105 133 177 225 268 319
#     4   9  19  35  55  78 104 137 174 221 278 327
#     4  11  22  36  57  86 117 150 189 237 293 344
#     4  11  22  37  55  77 110 145 183 227 277 336
#     4   9  17  30  49  71  97 135 179 220 268 328
#
# _framework density 19.246815999999999
#
# number of rings (size 3 to 8) (size 9 to 14) (size 15 to 20)
#    0.000    2.125    1.250    3.375    0.000    4.000 
#    0.000    0.625    0.000    3.750    0.000    3.500 
#    0.000    0.000    0.000    0.000    0.000    0.000 
#
# Total GULP energy -356425.210472 kJ/mol
# GULP energy per Si atom -5569.143914 kJ/mol
# Density = 1.920301 g / cm^3
# Si number density = 19.246816 Si / 1000 Ang^3
#
#
#
# Elastic Constant Matrix: (Units=GPa)
#
#
# Indices 1 2 3 4 5 6 
#
# 1 111.5019 10.3247 42.6122 0.0000 0.0000 0.0000
# 2 10.3247 18.9892 1.0211 0.0000 0.0000 0.0000
# 3 42.6122 1.0211 91.6705 0.0000 0.0000 0.0000
# 4 0.0000 0.0000 0.0000 18.7972 0.0000 0.0000
# 5 0.0000 0.0000 0.0000 0.0000 1.4259 0.0000
# 6 0.0000 0.0000 0.0000 0.0000 0.0000 1.3243
#
#
#
# Elastic Compliance Matrix: (Units=1/GPa)
#
#
# Indices 1 2 3 4 5 6 
#
# 1 0.011550 -0.005995 -0.005302 0.000000 0.000000 0.000000
# 2 -0.005995 0.055805 0.002165 0.000000 0.000000 0.000000
# 3 -0.005302 0.002165 0.013349 0.000000 0.000000 0.000000
# 4 0.000000 0.000000 0.000000 0.053199 0.000000 0.000000
# 5 0.000000 0.000000 0.000000 0.000000 0.701336 0.000000
# 6 0.000000 0.000000 0.000000 0.000000 0.000000 0.755100
#
#
# Mechanical properties :
#
#
# Convention : Reuss Voigt Hill
#
# Bulk Modulus (GPa) = 16.01539 36.67529 26.34534
# Shear Modulus (GPa) = 3.06858 15.52305 9.29582
#
# Velocity S-wave (km/s) = 1.26404 2.84302 2.20006
# Velocity P-wave (km/s) = 3.23566 5.46568 4.49128
#
# Compressibility (1/GPa) = 0.06243995
#
# Stress axis : x y z
#
# Youngs Moduli (GPa) = 86.58149 17.91969 74.91122
#
# Poissons Ratio (x) = 0.10742 0.39718
# Poissons Ratio (y) = 0.51903 -0.16218
# Poissons Ratio (z) = 0.45906 -0.03880
#
# Static dielectric constant tensor:
#      x y z
#    x 1.724440 0.000000 0.000000 
#    y 0.000000 1.749030 0.000000 
#    z 0.000000 0.000000 1.698090 
# 
# From -- ./inp_files/28163.got.cif
#   From: 2010.05.17/outbox.cif.g08.bks.cpg/sg59_15_cif.got.tgz:28163.got - 2010.06.03 14:40:33.
