data_PCOD9448207
_publ_section_title
;
Structure prediction by ZEFSAII (Michael W. Deem and Ramdas Pophale) SiO2 
 PCOD9448207
Probable space group: P M M N
;
_chemical_formula_sum "Si O2"
_cell_formula_units_Z 48
_cell_length_a 22.432700
_cell_length_b 12.973129
_cell_length_c 9.894913
_cell_angle_alpha 90.000000
_cell_angle_beta 90.000000
_cell_angle_gamma 90.000000
_cell_volume 2879.640448
_symmetry_space_group_name_H-M "P M M N"
_symmetry_group_IT_number 59
_space_group.IT_coordinate_system_code '2'
_symmetry_cell_setting 'orthorhombic'
loop_
_space_group_symop_operation_xyz
x,y,z
1/2-x,1/2-y,z
1/2+x,-y,-z
-x,1/2+y,-z
-x,-y,-z
1/2+x,1/2+y,-z
1/2-x,y,z
x,1/2-y,z
loop_
_atom_site_type_symbol
_atom_site_label
_atom_site_fract_x
_atom_site_fract_y
_atom_site_fract_z
Si Si1 0.318894 0.011873 0.397360
Si Si2 0.507582 0.990092 0.287103
Si Si3 0.431537 0.371081 0.484181
Si Si4 0.182588 0.632163 0.659080
Si Si5 0.083171 0.869744 0.887577
Si Si6 0.609680 0.128700 0.800502
O O1 0.250000 0.043258 0.382124
O O2 0.366993 0.101614 0.422211
O O3 0.324438 0.941718 0.531716
O O4 0.341123 0.941105 0.273374
O O5 0.480335 0.078658 0.384002
O O6 0.533710 0.047838 0.156928
O O7 0.556869 0.928501 0.373404
O O8 0.453962 0.912226 0.253946
O O9 0.439851 0.250000 0.497947
O O10 0.250000 0.619918 0.711970
O O11 0.175998 0.750000 0.610607
O O12 0.135203 0.616901 0.777044
O O13 0.062049 0.750000 0.879393
O O14 0.107607 0.885283 0.038118
O O15 0.617619 0.250000 0.770857
#
# Coordination Sequence:
#
# PCOD9448207 Si02
#       6
#     8   8   8   8   8   8
#     4  10  20  35  53  75 101 132 170 214 260 303
#     4  10  19  34  51  75 107 140 170 209 259 305
#     4  10  20  33  53  79 102 132 174 218 259 301
#     4   9  17  30  49  72  99 132 169 208 253 303
#     4  10  19  32  51  76 106 139 172 209 253 308
#     4  10  21  33  50  77 107 138 171 208 255 307
#
# _framework density 16.668747
#
# number of rings (size 3 to 8) (size 9 to 14) (size 15 to 20)
#    0.000    2.167    1.667    2.000    0.000    2.000 
#    0.000    1.667    0.000    1.000    0.000    0.000 
#    0.000    0.000    0.000    0.000    0.000    0.000 
#
# Total GULP energy -267632.801046 kJ/mol
# GULP energy per Si atom -5575.683355 kJ/mol
# Density = 1.663081 g / cm^3
# Si number density = 16.668747 Si / 1000 Ang^3
#
#
#
# Elastic Constant Matrix: (Units=GPa)
#
#
# Indices 1 2 3 4 5 6 
#
# 1 59.3706 31.0976 12.7088 0.0000 0.0000 0.0000
# 2 31.0976 86.4894 28.8074 0.0000 0.0000 0.0000
# 3 12.7088 28.8074 63.2829 0.0000 0.0000 0.0000
# 4 0.0000 0.0000 0.0000 23.6682 0.0000 0.0000
# 5 0.0000 0.0000 0.0000 0.0000 16.4613 0.0000
# 6 0.0000 0.0000 0.0000 0.0000 0.0000 9.1826
#
#
#
# Elastic Compliance Matrix: (Units=1/GPa)
#
#
# Indices 1 2 3 4 5 6 
#
# 1 0.020796 -0.007174 -0.000911 0.000000 0.000000 0.000000
# 2 -0.007174 0.016103 -0.005890 0.000000 0.000000 0.000000
# 3 -0.000911 -0.005890 0.018666 0.000000 0.000000 0.000000
# 4 0.000000 0.000000 0.000000 0.042251 0.000000 0.000000
# 5 0.000000 0.000000 0.000000 0.000000 0.060748 0.000000
# 6 0.000000 0.000000 0.000000 0.000000 0.000000 0.108902
#
#
# Mechanical properties :
#
#
# Convention : Reuss Voigt Hill
#
# Bulk Modulus (GPa) = 36.21018 39.37448 37.79233
# Shear Modulus (GPa) = 16.41385 18.96436 17.68910
#
# Velocity S-wave (km/s) = 3.14141 3.37667 3.26116
# Velocity P-wave (km/s) = 5.91003 6.23503 6.07470
#
# Compressibility (1/GPa) = 0.02761654
#
# Stress axis : x y z
#
# Youngs Moduli (GPa) = 48.08640 62.09923 53.57323
#
# Poissons Ratio (x) = 0.44550 0.04879
# Poissons Ratio (y) = 0.34497 0.31553
# Poissons Ratio (z) = 0.04379 0.36575
#
# Static dielectric constant tensor:
#      x y z
#    x 1.577450 0.000000 0.000000 
#    y 0.000000 1.543250 0.000000 
#    z 0.000000 0.000000 1.548890 
# 
# From -- ./inp_files/7576.got.cif
#   From: 2010.05.17/outbox.cif.g08.bks.cpg/sg59_4_cif.got.tgz:7576.got - 2010.06.03 14:40:33.
