data_PCOD9448382
_publ_section_title
;
Structure prediction by ZEFSAII (Michael W. Deem and Ramdas Pophale) SiO2 
 PCOD9448382
Probable space group: P M M N
;
_chemical_formula_sum "Si O2"
_cell_formula_units_Z 48
_cell_length_a 15.823077
_cell_length_b 8.907324
_cell_length_c 17.792209
_cell_angle_alpha 90.000000
_cell_angle_beta 90.000000
_cell_angle_gamma 90.000000
_cell_volume 2507.656595
_symmetry_space_group_name_H-M "P M M N"
_symmetry_group_IT_number 59
_space_group.IT_coordinate_system_code '2'
_symmetry_cell_setting 'orthorhombic'
loop_
_space_group_symop_operation_xyz
x,y,z
1/2-x,1/2-y,z
1/2+x,-y,-z
-x,1/2+y,-z
-x,-y,-z
1/2+x,1/2+y,-z
1/2-x,y,z
x,1/2-y,z
loop_
_atom_site_type_symbol
_atom_site_label
_atom_site_fract_x
_atom_site_fract_y
_atom_site_fract_z
Si Si1 0.594168 0.569532 0.996869
Si Si2 0.398396 0.072733 0.838294
Si Si3 0.500271 0.568206 0.582561
Si Si4 0.397808 0.572846 0.156272
Si Si5 0.156810 0.569436 0.684380
Si Si6 0.344376 0.430023 0.312058
O O1 0.588632 0.750000 0.993179
O O2 0.632972 0.505885 0.920370
O O3 0.500000 0.500000 0.000000
O O4 0.633229 0.530141 0.078111
O O5 0.382729 0.250000 0.828169
O O6 0.500273 0.050171 0.837673
O O7 0.359669 0.985053 0.768951
O O8 0.500000 0.500000 0.500000
O O9 0.499493 0.750000 0.577708
O O10 0.418268 0.518024 0.629980
O O11 0.583074 0.522807 0.629975
O O12 0.382336 0.750000 0.151434
O O13 0.358471 0.504761 0.231229
O O14 0.250000 0.519457 0.659650
O O15 0.154821 0.750000 0.684224
O O16 0.250000 0.464492 0.339629
O O17 0.351560 0.250000 0.302514
#
# Coordination Sequence:
#
# PCOD9448382 Si02
#       6
#     8   8   8   8   8   8
#     4   9  17  29  48  78 113 151 196 241 284 331
#     4   9  18  32  52  80 112 148 190 233 277 328
#     4  10  22  40  61  86 114 145 180 226 278 337
#     4  10  19  32  53  82 114 150 193 237 286 338
#     4  10  21  37  58  84 113 147 186 226 275 332
#     4  10  21  38  60  85 113 149 190 230 280 339
#
# _framework density 19.141376000000001
#
# number of rings (size 3 to 8) (size 9 to 14) (size 15 to 20)
#    0.000    2.333    1.667    2.000    0.000    6.000 
#    0.000    0.833    0.000    1.000    0.000    0.000 
#    0.000    0.000    0.000    0.000    0.000    0.000 
#
# Total GULP energy -267861.091120 kJ/mol
# GULP energy per Si atom -5580.439398 kJ/mol
# Density = 1.909781 g / cm^3
# Si number density = 19.141376 Si / 1000 Ang^3
#
#
#
# Elastic Constant Matrix: (Units=GPa)
#
#
# Indices 1 2 3 4 5 6 
#
# 1 116.1512 39.4864 86.4151 0.0000 0.0000 0.0000
# 2 39.4864 21.3696 38.0945 0.0000 0.0000 0.0000
# 3 86.4151 38.0945 173.2998 0.0000 0.0000 0.0000
# 4 0.0000 0.0000 0.0000 40.5305 0.0000 0.0000
# 5 0.0000 0.0000 0.0000 0.0000 -5.8576 0.0000
# 6 0.0000 0.0000 0.0000 0.0000 0.0000 10.9844
#
#
#
# Elastic Compliance Matrix: (Units=1/GPa)
#
#
# Indices 1 2 3 4 5 6 
#
# 1 0.024539 -0.038691 -0.003731 0.000000 0.000000 0.000000
# 2 -0.038691 0.137954 -0.011032 0.000000 0.000000 0.000000
# 3 -0.003731 -0.011032 0.010056 0.000000 0.000000 0.000000
# 4 0.000000 0.000000 0.000000 0.024673 0.000000 0.000000
# 5 0.000000 0.000000 0.000000 0.000000 -0.170718 0.000000
# 6 0.000000 0.000000 0.000000 0.000000 0.000000 0.091038
#
#
# Mechanical properties :
#
#
# Convention : Reuss Voigt Hill
#
# Bulk Modulus (GPa) = 15.23445 70.97915 43.10680
# Shear Modulus (GPa) = 20.29804 18.91975 19.60890
#
# Velocity S-wave (km/s) = 3.25995 3.14733 3.20414
# Velocity P-wave (km/s) = 4.70594 7.09715 6.02144
#
# Compressibility (1/GPa) = 0.06564072
#
# Stress axis : x y z
#
# Youngs Moduli (GPa) = 40.75225 7.24881 99.44491
#
# Poissons Ratio (x) = 0.28046 0.37104
# Poissons Ratio (y) = 1.57674 1.09706
# Poissons Ratio (z) = 0.15205 0.07997
#
# Static dielectric constant tensor:
#      x y z
#    x 1.715520 0.000000 0.000000 
#    y 0.000000 1.635290 0.000000 
#    z 0.000000 0.000000 1.646240 
# 
# From -- ./inp_files/27393.got.cif
#   From: 2010.05.17/outbox.cif.g08.bks.cpg/sg59_14_cif.got.tgz:27393.got - 2010.06.03 14:40:33.
