data_PCOD9448501
_publ_section_title
;
Structure prediction by ZEFSAII (Michael W. Deem and Ramdas Pophale) SiO2 
 PCOD9448501
Probable space group: P M M N
;
_chemical_formula_sum "Si O2"
_cell_formula_units_Z 40
_cell_length_a 17.554059
_cell_length_b 14.936008
_cell_length_c 7.197476
_cell_angle_alpha 90.000000
_cell_angle_beta 90.000000
_cell_angle_gamma 90.000000
_cell_volume 1887.088711
_symmetry_space_group_name_H-M "P M M N"
_symmetry_group_IT_number 59
_space_group.IT_coordinate_system_code '2'
_symmetry_cell_setting 'orthorhombic'
loop_
_space_group_symop_operation_xyz
x,y,z
1/2-x,1/2-y,z
1/2+x,-y,-z
-x,1/2+y,-z
-x,-y,-z
1/2+x,1/2+y,-z
1/2-x,y,z
x,1/2-y,z
loop_
_atom_site_type_symbol
_atom_site_label
_atom_site_fract_x
_atom_site_fract_y
_atom_site_fract_z
Si Si1 0.916710 0.478504 0.082204
Si Si2 0.371185 0.153610 0.349611
Si Si3 0.841216 0.653028 0.091370
Si Si4 0.466306 0.902464 0.554532
Si Si5 0.336198 0.949904 0.304550
O O1 0.927913 0.406960 0.242755
O O2 0.883444 0.568588 0.175819
O O3 0.861985 0.455076 0.910921
O O4 0.000000 0.500000 0.000000
O O5 0.335345 0.250000 0.404947
O O6 0.367156 0.154401 0.124141
O O7 0.457299 0.153894 0.424073
O O8 0.339023 0.053153 0.384861
O O9 0.750000 0.642056 0.096318
O O10 0.860645 0.750000 0.171910
O O11 0.399125 0.889519 0.407423
O O12 0.500000 0.000000 0.500000
O O13 0.250000 0.918326 0.322736
#
# Coordination Sequence:
#
# PCOD9448501 Si02
#       5
#     8   8   8   8   8
#     4  11  17  31  54  73 101 142 178 209 246 308
#     4   9  16  29  51  77 103 134 169 205 256 310
#     4   9  17  29  48  78 112 138 165 209 264 313
#     4  10  19  33  52  75 104 136 176 214 250 303
#     4  10  21  34  52  79 107 135 171 216 264 309
#
# _framework density 21.196672
#
# number of rings (size 3 to 8) (size 9 to 14) (size 15 to 20)
#    0.000    2.200    6.000    2.400    0.000    2.800 
#    0.000    4.000    0.000    1.800    0.000    0.000 
#    0.000    2.400    0.000    0.000    0.000    0.000 
#
# Total GULP energy -222879.158674 kJ/mol
# GULP energy per Si atom -5571.978967 kJ/mol
# Density = 2.114843 g / cm^3
# Si number density = 21.196672 Si / 1000 Ang^3
#
#
#
# Elastic Constant Matrix: (Units=GPa)
#
#
# Indices 1 2 3 4 5 6 
#
# 1 129.4786 14.5541 19.1652 0.0000 0.0000 0.0000
# 2 14.5541 33.4456 -0.6372 0.0000 0.0000 0.0000
# 3 19.1652 -0.6372 83.7221 0.0000 0.0000 0.0000
# 4 0.0000 0.0000 0.0000 -30.4671 0.0000 0.0000
# 5 0.0000 0.0000 0.0000 0.0000 19.1896 0.0000
# 6 0.0000 0.0000 0.0000 0.0000 0.0000 14.8712
#
#
#
# Elastic Compliance Matrix: (Units=1/GPa)
#
#
# Indices 1 2 3 4 5 6 
#
# 1 0.008430 -0.003705 -0.001958 0.000000 0.000000 0.000000
# 2 -0.003705 0.031533 0.001088 0.000000 0.000000 0.000000
# 3 -0.001958 0.001088 0.012401 0.000000 0.000000 0.000000
# 4 0.000000 0.000000 0.000000 -0.032822 0.000000 0.000000
# 5 0.000000 0.000000 0.000000 0.000000 0.052112 0.000000
# 6 0.000000 0.000000 0.000000 0.000000 0.000000 0.067244
#
#
# Mechanical properties :
#
#
# Convention : Reuss Voigt Hill
#
# Bulk Modulus (GPa) = 23.14141 34.75672 28.94907
# Shear Modulus (GPa) = 30.77858 14.95636 22.86747
#
# Velocity S-wave (km/s) = 3.81471 2.65919 3.28811
# Velocity P-wave (km/s) = 5.50852 5.08540 5.30118
#
# Compressibility (1/GPa) = 0.04321258
#
# Stress axis : x y z
#
# Youngs Moduli (GPa) = 118.62954 31.71330 80.64037
#
# Poissons Ratio (x) = 0.11751 0.15788
# Poissons Ratio (y) = 0.43958 -0.08775
# Poissons Ratio (z) = 0.23226 -0.03451
#
# Static dielectric constant tensor:
#      x y z
#    x 1.732860 0.000000 0.000000 
#    y 0.000000 1.932430 0.000000 
#    z 0.000000 0.000000 1.823870 
# 
# From -- ./inp_files/8809.got.cif
#   From: 2010.05.17/outbox.cif.g08.bks.cpg/sg59_5_cif.got.tgz:8809.got - 2010.06.03 14:40:33.
