data_PCOD9448584
_publ_section_title
;
Structure prediction by ZEFSAII (Michael W. Deem and Ramdas Pophale) SiO2 
 PCOD9448584
Probable space group: P M M N
;
_chemical_formula_sum "Si O2"
_cell_formula_units_Z 64
_cell_length_a 9.084546
_cell_length_b 19.291766
_cell_length_c 20.894796
_cell_angle_alpha 90.000000
_cell_angle_beta 90.000000
_cell_angle_gamma 90.000000
_cell_volume 3661.957918
_symmetry_space_group_name_H-M "P M M N"
_symmetry_group_IT_number 59
_space_group.IT_coordinate_system_code '2'
_symmetry_cell_setting 'orthorhombic'
loop_
_space_group_symop_operation_xyz
x,y,z
1/2-x,1/2-y,z
1/2+x,-y,-z
-x,1/2+y,-z
-x,-y,-z
1/2+x,1/2+y,-z
1/2-x,y,z
x,1/2-y,z
loop_
_atom_site_type_symbol
_atom_site_label
_atom_site_fract_x
_atom_site_fract_y
_atom_site_fract_z
Si Si1 0.919175 0.334411 0.589882
Si Si2 0.419457 0.334438 0.460793
Si Si3 0.926290 0.331107 0.329082
Si Si4 0.571115 0.328693 0.081221
Si Si5 0.426602 0.932786 0.178142
Si Si6 0.927296 0.068588 0.970905
Si Si7 0.427810 0.920347 0.796047
Si Si8 0.923841 0.832910 0.278413
O O1 0.750000 0.356925 0.594194
O O2 0.919732 0.250000 0.588452
O O3 0.993733 0.358019 0.523877
O O4 0.009359 0.354551 0.652940
O O5 0.250000 0.356311 0.463288
O O6 0.422172 0.250000 0.461837
O O7 0.495117 0.354458 0.394170
O O8 0.750000 0.334051 0.338348
O O9 0.963733 0.250000 0.316887
O O10 0.963775 0.377858 0.268137
O O11 0.750000 0.326214 0.082308
O O12 0.517175 0.250000 0.085343
O O13 0.527935 0.374790 0.142189
O O14 0.528156 0.367327 0.015992
O O15 0.250000 0.933279 0.183395
O O16 0.466250 0.922667 0.103378
O O17 0.494056 0.873233 0.222335
O O18 0.493256 0.006077 0.200251
O O19 0.750000 0.061656 0.974846
O O20 0.000000 0.000000 0.000000
O O21 0.250000 0.929703 0.798167
O O22 0.750000 0.847333 0.276862
O O23 0.944556 0.750000 0.272122
#
# Coordination Sequence:
#
# PCOD9448584 Si02
#       8
#     8   8   8   8   8   8   8   8
#     4   9  16  28  49  76 106 138 173 219 269 316
#     4   9  16  26  43  70 104 142 180 217 263 319
#     4   9  17  29  47  74 105 137 179 229 274 315
#     4   9  17  31  54  82 106 134 177 225 271 318
#     4  11  23  36  54  80 109 144 180 218 266 324
#     4  10  20  35  56  79 105 140 179 222 267 320
#     4  10  19  33  54  76 103 142 182 224 268 319
#     4  10  21  37  57  81 108 139 177 222 270 321
#
# _framework density 17.476990000000001
#
# number of rings (size 3 to 8) (size 9 to 14) (size 15 to 20)
#    0.000    2.375    1.250    1.875    0.000    6.750 
#    0.000    1.250    0.000    3.000    0.000    0.000 
#    0.000    0.000    0.000    0.000    0.000    0.000 
#
# Total GULP energy -357012.873575 kJ/mol
# GULP energy per Si atom -5578.326150 kJ/mol
# Density = 1.743721 g / cm^3
# Si number density = 17.476990 Si / 1000 Ang^3
#
#
#
# Elastic Constant Matrix: (Units=GPa)
#
#
# Indices 1 2 3 4 5 6 
#
# 1 66.6186 39.1365 75.7587 0.0000 0.0000 0.0000
# 2 39.1365 52.7713 53.8653 0.0000 0.0000 0.0000
# 3 75.7587 53.8653 179.7248 0.0000 0.0000 0.0000
# 4 0.0000 0.0000 0.0000 13.2991 0.0000 0.0000
# 5 0.0000 0.0000 0.0000 0.0000 24.3621 0.0000
# 6 0.0000 0.0000 0.0000 0.0000 0.0000 21.2690
#
#
#
# Elastic Compliance Matrix: (Units=1/GPa)
#
#
# Indices 1 2 3 4 5 6 
#
# 1 0.036612 -0.016424 -0.010510 0.000000 0.000000 0.000000
# 2 -0.016424 0.034670 -0.003468 0.000000 0.000000 0.000000
# 3 -0.010510 -0.003468 0.011034 0.000000 0.000000 0.000000
# 4 0.000000 0.000000 0.000000 0.075193 0.000000 0.000000
# 5 0.000000 0.000000 0.000000 0.000000 0.041047 0.000000
# 6 0.000000 0.000000 0.000000 0.000000 0.000000 0.047017
#
#
# Mechanical properties :
#
#
# Convention : Reuss Voigt Hill
#
# Bulk Modulus (GPa) = 46.48748 70.73730 58.61239
# Shear Modulus (GPa) = 15.94655 20.47632 18.21144
#
# Velocity S-wave (km/s) = 3.02392 3.42660 3.23154
# Velocity P-wave (km/s) = 6.23291 7.49786 6.89445
#
# Compressibility (1/GPa) = 0.02151117
#
# Stress axis : x y z
#
# Youngs Moduli (GPa) = 27.31349 28.84360 90.63045
#
# Poissons Ratio (x) = 0.47373 0.95257
# Poissons Ratio (y) = 0.44860 0.31428
# Poissons Ratio (z) = 0.28708 0.10002
#
# Static dielectric constant tensor:
#      x y z
#    x 1.584620 0.000000 0.000000 
#    y 0.000000 1.577700 0.000000 
#    z 0.000000 0.000000 1.581680 
# 
# From -- ./inp_files/29539.got.cif
#   From: 2010.05.17/outbox.cif.g08.bks.cpg/sg59_15_cif.got.tgz:29539.got - 2010.06.03 14:40:33.
