data_PCOD9448981
_publ_section_title
;
Structure prediction by ZEFSAII (Michael W. Deem and Ramdas Pophale) SiO2 
 PCOD9448981
Probable space group: P M M N
;
_chemical_formula_sum "Si O2"
_cell_formula_units_Z 64
_cell_length_a 19.839588
_cell_length_b 14.402887
_cell_length_c 12.193237
_cell_angle_alpha 90.000000
_cell_angle_beta 90.000000
_cell_angle_gamma 90.000000
_cell_volume 3484.185089
_symmetry_space_group_name_H-M "P M M N"
_symmetry_group_IT_number 59
_space_group.IT_coordinate_system_code '2'
_symmetry_cell_setting 'orthorhombic'
loop_
_space_group_symop_operation_xyz
x,y,z
1/2-x,1/2-y,z
1/2+x,-y,-z
-x,1/2+y,-z
-x,-y,-z
1/2+x,1/2+y,-z
1/2-x,y,z
x,1/2-y,z
loop_
_atom_site_type_symbol
_atom_site_label
_atom_site_fract_x
_atom_site_fract_y
_atom_site_fract_z
Si Si1 0.630363 0.645682 0.737118
Si Si2 0.939474 0.361122 0.993213
Si Si3 0.173968 0.498336 0.080516
Si Si4 0.823812 0.856938 0.121725
Si Si5 0.466879 0.357964 0.791910
Si Si6 0.828111 0.642145 0.484268
Si Si7 0.968904 0.142957 0.245534
Si Si8 0.049056 0.481519 0.601765
O O1 0.646726 0.750000 0.780492
O O2 0.655823 0.563854 0.814500
O O3 0.661089 0.639263 0.615933
O O4 0.549179 0.639392 0.732810
O O5 0.927270 0.250000 0.990615
O O6 0.877961 0.420188 0.946072
O O7 0.001332 0.379892 0.910298
O O8 0.955624 0.386053 0.119301
O O9 0.250000 0.534254 0.090860
O O10 0.171840 0.426717 0.978964
O O11 0.750000 0.866982 0.174246
O O12 0.829760 0.750000 0.082983
O O13 0.886868 0.873087 0.199213
O O14 0.480287 0.250000 0.769807
O O15 0.491030 0.420845 0.692709
O O16 0.750000 0.619390 0.459359
O O17 0.840230 0.750000 0.449763
O O18 0.884915 0.574622 0.435850
O O19 0.947598 0.250000 0.257123
O O20 0.934395 0.075864 0.333070
O O21 0.000000 0.500000 0.500000
#
# Coordination Sequence:
#
# PCOD9448981 Si02
#       8
#     8   8   8   8   8   8   8   8
#     4  10  19  34  57  86 118 152 191 238 296 359
#     4  10  22  39  58  81 110 152 201 248 294 340
#     4  11  21  32  52  80 114 152 192 239 290 349
#     4   9  18  32  51  81 116 143 170 212 277 352
#     4  10  21  37  58  83 113 147 187 236 287 344
#     4  10  22  40  60  86 123 160 196 243 300 363
#     4  10  21  38  61  88 119 153 197 249 297 349
#     4  12  23  36  59  88 117 156 198 242 291 349
#
# _framework density 18.368713
#
# number of rings (size 3 to 8) (size 9 to 14) (size 15 to 20)
#    0.000    1.750    1.250    3.375    0.000    6.000 
#    0.000    1.875    0.000    1.125    0.000    0.000 
#    0.000    0.000    0.000    0.000    0.000    0.000 
#
# Total GULP energy -357404.815156 kJ/mol
# GULP energy per Si atom -5584.450237 kJ/mol
# Density = 1.832691 g / cm^3
# Si number density = 18.368713 Si / 1000 Ang^3
#
#
#
# Elastic Constant Matrix: (Units=GPa)
#
#
# Indices 1 2 3 4 5 6 
#
# 1 102.8761 55.3681 40.3828 0.0000 0.0000 0.0000
# 2 55.3681 88.1674 60.9381 0.0000 0.0000 0.0000
# 3 40.3828 60.9381 107.7201 0.0000 0.0000 0.0000
# 4 0.0000 0.0000 0.0000 39.4071 0.0000 0.0000
# 5 0.0000 0.0000 0.0000 0.0000 9.5922 0.0000
# 6 0.0000 0.0000 0.0000 0.0000 0.0000 29.3051
#
#
#
# Elastic Compliance Matrix: (Units=1/GPa)
#
#
# Indices 1 2 3 4 5 6 
#
# 1 0.014698 -0.008903 -0.000474 0.000000 0.000000 0.000000
# 2 -0.008903 0.024016 -0.010249 0.000000 0.000000 0.000000
# 3 -0.000474 -0.010249 0.015259 0.000000 0.000000 0.000000
# 4 0.000000 0.000000 0.000000 0.025376 0.000000 0.000000
# 5 0.000000 0.000000 0.000000 0.000000 0.104251 0.000000
# 6 0.000000 0.000000 0.000000 0.000000 0.000000 0.034124
#
#
# Mechanical properties :
#
#
# Convention : Reuss Voigt Hill
#
# Bulk Modulus (GPa) = 67.92254 68.01572 67.96913
# Shear Modulus (GPa) = 19.09257 25.13251 22.11254
#
# Velocity S-wave (km/s) = 3.22748 3.70296 3.47337
# Velocity P-wave (km/s) = 7.13768 7.44251 7.29169
#
# Compressibility (1/GPa) = 0.01472265
#
# Stress axis : x y z
#
# Youngs Moduli (GPa) = 68.03745 41.63820 65.53621
#
# Poissons Ratio (x) = 0.37069 0.03105
# Poissons Ratio (y) = 0.60571 0.67167
# Poissons Ratio (z) = 0.03223 0.42674
#
# Static dielectric constant tensor:
#      x y z
#    x 1.637700 0.000000 0.000000 
#    y 0.000000 1.647780 0.000000 
#    z 0.000000 0.000000 1.641380 
# 
# From -- ./inp_files/17873.got.cif
#   From: 2010.05.17/outbox.cif.g08.bks.cpg/sg59_9_cif.got.tgz:17873.got - 2010.06.03 14:40:33.
