data_PCOD9448709
_publ_section_title
;
Structure prediction by ZEFSAII (Michael W. Deem and Ramdas Pophale) SiO2 
 PCOD9448709
Probable space group: P M M N
;
_chemical_formula_sum "Si O2"
_cell_formula_units_Z 48
_cell_length_a 8.817144
_cell_length_b 18.906634
_cell_length_c 17.044526
_cell_angle_alpha 90.000000
_cell_angle_beta 90.000000
_cell_angle_gamma 90.000000
_cell_volume 2841.365343
_symmetry_space_group_name_H-M "P M M N"
_symmetry_group_IT_number 59
_space_group.IT_coordinate_system_code '2'
_symmetry_cell_setting 'orthorhombic'
loop_
_space_group_symop_operation_xyz
x,y,z
1/2-x,1/2-y,z
1/2+x,-y,-z
-x,1/2+y,-z
-x,-y,-z
1/2+x,1/2+y,-z
1/2-x,y,z
x,1/2-y,z
loop_
_atom_site_type_symbol
_atom_site_label
_atom_site_fract_x
_atom_site_fract_y
_atom_site_fract_z
Si Si1 0.569293 0.576934 0.772274
Si Si2 0.571143 0.569266 0.235348
Si Si3 0.931105 0.921622 0.499433
Si Si4 0.569380 0.166926 0.358071
Si Si5 0.428710 0.990116 0.915313
Si Si6 0.931337 0.167284 0.643559
O O1 0.750000 0.578694 0.768556
O O2 0.505853 0.503607 0.734072
O O3 0.495056 0.640578 0.724997
O O4 0.511442 0.569063 0.861877
O O5 0.750000 0.569055 0.253522
O O6 0.553945 0.559122 0.141369
O O7 0.489958 0.635058 0.274616
O O8 0.750000 0.925704 0.498680
O O9 0.988124 0.878789 0.575253
O O10 0.990224 0.878590 0.424063
O O11 0.000000 0.000000 0.500000
O O12 0.750000 0.154853 0.361432
O O13 0.541214 0.250000 0.370242
O O14 0.250000 0.975038 0.920647
O O15 0.500000 0.000000 0.000000
O O16 0.750000 0.159814 0.637672
O O17 0.969182 0.250000 0.635718
#
# Coordination Sequence:
#
# PCOD9448709 Si02
#       6
#     8   8   8   8   8   8
#     4  10  19  33  55  81 111 143 181 225 271 323
#     4   9  19  34  54  80 110 142 182 224 269 322
#     4  12  25  40  59  80 108 144 186 232 275 322
#     4  11  23  39  57  79 111 147 184 228 277 327
#     4   9  18  32  55  85 113 142 180 227 273 322
#     4  11  23  38  56  80 111 146 184 226 275 327
#
# _framework density 16.893287000000001
#
# number of rings (size 3 to 8) (size 9 to 14) (size 15 to 20)
#    1.000    0.667    0.000    6.000    0.000    4.667 
#    0.000    0.000    0.000    1.000    0.000    4.667 
#    0.000    0.000    0.000    0.000    0.000    0.000 
#
# Total GULP energy -267659.996175 kJ/mol
# GULP energy per Si atom -5576.249920 kJ/mol
# Density = 1.685484 g / cm^3
# Si number density = 16.893287 Si / 1000 Ang^3
#
#
#
# Elastic Constant Matrix: (Units=GPa)
#
#
# Indices 1 2 3 4 5 6 
#
# 1 138.6520 79.8892 60.1120 0.0000 0.0000 0.0000
# 2 79.8892 109.1796 53.9344 0.0000 0.0000 0.0000
# 3 60.1120 53.9344 106.2578 0.0000 0.0000 0.0000
# 4 0.0000 0.0000 0.0000 7.6984 0.0000 0.0000
# 5 0.0000 0.0000 0.0000 0.0000 31.3691 0.0000
# 6 0.0000 0.0000 0.0000 0.0000 0.0000 26.6325
#
#
#
# Elastic Compliance Matrix: (Units=1/GPa)
#
#
# Indices 1 2 3 4 5 6 
#
# 1 0.013362 -0.008065 -0.003465 0.000000 0.000000 0.000000
# 2 -0.008065 0.017093 -0.004113 0.000000 0.000000 0.000000
# 3 -0.003465 -0.004113 0.013459 0.000000 0.000000 0.000000
# 4 0.000000 0.000000 0.000000 0.129897 0.000000 0.000000
# 5 0.000000 0.000000 0.000000 0.000000 0.031878 0.000000
# 6 0.000000 0.000000 0.000000 0.000000 0.000000 0.037548
#
#
# Mechanical properties :
#
#
# Convention : Reuss Voigt Hill
#
# Bulk Modulus (GPa) = 79.20047 82.44005 80.82026
# Shear Modulus (GPa) = 17.93826 23.81693 20.87760
#
# Velocity S-wave (km/s) = 3.26215 3.75886 3.51928
# Velocity P-wave (km/s) = 7.82134 8.23075 8.02865
#
# Compressibility (1/GPa) = 0.01262619
#
# Stress axis : x y z
#
# Youngs Moduli (GPa) = 74.84080 58.50453 74.29865
#
# Poissons Ratio (x) = 0.47185 0.25746
# Poissons Ratio (y) = 0.60361 0.30561
# Poissons Ratio (z) = 0.25934 0.24064
#
# Static dielectric constant tensor:
#      x y z
#    x 1.561660 0.000000 0.000000 
#    y 0.000000 1.555400 0.000000 
#    z 0.000000 0.000000 1.586590 
# 
# From -- ./inp_files/25764.got.cif
#   From: 2010.05.17/outbox.cif.g08.bks.cpg/sg59_13_cif.got.tgz:25764.got - 2010.06.03 14:40:33.
