data_PCOD9449696
_publ_section_title
;
Structure prediction by ZEFSAII (Michael W. Deem and Ramdas Pophale) SiO2 
 PCOD9449696
Probable space group: P M M N
;
_chemical_formula_sum "Si O2"
_cell_formula_units_Z 64
_cell_length_a 9.154060
_cell_length_b 14.582563
_cell_length_c 22.024403
_cell_angle_alpha 90.000000
_cell_angle_beta 90.000000
_cell_angle_gamma 90.000000
_cell_volume 2940.029995
_symmetry_space_group_name_H-M "P M M N"
_symmetry_group_IT_number 59
_space_group.IT_coordinate_system_code '2'
_symmetry_cell_setting 'orthorhombic'
loop_
_space_group_symop_operation_xyz
x,y,z
1/2-x,1/2-y,z
1/2+x,-y,-z
-x,1/2+y,-z
-x,-y,-z
1/2+x,1/2+y,-z
1/2-x,y,z
x,1/2-y,z
loop_
_atom_site_type_symbol
_atom_site_label
_atom_site_fract_x
_atom_site_fract_y
_atom_site_fract_z
Si Si1 0.913992 0.362535 0.709302
Si Si2 0.079678 0.610729 0.057782
Si Si3 0.418146 0.360442 0.193939
Si Si4 0.090545 0.354872 0.823150
Si Si5 0.424281 0.919077 0.926755
Si Si6 0.419576 0.362134 0.588272
Si Si7 0.072436 0.141812 0.326668
Si Si8 0.574574 0.860831 0.542845
O O1 0.750000 0.396916 0.707042
O O2 0.908916 0.250000 0.709508
O O3 0.988907 0.395518 0.771260
O O4 0.997010 0.390714 0.648581
O O5 0.250000 0.624058 0.071592
O O6 0.982436 0.649990 0.111350
O O7 0.031186 0.504906 0.062068
O O8 0.054280 0.640619 0.988155
O O9 0.250000 0.392755 0.182678
O O10 0.409964 0.250000 0.198427
O O11 0.523820 0.381657 0.137820
O O12 0.470985 0.394484 0.260354
O O13 0.250000 0.399035 0.826121
O O14 0.108813 0.250000 0.803450
O O15 0.250000 0.941517 0.926739
O O16 0.250000 0.388756 0.592737
O O17 0.422580 0.250000 0.587546
O O18 0.482878 0.392797 0.522844
O O19 0.250000 0.137635 0.327143
O O20 0.033449 0.250000 0.327330
O O21 0.019983 0.103255 0.391845
O O22 0.750000 0.875423 0.540893
O O23 0.554564 0.750000 0.544161
#
# Coordination Sequence:
#
# PCOD9449696 Si02
#       8
#     8   8   8   8   8   8   8   8
#     4   9  16  25  37  55  83 118 152 186 225 269
#     4  10  21  37  55  72  92 120 154 192 233 278
#     4   9  17  29  47  71  98 128 161 196 233 275
#     4  10  20  33  50  72  97 124 154 190 232 278
#     4  10  21  36  53  72  95 123 154 190 233 280
#     4   8  12  18  30  49  74 107 147 187 225 265
#     4   7  10  18  33  55  83 114 149 188 227 265
#     4   7   9  14  27  48  74 106 145 186 224 262
#
# _framework density 21.768485999999999
#
# number of rings (size 3 to 8) (size 9 to 14) (size 15 to 20)
#    0.000    3.250    0.000    3.750    0.000    4.500 
#    0.000    2.500    0.000    0.750    0.000    3.500 
#    0.000    1.000    0.000    2.750    0.000    6.750 
#
# Total GULP energy -356439.763555 kJ/mol
# GULP energy per Si atom -5569.371306 kJ/mol
# Density = 2.171894 g / cm^3
# Si number density = 21.768486 Si / 1000 Ang^3
#
#
#
# Elastic Constant Matrix: (Units=GPa)
#
#
# Indices 1 2 3 4 5 6 
#
# 1 80.6740 -7.7413 70.0287 0.0000 0.0000 0.0000
# 2 -7.7413 24.0241 -8.2267 0.0000 0.0000 0.0000
# 3 70.0287 -8.2267 221.2254 0.0000 0.0000 0.0000
# 4 0.0000 0.0000 0.0000 58.4830 0.0000 0.0000
# 5 0.0000 0.0000 0.0000 0.0000 13.7430 0.0000
# 6 0.0000 0.0000 0.0000 0.0000 0.0000 32.7240
#
#
#
# Elastic Compliance Matrix: (Units=1/GPa)
#
#
# Indices 1 2 3 4 5 6 
#
# 1 0.017423 0.003774 -0.005375 0.000000 0.000000 0.000000
# 2 0.003774 0.042979 0.000404 0.000000 0.000000 0.000000
# 3 -0.005375 0.000404 0.006237 0.000000 0.000000 0.000000
# 4 0.000000 0.000000 0.000000 0.017099 0.000000 0.000000
# 5 0.000000 0.000000 0.000000 0.000000 0.072764 0.000000
# 6 0.000000 0.000000 0.000000 0.000000 0.000000 0.030559
#
#
# Mechanical properties :
#
#
# Convention : Reuss Voigt Hill
#
# Bulk Modulus (GPa) = 15.56562 48.22720 31.89641
# Shear Modulus (GPa) = 23.71119 39.11420 31.41269
#
# Velocity S-wave (km/s) = 3.30395 4.24350 3.80285
# Velocity P-wave (km/s) = 4.66056 6.79797 5.82809
#
# Compressibility (1/GPa) = 0.06424415
#
# Stress axis : x y z
#
# Youngs Moduli (GPa) = 57.39386 23.26712 160.33983
#
# Poissons Ratio (x) = -0.08781 0.86183
# Poissons Ratio (y) = -0.21659 -0.06472
# Poissons Ratio (z) = 0.30849 -0.00939
#
# Static dielectric constant tensor:
#      x y z
#    x 1.733740 0.000000 0.000000 
#    y 0.000000 1.934160 0.000000 
#    z 0.000000 0.000000 1.848760 
# 
# From -- ./inp_files/29754.got.cif
#   From: 2010.05.17/outbox.cif.g08.bks.cpg/sg59_15_cif.got.tgz:29754.got - 2010.06.03 14:40:33.
