data_PCOD9449113
_publ_section_title
;
Structure prediction by ZEFSAII (Michael W. Deem and Ramdas Pophale) SiO2 
 PCOD9449113
Probable space group: P M M N
;
_chemical_formula_sum "Si O2"
_cell_formula_units_Z 56
_cell_length_a 14.962599
_cell_length_b 23.213611
_cell_length_c 7.372620
_cell_angle_alpha 90.000000
_cell_angle_beta 90.000000
_cell_angle_gamma 90.000000
_cell_volume 2560.775992
_symmetry_space_group_name_H-M "P M M N"
_symmetry_group_IT_number 59
_space_group.IT_coordinate_system_code '2'
_symmetry_cell_setting 'orthorhombic'
loop_
_space_group_symop_operation_xyz
x,y,z
1/2-x,1/2-y,z
1/2+x,-y,-z
-x,1/2+y,-z
-x,-y,-z
1/2+x,1/2+y,-z
1/2-x,y,z
x,1/2-y,z
loop_
_atom_site_type_symbol
_atom_site_label
_atom_site_fract_x
_atom_site_fract_y
_atom_site_fract_z
Si Si1 0.097047 0.397185 0.458466
Si Si2 0.843293 0.484093 0.706245
Si Si3 0.948905 0.638527 0.934971
Si Si4 0.750000 0.815455 0.494252
Si Si5 0.145633 0.682042 0.901940
Si Si6 0.250000 0.313826 0.065780
Si Si7 0.030261 0.037605 0.802661
Si Si8 0.652492 0.066028 0.315238
O O1 0.150346 0.451325 0.373191
O O2 0.050179 0.368224 0.284900
O O3 0.162669 0.351811 0.553189
O O4 0.039608 0.426204 0.615527
O O5 0.750000 0.475620 0.802557
O O6 0.848501 0.442536 0.531585
O O7 0.926403 0.472854 0.829810
O O8 0.850275 0.664224 0.979739
O O9 0.045625 0.667627 0.990405
O O10 0.940295 0.577834 0.035732
O O11 0.750000 0.750000 0.432417
O O12 0.750000 0.815392 0.714272
O O13 0.250000 0.676547 0.983589
O O14 0.140190 0.750000 0.850056
O O15 0.146506 0.631763 0.749745
O O16 0.250000 0.250000 0.994630
O O17 0.079697 0.977761 0.763449
O O18 0.750000 0.043698 0.256262
#
# Coordination Sequence:
#
# PCOD9449113 Si02
#       8
#     8   8   8   4   8   4   8   8
#     4  10  20  39  58  83 124 158 193 250 302 358
#     4  10  19  35  58  84 121 164 194 244 311 361
#     4  11  23  38  62  92 121 159 203 249 305 368
#     4   9  18  35  61  89 116 161 207 239 298 369
#     4  10  21  39  62  86 117 161 207 253 301 352
#     4   9  20  39  61  87 122 161 205 251 302 365
#     4  11  23  36  59  91 123 157 199 247 306 368
#     4   9  19  36  60  90 122 157 203 249 300 365
#
# _framework density 21.868372999999998
#
# number of rings (size 3 to 8) (size 9 to 14) (size 15 to 20)
#    0.000    2.000    0.714    3.857    2.000    3.429 
#    0.000    3.571    0.000    1.714    0.000    8.000 
#    0.000    0.000    0.000    0.000    0.000    0.000 
#
# Total GULP energy -311848.095354 kJ/mol
# GULP energy per Si atom -5568.715988 kJ/mol
# Density = 2.181860 g / cm^3
# Si number density = 21.868373 Si / 1000 Ang^3
#
#
#
# Elastic Constant Matrix: (Units=GPa)
#
#
# Indices 1 2 3 4 5 6 
#
# 1 183.9900 49.6050 18.2370 0.0000 0.0000 0.0000
# 2 49.6050 123.6566 12.4687 0.0000 0.0000 0.0000
# 3 18.2370 12.4687 49.9697 0.0000 0.0000 0.0000
# 4 0.0000 0.0000 0.0000 8.4845 0.0000 0.0000
# 5 0.0000 0.0000 0.0000 0.0000 0.2482 0.0000
# 6 0.0000 0.0000 0.0000 0.0000 0.0000 -274.9432
#
#
#
# Elastic Compliance Matrix: (Units=1/GPa)
#
#
# Indices 1 2 3 4 5 6 
#
# 1 0.006231 -0.002329 -0.001693 0.000000 0.000000 0.000000
# 2 -0.002329 0.009166 -0.001437 0.000000 0.000000 0.000000
# 3 -0.001693 -0.001437 0.020989 0.000000 0.000000 0.000000
# 4 0.000000 0.000000 0.000000 0.117862 0.000000 0.000000
# 5 0.000000 0.000000 0.000000 0.000000 4.029293 0.000000
# 6 0.000000 0.000000 0.000000 0.000000 0.000000 -0.003637
#
#
# Mechanical properties :
#
#
# Convention : Reuss Voigt Hill
#
# Bulk Modulus (GPa) = 39.26563 57.58195 48.42379
# Shear Modulus (GPa) = 1.19067 -34.75506 -16.78219
#
# Velocity S-wave (km/s) = 0.73868 -3.99091 -2.77324
# Velocity P-wave (km/s) = 4.32689 2.26977 3.45498
#
# Compressibility (1/GPa) = 0.02546756
#
# Stress axis : x y z
#
# Youngs Moduli (GPa) = 160.49491 109.09863 47.64487
#
# Poissons Ratio (x) = 0.25406 0.08066
# Poissons Ratio (y) = 0.37375 0.06848
# Poissons Ratio (z) = 0.27170 0.15680
#
# Static dielectric constant tensor:
#      x y z
#    x 1.941810 0.000000 0.000000 
#    y 0.000000 1.780790 0.000000 
#    z 0.000000 0.000000 1.790660 
# 
# From -- ./inp_files/9412.got.cif
#   From: 2010.05.17/outbox.cif.g08.bks.cpg/sg59_5_cif.got.tgz:9412.got - 2010.06.03 14:40:33.
