data_PCOD9449527
_publ_section_title
;
Structure prediction by ZEFSAII (Michael W. Deem and Ramdas Pophale) SiO2 
 PCOD9449527
Probable space group: P M M N
;
_chemical_formula_sum "Si O2"
_cell_formula_units_Z 64
_cell_length_a 8.832947
_cell_length_b 34.495197
_cell_length_c 11.181141
_cell_angle_alpha 90.000000
_cell_angle_beta 90.000000
_cell_angle_gamma 90.000000
_cell_volume 3406.829336
_symmetry_space_group_name_H-M "P M M N"
_symmetry_group_IT_number 59
_space_group.IT_coordinate_system_code '2'
_symmetry_cell_setting 'orthorhombic'
loop_
_space_group_symop_operation_xyz
x,y,z
1/2-x,1/2-y,z
1/2+x,-y,-z
-x,1/2+y,-z
-x,-y,-z
1/2+x,1/2+y,-z
1/2-x,y,z
x,1/2-y,z
loop_
_atom_site_type_symbol
_atom_site_label
_atom_site_fract_x
_atom_site_fract_y
_atom_site_fract_z
Si Si1 0.932394 0.293505 0.722782
Si Si2 0.070268 0.205848 0.461380
Si Si3 0.571358 0.056118 0.444615
Si Si4 0.431934 0.910079 0.912556
Si Si5 0.427559 0.636934 0.676560
Si Si6 0.929919 0.944519 0.298463
Si Si7 0.069827 0.481734 0.207145
Si Si8 0.932221 0.126386 0.831106
O O1 0.750000 0.292958 0.719187
O O2 0.983905 0.250000 0.757529
O O3 0.976876 0.329122 0.807632
O O4 0.991981 0.301446 0.589301
O O5 0.250000 0.203541 0.477431
O O6 0.031156 0.250000 0.425430
O O7 0.016961 0.174144 0.366924
O O8 0.250000 0.953902 0.557020
O O9 0.558076 0.102136 0.419419
O O10 0.497339 0.046445 0.570776
O O11 0.488568 0.035977 0.333403
O O12 0.250000 0.915891 0.903920
O O13 0.476051 0.881987 0.802361
O O14 0.510166 0.951449 0.891187
O O15 0.467207 0.889435 0.036931
O O16 0.250000 0.646715 0.685987
O O17 0.750000 0.947179 0.300619
O O18 0.985638 0.902086 0.260867
O O19 0.998192 0.975610 0.205391
O O20 0.250000 0.484222 0.204551
O O21 0.750000 0.123195 0.814090
#
# Coordination Sequence:
#
# PCOD9449527 Si02
#       8
#     8   8   8   8   8   8   8   8
#     4   9  18  34  57  83 110 140 173 213 264 318
#     4  10  20  32  49  77 111 142 172 212 263 319
#     4  10  20  36  56  80 110 140 175 221 273 326
#     4   9  20  39  58  77 105 141 181 225 270 317
#     4   9  18  33  54  77 102 136 174 215 265 318
#     4  12  24  36  53  80 112 144 180 222 269 321
#     4  11  22  37  57  80 107 142 182 223 271 322
#     4  10  21  38  58  80 108 142 182 226 268 314
#
# _framework density 18.785796999999999
#
# number of rings (size 3 to 8) (size 9 to 14) (size 15 to 20)
#    0.000    2.000    0.000    4.875    0.000    7.750 
#    0.000    0.625    0.000    2.250    0.000    1.750 
#    0.000    0.000    0.000    0.000    0.000    0.000 
#
# Total GULP energy -357485.596664 kJ/mol
# GULP energy per Si atom -5585.712448 kJ/mol
# Density = 1.874304 g / cm^3
# Si number density = 18.785797 Si / 1000 Ang^3
#
#
#
# Elastic Constant Matrix: (Units=GPa)
#
#
# Indices 1 2 3 4 5 6 
#
# 1 42.8729 21.6786 10.9787 0.0000 0.0000 0.0000
# 2 21.6786 90.2523 16.3607 0.0000 0.0000 0.0000
# 3 10.9787 16.3607 37.5222 0.0000 0.0000 0.0000
# 4 0.0000 0.0000 0.0000 22.6924 0.0000 0.0000
# 5 0.0000 0.0000 0.0000 0.0000 17.0892 0.0000
# 6 0.0000 0.0000 0.0000 0.0000 0.0000 30.0132
#
#
#
# Elastic Compliance Matrix: (Units=1/GPa)
#
#
# Indices 1 2 3 4 5 6 
#
# 1 0.027603 -0.005610 -0.005631 0.000000 0.000000 0.000000
# 2 -0.005610 0.013171 -0.004102 0.000000 0.000000 0.000000
# 3 -0.005631 -0.004102 0.030087 0.000000 0.000000 0.000000
# 4 0.000000 0.000000 0.000000 0.044068 0.000000 0.000000
# 5 0.000000 0.000000 0.000000 0.000000 0.058517 0.000000
# 6 0.000000 0.000000 0.000000 0.000000 0.000000 0.033319
#
#
# Mechanical properties :
#
#
# Convention : Reuss Voigt Hill
#
# Bulk Modulus (GPa) = 24.88956 29.85369 27.37163
# Shear Modulus (GPa) = 19.93306 22.06758 21.00032
#
# Velocity S-wave (km/s) = 3.26094 3.43110 3.34710
# Velocity P-wave (km/s) = 5.23987 5.62341 5.43502
#
# Compressibility (1/GPa) = 0.04017749
#
# Stress axis : x y z
#
# Youngs Moduli (GPa) = 36.22784 75.92445 33.23720
#
# Poissons Ratio (x) = 0.42590 0.18714
# Poissons Ratio (y) = 0.20322 0.13633
# Poissons Ratio (z) = 0.20398 0.31141
#
# Static dielectric constant tensor:
#      x y z
#    x 1.624620 0.000000 0.000000 
#    y 0.000000 1.674460 0.000000 
#    z 0.000000 0.000000 1.638660 
# 
# From -- ./inp_files/14913.got.cif
#   From: 2010.05.17/outbox.cif.g08.bks.cpg/sg59_8_cif.got.tgz:14913.got - 2010.06.03 14:40:33.
