data_PCOD9449191
_publ_section_title
;
Structure prediction by ZEFSAII (Michael W. Deem and Ramdas Pophale) SiO2 
 PCOD9449191
Probable space group: P M M N
;
_chemical_formula_sum "Si O2"
_cell_formula_units_Z 40
_cell_length_a 16.101636
_cell_length_b 9.600764
_cell_length_c 11.808898
_cell_angle_alpha 90.000000
_cell_angle_beta 90.000000
_cell_angle_gamma 90.000000
_cell_volume 1825.514010
_symmetry_space_group_name_H-M "P M M N"
_symmetry_group_IT_number 59
_space_group.IT_coordinate_system_code '2'
_symmetry_cell_setting 'orthorhombic'
loop_
_space_group_symop_operation_xyz
x,y,z
1/2-x,1/2-y,z
1/2+x,-y,-z
-x,1/2+y,-z
-x,-y,-z
1/2+x,1/2+y,-z
1/2-x,y,z
x,1/2-y,z
loop_
_atom_site_type_symbol
_atom_site_label
_atom_site_fract_x
_atom_site_fract_y
_atom_site_fract_z
Si Si1 0.380487 0.410028 0.560629
Si Si2 0.417471 0.085011 0.963517
Si Si3 0.750000 0.415756 0.037782
Si Si4 0.508352 0.094688 0.739086
Si Si5 0.842649 0.913866 0.705312
Si Si6 0.750000 0.090209 0.310249
O O1 0.355326 0.250000 0.584994
O O2 0.472624 0.422261 0.612431
O O3 0.361672 0.431048 0.428731
O O4 0.327569 0.516439 0.632562
O O5 0.416122 0.250000 0.997536
O O6 0.432352 0.085320 0.827087
O O7 0.333467 0.001683 0.994894
O O8 0.500000 0.000000 0.000000
O O9 0.750000 0.250000 0.004085
O O10 0.750000 0.418154 0.174998
O O11 0.543440 0.250000 0.750154
O O12 0.580882 0.987495 0.765399
O O13 0.750000 0.968186 0.729965
O O14 0.843334 0.750000 0.729434
O O15 0.750000 0.250000 0.342519
#
# Coordination Sequence:
#
# PCOD9449191 Si02
#       6
#     8   8   4   8   8   4
#     4  10  19  36  58  82 119 160 200 244 297 356
#     4  11  24  44  69  96 126 163 205 256 317 377
#     4  11  23  41  67  98 127 158 203 259 316 374
#     4  10  22  38  60  87 117 157 199 247 304 361
#     4  10  21  36  56  82 118 164 206 247 296 355
#     4  11  21  31  55  92 121 152 197 251 296 340
#
# _framework density 21.911636000000001
#
# number of rings (size 3 to 8) (size 9 to 14) (size 15 to 20)
#    0.000    1.600    3.000    1.800    0.000    4.400 
#    1.800    0.000    0.000    0.000    0.000    0.000 
#    0.000    0.000    0.000    0.000    0.000    0.000 
#
# Total GULP energy -223323.724015 kJ/mol
# GULP energy per Si atom -5583.093100 kJ/mol
# Density = 2.186176 g / cm^3
# Si number density = 21.911636 Si / 1000 Ang^3
#
#
#
# Elastic Constant Matrix: (Units=GPa)
#
#
# Indices 1 2 3 4 5 6 
#
# 1 153.9605 94.1902 8.8560 0.0000 0.0000 0.0000
# 2 94.1902 135.4610 19.5009 0.0000 0.0000 0.0000
# 3 8.8560 19.5009 53.9069 0.0000 0.0000 0.0000
# 4 0.0000 0.0000 0.0000 22.7058 0.0000 0.0000
# 5 0.0000 0.0000 0.0000 0.0000 33.3420 0.0000
# 6 0.0000 0.0000 0.0000 0.0000 0.0000 42.4111
#
#
#
# Elastic Compliance Matrix: (Units=1/GPa)
#
#
# Indices 1 2 3 4 5 6 
#
# 1 0.011359 -0.008049 0.001046 0.000000 0.000000 0.000000
# 2 -0.008049 0.013491 -0.003558 0.000000 0.000000 0.000000
# 3 0.001046 -0.003558 0.019666 0.000000 0.000000 0.000000
# 4 0.000000 0.000000 0.000000 0.044042 0.000000 0.000000
# 5 0.000000 0.000000 0.000000 0.000000 0.029992 0.000000
# 6 0.000000 0.000000 0.000000 0.000000 0.000000 0.023579
#
#
# Mechanical properties :
#
#
# Convention : Reuss Voigt Hill
#
# Bulk Modulus (GPa) = 42.74732 65.38029 54.06381
# Shear Modulus (GPa) = 29.23133 34.41055 31.82094
#
# Velocity S-wave (km/s) = 3.65643 3.96716 3.81496
# Velocity P-wave (km/s) = 6.11370 7.13354 6.64322
#
# Compressibility (1/GPa) = 0.02339328
#
# Stress axis : x y z
#
# Youngs Moduli (GPa) = 88.03414 74.12290 50.84943
#
# Poissons Ratio (x) = 0.59661 -0.05317
# Poissons Ratio (y) = 0.70858 0.18093
# Poissons Ratio (z) = -0.09205 0.26374
#
# Static dielectric constant tensor:
#      x y z
#    x 1.812420 0.000000 0.000000 
#    y 0.000000 1.757220 0.000000 
#    z 0.000000 0.000000 1.857920 
# 
# From -- ./inp_files/20023.got.cif
#   From: 2010.05.17/outbox.cif.g08.bks.cpg/sg59_11_cif.got.tgz:20023.got - 2010.06.03 14:40:33.
