data_PCOD9449928
_publ_section_title
;
Structure prediction by ZEFSAII (Michael W. Deem and Ramdas Pophale) SiO2 
 PCOD9449928
Probable space group: P M M N
;
_chemical_formula_sum "Si O2"
_cell_formula_units_Z 48
_cell_length_a 7.927271
_cell_length_b 32.244571
_cell_length_c 9.399088
_cell_angle_alpha 90.000000
_cell_angle_beta 90.000000
_cell_angle_gamma 90.000000
_cell_volume 2402.514537
_symmetry_space_group_name_H-M "P M M N"
_symmetry_group_IT_number 59
_space_group.IT_coordinate_system_code '2'
_symmetry_cell_setting 'orthorhombic'
loop_
_space_group_symop_operation_xyz
x,y,z
1/2-x,1/2-y,z
1/2+x,-y,-z
-x,1/2+y,-z
-x,-y,-z
1/2+x,1/2+y,-z
1/2-x,y,z
x,1/2-y,z
loop_
_atom_site_type_symbol
_atom_site_label
_atom_site_fract_x
_atom_site_fract_y
_atom_site_fract_z
Si Si1 0.956528 0.250000 0.831711
Si Si2 0.548621 0.002307 0.166678
Si Si3 0.046646 0.412169 0.835157
Si Si4 0.957233 0.250000 0.159112
Si Si5 0.551468 0.907573 0.838173
Si Si6 0.546458 0.331148 0.660134
Si Si7 0.449697 0.671233 0.661579
O O1 0.750000 0.250000 0.831296
O O2 0.012438 0.208640 0.749837
O O3 0.011662 0.250000 0.995359
O O4 0.750000 0.004874 0.180115
O O5 0.475778 0.045788 0.219619
O O6 0.489828 0.957354 0.222685
O O7 0.500000 0.000000 0.000000
O O8 0.250000 0.414277 0.843269
O O9 0.998339 0.373697 0.738589
O O10 0.984862 0.406228 0.998464
O O11 0.750000 0.250000 0.156674
O O12 0.015530 0.290965 0.242540
O O13 0.750000 0.899554 0.844172
O O14 0.473295 0.872158 0.741386
O O15 0.750000 0.328955 0.655832
O O16 0.480932 0.329794 0.498518
O O17 0.250000 0.678829 0.648010
#
# Coordination Sequence:
#
# PCOD9449928 Si02
#       7
#     4   8   8   4   8   8   8
#     4   9  17  31  52  79 104 131 170 214 256 303
#     4   9  17  31  52  78 106 136 172 218 265 310
#     4   9  19  34  52  76 105 134 170 214 259 305
#     4   9  17  31  54  79 104 135 172 214 262 311
#     4  10  20  34  53  78 105 137 177 220 262 309
#     4  10  20  33  52  77 106 138 173 211 256 310
#     4  10  20  34  52  77 107 139 173 213 260 312
#
# _framework density 19.979068000000002
#
# number of rings (size 3 to 8) (size 9 to 14) (size 15 to 20)
#    0.000    2.500    0.000    3.500    0.000    8.000 
#    0.000    1.667    0.000    5.000    0.000    0.000 
#    0.000    0.000    0.000    0.000    0.000    0.000 
#
# Total GULP energy -267764.531835 kJ/mol
# GULP energy per Si atom -5578.427747 kJ/mol
# Density = 1.993359 g / cm^3
# Si number density = 19.979068 Si / 1000 Ang^3
#
#
#
# Elastic Constant Matrix: (Units=GPa)
#
#
# Indices 1 2 3 4 5 6 
#
# 1 8.6986 -15.2152 1.7989 0.0000 0.0000 0.0000
# 2 -15.2152 190.5832 98.8265 0.0000 0.0000 0.0000
# 3 1.7989 98.8265 140.6862 0.0000 0.0000 0.0000
# 4 0.0000 0.0000 0.0000 -13.5728 0.0000 0.0000
# 5 0.0000 0.0000 0.0000 0.0000 13.1113 0.0000
# 6 0.0000 0.0000 0.0000 0.0000 0.0000 23.7627
#
#
#
# Elastic Compliance Matrix: (Units=1/GPa)
#
#
# Indices 1 2 3 4 5 6 
#
# 1 0.155415 0.021138 -0.016836 0.000000 0.000000 0.000000
# 2 0.021138 0.011128 -0.008087 0.000000 0.000000 0.000000
# 3 -0.016836 -0.008087 0.013004 0.000000 0.000000 0.000000
# 4 0.000000 0.000000 0.000000 -0.073677 0.000000 0.000000
# 5 0.000000 0.000000 0.000000 0.000000 0.076270 0.000000
# 6 0.000000 0.000000 0.000000 0.000000 0.000000 0.042083
#
#
# Mechanical properties :
#
#
# Convention : Reuss Voigt Hill
#
# Bulk Modulus (GPa) = 5.81472 56.75428 31.28450
# Shear Modulus (GPa) = 17.29381 21.63077 19.46229
#
# Velocity S-wave (km/s) = 2.94529 3.29397 3.12450
# Velocity P-wave (km/s) = 3.80566 6.55252 5.35810
#
# Compressibility (1/GPa) = 0.17197725
#
# Stress axis : x y z
#
# Youngs Moduli (GPa) = 6.43437 89.86079 76.89688
#
# Poissons Ratio (x) = -1.89945 1.29461
# Poissons Ratio (y) = -0.13601 0.62190
# Poissons Ratio (z) = 0.10833 0.72675
#
# Static dielectric constant tensor:
#      x y z
#    x 1.733370 0.000000 0.000000 
#    y 0.000000 1.703190 0.000000 
#    z 0.000000 0.000000 1.683550 
# 
# From -- ./inp_files/6374.got.cif
#   From: 2010.05.17/outbox.cif.g08.bks.cpg/sg59_4_cif.got.tgz:6374.got - 2010.06.03 14:40:33.
