data_PCOD9449266
_publ_section_title
;
Structure prediction by ZEFSAII (Michael W. Deem and Ramdas Pophale) SiO2 
 PCOD9449266
Probable space group: P M M N
;
_chemical_formula_sum "Si O2"
_cell_formula_units_Z 40
_cell_length_a 22.118106
_cell_length_b 9.782685
_cell_length_c 10.954293
_cell_angle_alpha 90.000000
_cell_angle_beta 90.000000
_cell_angle_gamma 90.000000
_cell_volume 2370.229274
_symmetry_space_group_name_H-M "P M M N"
_symmetry_group_IT_number 59
_space_group.IT_coordinate_system_code '2'
_symmetry_cell_setting 'orthorhombic'
loop_
_space_group_symop_operation_xyz
x,y,z
1/2-x,1/2-y,z
1/2+x,-y,-z
-x,1/2+y,-z
-x,-y,-z
1/2+x,1/2+y,-z
1/2-x,y,z
x,1/2-y,z
loop_
_atom_site_type_symbol
_atom_site_label
_atom_site_fract_x
_atom_site_fract_y
_atom_site_fract_z
Si Si1 0.681866 0.250000 0.335368
Si Si2 0.680461 0.750000 0.135704
Si Si3 0.750000 0.250000 0.573081
Si Si4 0.121115 0.899174 0.097131
Si Si5 0.387471 0.970600 0.813455
Si Si6 0.484325 0.414857 0.123408
Si Si7 0.750000 0.454770 0.790059
Si Si8 0.250000 0.250000 0.109361
O O1 0.750000 0.250000 0.282035
O O2 0.693346 0.250000 0.480180
O O3 0.647433 0.380998 0.284825
O O4 0.750000 0.750000 0.184879
O O5 0.642210 0.619195 0.175838
O O6 0.693747 0.750000 0.988400
O O7 0.750000 0.382983 0.658616
O O8 0.095017 0.750000 0.129307
O O9 0.189311 0.907233 0.142689
O O10 0.080593 0.020287 0.153842
O O11 0.121596 0.910453 0.950207
O O12 0.459345 0.956220 0.791231
O O13 0.482468 0.250000 0.107702
O O14 0.500000 0.500000 0.000000
O O15 0.750000 0.617368 0.806953
#
# Coordination Sequence:
#
# PCOD9449266 Si02
#       8
#     4   4   2   8   8   8   4   2
#     4  10  22  37  60  80 107 154 199 241 286 318
#     4  10  20  30  49  92 121 143 175 225 291 357
#     4  10  26  40  60  78 108 150 208 268 272 328
#     4  11  21  32  57  84 123 146 186 231 296 358
#     4  11  19  34  54  86 122 149 182 224 285 365
#     4  10  21  32  48  83 125 155 181 217 281 360
#     4  12  22  39  55  87 111 150 193 244 294 344
#     4  10  22  32  54  86 118 144 174 238 296 354
#
# _framework density 16.876006
#
# number of rings (size 3 to 8) (size 9 to 14) (size 15 to 20)
#    0.600    0.800    5.000    2.400    9.800    0.000 
#    0.000    1.000    0.000    1.200    0.000    0.000 
#    0.000    0.000    0.000    0.000    0.000    0.000 
#
# Total GULP energy -222694.325561 kJ/mol
# GULP energy per Si atom -5567.358139 kJ/mol
# Density = 1.683760 g / cm^3
# Si number density = 16.876006 Si / 1000 Ang^3
#
#
#
# Elastic Constant Matrix: (Units=GPa)
#
#
# Indices 1 2 3 4 5 6 
#
# 1 117.5681 46.1033 26.0469 0.0000 0.0000 0.0000
# 2 46.1033 177.4531 28.4679 0.0000 0.0000 0.0000
# 3 26.0469 28.4679 62.8962 0.0000 0.0000 0.0000
# 4 0.0000 0.0000 0.0000 122.9943 0.0000 0.0000
# 5 0.0000 0.0000 0.0000 0.0000 -5.2684 0.0000
# 6 0.0000 0.0000 0.0000 0.0000 0.0000 23.6325
#
#
#
# Elastic Compliance Matrix: (Units=1/GPa)
#
#
# Indices 1 2 3 4 5 6 
#
# 1 0.010037 -0.002093 -0.003209 0.000000 0.000000 0.000000
# 2 -0.002093 0.006513 -0.002081 0.000000 0.000000 0.000000
# 3 -0.003209 -0.002081 0.018170 0.000000 0.000000 0.000000
# 4 0.000000 0.000000 0.000000 0.008130 0.000000 0.000000
# 5 0.000000 0.000000 0.000000 0.000000 -0.189811 0.000000
# 6 0.000000 0.000000 0.000000 0.000000 0.000000 0.042315
#
#
# Mechanical properties :
#
#
# Convention : Reuss Voigt Hill
#
# Bulk Modulus (GPa) = 50.11616 62.12817 56.12216
# Shear Modulus (GPa) = -60.07648 45.42497 -7.32576
#
# Velocity S-wave (km/s) = -5.97294 5.19378 -2.08575
# Velocity P-wave (km/s) = 4.21982 8.53590 5.24665
#
# Compressibility (1/GPa) = 0.01995364
#
# Stress axis : x y z
#
# Youngs Moduli (GPa) = 99.62664 153.54131 55.03485
#
# Poissons Ratio (x) = 0.32135 0.17663
# Poissons Ratio (y) = 0.20851 0.11453
# Poissons Ratio (z) = 0.31975 0.31954
#
# Static dielectric constant tensor:
#      x y z
#    x 1.648540 0.000000 0.000000 
#    y 0.000000 1.621100 0.000000 
#    z 0.000000 0.000000 1.532460 
# 
# From -- ./inp_files/18195.got.cif
#   From: 2010.05.17/outbox.cif.g08.bks.cpg/sg59_10_cif.got.tgz:18195.got - 2010.06.03 14:40:33.
