data_PCOD9449524
_publ_section_title
;
Structure prediction by ZEFSAII (Michael W. Deem and Ramdas Pophale) SiO2 
 PCOD9449524
Probable space group: P M M N
;
_chemical_formula_sum "Si O2"
_cell_formula_units_Z 48
_cell_length_a 9.727997
_cell_length_b 8.254261
_cell_length_c 31.631515
_cell_angle_alpha 90.000000
_cell_angle_beta 90.000000
_cell_angle_gamma 90.000000
_cell_volume 2539.929243
_symmetry_space_group_name_H-M "P M M N"
_symmetry_group_IT_number 59
_space_group.IT_coordinate_system_code '2'
_symmetry_cell_setting 'orthorhombic'
loop_
_space_group_symop_operation_xyz
x,y,z
1/2-x,1/2-y,z
1/2+x,-y,-z
-x,1/2+y,-z
-x,-y,-z
1/2+x,1/2+y,-z
1/2-x,y,z
x,1/2-y,z
loop_
_atom_site_type_symbol
_atom_site_label
_atom_site_fract_x
_atom_site_fract_y
_atom_site_fract_z
Si Si1 0.406413 0.945356 0.210888
Si Si2 0.407576 0.445772 0.615676
Si Si3 0.909293 0.054299 0.133203
Si Si4 0.907060 0.054863 0.038497
Si Si5 0.406805 0.052413 0.712118
Si Si6 0.406854 0.443206 0.461003
O O1 0.250000 0.005542 0.209185
O O2 0.402080 0.750000 0.213461
O O3 0.487682 0.004787 0.252430
O O4 0.491991 0.990488 0.169415
O O5 0.250000 0.496162 0.605473
O O6 0.409171 0.250000 0.614729
O O7 0.437879 0.497312 0.663943
O O8 0.516232 0.507464 0.581944
O O9 0.750000 0.004496 0.140132
O O10 0.911939 0.250000 0.134167
O O11 0.950713 0.001648 0.085688
O O12 0.750000 0.999637 0.032276
O O13 0.906372 0.250000 0.039144
O O14 0.000000 0.000000 0.000000
O O15 0.250000 0.003215 0.722220
O O16 0.408402 0.250000 0.712286
O O17 0.500000 0.500000 0.500000
O O18 0.250000 0.506935 0.463159
O O19 0.399924 0.250000 0.462894
#
# Coordination Sequence:
#
# PCOD9449524 Si02
#       6
#     8   8   8   8   8   8
#     4  10  20  32  49  77 108 135 168 211 255 299
#     4   9  18  34  57  83 107 133 170 213 255 302
#     4   9  19  36  54  71  96 133 173 209 249 300
#     4   9  19  35  53  74 100 129 164 207 252 301
#     4   8  15  30  52  76 103 136 172 209 249 296
#     4  11  24  39  55  78 107 138 174 214 255 303
#
# _framework density 18.898163
#
# number of rings (size 3 to 8) (size 9 to 14) (size 15 to 20)
#    0.000    2.667    0.000    3.500    0.000    7.333 
#    0.000    7.500    0.000    1.000    0.000    0.000 
#    0.000    0.000    0.000    0.000    0.000    0.000 
#
# Total GULP energy -267786.535197 kJ/mol
# GULP energy per Si atom -5578.886150 kJ/mol
# Density = 1.885515 g / cm^3
# Si number density = 18.898163 Si / 1000 Ang^3
#
#
#
# Elastic Constant Matrix: (Units=GPa)
#
#
# Indices 1 2 3 4 5 6 
#
# 1 166.1033 21.0538 139.0584 0.0000 0.0000 0.0000
# 2 21.0538 10.7011 17.9836 0.0000 0.0000 0.0000
# 3 139.0584 17.9836 178.1919 0.0000 0.0000 0.0000
# 4 0.0000 0.0000 0.0000 28.6287 0.0000 0.0000
# 5 0.0000 0.0000 0.0000 0.0000 38.6120 0.0000
# 6 0.0000 0.0000 0.0000 0.0000 0.0000 25.0608
#
#
#
# Elastic Compliance Matrix: (Units=1/GPa)
#
#
# Indices 1 2 3 4 5 6 
#
# 1 0.019216 -0.015180 -0.013464 0.000000 0.000000 0.000000
# 2 -0.015180 0.124526 -0.000721 0.000000 0.000000 0.000000
# 3 -0.013464 -0.000721 0.016192 0.000000 0.000000 0.000000
# 4 0.000000 0.000000 0.000000 0.034930 0.000000 0.000000
# 5 0.000000 0.000000 0.000000 0.000000 0.025899 0.000000
# 6 0.000000 0.000000 0.000000 0.000000 0.000000 0.039903
#
#
# Mechanical properties :
#
#
# Convention : Reuss Voigt Hill
#
# Bulk Modulus (GPa) = 9.88105 79.02087 44.45096
# Shear Modulus (GPa) = 14.15901 30.25366 22.20634
#
# Velocity S-wave (km/s) = 2.74017 4.00544 3.43162
# Velocity P-wave (km/s) = 3.90529 7.95589 6.26688
#
# Compressibility (1/GPa) = 0.10120381
#
# Stress axis : x y z
#
# Youngs Moduli (GPa) = 52.03893 8.03043 61.75892
#
# Poissons Ratio (x) = 0.12190 0.83153
# Poissons Ratio (y) = 0.78995 0.04455
# Poissons Ratio (z) = 0.70066 0.00579
#
# Static dielectric constant tensor:
#      x y z
#    x 1.649720 0.000000 0.000000 
#    y 0.000000 1.670610 0.000000 
#    z 0.000000 0.000000 1.641990 
# 
# From -- ./inp_files/32811.got.cif
#   From: 2010.05.17/outbox.cif.g08.bks.cpg/sg59_17_cif.got.tgz:32811.got - 2010.06.03 14:40:33.
