data_PCOD9449991
_publ_section_title
;
Structure prediction by ZEFSAII (Michael W. Deem and Ramdas Pophale) SiO2 
 PCOD9449991
Probable space group: P M M N
;
_chemical_formula_sum "Si O2"
_cell_formula_units_Z 56
_cell_length_a 13.814424
_cell_length_b 7.437686
_cell_length_c 23.081029
_cell_angle_alpha 90.000000
_cell_angle_beta 90.000000
_cell_angle_gamma 90.000000
_cell_volume 2371.514518
_symmetry_space_group_name_H-M "P M M N"
_symmetry_group_IT_number 59
_space_group.IT_coordinate_system_code '2'
_symmetry_cell_setting 'orthorhombic'
loop_
_space_group_symop_operation_xyz
x,y,z
1/2-x,1/2-y,z
1/2+x,-y,-z
-x,1/2+y,-z
-x,-y,-z
1/2+x,1/2+y,-z
1/2-x,y,z
x,1/2-y,z
loop_
_atom_site_type_symbol
_atom_site_label
_atom_site_fract_x
_atom_site_fract_y
_atom_site_fract_z
Si Si1 0.750000 0.969101 0.585141
Si Si2 0.070509 0.462811 0.203529
Si Si3 0.635674 0.550049 0.358833
Si Si4 0.891677 0.537072 0.486107
Si Si5 0.068668 0.965231 0.075508
Si Si6 0.750000 0.529273 0.718388
Si Si7 0.355650 0.457870 0.951910
Si Si8 0.138942 0.955117 0.769927
O O1 0.750000 0.750000 0.588636
O O2 0.663277 0.027407 0.543181
O O3 0.750000 0.029531 0.651274
O O4 0.060177 0.250000 0.215071
O O5 0.108101 0.488588 0.138397
O O6 0.151830 0.529507 0.248473
O O7 0.960048 0.539423 0.204853
O O8 0.750000 0.572086 0.355618
O O9 0.589322 0.750000 0.357890
O O10 0.622382 0.461901 0.421504
O O11 0.613269 0.453973 0.298836
O O12 0.867806 0.750000 0.480662
O O13 0.000000 0.500000 0.500000
O O14 0.066023 0.750000 0.068735
O O15 0.957244 0.035518 0.071086
O O16 0.129315 0.036563 0.021330
O O17 0.750000 0.750000 0.719695
O O18 0.250000 0.536319 0.936723
O O19 0.353398 0.250000 0.933056
O O20 0.250000 0.030444 0.777302
O O21 0.145423 0.750000 0.790912
#
# Coordination Sequence:
#
# PCOD9449991 Si02
#       8
#     4   8   8   8   8   4   8   8
#     4   9  18  36  57  77 105 141 186 227 266 329
#     4  10  21  37  56  78 107 147 193 232 269 323
#     4   9  17  32  51  73 101 133 168 210 270 340
#     4  10  20  33  53  78 103 134 172 220 275 330
#     4  10  21  36  56  86 117 145 185 231 276 322
#     4   9  20  36  55  77 101 145 200 231 254 309
#     4   9  19  37  60  84 114 151 185 222 267 324
#     4   9  19  34  53  79 107 137 177 231 285 330
#
# _framework density 23.613600999999999
#
# number of rings (size 3 to 8) (size 9 to 14) (size 15 to 20)
#    0.000    2.571    0.714    0.429    3.000    2.571 
#    0.000    0.357    0.000    0.857    0.000    0.000 
#    0.000    0.000    0.000    0.000    0.000    0.000 
#
# Total GULP energy -312112.050667 kJ/mol
# GULP energy per Si atom -5573.429476 kJ/mol
# Density = 2.355986 g / cm^3
# Si number density = 23.613601 Si / 1000 Ang^3
#
#
#
# Elastic Constant Matrix: (Units=GPa)
#
#
# Indices 1 2 3 4 5 6 
#
# 1 109.6479 4.4369 21.0972 0.0000 0.0000 0.0000
# 2 4.4369 75.6628 -15.1273 0.0000 0.0000 0.0000
# 3 21.0972 -15.1273 119.7089 0.0000 0.0000 0.0000
# 4 0.0000 0.0000 0.0000 18.0217 0.0000 0.0000
# 5 0.0000 0.0000 0.0000 0.0000 12.5959 0.0000
# 6 0.0000 0.0000 0.0000 0.0000 0.0000 -8.3839
#
#
#
# Elastic Compliance Matrix: (Units=1/GPa)
#
#
# Indices 1 2 3 4 5 6 
#
# 1 0.009502 -0.000915 -0.001790 0.000000 0.000000 0.000000
# 2 -0.000915 0.013647 0.001886 0.000000 0.000000 0.000000
# 3 -0.001790 0.001886 0.008907 0.000000 0.000000 0.000000
# 4 0.000000 0.000000 0.000000 0.055489 0.000000 0.000000
# 5 0.000000 0.000000 0.000000 0.000000 0.079391 0.000000
# 6 0.000000 0.000000 0.000000 0.000000 0.000000 -0.119276
#
#
# Mechanical properties :
#
#
# Convention : Reuss Voigt Hill
#
# Bulk Modulus (GPa) = 32.87595 36.20370 34.53982
# Shear Modulus (GPa) = 84.12127 24.08758 54.10443
#
# Velocity S-wave (km/s) = 5.97507 3.19732 4.79188
# Velocity P-wave (km/s) = 7.84567 5.38475 6.72867
#
# Compressibility (1/GPa) = 0.03041737
#
# Stress axis : x y z
#
# Youngs Moduli (GPa) = 105.24571 73.27492 112.26616
#
# Poissons Ratio (x) = 0.06705 0.20098
# Poissons Ratio (y) = 0.09631 -0.21172
# Poissons Ratio (z) = 0.18841 -0.13818
#
# Static dielectric constant tensor:
#      x y z
#    x 1.889940 0.000000 0.000000 
#    y 0.000000 1.943120 0.000000 
#    z 0.000000 0.000000 1.926270 
# 
# From -- ./inp_files/30465.got.cif
#   From: 2010.05.17/outbox.cif.g08.bks.cpg/sg59_16_cif.got.tgz:30465.got - 2010.06.03 14:40:33.
