data_PCOD9449371
_publ_section_title
;
Structure prediction by ZEFSAII (Michael W. Deem and Ramdas Pophale) SiO2 
 PCOD9449371
Probable space group: P M M N
;
_chemical_formula_sum "Si O2"
_cell_formula_units_Z 64
_cell_length_a 13.863605
_cell_length_b 13.237251
_cell_length_c 19.004820
_cell_angle_alpha 90.000000
_cell_angle_beta 90.000000
_cell_angle_gamma 90.000000
_cell_volume 3487.688911
_symmetry_space_group_name_H-M "P M M N"
_symmetry_group_IT_number 59
_space_group.IT_coordinate_system_code '2'
_symmetry_cell_setting 'orthorhombic'
loop_
_space_group_symop_operation_xyz
x,y,z
1/2-x,1/2-y,z
1/2+x,-y,-z
-x,1/2+y,-z
-x,-y,-z
1/2+x,1/2+y,-z
1/2-x,y,z
x,1/2-y,z
loop_
_atom_site_type_symbol
_atom_site_label
_atom_site_fract_x
_atom_site_fract_y
_atom_site_fract_z
Si Si1 0.361613 0.634909 0.333819
Si Si2 0.952972 0.567602 0.710943
Si Si3 0.860845 0.571869 0.856099
Si Si4 0.860278 0.127532 0.212700
Si Si5 0.559349 0.863224 0.555753
Si Si6 0.636575 0.134340 0.922796
Si Si7 0.046803 0.631553 0.932358
Si Si8 0.359016 0.929583 0.496117
O O1 0.250000 0.615833 0.312336
O O2 0.386107 0.750000 0.315958
O O3 0.429092 0.549758 0.301621
O O4 0.364760 0.620209 0.418396
O O5 0.063618 0.585749 0.731485
O O6 0.924812 0.622512 0.638940
O O7 0.892502 0.604339 0.778342
O O8 0.750000 0.596261 0.870261
O O9 0.873600 0.450143 0.863074
O O10 0.935737 0.618202 0.911370
O O11 0.750000 0.100116 0.226163
O O12 0.867900 0.250000 0.213555
O O13 0.893541 0.091107 0.134810
O O14 0.584296 0.750000 0.533579
O O15 0.617188 0.951752 0.515989
O O16 0.445835 0.883923 0.541319
O O17 0.750000 0.136189 0.942185
O O18 0.609492 0.250000 0.903926
O O19 0.577901 0.095640 0.990808
O O20 0.070374 0.750000 0.935690
O O21 0.250000 0.915119 0.522752
#
# Coordination Sequence:
#
# PCOD9449371 Si02
#       8
#     8   8   8   8   8   8   8   8
#     4   9  17  31  52  74  97 130 168 203 245 296
#     4  10  20  32  47  72 104 133 166 205 245 292
#     4  10  20  32  46  68 100 133 162 196 241 293
#     4   9  17  30  48  69  95 129 168 208 252 302
#     4  10  20  34  53  77 105 136 168 201 243 296
#     4   9  17  30  50  74  95 118 156 204 247 286
#     4   9  17  30  48  69  94 125 161 203 249 293
#     4   9  19  35  54  78 104 128 162 209 252 290
#
# _framework density 18.350259999999999
#
# number of rings (size 3 to 8) (size 9 to 14) (size 15 to 20)
#    0.000    2.625    0.000    1.875    0.000    4.750 
#    0.000    1.250    0.000    5.250    0.000    0.000 
#    0.000    0.000    0.000    0.000    0.000    0.000 
#
# Total GULP energy -356847.547262 kJ/mol
# GULP energy per Si atom -5575.742926 kJ/mol
# Density = 1.830849 g / cm^3
# Si number density = 18.350260 Si / 1000 Ang^3
#
#
#
# Elastic Constant Matrix: (Units=GPa)
#
#
# Indices 1 2 3 4 5 6 
#
# 1 58.2152 11.3734 -0.4911 0.0000 0.0000 0.0000
# 2 11.3734 47.1553 -0.1935 0.0000 0.0000 0.0000
# 3 -0.4911 -0.1935 37.0504 0.0000 0.0000 0.0000
# 4 0.0000 0.0000 0.0000 7.9960 0.0000 0.0000
# 5 0.0000 0.0000 0.0000 0.0000 15.5528 0.0000
# 6 0.0000 0.0000 0.0000 0.0000 0.0000 24.5296
#
#
#
# Elastic Compliance Matrix: (Units=1/GPa)
#
#
# Indices 1 2 3 4 5 6 
#
# 1 0.018029 -0.004348 0.000216 0.000000 0.000000 0.000000
# 2 -0.004348 0.022255 0.000059 0.000000 0.000000 0.000000
# 3 0.000216 0.000059 0.026993 0.000000 0.000000 0.000000
# 4 0.000000 0.000000 0.000000 0.125063 0.000000 0.000000
# 5 0.000000 0.000000 0.000000 0.000000 0.064297 0.000000
# 6 0.000000 0.000000 0.000000 0.000000 0.000000 0.040767
#
#
# Mechanical properties :
#
#
# Convention : Reuss Voigt Hill
#
# Bulk Modulus (GPa) = 16.91120 18.19983 17.55551
# Shear Modulus (GPa) = 15.37229 18.39782 16.88505
#
# Velocity S-wave (km/s) = 2.89747 3.16981 3.03669
# Velocity P-wave (km/s) = 4.51991 4.83078 4.67793
#
# Compressibility (1/GPa) = 0.05913241
#
# Stress axis : x y z
#
# Youngs Moduli (GPa) = 55.46669 44.93301 37.04602
#
# Poissons Ratio (x) = 0.19535 -0.00801
# Poissons Ratio (y) = 0.24114 -0.00217
# Poissons Ratio (z) = -0.01200 -0.00263
#
# Static dielectric constant tensor:
#      x y z
#    x 1.618540 0.000000 0.000000 
#    y 0.000000 1.644860 0.000000 
#    z 0.000000 0.000000 1.650850 
# 
# From -- ./inp_files/27667.got.cif
#   From: 2010.05.17/outbox.cif.g08.bks.cpg/sg59_14_cif.got.tgz:27667.got - 2010.06.03 14:40:33.
