data_PCOD9449548
_publ_section_title
;
Structure prediction by ZEFSAII (Michael W. Deem and Ramdas Pophale) SiO2 
 PCOD9449548
Probable space group: P M M N
;
_chemical_formula_sum "Si O2"
_cell_formula_units_Z 48
_cell_length_a 26.124109
_cell_length_b 18.850016
_cell_length_c 4.975714
_cell_angle_alpha 90.000000
_cell_angle_beta 90.000000
_cell_angle_gamma 90.000000
_cell_volume 2450.239968
_symmetry_space_group_name_H-M "P M M N"
_symmetry_group_IT_number 59
_space_group.IT_coordinate_system_code '2'
_symmetry_cell_setting 'orthorhombic'
loop_
_space_group_symop_operation_xyz
x,y,z
1/2-x,1/2-y,z
1/2+x,-y,-z
-x,1/2+y,-z
-x,-y,-z
1/2+x,1/2+y,-z
1/2-x,y,z
x,1/2-y,z
loop_
_atom_site_type_symbol
_atom_site_label
_atom_site_fract_x
_atom_site_fract_y
_atom_site_fract_z
Si Si1 0.595679 0.825878 0.632534
Si Si2 0.482521 0.668475 0.739238
Si Si3 0.306346 0.475949 0.630770
Si Si4 0.582815 0.524088 0.381057
Si Si5 0.475015 0.571166 0.216797
Si Si6 0.804971 0.622000 0.873235
O O1 0.594494 0.750000 0.488593
O O2 0.543325 0.830168 0.801383
O O3 0.595373 0.894144 0.444730
O O4 0.645904 0.831893 0.812002
O O5 0.464200 0.750000 0.746703
O O6 0.478856 0.632613 0.447017
O O7 0.459063 0.613750 0.951991
O O8 0.250000 0.511985 0.665613
O O9 0.362171 0.509361 0.698353
O O10 0.308389 0.446343 0.326617
O O11 0.304572 0.408368 0.828370
O O12 0.530910 0.532290 0.204740
O O13 0.563809 0.484909 0.651297
O O14 0.750000 0.656525 0.816536
#
# Coordination Sequence:
#
# PCOD9449548 Si02
#       6
#     8   8   8   8   8   8
#     4   9  18  31  47  66  93 129 164 201 237 273
#     4  10  20  34  50  71  96 123 157 193 240 295
#     4   9  17  30  47  65  90 122 155 196 234 270
#     4   9  19  32  49  72  99 126 165 198 237 286
#     4  10  20  32  51  72  97 129 155 196 241 283
#     4   9  17  29  44  62  86 121 163 200 232 262
#
# _framework density 19.589918000000001
#
# number of rings (size 3 to 8) (size 9 to 14) (size 15 to 20)
#    0.000    2.667    0.000    1.500    0.000    9.667 
#    0.000    6.667    0.000    8.000    0.000    0.000 
#    0.000    4.000    0.000    0.000    0.000    0.000 
#
# Total GULP energy -267315.913338 kJ/mol
# GULP energy per Si atom -5569.081528 kJ/mol
# Density = 1.954533 g / cm^3
# Si number density = 19.589918 Si / 1000 Ang^3
#
#
#
# Elastic Constant Matrix: (Units=GPa)
#
#
# Indices 1 2 3 4 5 6 
#
# 1 117.8414 11.9655 -2.7527 0.0000 0.0000 0.0000
# 2 11.9655 74.9769 14.8927 0.0000 0.0000 0.0000
# 3 -2.7527 14.8927 39.2013 0.0000 0.0000 0.0000
# 4 0.0000 0.0000 0.0000 17.6100 0.0000 0.0000
# 5 0.0000 0.0000 0.0000 0.0000 20.2404 0.0000
# 6 0.0000 0.0000 0.0000 0.0000 0.0000 16.3939
#
#
#
# Elastic Compliance Matrix: (Units=1/GPa)
#
#
# Indices 1 2 3 4 5 6 
#
# 1 0.008680 -0.001629 0.001228 0.000000 0.000000 0.000000
# 2 -0.001629 0.014732 -0.005711 0.000000 0.000000 0.000000
# 3 0.001228 -0.005711 0.027765 0.000000 0.000000 0.000000
# 4 0.000000 0.000000 0.000000 0.056786 0.000000 0.000000
# 5 0.000000 0.000000 0.000000 0.000000 0.049406 0.000000
# 6 0.000000 0.000000 0.000000 0.000000 0.000000 0.060998
#
#
# Mechanical properties :
#
#
# Convention : Reuss Voigt Hill
#
# Bulk Modulus (GPa) = 25.67165 31.13673 28.40419
# Shear Modulus (GPa) = 20.52747 24.70978 22.61863
#
# Velocity S-wave (km/s) = 3.24058 3.55540 3.40164
# Velocity P-wave (km/s) = 5.20910 5.72567 5.47348
#
# Compressibility (1/GPa) = 0.03895348
#
# Stress axis : x y z
#
# Youngs Moduli (GPa) = 115.20587 67.88009 36.01621
#
# Poissons Ratio (x) = 0.11059 -0.04424
# Poissons Ratio (y) = 0.18770 0.20569
# Poissons Ratio (z) = -0.14153 0.38767
#
# Static dielectric constant tensor:
#      x y z
#    x 1.776490 0.000000 0.000000 
#    y 0.000000 1.686840 0.000000 
#    z 0.000000 0.000000 1.732550 
# 
# From -- ./inp_files/3813.got.cif
#   From: 2010.05.17/outbox.cif.g08.bks.cpg/sg59_2_cif.got.tgz:3813.got - 2010.06.03 14:40:33.
