data_PCOD9449341
_publ_section_title
;
Structure prediction by ZEFSAII (Michael W. Deem and Ramdas Pophale) SiO2 
 PCOD9449341
Probable space group: P M M N
;
_chemical_formula_sum "Si O2"
_cell_formula_units_Z 56
_cell_length_a 7.463069
_cell_length_b 18.791255
_cell_length_c 19.933319
_cell_angle_alpha 90.000000
_cell_angle_beta 90.000000
_cell_angle_gamma 90.000000
_cell_volume 2795.457281
_symmetry_space_group_name_H-M "P M M N"
_symmetry_group_IT_number 59
_space_group.IT_coordinate_system_code '2'
_symmetry_cell_setting 'orthorhombic'
loop_
_space_group_symop_operation_xyz
x,y,z
1/2-x,1/2-y,z
1/2+x,-y,-z
-x,1/2+y,-z
-x,-y,-z
1/2+x,1/2+y,-z
1/2-x,y,z
x,1/2-y,z
loop_
_atom_site_type_symbol
_atom_site_label
_atom_site_fract_x
_atom_site_fract_y
_atom_site_fract_z
Si Si1 0.968630 0.829122 0.641182
Si Si2 0.537787 0.829614 0.196615
Si Si3 0.534733 0.045489 0.707893
Si Si4 0.535834 0.973089 0.574314
Si Si5 0.531056 0.901184 0.778690
Si Si6 0.457254 0.088698 0.076012
Si Si7 0.468969 0.421706 0.928851
O O1 0.750000 0.828678 0.639870
O O2 0.029475 0.750000 0.623433
O O3 0.028967 0.893671 0.593290
O O4 0.020087 0.850078 0.717380
O O5 0.750000 0.823757 0.185480
O O6 0.464893 0.750000 0.203365
O O7 0.514806 0.879161 0.261387
O O8 0.468165 0.872699 0.132075
O O9 0.750000 0.042773 0.707483
O O10 0.470614 0.025900 0.633223
O O11 0.474456 0.980716 0.756199
O O12 0.750000 0.970266 0.581173
O O13 0.500000 0.000000 0.500000
O O14 0.750000 0.901417 0.780886
O O15 0.465765 0.884044 0.853477
O O16 0.250000 0.111299 0.074572
O O17 0.466365 0.002588 0.080372
O O18 0.530775 0.105306 0.002143
O O19 0.250000 0.424610 0.929429
#
# Coordination Sequence:
#
# PCOD9449341 Si02
#       7
#     8   8   8   8   8   8   8
#     4   8  14  26  45  70  97 121 146 180 225 273
#     4  10  20  32  44  62  93 128 160 199 244 283
#     4   9  17  31  49  68  90 118 155 194 227 268
#     4   9  18  32  52  76  99 123 151 186 225 268
#     4   8  13  23  42  66  89 113 146 189 226 262
#     4   9  15  25  43  64  86 114 150 192 232 274
#     4   9  17  27  40  61  88 118 153 191 234 278
#
# _framework density 20.032501
#
# number of rings (size 3 to 8) (size 9 to 14) (size 15 to 20)
#    0.000    3.143    1.429    1.714    0.000    0.857 
#    0.000    1.429    0.000    7.286    0.000    0.000 
#    0.000    1.143    0.000    0.000    0.000    0.000 
#
# Total GULP energy -312112.289952 kJ/mol
# GULP energy per Si atom -5573.433749 kJ/mol
# Density = 1.998691 g / cm^3
# Si number density = 20.032501 Si / 1000 Ang^3
#
#
#
# Elastic Constant Matrix: (Units=GPa)
#
#
# Indices 1 2 3 4 5 6 
#
# 1 57.0930 -3.2481 -3.9826 0.0000 0.0000 0.0000
# 2 -3.2481 122.7105 72.6107 0.0000 0.0000 0.0000
# 3 -3.9826 72.6107 167.9918 0.0000 0.0000 0.0000
# 4 0.0000 0.0000 0.0000 19.1793 0.0000 0.0000
# 5 0.0000 0.0000 0.0000 0.0000 8.8160 0.0000
# 6 0.0000 0.0000 0.0000 0.0000 0.0000 5.6630
#
#
#
# Elastic Compliance Matrix: (Units=1/GPa)
#
#
# Indices 1 2 3 4 5 6 
#
# 1 0.017552 0.000293 0.000289 0.000000 0.000000 0.000000
# 2 0.000293 0.010955 -0.004728 0.000000 0.000000 0.000000
# 3 0.000289 -0.004728 0.008003 0.000000 0.000000 0.000000
# 4 0.000000 0.000000 0.000000 0.052140 0.000000 0.000000
# 5 0.000000 0.000000 0.000000 0.000000 0.113430 0.000000
# 6 0.000000 0.000000 0.000000 0.000000 0.000000 0.176586
#
#
# Mechanical properties :
#
#
# Convention : Reuss Voigt Hill
#
# Bulk Modulus (GPa) = 35.43659 53.17282 44.30470
# Shear Modulus (GPa) = 12.61471 25.55934 19.08702
#
# Velocity S-wave (km/s) = 2.51213 3.57584 3.09010
# Velocity P-wave (km/s) = 5.11296 6.60680 5.90729
#
# Compressibility (1/GPa) = 0.02821942
#
# Stress axis : x y z
#
# Youngs Moduli (GPa) = 56.97302 91.28529 124.95189
#
# Poissons Ratio (x) = -0.02678 -0.03615
# Poissons Ratio (y) = -0.01672 0.59077
# Poissons Ratio (z) = -0.01648 0.43159
#
# Static dielectric constant tensor:
#      x y z
#    x 1.812060 0.000000 0.000000 
#    y 0.000000 1.690530 0.000000 
#    z 0.000000 0.000000 1.728280 
# 
# From -- ./inp_files/29316.got.cif
#   From: 2010.05.17/outbox.cif.g08.bks.cpg/sg59_15_cif.got.tgz:29316.got - 2010.06.03 14:40:33.
