data_PCOD9449971
_publ_section_title
;
Structure prediction by ZEFSAII (Michael W. Deem and Ramdas Pophale) SiO2 
 PCOD9449971
Probable space group: P M M N
;
_chemical_formula_sum "Si O2"
_cell_formula_units_Z 64
_cell_length_a 9.244483
_cell_length_b 14.111426
_cell_length_c 26.664638
_cell_angle_alpha 90.000000
_cell_angle_beta 90.000000
_cell_angle_gamma 90.000000
_cell_volume 3478.477695
_symmetry_space_group_name_H-M "P M M N"
_symmetry_group_IT_number 59
_space_group.IT_coordinate_system_code '2'
_symmetry_cell_setting 'orthorhombic'
loop_
_space_group_symop_operation_xyz
x,y,z
1/2-x,1/2-y,z
1/2+x,-y,-z
-x,1/2+y,-z
-x,-y,-z
1/2+x,1/2+y,-z
1/2-x,y,z
x,1/2-y,z
loop_
_atom_site_type_symbol
_atom_site_label
_atom_site_fract_x
_atom_site_fract_y
_atom_site_fract_z
Si Si1 0.583482 0.135278 0.580505
Si Si2 0.423071 0.036231 0.672026
Si Si3 0.923764 0.639282 0.632464
Si Si4 0.076002 0.541885 0.130271
Si Si5 0.415266 0.365504 0.482077
Si Si6 0.076236 0.360560 0.776179
Si Si7 0.917261 0.363932 0.974813
Si Si8 0.076457 0.358195 0.076589
O O1 0.750000 0.105116 0.585866
O O2 0.578830 0.250000 0.581868
O O3 0.489185 0.094937 0.625742
O O4 0.519643 0.104138 0.526783
O O5 0.250000 0.031578 0.667631
O O6 0.460422 0.088301 0.723926
O O7 0.493015 0.932254 0.668274
O O8 0.750000 0.630839 0.637811
O O9 0.960849 0.750000 0.639439
O O10 0.958873 0.610785 0.574755
O O11 0.250000 0.550507 0.135857
O O12 0.035023 0.594073 0.078287
O O13 0.038232 0.432175 0.119962
O O14 0.998782 0.587806 0.177396
O O15 0.250000 0.397025 0.491079
O O16 0.412655 0.250000 0.482842
O O17 0.250000 0.364848 0.782008
O O18 0.033999 0.250000 0.774501
O O19 0.750000 0.392528 0.982715
O O20 0.922646 0.250000 0.970949
O O21 0.009642 0.390008 0.023530
O O22 0.250000 0.359489 0.071657
O O23 0.030077 0.250000 0.086343
#
# Coordination Sequence:
#
# PCOD9449971 Si02
#       8
#     8   8   8   8   8   8   8   8
#     4  10  20  33  52  80 111 142 179 222 267 320
#     4  11  23  38  57  79 105 140 179 221 271 324
#     4   9  19  37  59  82 109 140 176 219 264 313
#     4  10  20  34  54  79 107 141 180 222 267 313
#     4   8  15  30  52  77 107 142 175 211 260 315
#     4  10  23  42  60  79 104 134 172 219 268 318
#     4   9  17  29  47  75 109 142 178 220 266 314
#     4   9  18  32  50  76 111 147 181 216 255 304
#
# _framework density 18.398854
#
# number of rings (size 3 to 8) (size 9 to 14) (size 15 to 20)
#    0.000    2.500    0.000    2.625    0.000    5.250 
#    0.000    3.125    0.000    2.250    0.000    0.000 
#    0.000    0.000    0.000    0.000    0.000    0.000 
#
# Total GULP energy -357307.602301 kJ/mol
# GULP energy per Si atom -5582.931286 kJ/mol
# Density = 1.835698 g / cm^3
# Si number density = 18.398854 Si / 1000 Ang^3
#
#
#
# Elastic Constant Matrix: (Units=GPa)
#
#
# Indices 1 2 3 4 5 6 
#
# 1 43.9847 49.2793 59.8635 0.0000 0.0000 0.0000
# 2 49.2793 115.2154 86.3446 0.0000 0.0000 0.0000
# 3 59.8635 86.3446 137.6748 0.0000 0.0000 0.0000
# 4 0.0000 0.0000 0.0000 34.8371 0.0000 0.0000
# 5 0.0000 0.0000 0.0000 0.0000 31.2189 0.0000
# 6 0.0000 0.0000 0.0000 0.0000 0.0000 25.9104
#
#
#
# Elastic Compliance Matrix: (Units=1/GPa)
#
#
# Indices 1 2 3 4 5 6 
#
# 1 0.063695 -0.012241 -0.020019 0.000000 0.000000 0.000000
# 2 -0.012241 0.018729 -0.006424 0.000000 0.000000 0.000000
# 3 -0.020019 -0.006424 0.019997 0.000000 0.000000 0.000000
# 4 0.000000 0.000000 0.000000 0.028705 0.000000 0.000000
# 5 0.000000 0.000000 0.000000 0.000000 0.032032 0.000000
# 6 0.000000 0.000000 0.000000 0.000000 0.000000 0.038594
#
#
# Mechanical properties :
#
#
# Convention : Reuss Voigt Hill
#
# Bulk Modulus (GPa) = 39.91322 76.42773 58.17048
# Shear Modulus (GPa) = 17.39311 25.15247 21.27279
#
# Velocity S-wave (km/s) = 3.07797 3.70140 3.40399
# Velocity P-wave (km/s) = 5.86279 7.73930 6.86546
#
# Compressibility (1/GPa) = 0.02505435
#
# Stress axis : x y z
#
# Youngs Moduli (GPa) = 15.69975 53.39337 50.00841
#
# Poissons Ratio (x) = 0.65358 1.00111
# Poissons Ratio (y) = 0.19218 0.32123
# Poissons Ratio (z) = 0.31429 0.34297
#
# Static dielectric constant tensor:
#      x y z
#    x 1.624250 0.000000 0.000000 
#    y 0.000000 1.682030 0.000000 
#    z 0.000000 0.000000 1.590740 
# 
# From -- ./inp_files/31505.got.cif
#   From: 2010.05.17/outbox.cif.g08.bks.cpg/sg59_16_cif.got.tgz:31505.got - 2010.06.03 14:40:33.
