data_PCOD9449641
_publ_section_title
;
Structure prediction by ZEFSAII (Michael W. Deem and Ramdas Pophale) SiO2 
 PCOD9449641
Probable space group: P M M N
;
_chemical_formula_sum "Si O2"
_cell_formula_units_Z 64
_cell_length_a 17.975870
_cell_length_b 7.653930
_cell_length_c 23.987621
_cell_angle_alpha 90.000000
_cell_angle_beta 90.000000
_cell_angle_gamma 90.000000
_cell_volume 3300.362038
_symmetry_space_group_name_H-M "P M M N"
_symmetry_group_IT_number 59
_space_group.IT_coordinate_system_code '2'
_symmetry_cell_setting 'orthorhombic'
loop_
_space_group_symop_operation_xyz
x,y,z
1/2-x,1/2-y,z
1/2+x,-y,-z
-x,1/2+y,-z
-x,-y,-z
1/2+x,1/2+y,-z
1/2-x,y,z
x,1/2-y,z
loop_
_atom_site_type_symbol
_atom_site_label
_atom_site_fract_x
_atom_site_fract_y
_atom_site_fract_z
Si Si1 0.582240 0.545236 0.061588
Si Si2 0.971792 0.043319 0.240887
Si Si3 0.666426 0.959357 0.955534
Si Si4 0.480162 0.535075 0.633442
Si Si5 0.332839 0.537986 0.830630
Si Si6 0.054890 0.542069 0.133617
Si Si7 0.332944 0.544926 0.567731
Si Si8 0.425039 0.042506 0.465614
O O1 0.566634 0.750000 0.052288
O O2 0.646768 0.526693 0.107666
O O3 0.509786 0.468291 0.092294
O O4 0.611267 0.469278 0.003513
O O5 0.960064 0.250000 0.247434
O O6 0.984587 0.975096 0.302878
O O7 0.897227 0.973465 0.210873
O O8 0.037115 0.019110 0.195881
O O9 0.750000 0.027358 0.961837
O O10 0.669387 0.750000 0.963044
O O11 0.631899 0.995155 0.895237
O O12 0.479851 0.750000 0.631502
O O13 0.402248 0.475821 0.604709
O O14 0.550880 0.480179 0.595825
O O15 0.250000 0.485040 0.814265
O O16 0.335574 0.750000 0.831990
O O17 0.047402 0.750000 0.134728
O O18 0.250000 0.470465 0.576378
O O19 0.328874 0.750000 0.581320
O O20 0.358500 0.530444 0.503141
O O21 0.414285 0.250000 0.463807
O O22 0.500000 0.000000 0.500000
#
# Coordination Sequence:
#
# PCOD9449641 Si02
#       8
#     8   8   8   8   8   8   8   8
#     4   9  18  32  49  68  91 121 153 183 223 279
#     4   9  17  31  49  66  89 123 161 195 226 265
#     4  10  20  33  50  71  92 117 151 189 232 282
#     4   8  15  28  47  69  90 120 161 197 226 262
#     4   9  17  27  41  65  94 121 150 186 227 269
#     4  10  20  33  49  70  95 122 153 190 233 277
#     4   9  17  29  46  71 102 130 155 187 230 277
#     4   9  16  28  46  68  94 123 157 192 228 270
#
# _framework density 19.391811000000001
#
# number of rings (size 3 to 8) (size 9 to 14) (size 15 to 20)
#    0.000    2.875    0.000    2.250    0.000    2.750 
#    0.000    5.625    0.000    0.750    0.000    7.000 
#    0.000    0.000    0.000    0.000    0.000    0.000 
#
# Total GULP energy -356622.020867 kJ/mol
# GULP energy per Si atom -5572.219076 kJ/mol
# Density = 1.934767 g / cm^3
# Si number density = 19.391811 Si / 1000 Ang^3
#
#
#
# Elastic Constant Matrix: (Units=GPa)
#
#
# Indices 1 2 3 4 5 6 
#
# 1 38.1990 -2.2158 35.0974 0.0000 0.0000 0.0000
# 2 -2.2158 31.8104 -6.6647 0.0000 0.0000 0.0000
# 3 35.0974 -6.6647 139.3047 0.0000 0.0000 0.0000
# 4 0.0000 0.0000 0.0000 14.7519 0.0000 0.0000
# 5 0.0000 0.0000 0.0000 0.0000 11.6285 0.0000
# 6 0.0000 0.0000 0.0000 0.0000 0.0000 11.5395
#
#
#
# Elastic Compliance Matrix: (Units=1/GPa)
#
#
# Indices 1 2 3 4 5 6 
#
# 1 0.034075 0.000581 -0.008557 0.000000 0.000000 0.000000
# 2 0.000581 0.031764 0.001373 0.000000 0.000000 0.000000
# 3 -0.008557 0.001373 0.009400 0.000000 0.000000 0.000000
# 4 0.000000 0.000000 0.000000 0.067788 0.000000 0.000000
# 5 0.000000 0.000000 0.000000 0.000000 0.085995 0.000000
# 6 0.000000 0.000000 0.000000 0.000000 0.000000 0.086659
#
#
# Mechanical properties :
#
#
# Convention : Reuss Voigt Hill
#
# Bulk Modulus (GPa) = 16.12043 29.08308 22.60175
# Shear Modulus (GPa) = 14.30345 19.79046 17.04696
#
# Velocity S-wave (km/s) = 2.71883 3.19808 2.96815
# Velocity P-wave (km/s) = 4.26463 5.35417 4.84016
#
# Compressibility (1/GPa) = 0.06203308
#
# Stress axis : x y z
#
# Youngs Moduli (GPa) = 29.34716 31.48176 106.38080
#
# Poissons Ratio (x) = -0.01828 0.91033
# Poissons Ratio (y) = -0.01704 -0.14610
# Poissons Ratio (z) = 0.25113 -0.04324
#
# Static dielectric constant tensor:
#      x y z
#    x 1.685700 0.000000 0.000000 
#    y 0.000000 1.722490 0.000000 
#    z 0.000000 0.000000 1.695600 
# 
# From -- ./inp_files/32316.got.cif
#   From: 2010.05.17/outbox.cif.g08.bks.cpg/sg59_17_cif.got.tgz:32316.got - 2010.06.03 14:40:33.
