data_PCOD9449441
_publ_section_title
;
Structure prediction by ZEFSAII (Michael W. Deem and Ramdas Pophale) SiO2 
 PCOD9449441
Probable space group: P M M N
;
_chemical_formula_sum "Si O2"
_cell_formula_units_Z 48
_cell_length_a 9.640149
_cell_length_b 7.482282
_cell_length_c 31.983500
_cell_angle_alpha 90.000000
_cell_angle_beta 90.000000
_cell_angle_gamma 90.000000
_cell_volume 2306.979877
_symmetry_space_group_name_H-M "P M M N"
_symmetry_group_IT_number 59
_space_group.IT_coordinate_system_code '2'
_symmetry_cell_setting 'orthorhombic'
loop_
_space_group_symop_operation_xyz
x,y,z
1/2-x,1/2-y,z
1/2+x,-y,-z
-x,1/2+y,-z
-x,-y,-z
1/2+x,1/2+y,-z
1/2-x,y,z
x,1/2-y,z
loop_
_atom_site_type_symbol
_atom_site_label
_atom_site_fract_x
_atom_site_fract_y
_atom_site_fract_z
Si Si1 0.591347 0.963337 0.617301
Si Si2 0.092314 0.535361 0.289019
Si Si3 0.910495 0.531920 0.118215
Si Si4 0.590195 0.967983 0.211912
Si Si5 0.592468 0.035746 0.959344
Si Si6 0.592307 0.035614 0.459279
O O1 0.750000 0.033528 0.613943
O O2 0.599995 0.750000 0.611828
O O3 0.489806 0.033171 0.581452
O O4 0.539363 0.995639 0.664393
O O5 0.250000 0.467304 0.286799
O O6 0.097069 0.750000 0.285486
O O7 0.002124 0.468319 0.250355
O O8 0.750000 0.478068 0.111131
O O9 0.910815 0.750000 0.117634
O O10 0.953148 0.477140 0.165113
O O11 0.011712 0.468883 0.081725
O O12 0.750000 0.020716 0.217557
O O13 0.586908 0.750000 0.212170
O O14 0.750000 0.967573 0.963327
O O15 0.601104 0.250000 0.955210
O O16 0.500000 0.000000 0.000000
O O17 0.750000 0.967365 0.463092
O O18 0.601719 0.250000 0.455155
O O19 0.500000 0.000000 0.500000
#
# Coordination Sequence:
#
# PCOD9449441 Si02
#       6
#     8   8   8   8   8   8
#     4   9  18  33  50  67  93 129 161 189 229 282
#     4   9  17  28  44  68  94 118 149 192 235 271
#     4   8  14  26  44  65  90 120 153 191 235 281
#     4   8  14  25  42  65  92 120 150 187 232 277
#     4  10  20  32  48  71  96 124 159 197 239 288
#     4  10  21  36  54  76 100 127 161 200 241 286
#
# _framework density 20.806422000000001
#
# number of rings (size 3 to 8) (size 9 to 14) (size 15 to 20)
#    0.000    3.000    0.000    2.000    0.000    4.000 
#    0.000    5.000    0.000    1.000    0.000    4.667 
#    0.000    0.000    0.000    0.000    0.000    0.000 
#
# Total GULP energy -267852.602481 kJ/mol
# GULP energy per Si atom -5580.262552 kJ/mol
# Density = 2.075907 g / cm^3
# Si number density = 20.806422 Si / 1000 Ang^3
#
#
#
# Elastic Constant Matrix: (Units=GPa)
#
#
# Indices 1 2 3 4 5 6 
#
# 1 150.9140 5.6256 144.6546 0.0000 0.0000 0.0000
# 2 5.6256 59.2397 -0.5659 0.0000 0.0000 0.0000
# 3 144.6546 -0.5659 240.0088 0.0000 0.0000 0.0000
# 4 0.0000 0.0000 0.0000 17.4126 0.0000 0.0000
# 5 0.0000 0.0000 0.0000 0.0000 43.5961 0.0000
# 6 0.0000 0.0000 0.0000 0.0000 0.0000 7.1473
#
#
#
# Elastic Compliance Matrix: (Units=1/GPa)
#
#
# Indices 1 2 3 4 5 6 
#
# 1 0.015841 -0.001596 -0.009551 0.000000 0.000000 0.000000
# 2 -0.001596 0.017042 0.001002 0.000000 0.000000 0.000000
# 3 -0.009551 0.001002 0.009925 0.000000 0.000000 0.000000
# 4 0.000000 0.000000 0.000000 0.057430 0.000000 0.000000
# 5 0.000000 0.000000 0.000000 0.000000 0.022938 0.000000
# 6 0.000000 0.000000 0.000000 0.000000 0.000000 0.139914
#
#
# Mechanical properties :
#
#
# Convention : Reuss Voigt Hill
#
# Bulk Modulus (GPa) = 44.40856 83.28789 63.84823
# Shear Modulus (GPa) = 17.18898 33.66108 25.42503
#
# Velocity S-wave (km/s) = 2.87738 4.02658 3.49948
# Velocity P-wave (km/s) = 5.69466 7.85714 6.86162
#
# Compressibility (1/GPa) = 0.02251818
#
# Stress axis : x y z
#
# Youngs Moduli (GPa) = 63.12898 58.67979 100.75269
#
# Poissons Ratio (x) = 0.09362 0.96229
# Poissons Ratio (y) = 0.10072 -0.10093
# Poissons Ratio (z) = 0.60294 -0.05879
#
# Static dielectric constant tensor:
#      x y z
#    x 1.734540 0.000000 0.000000 
#    y 0.000000 1.821050 0.000000 
#    z 0.000000 0.000000 1.718310 
# 
# From -- ./inp_files/31863.got.cif
#   From: 2010.05.17/outbox.cif.g08.bks.cpg/sg59_16_cif.got.tgz:31863.got - 2010.06.03 14:40:33.
