data_PCOD9449077
_publ_section_title
;
Structure prediction by ZEFSAII (Michael W. Deem and Ramdas Pophale) SiO2 
 PCOD9449077
Probable space group: P M M N
;
_chemical_formula_sum "Si O2"
_cell_formula_units_Z 64
_cell_length_a 22.459613
_cell_length_b 12.818110
_cell_length_c 11.946252
_cell_angle_alpha 90.000000
_cell_angle_beta 90.000000
_cell_angle_gamma 90.000000
_cell_volume 3439.203979
_symmetry_space_group_name_H-M "P M M N"
_symmetry_group_IT_number 59
_space_group.IT_coordinate_system_code '2'
_symmetry_cell_setting 'orthorhombic'
loop_
_space_group_symop_operation_xyz
x,y,z
1/2-x,1/2-y,z
1/2+x,-y,-z
-x,1/2+y,-z
-x,-y,-z
1/2+x,1/2+y,-z
1/2-x,y,z
x,1/2-y,z
loop_
_atom_site_type_symbol
_atom_site_label
_atom_site_fract_x
_atom_site_fract_y
_atom_site_fract_z
Si Si1 0.385756 0.371869 0.736692
Si Si2 0.066501 0.631830 0.990811
Si Si3 0.678981 0.372516 0.641749
Si Si4 0.599933 0.005175 0.464127
Si Si5 0.003761 0.013144 0.815831
Si Si6 0.679901 0.428406 0.899071
Si Si7 0.515056 0.873499 0.615038
Si Si8 0.679304 0.866543 0.028035
O O1 0.377981 0.250000 0.708579
O O2 0.366108 0.450758 0.639234
O O3 0.455008 0.401360 0.755313
O O4 0.353564 0.390435 0.855559
O O5 0.044242 0.750000 0.982026
O O6 0.136502 0.631814 0.016948
O O7 0.037353 0.572228 0.096114
O O8 0.047049 0.565092 0.883953
O O9 0.750000 0.386501 0.626036
O O10 0.665076 0.250000 0.627155
O O11 0.642314 0.441204 0.554454
O O12 0.665681 0.402722 0.770594
O O13 0.560669 0.913943 0.521340
O O14 0.551461 0.089437 0.420257
O O15 0.970969 0.941570 0.725553
O O16 0.750000 0.406037 0.915863
O O17 0.668241 0.548600 0.932726
O O18 0.517904 0.750000 0.631624
O O19 0.750000 0.866897 0.049601
O O20 0.661090 0.750000 0.993336
#
# Coordination Sequence:
#
# PCOD9449077 Si02
#       8
#     8   8   8   8   8   8   8   8
#     4  10  19  35  57  81 111 145 183 230 277 328
#     4  11  21  34  53  79 111 144 182 226 274 329
#     4  10  21  38  59  81 110 147 184 228 282 334
#     4  10  21  35  57  84 109 144 189 231 274 328
#     4  10  21  35  52  79 110 147 183 224 277 331
#     4  10  20  36  57  82 109 142 183 226 273 330
#     4  10  20  36  55  78 110 146 185 229 276 328
#     4   9  18  34  56  80 108 144 181 222 276 331
#
# _framework density 18.608957
#
# number of rings (size 3 to 8) (size 9 to 14) (size 15 to 20)
#    0.000    2.000    1.250    2.625    0.000    1.250 
#    0.000    6.875    0.000    2.625    0.000    0.000 
#    0.000    0.000    0.000    0.000    0.000    0.000 
#
# Total GULP energy -357123.188287 kJ/mol
# GULP energy per Si atom -5580.049817 kJ/mol
# Density = 1.856660 g / cm^3
# Si number density = 18.608957 Si / 1000 Ang^3
#
#
#
# Elastic Constant Matrix: (Units=GPa)
#
#
# Indices 1 2 3 4 5 6 
#
# 1 29.7816 22.0631 9.6761 0.0000 0.0000 0.0000
# 2 22.0631 104.4761 20.5317 0.0000 0.0000 0.0000
# 3 9.6761 20.5317 47.5816 0.0000 0.0000 0.0000
# 4 0.0000 0.0000 0.0000 22.5628 0.0000 0.0000
# 5 0.0000 0.0000 0.0000 0.0000 30.9987 0.0000
# 6 0.0000 0.0000 0.0000 0.0000 0.0000 19.6727
#
#
#
# Elastic Compliance Matrix: (Units=1/GPa)
#
#
# Indices 1 2 3 4 5 6 
#
# 1 0.040871 -0.007646 -0.005012 0.000000 0.000000 0.000000
# 2 -0.007646 0.011889 -0.003575 0.000000 0.000000 0.000000
# 3 -0.005012 -0.003575 0.023578 0.000000 0.000000 0.000000
# 4 0.000000 0.000000 0.000000 0.044321 0.000000 0.000000
# 5 0.000000 0.000000 0.000000 0.000000 0.032259 0.000000
# 6 0.000000 0.000000 0.000000 0.000000 0.000000 0.050832
#
#
# Mechanical properties :
#
#
# Convention : Reuss Voigt Hill
#
# Bulk Modulus (GPa) = 22.79392 31.82013 27.30703
# Shear Modulus (GPa) = 19.93299 23.28473 21.60886
#
# Velocity S-wave (km/s) = 3.27639 3.54116 3.41135
# Velocity P-wave (km/s) = 5.15640 5.81861 5.49749
#
# Compressibility (1/GPa) = 0.04387135
#
# Stress axis : x y z
#
# Youngs Moduli (GPa) = 24.46744 84.11242 42.41153
#
# Poissons Ratio (x) = 0.64313 0.21257
# Poissons Ratio (y) = 0.18708 0.15163
# Poissons Ratio (z) = 0.12263 0.30072
#
# Static dielectric constant tensor:
#      x y z
#    x 1.655250 0.000000 0.000000 
#    y 0.000000 1.642950 0.000000 
#    z 0.000000 0.000000 1.638810 
# 
# From -- ./inp_files/18756.got.cif
#   From: 2010.05.17/outbox.cif.g08.bks.cpg/sg59_10_cif.got.tgz:18756.got - 2010.06.03 14:40:33.
