data_PCOD9449350
_publ_section_title
;
Structure prediction by ZEFSAII (Michael W. Deem and Ramdas Pophale) SiO2 
 PCOD9449350
Probable space group: P M M N
;
_chemical_formula_sum "Si O2"
_cell_formula_units_Z 64
_cell_length_a 25.418972
_cell_length_b 9.002710
_cell_length_c 18.914823
_cell_angle_alpha 90.000000
_cell_angle_beta 90.000000
_cell_angle_gamma 90.000000
_cell_volume 4328.461161
_symmetry_space_group_name_H-M "P M M N"
_symmetry_group_IT_number 59
_space_group.IT_coordinate_system_code '2'
_symmetry_cell_setting 'orthorhombic'
loop_
_space_group_symop_operation_xyz
x,y,z
1/2-x,1/2-y,z
1/2+x,-y,-z
-x,1/2+y,-z
-x,-y,-z
1/2+x,1/2+y,-z
1/2-x,y,z
x,1/2-y,z
loop_
_atom_site_type_symbol
_atom_site_label
_atom_site_fract_x
_atom_site_fract_y
_atom_site_fract_z
Si Si1 0.811022 0.420717 0.699900
Si Si2 0.508322 0.927798 0.388455
Si Si3 0.416295 0.927544 0.495095
Si Si4 0.603976 0.428276 0.817272
Si Si5 0.458670 0.078542 0.899802
Si Si6 0.996700 0.426872 0.235891
Si Si7 0.076825 0.578187 0.033521
Si Si8 0.689373 0.926764 0.551592
O O1 0.750000 0.426320 0.720193
O O2 0.822921 0.250000 0.676916
O O3 0.847374 0.455259 0.766158
O O4 0.818617 0.527413 0.633425
O O5 0.513864 0.750000 0.384201
O O6 0.451045 0.958646 0.424157
O O7 0.551193 0.995859 0.441860
O O8 0.514033 0.999878 0.311687
O O9 0.415427 0.750000 0.504485
O O10 0.357644 0.991535 0.489084
O O11 0.591857 0.250000 0.815677
O O12 0.554588 0.517305 0.786980
O O13 0.612285 0.467254 0.899619
O O14 0.447918 0.250000 0.884354
O O15 0.517834 0.069575 0.932908
O O16 0.459607 0.985385 0.827682
O O17 0.422329 0.016947 0.962592
O O18 0.994623 0.250000 0.240361
O O19 0.086503 0.750000 0.015592
O O20 0.750000 0.970214 0.533395
O O21 0.684822 0.750000 0.542973
#
# Coordination Sequence:
#
# PCOD9449350 Si02
#       8
#     8   8   8   8   8   8   8   8
#     4   9  17  29  44  61  82 110 144 180 215 250
#     4  10  20  33  47  64  89 118 146 179 220 265
#     4  10  20  33  49  67  87 114 148 183 219 261
#     4   9  17  28  41  58  82 112 144 177 213 252
#     4   9  16  26  39  55  78 106 135 168 204 241
#     4  11  20  28  41  61  84 111 144 176 208 252
#     4   8  14  24  37  54  77 105 136 168 202 241
#     4  10  20  32  46  65  89 117 148 183 223 262
#
# _framework density 14.785855
#
# number of rings (size 3 to 8) (size 9 to 14) (size 15 to 20)
#    0.000    2.500    0.000    4.125    0.000    8.750 
#    0.000    0.000    0.000    0.000    0.000    0.000 
#    0.000    1.000    0.000    5.000    0.000    3.500 
#
# Total GULP energy -356611.100948 kJ/mol
# GULP energy per Si atom -5572.048452 kJ/mol
# Density = 1.475220 g / cm^3
# Si number density = 14.785855 Si / 1000 Ang^3
#
#
#
# Elastic Constant Matrix: (Units=GPa)
#
#
# Indices 1 2 3 4 5 6 
#
# 1 58.6840 34.7628 32.9401 0.0000 0.0000 0.0000
# 2 34.7628 78.4146 54.2352 0.0000 0.0000 0.0000
# 3 32.9401 54.2352 98.2737 0.0000 0.0000 0.0000
# 4 0.0000 0.0000 0.0000 26.9661 0.0000 0.0000
# 5 0.0000 0.0000 0.0000 0.0000 20.1344 0.0000
# 6 0.0000 0.0000 0.0000 0.0000 0.0000 17.1588
#
#
#
# Elastic Compliance Matrix: (Units=1/GPa)
#
#
# Indices 1 2 3 4 5 6 
#
# 1 0.023826 -0.008150 -0.003489 0.000000 0.000000 0.000000
# 2 -0.008150 0.023413 -0.010190 0.000000 0.000000 0.000000
# 3 -0.003489 -0.010190 0.016968 0.000000 0.000000 0.000000
# 4 0.000000 0.000000 0.000000 0.037084 0.000000 0.000000
# 5 0.000000 0.000000 0.000000 0.000000 0.049666 0.000000
# 6 0.000000 0.000000 0.000000 0.000000 0.000000 0.058279
#
#
# Mechanical properties :
#
#
# Convention : Reuss Voigt Hill
#
# Bulk Modulus (GPa) = 48.65693 53.24984 50.95339
# Shear Modulus (GPa) = 19.24974 20.41414 19.83194
#
# Velocity S-wave (km/s) = 3.61210 3.71975 3.66632
# Velocity P-wave (km/s) = 7.09758 7.38518 7.24281
#
# Compressibility (1/GPa) = 0.02055206
#
# Stress axis : x y z
#
# Youngs Moduli (GPa) = 41.97037 42.71077 58.93313
#
# Poissons Ratio (x) = 0.34809 0.20559
# Poissons Ratio (y) = 0.34205 0.60050
# Poissons Ratio (z) = 0.14642 0.43520
#
# Static dielectric constant tensor:
#      x y z
#    x 1.483000 0.000000 0.000000 
#    y 0.000000 1.499450 0.000000 
#    z 0.000000 0.000000 1.492030 
# 
# From -- ./inp_files/28539.got.cif
#   From: 2010.05.17/outbox.cif.g08.bks.cpg/sg59_15_cif.got.tgz:28539.got - 2010.06.03 14:40:33.
