data_PCOD9449087
_publ_section_title
;
Structure prediction by ZEFSAII (Michael W. Deem and Ramdas Pophale) SiO2 
 PCOD9449087
Probable space group: P M M N
;
_chemical_formula_sum "Si O2"
_cell_formula_units_Z 56
_cell_length_a 15.449573
_cell_length_b 8.141998
_cell_length_c 22.534012
_cell_angle_alpha 90.000000
_cell_angle_beta 90.000000
_cell_angle_gamma 90.000000
_cell_volume 2834.562213
_symmetry_space_group_name_H-M "P M M N"
_symmetry_group_IT_number 59
_space_group.IT_coordinate_system_code '2'
_symmetry_cell_setting 'orthorhombic'
loop_
_space_group_symop_operation_xyz
x,y,z
1/2-x,1/2-y,z
1/2+x,-y,-z
-x,1/2+y,-z
-x,-y,-z
1/2+x,1/2+y,-z
1/2-x,y,z
x,1/2-y,z
loop_
_atom_site_type_symbol
_atom_site_label
_atom_site_fract_x
_atom_site_fract_y
_atom_site_fract_z
Si Si1 0.564122 0.448771 0.335811
Si Si2 0.750000 0.946252 0.384356
Si Si3 0.900508 0.444456 0.997867
Si Si4 0.344958 0.056505 0.876245
Si Si5 0.653725 0.551060 0.867184
Si Si6 0.994297 0.443634 0.207656
Si Si7 0.750000 0.549305 0.522040
Si Si8 0.057649 0.051525 0.443521
O O1 0.562483 0.250000 0.335303
O O2 0.661481 0.497966 0.353190
O O3 0.536357 0.511290 0.270866
O O4 0.494949 0.504920 0.385392
O O5 0.750000 0.750000 0.385324
O O6 0.750000 0.003335 0.453016
O O7 0.894760 0.250000 0.006042
O O8 0.854471 0.528445 0.053566
O O9 0.863527 0.491231 0.933907
O O10 0.000000 0.500000 0.000000
O O11 0.250000 0.000182 0.856964
O O12 0.353332 0.250000 0.864306
O O13 0.419422 0.965362 0.840810
O O14 0.750000 0.503960 0.848609
O O15 0.648453 0.750000 0.868901
O O16 0.580930 0.486991 0.822287
O O17 0.009593 0.250000 0.216853
O O18 0.750000 0.750000 0.523426
O O19 0.842037 0.495787 0.550335
O O20 0.060008 0.250000 0.442409
O O21 0.000000 0.000000 0.500000
#
# Coordination Sequence:
#
# PCOD9449087 Si02
#       8
#     8   4   8   8   8   8   4   8
#     4  10  22  38  57  85 118 154 196 240 287 342
#     4  11  21  35  59  87 117 153 192 233 290 353
#     4  12  23  37  60  88 117 150 190 238 296 349
#     4  11  24  40  59  86 117 150 190 236 288 345
#     4  10  21  39  62  86 114 150 194 243 293 349
#     4  10  22  40  59  82 115 156 194 236 288 342
#     4   9  18  33  55  85 115 149 188 235 288 343
#     4  10  19  35  57  82 115 149 189 237 286 336
#
# _framework density 19.756136999999999
#
# number of rings (size 3 to 8) (size 9 to 14) (size 15 to 20)
#    0.000    1.571    2.857    2.357    1.000    3.714 
#    1.286    0.357    0.000    0.000    0.000    0.000 
#    0.000    0.000    0.000    0.000    0.000    0.000 
#
# Total GULP energy -312797.270026 kJ/mol
# GULP energy per Si atom -5585.665536 kJ/mol
# Density = 1.971117 g / cm^3
# Si number density = 19.756137 Si / 1000 Ang^3
#
#
#
# Elastic Constant Matrix: (Units=GPa)
#
#
# Indices 1 2 3 4 5 6 
#
# 1 167.2963 1.6995 71.3866 0.0000 0.0000 0.0000
# 2 1.6995 12.6117 -0.5431 0.0000 0.0000 0.0000
# 3 71.3866 -0.5431 134.9573 0.0000 0.0000 0.0000
# 4 0.0000 0.0000 0.0000 20.8790 0.0000 0.0000
# 5 0.0000 0.0000 0.0000 0.0000 -13.1764 0.0000
# 6 0.0000 0.0000 0.0000 0.0000 0.0000 15.0703
#
#
#
# Elastic Compliance Matrix: (Units=1/GPa)
#
#
# Indices 1 2 3 4 5 6 
#
# 1 0.007739 -0.001219 -0.004098 0.000000 0.000000 0.000000
# 2 -0.001219 0.079497 0.000965 0.000000 0.000000 0.000000
# 3 -0.004098 0.000965 0.009581 0.000000 0.000000 0.000000
# 4 0.000000 0.000000 0.000000 0.047895 0.000000 0.000000
# 5 0.000000 0.000000 0.000000 0.000000 -0.075893 0.000000
# 6 0.000000 0.000000 0.000000 0.000000 0.000000 0.066356
#
#
# Mechanical properties :
#
#
# Convention : Reuss Voigt Hill
#
# Bulk Modulus (GPa) = 11.34921 51.10570 31.22745
# Shear Modulus (GPa) = 28.85988 20.70939 24.78464
#
# Velocity S-wave (km/s) = 3.82620 3.24118 3.54578
# Velocity P-wave (km/s) = 5.02761 6.31913 5.71000
#
# Compressibility (1/GPa) = 0.08811189
#
# Stress axis : x y z
#
# Youngs Moduli (GPa) = 129.22273 12.57905 104.36834
#
# Poissons Ratio (x) = 0.01534 0.42773
# Poissons Ratio (y) = 0.15756 -0.10070
# Poissons Ratio (z) = 0.52959 -0.01214
#
# Static dielectric constant tensor:
#      x y z
#    x 1.691370 0.000000 0.000000 
#    y 0.000000 1.948580 0.000000 
#    z 0.000000 0.000000 1.678220 
# 
# From -- ./inp_files/30466.got.cif
#   From: 2010.05.17/outbox.cif.g08.bks.cpg/sg59_16_cif.got.tgz:30466.got - 2010.06.03 14:40:33.
