data_PCOD9449052
_publ_section_title
;
Structure prediction by ZEFSAII (Michael W. Deem and Ramdas Pophale) SiO2 
 PCOD9449052
Probable space group: P M M N
;
_chemical_formula_sum "Si O2"
_cell_formula_units_Z 48
_cell_length_a 10.162984
_cell_length_b 8.146430
_cell_length_c 29.689294
_cell_angle_alpha 90.000000
_cell_angle_beta 90.000000
_cell_angle_gamma 90.000000
_cell_volume 2458.037150
_symmetry_space_group_name_H-M "P M M N"
_symmetry_group_IT_number 59
_space_group.IT_coordinate_system_code '2'
_symmetry_cell_setting 'orthorhombic'
loop_
_space_group_symop_operation_xyz
x,y,z
1/2-x,1/2-y,z
1/2+x,-y,-z
-x,1/2+y,-z
-x,-y,-z
1/2+x,1/2+y,-z
1/2-x,y,z
x,1/2-y,z
loop_
_atom_site_type_symbol
_atom_site_label
_atom_site_fract_x
_atom_site_fract_y
_atom_site_fract_z
Si Si1 0.901655 0.444633 0.460315
Si Si2 0.750000 0.946163 0.040635
Si Si3 0.600466 0.551632 0.717312
Si Si4 0.100452 0.944814 0.385067
Si Si5 0.399852 0.950849 0.794048
Si Si6 0.750000 0.548741 0.937302
Si Si7 0.519448 0.052110 0.106303
O O1 0.750000 0.510908 0.461977
O O2 0.890282 0.250000 0.464059
O O3 0.000000 0.500000 0.500000
O O4 0.982613 0.485188 0.415017
O O5 0.750000 0.750000 0.039187
O O6 0.625125 0.004382 0.068929
O O7 0.750000 0.006593 0.989183
O O8 0.750000 0.509251 0.730629
O O9 0.592444 0.750000 0.714322
O O10 0.577681 0.482607 0.667465
O O11 0.497928 0.494667 0.754836
O O12 0.250000 0.006857 0.396372
O O13 0.102440 0.750000 0.392244
O O14 0.250000 0.000586 0.785346
O O15 0.403098 0.750000 0.794455
O O16 0.442177 0.006779 0.843884
O O17 0.750000 0.750000 0.937850
O O18 0.621278 0.493888 0.910840
O O19 0.516711 0.250000 0.108704
#
# Coordination Sequence:
#
# PCOD9449052 Si02
#       7
#     8   4   8   8   8   4   8
#     4  11  24  40  60  88 120 155 196 241 286 332
#     4  11  21  35  51  75 109 141 175 219 270 327
#     4   9  18  32  53  80 108 139 176 225 281 331
#     4  10  21  38  59  84 116 153 192 232 276 332
#     4   9  17  30  51  78 102 129 173 225 273 323
#     4   9  20  33  53  81 105 133 177 227 270 321
#     4  10  19  35  56  78 103 138 179 222 271 326
#
# _framework density 19.527775999999999
#
# number of rings (size 3 to 8) (size 9 to 14) (size 15 to 20)
#    0.000    2.167    0.833    2.250    1.167    5.000 
#    0.000    3.750    0.000    0.000    0.000    0.000 
#    0.000    0.000    0.000    0.000    0.000    0.000 
#
# Total GULP energy -267917.259632 kJ/mol
# GULP energy per Si atom -5581.609576 kJ/mol
# Density = 1.948333 g / cm^3
# Si number density = 19.527776 Si / 1000 Ang^3
#
#
#
# Elastic Constant Matrix: (Units=GPa)
#
#
# Indices 1 2 3 4 5 6 
#
# 1 209.1752 23.1518 106.4643 0.0000 0.0000 0.0000
# 2 23.1518 17.4432 15.5310 0.0000 0.0000 0.0000
# 3 106.4643 15.5310 115.1081 0.0000 0.0000 0.0000
# 4 0.0000 0.0000 0.0000 24.5588 0.0000 0.0000
# 5 0.0000 0.0000 0.0000 0.0000 40.6877 0.0000
# 6 0.0000 0.0000 0.0000 0.0000 0.0000 20.2122
#
#
#
# Elastic Compliance Matrix: (Units=1/GPa)
#
#
# Indices 1 2 3 4 5 6 
#
# 1 0.009463 -0.005418 -0.008021 0.000000 0.000000 0.000000
# 2 -0.005418 0.068259 -0.004199 0.000000 0.000000 0.000000
# 3 -0.008021 -0.004199 0.016673 0.000000 0.000000 0.000000
# 4 0.000000 0.000000 0.000000 0.040719 0.000000 0.000000
# 5 0.000000 0.000000 0.000000 0.000000 0.024577 0.000000
# 6 0.000000 0.000000 0.000000 0.000000 0.000000 0.049475
#
#
# Mechanical properties :
#
#
# Convention : Reuss Voigt Hill
#
# Bulk Modulus (GPa) = 16.91518 70.22450 43.56984
# Shear Modulus (GPa) = 18.92878 30.19702 24.56290
#
# Velocity S-wave (km/s) = 3.11678 3.93665 3.55046
# Velocity P-wave (km/s) = 4.65116 7.53010 6.25842
#
# Compressibility (1/GPa) = 0.05911849
#
# Stress axis : x y z
#
# Youngs Moduli (GPa) = 105.67479 14.65019 59.97711
#
# Poissons Ratio (x) = 0.07937 0.48110
# Poissons Ratio (y) = 0.57253 0.25183
# Poissons Ratio (z) = 0.84766 0.06151
#
# Static dielectric constant tensor:
#      x y z
#    x 1.847640 0.000000 0.000000 
#    y 0.000000 1.695190 0.000000 
#    z 0.000000 0.000000 1.656240 
# 
# From -- ./inp_files/33081.got.cif
#   From: 2010.05.17/outbox.cif.g08.bks.cpg/sg59_17_cif.got.tgz:33081.got - 2010.06.03 14:40:33.
