data_PCOD9449844
_publ_section_title
;
Structure prediction by ZEFSAII (Michael W. Deem and Ramdas Pophale) SiO2 
 PCOD9449844
Probable space group: P M M N
;
_chemical_formula_sum "Si O2"
_cell_formula_units_Z 58
_cell_length_a 26.234931
_cell_length_b 9.623395
_cell_length_c 12.539839
_cell_angle_alpha 90.000000
_cell_angle_beta 90.000000
_cell_angle_gamma 90.000000
_cell_volume 3165.921914
_symmetry_space_group_name_H-M "P M M N"
_symmetry_group_IT_number 59
_space_group.IT_coordinate_system_code '2'
_symmetry_cell_setting 'orthorhombic'
loop_
_space_group_symop_operation_xyz
x,y,z
1/2-x,1/2-y,z
1/2+x,-y,-z
-x,1/2+y,-z
-x,-y,-z
1/2+x,1/2+y,-z
1/2-x,y,z
x,1/2-y,z
loop_
_atom_site_type_symbol
_atom_site_label
_atom_site_fract_x
_atom_site_fract_y
_atom_site_fract_z
Si Si1 0.942223 0.090901 0.744925
Si Si2 0.154886 0.099541 0.810518
Si Si3 0.403570 0.909641 0.498827
Si Si4 0.947965 0.588601 0.322603
Si Si5 0.809217 0.913345 0.566452
Si Si6 0.150959 0.086625 0.191398
Si Si7 0.310199 0.908718 0.996899
Si Si8 0.750000 0.750000 0.274663
O O1 0.934127 0.250000 0.783081
O O2 0.926252 0.088480 0.620283
O O3 0.001999 0.057024 0.746722
O O4 0.904960 0.981947 0.800233
O O5 0.149435 0.250000 0.869162
O O6 0.104161 0.076888 0.743313
O O7 0.204462 0.130334 0.737427
O O8 0.163689 0.980562 0.895894
O O9 0.395952 0.750000 0.530686
O O10 0.441612 0.988142 0.577534
O O11 0.350162 0.992633 0.493967
O O12 0.953253 0.750000 0.357560
O O13 0.750000 0.947512 0.546772
O O14 0.816187 0.750000 0.538206
O O15 0.821894 0.928276 0.692734
O O16 0.149045 0.250000 0.167856
O O17 0.179868 0.000994 0.101164
O O18 0.250000 0.909064 0.975929
O O19 0.326980 0.750000 0.013721
#
# Coordination Sequence:
#
# PCOD9449844 Si02
#       8
#     8   8   8   8   8   8   8   2
#     4   9  19  36  54  76 107 138 174 222 264 309
#     4   9  18  35  56  77 102 133 172 216 258 301
#     4  10  20  33  51  76 106 138 173 215 265 313
#     4  10  20  35  56  78 101 138 182 219 262 313
#     4   9  18  34  51  73 102 136 172 214 257 310
#     4  10  20  33  55  80 105 136 176 216 263 315
#     4  11  21  34  54  81 108 138 170 209 260 317
#     4   8  16  36  58  76 104 130 174 220 266 292
#
# _framework density 18.320098000000002
#
# number of rings (size 3 to 8) (size 9 to 14) (size 15 to 20)
#    0.414    1.931    0.690    2.069    0.000    3.862 
#    1.241    0.690    0.000    0.000    0.000    0.000 
#    0.000    0.000    0.000    0.000    0.000    0.000 
#
# Total GULP energy -322915.848147 kJ/mol
# GULP energy per Si atom -5567.514623 kJ/mol
# Density = 1.827840 g / cm^3
# Si number density = 18.320098 Si / 1000 Ang^3
#
#
#
# Elastic Constant Matrix: (Units=GPa)
#
#
# Indices 1 2 3 4 5 6 
#
# 1 66.2123 20.5321 0.0619 0.0000 0.0000 0.0000
# 2 20.5321 91.0866 22.3544 0.0000 0.0000 0.0000
# 3 0.0619 22.3544 12.6504 0.0000 0.0000 0.0000
# 4 0.0000 0.0000 0.0000 18.4252 0.0000 0.0000
# 5 0.0000 0.0000 0.0000 0.0000 14.5324 0.0000
# 6 0.0000 0.0000 0.0000 0.0000 0.0000 27.2433
#
#
#
# Elastic Compliance Matrix: (Units=1/GPa)
#
#
# Indices 1 2 3 4 5 6 
#
# 1 0.017204 -0.006811 0.011952 0.000000 0.000000 0.000000
# 2 -0.006811 0.022082 -0.038988 0.000000 0.000000 0.000000
# 3 0.011952 -0.038988 0.147885 0.000000 0.000000 0.000000
# 4 0.000000 0.000000 0.000000 0.054273 0.000000 0.000000
# 5 0.000000 0.000000 0.000000 0.000000 0.068812 0.000000
# 6 0.000000 0.000000 0.000000 0.000000 0.000000 0.036706
#
#
# Mechanical properties :
#
#
# Convention : Reuss Voigt Hill
#
# Bulk Modulus (GPa) = 8.36984 28.42734 18.39859
# Shear Modulus (GPa) = 11.00152 20.50694 15.75423
#
# Velocity S-wave (km/s) = 2.45320 3.34933 2.93566
# Velocity P-wave (km/s) = 3.55005 5.52341 4.64278
#
# Compressibility (1/GPa) = 0.11947653
#
# Stress axis : x y z
#
# Youngs Moduli (GPa) = 58.12654 45.28518 6.76200
#
# Poissons Ratio (x) = 0.30844 -0.08082
# Poissons Ratio (y) = 0.39591 0.26364
# Poissons Ratio (z) = -0.69471 1.76558
#
# Static dielectric constant tensor:
#      x y z
#    x 1.627880 0.000000 0.000000 
#    y 0.000000 1.629070 0.000000 
#    z 0.000000 0.000000 1.635870 
# 
# From -- ./inp_files/18912.got.cif
#   From: 2010.05.17/outbox.cif.g08.bks.cpg/sg59_10_cif.got.tgz:18912.got - 2010.06.03 14:40:33.
