data_PCOD9449743
_publ_section_title
;
Structure prediction by ZEFSAII (Michael W. Deem and Ramdas Pophale) SiO2 
 PCOD9449743
Probable space group: P M M N
;
_chemical_formula_sum "Si O2"
_cell_formula_units_Z 48
_cell_length_a 15.134514
_cell_length_b 9.445376
_cell_length_c 15.987957
_cell_angle_alpha 90.000000
_cell_angle_beta 90.000000
_cell_angle_gamma 90.000000
_cell_volume 2285.497244
_symmetry_space_group_name_H-M "P M M N"
_symmetry_group_IT_number 59
_space_group.IT_coordinate_system_code '2'
_symmetry_cell_setting 'orthorhombic'
loop_
_space_group_symop_operation_xyz
x,y,z
1/2-x,1/2-y,z
1/2+x,-y,-z
-x,1/2+y,-z
-x,-y,-z
1/2+x,1/2+y,-z
1/2-x,y,z
x,1/2-y,z
loop_
_atom_site_type_symbol
_atom_site_label
_atom_site_fract_x
_atom_site_fract_y
_atom_site_fract_z
Si Si1 0.858115 0.411426 0.936215
Si Si2 0.575355 0.583463 0.593551
Si Si3 0.643751 0.908864 0.780013
Si Si4 0.103922 0.084449 0.586674
Si Si5 0.641567 0.912108 0.098783
Si Si6 0.352583 0.592714 0.745781
O O1 0.750000 0.410885 0.936088
O O2 0.887141 0.250000 0.945802
O O3 0.887694 0.479641 0.848752
O O4 0.885093 0.506833 0.014760
O O5 0.545186 0.750000 0.588229
O O6 0.618212 0.564539 0.684023
O O7 0.497231 0.469504 0.587729
O O8 0.633646 0.564162 0.509668
O O9 0.750000 0.908979 0.783780
O O10 0.613559 0.750000 0.802602
O O11 0.113217 0.250000 0.607627
O O12 0.145262 0.987406 0.657773
O O13 0.750000 0.909612 0.099966
O O14 0.612339 0.750000 0.099776
O O15 0.609105 0.996670 0.180418
O O16 0.250000 0.609245 0.767839
O O17 0.392692 0.750000 0.740466
#
# Coordination Sequence:
#
# PCOD9449743 Si02
#       6
#     8   8   8   8   8   8
#     4   9  16  26  42  67  99 131 161 196 240 288
#     4   9  19  35  53  72  97 131 168 205 246 294
#     4   9  17  30  49  73  99 128 164 204 244 286
#     4  10  20  34  53  74  97 129 168 207 247 296
#     4   9  16  27  45  69  97 129 164 200 238 285
#     4  10  20  33  50  74 103 132 163 203 249 293
#
# _framework density 21.001994
#
# number of rings (size 3 to 8) (size 9 to 14) (size 15 to 20)
#    0.000    2.667    0.000    2.000    0.000    7.000 
#    0.000    1.667    0.000    3.000    0.000    0.000 
#    0.000    0.000    0.000    0.000    0.000    0.000 
#
# Total GULP energy -267760.442128 kJ/mol
# GULP energy per Si atom -5578.342544 kJ/mol
# Density = 2.095419 g / cm^3
# Si number density = 21.001994 Si / 1000 Ang^3
#
#
#
# Elastic Constant Matrix: (Units=GPa)
#
#
# Indices 1 2 3 4 5 6 
#
# 1 24.4518 7.6197 -0.6192 0.0000 0.0000 0.0000
# 2 7.6197 180.0012 113.3240 0.0000 0.0000 0.0000
# 3 -0.6192 113.3240 173.7068 0.0000 0.0000 0.0000
# 4 0.0000 0.0000 0.0000 30.1175 0.0000 0.0000
# 5 0.0000 0.0000 0.0000 0.0000 54.6050 0.0000
# 6 0.0000 0.0000 0.0000 0.0000 0.0000 46.1820
#
#
#
# Elastic Compliance Matrix: (Units=1/GPa)
#
#
# Indices 1 2 3 4 5 6 
#
# 1 0.041942 -0.003173 0.002219 0.000000 0.000000 0.000000
# 2 -0.003173 0.009668 -0.006318 0.000000 0.000000 0.000000
# 3 0.002219 -0.006318 0.009887 0.000000 0.000000 0.000000
# 4 0.000000 0.000000 0.000000 0.033203 0.000000 0.000000
# 5 0.000000 0.000000 0.000000 0.000000 0.018313 0.000000
# 6 0.000000 0.000000 0.000000 0.000000 0.000000 0.021653
#
#
# Mechanical properties :
#
#
# Convention : Reuss Voigt Hill
#
# Bulk Modulus (GPa) = 21.29806 68.75653 45.02730
# Shear Modulus (GPa) = 30.32864 43.36991 36.84927
#
# Velocity S-wave (km/s) = 3.80423 4.54920 4.19329
# Velocity P-wave (km/s) = 5.42764 7.77192 6.70306
#
# Compressibility (1/GPa) = 0.04695263
#
# Stress axis : x y z
#
# Youngs Moduli (GPa) = 23.84265 103.43700 101.14520
#
# Poissons Ratio (x) = 0.32817 -0.22447
# Poissons Ratio (y) = 0.07564 0.63908
# Poissons Ratio (z) = -0.05291 0.65356
#
# Static dielectric constant tensor:
#      x y z
#    x 1.815980 0.000000 0.000000 
#    y 0.000000 1.733360 0.000000 
#    z 0.000000 0.000000 1.748320 
# 
# From -- ./inp_files/20390.got.cif
#   From: 2010.05.17/outbox.cif.g08.bks.cpg/sg59_11_cif.got.tgz:20390.got - 2010.06.03 14:40:33.
