data_PCOD9449915
_publ_section_title
;
Structure prediction by ZEFSAII (Michael W. Deem and Ramdas Pophale) SiO2 
 PCOD9449915
Probable space group: P M M N
;
_chemical_formula_sum "Si O2"
_cell_formula_units_Z 64
_cell_length_a 30.258576
_cell_length_b 8.732991
_cell_length_c 14.906879
_cell_angle_alpha 90.000000
_cell_angle_beta 90.000000
_cell_angle_gamma 90.000000
_cell_volume 3939.111052
_symmetry_space_group_name_H-M "P M M N"
_symmetry_group_IT_number 59
_space_group.IT_coordinate_system_code '2'
_symmetry_cell_setting 'orthorhombic'
loop_
_space_group_symop_operation_xyz
x,y,z
1/2-x,1/2-y,z
1/2+x,-y,-z
-x,1/2+y,-z
-x,-y,-z
1/2+x,1/2+y,-z
1/2-x,y,z
x,1/2-y,z
loop_
_atom_site_type_symbol
_atom_site_label
_atom_site_fract_x
_atom_site_fract_y
_atom_site_fract_z
Si Si1 0.199891 0.567961 0.494959
Si Si2 0.799676 0.569590 0.308901
Si Si3 0.970890 0.930894 0.866541
Si Si4 0.608366 0.567481 0.544641
Si Si5 0.940118 0.433085 0.370807
Si Si6 0.887343 0.567325 0.204231
Si Si7 0.033981 0.567805 0.330283
Si Si8 0.933399 0.431279 0.040770
O O1 0.250000 0.521033 0.468753
O O2 0.196007 0.750000 0.483378
O O3 0.195321 0.526670 0.600373
O O4 0.159134 0.485378 0.447239
O O5 0.750000 0.546124 0.274038
O O6 0.804085 0.750000 0.333638
O O7 0.837926 0.535075 0.238653
O O8 0.965464 0.750000 0.850186
O O9 0.020014 0.955385 0.906883
O O10 0.965880 0.020783 0.774036
O O11 0.938371 0.989238 0.944521
O O12 0.605588 0.750000 0.545030
O O13 0.588880 0.504774 0.450456
O O14 0.577153 0.496809 0.620749
O O15 0.939264 0.250000 0.376735
O O16 0.919547 0.487723 0.276460
O O17 0.990282 0.492890 0.374096
O O18 0.894952 0.750000 0.206611
O O19 0.897214 0.503522 0.106043
O O20 0.031571 0.750000 0.340248
O O21 0.927238 0.250000 0.030022
#
# Coordination Sequence:
#
# PCOD9449915 Si02
#       8
#     8   8   8   8   8   8   8   8
#     4  10  20  34  53  77 104 134 172 218 265 310
#     4   9  18  32  50  73 103 138 175 214 258 310
#     4  10  20  35  53  75 103 134 171 214 257 305
#     4  12  24  38  54  75 104 141 181 218 261 313
#     4  12  23  36  51  73 106 142 180 218 257 307
#     4  11  20  31  51  77 105 140 177 214 259 312
#     4  12  24  38  55  75 104 140 179 220 263 311
#     4  10  20  33  52  75 103 136 171 213 257 305
#
# _framework density 16.247320999999999
#
# number of rings (size 3 to 8) (size 9 to 14) (size 15 to 20)
#    0.000    1.250    2.500    5.250    0.000    2.250 
#    0.000    0.000    0.000    0.000    0.000    0.875 
#    0.000    5.000    0.000    0.000    0.000    0.000 
#
# Total GULP energy -357581.646161 kJ/mol
# GULP energy per Si atom -5587.213221 kJ/mol
# Density = 1.621034 g / cm^3
# Si number density = 16.247321 Si / 1000 Ang^3
#
#
#
# Elastic Constant Matrix: (Units=GPa)
#
#
# Indices 1 2 3 4 5 6 
#
# 1 93.0083 40.1425 19.6271 0.0000 0.0000 0.0000
# 2 40.1425 83.6472 22.1220 0.0000 0.0000 0.0000
# 3 19.6271 22.1220 37.0720 0.0000 0.0000 0.0000
# 4 0.0000 0.0000 0.0000 27.5642 0.0000 0.0000
# 5 0.0000 0.0000 0.0000 0.0000 22.0998 0.0000
# 6 0.0000 0.0000 0.0000 0.0000 0.0000 22.8674
#
#
#
# Elastic Compliance Matrix: (Units=1/GPa)
#
#
# Indices 1 2 3 4 5 6 
#
# 1 0.014056 -0.005673 -0.004057 0.000000 0.000000 0.000000
# 2 -0.005673 0.016485 -0.006834 0.000000 0.000000 0.000000
# 3 -0.004057 -0.006834 0.033200 0.000000 0.000000 0.000000
# 4 0.000000 0.000000 0.000000 0.036279 0.000000 0.000000
# 5 0.000000 0.000000 0.000000 0.000000 0.045249 0.000000
# 6 0.000000 0.000000 0.000000 0.000000 0.000000 0.043730
#
#
# Mechanical properties :
#
#
# Convention : Reuss Voigt Hill
#
# Bulk Modulus (GPa) = 32.66382 41.94564 37.30473
# Shear Modulus (GPa) = 21.52108 23.29534 22.40821
#
# Velocity S-wave (km/s) = 3.64344 3.79066 3.71778
# Velocity P-wave (km/s) = 6.15202 6.71057 6.43736
#
# Compressibility (1/GPa) = 0.03061491
#
# Stress axis : x y z
#
# Youngs Moduli (GPa) = 71.14325 60.66273 30.12037
#
# Poissons Ratio (x) = 0.34412 0.12219
# Poissons Ratio (y) = 0.40358 0.20583
# Poissons Ratio (z) = 0.28861 0.41454
#
# Static dielectric constant tensor:
#      x y z
#    x 1.554820 0.000000 0.000000 
#    y 0.000000 1.542060 0.000000 
#    z 0.000000 0.000000 1.523680 
# 
# From -- ./inp_files/25118.got.cif
#   From: 2010.05.17/outbox.cif.g08.bks.cpg/sg59_13_cif.got.tgz:25118.got - 2010.06.03 14:40:33.
