data_PCOD9449654
_publ_section_title
;
Structure prediction by ZEFSAII (Michael W. Deem and Ramdas Pophale) SiO2 
 PCOD9449654
Probable space group: P M M N
;
_chemical_formula_sum "Si O2"
_cell_formula_units_Z 40
_cell_length_a 8.039087
_cell_length_b 14.078730
_cell_length_c 19.119634
_cell_angle_alpha 90.000000
_cell_angle_beta 90.000000
_cell_angle_gamma 90.000000
_cell_volume 2163.962763
_symmetry_space_group_name_H-M "P M M N"
_symmetry_group_IT_number 59
_space_group.IT_coordinate_system_code '2'
_symmetry_cell_setting 'orthorhombic'
loop_
_space_group_symop_operation_xyz
x,y,z
1/2-x,1/2-y,z
1/2+x,-y,-z
-x,1/2+y,-z
-x,-y,-z
1/2+x,1/2+y,-z
1/2-x,y,z
x,1/2-y,z
loop_
_atom_site_type_symbol
_atom_site_label
_atom_site_fract_x
_atom_site_fract_y
_atom_site_fract_z
Si Si1 0.049356 0.144255 0.536988
Si Si2 0.048695 0.952123 0.606340
Si Si3 0.949661 0.141853 0.250599
Si Si4 0.548945 0.642702 0.035621
Si Si5 0.051960 0.044407 0.107519
O O1 0.250000 0.145603 0.541232
O O2 0.987537 0.250000 0.553562
O O3 0.002169 0.114913 0.458128
O O4 0.989604 0.058327 0.586494
O O5 0.250000 0.954442 0.608155
O O6 0.987468 0.911695 0.680062
O O7 0.750000 0.147064 0.257186
O O8 0.013953 0.250000 0.246786
O O9 0.987400 0.085660 0.179885
O O10 0.750000 0.643477 0.034200
O O11 0.491169 0.750000 0.048477
O O12 0.495246 0.564331 0.091751
O O13 0.489618 0.604915 0.959648
O O14 0.250000 0.052316 0.108134
#
# Coordination Sequence:
#
# PCOD9449654 Si02
#       5
#     8   8   8   8   8
#     4   9  17  30  49  72  96 123 158 201 246 289
#     4   9  18  32  49  70  97 128 163 200 238 285
#     4  10  20  33  49  70  98 131 164 199 242 293
#     4   9  18  34  54  74  98 130 166 201 240 289
#     4  10  20  33  51  76 103 128 160 203 246 289
#
# _framework density 18.484607
#
# number of rings (size 3 to 8) (size 9 to 14) (size 15 to 20)
#    0.000    2.600    0.000    1.800    0.000    4.400 
#    0.000    1.000    0.000    3.600    0.000    0.000 
#    0.000    0.000    0.000    0.000    0.000    0.000 
#
# Total GULP energy -223119.890003 kJ/mol
# GULP energy per Si atom -5577.997250 kJ/mol
# Density = 1.844254 g / cm^3
# Si number density = 18.484607 Si / 1000 Ang^3
#
#
#
# Elastic Constant Matrix: (Units=GPa)
#
#
# Indices 1 2 3 4 5 6 
#
# 1 9.9347 9.7408 6.3436 0.0000 0.0000 0.0000
# 2 9.7408 184.8819 98.3672 0.0000 0.0000 0.0000
# 3 6.3436 98.3672 146.2622 0.0000 0.0000 0.0000
# 4 0.0000 0.0000 0.0000 14.2323 0.0000 0.0000
# 5 0.0000 0.0000 0.0000 0.0000 16.1888 0.0000
# 6 0.0000 0.0000 0.0000 0.0000 0.0000 17.4630
#
#
#
# Elastic Compliance Matrix: (Units=1/GPa)
#
#
# Indices 1 2 3 4 5 6 
#
# 1 0.106302 -0.004902 -0.001314 0.000000 0.000000 0.000000
# 2 -0.004902 0.008649 -0.005604 0.000000 0.000000 0.000000
# 3 -0.001314 -0.005604 0.010663 0.000000 0.000000 0.000000
# 4 0.000000 0.000000 0.000000 0.070262 0.000000 0.000000
# 5 0.000000 0.000000 0.000000 0.000000 0.061771 0.000000
# 6 0.000000 0.000000 0.000000 0.000000 0.000000 0.057264
#
#
# Mechanical properties :
#
#
# Convention : Reuss Voigt Hill
#
# Bulk Modulus (GPa) = 9.80634 63.33133 36.56884
# Shear Modulus (GPa) = 13.42129 24.68530 19.05329
#
# Velocity S-wave (km/s) = 2.69751 3.65835 3.21404
# Velocity P-wave (km/s) = 3.87540 7.22362 5.79653
#
# Compressibility (1/GPa) = 0.10197487
#
# Stress axis : x y z
#
# Youngs Moduli (GPa) = 9.40713 115.62330 93.78242
#
# Poissons Ratio (x) = 0.56674 0.12322
# Poissons Ratio (y) = 0.04611 0.52556
# Poissons Ratio (z) = 0.01236 0.64796
#
# Static dielectric constant tensor:
#      x y z
#    x 1.652180 0.000000 0.000000 
#    y 0.000000 1.652060 0.000000 
#    z 0.000000 0.000000 1.606490 
# 
# From -- ./inp_files/19853.got.cif
#   From: 2010.05.17/outbox.cif.g08.bks.cpg/sg59_10_cif.got.tgz:19853.got - 2010.06.03 14:40:33.
