data_PCOD9449123
_publ_section_title
;
Structure prediction by ZEFSAII (Michael W. Deem and Ramdas Pophale) SiO2 
 PCOD9449123
Probable space group: P M M N
;
_chemical_formula_sum "Si O2"
_cell_formula_units_Z 56
_cell_length_a 26.566219
_cell_length_b 20.684251
_cell_length_c 5.325327
_cell_angle_alpha 90.000000
_cell_angle_beta 90.000000
_cell_angle_gamma 90.000000
_cell_volume 2926.279658
_symmetry_space_group_name_H-M "P M M N"
_symmetry_group_IT_number 59
_space_group.IT_coordinate_system_code '2'
_symmetry_cell_setting 'orthorhombic'
loop_
_space_group_symop_operation_xyz
x,y,z
1/2-x,1/2-y,z
1/2+x,-y,-z
-x,1/2+y,-z
-x,-y,-z
1/2+x,1/2+y,-z
1/2-x,y,z
x,1/2-y,z
loop_
_atom_site_type_symbol
_atom_site_label
_atom_site_fract_x
_atom_site_fract_y
_atom_site_fract_z
Si Si1 0.192265 0.154611 0.571653
Si Si2 0.189799 0.825014 0.936870
Si Si3 0.528422 0.673142 0.936628
Si Si4 0.035970 0.672768 0.436191
Si Si5 0.308123 0.476889 0.318067
Si Si6 0.854910 0.113134 0.562022
Si Si7 0.641571 0.861542 0.926403
O O1 0.250000 0.176141 0.567011
O O2 0.161681 0.174078 0.323663
O O3 0.193344 0.076251 0.540498
O O4 0.164106 0.170442 0.825898
O O5 0.250000 0.830827 0.932715
O O6 0.175965 0.750000 0.899391
O O7 0.167139 0.865070 0.706064
O O8 0.169915 0.847870 0.206508
O O9 0.539552 0.750000 0.938005
O O10 0.496247 0.659793 0.686776
O O11 0.581709 0.637448 0.933624
O O12 0.496591 0.659282 0.187095
O O13 0.048653 0.750000 0.435012
O O14 0.086387 0.630781 0.436071
O O15 0.250000 0.493674 0.255469
O O16 0.339951 0.539158 0.387955
O O17 0.334568 0.433340 0.104320
#
# Coordination Sequence:
#
# PCOD9449123 Si02
#       7
#     8   8   8   8   8   8   8
#     4   9  18  33  56  80 114 150 181 218 273 339
#     4  11  23  37  54  80 113 148 189 241 291 334
#     4  10  21  39  62  84 108 146 194 239 287 341
#     4  10  21  38  58  81 110 146 192 242 287 330
#     4   9  21  36  57  85 116 152 189 225 275 343
#     4  12  23  37  59  83 113 152 194 232 280 340
#     4  10  19  35  59  83 113 148 189 233 284 334
#
# _framework density 19.136928000000001
#
# number of rings (size 3 to 8) (size 9 to 14) (size 15 to 20)
#    0.857    1.000    0.000    5.143    2.000    2.286 
#    0.000    1.429    0.000    4.714    0.000    0.000 
#    0.000    0.000    0.000    0.000    0.000    0.000 
#
# Total GULP energy -312461.975970 kJ/mol
# GULP energy per Si atom -5579.678142 kJ/mol
# Density = 1.909337 g / cm^3
# Si number density = 19.136928 Si / 1000 Ang^3
#
#
#
# Elastic Constant Matrix: (Units=GPa)
#
#
# Indices 1 2 3 4 5 6 
#
# 1 122.3714 39.9844 36.9294 0.0000 0.0000 0.0000
# 2 39.9844 59.6748 8.5080 0.0000 0.0000 0.0000
# 3 36.9294 8.5080 107.3931 0.0000 0.0000 0.0000
# 4 0.0000 0.0000 0.0000 231.5321 0.0000 0.0000
# 5 0.0000 0.0000 0.0000 0.0000 29.7116 0.0000
# 6 0.0000 0.0000 0.0000 0.0000 0.0000 -138.8873
#
#
#
# Elastic Compliance Matrix: (Units=1/GPa)
#
#
# Indices 1 2 3 4 5 6 
#
# 1 0.011575 -0.007270 -0.003404 0.000000 0.000000 0.000000
# 2 -0.007270 0.021515 0.000795 0.000000 0.000000 0.000000
# 3 -0.003404 0.000795 0.010419 0.000000 0.000000 0.000000
# 4 0.000000 0.000000 0.000000 0.004319 0.000000 0.000000
# 5 0.000000 0.000000 0.000000 0.000000 0.033657 0.000000
# 6 0.000000 0.000000 0.000000 0.000000 0.000000 -0.007200
#
#
# Mechanical properties :
#
#
# Convention : Reuss Voigt Hill
#
# Bulk Modulus (GPa) = 42.10273 51.14255 46.62264
# Shear Modulus (GPa) = 49.03891 38.07247 43.55569
#
# Velocity S-wave (km/s) = 5.06763 4.46519 4.77592
# Velocity P-wave (km/s) = 7.50265 7.30524 7.40460
#
# Compressibility (1/GPa) = 0.02375143
#
# Stress axis : x y z
#
# Youngs Moduli (GPa) = 86.39566 46.47851 95.97683
#
# Poissons Ratio (x) = 0.33790 0.32673
# Poissons Ratio (y) = 0.62811 -0.07635
# Poissons Ratio (z) = 0.29411 -0.03697
#
# Static dielectric constant tensor:
#      x y z
#    x 1.605540 0.000000 0.000000 
#    y 0.000000 1.561270 0.000000 
#    z 0.000000 0.000000 1.661910 
# 
# From -- ./inp_files/3522.got.cif
#   From: 2010.05.17/outbox.cif.g08.bks.cpg/sg59_2_cif.got.tgz:3522.got - 2010.06.03 14:40:33.
