data_PCOD9449581
_publ_section_title
;
Structure prediction by ZEFSAII (Michael W. Deem and Ramdas Pophale) SiO2 
 PCOD9449581
Probable space group: P M M N
;
_chemical_formula_sum "Si O2"
_cell_formula_units_Z 40
_cell_length_a 8.900537
_cell_length_b 27.913018
_cell_length_c 7.432675
_cell_angle_alpha 90.000000
_cell_angle_beta 90.000000
_cell_angle_gamma 90.000000
_cell_volume 1846.580091
_symmetry_space_group_name_H-M "P M M N"
_symmetry_group_IT_number 59
_space_group.IT_coordinate_system_code '2'
_symmetry_cell_setting 'orthorhombic'
loop_
_space_group_symop_operation_xyz
x,y,z
1/2-x,1/2-y,z
1/2+x,-y,-z
-x,1/2+y,-z
-x,-y,-z
1/2+x,1/2+y,-z
1/2-x,y,z
x,1/2-y,z
loop_
_atom_site_type_symbol
_atom_site_label
_atom_site_fract_x
_atom_site_fract_y
_atom_site_fract_z
Si Si1 0.573527 0.250000 0.511043
Si Si2 0.926075 0.250000 0.950925
Si Si3 0.431523 0.647190 0.465332
Si Si4 0.919910 0.949729 0.467074
Si Si5 0.567610 0.848061 0.062675
Si Si6 0.581452 0.549582 0.035248
O O1 0.750000 0.250000 0.466093
O O2 0.562836 0.250000 0.730732
O O3 0.514852 0.197973 0.450702
O O4 0.750000 0.250000 0.995848
O O5 0.005495 0.201455 0.016249
O O6 0.250000 0.646212 0.463432
O O7 0.494364 0.597132 0.538755
O O8 0.493836 0.649912 0.261228
O O9 0.750000 0.950524 0.535604
O O10 0.913331 0.945428 0.251020
O O11 0.000000 0.000000 0.500000
O O12 0.750000 0.847249 0.074712
O O13 0.521319 0.898598 0.971606
O O14 0.750000 0.544652 0.965456
O O15 0.500000 0.500000 0.000000
#
# Coordination Sequence:
#
# PCOD9449581 Si02
#       6
#     4   4   8   8   8   8
#     4   7  12  21  35  57  84 111 142 175 216 266
#     4   9  15  23  37  59  84 115 150 183 226 278
#     4   9  15  25  41  62  88 118 149 185 226 273
#     4  10  20  33  47  68  94 123 158 194 231 276
#     4   9  16  26  39  60  89 118 148 187 229 273
#     4   9  19  32  47  68  94 122 156 191 229 275
#
# _framework density 21.661667000000001
#
# number of rings (size 3 to 8) (size 9 to 14) (size 15 to 20)
#    0.000    3.000    0.000    4.500    0.000    4.800 
#    0.000    1.500    0.000    0.000    0.000    1.400 
#    0.000    8.000    0.000    0.000    0.000    0.000 
#
# Total GULP energy -222831.297576 kJ/mol
# GULP energy per Si atom -5570.782439 kJ/mol
# Density = 2.161236 g / cm^3
# Si number density = 21.661667 Si / 1000 Ang^3
#
#
#
# Elastic Constant Matrix: (Units=GPa)
#
#
# Indices 1 2 3 4 5 6 
#
# 1 103.7781 100.0409 4.5945 0.0000 0.0000 0.0000
# 2 100.0409 315.6205 9.0142 0.0000 0.0000 0.0000
# 3 4.5945 9.0142 61.3093 0.0000 0.0000 0.0000
# 4 0.0000 0.0000 0.0000 14.5971 0.0000 0.0000
# 5 0.0000 0.0000 0.0000 0.0000 3.5946 0.0000
# 6 0.0000 0.0000 0.0000 0.0000 0.0000 44.8087
#
#
#
# Elastic Compliance Matrix: (Units=1/GPa)
#
#
# Indices 1 2 3 4 5 6 
#
# 1 0.013885 -0.004390 -0.000395 0.000000 0.000000 0.000000
# 2 -0.004390 0.004570 -0.000343 0.000000 0.000000 0.000000
# 3 -0.000395 -0.000343 0.016391 0.000000 0.000000 0.000000
# 4 0.000000 0.000000 0.000000 0.068507 0.000000 0.000000
# 5 0.000000 0.000000 0.000000 0.000000 0.278196 0.000000
# 6 0.000000 0.000000 0.000000 0.000000 0.000000 0.022317
#
#
# Mechanical properties :
#
#
# Convention : Reuss Voigt Hill
#
# Bulk Modulus (GPa) = 40.66721 78.66746 59.66733
# Shear Modulus (GPa) = 11.83944 37.07064 24.45504
#
# Velocity S-wave (km/s) = 2.34040 4.14133 3.36364
# Velocity P-wave (km/s) = 5.11057 7.69823 6.53378
#
# Compressibility (1/GPa) = 0.02458984
#
# Stress axis : x y z
#
# Youngs Moduli (GPa) = 72.01914 218.83819 61.01001
#
# Poissons Ratio (x) = 0.96067 0.02411
# Poissons Ratio (y) = 0.31615 0.02092
# Poissons Ratio (z) = 0.02846 0.07504
#
# Static dielectric constant tensor:
#      x y z
#    x 1.746380 0.000000 0.000000 
#    y 0.000000 1.882540 0.000000 
#    z 0.000000 0.000000 1.911480 
# 
# From -- ./inp_files/5878.got.cif
#   From: 2010.05.17/outbox.cif.g08.bks.cpg/sg59_3_cif.got.tgz:5878.got - 2010.06.03 14:40:33.
