data_PCOD9449876
_publ_section_title
;
Structure prediction by ZEFSAII (Michael W. Deem and Ramdas Pophale) SiO2 
 PCOD9449876
Probable space group: P M M N
;
_chemical_formula_sum "Si O2"
_cell_formula_units_Z 64
_cell_length_a 19.076221
_cell_length_b 7.999844
_cell_length_c 21.131982
_cell_angle_alpha 90.000000
_cell_angle_beta 90.000000
_cell_angle_gamma 90.000000
_cell_volume 3224.883984
_symmetry_space_group_name_H-M "P M M N"
_symmetry_group_IT_number 59
_space_group.IT_coordinate_system_code '2'
_symmetry_cell_setting 'orthorhombic'
loop_
_space_group_symop_operation_xyz
x,y,z
1/2-x,1/2-y,z
1/2+x,-y,-z
-x,1/2+y,-z
-x,-y,-z
1/2+x,1/2+y,-z
1/2-x,y,z
x,1/2-y,z
loop_
_atom_site_type_symbol
_atom_site_label
_atom_site_fract_x
_atom_site_fract_y
_atom_site_fract_z
Si Si1 0.330161 0.449227 0.236371
Si Si2 0.080640 0.951861 0.498114
Si Si3 0.829502 0.050130 0.998266
Si Si4 0.168983 0.547836 0.760043
Si Si5 0.830721 0.453909 0.382405
Si Si6 0.669530 0.451892 0.621723
Si Si7 0.077590 0.950306 0.118128
Si Si8 0.418285 0.051658 0.880948
O O1 0.250000 0.513522 0.226909
O O2 0.328201 0.250000 0.230942
O O3 0.351739 0.494182 0.307874
O O4 0.382664 0.515486 0.183573
O O5 0.085639 0.750000 0.498038
O O6 0.120197 0.013126 0.561120
O O7 0.119706 0.012019 0.434617
O O8 0.000000 0.000000 0.500000
O O9 0.750000 0.983196 0.999387
O O10 0.824442 0.250000 0.989857
O O11 0.870101 0.019705 0.063388
O O12 0.875406 0.982880 0.939788
O O13 0.250000 0.496776 0.771912
O O14 0.167847 0.750000 0.761366
O O15 0.149602 0.493405 0.688750
O O16 0.117654 0.484211 0.813819
O O17 0.750000 0.502449 0.393806
O O18 0.832146 0.250000 0.382424
O O19 0.750000 0.508212 0.611467
O O20 0.669738 0.250000 0.620498
O O21 0.073104 0.750000 0.110885
O O22 0.997924 0.015400 0.116832
O O23 0.420835 0.250000 0.890257
#
# Coordination Sequence:
#
# PCOD9449876 Si02
#       8
#     8   8   8   8   8   8   8   8
#     4  10  21  36  56  83 110 137 175 223 270 314
#     4  10  20  33  51  77 107 137 172 216 266 317
#     4  10  21  38  60  81 102 136 181 222 261 311
#     4   9  18  34  56  79 103 136 178 219 261 313
#     4   8  15  31  55  77  96 127 176 223 254 293
#     4   9  18  34  56  78 103 141 184 221 260 314
#     4  10  22  39  57  79 109 145 180 213 257 315
#     4  11  23  36  53  80 112 142 173 214 263 313
#
# _framework density 19.845673999999999
#
# number of rings (size 3 to 8) (size 9 to 14) (size 15 to 20)
#    0.000    2.375    0.000    3.000    0.000    7.750 
#    0.000    3.125    0.000    1.875    0.000    0.000 
#    0.000    0.000    0.000    0.000    0.000    0.000 
#
# Total GULP energy -357330.066489 kJ/mol
# GULP energy per Si atom -5583.282289 kJ/mol
# Density = 1.980050 g / cm^3
# Si number density = 19.845674 Si / 1000 Ang^3
#
#
#
# Elastic Constant Matrix: (Units=GPa)
#
#
# Indices 1 2 3 4 5 6 
#
# 1 160.6679 4.8742 119.2627 0.0000 0.0000 0.0000
# 2 4.8742 11.3454 -4.2975 0.0000 0.0000 0.0000
# 3 119.2627 -4.2975 158.7590 0.0000 0.0000 0.0000
# 4 0.0000 0.0000 0.0000 -12.1556 0.0000 0.0000
# 5 0.0000 0.0000 0.0000 0.0000 -35.1616 0.0000
# 6 0.0000 0.0000 0.0000 0.0000 0.0000 22.0755
#
#
#
# Elastic Compliance Matrix: (Units=1/GPa)
#
#
# Indices 1 2 3 4 5 6 
#
# 1 0.015331 -0.011062 -0.011816 0.000000 0.000000 0.000000
# 2 -0.011062 0.097037 0.010937 0.000000 0.000000 0.000000
# 3 -0.011816 0.010937 0.015471 0.000000 0.000000 0.000000
# 4 0.000000 0.000000 0.000000 -0.082267 0.000000 0.000000
# 5 0.000000 0.000000 0.000000 0.000000 -0.028440 0.000000
# 6 0.000000 0.000000 0.000000 0.000000 0.000000 0.045299
#
#
# Mechanical properties :
#
#
# Convention : Reuss Voigt Hill
#
# Bulk Modulus (GPa) = 9.61947 63.38345 36.50146
# Shear Modulus (GPa) = 41.33404 9.01387 25.17395
#
# Velocity S-wave (km/s) = 4.56869 2.13350 3.56544
# Velocity P-wave (km/s) = 5.71736 6.17063 5.94831
#
# Compressibility (1/GPa) = 0.10395583
#
# Stress axis : x y z
#
# Youngs Moduli (GPa) = 65.22896 10.30538 64.63554
#
# Poissons Ratio (x) = 0.11400 0.76374
# Poissons Ratio (y) = 0.72157 -0.70691
# Poissons Ratio (z) = 0.77075 -0.11271
#
# Static dielectric constant tensor:
#      x y z
#    x 1.684310 0.000000 0.000000 
#    y 0.000000 1.720330 0.000000 
#    z 0.000000 0.000000 1.673540 
# 
# From -- ./inp_files/30777.got.cif
#   From: 2010.05.17/outbox.cif.g08.bks.cpg/sg59_16_cif.got.tgz:30777.got - 2010.06.03 14:40:33.
