data_PCOD9449293
_publ_section_title
;
Structure prediction by ZEFSAII (Michael W. Deem and Ramdas Pophale) SiO2 
 PCOD9449293
Probable space group: P M M N
;
_chemical_formula_sum "Si O2"
_cell_formula_units_Z 64
_cell_length_a 19.279691
_cell_length_b 9.499441
_cell_length_c 19.290601
_cell_angle_alpha 90.000000
_cell_angle_beta 90.000000
_cell_angle_gamma 90.000000
_cell_volume 3533.001950
_symmetry_space_group_name_H-M "P M M N"
_symmetry_group_IT_number 59
_space_group.IT_coordinate_system_code '2'
_symmetry_cell_setting 'orthorhombic'
loop_
_space_group_symop_operation_xyz
x,y,z
1/2-x,1/2-y,z
1/2+x,-y,-z
-x,1/2+y,-z
-x,-y,-z
1/2+x,1/2+y,-z
1/2-x,y,z
x,1/2-y,z
loop_
_atom_site_type_symbol
_atom_site_label
_atom_site_fract_x
_atom_site_fract_y
_atom_site_fract_z
Si Si1 0.830445 0.403568 0.360436
Si Si2 0.169690 0.087634 0.512902
Si Si3 0.965416 0.583644 0.564454
Si Si4 0.428925 0.920430 0.145616
Si Si5 0.021927 0.909533 0.295968
Si Si6 0.866095 0.908609 0.236408
Si Si7 0.581265 0.920499 0.091588
Si Si8 0.832011 0.919896 0.955763
O O1 0.750000 0.388506 0.378650
O O2 0.863193 0.250000 0.355058
O O3 0.858761 0.495068 0.423555
O O4 0.831571 0.485198 0.288708
O O5 0.250000 0.055297 0.496302
O O6 0.167569 0.250000 0.536647
O O7 0.117321 0.072833 0.449762
O O8 0.983694 0.750000 0.562346
O O9 0.979118 0.512093 0.638510
O O10 0.000000 0.500000 0.500000
O O11 0.423831 0.750000 0.139345
O O12 0.434183 0.952436 0.227881
O O13 0.501819 0.964948 0.107646
O O14 0.365850 0.999343 0.108874
O O15 0.041833 0.750000 0.317594
O O16 0.944700 0.900785 0.264575
O O17 0.836932 0.750000 0.238958
O O18 0.871853 0.959805 0.157797
O O19 0.579039 0.750000 0.092174
O O20 0.620094 0.963308 0.021632
O O21 0.750000 0.950776 0.965474
O O22 0.838146 0.750000 0.948047
#
# Coordination Sequence:
#
# PCOD9449293 Si02
#       8
#     8   8   8   8   8   8   8   8
#     4  10  20  31  44  67  99 131 163 202 248 297
#     4   9  19  36  53  68  91 128 172 209 243 293
#     4  11  22  34  53  80 107 135 167 209 259 306
#     4   9  18  35  57  76  99 135 175 213 253 303
#     4   9  19  35  53  75 102 129 164 211 256 301
#     4   9  17  31  51  72  95 128 168 205 243 294
#     4   8  16  32  53  76 101 132 172 213 252 298
#     4  10  20  33  51  78 109 136 167 213 262 305
#
# _framework density 18.114906999999999
#
# number of rings (size 3 to 8) (size 9 to 14) (size 15 to 20)
#    0.000    2.625    0.000    3.375    0.000    6.500 
#    0.000    4.375    0.000    2.250    0.000    0.000 
#    0.000    0.000    0.000    0.000    0.000    0.000 
#
# Total GULP energy -356492.320871 kJ/mol
# GULP energy per Si atom -5570.192514 kJ/mol
# Density = 1.807368 g / cm^3
# Si number density = 18.114907 Si / 1000 Ang^3
#
#
#
# Elastic Constant Matrix: (Units=GPa)
#
#
# Indices 1 2 3 4 5 6 
#
# 1 61.3132 27.4738 37.1602 0.0000 0.0000 0.0000
# 2 27.4738 58.9626 54.5720 0.0000 0.0000 0.0000
# 3 37.1602 54.5720 120.2378 0.0000 0.0000 0.0000
# 4 0.0000 0.0000 0.0000 12.6341 0.0000 0.0000
# 5 0.0000 0.0000 0.0000 0.0000 26.4487 0.0000
# 6 0.0000 0.0000 0.0000 0.0000 0.0000 19.5294
#
#
#
# Elastic Compliance Matrix: (Units=1/GPa)
#
#
# Indices 1 2 3 4 5 6 
#
# 1 0.021488 -0.006666 -0.003615 0.000000 0.000000 0.000000
# 2 -0.006666 0.031313 -0.012152 0.000000 0.000000 0.000000
# 3 -0.003615 -0.012152 0.014949 0.000000 0.000000 0.000000
# 4 0.000000 0.000000 0.000000 0.079151 0.000000 0.000000
# 5 0.000000 0.000000 0.000000 0.000000 0.037809 0.000000
# 6 0.000000 0.000000 0.000000 0.000000 0.000000 0.051205
#
#
# Mechanical properties :
#
#
# Convention : Reuss Voigt Hill
#
# Bulk Modulus (GPa) = 43.69916 53.21397 48.45657
# Shear Modulus (GPa) = 17.33649 19.80962 18.57306
#
# Velocity S-wave (km/s) = 3.09694 3.31048 3.20549
# Velocity P-wave (km/s) = 6.07978 6.63716 6.36458
#
# Compressibility (1/GPa) = 0.02288373
#
# Stress axis : x y z
#
# Youngs Moduli (GPa) = 46.53771 31.93587 66.89213
#
# Poissons Ratio (x) = 0.21289 0.24184
# Poissons Ratio (y) = 0.31023 0.81285
# Poissons Ratio (z) = 0.16825 0.38807
#
# Static dielectric constant tensor:
#      x y z
#    x 1.667010 0.000000 0.000000 
#    y 0.000000 1.645380 0.000000 
#    z 0.000000 0.000000 1.613850 
# 
# From -- ./inp_files/28236.got.cif
#   From: 2010.05.17/outbox.cif.g08.bks.cpg/sg59_15_cif.got.tgz:28236.got - 2010.06.03 14:40:33.
