data_PCOD9449638
_publ_section_title
;
Structure prediction by ZEFSAII (Michael W. Deem and Ramdas Pophale) SiO2 
 PCOD9449638
Probable space group: P M M N
;
_chemical_formula_sum "Si O2"
_cell_formula_units_Z 48
_cell_length_a 18.921154
_cell_length_b 8.908758
_cell_length_c 16.765238
_cell_angle_alpha 90.000000
_cell_angle_beta 90.000000
_cell_angle_gamma 90.000000
_cell_volume 2826.015278
_symmetry_space_group_name_H-M "P M M N"
_symmetry_group_IT_number 59
_space_group.IT_coordinate_system_code '2'
_symmetry_cell_setting 'orthorhombic'
loop_
_space_group_symop_operation_xyz
x,y,z
1/2-x,1/2-y,z
1/2+x,-y,-z
-x,1/2+y,-z
-x,-y,-z
1/2+x,1/2+y,-z
1/2-x,y,z
x,1/2-y,z
loop_
_atom_site_type_symbol
_atom_site_label
_atom_site_fract_x
_atom_site_fract_y
_atom_site_fract_z
Si Si1 0.669936 0.569085 0.831319
Si Si2 0.834513 0.573071 0.520703
Si Si3 0.899234 0.428920 0.676818
Si Si4 0.036445 0.930645 0.751285
Si Si5 0.971722 0.929983 0.919066
Si Si6 0.831042 0.069592 0.350719
O O1 0.750000 0.531419 0.855354
O O2 0.665478 0.750000 0.821368
O O3 0.650725 0.494698 0.746821
O O4 0.608183 0.525449 0.893343
O O5 0.750000 0.552840 0.531406
O O6 0.849895 0.750000 0.523523
O O7 0.873929 0.489580 0.591850
O O8 0.852188 0.506697 0.433999
O O9 0.897700 0.250000 0.678588
O O10 0.976852 0.490276 0.698205
O O11 0.026880 0.750000 0.744895
O O12 0.113497 0.969189 0.718181
O O13 0.020349 0.971197 0.842902
O O14 0.972650 0.750000 0.926762
O O15 0.000000 0.000000 0.000000
O O16 0.750000 0.026546 0.332521
O O17 0.832792 0.250000 0.361352
#
# Coordination Sequence:
#
# PCOD9449638 Si02
#       6
#     8   8   8   8   8   8
#     4   9  18  34  54  74 100 134 168 203 249 303
#     4  10  20  33  49  70 100 137 170 201 245 298
#     4  11  21  31  48  75 103 131 167 209 248 290
#     4   9  19  36  54  72  98 132 166 201 250 306
#     4   9  18  33  53  76 101 130 162 197 242 296
#     4   9  18  34  55  75  95 124 167 215 252 284
#
# _framework density 16.985046000000001
#
# number of rings (size 3 to 8) (size 9 to 14) (size 15 to 20)
#    0.000    2.500    0.000    3.500    0.000    7.333 
#    0.000    0.833    0.000    1.000    0.000    0.000 
#    0.000    0.000    0.000    0.000    0.000    0.000 
#
# Total GULP energy -267738.275380 kJ/mol
# GULP energy per Si atom -5577.880737 kJ/mol
# Density = 1.694639 g / cm^3
# Si number density = 16.985046 Si / 1000 Ang^3
#
#
#
# Elastic Constant Matrix: (Units=GPa)
#
#
# Indices 1 2 3 4 5 6 
#
# 1 122.2888 43.7689 101.3720 0.0000 0.0000 0.0000
# 2 43.7689 34.2218 46.0398 0.0000 0.0000 0.0000
# 3 101.3720 46.0398 134.4556 0.0000 0.0000 0.0000
# 4 0.0000 0.0000 0.0000 30.8754 0.0000 0.0000
# 5 0.0000 0.0000 0.0000 0.0000 20.5911 0.0000
# 6 0.0000 0.0000 0.0000 0.0000 0.0000 16.2211
#
#
#
# Elastic Compliance Matrix: (Units=1/GPa)
#
#
# Indices 1 2 3 4 5 6 
#
# 1 0.024146 -0.011849 -0.014147 0.000000 0.000000 0.000000
# 2 -0.011849 0.059995 -0.011609 0.000000 0.000000 0.000000
# 3 -0.014147 -0.011609 0.022079 0.000000 0.000000 0.000000
# 4 0.000000 0.000000 0.000000 0.032388 0.000000 0.000000
# 5 0.000000 0.000000 0.000000 0.000000 0.048565 0.000000
# 6 0.000000 0.000000 0.000000 0.000000 0.000000 0.061648
#
#
# Mechanical properties :
#
#
# Convention : Reuss Voigt Hill
#
# Bulk Modulus (GPa) = 32.25029 74.81419 53.53224
# Shear Modulus (GPa) = 14.95360 20.18990 17.57175
#
# Velocity S-wave (km/s) = 2.97037 3.45147 3.21992
# Velocity P-wave (km/s) = 5.54913 7.74766 6.73866
#
# Compressibility (1/GPa) = 0.03100747
#
# Stress axis : x y z
#
# Youngs Moduli (GPa) = 41.41515 16.66818 45.29219
#
# Poissons Ratio (x) = 0.19750 0.64076
# Poissons Ratio (y) = 0.49074 0.52582
# Poissons Ratio (z) = 0.58591 0.19351
#
# Static dielectric constant tensor:
#      x y z
#    x 1.587840 0.000000 0.000000 
#    y 0.000000 1.566360 0.000000 
#    z 0.000000 0.000000 1.538440 
# 
# From -- ./inp_files/20391.got.cif
#   From: 2010.05.17/outbox.cif.g08.bks.cpg/sg59_11_cif.got.tgz:20391.got - 2010.06.03 14:40:33.
