data_PCOD9450687
_publ_section_title
;
Structure prediction by ZEFSAII (Michael W. Deem and Ramdas Pophale) SiO2 
 PCOD9450687
Probable space group: P M M N
;
_chemical_formula_sum "Si O2"
_cell_formula_units_Z 56
_cell_length_a 7.564971
_cell_length_b 15.638821
_cell_length_c 22.430778
_cell_angle_alpha 90.000000
_cell_angle_beta 90.000000
_cell_angle_gamma 90.000000
_cell_volume 2653.723152
_symmetry_space_group_name_H-M "P M M N"
_symmetry_group_IT_number 59
_space_group.IT_coordinate_system_code '2'
_symmetry_cell_setting 'orthorhombic'
loop_
_space_group_symop_operation_xyz
x,y,z
1/2-x,1/2-y,z
1/2+x,-y,-z
-x,1/2+y,-z
-x,-y,-z
1/2+x,1/2+y,-z
1/2-x,y,z
x,1/2-y,z
loop_
_atom_site_type_symbol
_atom_site_label
_atom_site_fract_x
_atom_site_fract_y
_atom_site_fract_z
Si Si1 0.463798 0.491213 0.707273
Si Si2 0.039927 0.563886 0.158886
Si Si3 0.533667 0.345078 0.362316
Si Si4 0.957516 0.658576 0.376655
Si Si5 0.959623 0.250000 0.878179
Si Si6 0.037805 0.061352 0.056356
Si Si7 0.964070 0.750000 0.981115
Si Si8 0.459898 0.899946 0.506454
O O1 0.250000 0.493006 0.704629
O O2 0.513822 0.465234 0.773579
O O3 0.525626 0.582997 0.683804
O O4 0.530840 0.420681 0.660170
O O5 0.250000 0.568997 0.147023
O O6 0.968109 0.659796 0.146937
O O7 0.969628 0.491637 0.113491
O O8 0.750000 0.346811 0.363571
O O9 0.478132 0.250000 0.346167
O O10 0.474686 0.367107 0.429682
O O11 0.750000 0.661264 0.362004
O O12 0.037177 0.750000 0.360425
O O13 0.969879 0.644807 0.447312
O O14 0.750000 0.250000 0.864894
O O15 0.985374 0.250000 0.949270
O O16 0.250000 0.068666 0.061556
O O17 0.973025 0.159104 0.046630
O O18 0.000000 0.000000 0.000000
O O19 0.750000 0.750000 0.977786
O O20 0.250000 0.887348 0.506026
O O21 0.500000 0.000000 0.500000
#
# Coordination Sequence:
#
# PCOD9450687 Si02
#       8
#     8   8   8   8   4   8   4   8
#     4  10  21  38  57  78 107 146 187 226 273 328
#     4  10  22  38  55  80 114 148 182 225 276 326
#     4   9  18  35  58  79 103 138 183 232 278 327
#     4  10  21  37  55  80 113 144 179 229 282 331
#     4  10  20  36  58  84 114 146 179 224 277 328
#     4  10  20  36  58  83 114 146 180 226 276 325
#     4  10  20  34  58  90 114 142 185 228 273 330
#     4  11  20  34  57  83 112 144 182 229 286 341
#
# _framework density 21.102426999999999
#
# number of rings (size 3 to 8) (size 9 to 14) (size 15 to 20)
#    0.000    2.000    2.857    0.857    1.000    2.571 
#    1.286    0.000    0.000    1.714    0.000    0.000 
#    0.000    0.000    0.000    0.000    0.000    0.000 
#
# Total GULP energy -312704.014844 kJ/mol
# GULP energy per Si atom -5584.000265 kJ/mol
# Density = 2.105440 g / cm^3
# Si number density = 21.102427 Si / 1000 Ang^3
#
#
#
# Elastic Constant Matrix: (Units=GPa)
#
#
# Indices 1 2 3 4 5 6 
#
# 1 42.2341 2.5126 -10.8511 0.0000 0.0000 0.0000
# 2 2.5126 247.4199 105.6839 0.0000 0.0000 0.0000
# 3 -10.8511 105.6839 142.1222 0.0000 0.0000 0.0000
# 4 0.0000 0.0000 0.0000 -3.1151 0.0000 0.0000
# 5 0.0000 0.0000 0.0000 0.0000 25.1787 0.0000
# 6 0.0000 0.0000 0.0000 0.0000 0.0000 -3.9896
#
#
#
# Elastic Compliance Matrix: (Units=1/GPa)
#
#
# Indices 1 2 3 4 5 6 
#
# 1 0.024544 -0.001538 0.003018 0.000000 0.000000 0.000000
# 2 -0.001538 0.006019 -0.004594 0.000000 0.000000 0.000000
# 3 0.003018 -0.004594 0.010682 0.000000 0.000000 0.000000
# 4 0.000000 0.000000 0.000000 -0.321014 0.000000 0.000000
# 5 0.000000 0.000000 0.000000 0.000000 0.039716 0.000000
# 6 0.000000 0.000000 0.000000 0.000000 0.000000 -0.250653
#
#
# Mechanical properties :
#
#
# Convention : Reuss Voigt Hill
#
# Bulk Modulus (GPa) = 28.55648 69.60745 49.08197
# Shear Modulus (GPa) = -10.57522 25.91019 7.66749
#
# Velocity S-wave (km/s) = -2.24104 3.50784 1.90823
# Velocity P-wave (km/s) = 2.62018 7.03305 5.30703
#
# Compressibility (1/GPa) = 0.03501832
#
# Stress axis : x y z
#
# Youngs Moduli (GPa) = 40.74241 166.12788 93.61130
#
# Poissons Ratio (x) = 0.25556 -0.28251
# Poissons Ratio (y) = 0.06268 0.43001
# Poissons Ratio (z) = -0.12296 0.76312
#
# Static dielectric constant tensor:
#      x y z
#    x 1.792630 0.000000 0.000000 
#    y 0.000000 1.785210 0.000000 
#    z 0.000000 0.000000 1.705650 
# 
# From -- ./inp_files/29230.got.cif
#   From: 2010.05.17/outbox.cif.g08.bks.cpg/sg59_15_cif.got.tgz:29230.got - 2010.06.03 14:40:33.
