data_PCOD9450846
_publ_section_title
;
Structure prediction by ZEFSAII (Michael W. Deem and Ramdas Pophale) SiO2 
 PCOD9450846
Probable space group: P M M N
;
_chemical_formula_sum "Si O2"
_cell_formula_units_Z 64
_cell_length_a 21.682385
_cell_length_b 7.570829
_cell_length_c 17.114421
_cell_angle_alpha 90.000000
_cell_angle_beta 90.000000
_cell_angle_gamma 90.000000
_cell_volume 2809.394318
_symmetry_space_group_name_H-M "P M M N"
_symmetry_group_IT_number 59
_space_group.IT_coordinate_system_code '2'
_symmetry_cell_setting 'orthorhombic'
loop_
_space_group_symop_operation_xyz
x,y,z
1/2-x,1/2-y,z
1/2+x,-y,-z
-x,1/2+y,-z
-x,-y,-z
1/2+x,1/2+y,-z
1/2-x,y,z
x,1/2-y,z
loop_
_atom_site_type_symbol
_atom_site_label
_atom_site_fract_x
_atom_site_fract_y
_atom_site_fract_z
Si Si1 0.817566 0.460644 0.681604
Si Si2 0.906747 0.962014 0.807118
Si Si3 0.993446 0.460964 0.318525
Si Si4 0.083642 0.962355 0.445286
Si Si5 0.680853 0.958561 0.093966
Si Si6 0.858152 0.036213 0.269560
Si Si7 0.928567 0.962500 0.981726
Si Si8 0.816614 0.034427 0.435208
O O1 0.750000 0.533306 0.668195
O O2 0.815585 0.250000 0.669138
O O3 0.841463 0.495381 0.768435
O O4 0.868766 0.527869 0.621811
O O5 0.913427 0.750000 0.809314
O O6 0.957428 0.030931 0.745126
O O7 0.914946 0.029051 0.894347
O O8 0.991219 0.250000 0.311319
O O9 0.926889 0.526095 0.291930
O O10 0.017551 0.491424 0.407221
O O11 0.082511 0.750000 0.449437
O O12 0.120467 0.024587 0.522059
O O13 0.750000 0.031908 0.078934
O O14 0.684140 0.750000 0.076791
O O15 0.623114 0.029547 0.042979
O O16 0.665074 0.976806 0.185554
O O17 0.858224 0.250000 0.266938
O O18 0.818709 0.983445 0.344761
O O19 0.923364 0.750000 0.981222
O O20 0.000000 0.000000 0.000000
O O21 0.750000 0.980380 0.469814
O O22 0.817647 0.250000 0.439138
#
# Coordination Sequence:
#
# PCOD9450846 Si02
#       8
#     8   8   8   8   8   8   8   8
#     4   9  17  29  46  69  97 128 162 202 247 295
#     4   9  18  32  49  70  97 130 165 200 245 303
#     4   9  18  32  49  73 105 134 165 211 260 305
#     4   9  17  30  49  72  99 133 170 207 253 310
#     4  10  22  39  57  80 112 146 180 223 275 325
#     4  10  20  35  56  78 101 135 179 222 263 311
#     4  10  21  37  58  82 107 138 176 217 262 314
#     4   9  17  30  50  75 100 129 171 219 260 304
#
# _framework density 22.780712000000001
#
# number of rings (size 3 to 8) (size 9 to 14) (size 15 to 20)
#    0.000    2.625    0.000    1.500    0.000    6.000 
#    0.000    4.375    0.000    1.875    0.000    0.000 
#    0.000    0.000    0.000    0.000    0.000    0.000 
#
# Total GULP energy -357052.154144 kJ/mol
# GULP energy per Si atom -5578.939909 kJ/mol
# Density = 2.272886 g / cm^3
# Si number density = 22.780712 Si / 1000 Ang^3
#
#
#
# Elastic Constant Matrix: (Units=GPa)
#
#
# Indices 1 2 3 4 5 6 
#
# 1 156.3297 2.3802 47.6534 0.0000 0.0000 0.0000
# 2 2.3802 51.0553 -2.1663 0.0000 0.0000 0.0000
# 3 47.6534 -2.1663 115.7505 0.0000 0.0000 0.0000
# 4 0.0000 0.0000 0.0000 20.4257 0.0000 0.0000
# 5 0.0000 0.0000 0.0000 0.0000 23.5350 0.0000
# 6 0.0000 0.0000 0.0000 0.0000 0.0000 14.3012
#
#
#
# Elastic Compliance Matrix: (Units=1/GPa)
#
#
# Indices 1 2 3 4 5 6 
#
# 1 0.007326 -0.000470 -0.003025 0.000000 0.000000 0.000000
# 2 -0.000470 0.019632 0.000561 0.000000 0.000000 0.000000
# 3 -0.003025 0.000561 0.009895 0.000000 0.000000 0.000000
# 4 0.000000 0.000000 0.000000 0.048958 0.000000 0.000000
# 5 0.000000 0.000000 0.000000 0.000000 0.042490 0.000000
# 6 0.000000 0.000000 0.000000 0.000000 0.000000 0.069924
#
#
# Mechanical properties :
#
#
# Convention : Reuss Voigt Hill
#
# Bulk Modulus (GPa) = 32.27300 46.54111 39.40706
# Shear Modulus (GPa) = 23.31855 30.00359 26.66107
#
# Velocity S-wave (km/s) = 3.20286 3.63307 3.42473
# Velocity P-wave (km/s) = 5.27971 6.17036 5.74233
#
# Compressibility (1/GPa) = 0.03098565
#
# Stress axis : x y z
#
# Youngs Moduli (GPa) = 136.50134 50.93645 101.06055
#
# Poissons Ratio (x) = 0.02393 0.30569
# Poissons Ratio (y) = 0.06414 -0.05668
# Poissons Ratio (z) = 0.41289 -0.02857
#
# Static dielectric constant tensor:
#      x y z
#    x 1.899540 0.000000 0.000000 
#    y 0.000000 1.863860 0.000000 
#    z 0.000000 0.000000 1.838220 
# 
# From -- ./inp_files/26267.got.cif
#   From: 2010.05.17/outbox.cif.g08.bks.cpg/sg59_14_cif.got.tgz:26267.got - 2010.06.03 14:40:33.
