data_PCOD9450512
_publ_section_title
;
Structure prediction by ZEFSAII (Michael W. Deem and Ramdas Pophale) SiO2 
 PCOD9450512
Probable space group: P M M N
;
_chemical_formula_sum "Si O2"
_cell_formula_units_Z 64
_cell_length_a 22.287351
_cell_length_b 8.904774
_cell_length_c 18.069432
_cell_angle_alpha 90.000000
_cell_angle_beta 90.000000
_cell_angle_gamma 90.000000
_cell_volume 3586.128567
_symmetry_space_group_name_H-M "P M M N"
_symmetry_group_IT_number 59
_space_group.IT_coordinate_system_code '2'
_symmetry_cell_setting 'orthorhombic'
loop_
_space_group_symop_operation_xyz
x,y,z
1/2-x,1/2-y,z
1/2+x,-y,-z
-x,1/2+y,-z
-x,-y,-z
1/2+x,1/2+y,-z
1/2-x,y,z
x,1/2-y,z
loop_
_atom_site_type_symbol
_atom_site_label
_atom_site_fract_x
_atom_site_fract_y
_atom_site_fract_z
Si Si1 0.919224 0.426302 0.536648
Si Si2 0.180446 0.423473 0.382289
Si Si3 0.681696 0.076782 0.040645
Si Si4 0.969932 0.071196 0.380440
Si Si5 0.601522 0.919268 0.763127
Si Si6 0.682556 0.417882 0.863842
Si Si7 0.549402 0.931894 0.059444
Si Si8 0.020645 0.425420 0.770678
O O1 0.932339 0.250000 0.543607
O O2 0.853265 0.467160 0.562416
O O3 0.929342 0.470304 0.451251
O O4 0.965102 0.513862 0.590651
O O5 0.250000 0.455682 0.375073
O O6 0.172735 0.250000 0.406771
O O7 0.148016 0.435950 0.303428
O O8 0.750000 0.024732 0.064794
O O9 0.674707 0.250000 0.067342
O O10 0.619199 0.987025 0.053288
O O11 0.685001 0.083146 0.951829
O O12 0.972258 0.250000 0.373734
O O13 0.950709 0.004652 0.301379
O O14 0.576862 0.750000 0.762300
O O15 0.638137 0.955457 0.836619
O O16 0.549047 0.038495 0.757886
O O17 0.750000 0.443327 0.835610
O O18 0.663189 0.250000 0.839437
O O19 0.546595 0.750000 0.052179
O O20 0.532874 0.974619 0.144651
O O21 0.500000 0.000000 0.000000
O O22 0.034001 0.250000 0.766866
#
# Coordination Sequence:
#
# PCOD9450512 Si02
#       8
#     8   8   8   8   8   8   8   8
#     4  10  20  34  55  81 108 138 177 221 266 320
#     4  10  21  35  50  73 109 149 186 223 264 318
#     4   9  19  37  59  81 107 143 189 238 291 352
#     4  10  20  35  56  82 107 136 176 224 274 323
#     4  11  21  32  48  73 105 142 183 223 266 321
#     4   9  18  32  49  70  99 137 179 222 268 323
#     4  11  24  39  57  85 119 154 194 242 294 349
#     4  11  23  37  54  79 110 143 183 229 279 332
#
# _framework density 17.846543
#
# number of rings (size 3 to 8) (size 9 to 14) (size 15 to 20)
#    0.000    1.875    1.250    3.750    0.000    8.750 
#    0.000    1.250    0.000    0.750    0.000    0.000 
#    0.000    0.000    0.000    0.000    0.000    0.000 
#
# Total GULP energy -356478.773231 kJ/mol
# GULP energy per Si atom -5569.980832 kJ/mol
# Density = 1.780592 g / cm^3
# Si number density = 17.846543 Si / 1000 Ang^3
#
#
#
# Elastic Constant Matrix: (Units=GPa)
#
#
# Indices 1 2 3 4 5 6 
#
# 1 68.0826 28.0887 29.0614 0.0000 0.0000 0.0000
# 2 28.0887 30.1192 36.0852 0.0000 0.0000 0.0000
# 3 29.0614 36.0852 105.9142 0.0000 0.0000 0.0000
# 4 0.0000 0.0000 0.0000 25.8557 0.0000 0.0000
# 5 0.0000 0.0000 0.0000 0.0000 24.4722 0.0000
# 6 0.0000 0.0000 0.0000 0.0000 0.0000 26.9305
#
#
#
# Elastic Compliance Matrix: (Units=1/GPa)
#
#
# Indices 1 2 3 4 5 6 
#
# 1 0.024067 -0.024556 0.001763 0.000000 0.000000 0.000000
# 2 -0.024556 0.081157 -0.020912 0.000000 0.000000 0.000000
# 3 0.001763 -0.020912 0.016083 0.000000 0.000000 0.000000
# 4 0.000000 0.000000 0.000000 0.038676 0.000000 0.000000
# 5 0.000000 0.000000 0.000000 0.000000 0.040863 0.000000
# 6 0.000000 0.000000 0.000000 0.000000 0.000000 0.037133
#
#
# Mechanical properties :
#
#
# Convention : Reuss Voigt Hill
#
# Bulk Modulus (GPa) = 29.50308 43.39850 36.45079
# Shear Modulus (GPa) = 14.85056 22.84374 18.84715
#
# Velocity S-wave (km/s) = 2.88779 3.58160 3.25324
# Velocity P-wave (km/s) = 5.26180 6.44005 5.88051
#
# Compressibility (1/GPa) = 0.03389477
#
# Stress axis : x y z
#
# Youngs Moduli (GPa) = 41.55127 12.32182 62.17798
#
# Poissons Ratio (x) = 0.30258 -0.10960
# Poissons Ratio (y) = 1.02034 1.30030
# Poissons Ratio (z) = -0.07324 0.25768
#
# Static dielectric constant tensor:
#      x y z
#    x 1.644280 0.000000 0.000000 
#    y 0.000000 1.649000 0.000000 
#    z 0.000000 0.000000 1.630140 
# 
# From -- ./inp_files/28288.got.cif
#   From: 2010.05.17/outbox.cif.g08.bks.cpg/sg59_15_cif.got.tgz:28288.got - 2010.06.03 14:40:33.
