data_PCOD9450503
_publ_section_title
;
Structure prediction by ZEFSAII (Michael W. Deem and Ramdas Pophale) SiO2 
 PCOD9450503
Probable space group: P M M N
;
_chemical_formula_sum "Si O2"
_cell_formula_units_Z 56
_cell_length_a 14.668215
_cell_length_b 13.974335
_cell_length_c 15.412736
_cell_angle_alpha 90.000000
_cell_angle_beta 90.000000
_cell_angle_gamma 90.000000
_cell_volume 3159.280281
_symmetry_space_group_name_H-M "P M M N"
_symmetry_group_IT_number 59
_space_group.IT_coordinate_system_code '2'
_symmetry_cell_setting 'orthorhombic'
loop_
_space_group_symop_operation_xyz
x,y,z
1/2-x,1/2-y,z
1/2+x,-y,-z
-x,1/2+y,-z
-x,-y,-z
1/2+x,1/2+y,-z
1/2-x,y,z
x,1/2-y,z
loop_
_atom_site_type_symbol
_atom_site_label
_atom_site_fract_x
_atom_site_fract_y
_atom_site_fract_z
Si Si1 0.638885 0.360926 0.484658
Si Si2 0.056210 0.641079 0.181163
Si Si3 0.640810 0.035409 0.656647
Si Si4 0.856012 0.134854 0.290726
Si Si5 0.352007 0.638453 0.002333
Si Si6 0.642113 0.862454 0.776270
Si Si7 0.975034 0.451806 0.136646
O O1 0.750000 0.360093 0.482480
O O2 0.611324 0.250000 0.500992
O O3 0.609768 0.431509 0.561550
O O4 0.610710 0.390735 0.387697
O O5 0.024911 0.750000 0.186696
O O6 0.096416 0.604135 0.271494
O O7 0.981584 0.564893 0.150594
O O8 0.131945 0.635345 0.105250
O O9 0.750000 0.048693 0.659262
O O10 0.623600 0.927599 0.690911
O O11 0.750000 0.106521 0.281268
O O12 0.859378 0.250000 0.285577
O O13 0.915693 0.091468 0.214909
O O14 0.250000 0.606587 0.980309
O O15 0.361169 0.750000 0.975742
O O16 0.427377 0.578770 0.951774
O O17 0.750000 0.872627 0.796736
O O18 0.622631 0.750000 0.763892
O O19 0.575924 0.906921 0.849322
#
# Coordination Sequence:
#
# PCOD9450503 Si02
#       7
#     8   8   8   8   8   8   8
#     4   8  14  25  44  72 101 125 154 198 251 300
#     4  10  21  34  47  69 101 132 164 202 241 285
#     4   9  16  28  49  71  93 128 167 203 249 296
#     4   9  17  30  51  79 104 124 156 207 258 296
#     4  10  20  34  55  81 102 121 154 203 253 296
#     4   9  18  31  46  68  99 133 168 203 240 289
#     4  11  20  33  53  74  98 132 165 198 244 294
#
# _framework density 17.725556999999998
#
# number of rings (size 3 to 8) (size 9 to 14) (size 15 to 20)
#    0.000    2.571    0.000    3.857    0.000    3.143 
#    0.000    2.857    0.000    4.286    0.000    4.000 
#    0.000    0.000    0.000    0.000    0.000    1.571 
#
# Total GULP energy -312210.583959 kJ/mol
# GULP energy per Si atom -5575.188999 kJ/mol
# Density = 1.768521 g / cm^3
# Si number density = 17.725557 Si / 1000 Ang^3
#
#
#
# Elastic Constant Matrix: (Units=GPa)
#
#
# Indices 1 2 3 4 5 6 
#
# 1 43.7514 20.7066 13.4309 0.0000 0.0000 0.0000
# 2 20.7066 84.5972 21.2375 0.0000 0.0000 0.0000
# 3 13.4309 21.2375 64.4514 0.0000 0.0000 0.0000
# 4 0.0000 0.0000 0.0000 24.0444 0.0000 0.0000
# 5 0.0000 0.0000 0.0000 0.0000 18.0265 0.0000
# 6 0.0000 0.0000 0.0000 0.0000 0.0000 16.0884
#
#
#
# Elastic Compliance Matrix: (Units=1/GPa)
#
#
# Indices 1 2 3 4 5 6 
#
# 1 0.026641 -0.005589 -0.003710 0.000000 0.000000 0.000000
# 2 -0.005589 0.014059 -0.003468 0.000000 0.000000 0.000000
# 3 -0.003710 -0.003468 0.017431 0.000000 0.000000 0.000000
# 4 0.000000 0.000000 0.000000 0.041590 0.000000 0.000000
# 5 0.000000 0.000000 0.000000 0.000000 0.055474 0.000000
# 6 0.000000 0.000000 0.000000 0.000000 0.000000 0.062157
#
#
# Mechanical properties :
#
#
# Convention : Reuss Voigt Hill
#
# Bulk Modulus (GPa) = 30.67766 33.72777 32.20271
# Shear Modulus (GPa) = 19.70430 20.79352 20.24891
#
# Velocity S-wave (km/s) = 3.33773 3.42874 3.38354
# Velocity P-wave (km/s) = 5.67438 5.89441 5.78544
#
# Compressibility (1/GPa) = 0.03259701
#
# Stress axis : x y z
#
# Youngs Moduli (GPa) = 37.53674 71.12658 57.36778
#
# Poissons Ratio (x) = 0.39756 0.21282
# Poissons Ratio (y) = 0.20981 0.19895
# Poissons Ratio (z) = 0.13925 0.24667
#
# Static dielectric constant tensor:
#      x y z
#    x 1.613270 0.000000 0.000000 
#    y 0.000000 1.608340 0.000000 
#    z 0.000000 0.000000 1.614160 
# 
# From -- ./inp_files/23345.got.cif
#   From: 2010.05.17/outbox.cif.g08.bks.cpg/sg59_12_cif.got.tgz:23345.got - 2010.06.03 14:40:33.
