data_PCOD9450710
_publ_section_title
;
Structure prediction by ZEFSAII (Michael W. Deem and Ramdas Pophale) SiO2 
 PCOD9450710
Probable space group: P M M N
;
_chemical_formula_sum "Si O2"
_cell_formula_units_Z 64
_cell_length_a 19.143279
_cell_length_b 9.603999
_cell_length_c 20.758829
_cell_angle_alpha 90.000000
_cell_angle_beta 90.000000
_cell_angle_gamma 90.000000
_cell_volume 3816.552901
_symmetry_space_group_name_H-M "P M M N"
_symmetry_group_IT_number 59
_space_group.IT_coordinate_system_code '2'
_symmetry_cell_setting 'orthorhombic'
loop_
_space_group_symop_operation_xyz
x,y,z
1/2-x,1/2-y,z
1/2+x,-y,-z
-x,1/2+y,-z
-x,-y,-z
1/2+x,1/2+y,-z
1/2-x,y,z
x,1/2-y,z
loop_
_atom_site_type_symbol
_atom_site_label
_atom_site_fract_x
_atom_site_fract_y
_atom_site_fract_z
Si Si1 0.091542 0.584426 0.301082
Si Si2 0.664960 0.090023 0.079185
Si Si3 0.168606 0.415639 0.412803
Si Si4 0.934582 0.915710 0.472176
Si Si5 0.335157 0.409873 0.042168
Si Si6 0.166925 0.914594 0.167457
Si Si7 0.832499 0.416922 0.225130
Si Si8 0.928374 0.915703 0.322659
O O1 0.101956 0.750000 0.311699
O O2 0.129598 0.499779 0.357131
O O3 0.124805 0.549827 0.231910
O O4 0.008921 0.557397 0.303805
O O5 0.750000 0.090625 0.078589
O O6 0.643117 0.250000 0.067620
O O7 0.645140 0.047647 0.151712
O O8 0.641165 0.989183 0.022306
O O9 0.250000 0.452846 0.415027
O O10 0.163058 0.250000 0.399932
O O11 0.130481 0.441792 0.480715
O O12 0.950334 0.750000 0.473619
O O13 0.920297 0.952760 0.398040
O O14 0.000000 0.000000 0.500000
O O15 0.250000 0.410159 0.040859
O O16 0.358205 0.250000 0.044046
O O17 0.354975 0.494603 0.106109
O O18 0.250000 0.936538 0.178709
O O19 0.157489 0.750000 0.153692
O O20 0.750000 0.448744 0.231645
O O21 0.840224 0.250000 0.231940
O O22 0.877333 0.498433 0.277144
O O23 0.915420 0.750000 0.315873
#
# Coordination Sequence:
#
# PCOD9450710 Si02
#       8
#     8   8   8   8   8   8   8   8
#     4  10  20  35  53  75 103 137 178 216 254 307
#     4   8  14  27  47  69  96 130 166 206 253 305
#     4  10  21  35  53  79 107 136 172 215 264 313
#     4  10  20  36  56  77 103 137 174 213 258 311
#     4   9  16  25  41  69 101 130 164 208 255 303
#     4   9  17  29  46  68  97 134 171 209 254 301
#     4   9  19  35  54  78 106 135 171 214 258 309
#     4  10  21  35  54  79 105 136 172 212 259 311
#
# _framework density 16.76906
#
# number of rings (size 3 to 8) (size 9 to 14) (size 15 to 20)
#    0.000    2.625    1.250    1.500    0.000    5.000 
#    0.000    3.750    0.000    0.750    0.000    0.000 
#    0.000    0.000    0.000    0.000    0.000    0.000 
#
# Total GULP energy -356848.162662 kJ/mol
# GULP energy per Si atom -5575.752542 kJ/mol
# Density = 1.673089 g / cm^3
# Si number density = 16.769060 Si / 1000 Ang^3
#
#
#
# Elastic Constant Matrix: (Units=GPa)
#
#
# Indices 1 2 3 4 5 6 
#
# 1 72.1267 49.6705 75.9071 0.0000 0.0000 0.0000
# 2 49.6705 65.3545 94.8299 0.0000 0.0000 0.0000
# 3 75.9071 94.8299 195.0135 0.0000 0.0000 0.0000
# 4 0.0000 0.0000 0.0000 32.3827 0.0000 0.0000
# 5 0.0000 0.0000 0.0000 0.0000 10.1169 0.0000
# 6 0.0000 0.0000 0.0000 0.0000 0.0000 20.7170
#
#
#
# Elastic Compliance Matrix: (Units=1/GPa)
#
#
# Indices 1 2 3 4 5 6 
#
# 1 0.029308 -0.019434 -0.001958 0.000000 0.000000 0.000000
# 2 -0.019434 0.064859 -0.023974 0.000000 0.000000 0.000000
# 3 -0.001958 -0.023974 0.017548 0.000000 0.000000 0.000000
# 4 0.000000 0.000000 0.000000 0.030881 0.000000 0.000000
# 5 0.000000 0.000000 0.000000 0.000000 0.098845 0.000000
# 6 0.000000 0.000000 0.000000 0.000000 0.000000 0.048270
#
#
# Mechanical properties :
#
#
# Convention : Reuss Voigt Hill
#
# Bulk Modulus (GPa) = 47.65937 85.92328 66.79133
# Shear Modulus (GPa) = 12.90532 20.11577 16.51055
#
# Velocity S-wave (km/s) = 2.77716 3.46725 3.14121
# Velocity P-wave (km/s) = 6.22625 8.20850 7.28511
#
# Compressibility (1/GPa) = 0.02098223
#
# Stress axis : x y z
#
# Youngs Moduli (GPa) = 34.12011 15.41812 56.98675
#
# Poissons Ratio (x) = 0.29964 0.11155
# Poissons Ratio (y) = 0.66310 1.36623
# Poissons Ratio (z) = 0.06679 0.36964
#
# Static dielectric constant tensor:
#      x y z
#    x 1.545500 0.000000 0.000000 
#    y 0.000000 1.558110 0.000000 
#    z 0.000000 0.000000 1.551970 
# 
# From -- ./inp_files/29505.got.cif
#   From: 2010.05.17/outbox.cif.g08.bks.cpg/sg59_15_cif.got.tgz:29505.got - 2010.06.03 14:40:33.
