data_PCOD9450342
_publ_section_title
;
Structure prediction by ZEFSAII (Michael W. Deem and Ramdas Pophale) SiO2 
 PCOD9450342
Probable space group: P M M N
;
_chemical_formula_sum "Si O2"
_cell_formula_units_Z 56
_cell_length_a 18.354217
_cell_length_b 7.407337
_cell_length_c 18.236801
_cell_angle_alpha 90.000000
_cell_angle_beta 90.000000
_cell_angle_gamma 90.000000
_cell_volume 2479.400159
_symmetry_space_group_name_H-M "P M M N"
_symmetry_group_IT_number 59
_space_group.IT_coordinate_system_code '2'
_symmetry_cell_setting 'orthorhombic'
loop_
_space_group_symop_operation_xyz
x,y,z
1/2-x,1/2-y,z
1/2+x,-y,-z
-x,1/2+y,-z
-x,-y,-z
1/2+x,1/2+y,-z
1/2-x,y,z
x,1/2-y,z
loop_
_atom_site_type_symbol
_atom_site_label
_atom_site_fract_x
_atom_site_fract_y
_atom_site_fract_z
Si Si1 0.563577 0.039422 0.335622
Si Si2 0.603422 0.041784 0.063326
Si Si3 0.937145 0.030114 0.904821
Si Si4 0.669017 0.471472 0.210474
Si Si5 0.668270 0.032592 0.775634
Si Si6 0.833540 0.968919 0.472713
Si Si7 0.405766 0.463021 0.377029
O O1 0.550617 0.250000 0.318292
O O2 0.606750 0.963695 0.265887
O O3 0.485111 0.960053 0.356467
O O4 0.616899 0.026793 0.404933
O O5 0.625639 0.250000 0.054757
O O6 0.652884 0.965545 0.127897
O O7 0.520395 0.033727 0.093033
O O8 0.599801 0.966904 0.981061
O O9 0.939647 0.250000 0.905955
O O10 0.891471 0.970171 0.834527
O O11 0.750000 0.523593 0.234816
O O12 0.666886 0.250000 0.210385
O O13 0.750000 0.968678 0.792007
O O14 0.668850 0.250000 0.780200
O O15 0.645247 0.984050 0.693481
O O16 0.750000 0.029471 0.465670
O O17 0.832604 0.750000 0.473326
O O18 0.869061 0.033961 0.548957
O O19 0.416177 0.250000 0.390775
#
# Coordination Sequence:
#
# PCOD9450342 Si02
#       7
#     8   8   8   8   8   8   8
#     4  10  20  34  54  78 102 131 169 211 252 297
#     4   9  17  31  52  74  97 131 171 205 244 298
#     4   9  18  32  50  73 101 131 164 207 253 294
#     4   9  17  29  47  73 101 127 161 205 246 286
#     4  10  21  35  51  75 106 137 171 212 258 306
#     4  10  21  36  53  75 104 135 167 206 254 306
#     4  10  21  37  56  77 102 134 172 211 252 301
#
# _framework density 22.586110000000001
#
# number of rings (size 3 to 8) (size 9 to 14) (size 15 to 20)
#    0.000    2.429    0.000    2.143    0.000    5.143 
#    0.000    3.571    0.000    1.286    0.000    4.000 
#    0.000    0.000    0.000    0.000    0.000    0.000 
#
# Total GULP energy -312907.836035 kJ/mol
# GULP energy per Si atom -5587.639929 kJ/mol
# Density = 2.253470 g / cm^3
# Si number density = 22.586110 Si / 1000 Ang^3
#
#
#
# Elastic Constant Matrix: (Units=GPa)
#
#
# Indices 1 2 3 4 5 6 
#
# 1 45.9986 -9.6077 -14.9660 0.0000 0.0000 0.0000
# 2 -9.6077 74.7642 -18.0871 0.0000 0.0000 0.0000
# 3 -14.9660 -18.0871 66.1671 0.0000 0.0000 0.0000
# 4 0.0000 0.0000 0.0000 -7.0522 0.0000 0.0000
# 5 0.0000 0.0000 0.0000 0.0000 59.3885 0.0000
# 6 0.0000 0.0000 0.0000 0.0000 0.0000 22.8728
#
#
#
# Elastic Compliance Matrix: (Units=1/GPa)
#
#
# Indices 1 2 3 4 5 6 
#
# 1 0.025046 0.004914 0.007008 0.000000 0.000000 0.000000
# 2 0.004914 0.015287 0.005290 0.000000 0.000000 0.000000
# 3 0.007008 0.005290 0.018145 0.000000 0.000000 0.000000
# 4 0.000000 0.000000 0.000000 -0.141799 0.000000 0.000000
# 5 0.000000 0.000000 0.000000 0.000000 0.016838 0.000000
# 6 0.000000 0.000000 0.000000 0.000000 0.000000 0.043720
#
#
# Mechanical properties :
#
#
# Convention : Reuss Voigt Hill
#
# Bulk Modulus (GPa) = 10.76391 11.28982 11.02686
# Shear Modulus (GPa) = -190.68952 30.34787 -80.17082
#
# Velocity S-wave (km/s) = -9.19843 3.66956 -5.96428
# Velocity P-wave (km/s) = 10.39417 4.79204 6.52208
#
# Compressibility (1/GPa) = 0.09290308
#
# Stress axis : x y z
#
# Youngs Moduli (GPa) = 39.92589 65.41635 55.11296
#
# Poissons Ratio (x) = -0.32146 -0.38625
# Poissons Ratio (y) = -0.19620 -0.29156
# Poissons Ratio (z) = -0.27982 -0.34607
#
# Static dielectric constant tensor:
#      x y z
#    x 1.802330 0.000000 0.000000 
#    y 0.000000 1.878190 0.000000 
#    z 0.000000 0.000000 1.796180 
# 
# From -- ./inp_files/20904.got.cif
#   From: 2010.05.17/outbox.cif.g08.bks.cpg/sg59_11_cif.got.tgz:20904.got - 2010.06.03 14:40:33.
