data_PCOD9450491
_publ_section_title
;
Structure prediction by ZEFSAII (Michael W. Deem and Ramdas Pophale) SiO2 
 PCOD9450491
Probable space group: P M M N
;
_chemical_formula_sum "Si O2"
_cell_formula_units_Z 64
_cell_length_a 23.355100
_cell_length_b 13.662004
_cell_length_c 10.322401
_cell_angle_alpha 90.000000
_cell_angle_beta 90.000000
_cell_angle_gamma 90.000000
_cell_volume 3293.645591
_symmetry_space_group_name_H-M "P M M N"
_symmetry_group_IT_number 59
_space_group.IT_coordinate_system_code '2'
_symmetry_cell_setting 'orthorhombic'
loop_
_space_group_symop_operation_xyz
x,y,z
1/2-x,1/2-y,z
1/2+x,-y,-z
-x,1/2+y,-z
-x,-y,-z
1/2+x,1/2+y,-z
1/2-x,y,z
x,1/2-y,z
loop_
_atom_site_type_symbol
_atom_site_label
_atom_site_fract_x
_atom_site_fract_y
_atom_site_fract_z
Si Si1 0.992014 0.132254 0.465003
Si Si2 0.316148 0.522425 0.677839
Si Si3 0.619733 0.039067 0.828025
Si Si4 0.999471 0.133225 0.910364
Si Si5 0.915205 0.867600 0.315410
Si Si6 0.044657 0.132729 0.192438
Si Si7 0.135847 0.867488 0.442024
Si Si8 0.681132 0.362236 0.064160
O O1 0.991533 0.250000 0.461194
O O2 0.928710 0.105455 0.511653
O O3 0.039801 0.105686 0.570877
O O4 0.010440 0.100849 0.321171
O O5 0.250000 0.494482 0.697197
O O6 0.357841 0.429650 0.670667
O O7 0.322982 0.586408 0.548662
O O8 0.334749 0.591145 0.797972
O O9 0.557228 0.086218 0.852569
O O10 0.644928 0.085307 0.698004
O O11 0.604617 0.924989 0.812446
O O12 0.657001 0.070459 0.950322
O O13 0.992101 0.250000 0.901209
O O14 0.053814 0.108886 0.820799
O O15 0.010660 0.108956 0.060257
O O16 0.905707 0.750000 0.321294
O O17 0.052536 0.250000 0.196224
O O18 0.140502 0.750000 0.435642
O O19 0.750000 0.359421 0.057522
O O20 0.659725 0.250000 0.052107
#
# Coordination Sequence:
#
# PCOD9450491 Si02
#       8
#     8   8   8   8   8   8   8   8
#     4   9  19  36  56  85 119 155 190 231 296 358
#     4  11  25  41  60  87 117 159 208 245 289 347
#     4  12  22  36  62  87 116 156 197 240 294 359
#     4  10  20  34  54  87 122 151 191 241 294 350
#     4  10  20  38  62  87 123 159 193 243 296 349
#     4  10  22  35  52  84 123 157 191 233 286 351
#     4  11  23  38  60  88 120 153 194 248 300 357
#     4  10  23  43  62  83 116 155 199 251 299 348
#
# _framework density 19.431356000000001
#
# number of rings (size 3 to 8) (size 9 to 14) (size 15 to 20)
#    0.000    1.625    1.250    3.375    3.500    2.500 
#    0.000    0.000    0.000    1.125    0.000    0.000 
#    0.000    0.000    0.000    0.000    0.000    0.000 
#
# Total GULP energy -357832.675369 kJ/mol
# GULP energy per Si atom -5591.135553 kJ/mol
# Density = 1.938713 g / cm^3
# Si number density = 19.431356 Si / 1000 Ang^3
#
#
#
# Elastic Constant Matrix: (Units=GPa)
#
#
# Indices 1 2 3 4 5 6 
#
# 1 36.3736 6.2431 12.0617 0.0000 0.0000 0.0000
# 2 6.2431 57.6241 16.4876 0.0000 0.0000 0.0000
# 3 12.0617 16.4876 131.2505 0.0000 0.0000 0.0000
# 4 0.0000 0.0000 0.0000 24.2331 0.0000 0.0000
# 5 0.0000 0.0000 0.0000 0.0000 20.8872 0.0000
# 6 0.0000 0.0000 0.0000 0.0000 0.0000 26.0640
#
#
#
# Elastic Compliance Matrix: (Units=1/GPa)
#
#
# Indices 1 2 3 4 5 6 
#
# 1 0.028684 -0.002441 -0.002329 0.000000 0.000000 0.000000
# 2 -0.002441 0.018209 -0.002063 0.000000 0.000000 0.000000
# 3 -0.002329 -0.002063 0.008092 0.000000 0.000000 0.000000
# 4 0.000000 0.000000 0.000000 0.041266 0.000000 0.000000
# 5 0.000000 0.000000 0.000000 0.000000 0.047876 0.000000
# 6 0.000000 0.000000 0.000000 0.000000 0.000000 0.038367
#
#
# Mechanical properties :
#
#
# Convention : Reuss Voigt Hill
#
# Bulk Modulus (GPa) = 24.20273 32.75921 28.48097
# Shear Modulus (GPa) = 23.81706 26.93391 25.37549
#
# Velocity S-wave (km/s) = 3.50480 3.72708 3.61765
# Velocity P-wave (km/s) = 5.37222 5.95122 5.66912
#
# Compressibility (1/GPa) = 0.04131765
#
# Stress axis : x y z
#
# Youngs Moduli (GPa) = 34.86274 54.91904 123.57525
#
# Poissons Ratio (x) = 0.13407 0.28785
# Poissons Ratio (y) = 0.08511 0.25494
# Poissons Ratio (z) = 0.08121 0.11330
#
# Static dielectric constant tensor:
#      x y z
#    x 1.647260 0.000000 0.000000 
#    y 0.000000 1.725270 0.000000 
#    z 0.000000 0.000000 1.674240 
# 
# From -- ./inp_files/12224.got.cif
#   From: 2010.05.17/outbox.cif.g08.bks.cpg/sg59_7_cif.got.tgz:12224.got - 2010.06.03 14:40:33.
