data_PCOD9450181
_publ_section_title
;
Structure prediction by ZEFSAII (Michael W. Deem and Ramdas Pophale) SiO2 
 PCOD9450181
Probable space group: P M M N
;
_chemical_formula_sum "Si O2"
_cell_formula_units_Z 64
_cell_length_a 15.527747
_cell_length_b 13.759434
_cell_length_c 16.756188
_cell_angle_alpha 90.000000
_cell_angle_beta 90.000000
_cell_angle_gamma 90.000000
_cell_volume 3580.010003
_symmetry_space_group_name_H-M "P M M N"
_symmetry_group_IT_number 59
_space_group.IT_coordinate_system_code '2'
_symmetry_cell_setting 'orthorhombic'
loop_
_space_group_symop_operation_xyz
x,y,z
1/2-x,1/2-y,z
1/2+x,-y,-z
-x,1/2+y,-z
-x,-y,-z
1/2+x,1/2+y,-z
1/2-x,y,z
x,1/2-y,z
loop_
_atom_site_type_symbol
_atom_site_label
_atom_site_fract_x
_atom_site_fract_y
_atom_site_fract_z
Si Si1 0.921036 0.864640 0.781774
Si Si2 0.848473 0.864012 0.468259
Si Si3 0.407227 0.537750 0.828988
Si Si4 0.156102 0.367770 0.058302
Si Si5 0.654539 0.135881 0.013699
Si Si6 0.982420 0.634309 0.077428
Si Si7 0.153429 0.536355 0.650832
Si Si8 0.526589 0.867334 0.611469
O O1 0.903789 0.750000 0.775722
O O2 0.860224 0.904033 0.851770
O O3 0.923857 0.903448 0.691594
O O4 0.016686 0.884349 0.814830
O O5 0.750000 0.873889 0.499935
O O6 0.861516 0.750000 0.450458
O O7 0.854073 0.931211 0.390693
O O8 0.918973 0.895399 0.533646
O O9 0.355350 0.574998 0.905387
O O10 0.451363 0.435372 0.852032
O O11 0.356661 0.530723 0.746289
O O12 0.250000 0.398413 0.028430
O O13 0.156268 0.250000 0.062350
O O14 0.079416 0.390198 0.997844
O O15 0.750000 0.124004 0.979956
O O16 0.643085 0.250000 0.034471
O O17 0.578989 0.112597 0.951660
O O18 0.974625 0.750000 0.094174
O O19 0.250000 0.574323 0.632090
O O20 0.071702 0.596370 0.617565
O O21 0.525422 0.750000 0.613875
#
# Coordination Sequence:
#
# PCOD9450181 Si02
#       8
#     8   8   8   8   8   8   8   8
#     4   9  17  30  47  70  99 124 156 203 250 298
#     4   9  18  34  55  77 102 135 172 208 247 295
#     4  11  20  33  50  72  98 135 171 207 251 302
#     4   9  17  29  45  65  93 127 158 197 252 301
#     4  10  20  34  53  74  97 130 170 213 262 311
#     4  10  21  36  50  69 100 133 173 218 254 296
#     4  10  21  34  50  76 109 137 166 208 253 302
#     4   9  18  32  53  77 102 133 167 205 253 308
#
# _framework density 17.877044999999999
#
# number of rings (size 3 to 8) (size 9 to 14) (size 15 to 20)
#    0.000    2.375    1.250    1.500    0.000    2.750 
#    0.000    2.500    0.000    0.750    0.000    0.000 
#    0.000    2.000    0.000    0.000    0.000    0.000 
#
# Total GULP energy -356656.792143 kJ/mol
# GULP energy per Si atom -5572.762377 kJ/mol
# Density = 1.783636 g / cm^3
# Si number density = 17.877045 Si / 1000 Ang^3
#
#
#
# Elastic Constant Matrix: (Units=GPa)
#
#
# Indices 1 2 3 4 5 6 
#
# 1 94.1631 8.3375 19.6026 0.0000 0.0000 0.0000
# 2 8.3375 47.5500 9.2455 0.0000 0.0000 0.0000
# 3 19.6026 9.2455 34.5966 0.0000 0.0000 0.0000
# 4 0.0000 0.0000 0.0000 23.2949 0.0000 0.0000
# 5 0.0000 0.0000 0.0000 0.0000 13.0367 0.0000
# 6 0.0000 0.0000 0.0000 0.0000 0.0000 12.5624
#
#
#
# Elastic Compliance Matrix: (Units=1/GPa)
#
#
# Indices 1 2 3 4 5 6 
#
# 1 0.012071 -0.000830 -0.006618 0.000000 0.000000 0.000000
# 2 -0.000830 0.022240 -0.005473 0.000000 0.000000 0.000000
# 3 -0.006618 -0.005473 0.034117 0.000000 0.000000 0.000000
# 4 0.000000 0.000000 0.000000 0.042928 0.000000 0.000000
# 5 0.000000 0.000000 0.000000 0.000000 0.076707 0.000000
# 6 0.000000 0.000000 0.000000 0.000000 0.000000 0.079603
#
#
# Mechanical properties :
#
#
# Convention : Reuss Voigt Hill
#
# Bulk Modulus (GPa) = 23.48160 27.85342 25.66751
# Shear Modulus (GPa) = 16.24947 19.05373 17.65160
#
# Velocity S-wave (km/s) = 3.01816 3.26823 3.14568
# Velocity P-wave (km/s) = 5.03084 5.46408 5.25193
#
# Compressibility (1/GPa) = 0.04258653
#
# Stress axis : x y z
#
# Youngs Moduli (GPa) = 82.84309 44.96361 29.31100
#
# Poissons Ratio (x) = 0.03731 0.19397
# Poissons Ratio (y) = 0.06874 0.16043
# Poissons Ratio (z) = 0.54823 0.24610
#
# Static dielectric constant tensor:
#      x y z
#    x 1.630980 0.000000 0.000000 
#    y 0.000000 1.628830 0.000000 
#    z 0.000000 0.000000 1.603560 
# 
# From -- ./inp_files/27744.got.cif
#   From: 2010.05.17/outbox.cif.g08.bks.cpg/sg59_14_cif.got.tgz:27744.got - 2010.06.03 14:40:33.
