data_PCOD9450684
_publ_section_title
;
Structure prediction by ZEFSAII (Michael W. Deem and Ramdas Pophale) SiO2 
 PCOD9450684
Probable space group: P M M N
;
_chemical_formula_sum "Si O2"
_cell_formula_units_Z 48
_cell_length_a 15.184451
_cell_length_b 7.589863
_cell_length_c 20.156828
_cell_angle_alpha 90.000000
_cell_angle_beta 90.000000
_cell_angle_gamma 90.000000
_cell_volume 2323.032155
_symmetry_space_group_name_H-M "P M M N"
_symmetry_group_IT_number 59
_space_group.IT_coordinate_system_code '2'
_symmetry_cell_setting 'orthorhombic'
loop_
_space_group_symop_operation_xyz
x,y,z
1/2-x,1/2-y,z
1/2+x,-y,-z
-x,1/2+y,-z
-x,-y,-z
1/2+x,1/2+y,-z
1/2-x,y,z
x,1/2-y,z
loop_
_atom_site_type_symbol
_atom_site_label
_atom_site_fract_x
_atom_site_fract_y
_atom_site_fract_z
Si Si1 0.649072 0.537022 0.410414
Si Si2 0.750000 0.964689 0.012950
Si Si3 0.351726 0.464787 0.440276
Si Si4 0.938149 0.961355 0.062908
Si Si5 0.060150 0.955687 0.179204
Si Si6 0.017507 0.455318 0.326942
Si Si7 0.250000 0.956916 0.142751
O O1 0.750000 0.481725 0.398620
O O2 0.647906 0.750000 0.410090
O O3 0.623429 0.478386 0.485092
O O4 0.579790 0.473942 0.356692
O O5 0.750000 0.750000 0.011753
O O6 0.839612 0.026570 0.048235
O O7 0.750000 0.025190 0.936647
O O8 0.250000 0.514461 0.428534
O O9 0.354873 0.250000 0.440658
O O10 0.416172 0.529158 0.382888
O O11 0.929745 0.750000 0.069075
O O12 0.988328 0.030889 0.128043
O O13 0.000000 0.000000 0.000000
O O14 0.068255 0.750000 0.160306
O O15 0.158031 0.033477 0.169675
O O16 0.029660 0.964593 0.254766
O O17 0.038514 0.250000 0.319180
O O18 0.250000 0.750000 0.161470
#
# Coordination Sequence:
#
# PCOD9450684 Si02
#       7
#     8   4   8   8   8   8   4
#     4   9  18  36  60  79 102 142 186 226 273 330
#     4  10  20  34  58  88 108 131 176 233 282 325
#     4   8  16  32  54  81 109 140 180 222 270 328
#     4  10  20  36  58  82 110 141 181 227 270 322
#     4  10  22  38  54  77 112 148 183 219 265 330
#     4  11  22  34  54  82 113 146 180 226 275 318
#     4  10  20  36  58  82 108 143 180 221 270 321
#
# _framework density 20.662648999999998
#
# number of rings (size 3 to 8) (size 9 to 14) (size 15 to 20)
#    0.000    2.333    1.667    2.000    1.167    1.667 
#    1.500    0.833    0.000    2.000    0.000    0.000 
#    0.000    0.000    0.000    0.000    0.000    0.000 
#
# Total GULP energy -267994.308306 kJ/mol
# GULP energy per Si atom -5583.214756 kJ/mol
# Density = 2.061562 g / cm^3
# Si number density = 20.662649 Si / 1000 Ang^3
#
#
#
# Elastic Constant Matrix: (Units=GPa)
#
#
# Indices 1 2 3 4 5 6 
#
# 1 161.3986 -9.6007 96.4950 0.0000 0.0000 0.0000
# 2 -9.6007 37.7383 -17.2770 0.0000 0.0000 0.0000
# 3 96.4950 -17.2770 139.9038 0.0000 0.0000 0.0000
# 4 0.0000 0.0000 0.0000 0.0955 0.0000 0.0000
# 5 0.0000 0.0000 0.0000 0.0000 0.6067 0.0000
# 6 0.0000 0.0000 0.0000 0.0000 0.0000 10.2790
#
#
#
# Elastic Compliance Matrix: (Units=1/GPa)
#
#
# Indices 1 2 3 4 5 6 
#
# 1 0.010560 -0.000687 -0.007369 0.000000 0.000000 0.000000
# 2 -0.000687 0.028131 0.003948 0.000000 0.000000 0.000000
# 3 -0.007369 0.003948 0.012718 0.000000 0.000000 0.000000
# 4 0.000000 0.000000 0.000000 10.476553 0.000000 0.000000
# 5 0.000000 0.000000 0.000000 0.000000 1.648211 0.000000
# 6 0.000000 0.000000 0.000000 0.000000 0.000000 0.097286
#
#
# Mechanical properties :
#
#
# Convention : Reuss Voigt Hill
#
# Bulk Modulus (GPa) = 23.15176 53.14171 38.14674
# Shear Modulus (GPa) = 0.40663 20.15779 10.28221
#
# Velocity S-wave (km/s) = 0.44410 3.12679 2.23317
# Velocity P-wave (km/s) = 3.38998 6.22980 5.01509
#
# Compressibility (1/GPa) = 0.04319325
#
# Stress axis : x y z
#
# Youngs Moduli (GPa) = 94.69309 35.54821 78.63136
#
# Poissons Ratio (x) = 0.02442 0.57940
# Poissons Ratio (y) = 0.06504 -0.31041
# Poissons Ratio (z) = 0.69776 -0.14033
#
# Static dielectric constant tensor:
#      x y z
#    x 1.734050 0.000000 0.000000 
#    y 0.000000 1.784250 0.000000 
#    z 0.000000 0.000000 1.690090 
# 
# From -- ./inp_files/27414.got.cif
#   From: 2010.05.17/outbox.cif.g08.bks.cpg/sg59_14_cif.got.tgz:27414.got - 2010.06.03 14:40:33.
