data_PCOD9450794
_publ_section_title
;
Structure prediction by ZEFSAII (Michael W. Deem and Ramdas Pophale) SiO2 
 PCOD9450794
Probable space group: P M M N
;
_chemical_formula_sum "Si O2"
_cell_formula_units_Z 48
_cell_length_a 8.771152
_cell_length_b 31.408865
_cell_length_c 9.877899
_cell_angle_alpha 90.000000
_cell_angle_beta 90.000000
_cell_angle_gamma 90.000000
_cell_volume 2721.281451
_symmetry_space_group_name_H-M "P M M N"
_symmetry_group_IT_number 59
_space_group.IT_coordinate_system_code '2'
_symmetry_cell_setting 'orthorhombic'
loop_
_space_group_symop_operation_xyz
x,y,z
1/2-x,1/2-y,z
1/2+x,-y,-z
-x,1/2+y,-z
-x,-y,-z
1/2+x,1/2+y,-z
1/2-x,y,z
x,1/2-y,z
loop_
_atom_site_type_symbol
_atom_site_label
_atom_site_fract_x
_atom_site_fract_y
_atom_site_fract_z
Si Si1 0.931728 0.014822 0.855748
Si Si2 0.432338 0.868737 0.492265
Si Si3 0.568454 0.435676 0.279972
Si Si4 0.932273 0.634645 0.914548
Si Si5 0.932164 0.607226 0.207966
Si Si6 0.433458 0.298841 0.310130
O O1 0.750000 0.016494 0.865900
O O2 0.997555 0.060638 0.816655
O O3 0.982765 0.979626 0.746363
O O4 0.000000 0.000000 0.000000
O O5 0.250000 0.866802 0.485812
O O6 0.472946 0.910305 0.583187
O O7 0.501643 0.873039 0.344208
O O8 0.494364 0.828005 0.573472
O O9 0.750000 0.442525 0.277043
O O10 0.520326 0.403640 0.159295
O O11 0.750000 0.626540 0.899864
O O12 0.968321 0.677393 0.831631
O O13 0.967481 0.634433 0.073040
O O14 0.750000 0.603498 0.218861
O O15 0.250000 0.299538 0.325834
O O16 0.484584 0.250000 0.312869
#
# Coordination Sequence:
#
# PCOD9450794 Si02
#       6
#     8   8   8   8   8   8
#     4  12  23  35  54  80 111 148 190 236 280 326
#     4  10  22  38  56  81 114 150 186 228 282 336
#     4  10  20  35  55  78 106 146 192 234 275 324
#     4   9  18  33  55  81 109 141 180 226 275 327
#     4  11  22  36  55  81 113 150 189 231 279 331
#     4   9  18  36  62  87 109 138 179 226 277 336
#
# _framework density 17.638750000000002
#
# number of rings (size 3 to 8) (size 9 to 14) (size 15 to 20)
#    0.000    1.833    1.667    3.000    0.000    3.667 
#    0.000    0.833    0.000    3.000    0.000    0.000 
#    0.000    0.000    0.000    0.000    0.000    0.000 
#
# Total GULP energy -268047.683037 kJ/mol
# GULP energy per Si atom -5584.326730 kJ/mol
# Density = 1.759860 g / cm^3
# Si number density = 17.638750 Si / 1000 Ang^3
#
#
#
# Elastic Constant Matrix: (Units=GPa)
#
#
# Indices 1 2 3 4 5 6 
#
# 1 57.9838 46.0481 57.3738 0.0000 0.0000 0.0000
# 2 46.0481 128.2226 73.8989 0.0000 0.0000 0.0000
# 3 57.3738 73.8989 158.1690 0.0000 0.0000 0.0000
# 4 0.0000 0.0000 0.0000 14.6873 0.0000 0.0000
# 5 0.0000 0.0000 0.0000 0.0000 24.8349 0.0000
# 6 0.0000 0.0000 0.0000 0.0000 0.0000 25.7582
#
#
#
# Elastic Compliance Matrix: (Units=1/GPa)
#
#
# Indices 1 2 3 4 5 6 
#
# 1 0.030102 -0.006182 -0.008031 0.000000 0.000000 0.000000
# 2 -0.006182 0.011942 -0.003337 0.000000 0.000000 0.000000
# 3 -0.008031 -0.003337 0.010795 0.000000 0.000000 0.000000
# 4 0.000000 0.000000 0.000000 0.068086 0.000000 0.000000
# 5 0.000000 0.000000 0.000000 0.000000 0.040266 0.000000
# 6 0.000000 0.000000 0.000000 0.000000 0.000000 0.038823
#
#
# Mechanical properties :
#
#
# Convention : Reuss Voigt Hill
#
# Bulk Modulus (GPa) = 56.37310 77.66855 67.02083
# Shear Modulus (GPa) = 20.74462 24.19306 22.46884
#
# Velocity S-wave (km/s) = 3.43313 3.70751 3.57295
# Velocity P-wave (km/s) = 6.90973 7.90291 7.42295
#
# Compressibility (1/GPa) = 0.01773896
#
# Stress axis : x y z
#
# Youngs Moduli (GPa) = 33.22048 83.73527 92.63883
#
# Poissons Ratio (x) = 0.51765 0.74396
# Poissons Ratio (y) = 0.20537 0.30916
# Poissons Ratio (z) = 0.26679 0.27944
#
# Static dielectric constant tensor:
#      x y z
#    x 1.590990 0.000000 0.000000 
#    y 0.000000 1.579520 0.000000 
#    z 0.000000 0.000000 1.599440 
# 
# From -- ./inp_files/6209.got.cif
#   From: 2010.05.17/outbox.cif.g08.bks.cpg/sg59_4_cif.got.tgz:6209.got - 2010.06.03 14:40:33.
