data_PCOD9450388
_publ_section_title
;
Structure prediction by ZEFSAII (Michael W. Deem and Ramdas Pophale) SiO2 
 PCOD9450388
Probable space group: P M M N
;
_chemical_formula_sum "Si O2"
_cell_formula_units_Z 40
_cell_length_a 15.142121
_cell_length_b 9.354716
_cell_length_c 13.204830
_cell_angle_alpha 90.000000
_cell_angle_beta 90.000000
_cell_angle_gamma 90.000000
_cell_volume 1870.467360
_symmetry_space_group_name_H-M "P M M N"
_symmetry_group_IT_number 59
_space_group.IT_coordinate_system_code '2'
_symmetry_cell_setting 'orthorhombic'
loop_
_space_group_symop_operation_xyz
x,y,z
1/2-x,1/2-y,z
1/2+x,-y,-z
-x,1/2+y,-z
-x,-y,-z
1/2+x,1/2+y,-z
1/2-x,y,z
x,1/2-y,z
loop_
_atom_site_type_symbol
_atom_site_label
_atom_site_fract_x
_atom_site_fract_y
_atom_site_fract_z
Si Si1 0.858577 0.585900 0.648032
Si Si2 0.856888 0.586918 0.254028
Si Si3 0.590827 0.921403 0.024077
Si Si4 0.648430 0.090548 0.838121
Si Si5 0.358133 0.913423 0.551279
O O1 0.750000 0.588031 0.649574
O O2 0.887332 0.750000 0.652144
O O3 0.892262 0.497320 0.745146
O O4 0.885233 0.508502 0.544465
O O5 0.750000 0.586797 0.255886
O O6 0.886052 0.750000 0.274454
O O7 0.887432 0.482560 0.342877
O O8 0.883904 0.548423 0.140004
O O9 0.589665 0.750000 0.010785
O O10 0.649950 0.996661 0.939275
O O11 0.500000 0.000000 0.000000
O O12 0.750000 0.110200 0.808580
O O13 0.609172 0.250000 0.853034
O O14 0.250000 0.913386 0.551701
O O15 0.386953 0.750000 0.540438
#
# Coordination Sequence:
#
# PCOD9450388 Si02
#       5
#     8   8   8   8   8
#     4   9  16  27  46  73 105 138 170 206 251 303
#     4   9  18  33  53  76 102 134 172 212 254 304
#     4  11  23  38  55  75 103 139 178 219 264 314
#     4  10  20  34  54  80 108 137 173 217 261 307
#     4   9  16  26  44  73 106 135 165 206 254 301
#
# _framework density 21.385027999999998
#
# number of rings (size 3 to 8) (size 9 to 14) (size 15 to 20)
#    0.000    2.400    0.000    3.000    0.000    8.400 
#    0.000    2.000    0.000    1.200    0.000    0.000 
#    0.000    0.000    0.000    0.000    0.000    0.000 
#
# Total GULP energy -223338.960393 kJ/mol
# GULP energy per Si atom -5583.474010 kJ/mol
# Density = 2.133636 g / cm^3
# Si number density = 21.385028 Si / 1000 Ang^3
#
#
#
# Elastic Constant Matrix: (Units=GPa)
#
#
# Indices 1 2 3 4 5 6 
#
# 1 20.6135 9.2472 1.0817 0.0000 0.0000 0.0000
# 2 9.2472 191.6838 127.8778 0.0000 0.0000 0.0000
# 3 1.0817 127.8778 175.8383 0.0000 0.0000 0.0000
# 4 0.0000 0.0000 0.0000 36.5813 0.0000 0.0000
# 5 0.0000 0.0000 0.0000 0.0000 -14.8017 0.0000
# 6 0.0000 0.0000 0.0000 0.0000 0.0000 6.5027
#
#
#
# Elastic Compliance Matrix: (Units=1/GPa)
#
#
# Indices 1 2 3 4 5 6 
#
# 1 0.050298 -0.004312 0.002827 0.000000 0.000000 0.000000
# 2 -0.004312 0.010503 -0.007612 0.000000 0.000000 0.000000
# 3 0.002827 -0.007612 0.011205 0.000000 0.000000 0.000000
# 4 0.000000 0.000000 0.000000 0.027336 0.000000 0.000000
# 5 0.000000 0.000000 0.000000 0.000000 -0.067560 0.000000
# 6 0.000000 0.000000 0.000000 0.000000 0.000000 0.153783
#
#
# Mechanical properties :
#
#
# Convention : Reuss Voigt Hill
#
# Bulk Modulus (GPa) = 18.58336 73.83877 46.21107
# Shear Modulus (GPa) = 22.55325 22.31837 22.43581
#
# Velocity S-wave (km/s) = 3.25103 3.23405 3.24255
# Velocity P-wave (km/s) = 4.77504 6.96769 5.97284
#
# Compressibility (1/GPa) = 0.05381159
#
# Stress axis : x y z
#
# Youngs Moduli (GPa) = 19.88151 95.21151 89.24408
#
# Poissons Ratio (x) = 0.41057 -0.25226
# Poissons Ratio (y) = 0.08573 0.67930
# Poissons Ratio (z) = -0.05620 0.72472
#
# Static dielectric constant tensor:
#      x y z
#    x 1.977590 0.000000 0.000000 
#    y 0.000000 1.753490 0.000000 
#    z 0.000000 0.000000 1.761290 
# 
# From -- ./inp_files/13827.got.cif
#   From: 2010.05.17/outbox.cif.g08.bks.cpg/sg59_7_cif.got.tgz:13827.got - 2010.06.03 14:40:33.
