data_PCOD9450784
_publ_section_title
;
Structure prediction by ZEFSAII (Michael W. Deem and Ramdas Pophale) SiO2 
 PCOD9450784
Probable space group: P M M N
;
_chemical_formula_sum "Si O2"
_cell_formula_units_Z 52
_cell_length_a 10.973743
_cell_length_b 28.835678
_cell_length_c 9.893214
_cell_angle_alpha 90.000000
_cell_angle_beta 90.000000
_cell_angle_gamma 90.000000
_cell_volume 3130.562334
_symmetry_space_group_name_H-M "P M M N"
_symmetry_group_IT_number 59
_space_group.IT_coordinate_system_code '2'
_symmetry_cell_setting 'orthorhombic'
loop_
_space_group_symop_operation_xyz
x,y,z
1/2-x,1/2-y,z
1/2+x,-y,-z
-x,1/2+y,-z
-x,-y,-z
1/2+x,1/2+y,-z
1/2-x,y,z
x,1/2-y,z
loop_
_atom_site_type_symbol
_atom_site_label
_atom_site_fract_x
_atom_site_fract_y
_atom_site_fract_z
Si Si1 0.962160 0.053589 0.838259
Si Si2 0.443886 0.696827 0.688355
Si Si3 0.602231 0.965548 0.432143
Si Si4 0.250000 0.697071 0.448432
Si Si5 0.750000 0.194859 0.073662
Si Si6 0.389825 0.449874 0.103879
Si Si7 0.106304 0.389716 0.352795
Si Si8 0.750000 0.371400 0.807388
O O1 0.867073 0.094264 0.804970
O O2 0.059640 0.042384 0.720961
O O3 0.895669 0.004752 0.868151
O O4 0.032294 0.064460 0.975784
O O5 0.485385 0.750000 0.696697
O O6 0.361752 0.692275 0.553310
O O7 0.363994 0.687527 0.823552
O O8 0.546945 0.659369 0.669832
O O9 0.750000 0.978066 0.445060
O O10 0.584369 0.916582 0.508084
O O11 0.500000 0.000000 0.500000
O O12 0.250000 0.750000 0.395503
O O13 0.250000 0.661183 0.325425
O O14 0.750000 0.250000 0.035333
O O15 0.750000 0.160909 0.943622
O O16 0.250000 0.436955 0.081361
O O17 0.438851 0.424289 0.236025
O O18 0.250000 0.385520 0.339118
#
# Coordination Sequence:
#
# PCOD9450784 Si02
#       8
#     8   8   8   4   4   8   8   4
#     4  11  22  34  52  77 106 142 185 226 269 325
#     4   9  18  36  55  78 107 140 180 223 280 338
#     4  11  23  39  56  78 111 148 189 232 279 326
#     4   9  19  35  55  77 109 139 167 226 284 326
#     4   9  19  35  55  81 115 143 179 236 285 324
#     4  10  20  37  51  70 107 143 181 222 273 316
#     4  10  20  35  55  77 107 142 178 230 275 322
#     4  12  21  32  56  84 110 138 195 226 271 346
#
# _framework density 16.610434999999999
#
# number of rings (size 3 to 8) (size 9 to 14) (size 15 to 20)
#    0.000    1.846    2.308    3.462    1.077    0.308 
#    2.769    0.000    0.000    0.000    0.000    0.000 
#    0.000   22.154    0.000    0.000    0.000    0.000 
#
# Total GULP energy -289639.533451 kJ/mol
# GULP energy per Si atom -5569.991028 kJ/mol
# Density = 1.657263 g / cm^3
# Si number density = 16.610435 Si / 1000 Ang^3
#
#
#
# Elastic Constant Matrix: (Units=GPa)
#
#
# Indices 1 2 3 4 5 6 
#
# 1 46.9386 20.2506 15.7015 0.0000 0.0000 0.0000
# 2 20.2506 54.0005 8.3634 0.0000 0.0000 0.0000
# 3 15.7015 8.3634 62.5055 0.0000 0.0000 0.0000
# 4 0.0000 0.0000 0.0000 22.3886 0.0000 0.0000
# 5 0.0000 0.0000 0.0000 0.0000 -32.8831 0.0000
# 6 0.0000 0.0000 0.0000 0.0000 0.0000 34.2070
#
#
#
# Elastic Compliance Matrix: (Units=1/GPa)
#
#
# Indices 1 2 3 4 5 6 
#
# 1 0.027200 -0.009335 -0.005584 0.000000 0.000000 0.000000
# 2 -0.009335 0.022114 -0.000614 0.000000 0.000000 0.000000
# 3 -0.005584 -0.000614 0.017483 0.000000 0.000000 0.000000
# 4 0.000000 0.000000 0.000000 0.044666 0.000000 0.000000
# 5 0.000000 0.000000 0.000000 0.000000 -0.030411 0.000000
# 6 0.000000 0.000000 0.000000 0.000000 0.000000 0.029234
#
#
# Mechanical properties :
#
#
# Convention : Reuss Voigt Hill
#
# Bulk Modulus (GPa) = 27.98630 28.00840 27.99735
# Shear Modulus (GPa) = 32.62385 12.68443 22.65414
#
# Velocity S-wave (km/s) = 4.43658 2.76641 3.69704
# Velocity P-wave (km/s) = 6.56730 5.20601 5.92588
#
# Compressibility (1/GPa) = 0.03573177
#
# Stress axis : x y z
#
# Youngs Moduli (GPa) = 36.76507 45.21973 57.19735
#
# Poissons Ratio (x) = 0.42214 0.31936
# Poissons Ratio (y) = 0.34321 0.03511
# Poissons Ratio (z) = 0.20528 0.02776
#
# Static dielectric constant tensor:
#      x y z
#    x 1.581750 0.000000 0.000000 
#    y 0.000000 1.557110 0.000000 
#    z 0.000000 0.000000 1.559780 
# 
# From -- ./inp_files/7807.got.cif
#   From: 2010.05.17/outbox.cif.g08.bks.cpg/sg59_4_cif.got.tgz:7807.got - 2010.06.03 14:40:33.
