data_PCOD9450464
_publ_section_title
;
Structure prediction by ZEFSAII (Michael W. Deem and Ramdas Pophale) SiO2 
 PCOD9450464
Probable space group: P M M N
;
_chemical_formula_sum "Si O2"
_cell_formula_units_Z 64
_cell_length_a 8.341957
_cell_length_b 15.094527
_cell_length_c 25.088261
_cell_angle_alpha 90.000000
_cell_angle_beta 90.000000
_cell_angle_gamma 90.000000
_cell_volume 3159.061019
_symmetry_space_group_name_H-M "P M M N"
_symmetry_group_IT_number 59
_space_group.IT_coordinate_system_code '2'
_symmetry_cell_setting 'orthorhombic'
loop_
_space_group_symop_operation_xyz
x,y,z
1/2-x,1/2-y,z
1/2+x,-y,-z
-x,1/2+y,-z
-x,-y,-z
1/2+x,1/2+y,-z
1/2-x,y,z
x,1/2-y,z
loop_
_atom_site_type_symbol
_atom_site_label
_atom_site_fract_x
_atom_site_fract_y
_atom_site_fract_z
Si Si1 0.444337 0.349184 0.368296
Si Si2 0.060661 0.346873 0.596571
Si Si3 0.560816 0.349254 0.099077
Si Si4 0.439123 0.975478 0.317497
Si Si5 0.553636 0.147818 0.778168
Si Si6 0.061068 0.350410 0.979892
Si Si7 0.058567 0.901477 0.513905
Si Si8 0.440631 0.961570 0.117866
O O1 0.250000 0.351398 0.368008
O O2 0.496622 0.250000 0.354218
O O3 0.504186 0.426314 0.328737
O O4 0.498629 0.371434 0.428355
O O5 0.250000 0.364286 0.601306
O O6 0.024821 0.250000 0.619959
O O7 0.965312 0.421322 0.628080
O O8 0.013346 0.346480 0.534902
O O9 0.750000 0.350906 0.109060
O O10 0.499449 0.250000 0.113289
O O11 0.483947 0.435470 0.125831
O O12 0.529962 0.360154 0.035704
O O13 0.250000 0.984641 0.307088
O O14 0.505167 0.914130 0.270283
O O15 0.750000 0.149385 0.776543
O O16 0.500418 0.250000 0.774698
O O17 0.506310 0.100084 0.833053
O O18 0.250000 0.356887 0.991499
O O19 0.027803 0.250000 0.959600
O O20 0.014699 0.422346 0.936187
O O21 0.250000 0.897343 0.513008
O O22 0.000000 0.000000 0.500000
O O23 0.250000 0.954333 0.113192
#
# Coordination Sequence:
#
# PCOD9450464 Si02
#       8
#     8   8   8   8   8   8   8   8
#     4  10  21  37  57  83 115 148 184 230 280 329
#     4  11  23  37  55  82 115 147 180 224 277 330
#     4  10  21  37  56  79 111 151 192 234 283 338
#     4  10  20  37  61  83 107 145 189 232 277 328
#     4   9  19  36  58  85 114 144 184 232 280 332
#     4  10  20  34  54  82 116 152 192 236 281 338
#     4  12  23  36  56  82 113 149 186 226 274 330
#     4  11  21  34  55  82 114 151 190 237 289 338
#
# _framework density 20.259186
#
# number of rings (size 3 to 8) (size 9 to 14) (size 15 to 20)
#    0.000    1.625    1.250    4.125    0.000    5.250 
#    0.000    1.875    0.000    5.250    0.000    0.000 
#    0.000    0.000    0.000    0.000    0.000    0.000 
#
# Total GULP energy -357465.188550 kJ/mol
# GULP energy per Si atom -5585.393571 kJ/mol
# Density = 2.021308 g / cm^3
# Si number density = 20.259186 Si / 1000 Ang^3
#
#
#
# Elastic Constant Matrix: (Units=GPa)
#
#
# Indices 1 2 3 4 5 6 
#
# 1 12.2849 0.9655 -9.0646 0.0000 0.0000 0.0000
# 2 0.9655 153.2661 39.0714 0.0000 0.0000 0.0000
# 3 -9.0646 39.0714 50.4451 0.0000 0.0000 0.0000
# 4 0.0000 0.0000 0.0000 31.1085 0.0000 0.0000
# 5 0.0000 0.0000 0.0000 0.0000 13.0955 0.0000
# 6 0.0000 0.0000 0.0000 0.0000 0.0000 20.5965
#
#
#
# Elastic Compliance Matrix: (Units=1/GPa)
#
#
# Indices 1 2 3 4 5 6 
#
# 1 0.098644 -0.006405 0.022686 0.000000 0.000000 0.000000
# 2 -0.006405 0.008546 -0.007770 0.000000 0.000000 0.000000
# 3 0.022686 -0.007770 0.029918 0.000000 0.000000 0.000000
# 4 0.000000 0.000000 0.000000 0.032146 0.000000 0.000000
# 5 0.000000 0.000000 0.000000 0.000000 0.076362 0.000000
# 6 0.000000 0.000000 0.000000 0.000000 0.000000 0.048552
#
#
# Mechanical properties :
#
#
# Convention : Reuss Voigt Hill
#
# Bulk Modulus (GPa) = 6.48800 30.88230 18.68515
# Shear Modulus (GPa) = 15.21977 25.29503 20.25740
#
# Velocity S-wave (km/s) = 2.74387 3.53735 3.16557
# Velocity P-wave (km/s) = 3.63977 5.65336 4.75438
#
# Compressibility (1/GPa) = 0.15413065
#
# Stress axis : x y z
#
# Youngs Moduli (GPa) = 10.13750 117.01858 33.42473
#
# Poissons Ratio (x) = 0.74946 -0.75828
# Poissons Ratio (y) = 0.06493 0.25970
# Poissons Ratio (z) = -0.22998 0.90921
#
# Static dielectric constant tensor:
#      x y z
#    x 1.697670 0.000000 0.000000 
#    y 0.000000 1.765930 0.000000 
#    z 0.000000 0.000000 1.691960 
# 
# From -- ./inp_files/31538.got.cif
#   From: 2010.05.17/outbox.cif.g08.bks.cpg/sg59_16_cif.got.tgz:31538.got - 2010.06.03 14:40:33.
