data_PCOD9450819
_publ_section_title
;
Structure prediction by ZEFSAII (Michael W. Deem and Ramdas Pophale) SiO2 
 PCOD9450819
Probable space group: P M M N
;
_chemical_formula_sum "Si O2"
_cell_formula_units_Z 48
_cell_length_a 26.245645
_cell_length_b 8.866296
_cell_length_c 12.176170
_cell_angle_alpha 90.000000
_cell_angle_beta 90.000000
_cell_angle_gamma 90.000000
_cell_volume 2833.414938
_symmetry_space_group_name_H-M "P M M N"
_symmetry_group_IT_number 59
_space_group.IT_coordinate_system_code '2'
_symmetry_cell_setting 'orthorhombic'
loop_
_space_group_symop_operation_xyz
x,y,z
1/2-x,1/2-y,z
1/2+x,-y,-z
-x,1/2+y,-z
-x,-y,-z
1/2+x,1/2+y,-z
1/2-x,y,z
x,1/2-y,z
loop_
_atom_site_type_symbol
_atom_site_label
_atom_site_fract_x
_atom_site_fract_y
_atom_site_fract_z
Si Si1 0.445072 0.929259 0.032013
Si Si2 0.881433 0.931764 0.512998
Si Si3 0.384918 0.423905 0.838543
Si Si4 0.970350 0.576333 0.350216
Si Si5 0.190323 0.930240 0.666711
Si Si6 0.429363 0.428482 0.267099
O O1 0.450228 0.750000 0.029254
O O2 0.428982 0.983656 0.152929
O O3 0.500000 0.000000 0.000000
O O4 0.403541 0.985487 0.944267
O O5 0.876403 0.750000 0.502901
O O6 0.934496 0.970819 0.451157
O O7 0.887435 0.970463 0.640922
O O8 0.837090 0.008748 0.443263
O O9 0.373870 0.250000 0.866389
O O10 0.432594 0.424236 0.754236
O O11 0.338854 0.496250 0.770011
O O12 0.987842 0.750000 0.366514
O O13 0.016653 0.467942 0.323284
O O14 0.250000 0.967667 0.667081
O O15 0.184439 0.750000 0.671662
O O16 0.426077 0.250000 0.246435
#
# Coordination Sequence:
#
# PCOD9450819 Si02
#       6
#     8   8   8   8   8   8
#     4  12  23  35  52  75 108 150 188 223 264 317
#     4   9  20  35  51  75 106 140 180 220 265 320
#     4  10  20  35  55  80 108 140 182 226 268 318
#     4   9  17  30  48  72 104 140 178 218 258 311
#     4  10  21  37  59  85 109 136 174 222 276 327
#     4  11  21  32  49  74 107 146 183 220 262 313
#
# _framework density 16.940688000000002
#
# number of rings (size 3 to 8) (size 9 to 14) (size 15 to 20)
#    0.000    1.833    1.667    4.500    0.000    5.333 
#    0.000    0.000    0.000    1.000    0.000    4.667 
#    0.000    0.000    0.000    0.000    0.000    0.000 
#
# Total GULP energy -267942.030045 kJ/mol
# GULP energy per Si atom -5582.125626 kJ/mol
# Density = 1.690213 g / cm^3
# Si number density = 16.940688 Si / 1000 Ang^3
#
#
#
# Elastic Constant Matrix: (Units=GPa)
#
#
# Indices 1 2 3 4 5 6 
#
# 1 91.0950 52.6341 61.0841 0.0000 0.0000 0.0000
# 2 52.6341 99.9090 71.7999 0.0000 0.0000 0.0000
# 3 61.0841 71.7999 141.2515 0.0000 0.0000 0.0000
# 4 0.0000 0.0000 0.0000 28.1005 0.0000 0.0000
# 5 0.0000 0.0000 0.0000 0.0000 5.5303 0.0000
# 6 0.0000 0.0000 0.0000 0.0000 0.0000 23.8868
#
#
#
# Elastic Compliance Matrix: (Units=1/GPa)
#
#
# Indices 1 2 3 4 5 6 
#
# 1 0.017442 -0.005937 -0.004525 0.000000 0.000000 0.000000
# 2 -0.005937 0.017791 -0.006476 0.000000 0.000000 0.000000
# 3 -0.004525 -0.006476 0.012328 0.000000 0.000000 0.000000
# 4 0.000000 0.000000 0.000000 0.035587 0.000000 0.000000
# 5 0.000000 0.000000 0.000000 0.000000 0.180822 0.000000
# 6 0.000000 0.000000 0.000000 0.000000 0.000000 0.041864
#
#
# Mechanical properties :
#
#
# Convention : Reuss Voigt Hill
#
# Bulk Modulus (GPa) = 73.07041 78.14353 75.60697
# Shear Modulus (GPa) = 14.52342 21.28599 17.90471
#
# Velocity S-wave (km/s) = 2.93116 3.54856 3.25454
# Velocity P-wave (km/s) = 7.39475 7.93836 7.67137
#
# Compressibility (1/GPa) = 0.01368543
#
# Stress axis : x y z
#
# Youngs Moduli (GPa) = 57.33229 56.20920 81.11526
#
# Poissons Ratio (x) = 0.33371 0.36705
# Poissons Ratio (y) = 0.34038 0.52529
# Poissons Ratio (z) = 0.25943 0.36400
#
# Static dielectric constant tensor:
#      x y z
#    x 1.547180 0.000000 0.000000 
#    y 0.000000 1.574300 0.000000 
#    z 0.000000 0.000000 1.595530 
# 
# From -- ./inp_files/18586.got.cif
#   From: 2010.05.17/outbox.cif.g08.bks.cpg/sg59_10_cif.got.tgz:18586.got - 2010.06.03 14:40:33.
