data_PCOD9450967
_publ_section_title
;
Structure prediction by ZEFSAII (Michael W. Deem and Ramdas Pophale) SiO2 
 PCOD9450967
Probable space group: P M M N
;
_chemical_formula_sum "Si O2"
_cell_formula_units_Z 64
_cell_length_a 31.987586
_cell_length_b 8.313072
_cell_length_c 12.032169
_cell_angle_alpha 90.000000
_cell_angle_beta 90.000000
_cell_angle_gamma 90.000000
_cell_volume 3199.535489
_symmetry_space_group_name_H-M "P M M N"
_symmetry_group_IT_number 59
_space_group.IT_coordinate_system_code '2'
_symmetry_cell_setting 'orthorhombic'
loop_
_space_group_symop_operation_xyz
x,y,z
1/2-x,1/2-y,z
1/2+x,-y,-z
-x,1/2+y,-z
-x,-y,-z
1/2+x,1/2+y,-z
1/2-x,y,z
x,1/2-y,z
loop_
_atom_site_type_symbol
_atom_site_label
_atom_site_fract_x
_atom_site_fract_y
_atom_site_fract_z
Si Si1 0.201723 0.560886 0.081252
Si Si2 0.300659 0.065512 0.321071
Si Si3 0.380298 0.440893 0.963020
Si Si4 0.477795 0.945384 0.334395
Si Si5 0.036794 0.558804 0.081780
Si Si6 0.436500 0.939514 0.555974
Si Si7 0.632257 0.560052 0.282187
Si Si8 0.797789 0.947375 0.437480
O O1 0.250000 0.502532 0.065434
O O2 0.201082 0.750000 0.056628
O O3 0.190353 0.533954 0.210980
O O4 0.165820 0.475652 0.010662
O O5 0.250000 0.070117 0.330954
O O6 0.314843 0.250000 0.304543
O O7 0.315172 0.003153 0.441195
O O8 0.387528 0.250000 0.962419
O O9 0.417759 0.514142 0.034715
O O10 0.381559 0.506297 0.836650
O O11 0.482790 0.750000 0.335966
O O12 0.468882 0.999459 0.208946
O O13 0.442630 0.984284 0.426641
O O14 0.519912 0.023559 0.381858
O O15 0.033515 0.750000 0.086048
O O16 0.000000 0.500000 0.000000
O O17 0.427429 0.750000 0.562698
O O18 0.401905 0.035141 0.623085
O O19 0.638594 0.750000 0.264330
O O20 0.674738 0.494157 0.335217
O O21 0.750000 0.998458 0.426357
O O22 0.798290 0.750000 0.439962
#
# Coordination Sequence:
#
# PCOD9450967 Si02
#       8
#     8   8   8   8   8   8   8   8
#     4  10  21  37  57  81 112 149 186 229 281 331
#     4   8  14  28  52  79 105 134 172 219 270 326
#     4  11  24  39  56  81 112 148 192 234 275 329
#     4   9  20  38  58  82 111 142 176 217 266 319
#     4  11  23  40  61  84 115 151 187 230 277 326
#     4  10  20  35  57  83 110 140 174 215 266 324
#     4  10  21  36  54  77 107 142 178 223 274 319
#     4   8  15  30  53  79 104 134 176 222 267 317
#
# _framework density 20.002904000000001
#
# number of rings (size 3 to 8) (size 9 to 14) (size 15 to 20)
#    0.000    2.375    0.000    3.000    0.000    7.750 
#    0.000    4.375    0.000    1.125    0.000    0.000 
#    0.000    0.000    0.000    0.000    0.000    0.000 
#
# Total GULP energy -357004.465964 kJ/mol
# GULP energy per Si atom -5578.194781 kJ/mol
# Density = 1.995738 g / cm^3
# Si number density = 20.002904 Si / 1000 Ang^3
#
#
#
# Elastic Constant Matrix: (Units=GPa)
#
#
# Indices 1 2 3 4 5 6 
#
# 1 59.3686 -6.4484 40.6094 0.0000 0.0000 0.0000
# 2 -6.4484 8.7617 7.2090 0.0000 0.0000 0.0000
# 3 40.6094 7.2090 142.7217 0.0000 0.0000 0.0000
# 4 0.0000 0.0000 0.0000 19.1387 0.0000 0.0000
# 5 0.0000 0.0000 0.0000 0.0000 27.4428 0.0000
# 6 0.0000 0.0000 0.0000 0.0000 0.0000 23.9094
#
#
#
# Elastic Compliance Matrix: (Units=1/GPa)
#
#
# Indices 1 2 3 4 5 6 
#
# 1 0.025503 0.025813 -0.008560 0.000000 0.000000 0.000000
# 2 0.025813 0.145208 -0.014679 0.000000 0.000000 0.000000
# 3 -0.008560 -0.014679 0.010184 0.000000 0.000000 0.000000
# 4 0.000000 0.000000 0.000000 0.052250 0.000000 0.000000
# 5 0.000000 0.000000 0.000000 0.000000 0.036439 0.000000
# 6 0.000000 0.000000 0.000000 0.000000 0.000000 0.041825
#
#
# Mechanical properties :
#
#
# Convention : Reuss Voigt Hill
#
# Bulk Modulus (GPa) = 5.37514 32.62134 18.99824
# Shear Modulus (GPa) = 13.57674 25.39696 19.48685
#
# Velocity S-wave (km/s) = 2.60809 3.56710 3.12461
# Velocity P-wave (km/s) = 3.42965 5.77142 4.74720
#
# Compressibility (1/GPa) = 0.18604165
#
# Stress axis : x y z
#
# Youngs Moduli (GPa) = 39.21100 6.88666 98.19497
#
# Poissons Ratio (x) = -0.17776 0.84058
# Poissons Ratio (y) = -1.01214 1.44143
# Poissons Ratio (z) = 0.33566 0.10109
#
# Static dielectric constant tensor:
#      x y z
#    x 1.699780 0.000000 0.000000 
#    y 0.000000 1.709960 0.000000 
#    z 0.000000 0.000000 1.732490 
# 
# From -- ./inp_files/19325.got.cif
#   From: 2010.05.17/outbox.cif.g08.bks.cpg/sg59_10_cif.got.tgz:19325.got - 2010.06.03 14:40:33.
