data_PCOD9451880
_publ_section_title
;
Structure prediction by ZEFSAII (Michael W. Deem and Ramdas Pophale) SiO2 
 PCOD9451880
Probable space group: P M M N
;
_chemical_formula_sum "Si O2"
_cell_formula_units_Z 64
_cell_length_a 20.814111
_cell_length_b 17.190465
_cell_length_c 9.991380
_cell_angle_alpha 90.000000
_cell_angle_beta 90.000000
_cell_angle_gamma 90.000000
_cell_volume 3574.958194
_symmetry_space_group_name_H-M "P M M N"
_symmetry_group_IT_number 59
_space_group.IT_coordinate_system_code '2'
_symmetry_cell_setting 'orthorhombic'
loop_
_space_group_symop_operation_xyz
x,y,z
1/2-x,1/2-y,z
1/2+x,-y,-z
-x,1/2+y,-z
-x,-y,-z
1/2+x,1/2+y,-z
1/2-x,y,z
x,1/2-y,z
loop_
_atom_site_type_symbol
_atom_site_label
_atom_site_fract_x
_atom_site_fract_y
_atom_site_fract_z
Si Si1 0.393012 0.658967 0.913156
Si Si2 0.954431 0.659623 0.948040
Si Si3 0.366390 0.925853 0.426265
Si Si4 0.502543 0.341435 0.513707
Si Si5 0.450891 0.051131 0.278847
Si Si6 0.825054 0.464428 0.278069
Si Si7 0.440808 0.421759 0.767771
Si Si8 0.678691 0.340643 0.826349
O O1 0.374779 0.750000 0.897961
O O2 0.469866 0.654528 0.909521
O O3 0.356736 0.606072 0.806259
O O4 0.371571 0.633015 0.061920
O O5 0.935210 0.750000 0.935813
O O6 0.922341 0.600080 0.843878
O O7 0.945410 0.628696 0.098068
O O8 0.424558 0.866021 0.454941
O O9 0.331953 0.944848 0.564652
O O10 0.325033 0.888180 0.309277
O O11 0.399709 0.001885 0.363106
O O12 0.496511 0.250000 0.493829
O O13 0.482580 0.389050 0.382788
O O14 0.459861 0.370805 0.638568
O O15 0.505404 0.990431 0.229233
O O16 0.750000 0.475298 0.244252
O O17 0.871582 0.537717 0.248587
O O18 0.750000 0.346379 0.885735
O O19 0.665791 0.250000 0.796549
#
# Coordination Sequence:
#
# PCOD9451880 Si02
#       8
#     8   8   8   8   8   8   8   8
#     4  10  21  38  57  85 121 153 187 231 289 352
#     4  11  22  36  61  91 116 145 184 242 307 355
#     4  11  21  37  55  85 114 149 189 241 288 338
#     4  11  20  35  59  85 115 149 185 236 302 347
#     4  11  20  36  58  84 117 145 177 242 303 341
#     4  12  24  38  57  82 119 164 200 230 274 341
#     4  11  21  38  56  88 121 151 191 243 286 349
#     4  10  21  36  53  77 113 156 197 228 264 331
#
# _framework density 17.902308000000001
#
# number of rings (size 3 to 8) (size 9 to 14) (size 15 to 20)
#    0.000    1.125    3.750    4.500    1.750    3.750 
#    0.000    0.000    0.000    1.500    0.000    0.000 
#    0.000    0.000    0.000    0.000    0.000    0.000 
#
# Total GULP energy -357532.301298 kJ/mol
# GULP energy per Si atom -5586.442208 kJ/mol
# Density = 1.786156 g / cm^3
# Si number density = 17.902308 Si / 1000 Ang^3
#
#
#
# Elastic Constant Matrix: (Units=GPa)
#
#
# Indices 1 2 3 4 5 6 
#
# 1 57.1433 9.6099 1.2487 0.0000 0.0000 0.0000
# 2 9.6099 83.5312 14.0628 0.0000 0.0000 0.0000
# 3 1.2487 14.0628 64.7661 0.0000 0.0000 0.0000
# 4 0.0000 0.0000 0.0000 29.3227 0.0000 0.0000
# 5 0.0000 0.0000 0.0000 0.0000 3.9827 0.0000
# 6 0.0000 0.0000 0.0000 0.0000 0.0000 -9.9573
#
#
#
# Elastic Compliance Matrix: (Units=1/GPa)
#
#
# Indices 1 2 3 4 5 6 
#
# 1 0.017846 -0.002071 0.000106 0.000000 0.000000 0.000000
# 2 -0.002071 0.012666 -0.002710 0.000000 0.000000 0.000000
# 3 0.000106 -0.002710 0.016027 0.000000 0.000000 0.000000
# 4 0.000000 0.000000 0.000000 0.034103 0.000000 0.000000
# 5 0.000000 0.000000 0.000000 0.000000 0.251084 0.000000
# 6 0.000000 0.000000 0.000000 0.000000 0.000000 -0.100429
#
#
# Mechanical properties :
#
#
# Convention : Reuss Voigt Hill
#
# Bulk Modulus (GPa) = 26.89082 28.36483 27.62782
# Shear Modulus (GPa) = 19.75941 16.70424 18.23183
#
# Velocity S-wave (km/s) = 3.32586 3.05795 3.19471
# Velocity P-wave (km/s) = 5.45911 5.32416 5.39206
#
# Compressibility (1/GPa) = 0.03718742
#
# Stress axis : x y z
#
# Youngs Moduli (GPa) = 56.03556 78.95085 62.39611
#
# Poissons Ratio (x) = 0.16350 -0.00659
# Poissons Ratio (y) = 0.11604 0.16911
# Poissons Ratio (z) = -0.00592 0.21398
#
# Static dielectric constant tensor:
#      x y z
#    x 1.613520 0.000000 0.000000 
#    y 0.000000 1.607510 0.000000 
#    z 0.000000 0.000000 1.629600 
# 
# From -- ./inp_files/11635.got.cif
#   From: 2010.05.17/outbox.cif.g08.bks.cpg/sg59_6_cif.got.tgz:11635.got - 2010.06.03 14:40:33.
