data_PCOD9451035
_publ_section_title
;
Structure prediction by ZEFSAII (Michael W. Deem and Ramdas Pophale) SiO2 
 PCOD9451035
Probable space group: P M M N
;
_chemical_formula_sum "Si O2"
_cell_formula_units_Z 48
_cell_length_a 7.815602
_cell_length_b 13.563703
_cell_length_c 20.597787
_cell_angle_alpha 90.000000
_cell_angle_beta 90.000000
_cell_angle_gamma 90.000000
_cell_volume 2183.540592
_symmetry_space_group_name_H-M "P M M N"
_symmetry_group_IT_number 59
_space_group.IT_coordinate_system_code '2'
_symmetry_cell_setting 'orthorhombic'
loop_
_space_group_symop_operation_xyz
x,y,z
1/2-x,1/2-y,z
1/2+x,-y,-z
-x,1/2+y,-z
-x,-y,-z
1/2+x,1/2+y,-z
1/2-x,y,z
x,1/2-y,z
loop_
_atom_site_type_symbol
_atom_site_label
_atom_site_fract_x
_atom_site_fract_y
_atom_site_fract_z
Si Si1 0.443352 0.544014 0.695209
Si Si2 0.451790 0.926904 0.092660
Si Si3 0.054851 0.546172 0.432626
Si Si4 0.454243 0.250000 0.512847
Si Si5 0.050052 0.141480 0.770033
Si Si6 0.958515 0.250000 0.358248
Si Si7 0.542824 0.361070 0.051227
O O1 0.250000 0.561043 0.720663
O O2 0.439535 0.493607 0.624716
O O3 0.527390 0.458207 0.738835
O O4 0.518470 0.651762 0.679563
O O5 0.250000 0.907234 0.097381
O O6 0.539423 0.874708 0.153023
O O7 0.481177 0.045080 0.092412
O O8 0.511564 0.885291 0.022972
O O9 0.250000 0.520294 0.416835
O O10 0.000000 0.500000 0.500000
O O11 0.031944 0.659174 0.448582
O O12 0.250000 0.250000 0.518616
O O13 0.493024 0.250000 0.435008
O O14 0.250000 0.142931 0.750095
O O15 0.977683 0.250000 0.753113
O O16 0.750000 0.250000 0.358089
O O17 0.750000 0.362934 0.052750
O O18 0.488005 0.250000 0.069479
#
# Coordination Sequence:
#
# PCOD9451035 Si02
#       7
#     8   8   8   4   8   4   8
#     4  10  22  40  61  86 116 154 200 245 294 350
#     4  10  20  35  57  86 119 153 193 242 295 348
#     4  12  24  39  60  89 120 152 193 242 301 362
#     4  12  24  38  60  88 120 156 193 244 301 358
#     4  10  22  40  60  84 117 158 201 243 290 350
#     4  10  20  38  62  84 114 152 195 244 295 356
#     4   9  18  34  57  85 117 154 196 241 290 348
#
# _framework density 21.982645999999999
#
# number of rings (size 3 to 8) (size 9 to 14) (size 15 to 20)
#    0.000    1.667    1.667    3.250    1.167    2.667 
#    1.500    0.000    0.000    0.000    0.000    0.000 
#    0.000    0.000    0.000    0.000    0.000    0.000 
#
# Total GULP energy -267922.252115 kJ/mol
# GULP energy per Si atom -5581.713586 kJ/mol
# Density = 2.193261 g / cm^3
# Si number density = 21.982646 Si / 1000 Ang^3
#
#
#
# Elastic Constant Matrix: (Units=GPa)
#
#
# Indices 1 2 3 4 5 6 
#
# 1 60.6277 -5.9498 -6.5732 0.0000 0.0000 0.0000
# 2 -5.9498 178.7783 24.4544 0.0000 0.0000 0.0000
# 3 -6.5732 24.4544 44.2158 0.0000 0.0000 0.0000
# 4 0.0000 0.0000 0.0000 25.6135 0.0000 0.0000
# 5 0.0000 0.0000 0.0000 0.0000 18.8343 0.0000
# 6 0.0000 0.0000 0.0000 0.0000 0.0000 16.8377
#
#
#
# Elastic Compliance Matrix: (Units=1/GPa)
#
#
# Indices 1 2 3 4 5 6 
#
# 1 0.016773 0.000235 0.002364 0.000000 0.000000 0.000000
# 2 0.000235 0.006055 -0.003314 0.000000 0.000000 0.000000
# 3 0.002364 -0.003314 0.024800 0.000000 0.000000 0.000000
# 4 0.000000 0.000000 0.000000 0.039042 0.000000 0.000000
# 5 0.000000 0.000000 0.000000 0.000000 0.053095 0.000000
# 6 0.000000 0.000000 0.000000 0.000000 0.000000 0.059391
#
#
# Mechanical properties :
#
#
# Convention : Reuss Voigt Hill
#
# Bulk Modulus (GPa) = 21.64589 34.16499 27.90544
# Shear Modulus (GPa) = 23.14972 30.36978 26.75975
#
# Velocity S-wave (km/s) = 3.24866 3.72093 3.49279
# Velocity P-wave (km/s) = 4.89284 5.83404 5.38404
#
# Compressibility (1/GPa) = 0.04619814
#
# Stress axis : x y z
#
# Youngs Moduli (GPa) = 59.61813 165.16351 40.32190
#
# Poissons Ratio (x) = -0.03880 -0.09531
# Poissons Ratio (y) = -0.01400 0.13361
# Poissons Ratio (z) = -0.14092 0.54730
#
# Static dielectric constant tensor:
#      x y z
#    x 1.767580 0.000000 0.000000 
#    y 0.000000 1.844090 0.000000 
#    z 0.000000 0.000000 1.755860 
# 
# From -- ./inp_files/25545.got.cif
#   From: 2010.05.17/outbox.cif.g08.bks.cpg/sg59_13_cif.got.tgz:25545.got - 2010.06.03 14:40:33.
