data_PCOD9451919
_publ_section_title
;
Structure prediction by ZEFSAII (Michael W. Deem and Ramdas Pophale) SiO2 
 PCOD9451919
Probable space group: P M M N
;
_chemical_formula_sum "Si O2"
_cell_formula_units_Z 40
_cell_length_a 9.344704
_cell_length_b 8.990850
_cell_length_c 26.219123
_cell_angle_alpha 90.000000
_cell_angle_beta 90.000000
_cell_angle_gamma 90.000000
_cell_volume 2202.847651
_symmetry_space_group_name_H-M "P M M N"
_symmetry_group_IT_number 59
_space_group.IT_coordinate_system_code '2'
_symmetry_cell_setting 'orthorhombic'
loop_
_space_group_symop_operation_xyz
x,y,z
1/2-x,1/2-y,z
1/2+x,-y,-z
-x,1/2+y,-z
-x,-y,-z
1/2+x,1/2+y,-z
1/2-x,y,z
x,1/2-y,z
loop_
_atom_site_type_symbol
_atom_site_label
_atom_site_fract_x
_atom_site_fract_y
_atom_site_fract_z
Si Si1 0.080783 0.928006 0.140638
Si Si2 0.584217 0.429215 0.350240
Si Si3 0.917703 0.072212 0.047396
Si Si4 0.417009 0.070429 0.452622
Si Si5 0.583557 0.428979 0.742342
O O1 0.250000 0.957124 0.132434
O O2 0.060427 0.750000 0.135321
O O3 0.046758 0.969168 0.199214
O O4 0.987333 0.012478 0.099363
O O5 0.750000 0.472778 0.356144
O O6 0.577952 0.250000 0.346963
O O7 0.493094 0.474713 0.399827
O O8 0.516004 0.497262 0.299560
O O9 0.750000 0.033533 0.045194
O O10 0.930943 0.250000 0.044732
O O11 0.000000 0.000000 0.000000
O O12 0.250000 0.027784 0.452745
O O13 0.425004 0.250000 0.456123
O O14 0.500000 0.000000 0.500000
O O15 0.750000 0.470543 0.733542
O O16 0.574593 0.250000 0.738746
#
# Coordination Sequence:
#
# PCOD9451919 Si02
#       5
#     8   8   8   8   8
#     4   9  19  37  59  82 109 141 179 222 266 315
#     4  10  21  36  54  78 109 143 179 221 267 315
#     4  11  24  39  56  81 111 142 179 222 267 318
#     4  10  21  37  57  80 106 139 179 221 268 322
#     4   9  19  36  57  81 109 142 180 221 265 314
#
# _framework density 18.158314000000001
#
# number of rings (size 3 to 8) (size 9 to 14) (size 15 to 20)
#    0.000    2.200    0.000    3.600    0.000    9.600 
#    0.000    6.000    0.000    0.000    0.000    0.000 
#    0.000    0.000    0.000    0.000    0.000    0.000 
#
# Total GULP energy -223403.026096 kJ/mol
# GULP energy per Si atom -5585.075652 kJ/mol
# Density = 1.811698 g / cm^3
# Si number density = 18.158314 Si / 1000 Ang^3
#
#
#
# Elastic Constant Matrix: (Units=GPa)
#
#
# Indices 1 2 3 4 5 6 
#
# 1 170.1022 59.0889 131.5634 0.0000 0.0000 0.0000
# 2 59.0889 25.7947 54.3650 0.0000 0.0000 0.0000
# 3 131.5634 54.3650 171.7943 0.0000 0.0000 0.0000
# 4 0.0000 0.0000 0.0000 40.2152 0.0000 0.0000
# 5 0.0000 0.0000 0.0000 0.0000 41.7327 0.0000
# 6 0.0000 0.0000 0.0000 0.0000 0.0000 32.7091
#
#
#
# Elastic Compliance Matrix: (Units=1/GPa)
#
#
# Indices 1 2 3 4 5 6 
#
# 1 0.029514 -0.059969 -0.003625 0.000000 0.000000 0.000000
# 2 -0.059969 0.238256 -0.029471 0.000000 0.000000 0.000000
# 3 -0.003625 -0.029471 0.017923 0.000000 0.000000 0.000000
# 4 0.000000 0.000000 0.000000 0.024866 0.000000 0.000000
# 5 0.000000 0.000000 0.000000 0.000000 0.023962 0.000000
# 6 0.000000 0.000000 0.000000 0.000000 0.000000 0.030573
#
#
# Mechanical properties :
#
#
# Convention : Reuss Voigt Hill
#
# Bulk Modulus (GPa) = 10.04399 95.30286 52.67343
# Shear Modulus (GPa) = 8.55559 31.10966 19.83263
#
# Velocity S-wave (km/s) = 2.17299 4.14363 3.30844
# Velocity P-wave (km/s) = 3.44082 8.68857 6.60797
#
# Compressibility (1/GPa) = 0.09956200
#
# Stress axis : x y z
#
# Youngs Moduli (GPa) = 33.88188 4.19717 55.79295
#
# Poissons Ratio (x) = 0.25170 0.20225
# Poissons Ratio (y) = 2.03187 1.64429
# Poissons Ratio (z) = 0.12282 0.12370
#
# Static dielectric constant tensor:
#      x y z
#    x 1.606150 0.000000 0.000000 
#    y 0.000000 1.607920 0.000000 
#    z 0.000000 0.000000 1.592870 
# 
# From -- ./inp_files/31112.got.cif
#   From: 2010.05.17/outbox.cif.g08.bks.cpg/sg59_16_cif.got.tgz:31112.got - 2010.06.03 14:40:33.
