data_PCOD9451791
_publ_section_title
;
Structure prediction by ZEFSAII (Michael W. Deem and Ramdas Pophale) SiO2 
 PCOD9451791
Probable space group: P M M N
;
_chemical_formula_sum "Si O2"
_cell_formula_units_Z 56
_cell_length_a 15.852763
_cell_length_b 8.589854
_cell_length_c 21.918794
_cell_angle_alpha 90.000000
_cell_angle_beta 90.000000
_cell_angle_gamma 90.000000
_cell_volume 2984.746175
_symmetry_space_group_name_H-M "P M M N"
_symmetry_group_IT_number 59
_space_group.IT_coordinate_system_code '2'
_symmetry_cell_setting 'orthorhombic'
loop_
_space_group_symop_operation_xyz
x,y,z
1/2-x,1/2-y,z
1/2+x,-y,-z
-x,1/2+y,-z
-x,-y,-z
1/2+x,1/2+y,-z
1/2-x,y,z
x,1/2-y,z
loop_
_atom_site_type_symbol
_atom_site_label
_atom_site_fract_x
_atom_site_fract_y
_atom_site_fract_z
Si Si1 0.346570 0.937884 0.574718
Si Si2 0.844082 0.563674 0.872097
Si Si3 0.095252 0.563083 0.000166
Si Si4 0.654456 0.439611 0.565852
Si Si5 0.344508 0.937925 0.865418
Si Si6 0.503032 0.436445 0.791476
Si Si7 0.001705 0.938133 0.348744
O O1 0.250000 0.983060 0.589698
O O2 0.350677 0.750000 0.577021
O O3 0.363096 0.985448 0.504292
O O4 0.416262 0.006803 0.619036
O O5 0.750000 0.517546 0.851723
O O6 0.849950 0.750000 0.872141
O O7 0.858753 0.504339 0.940810
O O8 0.917379 0.497414 0.829579
O O9 0.094147 0.750000 0.004303
O O10 0.137877 0.519433 0.935982
O O11 0.000000 0.500000 0.000000
O O12 0.750000 0.489210 0.581664
O O13 0.654511 0.250000 0.566739
O O14 0.582057 0.493446 0.611699
O O15 0.250000 0.986802 0.847875
O O16 0.348936 0.750000 0.861935
O O17 0.417666 0.006753 0.823747
O O18 0.504702 0.250000 0.792477
O O19 0.506438 0.490251 0.721328
O O20 0.002988 0.750000 0.349080
#
# Coordination Sequence:
#
# PCOD9451791 Si02
#       7
#     8   8   8   8   8   8   8
#     4   9  18  33  55  82 109 142 182 222 271 330
#     4  11  24  41  61  85 114 150 190 233 284 337
#     4  11  21  36  62  91 117 145 182 230 286 340
#     4   8  15  31  55  81 109 140 178 225 274 328
#     4  10  22  40  61  83 110 147 188 230 279 334
#     4  11  24  39  56  81 113 151 192 235 280 332
#     4  10  21  35  54  81 110 144 185 227 277 326
#
# _framework density 18.762065
#
# number of rings (size 3 to 8) (size 9 to 14) (size 15 to 20)
#    0.000    2.000    1.429    3.000    0.000    5.143 
#    0.000    4.286    0.000    1.286    0.000    0.000 
#    0.000    0.000    0.000    0.000    0.000    0.000 
#
# Total GULP energy -312757.081331 kJ/mol
# GULP energy per Si atom -5584.947881 kJ/mol
# Density = 1.871936 g / cm^3
# Si number density = 18.762065 Si / 1000 Ang^3
#
#
#
# Elastic Constant Matrix: (Units=GPa)
#
#
# Indices 1 2 3 4 5 6 
#
# 1 155.0710 30.0060 84.0442 0.0000 0.0000 0.0000
# 2 30.0060 17.5286 25.3343 0.0000 0.0000 0.0000
# 3 84.0442 25.3343 130.6828 0.0000 0.0000 0.0000
# 4 0.0000 0.0000 0.0000 19.6703 0.0000 0.0000
# 5 0.0000 0.0000 0.0000 0.0000 -6.6446 0.0000
# 6 0.0000 0.0000 0.0000 0.0000 0.0000 18.0803
#
#
#
# Elastic Compliance Matrix: (Units=1/GPa)
#
#
# Indices 1 2 3 4 5 6 
#
# 1 0.011612 -0.012621 -0.005021 0.000000 0.000000 0.000000
# 2 -0.012621 0.092973 -0.009907 0.000000 0.000000 0.000000
# 3 -0.005021 -0.009907 0.012802 0.000000 0.000000 0.000000
# 4 0.000000 0.000000 0.000000 0.050838 0.000000 0.000000
# 5 0.000000 0.000000 0.000000 0.000000 -0.150499 0.000000
# 6 0.000000 0.000000 0.000000 0.000000 0.000000 0.055309
#
#
# Mechanical properties :
#
#
# Convention : Reuss Voigt Hill
#
# Bulk Modulus (GPa) = 16.05429 64.67239 40.36334
# Shear Modulus (GPa) = 33.58047 17.14774 25.36411
#
# Velocity S-wave (km/s) = 4.23520 3.02645 3.68078
# Velocity P-wave (km/s) = 5.70011 6.83792 6.29478
#
# Compressibility (1/GPa) = 0.06228863
#
# Stress axis : x y z
#
# Youngs Moduli (GPa) = 86.11682 10.75582 78.11257
#
# Poissons Ratio (x) = 0.13574 0.39223
# Poissons Ratio (y) = 1.08685 0.77389
# Poissons Ratio (z) = 0.43242 0.10656
#
# Static dielectric constant tensor:
#      x y z
#    x 1.633390 0.000000 0.000000 
#    y 0.000000 1.641200 0.000000 
#    z 0.000000 0.000000 1.629380 
# 
# From -- ./inp_files/29019.got.cif
#   From: 2010.05.17/outbox.cif.g08.bks.cpg/sg59_15_cif.got.tgz:29019.got - 2010.06.03 14:40:33.
