data_PCOD9451796
_publ_section_title
;
Structure prediction by ZEFSAII (Michael W. Deem and Ramdas Pophale) SiO2 
 PCOD9451796
Probable space group: P M M N
;
_chemical_formula_sum "Si O2"
_cell_formula_units_Z 56
_cell_length_a 19.291964
_cell_length_b 8.734393
_cell_length_c 16.956712
_cell_angle_alpha 90.000000
_cell_angle_beta 90.000000
_cell_angle_gamma 90.000000
_cell_volume 2857.266937
_symmetry_space_group_name_H-M "P M M N"
_symmetry_group_IT_number 59
_space_group.IT_coordinate_system_code '2'
_symmetry_cell_setting 'orthorhombic'
loop_
_space_group_symop_operation_xyz
x,y,z
1/2-x,1/2-y,z
1/2+x,-y,-z
-x,1/2+y,-z
-x,-y,-z
1/2+x,1/2+y,-z
1/2-x,y,z
x,1/2-y,z
loop_
_atom_site_type_symbol
_atom_site_label
_atom_site_fract_x
_atom_site_fract_y
_atom_site_fract_z
Si Si1 0.077982 0.568138 0.501821
Si Si2 0.455949 0.067442 0.071754
Si Si3 0.915657 0.570019 0.334486
Si Si4 0.953007 0.564969 0.749685
Si Si5 0.166536 0.574105 0.805563
Si Si6 0.670204 0.567840 0.029582
Si Si7 0.330154 0.434587 0.360028
O O1 0.073564 0.750000 0.494667
O O2 0.106736 0.519091 0.587206
O O3 0.127144 0.502296 0.433560
O O4 0.000000 0.500000 0.500000
O O5 0.466962 0.250000 0.072357
O O6 0.467348 0.012262 0.160790
O O7 0.377023 0.036846 0.045457
O O8 0.500000 0.000000 0.000000
O O9 0.917330 0.750000 0.350219
O O10 0.866015 0.529906 0.261645
O O11 0.991153 0.510754 0.307832
O O12 0.961073 0.750000 0.746804
O O13 0.876234 0.529199 0.717419
O O14 0.250000 0.565197 0.803129
O O15 0.145022 0.750000 0.792932
O O16 0.144728 0.519893 0.892603
O O17 0.750000 0.527041 0.016026
O O18 0.666474 0.750000 0.046259
O O19 0.250000 0.485719 0.356790
O O20 0.330007 0.250000 0.367848
#
# Coordination Sequence:
#
# PCOD9451796 Si02
#       7
#     8   8   8   8   8   8   8
#     4  12  24  41  65  91 121 158 199 245 298 356
#     4  10  21  35  54  83 116 154 198 247 299 350
#     4  12  24  38  61  89 118 155 197 243 297 357
#     4  10  21  38  60  86 120 160 202 250 300 357
#     4  10  21  37  57  83 116 153 195 246 303 359
#     4   9  18  34  55  79 111 151 195 242 293 352
#     4  10  22  41  65  93 125 162 204 250 301 359
#
# _framework density 19.599150000000002
#
# number of rings (size 3 to 8) (size 9 to 14) (size 15 to 20)
#    0.000    1.571    1.429    3.857    0.000    5.714 
#    0.000    2.857    0.000    0.000    0.000    4.000 
#    0.000    0.000    0.000    0.000    0.000    0.000 
#
# Total GULP energy -312873.169963 kJ/mol
# GULP energy per Si atom -5587.020892 kJ/mol
# Density = 1.955454 g / cm^3
# Si number density = 19.599150 Si / 1000 Ang^3
#
#
#
# Elastic Constant Matrix: (Units=GPa)
#
#
# Indices 1 2 3 4 5 6 
#
# 1 79.7059 24.3422 32.7688 0.0000 0.0000 0.0000
# 2 24.3422 42.2672 20.3216 0.0000 0.0000 0.0000
# 3 32.7688 20.3216 103.9055 0.0000 0.0000 0.0000
# 4 0.0000 0.0000 0.0000 28.3385 0.0000 0.0000
# 5 0.0000 0.0000 0.0000 0.0000 31.6777 0.0000
# 6 0.0000 0.0000 0.0000 0.0000 0.0000 26.1933
#
#
#
# Elastic Compliance Matrix: (Units=1/GPa)
#
#
# Indices 1 2 3 4 5 6 
#
# 1 0.016401 -0.007681 -0.003670 0.000000 0.000000 0.000000
# 2 -0.007681 0.029712 -0.003389 0.000000 0.000000 0.000000
# 3 -0.003670 -0.003389 0.011444 0.000000 0.000000 0.000000
# 4 0.000000 0.000000 0.000000 0.035288 0.000000 0.000000
# 5 0.000000 0.000000 0.000000 0.000000 0.031568 0.000000
# 6 0.000000 0.000000 0.000000 0.000000 0.000000 0.038178
#
#
# Mechanical properties :
#
#
# Convention : Reuss Voigt Hill
#
# Bulk Modulus (GPa) = 35.61560 42.30488 38.96024
# Shear Modulus (GPa) = 24.82273 27.13831 25.98052
#
# Velocity S-wave (km/s) = 3.56268 3.72515 3.64482
# Velocity P-wave (km/s) = 5.92748 6.33516 6.13471
#
# Compressibility (1/GPa) = 0.02807758
#
# Stress axis : x y z
#
# Youngs Moduli (GPa) = 60.97302 33.65680 87.37952
#
# Poissons Ratio (x) = 0.25851 0.32069
# Poissons Ratio (y) = 0.46832 0.29610
# Poissons Ratio (z) = 0.22378 0.11405
#
# Static dielectric constant tensor:
#      x y z
#    x 1.708390 0.000000 0.000000 
#    y 0.000000 1.674360 0.000000 
#    z 0.000000 0.000000 1.675460 
# 
# From -- ./inp_files/24237.got.cif
#   From: 2010.05.17/outbox.cif.g08.bks.cpg/sg59_13_cif.got.tgz:24237.got - 2010.06.03 14:40:33.
