data_PCOD9451914
_publ_section_title
;
Structure prediction by ZEFSAII (Michael W. Deem and Ramdas Pophale) SiO2 
 PCOD9451914
Probable space group: P M M N
;
_chemical_formula_sum "Si O2"
_cell_formula_units_Z 32
_cell_length_a 9.091232
_cell_length_b 9.839247
_cell_length_c 20.841378
_cell_angle_alpha 90.000000
_cell_angle_beta 90.000000
_cell_angle_gamma 90.000000
_cell_volume 1864.279544
_symmetry_space_group_name_H-M "P M M N"
_symmetry_group_IT_number 59
_space_group.IT_coordinate_system_code '2'
_symmetry_cell_setting 'orthorhombic'
loop_
_space_group_symop_operation_xyz
x,y,z
1/2-x,1/2-y,z
1/2+x,-y,-z
-x,1/2+y,-z
-x,-y,-z
1/2+x,1/2+y,-z
1/2-x,y,z
x,1/2-y,z
loop_
_atom_site_type_symbol
_atom_site_label
_atom_site_fract_x
_atom_site_fract_y
_atom_site_fract_z
Si Si1 0.575409 0.589608 0.190883
Si Si2 0.573195 0.908259 0.553704
Si Si3 0.574990 0.089002 0.945058
Si Si4 0.574111 0.588738 0.700249
O O1 0.750000 0.568904 0.184128
O O2 0.549563 0.750000 0.203651
O O3 0.495182 0.555926 0.124018
O O4 0.511010 0.499683 0.248016
O O5 0.750000 0.918036 0.549467
O O6 0.533446 0.750000 0.544554
O O7 0.532415 0.946625 0.626831
O O8 0.500000 0.000000 0.500000
O O9 0.750000 0.066020 0.943718
O O10 0.549418 0.250000 0.956699
O O11 0.500000 0.000000 0.000000
O O12 0.750000 0.567781 0.706905
O O13 0.546898 0.750000 0.708910
#
# Coordination Sequence:
#
# PCOD9451914 Si02
#       4
#     8   8   8   8
#     4  10  21  36  54  78 107 137 171 213 259 306
#     4   9  19  35  53  75 104 136 172 214 258 307
#     4  10  21  37  57  80 106 138 175 213 255 305
#     4   9  19  36  55  75 102 137 175 214 257 306
#
# _framework density 17.164807
#
# number of rings (size 3 to 8) (size 9 to 14) (size 15 to 20)
#    0.000    2.500    0.000    3.000    0.000    7.000 
#    0.000    7.500    0.000    0.000    0.000    0.000 
#    0.000    0.000    0.000    0.000    0.000    0.000 
#
# Total GULP energy -178580.282873 kJ/mol
# GULP energy per Si atom -5580.633840 kJ/mol
# Density = 1.712574 g / cm^3
# Si number density = 17.164807 Si / 1000 Ang^3
#
#
#
# Elastic Constant Matrix: (Units=GPa)
#
#
# Indices 1 2 3 4 5 6 
#
# 1 77.8047 67.3117 96.1435 0.0000 0.0000 0.0000
# 2 67.3117 77.5742 112.9865 0.0000 0.0000 0.0000
# 3 96.1435 112.9865 197.2426 0.0000 0.0000 0.0000
# 4 0.0000 0.0000 0.0000 43.1182 0.0000 0.0000
# 5 0.0000 0.0000 0.0000 0.0000 40.5155 0.0000
# 6 0.0000 0.0000 0.0000 0.0000 0.0000 34.5682
#
#
#
# Elastic Compliance Matrix: (Units=1/GPa)
#
#
# Indices 1 2 3 4 5 6 
#
# 1 0.051846 -0.049368 0.003008 0.000000 0.000000 0.000000
# 2 -0.049368 0.124817 -0.047435 0.000000 0.000000 0.000000
# 3 0.003008 -0.047435 0.030776 0.000000 0.000000 0.000000
# 4 0.000000 0.000000 0.000000 0.023192 0.000000 0.000000
# 5 0.000000 0.000000 0.000000 0.000000 0.024682 0.000000
# 6 0.000000 0.000000 0.000000 0.000000 0.000000 0.028928
#
#
# Mechanical properties :
#
#
# Convention : Reuss Voigt Hill
#
# Bulk Modulus (GPa) = 50.38198 100.61164 75.49681
# Shear Modulus (GPa) = 10.45045 28.71903 19.58474
#
# Velocity S-wave (km/s) = 2.47012 4.09483 3.38151
# Velocity P-wave (km/s) = 6.12789 9.00551 7.70228
#
# Compressibility (1/GPa) = 0.01984837
#
# Stress axis : x y z
#
# Youngs Moduli (GPa) = 19.28781 8.01173 32.49284
#
# Poissons Ratio (x) = 0.39552 -0.09773
# Poissons Ratio (y) = 0.95220 1.54130
# Poissons Ratio (z) = -0.05801 0.38004
#
# Static dielectric constant tensor:
#      x y z
#    x 1.568600 0.000000 0.000000 
#    y 0.000000 1.563290 0.000000 
#    z 0.000000 0.000000 1.552510 
# 
# From -- ./inp_files/19553.got.cif
#   From: 2010.05.17/outbox.cif.g08.bks.cpg/sg59_10_cif.got.tgz:19553.got - 2010.06.03 14:40:33.
