data_PCOD9451153
_publ_section_title
;
Structure prediction by ZEFSAII (Michael W. Deem and Ramdas Pophale) SiO2 
 PCOD9451153
Probable space group: P M M N
;
_chemical_formula_sum "Si O2"
_cell_formula_units_Z 64
_cell_length_a 17.374114
_cell_length_b 21.681062
_cell_length_c 9.018112
_cell_angle_alpha 90.000000
_cell_angle_beta 90.000000
_cell_angle_gamma 90.000000
_cell_volume 3397.025781
_symmetry_space_group_name_H-M "P M M N"
_symmetry_group_IT_number 59
_space_group.IT_coordinate_system_code '2'
_symmetry_cell_setting 'orthorhombic'
loop_
_space_group_symop_operation_xyz
x,y,z
1/2-x,1/2-y,z
1/2+x,-y,-z
-x,1/2+y,-z
-x,-y,-z
1/2+x,1/2+y,-z
1/2-x,y,z
x,1/2-y,z
loop_
_atom_site_type_symbol
_atom_site_label
_atom_site_fract_x
_atom_site_fract_y
_atom_site_fract_z
Si Si1 0.894722 0.681440 0.407975
Si Si2 0.159322 0.897246 0.122103
Si Si3 0.479938 0.818958 0.163597
Si Si4 0.839817 0.820336 0.737505
Si Si5 0.071957 0.410893 0.048651
Si Si6 0.397748 0.453709 0.603781
Si Si7 0.839304 0.484269 0.131301
Si Si8 0.060986 0.502764 0.293378
O O1 0.860350 0.750000 0.370491
O O2 0.890045 0.677952 0.586311
O O3 0.862428 0.613916 0.362217
O O4 0.976488 0.680851 0.322487
O O5 0.250000 0.889903 0.144626
O O6 0.108599 0.838801 0.166756
O O7 0.123429 0.953273 0.217566
O O8 0.144737 0.920127 0.952598
O O9 0.489168 0.750000 0.103619
O O10 0.520436 0.867954 0.054816
O O11 0.750000 0.832125 0.698744
O O12 0.844543 0.750000 0.794792
O O13 0.869913 0.867896 0.858950
O O14 0.031096 0.453257 0.172909
O O15 0.113906 0.460509 0.945357
O O16 0.356559 0.507474 0.695818
O O17 0.487827 0.458385 0.650771
O O18 0.399573 0.467887 0.429993
O O19 0.750000 0.496305 0.103353
#
# Coordination Sequence:
#
# PCOD9451153 Si02
#       8
#     8   8   8   8   8   8   8   8
#     4  10  20  36  54  76 107 146 186 225 266 320
#     4  10  21  39  57  81 114 142 181 236 289 332
#     4  11  22  37  59  82 108 145 190 232 275 332
#     4  10  21  36  52  74 108 147 183 221 266 317
#     4  11  19  35  54  80 108 140 181 225 267 325
#     4  11  19  36  54  79 109 141 183 221 268 326
#     4  10  21  34  53  80 110 143 175 220 277 328
#     4  10  21  33  57  81 105 140 179 226 277 329
#
# _framework density 18.840008999999998
#
# number of rings (size 3 to 8) (size 9 to 14) (size 15 to 20)
#    0.000    1.625    3.750    1.500    0.000    3.750 
#    0.000    0.000    0.000    0.000    0.000    0.000 
#    0.000    5.000    0.000    0.000    0.000    0.000 
#
# Total GULP energy -356605.013911 kJ/mol
# GULP energy per Si atom -5571.953342 kJ/mol
# Density = 1.879713 g / cm^3
# Si number density = 18.840009 Si / 1000 Ang^3
#
#
#
# Elastic Constant Matrix: (Units=GPa)
#
#
# Indices 1 2 3 4 5 6 
#
# 1 53.8929 5.9430 20.7958 0.0000 0.0000 0.0000
# 2 5.9430 57.5389 11.5659 0.0000 0.0000 0.0000
# 3 20.7958 11.5659 69.4905 0.0000 0.0000 0.0000
# 4 0.0000 0.0000 0.0000 24.3888 0.0000 0.0000
# 5 0.0000 0.0000 0.0000 0.0000 14.3882 0.0000
# 6 0.0000 0.0000 0.0000 0.0000 0.0000 24.8656
#
#
#
# Elastic Compliance Matrix: (Units=1/GPa)
#
#
# Indices 1 2 3 4 5 6 
#
# 1 0.021027 -0.000938 -0.006136 0.000000 0.000000 0.000000
# 2 -0.000938 0.018023 -0.002719 0.000000 0.000000 0.000000
# 3 -0.006136 -0.002719 0.016679 0.000000 0.000000 0.000000
# 4 0.000000 0.000000 0.000000 0.041002 0.000000 0.000000
# 5 0.000000 0.000000 0.000000 0.000000 0.069501 0.000000
# 6 0.000000 0.000000 0.000000 0.000000 0.000000 0.040216
#
#
# Mechanical properties :
#
#
# Convention : Reuss Voigt Hill
#
# Bulk Modulus (GPa) = 27.66871 28.61464 28.14168
# Shear Modulus (GPa) = 21.00106 22.23636 21.61871
#
# Velocity S-wave (km/s) = 3.34234 3.43924 3.39114
# Velocity P-wave (km/s) = 5.44179 5.56708 5.50479
#
# Compressibility (1/GPa) = 0.03614191
#
# Stress axis : x y z
#
# Youngs Moduli (GPa) = 47.55877 55.48466 59.95445
#
# Poissons Ratio (x) = 0.05206 0.36790
# Poissons Ratio (y) = 0.04463 0.16301
# Poissons Ratio (z) = 0.29183 0.15086
#
# Static dielectric constant tensor:
#      x y z
#    x 1.658330 0.000000 0.000000 
#    y 0.000000 1.686100 0.000000 
#    z 0.000000 0.000000 1.675150 
# 
# From -- ./inp_files/10791.got.cif
#   From: 2010.05.17/outbox.cif.g08.bks.cpg/sg59_6_cif.got.tgz:10791.got - 2010.06.03 14:40:33.
