data_PCOD9451930
_publ_section_title
;
Structure prediction by ZEFSAII (Michael W. Deem and Ramdas Pophale) SiO2 
 PCOD9451930
Probable space group: P M M N
;
_chemical_formula_sum "Si O2"
_cell_formula_units_Z 64
_cell_length_a 8.223027
_cell_length_b 15.096015
_cell_length_c 27.130338
_cell_angle_alpha 90.000000
_cell_angle_beta 90.000000
_cell_angle_gamma 90.000000
_cell_volume 3367.822851
_symmetry_space_group_name_H-M "P M M N"
_symmetry_group_IT_number 59
_space_group.IT_coordinate_system_code '2'
_symmetry_cell_setting 'orthorhombic'
loop_
_space_group_symop_operation_xyz
x,y,z
1/2-x,1/2-y,z
1/2+x,-y,-z
-x,1/2+y,-z
-x,-y,-z
1/2+x,1/2+y,-z
1/2-x,y,z
x,1/2-y,z
loop_
_atom_site_type_symbol
_atom_site_label
_atom_site_fract_x
_atom_site_fract_y
_atom_site_fract_z
Si Si1 0.551294 0.851754 0.131537
Si Si2 0.442270 0.498038 0.315558
Si Si3 0.557486 0.502299 0.055936
Si Si4 0.554360 0.645853 0.242487
Si Si5 0.942750 0.507061 0.426569
Si Si6 0.555063 0.351363 0.497879
Si Si7 0.948392 0.852115 0.761120
Si Si8 0.946122 0.647224 0.871574
O O1 0.750000 0.852729 0.131688
O O2 0.501911 0.750000 0.123648
O O3 0.501557 0.879532 0.186848
O O4 0.490652 0.916701 0.089083
O O5 0.250000 0.486186 0.322640
O O6 0.474127 0.585800 0.283706
O O7 0.521505 0.502481 0.368964
O O8 0.505444 0.417458 0.281474
O O9 0.750000 0.512600 0.054722
O O10 0.514504 0.414284 0.086052
O O11 0.500000 0.500000 0.000000
O O12 0.750000 0.635340 0.245419
O O13 0.518818 0.750000 0.248678
O O14 0.750000 0.511433 0.434679
O O15 0.004743 0.418298 0.454773
O O16 0.016568 0.594208 0.452377
O O17 0.750000 0.345653 0.493161
O O18 0.491960 0.250000 0.496668
O O19 0.750000 0.854092 0.761271
O O20 0.996575 0.750000 0.753329
O O21 0.000383 0.879786 0.816311
O O22 0.750000 0.642023 0.872761
O O23 0.991034 0.750000 0.878185
#
# Coordination Sequence:
#
# PCOD9451930 Si02
#       8
#     8   8   8   8   8   8   8   8
#     4   8  16  33  55  75  96 128 170 212 256 308
#     4  11  21  32  51  79 111 142 170 208 253 297
#     4  11  22  34  51  76 104 133 169 214 262 312
#     4   9  18  34  55  76  99 131 171 212 256 307
#     4  10  21  36  54  79 109 139 173 211 255 307
#     4   9  19  38  61  80 101 133 174 220 264 302
#     4   8  16  32  53  77 104 136 174 211 252 307
#     4   9  18  35  57  76  99 135 174 212 258 310
#
# _framework density 19.003374999999998
#
# number of rings (size 3 to 8) (size 9 to 14) (size 15 to 20)
#    0.000    2.625    0.000    3.375    0.000    2.750 
#    0.000    2.500    0.000    5.250    0.000    0.000 
#    0.000    0.000    0.000    0.000    0.000    0.000 
#
# Total GULP energy -357039.938901 kJ/mol
# GULP energy per Si atom -5578.749045 kJ/mol
# Density = 1.896012 g / cm^3
# Si number density = 19.003375 Si / 1000 Ang^3
#
#
#
# Elastic Constant Matrix: (Units=GPa)
#
#
# Indices 1 2 3 4 5 6 
#
# 1 5.9929 8.9493 3.3663 0.0000 0.0000 0.0000
# 2 8.9493 106.1397 73.2342 0.0000 0.0000 0.0000
# 3 3.3663 73.2342 149.3402 0.0000 0.0000 0.0000
# 4 0.0000 0.0000 0.0000 6521.9213 0.0000 0.0000
# 5 0.0000 0.0000 0.0000 0.0000 11.1077 0.0000
# 6 0.0000 0.0000 0.0000 0.0000 0.0000 21.5841
#
#
#
# Elastic Compliance Matrix: (Units=1/GPa)
#
#
# Indices 1 2 3 4 5 6 
#
# 1 0.193853 -0.020147 0.005510 0.000000 0.000000 0.000000
# 2 -0.020147 0.016333 -0.007556 0.000000 0.000000 0.000000
# 3 0.005510 -0.007556 0.010277 0.000000 0.000000 0.000000
# 4 0.000000 0.000000 0.000000 0.000153 0.000000 0.000000
# 5 0.000000 0.000000 0.000000 0.000000 0.090028 0.000000
# 6 0.000000 0.000000 0.000000 0.000000 0.000000 0.046330
#
#
# Mechanical properties :
#
#
# Convention : Reuss Voigt Hill
#
# Bulk Modulus (GPa) = 5.67926 48.06362 26.87144
# Shear Modulus (GPa) = 10.86832 1322.65083 666.75957
#
# Velocity S-wave (km/s) = 2.39407 26.41059 18.75168
# Velocity P-wave (km/s) = 3.26146 30.90911 21.97737
#
# Compressibility (1/GPa) = 0.17607917
#
# Stress axis : x y z
#
# Youngs Moduli (GPa) = 5.15854 61.22419 97.30430
#
# Poissons Ratio (x) = 1.23347 -0.53615
# Poissons Ratio (y) = 0.10393 0.73519
# Poissons Ratio (z) = -0.02842 0.46258
#
# Static dielectric constant tensor:
#      x y z
#    x 1.719120 0.000000 0.000000 
#    y 0.000000 1.663370 0.000000 
#    z 0.000000 0.000000 1.652440 
# 
# From -- ./inp_files/31454.got.cif
#   From: 2010.05.17/outbox.cif.g08.bks.cpg/sg59_16_cif.got.tgz:31454.got - 2010.06.03 14:40:33.
