data_PCOD9451588
_publ_section_title
;
Structure prediction by ZEFSAII (Michael W. Deem and Ramdas Pophale) SiO2 
 PCOD9451588
Probable space group: P M M N
;
_chemical_formula_sum "Si O2"
_cell_formula_units_Z 48
_cell_length_a 9.132271
_cell_length_b 32.314293
_cell_length_c 7.508638
_cell_angle_alpha 90.000000
_cell_angle_beta 90.000000
_cell_angle_gamma 90.000000
_cell_volume 2215.820705
_symmetry_space_group_name_H-M "P M M N"
_symmetry_group_IT_number 59
_space_group.IT_coordinate_system_code '2'
_symmetry_cell_setting 'orthorhombic'
loop_
_space_group_symop_operation_xyz
x,y,z
1/2-x,1/2-y,z
1/2+x,-y,-z
-x,1/2+y,-z
-x,-y,-z
1/2+x,1/2+y,-z
1/2-x,y,z
x,1/2-y,z
loop_
_atom_site_type_symbol
_atom_site_label
_atom_site_fract_x
_atom_site_fract_y
_atom_site_fract_z
Si Si1 0.417398 0.551232 0.354956
Si Si2 0.404963 0.094828 0.104595
Si Si3 0.582834 0.831687 0.620554
Si Si4 0.750000 0.202551 0.800137
Si Si5 0.750000 0.203493 0.369493
Si Si6 0.498058 0.141367 0.766124
Si Si7 0.078406 0.525399 0.753299
O O1 0.250000 0.538024 0.342278
O O2 0.427236 0.599528 0.309593
O O3 0.509257 0.519811 0.235097
O O4 0.466717 0.543339 0.558514
O O5 0.250000 0.071982 0.114232
O O6 0.415761 0.125486 0.271821
O O7 0.530103 0.060926 0.112167
O O8 0.408403 0.123375 0.930552
O O9 0.750000 0.813027 0.658247
O O10 0.417393 0.813782 0.670269
O O11 0.577177 0.838678 0.407058
O O12 0.750000 0.250000 0.862431
O O13 0.750000 0.203337 0.584670
O O14 0.609162 0.175175 0.846635
O O15 0.750000 0.250000 0.299793
O O16 0.250000 0.520863 0.758489
#
# Coordination Sequence:
#
# PCOD9451588 Si02
#       7
#     8   8   8   4   4   8   8
#     4  10  20  38  60  89 125 170 213 261 329 383
#     4  11  24  39  59  91 124 166 217 263 317 387
#     4  10  22  40  63  90 128 167 209 268 327 393
#     4   9  20  39  65 101 130 163 215 272 331 401
#     4   9  20  39  67  97 126 165 215 270 331 403
#     4  11  21  38  66  90 125 170 210 264 327 394
#     4  10  22  36  60  89 126 170 215 268 314 385
#
# _framework density 21.662403000000001
#
# number of rings (size 3 to 8) (size 9 to 14) (size 15 to 20)
#    0.000    1.833    2.500    1.000    2.333    3.000 
#    0.000    1.667    0.000    2.500    0.000    0.000 
#    0.000    0.000    0.000    0.000    0.000    0.000 
#
# Total GULP energy -267369.491490 kJ/mol
# GULP energy per Si atom -5570.197739 kJ/mol
# Density = 2.161310 g / cm^3
# Si number density = 21.662403 Si / 1000 Ang^3
#
#
#
# Elastic Constant Matrix: (Units=GPa)
#
#
# Indices 1 2 3 4 5 6 
#
# 1 120.4052 58.3335 18.6582 0.0000 0.0000 0.0000
# 2 58.3335 113.3216 13.6722 0.0000 0.0000 0.0000
# 3 18.6582 13.6722 59.6018 0.0000 0.0000 0.0000
# 4 0.0000 0.0000 0.0000 6.5970 0.0000 0.0000
# 5 0.0000 0.0000 0.0000 0.0000 24.7127 0.0000
# 6 0.0000 0.0000 0.0000 0.0000 0.0000 129.3008
#
#
#
# Elastic Compliance Matrix: (Units=1/GPa)
#
#
# Indices 1 2 3 4 5 6 
#
# 1 0.011358 -0.005572 -0.002277 0.000000 0.000000 0.000000
# 2 -0.005572 0.011809 -0.000965 0.000000 0.000000 0.000000
# 3 -0.002277 -0.000965 0.017712 0.000000 0.000000 0.000000
# 4 0.000000 0.000000 0.000000 0.151584 0.000000 0.000000
# 5 0.000000 0.000000 0.000000 0.000000 0.040465 0.000000
# 6 0.000000 0.000000 0.000000 0.000000 0.000000 0.007734
#
#
# Mechanical properties :
#
#
# Convention : Reuss Voigt Hill
#
# Bulk Modulus (GPa) = 43.00837 52.73961 47.87399
# Shear Modulus (GPa) = 18.79419 45.63309 32.21364
#
# Velocity S-wave (km/s) = 2.94869 4.59470 3.86045
# Velocity P-wave (km/s) = 5.61160 7.24896 6.48219
#
# Compressibility (1/GPa) = 0.02325129
#
# Stress axis : x y z
#
# Youngs Moduli (GPa) = 88.04744 84.68198 56.45814
#
# Poissons Ratio (x) = 0.47182 0.12858
# Poissons Ratio (y) = 0.49057 0.05446
# Poissons Ratio (z) = 0.20052 0.08169
#
# Static dielectric constant tensor:
#      x y z
#    x 1.860960 0.000000 0.000000 
#    y 0.000000 1.744470 0.000000 
#    z 0.000000 0.000000 1.840060 
# 
# From -- ./inp_files/6357.got.cif
#   From: 2010.05.17/outbox.cif.g08.bks.cpg/sg59_4_cif.got.tgz:6357.got - 2010.06.03 14:40:33.
