data_PCOD9451316
_publ_section_title
;
Structure prediction by ZEFSAII (Michael W. Deem and Ramdas Pophale) SiO2 
 PCOD9451316
Probable space group: P M M N
;
_chemical_formula_sum "Si O2"
_cell_formula_units_Z 56
_cell_length_a 19.367881
_cell_length_b 8.989521
_cell_length_c 18.263246
_cell_angle_alpha 90.000000
_cell_angle_beta 90.000000
_cell_angle_gamma 90.000000
_cell_volume 3179.776741
_symmetry_space_group_name_H-M "P M M N"
_symmetry_group_IT_number 59
_space_group.IT_coordinate_system_code '2'
_symmetry_cell_setting 'orthorhombic'
loop_
_space_group_symop_operation_xyz
x,y,z
1/2-x,1/2-y,z
1/2+x,-y,-z
-x,1/2+y,-z
-x,-y,-z
1/2+x,1/2+y,-z
1/2-x,y,z
x,1/2-y,z
loop_
_atom_site_type_symbol
_atom_site_label
_atom_site_fract_x
_atom_site_fract_y
_atom_site_fract_z
Si Si1 0.431576 0.570808 0.798123
Si Si2 0.168590 0.428983 0.377785
Si Si3 0.088534 0.069169 0.232763
Si Si4 0.331272 0.072467 0.680919
Si Si5 0.831346 0.928717 0.914476
Si Si6 0.333926 0.578847 0.529317
Si Si7 0.070197 0.928221 0.969262
O O1 0.426927 0.750000 0.790775
O O2 0.508997 0.524308 0.775013
O O3 0.375848 0.495624 0.746041
O O4 0.421710 0.534138 0.883623
O O5 0.250000 0.463392 0.366598
O O6 0.163275 0.250000 0.384046
O O7 0.125072 0.479784 0.307556
O O8 0.144587 0.501797 0.453672
O O9 0.089968 0.250000 0.233356
O O10 0.131139 0.023917 0.160743
O O11 0.250000 0.034859 0.690090
O O12 0.337310 0.250000 0.679423
O O13 0.355086 0.006117 0.602883
O O14 0.750000 0.958281 0.910593
O O15 0.840992 0.750000 0.921998
O O16 0.867675 0.009456 0.981986
O O17 0.250000 0.575390 0.528649
O O18 0.356094 0.750000 0.532061
O O19 0.065499 0.750000 0.975189
O O20 0.000000 0.000000 0.000000
#
# Coordination Sequence:
#
# PCOD9451316 Si02
#       7
#     8   8   8   8   8   8   8
#     4  10  21  37  57  79 107 143 181 221 270 330
#     4   9  16  28  51  80 107 139 180 223 264 311
#     4   9  17  33  54  79 110 145 184 221 265 322
#     4  10  21  37  57  81 107 135 177 230 275 322
#     4  10  20  36  59  85 114 148 187 230 277 330
#     4   9  17  31  52  77 107 142 177 217 270 325
#     4  11  22  38  59  81 110 147 188 231 277 332
#
# _framework density 17.6113
#
# number of rings (size 3 to 8) (size 9 to 14) (size 15 to 20)
#    0.000    2.286    1.429    1.714    0.000    6.286 
#    0.000    5.000    0.000    1.714    0.000    0.000 
#    0.000    0.000    0.000    0.000    0.000    0.000 
#
# Total GULP energy -312488.280931 kJ/mol
# GULP energy per Si atom -5580.147874 kJ/mol
# Density = 1.757122 g / cm^3
# Si number density = 17.611300 Si / 1000 Ang^3
#
#
#
# Elastic Constant Matrix: (Units=GPa)
#
#
# Indices 1 2 3 4 5 6 
#
# 1 97.0774 47.7373 95.0878 0.0000 0.0000 0.0000
# 2 47.7373 42.5901 68.9956 0.0000 0.0000 0.0000
# 3 95.0878 68.9956 207.4113 0.0000 0.0000 0.0000
# 4 0.0000 0.0000 0.0000 31.4735 0.0000 0.0000
# 5 0.0000 0.0000 0.0000 0.0000 29.9615 0.0000
# 6 0.0000 0.0000 0.0000 0.0000 0.0000 23.9625
#
#
#
# Elastic Compliance Matrix: (Units=1/GPa)
#
#
# Indices 1 2 3 4 5 6 
#
# 1 0.024829 -0.020363 -0.004609 0.000000 0.000000 0.000000
# 2 -0.020363 0.067620 -0.013159 0.000000 0.000000 0.000000
# 3 -0.004609 -0.013159 0.011312 0.000000 0.000000 0.000000
# 4 0.000000 0.000000 0.000000 0.031773 0.000000 0.000000
# 5 0.000000 0.000000 0.000000 0.000000 0.033376 0.000000
# 6 0.000000 0.000000 0.000000 0.000000 0.000000 0.041732
#
#
# Mechanical properties :
#
#
# Convention : Reuss Voigt Hill
#
# Bulk Modulus (GPa) = 36.36414 85.63556 60.99985
# Shear Modulus (GPa) = 16.88789 26.09671 21.49230
#
# Velocity S-wave (km/s) = 3.10001 3.85361 3.49717
# Velocity P-wave (km/s) = 5.78847 8.27837 7.14275
#
# Compressibility (1/GPa) = 0.02749962
#
# Stress axis : x y z
#
# Youngs Moduli (GPa) = 40.27518 14.78842 88.40499
#
# Poissons Ratio (x) = 0.30114 0.40747
# Poissons Ratio (y) = 0.82013 1.16328
# Poissons Ratio (z) = 0.18563 0.19459
#
# Static dielectric constant tensor:
#      x y z
#    x 1.586610 0.000000 0.000000 
#    y 0.000000 1.603490 0.000000 
#    z 0.000000 0.000000 1.580440 
# 
# From -- ./inp_files/28034.got.cif
#   From: 2010.05.17/outbox.cif.g08.bks.cpg/sg59_15_cif.got.tgz:28034.got - 2010.06.03 14:40:33.
