data_PCOD9451568
_publ_section_title
;
Structure prediction by ZEFSAII (Michael W. Deem and Ramdas Pophale) SiO2 
 PCOD9451568
Probable space group: P M M N
;
_chemical_formula_sum "Si O2"
_cell_formula_units_Z 48
_cell_length_a 10.223532
_cell_length_b 8.896968
_cell_length_c 29.977937
_cell_angle_alpha 90.000000
_cell_angle_beta 90.000000
_cell_angle_gamma 90.000000
_cell_volume 2726.746296
_symmetry_space_group_name_H-M "P M M N"
_symmetry_group_IT_number 59
_space_group.IT_coordinate_system_code '2'
_symmetry_cell_setting 'orthorhombic'
loop_
_space_group_symop_operation_xyz
x,y,z
1/2-x,1/2-y,z
1/2+x,-y,-z
-x,1/2+y,-z
-x,-y,-z
1/2+x,1/2+y,-z
1/2-x,y,z
x,1/2-y,z
loop_
_atom_site_type_symbol
_atom_site_label
_atom_site_fract_x
_atom_site_fract_y
_atom_site_fract_z
Si Si1 0.402138 0.070806 0.771801
Si Si2 0.408485 0.922203 0.864147
Si Si3 0.097137 0.932089 0.963734
Si Si4 0.030144 0.431798 0.399754
Si Si5 0.250000 0.930685 0.461860
Si Si6 0.601167 0.568868 0.701706
Si Si7 0.250000 0.932284 0.565081
O O1 0.250000 0.022485 0.765561
O O2 0.406049 0.250000 0.769293
O O3 0.445449 0.017917 0.821136
O O4 0.495766 0.000673 0.734821
O O5 0.250000 0.919109 0.865305
O O6 0.453525 0.750000 0.858319
O O7 0.445784 0.977456 0.913469
O O8 0.250000 0.975842 0.970595
O O9 0.093031 0.750000 0.964954
O O10 0.000000 0.000000 0.000000
O O11 0.040548 0.250000 0.403550
O O12 0.125166 0.505732 0.435739
O O13 0.071741 0.472666 0.349635
O O14 0.881994 0.478724 0.410171
O O15 0.250000 0.750000 0.460618
O O16 0.250000 0.980097 0.513463
O O17 0.750000 0.523772 0.712777
O O18 0.593294 0.750000 0.704463
O O19 0.250000 0.750000 0.564946
#
# Coordination Sequence:
#
# PCOD9451568 Si02
#       7
#     8   8   8   8   4   8   4
#     4  10  21  35  54  82 110 135 168 215 270 323
#     4   8  15  31  53  75 102 139 181 222 261 306
#     4   9  18  32  51  77 108 141 180 223 265 312
#     4  10  20  38  59  79 105 140 180 219 256 307
#     4  11  21  35  55  83 113 143 173 209 264 319
#     4  10  21  37  57  79 101 135 181 218 256 311
#     4   9  20  35  57  85 109 135 177 223 260 303
#
# _framework density 17.603399
#
# number of rings (size 3 to 8) (size 9 to 14) (size 15 to 20)
#    0.000    2.500    0.833    2.250    1.167    3.000 
#    0.000    3.750    0.000    1.000    0.000    0.000 
#    0.000    0.000    0.000    0.000    0.000    0.000 
#
# Total GULP energy -267700.209147 kJ/mol
# GULP energy per Si atom -5577.087691 kJ/mol
# Density = 1.756333 g / cm^3
# Si number density = 17.603399 Si / 1000 Ang^3
#
#
#
# Elastic Constant Matrix: (Units=GPa)
#
#
# Indices 1 2 3 4 5 6 
#
# 1 111.7129 28.7426 61.0149 0.0000 0.0000 0.0000
# 2 28.7426 21.9441 34.2268 0.0000 0.0000 0.0000
# 3 61.0149 34.2268 119.9800 0.0000 0.0000 0.0000
# 4 0.0000 0.0000 0.0000 30.6027 0.0000 0.0000
# 5 0.0000 0.0000 0.0000 0.0000 35.7995 0.0000
# 6 0.0000 0.0000 0.0000 0.0000 0.0000 23.0005
#
#
#
# Elastic Compliance Matrix: (Units=1/GPa)
#
#
# Indices 1 2 3 4 5 6 
#
# 1 0.014259 -0.013272 -0.003465 0.000000 0.000000 0.000000
# 2 -0.013272 0.094453 -0.020196 0.000000 0.000000 0.000000
# 3 -0.003465 -0.020196 0.015858 0.000000 0.000000 0.000000
# 4 0.000000 0.000000 0.000000 0.032677 0.000000 0.000000
# 5 0.000000 0.000000 0.000000 0.000000 0.027933 0.000000
# 6 0.000000 0.000000 0.000000 0.000000 0.000000 0.043477
#
#
# Mechanical properties :
#
#
# Convention : Reuss Voigt Hill
#
# Bulk Modulus (GPa) = 19.72171 55.73393 37.72782
# Shear Modulus (GPa) = 15.65315 26.52406 21.08861
#
# Velocity S-wave (km/s) = 2.98520 3.88591 3.46495
# Velocity P-wave (km/s) = 4.80724 7.20162 6.12262
#
# Compressibility (1/GPa) = 0.05070554
#
# Stress axis : x y z
#
# Youngs Moduli (GPa) = 70.13229 10.58723 63.05905
#
# Poissons Ratio (x) = 0.14051 0.21851
# Poissons Ratio (y) = 0.93076 1.27352
# Poissons Ratio (z) = 0.24302 0.21382
#
# Static dielectric constant tensor:
#      x y z
#    x 1.595500 0.000000 0.000000 
#    y 0.000000 1.598160 0.000000 
#    z 0.000000 0.000000 1.588310 
# 
# From -- ./inp_files/32979.got.cif
#   From: 2010.05.17/outbox.cif.g08.bks.cpg/sg59_17_cif.got.tgz:32979.got - 2010.06.03 14:40:33.
