data_PCOD9451923
_publ_section_title
;
Structure prediction by ZEFSAII (Michael W. Deem and Ramdas Pophale) SiO2 
 PCOD9451923
Probable space group: P M M N
;
_chemical_formula_sum "Si O2"
_cell_formula_units_Z 48
_cell_length_a 15.372252
_cell_length_b 14.118527
_cell_length_c 11.347915
_cell_angle_alpha 90.000000
_cell_angle_beta 90.000000
_cell_angle_gamma 90.000000
_cell_volume 2462.878333
_symmetry_space_group_name_H-M "P M M N"
_symmetry_group_IT_number 59
_space_group.IT_coordinate_system_code '2'
_symmetry_cell_setting 'orthorhombic'
loop_
_space_group_symop_operation_xyz
x,y,z
1/2-x,1/2-y,z
1/2+x,-y,-z
-x,1/2+y,-z
-x,-y,-z
1/2+x,1/2+y,-z
1/2-x,y,z
x,1/2-y,z
loop_
_atom_site_type_symbol
_atom_site_label
_atom_site_fract_x
_atom_site_fract_y
_atom_site_fract_z
Si Si1 0.655554 0.036924 0.151510
Si Si2 0.415554 0.507804 0.086376
Si Si3 0.147771 0.635710 0.290497
Si Si4 0.148816 0.140330 0.684450
Si Si5 0.492065 0.138561 0.247758
Si Si6 0.011477 0.863713 0.485302
O O1 0.750000 0.068200 0.193956
O O2 0.634640 0.936845 0.214011
O O3 0.583386 0.112961 0.186145
O O4 0.656690 0.018485 0.012569
O O5 0.403489 0.593732 0.177885
O O6 0.420628 0.417340 0.171707
O O7 0.500000 0.500000 0.000000
O O8 0.250000 0.606940 0.291136
O O9 0.145445 0.750000 0.285454
O O10 0.093932 0.604728 0.407044
O O11 0.250000 0.132469 0.645866
O O12 0.135660 0.250000 0.722780
O O13 0.078034 0.119738 0.584544
O O14 0.475420 0.250000 0.248277
O O15 0.502223 0.101231 0.381407
O O16 0.021355 0.750000 0.495208
#
# Coordination Sequence:
#
# PCOD9451923 Si02
#       6
#     8   8   8   8   8   8
#     4  10  21  36  55  82 111 141 185 235 280 335
#     4  10  21  36  54  78 109 144 186 231 272 328
#     4  10  21  37  59  86 115 149 188 235 292 345
#     4   9  18  34  57  83 111 146 189 239 292 341
#     4  10  22  38  56  80 112 150 186 226 281 339
#     4   9  18  35  57  81 112 147 187 234 282 339
#
# _framework density 19.489391999999999
#
# number of rings (size 3 to 8) (size 9 to 14) (size 15 to 20)
#    0.000    2.333    0.000    2.500    0.000    7.000 
#    0.000    5.000    0.000    3.500    0.000    0.000 
#    0.000    0.000    0.000    0.000    0.000    0.000 
#
# Total GULP energy -267453.363175 kJ/mol
# GULP energy per Si atom -5571.945066 kJ/mol
# Density = 1.944503 g / cm^3
# Si number density = 19.489392 Si / 1000 Ang^3
#
#
#
# Elastic Constant Matrix: (Units=GPa)
#
#
# Indices 1 2 3 4 5 6 
#
# 1 35.3074 -0.5596 6.0498 0.0000 0.0000 0.0000
# 2 -0.5596 54.1758 14.0629 0.0000 0.0000 0.0000
# 3 6.0498 14.0629 120.6321 0.0000 0.0000 0.0000
# 4 0.0000 0.0000 0.0000 33.4157 0.0000 0.0000
# 5 0.0000 0.0000 0.0000 0.0000 12.7529 0.0000
# 6 0.0000 0.0000 0.0000 0.0000 0.0000 17.8410
#
#
#
# Elastic Compliance Matrix: (Units=1/GPa)
#
#
# Indices 1 2 3 4 5 6 
#
# 1 0.028593 0.000688 -0.001514 0.000000 0.000000 0.000000
# 2 0.000688 0.019051 -0.002255 0.000000 0.000000 0.000000
# 3 -0.001514 -0.002255 0.008629 0.000000 0.000000 0.000000
# 4 0.000000 0.000000 0.000000 0.029926 0.000000 0.000000
# 5 0.000000 0.000000 0.000000 0.000000 0.078413 0.000000
# 6 0.000000 0.000000 0.000000 0.000000 0.000000 0.056051
#
#
# Mechanical properties :
#
#
# Convention : Reuss Voigt Hill
#
# Bulk Modulus (GPa) = 19.95604 27.69128 23.82366
# Shear Modulus (GPa) = 20.53147 25.50607 23.01877
#
# Velocity S-wave (km/s) = 3.24924 3.62154 3.44043
# Velocity P-wave (km/s) = 4.93340 5.63264 5.29458
#
# Compressibility (1/GPa) = 0.05011013
#
# Stress axis : x y z
#
# Youngs Moduli (GPa) = 34.97356 52.49066 115.89452
#
# Poissons Ratio (x) = -0.03614 0.17549
# Poissons Ratio (y) = -0.02408 0.26139
# Poissons Ratio (z) = 0.05296 0.11839
#
# Static dielectric constant tensor:
#      x y z
#    x 1.727270 0.000000 0.000000 
#    y 0.000000 1.689970 0.000000 
#    z 0.000000 0.000000 1.684760 
# 
# From -- ./inp_files/10252.got.cif
#   From: 2010.05.17/outbox.cif.g08.bks.cpg/sg59_6_cif.got.tgz:10252.got - 2010.06.03 14:40:33.
