data_PCOD9451770
_publ_section_title
;
Structure prediction by ZEFSAII (Michael W. Deem and Ramdas Pophale) SiO2 
 PCOD9451770
Probable space group: P M M N
;
_chemical_formula_sum "Si O2"
_cell_formula_units_Z 64
_cell_length_a 33.985189
_cell_length_b 7.574807
_cell_length_c 10.637244
_cell_angle_alpha 90.000000
_cell_angle_beta 90.000000
_cell_angle_gamma 90.000000
_cell_volume 2738.358993
_symmetry_space_group_name_H-M "P M M N"
_symmetry_group_IT_number 59
_space_group.IT_coordinate_system_code '2'
_symmetry_cell_setting 'orthorhombic'
loop_
_space_group_symop_operation_xyz
x,y,z
1/2-x,1/2-y,z
1/2+x,-y,-z
-x,1/2+y,-z
-x,-y,-z
1/2+x,1/2+y,-z
1/2-x,y,z
x,1/2-y,z
loop_
_atom_site_type_symbol
_atom_site_label
_atom_site_fract_x
_atom_site_fract_y
_atom_site_fract_z
Si Si1 0.310476 0.536993 0.902525
Si Si2 0.206251 0.534789 0.618533
Si Si3 0.209254 0.457718 0.182827
Si Si4 0.625030 0.540454 0.734590
Si Si5 0.525038 0.038666 0.122017
Si Si6 0.395393 0.962592 0.988011
Si Si7 0.381904 0.548801 0.542024
Si Si8 0.031492 0.537627 0.607920
O O1 0.308259 0.750000 0.904464
O O2 0.295112 0.483645 0.766493
O O3 0.355330 0.478083 0.922862
O O4 0.291184 0.474891 0.031954
O O5 0.250000 0.477198 0.569176
O O6 0.206352 0.750000 0.609254
O O7 0.163072 0.476334 0.563996
O O8 0.250000 0.535690 0.231620
O O9 0.208660 0.250000 0.212018
O O10 0.168900 0.531655 0.236092
O O11 0.626189 0.750000 0.710819
O O12 0.602516 0.514063 0.865650
O O13 0.610731 0.452811 0.607683
O O14 0.526599 0.250000 0.130559
O O15 0.568195 0.970427 0.089881
O O16 0.513428 0.974625 0.259429
O O17 0.394995 0.750000 0.985342
O O18 0.500000 0.000000 0.000000
O O19 0.379514 0.750000 0.591841
O O20 0.423109 0.470594 0.594557
O O21 0.035446 0.750000 0.608983
O O22 0.000000 0.500000 0.500000
#
# Coordination Sequence:
#
# PCOD9451770 Si02
#       8
#     8   8   8   8   8   8   8   8
#     4   9  16  29  52  79 104 135 179 228 276 331
#     4   9  17  30  52  82 111 141 182 232 283 338
#     4   9  18  32  48  70 105 145 181 223 280 337
#     4  10  21  35  53  78 107 145 189 235 281 335
#     4  10  22  39  60  88 118 149 187 235 290 346
#     4   9  18  34  56  80 110 144 182 227 284 344
#     4  10  21  38  58  79 111 151 190 232 287 346
#     4  10  23  42  63  88 119 157 198 241 292 351
#
# _framework density 23.371662000000001
#
# number of rings (size 3 to 8) (size 9 to 14) (size 15 to 20)
#    0.000    2.500    0.000    1.500    1.750    6.250 
#    0.000    0.625    0.000    3.750    0.000    0.000 
#    0.000    0.000    0.000    0.000    0.000    0.000 
#
# Total GULP energy -356946.313605 kJ/mol
# GULP energy per Si atom -5577.286150 kJ/mol
# Density = 2.331847 g / cm^3
# Si number density = 23.371662 Si / 1000 Ang^3
#
#
#
# Elastic Constant Matrix: (Units=GPa)
#
#
# Indices 1 2 3 4 5 6 
#
# 1 133.9009 6.7149 60.8169 0.0000 0.0000 0.0000
# 2 6.7149 55.5693 -3.1392 0.0000 0.0000 0.0000
# 3 60.8169 -3.1392 124.4788 0.0000 0.0000 0.0000
# 4 0.0000 0.0000 0.0000 -13.1872 0.0000 0.0000
# 5 0.0000 0.0000 0.0000 0.0000 -276.1364 0.0000
# 6 0.0000 0.0000 0.0000 0.0000 0.0000 18.4926
#
#
#
# Elastic Compliance Matrix: (Units=1/GPa)
#
#
# Indices 1 2 3 4 5 6 
#
# 1 0.009712 -0.001444 -0.004782 0.000000 0.000000 0.000000
# 2 -0.001444 0.018236 0.001165 0.000000 0.000000 0.000000
# 3 -0.004782 0.001165 0.010399 0.000000 0.000000 0.000000
# 4 0.000000 0.000000 0.000000 -0.075831 0.000000 0.000000
# 5 0.000000 0.000000 0.000000 0.000000 -0.003621 0.000000
# 6 0.000000 0.000000 0.000000 0.000000 0.000000 0.054076
#
#
# Mechanical properties :
#
#
# Convention : Reuss Voigt Hill
#
# Bulk Modulus (GPa) = 35.42700 49.19270 42.30985
# Shear Modulus (GPa) = 153.84653 -37.52912 58.15870
#
# Velocity S-wave (km/s) = 8.12213 -4.01153 4.99383
# Velocity P-wave (km/s) = 10.15626 0.60235 7.16892
#
# Compressibility (1/GPa) = 0.02822706
#
# Stress axis : x y z
#
# Youngs Moduli (GPa) = 102.96127 54.83709 96.16267
#
# Poissons Ratio (x) = 0.07917 0.45981
# Poissons Ratio (y) = 0.14865 -0.11205
# Poissons Ratio (z) = 0.49232 -0.06390
#
# Static dielectric constant tensor:
#      x y z
#    x 1.969590 0.000000 0.000000 
#    y 0.000000 1.966370 0.000000 
#    z 0.000000 0.000000 1.848460 
# 
# From -- ./inp_files/19279.got.cif
#   From: 2010.05.17/outbox.cif.g08.bks.cpg/sg59_10_cif.got.tgz:19279.got - 2010.06.03 14:40:33.
