data_PCOD9451266
_publ_section_title
;
Structure prediction by ZEFSAII (Michael W. Deem and Ramdas Pophale) SiO2 
 PCOD9451266
Probable space group: P M M N
;
_chemical_formula_sum "Si O2"
_cell_formula_units_Z 64
_cell_length_a 9.159633
_cell_length_b 26.966818
_cell_length_c 14.302392
_cell_angle_alpha 90.000000
_cell_angle_beta 90.000000
_cell_angle_gamma 90.000000
_cell_volume 3532.778870
_symmetry_space_group_name_H-M "P M M N"
_symmetry_group_IT_number 59
_space_group.IT_coordinate_system_code '2'
_symmetry_cell_setting 'orthorhombic'
loop_
_space_group_symop_operation_xyz
x,y,z
1/2-x,1/2-y,z
1/2+x,-y,-z
-x,1/2+y,-z
-x,-y,-z
1/2+x,1/2+y,-z
1/2-x,y,z
x,1/2-y,z
loop_
_atom_site_type_symbol
_atom_site_label
_atom_site_fract_x
_atom_site_fract_y
_atom_site_fract_z
Si Si1 0.920537 0.309137 0.343690
Si Si2 0.421293 0.424556 0.636817
Si Si3 0.424305 0.104625 0.427688
Si Si4 0.416731 0.189783 0.155503
Si Si5 0.078658 0.884859 0.187801
Si Si6 0.426066 0.307835 0.946694
Si Si7 0.922132 0.034544 0.278393
Si Si8 0.577034 0.005569 0.900274
O O1 0.750000 0.321016 0.353408
O O2 0.938859 0.250000 0.353448
O O3 0.016885 0.339690 0.416380
O O4 0.978230 0.323438 0.240266
O O5 0.250000 0.411678 0.645692
O O6 0.463911 0.416937 0.529311
O O7 0.513106 0.391974 0.709082
O O8 0.437271 0.481411 0.669393
O O9 0.250000 0.102329 0.417181
O O10 0.501605 0.073887 0.345666
O O11 0.250000 0.172661 0.173183
O O12 0.411317 0.250000 0.151945
O O13 0.465325 0.174392 0.051917
O O14 0.250000 0.874478 0.192196
O O15 0.997273 0.842612 0.129908
O O16 0.058632 0.937793 0.135610
O O17 0.250000 0.309999 0.941549
O O18 0.468548 0.250000 0.936333
O O19 0.750000 0.044769 0.266429
O O20 0.001391 0.028565 0.178644
O O21 0.750000 0.995043 0.906416
O O22 0.500000 0.000000 0.000000
#
# Coordination Sequence:
#
# PCOD9451266 Si02
#       8
#     8   8   8   8   8   8   8   8
#     4  10  21  36  53  76 108 143 177 217 265 314
#     4   9  20  38  58  79 105 139 177 217 266 320
#     4  11  22  36  57  83 107 136 177 221 266 319
#     4   8  15  30  51  73  99 134 174 215 260 308
#     4  10  21  35  54  79 107 140 176 218 267 314
#     4   9  18  33  54  79 106 139 180 221 261 312
#     4  10  20  36  58  83 110 139 174 220 269 316
#     4  10  21  37  55  79 112 148 183 217 260 317
#
# _framework density 18.116050999999999
#
# number of rings (size 3 to 8) (size 9 to 14) (size 15 to 20)
#    0.000    2.375    0.000    3.000    0.000    5.500 
#    0.000    4.375    0.000    0.750    0.000    0.000 
#    0.000    0.000    0.000    0.000    0.000    0.000 
#
# Total GULP energy -357242.081369 kJ/mol
# GULP energy per Si atom -5581.907521 kJ/mol
# Density = 1.807482 g / cm^3
# Si number density = 18.116051 Si / 1000 Ang^3
#
#
#
# Elastic Constant Matrix: (Units=GPa)
#
#
# Indices 1 2 3 4 5 6 
#
# 1 82.2151 38.8367 67.4304 0.0000 0.0000 0.0000
# 2 38.8367 28.6111 38.4461 0.0000 0.0000 0.0000
# 3 67.4304 38.4461 133.3783 0.0000 0.0000 0.0000
# 4 0.0000 0.0000 0.0000 20.3114 0.0000 0.0000
# 5 0.0000 0.0000 0.0000 0.0000 26.7788 0.0000
# 6 0.0000 0.0000 0.0000 0.0000 0.0000 29.7306
#
#
#
# Elastic Compliance Matrix: (Units=1/GPa)
#
#
# Indices 1 2 3 4 5 6 
#
# 1 0.037517 -0.041522 -0.006999 0.000000 0.000000 0.000000
# 2 -0.041522 0.103001 -0.008698 0.000000 0.000000 0.000000
# 3 -0.006999 -0.008698 0.013543 0.000000 0.000000 0.000000
# 4 0.000000 0.000000 0.000000 0.049233 0.000000 0.000000
# 5 0.000000 0.000000 0.000000 0.000000 0.037343 0.000000
# 6 0.000000 0.000000 0.000000 0.000000 0.000000 0.033635
#
#
# Mechanical properties :
#
#
# Convention : Reuss Voigt Hill
#
# Bulk Modulus (GPa) = 25.23697 59.29233 42.26465
# Shear Modulus (GPa) = 12.44032 21.99691 17.21861
#
# Velocity S-wave (km/s) = 2.62334 3.48835 3.08630
# Velocity P-wave (km/s) = 4.81008 7.00179 6.00674
#
# Compressibility (1/GPa) = 0.03962440
#
# Stress axis : x y z
#
# Youngs Moduli (GPa) = 26.65438 9.70860 73.83904
#
# Poissons Ratio (x) = 0.40312 0.51677
# Poissons Ratio (y) = 1.10673 0.64228
# Poissons Ratio (z) = 0.18654 0.08445
#
# Static dielectric constant tensor:
#      x y z
#    x 1.600260 0.000000 0.000000 
#    y 0.000000 1.636290 0.000000 
#    z 0.000000 0.000000 1.601860 
# 
# From -- ./inp_files/21599.got.cif
#   From: 2010.05.17/outbox.cif.g08.bks.cpg/sg59_11_cif.got.tgz:21599.got - 2010.06.03 14:40:33.
