data_PCOD9451197
_publ_section_title
;
Structure prediction by ZEFSAII (Michael W. Deem and Ramdas Pophale) SiO2 
 PCOD9451197
Probable space group: P M M N
;
_chemical_formula_sum "Si O2"
_cell_formula_units_Z 34
_cell_length_a 7.723240
_cell_length_b 9.933348
_cell_length_c 22.615640
_cell_angle_alpha 90.000000
_cell_angle_beta 90.000000
_cell_angle_gamma 90.000000
_cell_volume 1735.018315
_symmetry_space_group_name_H-M "P M M N"
_symmetry_group_IT_number 59
_space_group.IT_coordinate_system_code '2'
_symmetry_cell_setting 'orthorhombic'
loop_
_space_group_symop_operation_xyz
x,y,z
1/2-x,1/2-y,z
1/2+x,-y,-z
-x,1/2+y,-z
-x,-y,-z
1/2+x,1/2+y,-z
1/2-x,y,z
x,1/2-y,z
loop_
_atom_site_type_symbol
_atom_site_label
_atom_site_fract_x
_atom_site_fract_y
_atom_site_fract_z
Si Si1 0.750000 0.250000 0.594420
Si Si2 0.960731 0.750000 0.634113
Si Si3 0.037192 0.750000 0.963216
Si Si4 0.452931 0.473266 0.568551
Si Si5 0.546006 0.041249 0.133057
Si Si6 0.953968 0.250000 0.902989
Si Si7 0.046987 0.250000 0.232125
O O1 0.595151 0.367452 0.591944
O O2 0.750000 0.750000 0.631966
O O3 0.026033 0.750000 0.702077
O O4 0.025424 0.615425 0.602082
O O5 0.250000 0.750000 0.964857
O O6 0.977234 0.878571 0.924668
O O7 0.971718 0.750000 0.030188
O O8 0.500000 0.500000 0.500000
O O9 0.250000 0.430702 0.572810
O O10 0.750000 0.053117 0.128824
O O11 0.495805 0.120962 0.191874
O O12 0.500701 0.885891 0.130536
O O13 0.750000 0.250000 0.909875
O O14 0.250000 0.250000 0.240033
#
# Coordination Sequence:
#
# PCOD9451197 Si02
#       7
#     2   4   4   8   8   4   4
#     4  12  24  42  62  96 142 170 218 268 322 376
#     4  11  23  45  71  97 129 169 218 270 319 394
#     4   8  17  32  52  80 113 155 195 247 300 366
#     4  12  24  42  69  99 140 179 218 265 327 386
#     4  10  20  36  56  82 119 153 198 252 303 362
#     4  11  20  32  53  82 117 154 201 245 310 369
#     4  10  22  41  67  89 113 155 206 254 302 357
#
# _framework density 19.596333999999999
#
# number of rings (size 3 to 8) (size 9 to 14) (size 15 to 20)
#    0.000    1.412    2.353    4.235    0.000    1.882 
#    0.000    7.059    2.588    2.824    0.000    0.000 
#    0.000    0.000    0.000    0.000    0.000    0.000 
#
# Total GULP energy -189283.296439 kJ/mol
# GULP energy per Si atom -5567.155778 kJ/mol
# Density = 1.955173 g / cm^3
# Si number density = 19.596334 Si / 1000 Ang^3
#
#
#
# Elastic Constant Matrix: (Units=GPa)
#
#
# Indices 1 2 3 4 5 6 
#
# 1 129.6942 35.8684 19.0288 0.0000 0.0000 0.0000
# 2 35.8684 186.0224 85.5187 0.0000 0.0000 0.0000
# 3 19.0288 85.5187 139.1113 0.0000 0.0000 0.0000
# 4 0.0000 0.0000 0.0000 11.8603 0.0000 0.0000
# 5 0.0000 0.0000 0.0000 0.0000 19.5397 0.0000
# 6 0.0000 0.0000 0.0000 0.0000 0.0000 0.2712
#
#
#
# Elastic Compliance Matrix: (Units=1/GPa)
#
#
# Indices 1 2 3 4 5 6 
#
# 1 0.008149 -0.001476 -0.000207 0.000000 0.000000 0.000000
# 2 -0.001476 0.007761 -0.004569 0.000000 0.000000 0.000000
# 3 -0.000207 -0.004569 0.010026 0.000000 0.000000 0.000000
# 4 0.000000 0.000000 0.000000 0.084315 0.000000 0.000000
# 5 0.000000 0.000000 0.000000 0.000000 0.051178 0.000000
# 6 0.000000 0.000000 0.000000 0.000000 0.000000 3.686757
#
#
# Mechanical properties :
#
#
# Convention : Reuss Voigt Hill
#
# Bulk Modulus (GPa) = 74.45572 81.73996 78.09784
# Shear Modulus (GPa) = 1.29361 27.29506 14.29433
#
# Velocity S-wave (km/s) = 0.81336 3.73616 2.70374
# Velocity P-wave (km/s) = 6.24174 7.77266 7.04888
#
# Compressibility (1/GPa) = 0.01343080
#
# Stress axis : x y z
#
# Youngs Moduli (GPa) = 122.71356 128.85300 99.74393
#
# Poissons Ratio (x) = 0.19018 0.02068
# Poissons Ratio (y) = 0.18112 0.45573
# Poissons Ratio (z) = 0.02544 0.58874
#
# Static dielectric constant tensor:
#      x y z
#    x 1.708310 0.000000 0.000000 
#    y 0.000000 1.187580 0.000000 
#    z 0.000000 0.000000 1.716730 
# 
# From -- ./inp_files/28673.got.cif
#   From: 2010.05.17/outbox.cif.g08.bks.cpg/sg59_15_cif.got.tgz:28673.got - 2010.06.03 14:40:33.
