data_PCOD9451234
_publ_section_title
;
Structure prediction by ZEFSAII (Michael W. Deem and Ramdas Pophale) SiO2 
 PCOD9451234
Probable space group: P M M N
;
_chemical_formula_sum "Si O2"
_cell_formula_units_Z 56
_cell_length_a 27.906328
_cell_length_b 15.119994
_cell_length_c 6.667218
_cell_angle_alpha 90.000000
_cell_angle_beta 90.000000
_cell_angle_gamma 90.000000
_cell_volume 2813.189378
_symmetry_space_group_name_H-M "P M M N"
_symmetry_group_IT_number 59
_space_group.IT_coordinate_system_code '2'
_symmetry_cell_setting 'orthorhombic'
loop_
_space_group_symop_operation_xyz
x,y,z
1/2-x,1/2-y,z
1/2+x,-y,-z
-x,1/2+y,-z
-x,-y,-z
1/2+x,1/2+y,-z
1/2-x,y,z
x,1/2-y,z
loop_
_atom_site_type_symbol
_atom_site_label
_atom_site_fract_x
_atom_site_fract_y
_atom_site_fract_z
Si Si1 0.892227 0.084412 0.659495
Si Si2 0.663674 0.515745 0.307785
Si Si3 0.197155 0.146957 0.370096
Si Si4 0.551859 0.154207 0.319871
Si Si5 0.968680 0.949975 0.836301
Si Si6 0.148191 0.646584 0.935708
Si Si7 0.880144 0.852971 0.982585
O O1 0.922414 0.154768 0.533817
O O2 0.864917 0.030248 0.488572
O O3 0.930482 0.018689 0.754057
O O4 0.858286 0.124302 0.830123
O O5 0.695583 0.584190 0.435232
O O6 0.679257 0.430306 0.173605
O O7 0.633598 0.578251 0.157539
O O8 0.250000 0.137060 0.274542
O O9 0.191596 0.250000 0.430200
O O10 0.155611 0.128863 0.206376
O O11 0.532074 0.250000 0.268592
O O12 0.508259 0.086636 0.315949
O O13 0.594583 0.135749 0.160416
O O14 0.934930 0.872272 0.921938
O O15 0.000000 0.000000 0.000000
O O16 0.162054 0.750000 0.904506
O O17 0.873619 0.750000 0.039014
#
# Coordination Sequence:
#
# PCOD9451234 Si02
#       7
#     8   8   8   8   8   8   8
#     4  11  20  37  55  77 116 161 208 256 308 353
#     4  11  20  39  61  90 120 155 200 253 311 371
#     4  10  22  41  66  95 126 160 200 248 308 382
#     4  10  21  33  49  76 107 151 211 256 294 348
#     4  12  20  37  54  78 117 168 213 258 306 364
#     4  10  20  36  57  83 117 156 202 255 308 359
#     4  11  23  40  60  89 128 168 209 259 317 375
#
# _framework density 19.906231999999999
#
# number of rings (size 3 to 8) (size 9 to 14) (size 15 to 20)
#    0.000    1.286    4.286    2.571    0.000    1.143 
#    0.000    2.857    0.000    0.429    0.000    0.000 
#    0.000    0.000    0.000    0.000    0.000    0.000 
#
# Total GULP energy -312013.269952 kJ/mol
# GULP energy per Si atom -5571.665535 kJ/mol
# Density = 1.986092 g / cm^3
# Si number density = 19.906232 Si / 1000 Ang^3
#
#
#
# Elastic Constant Matrix: (Units=GPa)
#
#
# Indices 1 2 3 4 5 6 
#
# 1 52.2539 21.8600 17.2096 0.0000 0.0000 0.0000
# 2 21.8600 120.4555 42.7857 0.0000 0.0000 0.0000
# 3 17.2096 42.7857 92.8078 0.0000 0.0000 0.0000
# 4 0.0000 0.0000 0.0000 27.1586 0.0000 0.0000
# 5 0.0000 0.0000 0.0000 0.0000 16.5111 0.0000
# 6 0.0000 0.0000 0.0000 0.0000 0.0000 12.2325
#
#
#
# Elastic Compliance Matrix: (Units=1/GPa)
#
#
# Indices 1 2 3 4 5 6 
#
# 1 0.021215 -0.002933 -0.002582 0.000000 0.000000 0.000000
# 2 -0.002933 0.010333 -0.004220 0.000000 0.000000 0.000000
# 3 -0.002582 -0.004220 0.013199 0.000000 0.000000 0.000000
# 4 0.000000 0.000000 0.000000 0.036821 0.000000 0.000000
# 5 0.000000 0.000000 0.000000 0.000000 0.060565 0.000000
# 6 0.000000 0.000000 0.000000 0.000000 0.000000 0.081750
#
#
# Mechanical properties :
#
#
# Convention : Reuss Voigt Hill
#
# Bulk Modulus (GPa) = 39.56059 47.69198 43.62628
# Shear Modulus (GPa) = 19.85883 23.42456 21.64170
#
# Velocity S-wave (km/s) = 3.16194 3.43409 3.30082
# Velocity P-wave (km/s) = 5.76603 6.30352 6.04075
#
# Compressibility (1/GPa) = 0.02527768
#
# Stress axis : x y z
#
# Youngs Moduli (GPa) = 47.13737 96.77778 75.76292
#
# Poissons Ratio (x) = 0.28384 0.19560
# Poissons Ratio (y) = 0.13825 0.31970
# Poissons Ratio (z) = 0.12170 0.40838
#
# Static dielectric constant tensor:
#      x y z
#    x 1.704340 0.000000 0.000000 
#    y 0.000000 1.765200 0.000000 
#    z 0.000000 0.000000 1.718050 
# 
# From -- ./inp_files/2319.got.cif
#   From: 2010.05.17/outbox.cif.g08.bks.cpg/sg59_2_cif.got.tgz:2319.got - 2010.06.03 14:40:33.
