data_PCOD9451339
_publ_section_title
;
Structure prediction by ZEFSAII (Michael W. Deem and Ramdas Pophale) SiO2 
 PCOD9451339
Probable space group: P M M N
;
_chemical_formula_sum "Si O2"
_cell_formula_units_Z 40
_cell_length_a 13.260682
_cell_length_b 8.721540
_cell_length_c 16.631394
_cell_angle_alpha 90.000000
_cell_angle_beta 90.000000
_cell_angle_gamma 90.000000
_cell_volume 1923.480065
_symmetry_space_group_name_H-M "P M M N"
_symmetry_group_IT_number 59
_space_group.IT_coordinate_system_code '2'
_symmetry_cell_setting 'orthorhombic'
loop_
_space_group_symop_operation_xyz
x,y,z
1/2-x,1/2-y,z
1/2+x,-y,-z
-x,1/2+y,-z
-x,-y,-z
1/2+x,1/2+y,-z
1/2-x,y,z
x,1/2-y,z
loop_
_atom_site_type_symbol
_atom_site_label
_atom_site_fract_x
_atom_site_fract_y
_atom_site_fract_z
Si Si1 0.250000 0.934098 0.658318
Si Si2 0.609022 0.566745 0.014119
Si Si3 0.637560 0.418071 0.848390
Si Si4 0.128529 0.073020 0.308690
Si Si5 0.250000 0.434593 0.839437
Si Si6 0.541027 0.568762 0.416497
O O1 0.250000 0.750000 0.654689
O O2 0.250000 0.987798 0.752371
O O3 0.353439 0.995762 0.615970
O O4 0.616276 0.750000 0.007364
O O5 0.652905 0.487301 0.935544
O O6 0.500000 0.500000 0.000000
O O7 0.656725 0.525992 0.100463
O O8 0.750000 0.393583 0.816725
O O9 0.585767 0.250000 0.850828
O O10 0.597788 0.538859 0.784107
O O11 0.250000 0.051991 0.323478
O O12 0.107300 0.250000 0.328381
O O13 0.053017 0.965261 0.357354
O O14 0.250000 0.250000 0.827423
O O15 0.500000 0.500000 0.500000
O O16 0.557754 0.750000 0.424057
#
# Coordination Sequence:
#
# PCOD9451339 Si02
#       6
#     4   8   8   8   4   8
#     4  12  28  50  76 107 144 189 242 294 362 437
#     4  11  23  39  61  89 127 175 229 280 335 400
#     4  10  20  36  59  89 126 167 217 272 332 392
#     4  10  22  41  68 101 138 179 229 286 350 417
#     4  10  24  46  68  95 138 189 236 290 354 417
#     4  12  27  49  77 106 143 183 232 290 358 435
#
# _framework density 20.795639999999999
#
# number of rings (size 3 to 8) (size 9 to 14) (size 15 to 20)
#    0.000    1.200    1.000    4.500    4.200    3.600 
#    0.000    0.000    0.000    0.000    0.000    0.000 
#    0.000    0.000    0.000    0.000    0.000    0.000 
#
# Total GULP energy -222714.036782 kJ/mol
# GULP energy per Si atom -5567.850920 kJ/mol
# Density = 2.074831 g / cm^3
# Si number density = 20.795640 Si / 1000 Ang^3
#
#
#
# Elastic Constant Matrix: (Units=GPa)
#
#
# Indices 1 2 3 4 5 6 
#
# 1 120.2489 48.9574 52.5895 0.0000 0.0000 0.0000
# 2 48.9574 136.9083 51.1322 0.0000 0.0000 0.0000
# 3 52.5895 51.1322 132.9581 0.0000 0.0000 0.0000
# 4 0.0000 0.0000 0.0000 39.0387 0.0000 0.0000
# 5 0.0000 0.0000 0.0000 0.0000 6.2263 0.0000
# 6 0.0000 0.0000 0.0000 0.0000 0.0000 26.5924
#
#
#
# Elastic Compliance Matrix: (Units=1/GPa)
#
#
# Indices 1 2 3 4 5 6 
#
# 1 0.010822 -0.002652 -0.003260 0.000000 0.000000 0.000000
# 2 -0.002652 0.009179 -0.002481 0.000000 0.000000 0.000000
# 3 -0.003260 -0.002481 0.009765 0.000000 0.000000 0.000000
# 4 0.000000 0.000000 0.000000 0.025616 0.000000 0.000000
# 5 0.000000 0.000000 0.000000 0.000000 0.160609 0.000000
# 6 0.000000 0.000000 0.000000 0.000000 0.000000 0.037605
#
#
# Mechanical properties :
#
#
# Convention : Reuss Voigt Hill
#
# Bulk Modulus (GPa) = 77.04968 77.27484 77.16226
# Shear Modulus (GPa) = 18.20113 30.20057 24.20085
#
# Velocity S-wave (km/s) = 2.96165 3.81498 3.41507
# Velocity P-wave (km/s) = 6.98760 7.52630 7.26195
#
# Compressibility (1/GPa) = 0.01297864
#
# Stress axis : x y z
#
# Youngs Moduli (GPa) = 92.40644 108.94263 102.40710
#
# Poissons Ratio (x) = 0.28892 0.33389
# Poissons Ratio (y) = 0.24507 0.25408
# Poissons Ratio (z) = 0.30129 0.27029
#
# Static dielectric constant tensor:
#      x y z
#    x 1.780530 0.000000 0.000000 
#    y 0.000000 1.735080 0.000000 
#    z 0.000000 0.000000 1.737770 
# 
# From -- ./inp_files/23025.got.cif
#   From: 2010.05.17/outbox.cif.g08.bks.cpg/sg59_12_cif.got.tgz:23025.got - 2010.06.03 14:40:33.
