data_PCOD9451366
_publ_section_title
;
Structure prediction by ZEFSAII (Michael W. Deem and Ramdas Pophale) SiO2 
 PCOD9451366
Probable space group: P M M N
;
_chemical_formula_sum "Si O2"
_cell_formula_units_Z 48
_cell_length_a 10.253311
_cell_length_b 17.880695
_cell_length_c 14.117214
_cell_angle_alpha 90.000000
_cell_angle_beta 90.000000
_cell_angle_gamma 90.000000
_cell_volume 2588.198158
_symmetry_space_group_name_H-M "P M M N"
_symmetry_group_IT_number 59
_space_group.IT_coordinate_system_code '2'
_symmetry_cell_setting 'orthorhombic'
loop_
_space_group_symop_operation_xyz
x,y,z
1/2-x,1/2-y,z
1/2+x,-y,-z
-x,1/2+y,-z
-x,-y,-z
1/2+x,1/2+y,-z
1/2-x,y,z
x,1/2-y,z
loop_
_atom_site_type_symbol
_atom_site_label
_atom_site_fract_x
_atom_site_fract_y
_atom_site_fract_z
Si Si1 0.750000 0.158981 0.769725
Si Si2 0.250000 0.165103 0.815928
Si Si3 0.485588 0.337239 0.669085
Si Si4 0.250000 0.895081 0.013112
Si Si5 0.596658 0.568736 0.512190
Si Si6 0.250000 0.425669 0.003009
Si Si7 0.992045 0.838977 0.906877
Si Si8 0.903448 0.662921 0.700892
O O1 0.750000 0.250000 0.774572
O O2 0.878526 0.134165 0.712597
O O3 0.750000 0.129660 0.877013
O O4 0.250000 0.250000 0.856956
O O5 0.376461 0.157733 0.750225
O O6 0.250000 0.102945 0.895544
O O7 0.503893 0.250000 0.646132
O O8 0.434432 0.377831 0.576207
O O9 0.376143 0.862371 0.959481
O O10 0.250000 0.985074 0.009383
O O11 0.500000 0.500000 0.500000
O O12 0.750000 0.548124 0.510445
O O13 0.570702 0.611014 0.611155
O O14 0.123558 0.388801 0.050803
O O15 0.967259 0.750000 0.920989
O O16 0.989730 0.852191 0.793641
O O17 0.750000 0.653911 0.727743
O O18 0.920521 0.750000 0.673988
#
# Coordination Sequence:
#
# PCOD9451366 Si02
#       8
#     4   4   8   4   8   4   8   8
#     4  10  22  40  62  88 120 166 208 250 310 380
#     4  10  20  36  60  88 116 156 210 260 302 358
#     4  10  21  40  64  88 116 157 210 257 299 357
#     4  12  26  40  61  94 137 166 203 258 336 374
#     4  11  24  40  62  92 128 163 197 248 317 375
#     4  12  24  38  61  94 125 164 207 266 316 376
#     4  11  22  42  65  89 121 167 218 261 306 372
#     4   9  19  39  67  92 114 157 215 259 297 357
#
# _framework density 18.545719999999999
#
# number of rings (size 3 to 8) (size 9 to 14) (size 15 to 20)
#    0.000    1.500    1.667    3.500    1.167    4.667 
#    1.500    0.000    0.000    0.000    0.000    0.000 
#    0.000    0.000    0.000    0.000    0.000    0.000 
#
# Total GULP energy -268181.959949 kJ/mol
# GULP energy per Si atom -5587.124166 kJ/mol
# Density = 1.850351 g / cm^3
# Si number density = 18.545720 Si / 1000 Ang^3
#
#
#
# Elastic Constant Matrix: (Units=GPa)
#
#
# Indices 1 2 3 4 5 6 
#
# 1 108.0434 23.2992 32.8165 0.0000 0.0000 0.0000
# 2 23.2992 74.5424 44.0883 0.0000 0.0000 0.0000
# 3 32.8165 44.0883 90.4472 0.0000 0.0000 0.0000
# 4 0.0000 0.0000 0.0000 -142.3970 0.0000 0.0000
# 5 0.0000 0.0000 0.0000 0.0000 27.3087 0.0000
# 6 0.0000 0.0000 0.0000 0.0000 0.0000 19.2071
#
#
#
# Elastic Compliance Matrix: (Units=1/GPa)
#
#
# Indices 1 2 3 4 5 6 
#
# 1 0.010512 -0.001447 -0.003109 0.000000 0.000000 0.000000
# 2 -0.001447 0.019049 -0.008760 0.000000 0.000000 0.000000
# 3 -0.003109 -0.008760 0.016454 0.000000 0.000000 0.000000
# 4 0.000000 0.000000 0.000000 -0.007023 0.000000 0.000000
# 5 0.000000 0.000000 0.000000 0.000000 0.036618 0.000000
# 6 0.000000 0.000000 0.000000 0.000000 0.000000 0.052064
#
#
# Mechanical properties :
#
#
# Convention : Reuss Voigt Hill
#
# Bulk Modulus (GPa) = 51.59158 52.60457 52.09807
# Shear Modulus (GPa) = 31.10086 -7.65431 11.72328
#
# Velocity S-wave (km/s) = 4.09954 -2.03377 2.51694
# Velocity P-wave (km/s) = 7.09135 4.78659 6.04974
#
# Compressibility (1/GPa) = 0.01938301
#
# Stress axis : x y z
#
# Youngs Moduli (GPa) = 95.13148 52.49686 60.77462
#
# Poissons Ratio (x) = 0.07596 0.18892
# Poissons Ratio (y) = 0.13766 0.53240
# Poissons Ratio (z) = 0.29572 0.45989
#
# Static dielectric constant tensor:
#      x y z
#    x 1.686100 0.000000 0.000000 
#    y 0.000000 1.609480 0.000000 
#    z 0.000000 0.000000 1.618210 
# 
# From -- ./inp_files/20640.got.cif
#   From: 2010.05.17/outbox.cif.g08.bks.cpg/sg59_11_cif.got.tgz:20640.got - 2010.06.03 14:40:33.
