data_PCOD9451614
_publ_section_title
;
Structure prediction by ZEFSAII (Michael W. Deem and Ramdas Pophale) SiO2 
 PCOD9451614
Probable space group: P M M N
;
_chemical_formula_sum "Si O2"
_cell_formula_units_Z 64
_cell_length_a 22.066612
_cell_length_b 15.026464
_cell_length_c 9.378662
_cell_angle_alpha 90.000000
_cell_angle_beta 90.000000
_cell_angle_gamma 90.000000
_cell_volume 3109.806296
_symmetry_space_group_name_H-M "P M M N"
_symmetry_group_IT_number 59
_space_group.IT_coordinate_system_code '2'
_symmetry_cell_setting 'orthorhombic'
loop_
_space_group_symop_operation_xyz
x,y,z
1/2-x,1/2-y,z
1/2+x,-y,-z
-x,1/2+y,-z
-x,-y,-z
1/2+x,1/2+y,-z
1/2-x,y,z
x,1/2-y,z
loop_
_atom_site_type_symbol
_atom_site_label
_atom_site_fract_x
_atom_site_fract_y
_atom_site_fract_z
Si Si1 0.315260 0.464570 0.113205
Si Si2 0.982369 0.911005 0.683637
Si Si3 0.616470 0.643953 0.113957
Si Si4 0.369131 0.650347 0.174468
Si Si5 0.321355 0.445371 0.618346
Si Si6 0.650408 0.844831 0.645777
Si Si7 0.509038 0.352773 0.007183
Si Si8 0.583650 0.424125 0.537280
O O1 0.250000 0.448265 0.047242
O O2 0.327809 0.568513 0.125943
O O3 0.319155 0.425618 0.271307
O O4 0.362629 0.403154 0.031398
O O5 0.922097 0.851911 0.662578
O O6 0.001684 0.910237 0.849280
O O7 0.038051 0.884139 0.580955
O O8 0.957434 0.005997 0.628055
O O9 0.630432 0.750000 0.119760
O O10 0.649172 0.586629 0.234473
O O11 0.544149 0.633239 0.107902
O O12 0.344837 0.750000 0.154041
O O13 0.387781 0.637416 0.340324
O O14 0.428160 0.639136 0.074631
O O15 0.250000 0.467932 0.629431
O O16 0.330565 0.360347 0.515696
O O17 0.363580 0.522061 0.547328
O O18 0.671257 0.750000 0.702072
O O19 0.502450 0.250000 0.056684
#
# Coordination Sequence:
#
# PCOD9451614 Si02
#       8
#     8   8   8   8   8   8   8   8
#     4  12  25  42  64  91 125 169 215 260 309 372
#     4  10  20  38  63  93 130 164 203 255 322 388
#     4  11  24  41  64  98 135 170 204 248 313 388
#     4  11  25  44  66  94 123 162 219 275 325 372
#     4  11  24  41  60  89 129 171 216 252 303 374
#     4  11  22  38  63  95 129 162 202 253 310 381
#     4  10  22  39  63  94 126 162 204 257 317 379
#     4  10  23  39  61  97 122 167 212 262 321 375
#
# _framework density 20.580058999999999
#
# number of rings (size 3 to 8) (size 9 to 14) (size 15 to 20)
#    0.000    1.250    3.750    1.875    7.000    5.250 
#    0.000    0.000    0.000    0.000    0.000    0.000 
#    0.000    0.000    0.000    0.000    0.000    0.000 
#
# Total GULP energy -357273.776139 kJ/mol
# GULP energy per Si atom -5582.402752 kJ/mol
# Density = 2.053322 g / cm^3
# Si number density = 20.580059 Si / 1000 Ang^3
#
#
#
# Elastic Constant Matrix: (Units=GPa)
#
#
# Indices 1 2 3 4 5 6 
#
# 1 67.0631 26.2004 19.3162 0.0000 0.0000 0.0000
# 2 26.2004 66.3253 3.5036 0.0000 0.0000 0.0000
# 3 19.3162 3.5036 87.7184 0.0000 0.0000 0.0000
# 4 0.0000 0.0000 0.0000 20.6938 0.0000 0.0000
# 5 0.0000 0.0000 0.0000 0.0000 15.7643 0.0000
# 6 0.0000 0.0000 0.0000 0.0000 0.0000 0.8227
#
#
#
# Elastic Compliance Matrix: (Units=1/GPa)
#
#
# Indices 1 2 3 4 5 6 
#
# 1 0.018854 -0.007244 -0.003862 0.000000 0.000000 0.000000
# 2 -0.007244 0.017892 0.000880 0.000000 0.000000 0.000000
# 3 -0.003862 0.000880 0.012215 0.000000 0.000000 0.000000
# 4 0.000000 0.000000 0.000000 0.048324 0.000000 0.000000
# 5 0.000000 0.000000 0.000000 0.000000 0.063435 0.000000
# 6 0.000000 0.000000 0.000000 0.000000 0.000000 1.215439
#
#
# Mechanical properties :
#
#
# Convention : Reuss Voigt Hill
#
# Bulk Modulus (GPa) = 35.07530 35.46081 35.26805
# Shear Modulus (GPa) = 3.55590 18.92860 11.24225
#
# Velocity S-wave (km/s) = 1.31590 3.03604 2.33978
# Velocity P-wave (km/s) = 4.40331 5.43673 4.94708
#
# Compressibility (1/GPa) = 0.02851009
#
# Stress axis : x y z
#
# Youngs Moduli (GPa) = 53.03961 55.89034 81.86333
#
# Poissons Ratio (x) = 0.40486 0.31619
# Poissons Ratio (y) = 0.38421 -0.07208
# Poissons Ratio (z) = 0.20486 -0.04921
#
# Static dielectric constant tensor:
#      x y z
#    x 1.740210 0.000000 0.000000 
#    y 0.000000 1.739550 0.000000 
#    z 0.000000 0.000000 1.750330 
# 
# From -- ./inp_files/12188.got.cif
#   From: 2010.05.17/outbox.cif.g08.bks.cpg/sg59_7_cif.got.tgz:12188.got - 2010.06.03 14:40:33.
