data_PCOD9452801
_publ_section_title
;
Structure prediction by ZEFSAII (Michael W. Deem and Ramdas Pophale) SiO2 
 PCOD9452801
Probable space group: P M M N
;
_chemical_formula_sum "Si O2"
_cell_formula_units_Z 56
_cell_length_a 8.449978
_cell_length_b 15.874483
_cell_length_c 22.011117
_cell_angle_alpha 90.000000
_cell_angle_beta 90.000000
_cell_angle_gamma 90.000000
_cell_volume 2952.549930
_symmetry_space_group_name_H-M "P M M N"
_symmetry_group_IT_number 59
_space_group.IT_coordinate_system_code '2'
_symmetry_cell_setting 'orthorhombic'
loop_
_space_group_symop_operation_xyz
x,y,z
1/2-x,1/2-y,z
1/2+x,-y,-z
-x,1/2+y,-z
-x,-y,-z
1/2+x,1/2+y,-z
1/2-x,y,z
x,1/2-y,z
loop_
_atom_site_type_symbol
_atom_site_label
_atom_site_fract_x
_atom_site_fract_y
_atom_site_fract_z
Si Si1 0.443526 0.998422 0.151761
Si Si2 0.441115 0.656309 0.632465
Si Si3 0.060667 0.156430 0.629546
Si Si4 0.560752 0.001333 0.709023
Si Si5 0.058832 0.154270 0.069640
Si Si6 0.058796 0.845881 0.066143
Si Si7 0.440100 0.595858 0.499184
O O1 0.250000 0.998342 0.151968
O O2 0.496639 0.996492 0.221406
O O3 0.494633 0.916325 0.113801
O O4 0.494606 0.082985 0.116648
O O5 0.250000 0.653771 0.633998
O O6 0.493295 0.750000 0.650735
O O7 0.503822 0.582386 0.674813
O O8 0.488497 0.638548 0.562618
O O9 0.250000 0.152834 0.631487
O O10 0.008088 0.250000 0.648664
O O11 0.994986 0.082625 0.671679
O O12 0.006925 0.140265 0.560475
O O13 0.750000 0.001101 0.709587
O O14 0.250000 0.153762 0.069196
O O15 0.006981 0.250000 0.084541
O O16 0.000799 0.134546 0.001647
O O17 0.250000 0.846915 0.065165
O O18 0.008217 0.750000 0.081121
O O19 0.500000 0.500000 0.500000
O O20 0.250000 0.596589 0.495942
#
# Coordination Sequence:
#
# PCOD9452801 Si02
#       7
#     8   8   8   8   8   8   8
#     4   9  19  34  52  76 105 140 180 218 267 324
#     4  10  22  40  60  82 113 150 184 225 281 338
#     4  11  24  41  60  83 114 151 190 234 285 338
#     4  11  23  38  58  83 111 148 193 238 279 330
#     4   9  17  31  52  77 106 137 171 215 265 318
#     4   9  17  31  52  77 105 135 171 218 267 317
#     4  11  21  36  62  90 116 146 183 230 285 338
#
# _framework density 18.966657000000001
#
# number of rings (size 3 to 8) (size 9 to 14) (size 15 to 20)
#    0.000    2.000    1.429    2.143    0.000    3.714 
#    0.000    5.714    0.000    3.429    0.000    0.000 
#    0.000    0.000    0.000    0.000    0.000    0.000 
#
# Total GULP energy -312743.015926 kJ/mol
# GULP energy per Si atom -5584.696713 kJ/mol
# Density = 1.892349 g / cm^3
# Si number density = 18.966657 Si / 1000 Ang^3
#
#
#
# Elastic Constant Matrix: (Units=GPa)
#
#
# Indices 1 2 3 4 5 6 
#
# 1 15.6782 29.4099 22.2149 0.0000 0.0000 0.0000
# 2 29.4099 184.2222 114.3109 0.0000 0.0000 0.0000
# 3 22.2149 114.3109 165.0859 0.0000 0.0000 0.0000
# 4 0.0000 0.0000 0.0000 -6.9262 0.0000 0.0000
# 5 0.0000 0.0000 0.0000 0.0000 24.6416 0.0000
# 6 0.0000 0.0000 0.0000 0.0000 0.0000 7.6594
#
#
#
# Elastic Compliance Matrix: (Units=1/GPa)
#
#
# Indices 1 2 3 4 5 6 
#
# 1 0.092455 -0.012343 -0.003894 0.000000 0.000000 0.000000
# 2 -0.012343 0.011165 -0.006070 0.000000 0.000000 0.000000
# 3 -0.003894 -0.006070 0.010785 0.000000 0.000000 0.000000
# 4 0.000000 0.000000 0.000000 -0.144379 0.000000 0.000000
# 5 0.000000 0.000000 0.000000 0.000000 0.040582 0.000000
# 6 0.000000 0.000000 0.000000 0.000000 0.000000 0.130559
#
#
# Mechanical properties :
#
#
# Convention : Reuss Voigt Hill
#
# Bulk Modulus (GPa) = 14.32887 77.42865 45.87876
# Shear Modulus (GPa) = 23.91814 18.34500 21.13157
#
# Velocity S-wave (km/s) = 3.55500 3.11340 3.34150
# Velocity P-wave (km/s) = 4.94185 7.33734 6.25533
#
# Compressibility (1/GPa) = 0.06978918
#
# Stress axis : x y z
#
# Youngs Moduli (GPa) = 10.81607 89.56194 92.72330
#
# Poissons Ratio (x) = 1.10551 0.36109
# Poissons Ratio (y) = 0.13351 0.56286
# Poissons Ratio (z) = 0.04212 0.54367
#
# Static dielectric constant tensor:
#      x y z
#    x 1.649620 0.000000 0.000000 
#    y 0.000000 1.657250 0.000000 
#    z 0.000000 0.000000 1.626980 
# 
# From -- ./inp_files/29179.got.cif
#   From: 2010.05.17/outbox.cif.g08.bks.cpg/sg59_15_cif.got.tgz:29179.got - 2010.06.03 14:40:33.
