data_PCOD9452202
_publ_section_title
;
Structure prediction by ZEFSAII (Michael W. Deem and Ramdas Pophale) SiO2 
 PCOD9452202
Probable space group: P M M N
;
_chemical_formula_sum "Si O2"
_cell_formula_units_Z 64
_cell_length_a 18.949605
_cell_length_b 8.910268
_cell_length_c 20.756249
_cell_angle_alpha 90.000000
_cell_angle_beta 90.000000
_cell_angle_gamma 90.000000
_cell_volume 3504.610844
_symmetry_space_group_name_H-M "P M M N"
_symmetry_group_IT_number 59
_space_group.IT_coordinate_system_code '2'
_symmetry_cell_setting 'orthorhombic'
loop_
_space_group_symop_operation_xyz
x,y,z
1/2-x,1/2-y,z
1/2+x,-y,-z
-x,1/2+y,-z
-x,-y,-z
1/2+x,1/2+y,-z
1/2-x,y,z
x,1/2-y,z
loop_
_atom_site_type_symbol
_atom_site_label
_atom_site_fract_x
_atom_site_fract_y
_atom_site_fract_z
Si Si1 0.332227 0.429897 0.567005
Si Si2 0.667243 0.070768 0.570884
Si Si3 0.575131 0.568806 0.309168
Si Si4 0.422674 0.570759 0.925787
Si Si5 0.331693 0.069169 0.814898
Si Si6 0.331934 0.069378 0.185812
Si Si7 0.424973 0.929235 0.075645
Si Si8 0.920244 0.929979 0.686951
O O1 0.250000 0.463041 0.582335
O O2 0.337574 0.250000 0.557750
O O3 0.350526 0.511167 0.500405
O O4 0.382187 0.472434 0.626192
O O5 0.750000 0.033031 0.582457
O O6 0.659770 0.250000 0.573212
O O7 0.618880 0.995401 0.624572
O O8 0.567463 0.750000 0.308768
O O9 0.621424 0.526388 0.246912
O O10 0.498833 0.494147 0.307715
O O11 0.426280 0.750000 0.919340
O O12 0.364735 0.504266 0.878217
O O13 0.498837 0.500718 0.909155
O O14 0.408516 0.534604 0.000902
O O15 0.250000 0.027399 0.805818
O O16 0.335104 0.250000 0.820824
O O17 0.250000 0.027533 0.192404
O O18 0.335965 0.250000 0.179111
O O19 0.375499 0.027215 0.249630
O O20 0.367587 0.994074 0.124133
O O21 0.429671 0.750000 0.081844
O O22 0.922090 0.750000 0.683079
#
# Coordination Sequence:
#
# PCOD9452202 Si02
#       8
#     8   8   8   8   8   8   8   8
#     4   9  18  35  59  83 109 144 182 221 269 323
#     4  10  21  37  58  84 112 142 179 224 272 323
#     4  10  21  37  57  82 112 145 183 227 273 322
#     4  10  21  37  57  82 113 148 185 225 272 327
#     4  10  21  37  58  84 113 146 185 228 274 326
#     4  10  22  39  58  81 110 144 183 228 277 330
#     4  10  21  37  58  83 111 145 185 228 274 326
#     4  11  23  38  57  81 110 145 184 225 271 325
#
# _framework density 18.261655999999999
#
# number of rings (size 3 to 8) (size 9 to 14) (size 15 to 20)
#    0.000    2.000    0.000    3.000    0.000    9.750 
#    0.000    2.500    0.000    2.250    0.000    0.000 
#    0.000    0.000    0.000    0.000    0.000    0.000 
#
# Total GULP energy -357578.617092 kJ/mol
# GULP energy per Si atom -5587.165892 kJ/mol
# Density = 1.822009 g / cm^3
# Si number density = 18.261656 Si / 1000 Ang^3
#
#
#
# Elastic Constant Matrix: (Units=GPa)
#
#
# Indices 1 2 3 4 5 6 
#
# 1 163.2947 58.8517 112.6236 0.0000 0.0000 0.0000
# 2 58.8517 33.5645 52.1521 0.0000 0.0000 0.0000
# 3 112.6236 52.1521 127.5710 0.0000 0.0000 0.0000
# 4 0.0000 0.0000 0.0000 10.1340 0.0000 0.0000
# 5 0.0000 0.0000 0.0000 0.0000 43.1928 0.0000
# 6 0.0000 0.0000 0.0000 0.0000 0.0000 32.4383
#
#
#
# Elastic Compliance Matrix: (Units=1/GPa)
#
#
# Indices 1 2 3 4 5 6 
#
# 1 0.019816 -0.020732 -0.009019 0.000000 0.000000 0.000000
# 2 -0.020732 0.103360 -0.023952 0.000000 0.000000 0.000000
# 3 -0.009019 -0.023952 0.025593 0.000000 0.000000 0.000000
# 4 0.000000 0.000000 0.000000 0.098678 0.000000 0.000000
# 5 0.000000 0.000000 0.000000 0.000000 0.023152 0.000000
# 6 0.000000 0.000000 0.000000 0.000000 0.000000 0.030828
#
#
# Mechanical properties :
#
#
# Convention : Reuss Voigt Hill
#
# Bulk Modulus (GPa) = 24.17567 85.74278 54.95922
# Shear Modulus (GPa) = 11.83098 23.87321 17.85210
#
# Velocity S-wave (km/s) = 2.54807 3.61956 3.13001
# Velocity P-wave (km/s) = 4.68232 8.03260 6.57445
#
# Compressibility (1/GPa) = 0.04136391
#
# Stress axis : x y z
#
# Youngs Moduli (GPa) = 50.46473 9.67490 39.07385
#
# Poissons Ratio (x) = 0.20058 0.35240
# Poissons Ratio (y) = 1.04622 0.93590
# Poissons Ratio (z) = 0.45513 0.23173
#
# Static dielectric constant tensor:
#      x y z
#    x 1.599100 0.000000 0.000000 
#    y 0.000000 1.610650 0.000000 
#    z 0.000000 0.000000 1.603800 
# 
# From -- ./inp_files/30827.got.cif
#   From: 2010.05.17/outbox.cif.g08.bks.cpg/sg59_16_cif.got.tgz:30827.got - 2010.06.03 14:40:33.
