data_PCOD9452412
_publ_section_title
;
Structure prediction by ZEFSAII (Michael W. Deem and Ramdas Pophale) SiO2 
 PCOD9452412
Probable space group: P M M N
;
_chemical_formula_sum "Si O2"
_cell_formula_units_Z 56
_cell_length_a 8.891484
_cell_length_b 14.262305
_cell_length_c 21.616348
_cell_angle_alpha 90.000000
_cell_angle_beta 90.000000
_cell_angle_gamma 90.000000
_cell_volume 2741.235165
_symmetry_space_group_name_H-M "P M M N"
_symmetry_group_IT_number 59
_space_group.IT_coordinate_system_code '2'
_symmetry_cell_setting 'orthorhombic'
loop_
_space_group_symop_operation_xyz
x,y,z
1/2-x,1/2-y,z
1/2+x,-y,-z
-x,1/2+y,-z
-x,-y,-z
1/2+x,1/2+y,-z
1/2-x,y,z
x,1/2-y,z
loop_
_atom_site_type_symbol
_atom_site_label
_atom_site_fract_x
_atom_site_fract_y
_atom_site_fract_z
Si Si1 0.429110 0.031413 0.779232
Si Si2 0.072517 0.360723 0.160524
Si Si3 0.578819 0.364122 0.031064
Si Si4 0.571191 0.861374 0.095839
Si Si5 0.575890 0.637504 0.464729
Si Si6 0.428256 0.534756 0.348536
Si Si7 0.428207 0.860351 0.596254
O O1 0.250000 0.037682 0.771603
O O2 0.479471 0.925283 0.793214
O O3 0.509816 0.066839 0.717671
O O4 0.473522 0.088586 0.840752
O O5 0.250000 0.377512 0.167747
O O6 0.043584 0.250000 0.169184
O O7 0.020391 0.386360 0.090909
O O8 0.750000 0.396519 0.040327
O O9 0.580719 0.250000 0.028098
O O10 0.512444 0.396229 0.965650
O O11 0.750000 0.874578 0.087152
O O12 0.544099 0.750000 0.101791
O O13 0.750000 0.608371 0.472697
O O14 0.572779 0.750000 0.457522
O O15 0.505014 0.590728 0.404581
O O16 0.482449 0.615709 0.526654
O O17 0.250000 0.543122 0.351802
O O18 0.480334 0.427408 0.358542
O O19 0.250000 0.876771 0.602403
O O20 0.457747 0.750000 0.606224
#
# Coordination Sequence:
#
# PCOD9452412 Si02
#       7
#     8   8   8   8   8   8   8
#     4  11  24  40  58  82 112 150 195 236 281 339
#     4  10  21  38  59  82 111 147 187 234 287 341
#     4   9  17  31  55  85 112 141 181 230 283 336
#     4   9  19  37  59  82 110 144 183 230 283 338
#     4  10  21  39  64  92 121 153 191 236 285 336
#     4  12  25  40  59  84 119 158 195 237 284 340
#     4  10  21  39  64  92 120 151 191 238 286 337
#
# _framework density 20.428747999999999
#
# number of rings (size 3 to 8) (size 9 to 14) (size 15 to 20)
#    0.000    1.857    0.000    3.857    0.000    7.143 
#    0.000    1.429    0.000    0.000    0.000    0.000 
#    0.000    0.000    0.000    0.000    0.000    0.000 
#
# Total GULP energy -313202.211501 kJ/mol
# GULP energy per Si atom -5592.896634 kJ/mol
# Density = 2.038225 g / cm^3
# Si number density = 20.428748 Si / 1000 Ang^3
#
#
#
# Elastic Constant Matrix: (Units=GPa)
#
#
# Indices 1 2 3 4 5 6 
#
# 1 60.3322 5.1670 4.6916 0.0000 0.0000 0.0000
# 2 5.1670 38.2854 6.7330 0.0000 0.0000 0.0000
# 3 4.6916 6.7330 59.6390 0.0000 0.0000 0.0000
# 4 0.0000 0.0000 0.0000 20.2610 0.0000 0.0000
# 5 0.0000 0.0000 0.0000 0.0000 38.7771 0.0000
# 6 0.0000 0.0000 0.0000 0.0000 0.0000 24.5953
#
#
#
# Elastic Compliance Matrix: (Units=1/GPa)
#
#
# Indices 1 2 3 4 5 6 
#
# 1 0.016838 -0.002081 -0.001090 0.000000 0.000000 0.000000
# 2 -0.002081 0.026906 -0.002874 0.000000 0.000000 0.000000
# 3 -0.001090 -0.002874 0.017178 0.000000 0.000000 0.000000
# 4 0.000000 0.000000 0.000000 0.049356 0.000000 0.000000
# 5 0.000000 0.000000 0.000000 0.000000 0.025788 0.000000
# 6 0.000000 0.000000 0.000000 0.000000 0.000000 0.040658
#
#
# Mechanical properties :
#
#
# Convention : Reuss Voigt Hill
#
# Bulk Modulus (GPa) = 20.47806 21.27109 20.87458
# Shear Modulus (GPa) = 24.37953 26.17102 25.27528
#
# Velocity S-wave (km/s) = 3.45830 3.58311 3.52126
# Velocity P-wave (km/s) = 5.09827 5.24911 5.17424
#
# Compressibility (1/GPa) = 0.04883274
#
# Stress axis : x y z
#
# Youngs Moduli (GPa) = 59.39008 37.16669 58.21499
#
# Poissons Ratio (x) = 0.07734 0.06344
# Poissons Ratio (y) = 0.12358 0.16730
# Poissons Ratio (z) = 0.06472 0.10681
#
# Static dielectric constant tensor:
#      x y z
#    x 1.688420 0.000000 0.000000 
#    y 0.000000 1.763640 0.000000 
#    z 0.000000 0.000000 1.696740 
# 
# From -- ./inp_files/29011.got.cif
#   From: 2010.05.17/outbox.cif.g08.bks.cpg/sg59_15_cif.got.tgz:29011.got - 2010.06.03 14:40:33.
