data_PCOD9452765
_publ_section_title
;
Structure prediction by ZEFSAII (Michael W. Deem and Ramdas Pophale) SiO2 
 PCOD9452765
Probable space group: P M M N
;
_chemical_formula_sum "Si O2"
_cell_formula_units_Z 64
_cell_length_a 31.749991
_cell_length_b 8.723769
_cell_length_c 12.428353
_cell_angle_alpha 90.000000
_cell_angle_beta 90.000000
_cell_angle_gamma 90.000000
_cell_volume 3442.400084
_symmetry_space_group_name_H-M "P M M N"
_symmetry_group_IT_number 59
_space_group.IT_coordinate_system_code '2'
_symmetry_cell_setting 'orthorhombic'
loop_
_space_group_symop_operation_xyz
x,y,z
1/2-x,1/2-y,z
1/2+x,-y,-z
-x,1/2+y,-z
-x,-y,-z
1/2+x,1/2+y,-z
1/2-x,y,z
x,1/2-y,z
loop_
_atom_site_type_symbol
_atom_site_label
_atom_site_fract_x
_atom_site_fract_y
_atom_site_fract_z
Si Si1 0.200076 0.070236 0.261346
Si Si2 0.870327 0.430179 0.602830
Si Si3 0.895667 0.066126 0.363965
Si Si4 0.452862 0.566513 0.012797
Si Si5 0.940556 0.931640 0.757403
Si Si6 0.987302 0.931904 0.384206
Si Si7 0.701699 0.565012 0.985159
Si Si8 0.626820 0.434087 0.127570
O O1 0.250000 0.059164 0.277448
O O2 0.188179 0.250000 0.271293
O O3 0.191435 0.020912 0.138303
O O4 0.174040 0.972202 0.345226
O O5 0.879561 0.250000 0.614470
O O6 0.872793 0.467671 0.476508
O O7 0.904952 0.521237 0.671883
O O8 0.904544 0.250000 0.361893
O O9 0.871810 0.027861 0.253937
O O10 0.939190 0.975081 0.364940
O O11 0.456179 0.750000 0.009047
O O12 0.435075 0.513031 0.128107
O O13 0.500000 0.500000 0.000000
O O14 0.418303 0.517290 0.923611
O O15 0.940929 0.750000 0.772695
O O16 0.984137 0.988950 0.705941
O O17 0.994268 0.750000 0.383771
O O18 0.000000 0.000000 0.500000
O O19 0.750000 0.515279 0.009160
O O20 0.701650 0.750000 0.987803
O O21 0.665999 0.503149 0.063431
O O22 0.628628 0.250000 0.116790
#
# Coordination Sequence:
#
# PCOD9452765 Si02
#       8
#     8   8   8   8   8   8   8   8
#     4   9  19  37  60  85 115 148 183 230 290 353
#     4  11  22  36  57  84 114 147 188 236 286 343
#     4  10  22  40  58  80 116 156 195 240 288 343
#     4  11  23  39  59  86 119 154 198 246 298 358
#     4  12  24  38  58  83 115 152 193 240 290 342
#     4  12  23  37  58  84 113 150 196 242 290 343
#     4   9  19  37  61  88 115 146 187 237 294 355
#     4  10  22  39  59  84 115 154 196 242 296 351
#
# _framework density 18.591678999999999
#
# number of rings (size 3 to 8) (size 9 to 14) (size 15 to 20)
#    0.000    1.500    1.250    5.250    0.000    6.000 
#    0.000    1.875    0.000    3.750    0.000    0.000 
#    0.000    0.000    0.000    0.000    0.000    0.000 
#
# Total GULP energy -357640.592562 kJ/mol
# GULP energy per Si atom -5588.134259 kJ/mol
# Density = 1.854936 g / cm^3
# Si number density = 18.591679 Si / 1000 Ang^3
#
#
#
# Elastic Constant Matrix: (Units=GPa)
#
#
# Indices 1 2 3 4 5 6 
#
# 1 79.2842 26.2074 58.1906 0.0000 0.0000 0.0000
# 2 26.2074 43.2453 31.6958 0.0000 0.0000 0.0000
# 3 58.1906 31.6958 125.1711 0.0000 0.0000 0.0000
# 4 0.0000 0.0000 0.0000 24.7322 0.0000 0.0000
# 5 0.0000 0.0000 0.0000 0.0000 33.8691 0.0000
# 6 0.0000 0.0000 0.0000 0.0000 0.0000 34.0673
#
#
#
# Elastic Compliance Matrix: (Units=1/GPa)
#
#
# Indices 1 2 3 4 5 6 
#
# 1 0.020621 -0.006717 -0.007885 0.000000 0.000000 0.000000
# 2 -0.006717 0.030582 -0.004621 0.000000 0.000000 0.000000
# 3 -0.007885 -0.004621 0.012825 0.000000 0.000000 0.000000
# 4 0.000000 0.000000 0.000000 0.040433 0.000000 0.000000
# 5 0.000000 0.000000 0.000000 0.000000 0.029525 0.000000
# 6 0.000000 0.000000 0.000000 0.000000 0.000000 0.029354
#
#
# Mechanical properties :
#
#
# Convention : Reuss Voigt Hill
#
# Bulk Modulus (GPa) = 39.09297 53.32091 46.20694
# Shear Modulus (GPa) = 23.77405 27.30753 25.54079
#
# Velocity S-wave (km/s) = 3.57984 3.83666 3.71047
# Velocity P-wave (km/s) = 6.17736 6.95477 6.57756
#
# Compressibility (1/GPa) = 0.02558004
#
# Stress axis : x y z
#
# Youngs Moduli (GPa) = 48.49510 32.69945 77.97219
#
# Poissons Ratio (x) = 0.21964 0.61484
# Poissons Ratio (y) = 0.32574 0.36033
# Poissons Ratio (z) = 0.38240 0.15111
#
# Static dielectric constant tensor:
#      x y z
#    x 1.638670 0.000000 0.000000 
#    y 0.000000 1.635400 0.000000 
#    z 0.000000 0.000000 1.649580 
# 
# From -- ./inp_files/19212.got.cif
#   From: 2010.05.17/outbox.cif.g08.bks.cpg/sg59_10_cif.got.tgz:19212.got - 2010.06.03 14:40:33.
