data_PCOD9452628
_publ_section_title
;
Structure prediction by ZEFSAII (Michael W. Deem and Ramdas Pophale) SiO2 
 PCOD9452628
Probable space group: P M M N
;
_chemical_formula_sum "Si O2"
_cell_formula_units_Z 32
_cell_length_a 8.839606
_cell_length_b 14.776123
_cell_length_c 12.624805
_cell_angle_alpha 90.000000
_cell_angle_beta 90.000000
_cell_angle_gamma 90.000000
_cell_volume 1648.990237
_symmetry_space_group_name_H-M "P M M N"
_symmetry_group_IT_number 59
_space_group.IT_coordinate_system_code '2'
_symmetry_cell_setting 'orthorhombic'
loop_
_space_group_symop_operation_xyz
x,y,z
1/2-x,1/2-y,z
1/2+x,-y,-z
-x,1/2+y,-z
-x,-y,-z
1/2+x,1/2+y,-z
1/2-x,y,z
x,1/2-y,z
loop_
_atom_site_type_symbol
_atom_site_label
_atom_site_fract_x
_atom_site_fract_y
_atom_site_fract_z
Si Si1 0.431602 0.899208 0.994281
Si Si2 0.928587 0.750000 0.385762
Si Si3 0.430196 0.107970 0.224896
Si Si4 0.430077 0.892208 0.230415
Si Si5 0.069738 0.750000 0.617837
O O1 0.250000 0.902399 0.984339
O O2 0.502461 0.859591 0.887798
O O3 0.466157 0.859899 0.110400
O O4 0.500000 0.000000 0.000000
O O5 0.750000 0.750000 0.402688
O O6 0.979208 0.663590 0.316657
O O7 0.011912 0.750000 0.498024
O O8 0.250000 0.121190 0.224748
O O9 0.505333 0.163560 0.319040
O O10 0.459166 0.000111 0.235728
O O11 0.250000 0.878563 0.246436
O O12 0.250000 0.750000 0.621199
#
# Coordination Sequence:
#
# PCOD9452628 Si02
#       5
#     8   4   8   8   4
#     4   9  17  32  57  89 122 155 192 235 288 348
#     4  12  26  41  60  85 114 151 199 249 289 340
#     4  10  21  39  63  90 120 153 193 242 292 346
#     4   9  20  39  62  87 119 156 191 235 289 344
#     4  12  26  43  62  83 114 155 197 243 293 350
#
# _framework density 19.405815
#
# number of rings (size 3 to 8) (size 9 to 14) (size 15 to 20)
#    0.000    2.000    0.000    5.250    0.000    8.000 
#    0.000    1.250    0.000    0.000    0.000    0.000 
#    0.000    0.000    0.000    0.000    0.000    0.000 
#
# Total GULP energy -178740.207884 kJ/mol
# GULP energy per Si atom -5585.631496 kJ/mol
# Density = 1.936165 g / cm^3
# Si number density = 19.405815 Si / 1000 Ang^3
#
#
#
# Elastic Constant Matrix: (Units=GPa)
#
#
# Indices 1 2 3 4 5 6 
#
# 1 121.5858 57.7469 94.1028 0.0000 0.0000 0.0000
# 2 57.7469 90.3681 62.5247 0.0000 0.0000 0.0000
# 3 94.1028 62.5247 185.3795 0.0000 0.0000 0.0000
# 4 0.0000 0.0000 0.0000 31.2755 0.0000 0.0000
# 5 0.0000 0.0000 0.0000 0.0000 41.1130 0.0000
# 6 0.0000 0.0000 0.0000 0.0000 0.0000 30.8219
#
#
#
# Elastic Compliance Matrix: (Units=1/GPa)
#
#
# Indices 1 2 3 4 5 6 
#
# 1 0.015612 -0.005861 -0.005948 0.000000 0.000000 0.000000
# 2 -0.005861 0.016634 -0.002635 0.000000 0.000000 0.000000
# 3 -0.005948 -0.002635 0.009303 0.000000 0.000000 0.000000
# 4 0.000000 0.000000 0.000000 0.031974 0.000000 0.000000
# 5 0.000000 0.000000 0.000000 0.000000 0.024323 0.000000
# 6 0.000000 0.000000 0.000000 0.000000 0.000000 0.032444
#
#
# Mechanical properties :
#
#
# Convention : Reuss Voigt Hill
#
# Bulk Modulus (GPa) = 78.98785 91.78691 85.38738
# Shear Modulus (GPa) = 30.59986 32.83934 31.71960
#
# Velocity S-wave (km/s) = 3.97525 4.11815 4.04733
# Velocity P-wave (km/s) = 7.86522 8.36741 8.12020
#
# Compressibility (1/GPa) = 0.01266017
#
# Stress axis : x y z
#
# Youngs Moduli (GPa) = 64.05357 60.11643 107.49612
#
# Poissons Ratio (x) = 0.35233 0.63941
# Poissons Ratio (y) = 0.37540 0.28329
# Poissons Ratio (z) = 0.38101 0.15843
#
# Static dielectric constant tensor:
#      x y z
#    x 1.638200 0.000000 0.000000 
#    y 0.000000 1.691130 0.000000 
#    z 0.000000 0.000000 1.664290 
# 
# From -- ./inp_files/13641.got.cif
#   From: 2010.05.17/outbox.cif.g08.bks.cpg/sg59_7_cif.got.tgz:13641.got - 2010.06.03 14:40:33.
