data_PCOD9452283
_publ_section_title
;
Structure prediction by ZEFSAII (Michael W. Deem and Ramdas Pophale) SiO2 
 PCOD9452283
Probable space group: P M M N
;
_chemical_formula_sum "Si O2"
_cell_formula_units_Z 58
_cell_length_a 29.855117
_cell_length_b 7.945462
_cell_length_c 12.259956
_cell_angle_alpha 90.000000
_cell_angle_beta 90.000000
_cell_angle_gamma 90.000000
_cell_volume 2908.217236
_symmetry_space_group_name_H-M "P M M N"
_symmetry_group_IT_number 59
_space_group.IT_coordinate_system_code '2'
_symmetry_cell_setting 'orthorhombic'
loop_
_space_group_symop_operation_xyz
x,y,z
1/2-x,1/2-y,z
1/2+x,-y,-z
-x,1/2+y,-z
-x,-y,-z
1/2+x,1/2+y,-z
1/2-x,y,z
x,1/2-y,z
loop_
_atom_site_type_symbol
_atom_site_label
_atom_site_fract_x
_atom_site_fract_y
_atom_site_fract_z
Si Si1 0.094675 0.055583 0.665544
Si Si2 0.031263 0.945322 0.843563
Si Si3 0.935466 0.550709 0.934649
Si Si4 0.300926 0.546576 0.415292
Si Si5 0.885513 0.448749 0.728863
Si Si6 0.250000 0.250000 0.740169
Si Si7 0.687374 0.055782 0.325621
Si Si8 0.951651 0.548710 0.546881
O O1 0.107726 0.250000 0.655435
O O2 0.082311 0.989059 0.546696
O O3 0.051808 0.041526 0.742192
O O4 0.135939 0.952088 0.709810
O O5 0.026906 0.750000 0.813100
O O6 0.982435 0.007760 0.880219
O O7 0.064164 0.965150 0.947293
O O8 0.939346 0.750000 0.953721
O O9 0.895777 0.519034 0.849236
O O10 0.250000 0.487183 0.388556
O O11 0.300664 0.750000 0.405685
O O12 0.341823 0.484576 0.338138
O O13 0.309027 0.513051 0.544083
O O14 0.879678 0.250000 0.739431
O O15 0.930481 0.482277 0.658139
O O16 0.287801 0.402714 0.733113
O O17 0.702605 0.250000 0.312235
O O18 0.950966 0.750000 0.553955
O O19 0.000000 0.500000 0.500000
#
# Coordination Sequence:
#
# PCOD9452283 Si02
#       8
#     8   8   8   8   8   2   8   8
#     4  11  22  36  54  83 116 151 193 240 290 347
#     4  10  21  37  59  81 109 147 193 240 289 350
#     4  10  21  38  57  82 111 146 190 240 293 344
#     4   9  18  34  55  80 109 149 191 232 283 339
#     4  11  21  34  55  81 114 148 188 235 284 344
#     4  12  22  36  56  86 116 150 202 244 292 350
#     4  11  21  36  57  82 117 155 193 240 294 349
#     4  11  23  35  51  76 115 157 193 229 280 346
#
# _framework density 19.943490000000001
#
# number of rings (size 3 to 8) (size 9 to 14) (size 15 to 20)
#    0.000    1.517    2.759    3.103    0.000    5.517 
#    1.241    0.000    0.000    0.000    1.793    0.000 
#    0.000    0.000    0.000    0.000    0.000    0.000 
#
# Total GULP energy -323074.847791 kJ/mol
# GULP energy per Si atom -5570.255996 kJ/mol
# Density = 1.989810 g / cm^3
# Si number density = 19.943490 Si / 1000 Ang^3
#
#
#
# Elastic Constant Matrix: (Units=GPa)
#
#
# Indices 1 2 3 4 5 6 
#
# 1 58.7729 2.1707 -8.5139 0.0000 0.0000 0.0000
# 2 2.1707 61.3763 -8.6647 0.0000 0.0000 0.0000
# 3 -8.5139 -8.6647 46.1507 0.0000 0.0000 0.0000
# 4 0.0000 0.0000 0.0000 21.9516 0.0000 0.0000
# 5 0.0000 0.0000 0.0000 0.0000 -2.1316 0.0000
# 6 0.0000 0.0000 0.0000 0.0000 0.0000 15.1919
#
#
#
# Elastic Compliance Matrix: (Units=1/GPa)
#
#
# Indices 1 2 3 4 5 6 
#
# 1 0.017484 -0.000167 0.003194 0.000000 0.000000 0.000000
# 2 -0.000167 0.016738 0.003112 0.000000 0.000000 0.000000
# 3 0.003194 0.003112 0.022842 0.000000 0.000000 0.000000
# 4 0.000000 0.000000 0.000000 0.045555 0.000000 0.000000
# 5 0.000000 0.000000 0.000000 0.000000 -0.469129 0.000000
# 6 0.000000 0.000000 0.000000 0.000000 0.000000 0.065825
#
#
# Mechanical properties :
#
#
# Convention : Reuss Voigt Hill
#
# Bulk Modulus (GPa) = 14.42180 15.14268 14.78224
# Shear Modulus (GPa) = -17.25031 19.08957 0.91963
#
# Velocity S-wave (km/s) = -2.94421 3.09719 0.67979
# Velocity P-wave (km/s) = 2.07625 4.51657 2.83625
#
# Compressibility (1/GPa) = 0.06933949
#
# Stress axis : x y z
#
# Youngs Moduli (GPa) = 57.19673 59.74381 43.77987
#
# Poissons Ratio (x) = 0.01000 -0.13983
# Poissons Ratio (y) = 0.00958 -0.13623
# Poissons Ratio (z) = -0.18268 -0.18590
#
# Static dielectric constant tensor:
#      x y z
#    x 1.761240 0.000000 0.000000 
#    y 0.000000 1.699440 0.000000 
#    z 0.000000 0.000000 1.712070 
# 
# From -- ./inp_files/19189.got.cif
#   From: 2010.05.17/outbox.cif.g08.bks.cpg/sg59_10_cif.got.tgz:19189.got - 2010.06.03 14:40:33.
