data_PCOD9452019
_publ_section_title
;
Structure prediction by ZEFSAII (Michael W. Deem and Ramdas Pophale) SiO2 
 PCOD9452019
Probable space group: P M M N
;
_chemical_formula_sum "Si O2"
_cell_formula_units_Z 48
_cell_length_a 13.940367
_cell_length_b 18.480855
_cell_length_c 9.897084
_cell_angle_alpha 90.000000
_cell_angle_beta 90.000000
_cell_angle_gamma 90.000000
_cell_volume 2549.784773
_symmetry_space_group_name_H-M "P M M N"
_symmetry_group_IT_number 59
_space_group.IT_coordinate_system_code '2'
_symmetry_cell_setting 'orthorhombic'
loop_
_space_group_symop_operation_xyz
x,y,z
1/2-x,1/2-y,z
1/2+x,-y,-z
-x,1/2+y,-z
-x,-y,-z
1/2+x,1/2+y,-z
1/2-x,y,z
x,1/2-y,z
loop_
_atom_site_type_symbol
_atom_site_label
_atom_site_fract_x
_atom_site_fract_y
_atom_site_fract_z
Si Si1 0.506611 0.447175 0.125294
Si Si2 0.635910 0.833706 0.748945
Si Si3 0.142404 0.614404 0.499688
Si Si4 0.860031 0.978084 0.343574
Si Si5 0.640045 0.170235 0.189431
Si Si6 0.438817 0.168130 0.558920
O O1 0.414511 0.399430 0.169744
O O2 0.556674 0.492654 0.245877
O O3 0.583662 0.384578 0.097581
O O4 0.500000 0.500000 0.000000
O O5 0.750000 0.845535 0.738184
O O6 0.623290 0.750000 0.799926
O O7 0.588297 0.835203 0.600031
O O8 0.250000 0.630411 0.448257
O O9 0.132003 0.527942 0.521770
O O10 0.137462 0.645252 0.653705
O O11 0.051216 0.647704 0.425869
O O12 0.750000 0.990767 0.293448
O O13 0.877261 0.894300 0.371361
O O14 0.750000 0.171833 0.150144
O O15 0.598410 0.250000 0.183687
O O16 0.420699 0.250000 0.605180
#
# Coordination Sequence:
#
# PCOD9452019 Si02
#       6
#     8   8   8   8   8   8
#     4  11  22  36  56  79 108 146 189 234 277 327
#     4  10  21  36  56  83 113 145 185 236 288 339
#     4   9  17  29  53  84 110 137 173 222 278 333
#     4  10  21  37  56  81 112 143 183 229 281 339
#     4   9  16  30  54  80 103 130 172 226 276 322
#     4  11  20  34  56  82 117 153 187 227 281 345
#
# _framework density 18.825118
#
# number of rings (size 3 to 8) (size 9 to 14) (size 15 to 20)
#    0.000    2.000    3.333    3.500    0.000    3.333 
#    0.000    1.667    0.000    0.000    0.000    0.000 
#    0.000    0.000    0.000    0.000    0.000    0.000 
#
# Total GULP energy -267440.636569 kJ/mol
# GULP energy per Si atom -5571.679929 kJ/mol
# Density = 1.878227 g / cm^3
# Si number density = 18.825118 Si / 1000 Ang^3
#
#
#
# Elastic Constant Matrix: (Units=GPa)
#
#
# Indices 1 2 3 4 5 6 
#
# 1 122.3398 35.8268 8.7938 0.0000 0.0000 0.0000
# 2 35.8268 145.0007 13.7621 0.0000 0.0000 0.0000
# 3 8.7938 13.7621 8.0009 0.0000 0.0000 0.0000
# 4 0.0000 0.0000 0.0000 26.2852 0.0000 0.0000
# 5 0.0000 0.0000 0.0000 0.0000 7.2926 0.0000
# 6 0.0000 0.0000 0.0000 0.0000 0.0000 101.2419
#
#
#
# Elastic Compliance Matrix: (Units=1/GPa)
#
#
# Indices 1 2 3 4 5 6 
#
# 1 0.009162 -0.001563 -0.007382 0.000000 0.000000 0.000000
# 2 -0.001563 0.008509 -0.012917 0.000000 0.000000 0.000000
# 3 -0.007382 -0.012917 0.155318 0.000000 0.000000 0.000000
# 4 0.000000 0.000000 0.000000 0.038044 0.000000 0.000000
# 5 0.000000 0.000000 0.000000 0.000000 0.137126 0.000000
# 6 0.000000 0.000000 0.000000 0.000000 0.000000 0.009877
#
#
# Mechanical properties :
#
#
# Convention : Reuss Voigt Hill
#
# Bulk Modulus (GPa) = 7.73605 43.56741 25.65173
# Shear Modulus (GPa) = 11.23976 41.42785 26.33381
#
# Velocity S-wave (km/s) = 2.44614 4.69622 3.74420
# Velocity P-wave (km/s) = 3.47800 7.25255 5.68753
#
# Compressibility (1/GPa) = 0.12926490
#
# Stress axis : x y z
#
# Youngs Moduli (GPa) = 109.14248 117.52584 6.43839
#
# Poissons Ratio (x) = 0.18372 0.04753
# Poissons Ratio (y) = 0.17062 0.08317
# Poissons Ratio (z) = 0.80564 1.51814
#
# Static dielectric constant tensor:
#      x y z
#    x 1.687770 0.000000 0.000000 
#    y 0.000000 1.704240 0.000000 
#    z 0.000000 0.000000 1.628960 
# 
# From -- ./inp_files/9035.got.cif
#   From: 2010.05.17/outbox.cif.g08.bks.cpg/sg59_5_cif.got.tgz:9035.got - 2010.06.03 14:40:33.
