data_PCOD9452668
_publ_section_title
;
Structure prediction by ZEFSAII (Michael W. Deem and Ramdas Pophale) SiO2 
 PCOD9452668
Probable space group: P M M N
;
_chemical_formula_sum "Si O2"
_cell_formula_units_Z 34
_cell_length_a 9.939638
_cell_length_b 7.686510
_cell_length_c 20.537039
_cell_angle_alpha 90.000000
_cell_angle_beta 90.000000
_cell_angle_gamma 90.000000
_cell_volume 1569.052922
_symmetry_space_group_name_H-M "P M M N"
_symmetry_group_IT_number 59
_space_group.IT_coordinate_system_code '2'
_symmetry_cell_setting 'orthorhombic'
loop_
_space_group_symop_operation_xyz
x,y,z
1/2-x,1/2-y,z
1/2+x,-y,-z
-x,1/2+y,-z
-x,-y,-z
1/2+x,1/2+y,-z
1/2-x,y,z
x,1/2-y,z
loop_
_atom_site_type_symbol
_atom_site_label
_atom_site_fract_x
_atom_site_fract_y
_atom_site_fract_z
Si Si1 0.403468 0.540804 0.560532
Si Si2 0.597855 0.542253 0.940493
Si Si3 0.398804 0.039029 0.327234
Si Si4 0.973413 0.943383 0.195666
Si Si5 0.750000 0.250000 0.201792
O O1 0.500000 0.500000 0.500000
O O2 0.250000 0.474689 0.554341
O O3 0.394922 0.750000 0.565197
O O4 0.482142 0.479103 0.624961
O O5 0.750000 0.485762 0.955563
O O6 0.597689 0.750000 0.931336
O O7 0.546002 0.460440 0.873780
O O8 0.500000 0.500000 0.000000
O O9 0.250000 0.988989 0.351612
O O10 0.403172 0.250000 0.325213
O O11 0.423848 0.969563 0.255234
O O12 0.914551 0.750000 0.200577
O O13 0.866209 0.097130 0.201374
#
# Coordination Sequence:
#
# PCOD9452668 Si02
#       5
#     8   8   8   8   2
#     4  10  22  39  63  93 131 176 225 278 339 402
#     4  11  25  45  69 100 141 186 231 285 346 408
#     4  10  21  40  67  96 133 179 225 284 350 407
#     4  12  26  44  72 103 135 185 231 280 347 413
#     4  12  26  48  70  98 152 172 228 290 344 406
#
# _framework density 21.669121000000001
#
# number of rings (size 3 to 8) (size 9 to 14) (size 15 to 20)
#    0.000    1.176    2.353    2.471    3.294    7.529 
#    0.000    0.000    0.000    0.000    0.000    0.000 
#    0.000    0.000    0.000    0.000    0.000    0.000 
#
# Total GULP energy -189627.353434 kJ/mol
# GULP energy per Si atom -5577.275101 kJ/mol
# Density = 2.161980 g / cm^3
# Si number density = 21.669121 Si / 1000 Ang^3
#
#
#
# Elastic Constant Matrix: (Units=GPa)
#
#
# Indices 1 2 3 4 5 6 
#
# 1 188.4650 40.3611 61.6247 0.0000 0.0000 0.0000
# 2 40.3611 123.5869 0.3553 0.0000 0.0000 0.0000
# 3 61.6247 0.3553 130.9094 0.0000 0.0000 0.0000
# 4 0.0000 0.0000 0.0000 24.8464 0.0000 0.0000
# 5 0.0000 0.0000 0.0000 0.0000 -46.5968 0.0000
# 6 0.0000 0.0000 0.0000 0.0000 0.0000 13.2641
#
#
#
# Elastic Compliance Matrix: (Units=1/GPa)
#
#
# Indices 1 2 3 4 5 6 
#
# 1 0.006831 -0.002222 -0.003210 0.000000 0.000000 0.000000
# 2 -0.002222 0.008814 0.001022 0.000000 0.000000 0.000000
# 3 -0.003210 0.001022 0.009147 0.000000 0.000000 0.000000
# 4 0.000000 0.000000 0.000000 0.040247 0.000000 0.000000
# 5 0.000000 0.000000 0.000000 0.000000 -0.021461 0.000000
# 6 0.000000 0.000000 0.000000 0.000000 0.000000 0.075391
#
#
# Mechanical properties :
#
#
# Convention : Reuss Voigt Hill
#
# Bulk Modulus (GPa) = 62.60414 71.96039 67.28226
# Shear Modulus (GPa) = 37.56169 21.01074 29.28622
#
# Velocity S-wave (km/s) = 4.16795 3.11724 3.68029
# Velocity P-wave (km/s) = 7.21915 6.79979 7.01260
#
# Compressibility (1/GPa) = 0.01597338
#
# Stress axis : x y z
#
# Youngs Moduli (GPa) = 146.38335 113.45429 109.32441
#
# Poissons Ratio (x) = 0.25207 0.35091
# Poissons Ratio (y) = 0.32523 -0.11173
# Poissons Ratio (z) = 0.46986 -0.11595
#
# Static dielectric constant tensor:
#      x y z
#    x 1.771020 0.000000 0.000000 
#    y 0.000000 1.794590 0.000000 
#    z 0.000000 0.000000 1.756350 
# 
# From -- ./inp_files/28600.got.cif
#   From: 2010.05.17/outbox.cif.g08.bks.cpg/sg59_15_cif.got.tgz:28600.got - 2010.06.03 14:40:33.
