data_PCOD9452683
_publ_section_title
;
Structure prediction by ZEFSAII (Michael W. Deem and Ramdas Pophale) SiO2 
 PCOD9452683
Probable space group: P M M N
;
_chemical_formula_sum "Si O2"
_cell_formula_units_Z 34
_cell_length_a 23.557095
_cell_length_b 7.705875
_cell_length_c 7.284847
_cell_angle_alpha 90.000000
_cell_angle_beta 90.000000
_cell_angle_gamma 90.000000
_cell_volume 1322.403921
_symmetry_space_group_name_H-M "P M M N"
_symmetry_group_IT_number 59
_space_group.IT_coordinate_system_code '2'
_symmetry_cell_setting 'orthorhombic'
loop_
_space_group_symop_operation_xyz
x,y,z
1/2-x,1/2-y,z
1/2+x,-y,-z
-x,1/2+y,-z
-x,-y,-z
1/2+x,1/2+y,-z
1/2-x,y,z
x,1/2-y,z
loop_
_atom_site_type_symbol
_atom_site_label
_atom_site_fract_x
_atom_site_fract_y
_atom_site_fract_z
Si Si1 0.689275 0.459219 0.232946
Si Si2 0.434118 0.455575 0.632038
Si Si3 0.330454 0.058059 0.180139
Si Si4 0.545186 0.054914 0.777668
Si Si5 0.250000 0.750000 0.306306
O O1 0.750000 0.503896 0.322251
O O2 0.687550 0.250000 0.221908
O O3 0.631263 0.519086 0.321524
O O4 0.690112 0.532944 0.027958
O O5 0.443251 0.250000 0.605070
O O6 0.446224 0.553860 0.443830
O O7 0.480035 0.511058 0.787851
O O8 0.317171 0.250000 0.251242
O O9 0.398794 0.044115 0.161912
O O10 0.300176 0.902886 0.289897
O O11 0.548509 0.250000 0.849509
#
# Coordination Sequence:
#
# PCOD9452683 Si02
#       5
#     8   8   8   8   2
#     4  11  22  41  61  89 126 166 206 257 313 372
#     4  10  22  39  64  91 123 163 212 261 315 375
#     4  12  23  40  68  92 126 169 209 253 312 371
#     4  10  21  42  63  90 125 164 209 264 314 367
#     4  12  22  44  60  96 132 164 200 266 300 378
#
# _framework density 25.710753
#
# number of rings (size 3 to 8) (size 9 to 14) (size 15 to 20)
#    0.000    1.176    3.529    2.471    0.000    5.176 
#    2.118    0.000    0.000    0.000    0.000    0.000 
#    0.000    0.000    0.000    0.000    0.000    0.000 
#
# Total GULP energy -189748.463079 kJ/mol
# GULP energy per Si atom -5580.837149 kJ/mol
# Density = 2.565223 g / cm^3
# Si number density = 25.710753 Si / 1000 Ang^3
#
#
#
# Elastic Constant Matrix: (Units=GPa)
#
#
# Indices 1 2 3 4 5 6 
#
# 1 257.4615 67.8042 28.6976 0.0000 0.0000 0.0000
# 2 67.8042 178.3122 10.9893 0.0000 0.0000 0.0000
# 3 28.6976 10.9893 33.7406 0.0000 0.0000 0.0000
# 4 0.0000 0.0000 0.0000 16.1368 0.0000 0.0000
# 5 0.0000 0.0000 0.0000 0.0000 70.7946 0.0000
# 6 0.0000 0.0000 0.0000 0.0000 0.0000 42.2352
#
#
#
# Elastic Compliance Matrix: (Units=1/GPa)
#
#
# Indices 1 2 3 4 5 6 
#
# 1 0.004684 -0.001567 -0.003473 0.000000 0.000000 0.000000
# 2 -0.001567 0.006247 -0.000702 0.000000 0.000000 0.000000
# 3 -0.003473 -0.000702 0.032821 0.000000 0.000000 0.000000
# 4 0.000000 0.000000 0.000000 0.061970 0.000000 0.000000
# 5 0.000000 0.000000 0.000000 0.000000 0.014125 0.000000
# 6 0.000000 0.000000 0.000000 0.000000 0.000000 0.023677
#
#
# Mechanical properties :
#
#
# Convention : Reuss Voigt Hill
#
# Bulk Modulus (GPa) = 30.99123 76.05516 53.52320
# Shear Modulus (GPa) = 30.16315 49.96820 40.06568
#
# Velocity S-wave (km/s) = 3.42888 4.41327 3.95184
# Velocity P-wave (km/s) = 5.26842 7.45752 6.45642
#
# Compressibility (1/GPa) = 0.03226719
#
# Stress axis : x y z
#
# Youngs Moduli (GPa) = 213.49602 160.06994 30.46844
#
# Poissons Ratio (x) = 0.25083 0.10583
# Poissons Ratio (y) = 0.33455 0.02139
# Poissons Ratio (z) = 0.74157 0.11236
#
# Static dielectric constant tensor:
#      x y z
#    x 2.125990 0.000000 0.000000 
#    y 0.000000 1.949960 0.000000 
#    z 0.000000 0.000000 2.074700 
# 
# From -- ./inp_files/10957.got.cif
#   From: 2010.05.17/outbox.cif.g08.bks.cpg/sg59_6_cif.got.tgz:10957.got - 2010.06.03 14:40:33.
