data_PCOD9452258
_publ_section_title
;
Structure prediction by ZEFSAII (Michael W. Deem and Ramdas Pophale) SiO2 
 PCOD9452258
Probable space group: P M M N
;
_chemical_formula_sum "Si O2"
_cell_formula_units_Z 64
_cell_length_a 31.882119
_cell_length_b 8.821863
_cell_length_c 12.398746
_cell_angle_alpha 90.000000
_cell_angle_beta 90.000000
_cell_angle_gamma 90.000000
_cell_volume 3487.267406
_symmetry_space_group_name_H-M "P M M N"
_symmetry_group_IT_number 59
_space_group.IT_coordinate_system_code '2'
_symmetry_cell_setting 'orthorhombic'
loop_
_space_group_symop_operation_xyz
x,y,z
1/2-x,1/2-y,z
1/2+x,-y,-z
-x,1/2+y,-z
-x,-y,-z
1/2+x,1/2+y,-z
1/2-x,y,z
x,1/2-y,z
loop_
_atom_site_type_symbol
_atom_site_label
_atom_site_fract_x
_atom_site_fract_y
_atom_site_fract_z
Si Si1 0.366868 0.070375 0.587887
Si Si2 0.376842 0.567189 0.124766
Si Si3 0.702380 0.065414 0.015978
Si Si4 0.392207 0.569218 0.366739
Si Si5 0.983726 0.930094 0.611918
Si Si6 0.056354 0.068439 0.745163
Si Si7 0.546865 0.568713 0.008039
Si Si8 0.299623 0.927264 0.736115
O O1 0.369898 0.250000 0.571634
O O2 0.405992 0.024264 0.664869
O O3 0.368918 0.989417 0.472874
O O4 0.325756 0.025449 0.653400
O O5 0.379952 0.750000 0.114026
O O6 0.335655 0.514790 0.059541
O O7 0.372098 0.531888 0.251239
O O8 0.419540 0.497961 0.076020
O O9 0.750000 0.015424 0.988026
O O10 0.703191 0.250000 0.013156
O O11 0.693323 0.023482 0.140087
O O12 0.396864 0.750000 0.373581
O O13 0.437685 0.492869 0.367885
O O14 0.983258 0.750000 0.603520
O O15 0.000000 0.000000 0.500000
O O16 0.014904 0.984395 0.705204
O O17 0.050213 0.250000 0.734856
O O18 0.063889 0.035793 0.870836
O O19 0.544074 0.750000 0.994716
O O20 0.500000 0.500000 0.000000
O O21 0.250000 0.936299 0.716698
O O22 0.312072 0.750000 0.726665
#
# Coordination Sequence:
#
# PCOD9452258 Si02
#       8
#     8   8   8   8   8   8   8   8
#     4  11  22  36  56  80 108 144 184 227 277 329
#     4  10  21  37  58  84 115 151 191 238 289 340
#     4   8  15  32  60  90 115 143 183 230 281 338
#     4  11  23  38  55  79 113 151 191 236 281 332
#     4  12  23  36  56  80 107 145 189 234 282 333
#     4  10  22  38  55  79 110 143 183 231 280 329
#     4  11  23  38  56  80 113 150 189 235 284 340
#     4   9  18  34  58  86 114 142 175 222 278 335
#
# _framework density 18.352478999999999
#
# number of rings (size 3 to 8) (size 9 to 14) (size 15 to 20)
#    0.000    1.750    1.250    4.500    0.000    5.750 
#    0.000    0.625    0.000    3.375    0.000    0.000 
#    0.000    0.000    0.000    0.000    0.000    0.000 
#
# Total GULP energy -357479.785022 kJ/mol
# GULP energy per Si atom -5585.621641 kJ/mol
# Density = 1.831071 g / cm^3
# Si number density = 18.352479 Si / 1000 Ang^3
#
#
#
# Elastic Constant Matrix: (Units=GPa)
#
#
# Indices 1 2 3 4 5 6 
#
# 1 75.4101 21.9308 59.6908 0.0000 0.0000 0.0000
# 2 21.9308 35.2293 45.0296 0.0000 0.0000 0.0000
# 3 59.6908 45.0296 125.6137 0.0000 0.0000 0.0000
# 4 0.0000 0.0000 0.0000 20.5448 0.0000 0.0000
# 5 0.0000 0.0000 0.0000 0.0000 32.2163 0.0000
# 6 0.0000 0.0000 0.0000 0.0000 0.0000 25.3744
#
#
#
# Elastic Compliance Matrix: (Units=1/GPa)
#
#
# Indices 1 2 3 4 5 6 
#
# 1 0.021263 -0.000594 -0.009891 0.000000 0.000000 0.000000
# 2 -0.000594 0.052408 -0.018505 0.000000 0.000000 0.000000
# 3 -0.009891 -0.018505 0.019295 0.000000 0.000000 0.000000
# 4 0.000000 0.000000 0.000000 0.048674 0.000000 0.000000
# 5 0.000000 0.000000 0.000000 0.000000 0.031040 0.000000
# 6 0.000000 0.000000 0.000000 0.000000 0.000000 0.039410
#
#
# Mechanical properties :
#
#
# Convention : Reuss Voigt Hill
#
# Bulk Modulus (GPa) = 28.58302 54.39505 41.48903
# Shear Modulus (GPa) = 17.74747 22.93389 20.34068
#
# Velocity S-wave (km/s) = 3.11309 3.53885 3.33278
# Velocity P-wave (km/s) = 5.34135 6.81186 6.12093
#
# Compressibility (1/GPa) = 0.03498580
#
# Stress axis : x y z
#
# Youngs Moduli (GPa) = 47.03059 19.08118 51.82797
#
# Poissons Ratio (x) = 0.01133 0.51263
# Poissons Ratio (y) = 0.02793 0.95906
# Poissons Ratio (z) = 0.46518 0.35309
#
# Static dielectric constant tensor:
#      x y z
#    x 1.736220 0.000000 0.000000 
#    y 0.000000 1.626910 0.000000 
#    z 0.000000 0.000000 1.636820 
# 
# From -- ./inp_files/19307.got.cif
#   From: 2010.05.17/outbox.cif.g08.bks.cpg/sg59_10_cif.got.tgz:19307.got - 2010.06.03 14:40:33.
