data_PCOD9452394
_publ_section_title
;
Structure prediction by ZEFSAII (Michael W. Deem and Ramdas Pophale) SiO2 
 PCOD9452394
Probable space group: P M M N
;
_chemical_formula_sum "Si O2"
_cell_formula_units_Z 48
_cell_length_a 16.091460
_cell_length_b 7.808919
_cell_length_c 18.130371
_cell_angle_alpha 90.000000
_cell_angle_beta 90.000000
_cell_angle_gamma 90.000000
_cell_volume 2278.206356
_symmetry_space_group_name_H-M "P M M N"
_symmetry_group_IT_number 59
_space_group.IT_coordinate_system_code '2'
_symmetry_cell_setting 'orthorhombic'
loop_
_space_group_symop_operation_xyz
x,y,z
1/2-x,1/2-y,z
1/2+x,-y,-z
-x,1/2+y,-z
-x,-y,-z
1/2+x,1/2+y,-z
1/2-x,y,z
x,1/2-y,z
loop_
_atom_site_type_symbol
_atom_site_label
_atom_site_fract_x
_atom_site_fract_y
_atom_site_fract_z
Si Si1 0.750000 0.043004 0.267451
Si Si2 0.409980 0.047355 0.470626
Si Si3 0.585156 0.455876 0.836053
Si Si4 0.901970 0.043972 0.995378
Si Si5 0.250000 0.456141 0.560161
Si Si6 0.390821 0.542763 0.844131
Si Si7 0.657476 0.455730 0.683140
O O1 0.750000 0.250000 0.265403
O O2 0.669578 0.982905 0.220888
O O3 0.750000 0.993275 0.352800
O O4 0.403010 0.250000 0.474400
O O5 0.332887 0.976189 0.519052
O O6 0.500000 0.000000 0.500000
O O7 0.400124 0.996067 0.385711
O O8 0.595143 0.250000 0.836853
O O9 0.622477 0.520478 0.914057
O O10 0.486641 0.492114 0.833244
O O11 0.626634 0.523295 0.761760
O O12 0.892357 0.250000 0.994680
O O13 0.864744 0.983007 0.073229
O O14 0.000000 0.000000 0.000000
O O15 0.250000 0.250000 0.553077
O O16 0.387575 0.750000 0.844787
O O17 0.750000 0.520323 0.666261
O O18 0.660892 0.250000 0.689010
#
# Coordination Sequence:
#
# PCOD9452394 Si02
#       7
#     4   8   8   8   4   8   8
#     4  10  22  36  52  79 112 144 182 225 272 322
#     4  11  24  43  65  89 114 147 188 231 285 345
#     4   9  18  32  53  80 107 142 185 226 269 324
#     4   8  14  28  49  72 102 139 179 223 269 315
#     4  10  24  44  62  83 114 146 184 231 278 338
#     4   9  18  33  51  76 108 144 184 227 271 320
#     4  10  21  38  58  84 117 147 182 229 279 332
#
# _framework density 21.069206000000001
#
# number of rings (size 3 to 8) (size 9 to 14) (size 15 to 20)
#    0.000    2.500    0.833    0.500    2.333    2.667 
#    1.500    0.000    0.000    0.000    0.000    0.000 
#    0.000    0.000    0.000    0.000    0.000    0.000 
#
# Total GULP energy -267742.828971 kJ/mol
# GULP energy per Si atom -5577.975604 kJ/mol
# Density = 2.102125 g / cm^3
# Si number density = 21.069206 Si / 1000 Ang^3
#
#
#
# Elastic Constant Matrix: (Units=GPa)
#
#
# Indices 1 2 3 4 5 6 
#
# 1 66.0685 3.7903 49.9043 0.0000 0.0000 0.0000
# 2 3.7903 30.1878 9.0308 0.0000 0.0000 0.0000
# 3 49.9043 9.0308 181.5365 0.0000 0.0000 0.0000
# 4 0.0000 0.0000 0.0000 16.4306 0.0000 0.0000
# 5 0.0000 0.0000 0.0000 0.0000 29.4316 0.0000
# 6 0.0000 0.0000 0.0000 0.0000 0.0000 14.4858
#
#
#
# Elastic Compliance Matrix: (Units=1/GPa)
#
#
# Indices 1 2 3 4 5 6 
#
# 1 0.019123 -0.000841 -0.005215 0.000000 0.000000 0.000000
# 2 -0.000841 0.033663 -0.001443 0.000000 0.000000 0.000000
# 3 -0.005215 -0.001443 0.007014 0.000000 0.000000 0.000000
# 4 0.000000 0.000000 0.000000 0.060862 0.000000 0.000000
# 5 0.000000 0.000000 0.000000 0.000000 0.033977 0.000000
# 6 0.000000 0.000000 0.000000 0.000000 0.000000 0.069033
#
#
# Mechanical properties :
#
#
# Convention : Reuss Voigt Hill
#
# Bulk Modulus (GPa) = 22.32066 44.80486 33.56276
# Shear Modulus (GPa) = 19.71560 26.40740 23.06150
#
# Velocity S-wave (km/s) = 3.06233 3.54413 3.31200
# Velocity P-wave (km/s) = 4.80841 6.16924 5.53084
#
# Compressibility (1/GPa) = 0.04480154
#
# Stress axis : x y z
#
# Youngs Moduli (GPa) = 52.29229 29.70584 142.57237
#
# Poissons Ratio (x) = 0.02498 0.74354
# Poissons Ratio (y) = 0.04398 0.20580
# Poissons Ratio (z) = 0.27271 0.04288
#
# Static dielectric constant tensor:
#      x y z
#    x 1.741570 0.000000 0.000000 
#    y 0.000000 1.784430 0.000000 
#    z 0.000000 0.000000 1.773900 
# 
# From -- ./inp_files/25556.got.cif
#   From: 2010.05.17/outbox.cif.g08.bks.cpg/sg59_13_cif.got.tgz:25556.got - 2010.06.03 14:40:33.
