data_PCOD9452359
_publ_section_title
;
Structure prediction by ZEFSAII (Michael W. Deem and Ramdas Pophale) SiO2 
 PCOD9452359
Probable space group: P M M N
;
_chemical_formula_sum "Si O2"
_cell_formula_units_Z 48
_cell_length_a 23.879817
_cell_length_b 9.532038
_cell_length_c 9.936589
_cell_angle_alpha 90.000000
_cell_angle_beta 90.000000
_cell_angle_gamma 90.000000
_cell_volume 2261.799408
_symmetry_space_group_name_H-M "P M M N"
_symmetry_group_IT_number 59
_space_group.IT_coordinate_system_code '2'
_symmetry_cell_setting 'orthorhombic'
loop_
_space_group_symop_operation_xyz
x,y,z
1/2-x,1/2-y,z
1/2+x,-y,-z
-x,1/2+y,-z
-x,-y,-z
1/2+x,1/2+y,-z
1/2-x,y,z
x,1/2-y,z
loop_
_atom_site_type_symbol
_atom_site_label
_atom_site_fract_x
_atom_site_fract_y
_atom_site_fract_z
Si Si1 0.520376 0.091203 0.874374
Si Si2 0.852167 0.080866 0.784107
Si Si3 0.185232 0.087405 0.962505
Si Si4 0.838350 0.907498 0.513662
Si Si5 0.452237 0.025049 0.609219
Si Si6 0.150871 0.906514 0.719808
O O1 0.522936 0.250000 0.924122
O O2 0.582403 0.055110 0.820151
O O3 0.480214 0.084164 0.744076
O O4 0.500000 0.000000 0.000000
O O5 0.843217 0.250000 0.777604
O O6 0.836885 0.001678 0.646652
O O7 0.819183 0.002078 0.901854
O O8 0.250000 0.089460 0.918812
O O9 0.166891 0.250000 0.978552
O O10 0.150529 0.002279 0.851831
O O11 0.815466 0.750000 0.528320
O O12 0.903351 0.891944 0.467833
O O13 0.815761 0.003439 0.391743
O O14 0.500000 0.000000 0.500000
O O15 0.412520 0.899357 0.661860
O O16 0.172121 0.750000 0.744281
#
# Coordination Sequence:
#
# PCOD9452359 Si02
#       6
#     8   8   8   8   8   8
#     4  11  23  38  54  85 126 168 212 254 299 362
#     4  11  23  40  61  90 125 161 205 258 312 370
#     4  11  25  46  70  93 119 157 208 266 327 387
#     4  10  21  37  61  89 124 169 208 249 300 358
#     4  10  21  38  61  90 131 178 214 250 302 367
#     4  10  22  39  62  94 128 164 210 261 311 372
#
# _framework density 21.222041000000001
#
# number of rings (size 3 to 8) (size 9 to 14) (size 15 to 20)
#    1.000    0.500    1.667    3.500    0.000    7.333 
#    0.000    0.833    0.000    5.000    0.000    0.000 
#    0.000    0.000    0.000    0.000    0.000    0.000 
#
# Total GULP energy -267484.871447 kJ/mol
# GULP energy per Si atom -5572.601488 kJ/mol
# Density = 2.117374 g / cm^3
# Si number density = 21.222041 Si / 1000 Ang^3
#
#
#
# Elastic Constant Matrix: (Units=GPa)
#
#
# Indices 1 2 3 4 5 6 
#
# 1 66.2301 15.4133 5.1736 0.0000 0.0000 0.0000
# 2 15.4133 150.9183 45.1008 0.0000 0.0000 0.0000
# 3 5.1736 45.1008 131.2725 0.0000 0.0000 0.0000
# 4 0.0000 0.0000 0.0000 19.3784 0.0000 0.0000
# 5 0.0000 0.0000 0.0000 0.0000 -77.8414 0.0000
# 6 0.0000 0.0000 0.0000 0.0000 0.0000 -1.4416
#
#
#
# Elastic Compliance Matrix: (Units=1/GPa)
#
#
# Indices 1 2 3 4 5 6 
#
# 1 0.015467 -0.001557 -0.000075 0.000000 0.000000 0.000000
# 2 -0.001557 0.007541 -0.002529 0.000000 0.000000 0.000000
# 3 -0.000075 -0.002529 0.008490 0.000000 0.000000 0.000000
# 4 0.000000 0.000000 0.000000 0.051604 0.000000 0.000000
# 5 0.000000 0.000000 0.000000 0.000000 -0.012847 0.000000
# 6 0.000000 0.000000 0.000000 0.000000 0.000000 -0.693655
#
#
# Mechanical properties :
#
#
# Convention : Reuss Voigt Hill
#
# Bulk Modulus (GPa) = 43.14964 53.31070 48.23017
# Shear Modulus (GPa) = -8.23245 6.86795 -0.68225
#
# Velocity S-wave (km/s) = -1.97171 1.80091 -0.56761
# Velocity P-wave (km/s) = 3.89783 5.43133 4.72718
#
# Compressibility (1/GPa) = 0.02317516
#
# Stress axis : x y z
#
# Youngs Moduli (GPa) = 64.65322 132.60706 117.78943
#
# Poissons Ratio (x) = 0.20652 0.00878
# Poissons Ratio (y) = 0.10069 0.29795
# Poissons Ratio (z) = 0.00482 0.33543
#
# Static dielectric constant tensor:
#      x y z
#    x 1.791210 0.000000 0.000000 
#    y 0.000000 1.761870 0.000000 
#    z 0.000000 0.000000 1.764620 
# 
# From -- ./inp_files/12947.got.cif
#   From: 2010.05.17/outbox.cif.g08.bks.cpg/sg59_7_cif.got.tgz:12947.got - 2010.06.03 14:40:33.
