data_PCOD9452955
_publ_section_title
;
Structure prediction by ZEFSAII (Michael W. Deem and Ramdas Pophale) SiO2 
 PCOD9452955
Probable space group: P M M N
;
_chemical_formula_sum "Si O2"
_cell_formula_units_Z 40
_cell_length_a 18.230497
_cell_length_b 17.998949
_cell_length_c 5.499543
_cell_angle_alpha 90.000000
_cell_angle_beta 90.000000
_cell_angle_gamma 90.000000
_cell_volume 1804.563866
_symmetry_space_group_name_H-M "P M M N"
_symmetry_group_IT_number 59
_space_group.IT_coordinate_system_code '2'
_symmetry_cell_setting 'orthorhombic'
loop_
_space_group_symop_operation_xyz
x,y,z
1/2-x,1/2-y,z
1/2+x,-y,-z
-x,1/2+y,-z
-x,-y,-z
1/2+x,1/2+y,-z
1/2-x,y,z
x,1/2-y,z
loop_
_atom_site_type_symbol
_atom_site_label
_atom_site_fract_x
_atom_site_fract_y
_atom_site_fract_z
Si Si1 0.662670 0.164002 0.362756
Si Si2 0.060409 0.951154 0.356415
Si Si3 0.400389 0.395840 0.232502
Si Si4 0.535136 0.166335 0.018497
Si Si5 0.837498 0.664873 0.271948
O O1 0.750000 0.153686 0.345986
O O2 0.649866 0.250000 0.455308
O O3 0.622279 0.098140 0.509550
O O4 0.619065 0.161748 0.106958
O O5 0.019510 0.892235 0.189035
O O6 0.097076 0.015741 0.195577
O O7 0.000000 0.000000 0.500000
O O8 0.364580 0.380501 0.493414
O O9 0.481161 0.358088 0.234852
O O10 0.362505 0.360757 0.995696
O O11 0.519691 0.250000 0.945689
O O12 0.750000 0.662357 0.274119
O O13 0.861415 0.750000 0.308887
#
# Coordination Sequence:
#
# PCOD9452955 Si02
#       5
#     8   8   8   8   8
#     4  10  24  46  71 101 141 191 247 304 367 444
#     4  12  25  44  69 104 145 185 236 308 377 443
#     4  12  25  42  73 108 143 188 243 304 371 442
#     4  11  24  44  72 102 137 187 244 302 366 443
#     4  11  25  46  69 101 146 193 244 299 362 442
#
# _framework density 22.166022999999999
#
# number of rings (size 3 to 8) (size 9 to 14) (size 15 to 20)
#    0.000    0.800    2.000    4.800    2.800    4.000 
#    0.000    2.000    0.000    0.000    0.000    0.000 
#    0.000    0.000    0.000    0.000    0.000    0.000 
#
# Total GULP energy -223496.360880 kJ/mol
# GULP energy per Si atom -5587.409022 kJ/mol
# Density = 2.211557 g / cm^3
# Si number density = 22.166023 Si / 1000 Ang^3
#
#
#
# Elastic Constant Matrix: (Units=GPa)
#
#
# Indices 1 2 3 4 5 6 
#
# 1 131.2996 38.7727 32.9168 0.0000 0.0000 0.0000
# 2 38.7727 172.8149 36.5642 0.0000 0.0000 0.0000
# 3 32.9168 36.5642 78.4853 0.0000 0.0000 0.0000
# 4 0.0000 0.0000 0.0000 49.3688 0.0000 0.0000
# 5 0.0000 0.0000 0.0000 0.0000 32.4671 0.0000
# 6 0.0000 0.0000 0.0000 0.0000 0.0000 19.6625
#
#
#
# Elastic Compliance Matrix: (Units=1/GPa)
#
#
# Indices 1 2 3 4 5 6 
#
# 1 0.008774 -0.001320 -0.003065 0.000000 0.000000 0.000000
# 2 -0.001320 0.006618 -0.002529 0.000000 0.000000 0.000000
# 3 -0.003065 -0.002529 0.015205 0.000000 0.000000 0.000000
# 4 0.000000 0.000000 0.000000 0.020256 0.000000 0.000000
# 5 0.000000 0.000000 0.000000 0.000000 0.030800 0.000000
# 6 0.000000 0.000000 0.000000 0.000000 0.000000 0.050858
#
#
# Mechanical properties :
#
#
# Convention : Reuss Voigt Hill
#
# Bulk Modulus (GPa) = 59.63635 66.56747 63.10191
# Shear Modulus (GPa) = 32.90985 38.58944 35.74964
#
# Velocity S-wave (km/s) = 3.85736 4.17697 4.02034
# Velocity P-wave (km/s) = 6.84118 7.30474 7.07676
#
# Compressibility (1/GPa) = 0.01676830
#
# Stress axis : x y z
#
# Youngs Moduli (GPa) = 113.96806 151.10533 65.76745
#
# Poissons Ratio (x) = 0.19948 0.20158
# Poissons Ratio (y) = 0.15045 0.16635
# Poissons Ratio (z) = 0.34931 0.38221
#
# Static dielectric constant tensor:
#      x y z
#    x 1.845240 0.000000 0.000000 
#    y 0.000000 1.833770 0.000000 
#    z 0.000000 0.000000 1.851380 
# 
# From -- ./inp_files/2623.got.cif
#   From: 2010.05.17/outbox.cif.g08.bks.cpg/sg59_2_cif.got.tgz:2623.got - 2010.06.03 14:40:33.
