data_PCOD9452740
_publ_section_title
;
Structure prediction by ZEFSAII (Michael W. Deem and Ramdas Pophale) SiO2 
 PCOD9452740
Probable space group: P M M N
;
_chemical_formula_sum "Si O2"
_cell_formula_units_Z 48
_cell_length_a 8.370823
_cell_length_b 10.251038
_cell_length_c 28.447884
_cell_angle_alpha 90.000000
_cell_angle_beta 90.000000
_cell_angle_gamma 90.000000
_cell_volume 2441.102249
_symmetry_space_group_name_H-M "P M M N"
_symmetry_group_IT_number 59
_space_group.IT_coordinate_system_code '2'
_symmetry_cell_setting 'orthorhombic'
loop_
_space_group_symop_operation_xyz
x,y,z
1/2-x,1/2-y,z
1/2+x,-y,-z
-x,1/2+y,-z
-x,-y,-z
1/2+x,1/2+y,-z
1/2-x,y,z
x,1/2-y,z
loop_
_atom_site_type_symbol
_atom_site_label
_atom_site_fract_x
_atom_site_fract_y
_atom_site_fract_z
Si Si1 0.438907 0.392904 0.699526
Si Si2 0.557678 0.896669 0.037723
Si Si3 0.558990 0.597477 0.774870
Si Si4 0.923297 0.993987 0.611052
Si Si5 0.056524 0.400857 0.853958
Si Si6 0.250000 0.601572 0.578381
Si Si7 0.750000 0.094991 0.525752
O O1 0.250000 0.397744 0.688528
O O2 0.468562 0.250000 0.721945
O O3 0.482822 0.514388 0.732375
O O4 0.543472 0.404094 0.652382
O O5 0.750000 0.895673 0.037450
O O6 0.501898 0.750000 0.026072
O O7 0.510303 0.924749 0.091665
O O8 0.500000 0.000000 0.000000
O O9 0.750000 0.597047 0.769085
O O10 0.507236 0.750000 0.777031
O O11 0.514288 0.511732 0.820566
O O12 0.750000 0.928187 0.621026
O O13 0.089312 0.919751 0.607598
O O14 0.896685 0.050808 0.558821
O O15 0.250000 0.406069 0.850246
O O16 0.010469 0.250000 0.842416
O O17 0.250000 0.750000 0.565274
O O18 0.250000 0.535640 0.526477
O O19 0.750000 0.250000 0.526228
#
# Coordination Sequence:
#
# PCOD9452740 Si02
#       7
#     8   8   8   8   8   4   4
#     4  11  23  41  66  93 118 153 201 251 304 361
#     4   9  19  35  55  82 117 155 197 246 298 351
#     4  11  25  41  58  86 122 157 192 241 304 365
#     4  10  22  38  63  88 121 156 202 252 301 353
#     4   9  19  38  61  84 113 153 201 249 295 351
#     4  11  22  40  59  87 127 165 201 245 306 367
#     4   9  20  38  63  89 121 159 200 253 306 357
#
# _framework density 19.663249
#
# number of rings (size 3 to 8) (size 9 to 14) (size 15 to 20)
#    0.500    1.500    0.833    3.500    0.000    7.333 
#    0.000    5.000    0.000    0.000    0.000    0.000 
#    0.000    0.000    0.000    0.000    0.000    0.000 
#
# Total GULP energy -267275.678103 kJ/mol
# GULP energy per Si atom -5568.243294 kJ/mol
# Density = 1.961849 g / cm^3
# Si number density = 19.663249 Si / 1000 Ang^3
#
#
#
# Elastic Constant Matrix: (Units=GPa)
#
#
# Indices 1 2 3 4 5 6 
#
# 1 93.0576 35.1432 27.8005 0.0000 0.0000 0.0000
# 2 35.1432 112.0469 52.3836 0.0000 0.0000 0.0000
# 3 27.8005 52.3836 88.3279 0.0000 0.0000 0.0000
# 4 0.0000 0.0000 0.0000 -403.6368 0.0000 0.0000
# 5 0.0000 0.0000 0.0000 0.0000 37.5743 0.0000
# 6 0.0000 0.0000 0.0000 0.0000 0.0000 12.4839
#
#
#
# Elastic Compliance Matrix: (Units=1/GPa)
#
#
# Indices 1 2 3 4 5 6 
#
# 1 0.012498 -0.002879 -0.002226 0.000000 0.000000 0.000000
# 2 -0.002879 0.013012 -0.006811 0.000000 0.000000 0.000000
# 3 -0.002226 -0.006811 0.016061 0.000000 0.000000 0.000000
# 4 0.000000 0.000000 0.000000 -0.002477 0.000000 0.000000
# 5 0.000000 0.000000 0.000000 0.000000 0.026614 0.000000
# 6 0.000000 0.000000 0.000000 0.000000 0.000000 0.080103
#
#
# Mechanical properties :
#
#
# Convention : Reuss Voigt Hill
#
# Bulk Modulus (GPa) = 56.37169 58.23192 57.30181
# Shear Modulus (GPa) = 28.48077 -58.84206 -15.18064
#
# Velocity S-wave (km/s) = 3.80995 -5.47630 -2.78156
# Velocity P-wave (km/s) = 6.93434 3.21054 4.34612
#
# Compressibility (1/GPa) = 0.01773940
#
# Stress axis : x y z
#
# Youngs Moduli (GPa) = 80.00974 76.85208 62.26172
#
# Poissons Ratio (x) = 0.22128 0.13861
# Poissons Ratio (y) = 0.23038 0.42404
# Poissons Ratio (z) = 0.17812 0.52341
#
# Static dielectric constant tensor:
#      x y z
#    x 1.597890 0.000000 0.000000 
#    y 0.000000 1.691780 0.000000 
#    z 0.000000 0.000000 1.719340 
# 
# From -- ./inp_files/32965.got.cif
#   From: 2010.05.17/outbox.cif.g08.bks.cpg/sg59_17_cif.got.tgz:32965.got - 2010.06.03 14:40:33.
