data_PCOD9452613
_publ_section_title
;
Structure prediction by ZEFSAII (Michael W. Deem and Ramdas Pophale) SiO2 
 PCOD9452613
Probable space group: P M M N
;
_chemical_formula_sum "Si O2"
_cell_formula_units_Z 56
_cell_length_a 25.426918
_cell_length_b 21.880452
_cell_length_c 5.107742
_cell_angle_alpha 90.000000
_cell_angle_beta 90.000000
_cell_angle_gamma 90.000000
_cell_volume 2841.704821
_symmetry_space_group_name_H-M "P M M N"
_symmetry_group_IT_number 59
_space_group.IT_coordinate_system_code '2'
_symmetry_cell_setting 'orthorhombic'
loop_
_space_group_symop_operation_xyz
x,y,z
1/2-x,1/2-y,z
1/2+x,-y,-z
-x,1/2+y,-z
-x,-y,-z
1/2+x,1/2+y,-z
1/2-x,y,z
x,1/2-y,z
loop_
_atom_site_type_symbol
_atom_site_label
_atom_site_fract_x
_atom_site_fract_y
_atom_site_fract_z
Si Si1 0.526648 0.677001 0.080405
Si Si2 0.190506 0.621919 0.931216
Si Si3 0.353969 0.680606 0.427885
Si Si4 0.189293 0.003188 0.223444
Si Si5 0.034365 0.864799 0.578547
Si Si6 0.598946 0.925773 0.953307
Si Si7 0.914114 0.002766 0.471456
O O1 0.529124 0.750000 0.067557
O O2 0.509045 0.654657 0.366705
O O3 0.580357 0.642457 0.003086
O O4 0.484973 0.651028 0.868872
O O5 0.250000 0.641046 0.992323
O O6 0.152985 0.656842 0.133456
O O7 0.177782 0.639763 0.635856
O O8 0.186512 0.550899 0.009335
O O9 0.335562 0.750000 0.447037
O O10 0.414303 0.674874 0.510356
O O11 0.250000 0.010146 0.303424
O O12 0.160694 0.063055 0.105252
O O13 0.146978 0.984979 0.446686
O O14 0.053638 0.934736 0.542734
O O15 0.584121 0.966938 0.201557
O O16 0.569439 0.957092 0.706053
#
# Coordination Sequence:
#
# PCOD9452613 Si02
#       7
#     8   8   8   8   8   8   8
#     4  12  26  42  62  88 123 167 205 246 299 364
#     4  11  23  38  57  80 113 154 194 249 308 351
#     4  12  23  38  55  77 113 157 208 249 283 349
#     4   9  21  40  64  91 122 152 192 247 314 367
#     4  12  24  41  62  87 122 162 209 250 303 354
#     4  10  22  40  62  94 122 157 199 248 306 362
#     4  10  21  39  62  93 122 155 197 255 304 353
#
# _framework density 19.706479000000002
#
# number of rings (size 3 to 8) (size 9 to 14) (size 15 to 20)
#    0.857    0.286    1.429    5.571    0.000    5.714 
#    0.000    0.000    0.000    0.429    0.000    0.000 
#    0.000    0.000    0.000    0.000    0.000    0.000 
#
# Total GULP energy -312774.872797 kJ/mol
# GULP energy per Si atom -5585.265586 kJ/mol
# Density = 1.966163 g / cm^3
# Si number density = 19.706479 Si / 1000 Ang^3
#
#
#
# Elastic Constant Matrix: (Units=GPa)
#
#
# Indices 1 2 3 4 5 6 
#
# 1 71.7094 34.4086 -5.9489 0.0000 0.0000 0.0000
# 2 34.4086 87.5342 16.2770 0.0000 0.0000 0.0000
# 3 -5.9489 16.2770 84.7461 0.0000 0.0000 0.0000
# 4 0.0000 0.0000 0.0000 14.7021 0.0000 0.0000
# 5 0.0000 0.0000 0.0000 0.0000 19.0268 0.0000
# 6 0.0000 0.0000 0.0000 0.0000 0.0000 12.2872
#
#
#
# Elastic Compliance Matrix: (Units=1/GPa)
#
#
# Indices 1 2 3 4 5 6 
#
# 1 0.017756 -0.007479 0.002683 0.000000 0.000000 0.000000
# 2 -0.007479 0.014997 -0.003405 0.000000 0.000000 0.000000
# 3 0.002683 -0.003405 0.012642 0.000000 0.000000 0.000000
# 4 0.000000 0.000000 0.000000 0.068017 0.000000 0.000000
# 5 0.000000 0.000000 0.000000 0.000000 0.052558 0.000000
# 6 0.000000 0.000000 0.000000 0.000000 0.000000 0.081386
#
#
# Mechanical properties :
#
#
# Convention : Reuss Voigt Hill
#
# Bulk Modulus (GPa) = 34.49080 37.05144 35.77112
# Shear Modulus (GPa) = 18.28668 22.48675 20.38672
#
# Velocity S-wave (km/s) = 3.04954 3.38166 3.21988
# Velocity P-wave (km/s) = 5.47173 5.83866 5.65817
#
# Compressibility (1/GPa) = 0.02899324
#
# Stress axis : x y z
#
# Youngs Moduli (GPa) = 56.31825 66.67951 79.09916
#
# Poissons Ratio (x) = 0.49867 -0.21221
# Poissons Ratio (y) = 0.42118 0.26937
# Poissons Ratio (z) = -0.15109 0.22707
#
# Static dielectric constant tensor:
#      x y z
#    x 1.734820 0.000000 0.000000 
#    y 0.000000 1.683210 0.000000 
#    z 0.000000 0.000000 1.698190 
# 
# From -- ./inp_files/4297.got.cif
#   From: 2010.05.17/outbox.cif.g08.bks.cpg/sg59_3_cif.got.tgz:4297.got - 2010.06.03 14:40:33.
