data_PCOD9452039
_publ_section_title
;
Structure prediction by ZEFSAII (Michael W. Deem and Ramdas Pophale) SiO2 
 PCOD9452039
Probable space group: P M M N
;
_chemical_formula_sum "Si O2"
_cell_formula_units_Z 56
_cell_length_a 14.353855
_cell_length_b 8.970598
_cell_length_c 22.337939
_cell_angle_alpha 90.000000
_cell_angle_beta 90.000000
_cell_angle_gamma 90.000000
_cell_volume 2876.292511
_symmetry_space_group_name_H-M "P M M N"
_symmetry_group_IT_number 59
_space_group.IT_coordinate_system_code '2'
_symmetry_cell_setting 'orthorhombic'
loop_
_space_group_symop_operation_xyz
x,y,z
1/2-x,1/2-y,z
1/2+x,-y,-z
-x,1/2+y,-z
-x,-y,-z
1/2+x,1/2+y,-z
1/2-x,y,z
x,1/2-y,z
loop_
_atom_site_type_symbol
_atom_site_label
_atom_site_fract_x
_atom_site_fract_y
_atom_site_fract_z
Si Si1 0.487166 0.424504 0.063824
Si Si2 0.855219 0.579188 0.273389
Si Si3 0.643035 0.568219 0.830748
Si Si4 0.044154 0.073620 0.292315
Si Si5 0.355984 0.070429 0.530696
Si Si6 0.356340 0.416037 0.870909
Si Si7 0.945830 0.071933 0.585643
O O1 0.472583 0.250000 0.054718
O O2 0.405633 0.482639 0.107828
O O3 0.579722 0.458164 0.101780
O O4 0.500000 0.500000 0.000000
O O5 0.750000 0.544536 0.293300
O O6 0.876750 0.750000 0.293072
O O7 0.855387 0.579176 0.201000
O O8 0.935120 0.467179 0.291811
O O9 0.750000 0.522022 0.827348
O O10 0.639806 0.750000 0.831378
O O11 0.587694 0.521727 0.770971
O O12 0.058565 0.250000 0.297503
O O13 0.083975 0.991165 0.350235
O O14 0.250000 0.026171 0.548295
O O15 0.356252 0.250000 0.525633
O O16 0.444612 0.032035 0.572916
O O17 0.384533 0.999110 0.467189
O O18 0.250000 0.430197 0.891428
O O19 0.390612 0.250000 0.888478
O O20 0.938325 0.250000 0.583913
#
# Coordination Sequence:
#
# PCOD9452039 Si02
#       7
#     8   8   8   8   8   8   8
#     4  11  22  37  58  84 111 145 189 239 290 343
#     4   9  18  33  54  79 109 145 181 223 282 345
#     4   9  20  39  59  79 108 149 193 234 279 335
#     4  11  21  35  57  85 115 150 194 240 285 337
#     4   9  19  38  61  82 110 152 197 239 284 336
#     4   9  18  34  56  80 107 141 178 220 279 344
#     4  10  21  36  56  86 119 152 191 237 289 344
#
# _framework density 19.469508000000001
#
# number of rings (size 3 to 8) (size 9 to 14) (size 15 to 20)
#    0.000    2.286    1.429    2.143    0.000    3.143 
#    0.000    5.714    0.000    6.000    0.000    0.000 
#    0.000    0.000    0.000    0.000    0.000    0.000 
#
# Total GULP energy -312401.565656 kJ/mol
# GULP energy per Si atom -5578.599387 kJ/mol
# Density = 1.942519 g / cm^3
# Si number density = 19.469508 Si / 1000 Ang^3
#
#
#
# Elastic Constant Matrix: (Units=GPa)
#
#
# Indices 1 2 3 4 5 6 
#
# 1 72.8613 13.6956 27.9620 0.0000 0.0000 0.0000
# 2 13.6956 16.9653 25.2072 0.0000 0.0000 0.0000
# 3 27.9620 25.2072 109.7719 0.0000 0.0000 0.0000
# 4 0.0000 0.0000 0.0000 29.6414 0.0000 0.0000
# 5 0.0000 0.0000 0.0000 0.0000 2.5133 0.0000
# 6 0.0000 0.0000 0.0000 0.0000 0.0000 24.7713
#
#
#
# Elastic Compliance Matrix: (Units=1/GPa)
#
#
# Indices 1 2 3 4 5 6 
#
# 1 0.016392 -0.010669 -0.001726 0.000000 0.000000 0.000000
# 2 -0.010669 0.096414 -0.019422 0.000000 0.000000 0.000000
# 3 -0.001726 -0.019422 0.014009 0.000000 0.000000 0.000000
# 4 0.000000 0.000000 0.000000 0.033737 0.000000 0.000000
# 5 0.000000 0.000000 0.000000 0.000000 0.397877 0.000000
# 6 0.000000 0.000000 0.000000 0.000000 0.000000 0.040369
#
#
# Mechanical properties :
#
#
# Convention : Reuss Voigt Hill
#
# Bulk Modulus (GPa) = 15.82721 37.03646 26.43184
# Shear Modulus (GPa) = 7.31535 20.23413 13.77474
#
# Velocity S-wave (km/s) = 1.94049 3.22727 2.66278
# Velocity P-wave (km/s) = 3.62871 5.74031 4.80201
#
# Compressibility (1/GPa) = 0.06318232
#
# Stress axis : x y z
#
# Youngs Moduli (GPa) = 61.00389 10.37189 71.38093
#
# Poissons Ratio (x) = 0.11066 0.12318
# Poissons Ratio (y) = 0.65086 1.38637
# Poissons Ratio (z) = 0.10527 0.20144
#
# Static dielectric constant tensor:
#      x y z
#    x 1.690680 0.000000 0.000000 
#    y 0.000000 1.667370 0.000000 
#    z 0.000000 0.000000 1.692080 
# 
# From -- ./inp_files/30321.got.cif
#   From: 2010.05.17/outbox.cif.g08.bks.cpg/sg59_16_cif.got.tgz:30321.got - 2010.06.03 14:40:33.
