data_PCOD9452312
_publ_section_title
;
Structure prediction by ZEFSAII (Michael W. Deem and Ramdas Pophale) SiO2 
 PCOD9452312
Probable space group: P M M N
;
_chemical_formula_sum "Si O2"
_cell_formula_units_Z 48
_cell_length_a 25.603456
_cell_length_b 8.808624
_cell_length_c 12.015538
_cell_angle_alpha 90.000000
_cell_angle_beta 90.000000
_cell_angle_gamma 90.000000
_cell_volume 2709.878908
_symmetry_space_group_name_H-M "P M M N"
_symmetry_group_IT_number 59
_space_group.IT_coordinate_system_code '2'
_symmetry_cell_setting 'orthorhombic'
loop_
_space_group_symop_operation_xyz
x,y,z
1/2-x,1/2-y,z
1/2+x,-y,-z
-x,1/2+y,-z
-x,-y,-z
1/2+x,1/2+y,-z
1/2-x,y,z
x,1/2-y,z
loop_
_atom_site_type_symbol
_atom_site_label
_atom_site_fract_x
_atom_site_fract_y
_atom_site_fract_z
Si Si1 0.400557 0.930026 0.272910
Si Si2 0.310301 0.568012 0.885752
Si Si3 0.002854 0.068954 0.877138
Si Si4 0.188757 0.430979 0.125577
Si Si5 0.904829 0.432094 0.272075
Si Si6 0.441663 0.431031 0.499283
O O1 0.397638 0.750000 0.293375
O O2 0.448778 0.957338 0.188515
O O3 0.348425 0.989168 0.214110
O O4 0.413278 0.014566 0.387443
O O5 0.250000 0.529836 0.859924
O O6 0.313442 0.750000 0.903262
O O7 0.350397 0.528739 0.788256
O O8 0.324956 0.487859 0.001409
O O9 0.011574 0.250000 0.882721
O O10 0.048904 0.991159 0.807301
O O11 0.000000 0.000000 0.000000
O O12 0.250000 0.467672 0.143045
O O13 0.182391 0.250000 0.131744
O O14 0.908304 0.250000 0.282771
O O15 0.912353 0.507715 0.391718
O O16 0.500000 0.500000 0.500000
O O17 0.445411 0.250000 0.502962
#
# Coordination Sequence:
#
# PCOD9452312 Si02
#       6
#     8   8   8   8   8   8
#     4  11  23  39  59  84 114 153 197 238 287 347
#     4   9  19  37  60  86 117 154 195 237 284 343
#     4  11  23  36  54  82 117 150 187 237 292 349
#     4  10  21  37  59  88 120 154 193 240 293 344
#     4  11  22  37  59  85 115 152 195 239 290 348
#     4  12  24  40  61  84 114 154 195 240 292 348
#
# _framework density 17.712968
#
# number of rings (size 3 to 8) (size 9 to 14) (size 15 to 20)
#    0.000    1.333    1.667    4.500    0.000    8.333 
#    0.000    0.833    0.000    3.000    0.000    0.000 
#    0.000    0.000    0.000    0.000    0.000    0.000 
#
# Total GULP energy -268359.927924 kJ/mol
# GULP energy per Si atom -5590.831832 kJ/mol
# Density = 1.767265 g / cm^3
# Si number density = 17.712968 Si / 1000 Ang^3
#
#
#
# Elastic Constant Matrix: (Units=GPa)
#
#
# Indices 1 2 3 4 5 6 
#
# 1 95.9649 63.9238 78.7957 0.0000 0.0000 0.0000
# 2 63.9238 98.1201 86.4492 0.0000 0.0000 0.0000
# 3 78.7957 86.4492 169.3983 0.0000 0.0000 0.0000
# 4 0.0000 0.0000 0.0000 37.5028 0.0000 0.0000
# 5 0.0000 0.0000 0.0000 0.0000 18.6302 0.0000
# 6 0.0000 0.0000 0.0000 0.0000 0.0000 25.9499
#
#
#
# Elastic Compliance Matrix: (Units=1/GPa)
#
#
# Indices 1 2 3 4 5 6 
#
# 1 0.020449 -0.008979 -0.004930 0.000000 0.000000 0.000000
# 2 -0.008979 0.022460 -0.007286 0.000000 0.000000 0.000000
# 3 -0.004930 -0.007286 0.011914 0.000000 0.000000 0.000000
# 4 0.000000 0.000000 0.000000 0.026665 0.000000 0.000000
# 5 0.000000 0.000000 0.000000 0.000000 0.053676 0.000000
# 6 0.000000 0.000000 0.000000 0.000000 0.000000 0.038536
#
#
# Mechanical properties :
#
#
# Convention : Reuss Voigt Hill
#
# Bulk Modulus (GPa) = 80.41645 91.31343 85.86494
# Shear Modulus (GPa) = 22.70307 25.37090 24.03698
#
# Velocity S-wave (km/s) = 3.58400 3.78873 3.68778
# Velocity P-wave (km/s) = 7.91360 8.41445 8.16786
#
# Compressibility (1/GPa) = 0.01243527
#
# Stress axis : x y z
#
# Youngs Moduli (GPa) = 48.90130 44.52291 83.93229
#
# Poissons Ratio (x) = 0.39978 0.41376
# Poissons Ratio (y) = 0.43909 0.61150
# Poissons Ratio (z) = 0.24107 0.32438
#
# Static dielectric constant tensor:
#      x y z
#    x 1.591820 0.000000 0.000000 
#    y 0.000000 1.591810 0.000000 
#    z 0.000000 0.000000 1.569580 
# 
# From -- ./inp_files/14292.got.cif
#   From: 2010.05.17/outbox.cif.g08.bks.cpg/sg59_8_cif.got.tgz:14292.got - 2010.06.03 14:40:33.
