data_PCOD9452648
_publ_section_title
;
Structure prediction by ZEFSAII (Michael W. Deem and Ramdas Pophale) SiO2 
 PCOD9452648
Probable space group: P M M N
;
_chemical_formula_sum "Si O2"
_cell_formula_units_Z 42
_cell_length_a 15.619516
_cell_length_b 22.022575
_cell_length_c 6.457778
_cell_angle_alpha 90.000000
_cell_angle_beta 90.000000
_cell_angle_gamma 90.000000
_cell_volume 2221.359150
_symmetry_space_group_name_H-M "P M M N"
_symmetry_group_IT_number 59
_space_group.IT_coordinate_system_code '2'
_symmetry_cell_setting 'orthorhombic'
loop_
_space_group_symop_operation_xyz
x,y,z
1/2-x,1/2-y,z
1/2+x,-y,-z
-x,1/2+y,-z
-x,-y,-z
1/2+x,1/2+y,-z
1/2-x,y,z
x,1/2-y,z
loop_
_atom_site_type_symbol
_atom_site_label
_atom_site_fract_x
_atom_site_fract_y
_atom_site_fract_z
Si Si1 0.655190 0.081096 0.761393
Si Si2 0.579367 0.537385 0.907042
Si Si3 0.581162 0.317800 0.060611
Si Si4 0.093729 0.154868 0.827305
Si Si5 0.250000 0.250000 0.848785
Si Si6 0.008961 0.617015 0.555993
O O1 0.750000 0.092004 0.676033
O O2 0.579334 0.086736 0.593634
O O3 0.648277 0.013451 0.852557
O O4 0.634839 0.130954 0.939273
O O5 0.541642 0.571128 0.705264
O O6 0.500000 0.500000 0.000000
O O7 0.608211 0.588647 0.069564
O O8 0.617411 0.250000 0.046476
O O9 0.560994 0.337597 0.294841
O O10 0.488126 0.319210 0.951000
O O11 0.174870 0.197279 0.847070
O O12 0.060676 0.148322 0.592278
#
# Coordination Sequence:
#
# PCOD9452648 Si02
#       6
#     8   8   8   8   2   8
#     4  11  24  39  62  94 127 156 209 270 315 372
#     4  11  20  42  66  93 121 173 213 255 325 391
#     4  10  21  41  65  86 118 169 208 247 318 386
#     4  10  23  39  63  91 128 168 209 263 312 382
#     4  12  24  44  62 100 138 170 218 276 322 372
#     4  10  21  40  63  92 123 170 207 255 320 383
#
# _framework density 18.907343000000001
#
# number of rings (size 3 to 8) (size 9 to 14) (size 15 to 20)
#    0.000    1.524    6.667    0.571    2.667    1.905 
#    1.714    4.762    0.000    0.000    0.000    0.000 
#    0.000    0.000    0.000    0.000    0.000    0.000 
#
# Total GULP energy -233813.747096 kJ/mol
# GULP energy per Si atom -5566.993978 kJ/mol
# Density = 1.886431 g / cm^3
# Si number density = 18.907343 Si / 1000 Ang^3
#
#
#
# Elastic Constant Matrix: (Units=GPa)
#
#
# Indices 1 2 3 4 5 6 
#
# 1 90.0153 20.5171 1.6926 0.0000 0.0000 0.0000
# 2 20.5171 129.1528 31.9221 0.0000 0.0000 0.0000
# 3 1.6926 31.9221 82.0410 0.0000 0.0000 0.0000
# 4 0.0000 0.0000 0.0000 0.2305 0.0000 0.0000
# 5 0.0000 0.0000 0.0000 0.0000 2.5781 0.0000
# 6 0.0000 0.0000 0.0000 0.0000 0.0000 35.6781
#
#
#
# Elastic Compliance Matrix: (Units=1/GPa)
#
#
# Indices 1 2 3 4 5 6 
#
# 1 0.011547 -0.001964 0.000526 0.000000 0.000000 0.000000
# 2 -0.001964 0.008901 -0.003423 0.000000 0.000000 0.000000
# 3 0.000526 -0.003423 0.013510 0.000000 0.000000 0.000000
# 4 0.000000 0.000000 0.000000 4.338900 0.000000 0.000000
# 5 0.000000 0.000000 0.000000 0.000000 0.387875 0.000000
# 6 0.000000 0.000000 0.000000 0.000000 0.000000 0.028028
#
#
# Mechanical properties :
#
#
# Convention : Reuss Voigt Hill
#
# Bulk Modulus (GPa) = 41.26135 45.49697 43.37916
# Shear Modulus (GPa) = 1.04024 24.16916 12.60470
#
# Velocity S-wave (km/s) = 0.74255 3.57920 2.58477
# Velocity P-wave (km/s) = 4.75452 6.41843 5.64809
#
# Compressibility (1/GPa) = 0.02423575
#
# Stress axis : x y z
#
# Youngs Moduli (GPa) = 86.60206 112.34914 74.01933
#
# Poissons Ratio (x) = 0.22070 -0.03894
# Poissons Ratio (y) = 0.17012 0.25335
# Poissons Ratio (z) = -0.04556 0.38455
#
# Static dielectric constant tensor:
#      x y z
#    x 1.632330 0.000000 0.000000 
#    y 0.000000 1.688220 0.000000 
#    z 0.000000 0.000000 1.680840 
# 
# From -- ./inp_files/2825.got.cif
#   From: 2010.05.17/outbox.cif.g08.bks.cpg/sg59_2_cif.got.tgz:2825.got - 2010.06.03 14:40:33.
