data_PCOD9452570
_publ_section_title
;
Structure prediction by ZEFSAII (Michael W. Deem and Ramdas Pophale) SiO2 
 PCOD9452570
Probable space group: P M M N
;
_chemical_formula_sum "Si O2"
_cell_formula_units_Z 64
_cell_length_a 29.418454
_cell_length_b 8.716387
_cell_length_c 12.850853
_cell_angle_alpha 90.000000
_cell_angle_beta 90.000000
_cell_angle_gamma 90.000000
_cell_volume 3295.249524
_symmetry_space_group_name_H-M "P M M N"
_symmetry_group_IT_number 59
_space_group.IT_coordinate_system_code '2'
_symmetry_cell_setting 'orthorhombic'
loop_
_space_group_symop_operation_xyz
x,y,z
1/2-x,1/2-y,z
1/2+x,-y,-z
-x,1/2+y,-z
-x,-y,-z
1/2+x,1/2+y,-z
1/2-x,y,z
x,1/2-y,z
loop_
_atom_site_type_symbol
_atom_site_label
_atom_site_fract_x
_atom_site_fract_y
_atom_site_fract_z
Si Si1 0.198805 0.065247 0.991445
Si Si2 0.133223 0.935166 0.381503
Si Si3 0.950969 0.066740 0.476030
Si Si4 0.478227 0.565671 0.105368
Si Si5 0.121269 0.433890 0.154978
Si Si6 0.302294 0.936907 0.570262
Si Si7 0.561511 0.566670 0.250511
Si Si8 0.154891 0.933782 0.790572
O O1 0.250000 0.026070 0.025987
O O2 0.196291 0.250000 0.980786
O O3 0.188197 0.990195 0.880527
O O4 0.159850 0.017459 0.072520
O O5 0.135597 0.750000 0.370060
O O6 0.084952 0.973558 0.434600
O O7 0.170908 0.983590 0.466331
O O8 0.135839 0.011343 0.269466
O O9 0.952717 0.250000 0.469893
O O10 0.935490 0.002224 0.365390
O O11 0.000000 0.000000 0.500000
O O12 0.476180 0.750000 0.099492
O O13 0.428035 0.502092 0.126742
O O14 0.513843 0.523835 0.196878
O O15 0.500000 0.500000 0.000000
O O16 0.118003 0.250000 0.152526
O O17 0.250000 0.986936 0.569881
O O18 0.302875 0.750000 0.571144
O O19 0.327136 0.984930 0.676865
O O20 0.563787 0.750000 0.254532
O O21 0.605048 0.503222 0.189291
O O22 0.152021 0.750000 0.790326
#
# Coordination Sequence:
#
# PCOD9452570 Si02
#       8
#     8   8   8   8   8   8   8   8
#     4  10  23  43  63  86 121 161 199 249 312 370
#     4  10  21  39  59  84 120 157 197 247 301 357
#     4  11  22  37  57  85 118 156 200 247 301 357
#     4  11  24  41  61  88 121 160 204 253 306 363
#     4  11  24  41  62  88 120 161 207 253 303 364
#     4   9  18  35  59  87 120 156 193 243 306 361
#     4  11  23  38  58  86 121 161 202 246 303 368
#     4  11  21  37  62  94 125 156 201 257 308 365
#
# _framework density 19.421897999999999
#
# number of rings (size 3 to 8) (size 9 to 14) (size 15 to 20)
#    0.000    1.500    1.250    3.750    0.000   11.250 
#    0.000    0.000    0.000    1.500    0.000    0.000 
#    0.000    0.000    0.000    0.000    0.000    0.000 
#
# Total GULP energy -357750.387043 kJ/mol
# GULP energy per Si atom -5589.849798 kJ/mol
# Density = 1.937769 g / cm^3
# Si number density = 19.421898 Si / 1000 Ang^3
#
#
#
# Elastic Constant Matrix: (Units=GPa)
#
#
# Indices 1 2 3 4 5 6 
#
# 1 154.6961 30.9687 55.1458 0.0000 0.0000 0.0000
# 2 30.9687 24.1547 26.2033 0.0000 0.0000 0.0000
# 3 55.1458 26.2033 122.9371 0.0000 0.0000 0.0000
# 4 0.0000 0.0000 0.0000 34.7602 0.0000 0.0000
# 5 0.0000 0.0000 0.0000 0.0000 34.1830 0.0000
# 6 0.0000 0.0000 0.0000 0.0000 0.0000 24.7561
#
#
#
# Elastic Compliance Matrix: (Units=1/GPa)
#
#
# Indices 1 2 3 4 5 6 
#
# 1 0.009085 -0.009400 -0.002071 0.000000 0.000000 0.000000
# 2 -0.009400 0.063578 -0.009335 0.000000 0.000000 0.000000
# 3 -0.002071 -0.009335 0.011053 0.000000 0.000000 0.000000
# 4 0.000000 0.000000 0.000000 0.028769 0.000000 0.000000
# 5 0.000000 0.000000 0.000000 0.000000 0.029254 0.000000
# 6 0.000000 0.000000 0.000000 0.000000 0.000000 0.040394
#
#
# Mechanical properties :
#
#
# Convention : Reuss Voigt Hill
#
# Bulk Modulus (GPa) = 23.75115 58.49151 41.12133
# Shear Modulus (GPa) = 21.02785 31.37119 26.19952
#
# Velocity S-wave (km/s) = 3.29399 4.02338 3.67681
# Velocity P-wave (km/s) = 5.16941 7.19479 6.26450
#
# Compressibility (1/GPa) = 0.04210322
#
# Stress axis : x y z
#
# Youngs Moduli (GPa) = 110.07704 15.72865 90.47260
#
# Poissons Ratio (x) = 0.14785 0.18741
# Poissons Ratio (y) = 1.03474 0.84453
# Poissons Ratio (z) = 0.22802 0.14682
#
# Static dielectric constant tensor:
#      x y z
#    x 1.681930 0.000000 0.000000 
#    y 0.000000 1.653460 0.000000 
#    z 0.000000 0.000000 1.666080 
# 
# From -- ./inp_files/19391.got.cif
#   From: 2010.05.17/outbox.cif.g08.bks.cpg/sg59_10_cif.got.tgz:19391.got - 2010.06.03 14:40:33.
