data_PCOD9452088
_publ_section_title
;
Structure prediction by ZEFSAII (Michael W. Deem and Ramdas Pophale) SiO2 
 PCOD9452088
Probable space group: P M M N
;
_chemical_formula_sum "Si O2"
_cell_formula_units_Z 64
_cell_length_a 7.655997
_cell_length_b 25.451577
_cell_length_c 15.710237
_cell_angle_alpha 90.000000
_cell_angle_beta 90.000000
_cell_angle_gamma 90.000000
_cell_volume 3061.252748
_symmetry_space_group_name_H-M "P M M N"
_symmetry_group_IT_number 59
_space_group.IT_coordinate_system_code '2'
_symmetry_cell_setting 'orthorhombic'
loop_
_space_group_symop_operation_xyz
x,y,z
1/2-x,1/2-y,z
1/2+x,-y,-z
-x,1/2+y,-z
-x,-y,-z
1/2+x,1/2+y,-z
1/2-x,y,z
x,1/2-y,z
loop_
_atom_site_type_symbol
_atom_site_label
_atom_site_fract_x
_atom_site_fract_y
_atom_site_fract_z
Si Si1 0.458552 0.038335 0.424203
Si Si2 0.039030 0.189963 0.064008
Si Si3 0.039472 0.311651 0.872751
Si Si4 0.445417 0.613061 0.277092
Si Si5 0.049928 0.654492 0.596837
Si Si6 0.041998 0.882672 0.777936
Si Si7 0.556343 0.003277 0.240327
Si Si8 0.035177 0.691726 0.418586
O O1 0.250000 0.043299 0.411873
O O2 0.541093 0.095122 0.438152
O O3 0.500000 0.000000 0.500000
O O4 0.546379 0.014617 0.340722
O O5 0.250000 0.190838 0.063419
O O6 0.979433 0.250000 0.078459
O O7 0.981612 0.152256 0.139271
O O8 0.984598 0.173467 0.968840
O O9 0.250000 0.318138 0.866488
O O10 0.001038 0.250000 0.862304
O O11 0.953969 0.345639 0.799588
O O12 0.250000 0.601843 0.306621
O O13 0.502823 0.557441 0.237643
O O14 0.529361 0.644350 0.357410
O O15 0.250000 0.672820 0.607946
O O16 0.972547 0.646693 0.692245
O O17 0.975174 0.686428 0.516928
O O18 0.250000 0.889114 0.761174
O O19 0.968482 0.941990 0.791614
O O20 0.750000 0.004031 0.203510
O O21 0.250000 0.689625 0.419267
O O22 0.987317 0.750000 0.385899
#
# Coordination Sequence:
#
# PCOD9452088 Si02
#       8
#     8   8   8   8   8   8   8   8
#     4  11  20  31  49  72  99 133 175 221 266 309
#     4   9  19  36  58  82 107 138 176 218 269 329
#     4   9  19  37  58  79 106 142 181 221 271 328
#     4  11  21  33  54  83 110 140 181 227 277 327
#     4   9  18  33  51  72 101 138 176 211 254 311
#     4   9  19  34  54  81 109 138 176 224 271 317
#     4  10  21  37  54  75 106 142 182 224 268 324
#     4   9  18  32  50  74 106 141 176 217 264 316
#
# _framework density 20.906473999999999
#
# number of rings (size 3 to 8) (size 9 to 14) (size 15 to 20)
#    0.000    2.375    0.000    4.500    0.000    5.500 
#    0.000    3.750    0.000    1.875    0.000    0.000 
#    0.000    0.000    0.000    0.000    0.000    0.000 
#
# Total GULP energy -356502.502220 kJ/mol
# GULP energy per Si atom -5570.351597 kJ/mol
# Density = 2.085889 g / cm^3
# Si number density = 20.906474 Si / 1000 Ang^3
#
#
#
# Elastic Constant Matrix: (Units=GPa)
#
#
# Indices 1 2 3 4 5 6 
#
# 1 46.1049 -1.3683 -4.3492 0.0000 0.0000 0.0000
# 2 -1.3683 63.9032 42.2491 0.0000 0.0000 0.0000
# 3 -4.3492 42.2491 76.9006 0.0000 0.0000 0.0000
# 4 0.0000 0.0000 0.0000 33.1071 0.0000 0.0000
# 5 0.0000 0.0000 0.0000 0.0000 0.5472 0.0000
# 6 0.0000 0.0000 0.0000 0.0000 0.0000 29.2587
#
#
#
# Elastic Compliance Matrix: (Units=1/GPa)
#
#
# Indices 1 2 3 4 5 6 
#
# 1 0.021818 -0.000548 0.001535 0.000000 0.000000 0.000000
# 2 -0.000548 0.024589 -0.013540 0.000000 0.000000 0.000000
# 3 0.001535 -0.013540 0.020529 0.000000 0.000000 0.000000
# 4 0.000000 0.000000 0.000000 0.030205 0.000000 0.000000
# 5 0.000000 0.000000 0.000000 0.000000 1.827456 0.000000
# 6 0.000000 0.000000 0.000000 0.000000 0.000000 0.034178
#
#
# Mechanical properties :
#
#
# Convention : Reuss Voigt Hill
#
# Bulk Modulus (GPa) = 23.90575 28.88574 26.39575
# Shear Modulus (GPa) = 2.50272 22.60776 12.55524
#
# Velocity S-wave (km/s) = 1.09531 3.29200 2.45326
# Velocity P-wave (km/s) = 3.61373 5.31943 4.54727
#
# Compressibility (1/GPa) = 0.04183095
#
# Stress axis : x y z
#
# Youngs Moduli (GPa) = 45.83327 40.66892 48.71046
#
# Poissons Ratio (x) = 0.02227 -0.07476
# Poissons Ratio (y) = 0.02509 0.65954
# Poissons Ratio (z) = -0.07034 0.55066
#
# Static dielectric constant tensor:
#      x y z
#    x 1.836460 0.000000 0.000000 
#    y 0.000000 1.777710 0.000000 
#    z 0.000000 0.000000 1.720640 
# 
# From -- ./inp_files/21492.got.cif
#   From: 2010.05.17/outbox.cif.g08.bks.cpg/sg59_11_cif.got.tgz:21492.got - 2010.06.03 14:40:33.
