data_PCOD9452633
_publ_section_title
;
Structure prediction by ZEFSAII (Michael W. Deem and Ramdas Pophale) SiO2 
 PCOD9452633
Probable space group: P M M N
;
_chemical_formula_sum "Si O2"
_cell_formula_units_Z 64
_cell_length_a 24.611187
_cell_length_b 14.578323
_cell_length_c 8.909707
_cell_angle_alpha 90.000000
_cell_angle_beta 90.000000
_cell_angle_gamma 90.000000
_cell_volume 3196.712291
_symmetry_space_group_name_H-M "P M M N"
_symmetry_group_IT_number 59
_space_group.IT_coordinate_system_code '2'
_symmetry_cell_setting 'orthorhombic'
loop_
_space_group_symop_operation_xyz
x,y,z
1/2-x,1/2-y,z
1/2+x,-y,-z
-x,1/2+y,-z
-x,-y,-z
1/2+x,1/2+y,-z
1/2-x,y,z
x,1/2-y,z
loop_
_atom_site_type_symbol
_atom_site_label
_atom_site_fract_x
_atom_site_fract_y
_atom_site_fract_z
Si Si1 0.996558 0.894101 0.545175
Si Si2 0.517657 0.354822 0.109328
Si Si3 0.814545 0.146213 0.138944
Si Si4 0.609051 0.454512 0.936829
Si Si5 0.097571 0.147431 0.959816
Si Si6 0.602715 0.146038 0.637366
Si Si7 0.618271 0.852477 0.395804
Si Si8 0.184785 0.534951 0.560383
O O1 0.940161 0.858489 0.476740
O O2 0.998491 0.877419 0.722888
O O3 0.050923 0.852391 0.472541
O O4 0.000000 0.000000 0.500000
O O5 0.538897 0.250000 0.105300
O O6 0.466308 0.357686 0.998409
O O7 0.562180 0.426783 0.054846
O O8 0.750000 0.147982 0.126433
O O9 0.833238 0.250000 0.170953
O O10 0.827930 0.078678 0.276336
O O11 0.840450 0.106505 0.988872
O O12 0.622254 0.561490 0.951552
O O13 0.589639 0.420712 0.775798
O O14 0.115971 0.250000 0.005092
O O15 0.108222 0.137016 0.783008
O O16 0.612900 0.250000 0.688961
O O17 0.654611 0.102374 0.555049
O O18 0.640810 0.750000 0.421494
O O19 0.656961 0.935087 0.447900
O O20 0.250000 0.531711 0.541348
#
# Coordination Sequence:
#
# PCOD9452633 Si02
#       8
#     8   8   8   8   8   8   8   8
#     4  12  22  39  62  95 133 170 209 257 316 379
#     4  11  22  36  59  91 126 167 207 250 306 376
#     4  10  21  39  64  89 116 154 205 262 314 368
#     4  12  22  40  61  91 126 165 209 252 306 373
#     4  10  22  39  60  89 125 164 205 253 307 362
#     4  12  25  40  63  96 133 170 207 258 317 381
#     4  11  22  41  66  95 128 166 210 263 317 374
#     4  11  24  44  65  91 124 165 213 263 315 374
#
# _framework density 20.020569999999999
#
# number of rings (size 3 to 8) (size 9 to 14) (size 15 to 20)
#    0.000    0.875    2.500    6.000    0.000    2.500 
#    0.000    0.000    0.000    0.375    0.000    0.000 
#    0.000    0.000    0.000    0.000    0.000    0.000 
#
# Total GULP energy -357788.446380 kJ/mol
# GULP energy per Si atom -5590.444475 kJ/mol
# Density = 1.997500 g / cm^3
# Si number density = 20.020570 Si / 1000 Ang^3
#
#
#
# Elastic Constant Matrix: (Units=GPa)
#
#
# Indices 1 2 3 4 5 6 
#
# 1 71.8893 27.3889 17.8297 0.0000 0.0000 0.0000
# 2 27.3889 137.0099 10.1883 0.0000 0.0000 0.0000
# 3 17.8297 10.1883 39.7682 0.0000 0.0000 0.0000
# 4 0.0000 0.0000 0.0000 26.9586 0.0000 0.0000
# 5 0.0000 0.0000 0.0000 0.0000 26.2304 0.0000
# 6 0.0000 0.0000 0.0000 0.0000 0.0000 16.5739
#
#
#
# Elastic Compliance Matrix: (Units=1/GPa)
#
#
# Indices 1 2 3 4 5 6 
#
# 1 0.016661 -0.002829 -0.006745 0.000000 0.000000 0.000000
# 2 -0.002829 0.007921 -0.000761 0.000000 0.000000 0.000000
# 3 -0.006745 -0.000761 0.028365 0.000000 0.000000 0.000000
# 4 0.000000 0.000000 0.000000 0.037094 0.000000 0.000000
# 5 0.000000 0.000000 0.000000 0.000000 0.038124 0.000000
# 6 0.000000 0.000000 0.000000 0.000000 0.000000 0.060336
#
#
# Mechanical properties :
#
#
# Convention : Reuss Voigt Hill
#
# Bulk Modulus (GPa) = 30.98213 39.94235 35.46224
# Shear Modulus (GPa) = 22.73464 26.83662 24.78563
#
# Velocity S-wave (km/s) = 3.37347 3.66519 3.52235
# Velocity P-wave (km/s) = 5.53918 6.15674 5.85611
#
# Compressibility (1/GPa) = 0.03227667
#
# Stress axis : x y z
#
# Youngs Moduli (GPa) = 60.02051 126.24894 35.25510
#
# Poissons Ratio (x) = 0.35716 0.23780
# Poissons Ratio (y) = 0.16980 0.02683
# Poissons Ratio (z) = 0.40484 0.09606
#
# Static dielectric constant tensor:
#      x y z
#    x 1.686960 0.000000 0.000000 
#    y 0.000000 1.748210 0.000000 
#    z 0.000000 0.000000 1.702970 
# 
# From -- ./inp_files/12230.got.cif
#   From: 2010.05.17/outbox.cif.g08.bks.cpg/sg59_7_cif.got.tgz:12230.got - 2010.06.03 14:40:33.
