data_PCOD9452762
_publ_section_title
;
Structure prediction by ZEFSAII (Michael W. Deem and Ramdas Pophale) SiO2 
 PCOD9452762
Probable space group: P M M N
;
_chemical_formula_sum "Si O2"
_cell_formula_units_Z 64
_cell_length_a 23.634352
_cell_length_b 8.714024
_cell_length_c 17.089411
_cell_angle_alpha 90.000000
_cell_angle_beta 90.000000
_cell_angle_gamma 90.000000
_cell_volume 3519.569503
_symmetry_space_group_name_H-M "P M M N"
_symmetry_group_IT_number 59
_space_group.IT_coordinate_system_code '2'
_symmetry_cell_setting 'orthorhombic'
loop_
_space_group_symop_operation_xyz
x,y,z
1/2-x,1/2-y,z
1/2+x,-y,-z
-x,1/2+y,-z
-x,-y,-z
1/2+x,1/2+y,-z
1/2-x,y,z
x,1/2-y,z
loop_
_atom_site_type_symbol
_atom_site_label
_atom_site_fract_x
_atom_site_fract_y
_atom_site_fract_z
Si Si1 0.919545 0.064288 0.538784
Si Si2 0.017098 0.934468 0.083848
Si Si3 0.183207 0.565633 0.888638
Si Si4 0.314097 0.933161 0.367935
Si Si5 0.580359 0.564135 0.208842
Si Si6 0.136822 0.066954 0.052117
Si Si7 0.183898 0.419428 0.211745
Si Si8 0.965854 0.565038 0.378744
O O1 0.919702 0.250000 0.534016
O O2 0.859512 0.008547 0.570451
O O3 0.932535 0.997979 0.453686
O O4 0.969236 0.021041 0.600401
O O5 0.020175 0.750000 0.082466
O O6 0.969934 0.978048 0.147840
O O7 0.079202 0.004841 0.090978
O O8 0.000000 0.000000 0.000000
O O9 0.250000 0.518033 0.881953
O O10 0.181950 0.750000 0.886848
O O11 0.139965 0.502381 0.822474
O O12 0.156598 0.508811 0.971285
O O13 0.250000 0.989761 0.381062
O O14 0.312195 0.750000 0.373606
O O15 0.336665 0.973258 0.281146
O O16 0.584753 0.750000 0.207956
O O17 0.560024 0.514552 0.295539
O O18 0.132472 0.250000 0.038174
O O19 0.179684 0.032251 0.122148
O O20 0.250000 0.406298 0.227713
O O21 0.157273 0.250000 0.217957
O O22 0.036166 0.250000 0.621508
#
# Coordination Sequence:
#
# PCOD9452762 Si02
#       8
#     8   8   8   8   8   8   8   8
#     4   9  18  34  56  81 110 141 173 218 272 324
#     4  11  22  36  56  82 112 146 182 225 273 323
#     4  11  24  40  59  82 108 143 189 239 284 328
#     4   9  18  32  52  78 108 143 179 216 268 331
#     4  10  22  39  59  82 111 148 185 225 279 332
#     4  11  22  36  55  80 110 149 188 226 275 327
#     4   9  19  34  50  73 107 144 183 223 262 312
#     4   9  19  36  57  81 107 139 180 223 268 327
#
# _framework density 18.184042999999999
#
# number of rings (size 3 to 8) (size 9 to 14) (size 15 to 20)
#    0.000    2.125    1.250    1.500    1.750    4.000 
#    0.000    1.875    0.000    2.250    0.000    0.000 
#    0.000    0.000    0.000    0.000    0.000    0.000 
#
# Total GULP energy -356465.042485 kJ/mol
# GULP energy per Si atom -5569.766289 kJ/mol
# Density = 1.814266 g / cm^3
# Si number density = 18.184043 Si / 1000 Ang^3
#
#
#
# Elastic Constant Matrix: (Units=GPa)
#
#
# Indices 1 2 3 4 5 6 
#
# 1 121.5089 35.4639 80.4732 0.0000 0.0000 0.0000
# 2 35.4639 19.7209 29.3857 0.0000 0.0000 0.0000
# 3 80.4732 29.3857 130.3082 0.0000 0.0000 0.0000
# 4 0.0000 0.0000 0.0000 26.7177 0.0000 0.0000
# 5 0.0000 0.0000 0.0000 0.0000 29.6294 0.0000
# 6 0.0000 0.0000 0.0000 0.0000 0.0000 24.1480
#
#
#
# Elastic Compliance Matrix: (Units=1/GPa)
#
#
# Indices 1 2 3 4 5 6 
#
# 1 0.020445 -0.027038 -0.006529 0.000000 0.000000 0.000000
# 2 -0.027038 0.112127 -0.008588 0.000000 0.000000 0.000000
# 3 -0.006529 -0.008588 0.013643 0.000000 0.000000 0.000000
# 4 0.000000 0.000000 0.000000 0.037428 0.000000 0.000000
# 5 0.000000 0.000000 0.000000 0.000000 0.033750 0.000000
# 6 0.000000 0.000000 0.000000 0.000000 0.000000 0.041411
#
#
# Mechanical properties :
#
#
# Convention : Reuss Voigt Hill
#
# Bulk Modulus (GPa) = 16.15375 62.46485 39.30930
# Shear Modulus (GPa) = 13.74573 24.51337 19.12955
#
# Velocity S-wave (km/s) = 2.75239 3.67559 3.24697
# Velocity P-wave (km/s) = 4.35931 7.24150 5.97674
#
# Compressibility (1/GPa) = 0.06190514
#
# Stress axis : x y z
#
# Youngs Moduli (GPa) = 48.91138 8.91846 73.29900
#
# Poissons Ratio (x) = 0.24114 0.47856
# Poissons Ratio (y) = 1.32246 0.62950
# Poissons Ratio (z) = 0.31933 0.07659
#
# Static dielectric constant tensor:
#      x y z
#    x 1.553820 0.000000 0.000000 
#    y 0.000000 1.649580 0.000000 
#    z 0.000000 0.000000 1.634820 
# 
# From -- ./inp_files/24708.got.cif
#   From: 2010.05.17/outbox.cif.g08.bks.cpg/sg59_13_cif.got.tgz:24708.got - 2010.06.03 14:40:33.
