data_PCOD9452785
_publ_section_title
;
Structure prediction by ZEFSAII (Michael W. Deem and Ramdas Pophale) SiO2 
 PCOD9452785
Probable space group: P M M N
;
_chemical_formula_sum "Si O2"
_cell_formula_units_Z 48
_cell_length_a 13.236967
_cell_length_b 27.351482
_cell_length_c 5.198424
_cell_angle_alpha 90.000000
_cell_angle_beta 90.000000
_cell_angle_gamma 90.000000
_cell_volume 1882.092864
_symmetry_space_group_name_H-M "P M M N"
_symmetry_group_IT_number 59
_space_group.IT_coordinate_system_code '2'
_symmetry_cell_setting 'orthorhombic'
loop_
_space_group_symop_operation_xyz
x,y,z
1/2-x,1/2-y,z
1/2+x,-y,-z
-x,1/2+y,-z
-x,-y,-z
1/2+x,1/2+y,-z
1/2-x,y,z
x,1/2-y,z
loop_
_atom_site_type_symbol
_atom_site_label
_atom_site_fract_x
_atom_site_fract_y
_atom_site_fract_z
Si Si1 0.870863 0.504735 0.797559
Si Si2 0.976391 0.128843 0.942013
Si Si3 0.070146 0.195818 0.296559
Si Si4 0.361143 0.803578 0.398903
Si Si5 0.128815 0.945572 0.706963
Si Si6 0.865093 0.903097 0.450708
O O1 0.750000 0.504332 0.814441
O O2 0.901314 0.486771 0.081039
O O3 0.892410 0.557276 0.670159
O O4 0.896406 0.465380 0.575157
O O5 0.883309 0.150542 0.781959
O O6 0.927523 0.102050 0.186358
O O7 0.053860 0.096579 0.777187
O O8 0.045472 0.175705 0.014051
O O9 0.114634 0.250000 0.306122
O O10 0.129200 0.151547 0.431419
O O11 0.957973 0.197999 0.418628
O O12 0.250000 0.808506 0.520963
O O13 0.361019 0.750000 0.263628
O O14 0.250000 0.938354 0.715796
O O15 0.750000 0.913744 0.363650
#
# Coordination Sequence:
#
# PCOD9452785 Si02
#       6
#     8   8   8   8   8   8
#     4   9  21  41  64  94 135 177 218 269 324 392
#     4  11  23  37  62  94 126 168 211 269 323 397
#     4  10  23  42  62  92 126 162 212 273 331 389
#     4   9  19  37  60  87 124 165 204 252 316 392
#     4  10  22  39  64  99 140 176 214 263 324 400
#     4  10  24  44  65  87 120 168 220 275 334 387
#
# _framework density 25.503523999999999
#
# number of rings (size 3 to 8) (size 9 to 14) (size 15 to 20)
#    0.000    2.167    0.000    1.000    7.000    4.333 
#    0.000    1.667    0.000    0.000    0.000    0.000 
#    0.000    0.000    0.000    0.000    0.000    0.000 
#
# Total GULP energy -268548.367730 kJ/mol
# GULP energy per Si atom -5594.757661 kJ/mol
# Density = 2.544548 g / cm^3
# Si number density = 25.503524 Si / 1000 Ang^3
#
#
#
# Elastic Constant Matrix: (Units=GPa)
#
#
# Indices 1 2 3 4 5 6 
#
# 1 105.9212 13.0452 -2.8364 0.0000 0.0000 0.0000
# 2 13.0452 159.2321 19.0685 0.0000 0.0000 0.0000
# 3 -2.8364 19.0685 64.2533 0.0000 0.0000 0.0000
# 4 0.0000 0.0000 0.0000 43.5495 0.0000 0.0000
# 5 0.0000 0.0000 0.0000 0.0000 17.3637 0.0000
# 6 0.0000 0.0000 0.0000 0.0000 0.0000 31.5418
#
#
#
# Elastic Compliance Matrix: (Units=1/GPa)
#
#
# Indices 1 2 3 4 5 6 
#
# 1 0.009566 -0.000865 0.000679 0.000000 0.000000 0.000000
# 2 -0.000865 0.006590 -0.001994 0.000000 0.000000 0.000000
# 3 0.000679 -0.001994 0.016185 0.000000 0.000000 0.000000
# 4 0.000000 0.000000 0.000000 0.022962 0.000000 0.000000
# 5 0.000000 0.000000 0.000000 0.000000 0.057591 0.000000
# 6 0.000000 0.000000 0.000000 0.000000 0.000000 0.031704
#
#
# Mechanical properties :
#
#
# Convention : Reuss Voigt Hill
#
# Bulk Modulus (GPa) = 35.73871 43.10679 39.42275
# Shear Modulus (GPa) = 31.58860 38.49961 35.04410
#
# Velocity S-wave (km/s) = 3.52319 3.88955 3.71089
# Velocity P-wave (km/s) = 5.53120 6.09183 5.81827
#
# Compressibility (1/GPa) = 0.02798086
#
# Stress axis : x y z
#
# Youngs Moduli (GPa) = 104.54023 151.75030 61.78528
#
# Poissons Ratio (x) = 0.13126 -0.04195
# Poissons Ratio (y) = 0.09043 0.12319
# Poissons Ratio (z) = -0.07098 0.30257
#
# Static dielectric constant tensor:
#      x y z
#    x 1.996220 0.000000 0.000000 
#    y 0.000000 2.075040 0.000000 
#    z 0.000000 0.000000 2.023410 
# 
# From -- ./inp_files/2151.got.cif
#   From: 2010.05.17/outbox.cif.g08.bks.cpg/sg59_2_cif.got.tgz:2151.got - 2010.06.03 14:40:33.
