data_PCOD9452288
_publ_section_title
;
Structure prediction by ZEFSAII (Michael W. Deem and Ramdas Pophale) SiO2 
 PCOD9452288
Probable space group: P M M N
;
_chemical_formula_sum "Si O2"
_cell_formula_units_Z 48
_cell_length_a 9.162169
_cell_length_b 28.953984
_cell_length_c 10.154221
_cell_angle_alpha 90.000000
_cell_angle_beta 90.000000
_cell_angle_gamma 90.000000
_cell_volume 2693.724893
_symmetry_space_group_name_H-M "P M M N"
_symmetry_group_IT_number 59
_space_group.IT_coordinate_system_code '2'
_symmetry_cell_setting 'orthorhombic'
loop_
_space_group_symop_operation_xyz
x,y,z
1/2-x,1/2-y,z
1/2+x,-y,-z
-x,1/2+y,-z
-x,-y,-z
1/2+x,1/2+y,-z
1/2-x,y,z
x,1/2-y,z
loop_
_atom_site_type_symbol
_atom_site_label
_atom_site_fract_x
_atom_site_fract_y
_atom_site_fract_z
Si Si1 0.425839 0.881592 0.707208
Si Si2 0.425088 0.633000 0.013648
Si Si3 0.419034 0.305364 0.778663
Si Si4 0.074952 0.803712 0.493746
Si Si5 0.923703 0.031795 0.892887
Si Si6 0.424956 0.477726 0.373329
O O1 0.250000 0.889226 0.701063
O O2 0.461747 0.838729 0.611460
O O3 0.507246 0.927795 0.660590
O O4 0.462667 0.870294 0.859099
O O5 0.250000 0.638889 0.022795
O O6 0.503932 0.672524 0.095488
O O7 0.466284 0.584604 0.082587
O O8 0.250000 0.319203 0.772948
O O9 0.427041 0.250000 0.787342
O O10 0.499332 0.318402 0.642528
O O11 0.250000 0.805191 0.475784
O O12 0.035254 0.750000 0.521791
O O13 0.750000 0.029190 0.913459
O O14 0.955357 0.011671 0.749534
O O15 0.000000 0.000000 0.000000
O O16 0.500000 0.500000 0.500000
O O17 0.250000 0.474171 0.389786
#
# Coordination Sequence:
#
# PCOD9452288 Si02
#       6
#     8   8   8   8   8   8
#     4  10  21  38  60  86 115 146 188 237 283 337
#     4  10  21  37  59  86 114 148 188 233 284 337
#     4  10  22  39  58  84 116 149 188 232 280 336
#     4   9  19  37  60  84 111 145 185 231 282 335
#     4  10  21  38  59  83 113 150 189 231 279 333
#     4  11  24  39  57  84 117 153 192 235 282 337
#
# _framework density 17.819191
#
# number of rings (size 3 to 8) (size 9 to 14) (size 15 to 20)
#    0.000    2.000    1.667    1.000    2.333    4.333 
#    0.000    1.667    0.000    2.000    0.000    0.000 
#    0.000    0.000    0.000    0.000    0.000    0.000 
#
# Total GULP energy -267977.078472 kJ/mol
# GULP energy per Si atom -5582.855802 kJ/mol
# Density = 1.777863 g / cm^3
# Si number density = 17.819191 Si / 1000 Ang^3
#
#
#
# Elastic Constant Matrix: (Units=GPa)
#
#
# Indices 1 2 3 4 5 6 
#
# 1 43.4785 46.1155 73.9344 0.0000 0.0000 0.0000
# 2 46.1155 74.8309 81.7058 0.0000 0.0000 0.0000
# 3 73.9344 81.7058 170.1052 0.0000 0.0000 0.0000
# 4 0.0000 0.0000 0.0000 40.3232 0.0000 0.0000
# 5 0.0000 0.0000 0.0000 0.0000 23.9658 0.0000
# 6 0.0000 0.0000 0.0000 0.0000 0.0000 31.3805
#
#
#
# Elastic Compliance Matrix: (Units=1/GPa)
#
#
# Indices 1 2 3 4 5 6 
#
# 1 0.122184 -0.036405 -0.035619 0.000000 0.000000 0.000000
# 2 -0.036405 0.038949 -0.002885 0.000000 0.000000 0.000000
# 3 -0.035619 -0.002885 0.022746 0.000000 0.000000 0.000000
# 4 0.000000 0.000000 0.000000 0.024800 0.000000 0.000000
# 5 0.000000 0.000000 0.000000 0.000000 0.041726 0.000000
# 6 0.000000 0.000000 0.000000 0.000000 0.000000 0.031867
#
#
# Mechanical properties :
#
#
# Convention : Reuss Voigt Hill
#
# Bulk Modulus (GPa) = 29.36085 76.88067 53.12076
# Shear Modulus (GPa) = 11.27541 24.91115 18.09328
#
# Velocity S-wave (km/s) = 2.51822 3.74303 3.18996
# Velocity P-wave (km/s) = 4.99681 7.86886 6.59117
#
# Compressibility (1/GPa) = 0.03405896
#
# Stress axis : x y z
#
# Youngs Moduli (GPa) = 8.18441 25.67489 43.96401
#
# Poissons Ratio (x) = 0.93471 1.56597
# Poissons Ratio (y) = 0.29796 0.12682
# Poissons Ratio (z) = 0.29152 0.07406
#
# Static dielectric constant tensor:
#      x y z
#    x 1.595310 0.000000 0.000000 
#    y 0.000000 1.586210 0.000000 
#    z 0.000000 0.000000 1.552070 
# 
# From -- ./inp_files/6202.got.cif
#   From: 2010.05.17/outbox.cif.g08.bks.cpg/sg59_4_cif.got.tgz:6202.got - 2010.06.03 14:40:33.
