data_PCOD9452082
_publ_section_title
;
Structure prediction by ZEFSAII (Michael W. Deem and Ramdas Pophale) SiO2 
 PCOD9452082
Probable space group: P M M N
;
_chemical_formula_sum "Si O2"
_cell_formula_units_Z 40
_cell_length_a 8.368305
_cell_length_b 20.555623
_cell_length_c 13.306715
_cell_angle_alpha 90.000000
_cell_angle_beta 90.000000
_cell_angle_gamma 90.000000
_cell_volume 2288.964198
_symmetry_space_group_name_H-M "P M M N"
_symmetry_group_IT_number 59
_space_group.IT_coordinate_system_code '2'
_symmetry_cell_setting 'orthorhombic'
loop_
_space_group_symop_operation_xyz
x,y,z
1/2-x,1/2-y,z
1/2+x,-y,-z
-x,1/2+y,-z
-x,-y,-z
1/2+x,1/2+y,-z
1/2-x,y,z
x,1/2-y,z
loop_
_atom_site_type_symbol
_atom_site_label
_atom_site_fract_x
_atom_site_fract_y
_atom_site_fract_z
Si Si1 0.441822 0.430661 0.042207
Si Si2 0.056651 0.676209 0.114593
Si Si3 0.441138 0.073831 0.481534
Si Si4 0.555376 0.549923 0.733999
Si Si5 0.557726 0.400795 0.690779
O O1 0.250000 0.431018 0.041730
O O2 0.497985 0.424519 0.157975
O O3 0.500000 0.500000 0.000000
O O4 0.501823 0.373136 0.971332
O O5 0.250000 0.676080 0.115520
O O6 0.001517 0.750000 0.098885
O O7 0.002928 0.648169 0.222737
O O8 0.250000 0.074679 0.483777
O O9 0.494317 0.088148 0.367056
O O10 0.502910 0.113339 0.577350
O O11 0.500000 0.000000 0.500000
O O12 0.750000 0.549814 0.734818
O O13 0.505521 0.474224 0.721132
O O14 0.750000 0.401441 0.690458
#
# Coordination Sequence:
#
# PCOD9452082 Si02
#       5
#     8   8   8   8   8
#     4  11  20  33  53  77 105 137 176 218 260 313
#     4  10  21  37  54  73 103 141 176 215 268 319
#     4   9  16  27  44  69  98 128 160 198 246 300
#     4   8  15  28  46  69 100 130 159 203 256 303
#     4   9  16  30  48  69  99 131 164 205 255 309
#
# _framework density 17.475154
#
# number of rings (size 3 to 8) (size 9 to 14) (size 15 to 20)
#    0.000    2.600    2.000    2.400    0.000    1.200 
#    0.000    3.000    0.000    1.200    0.000    5.600 
#    0.000    0.000    0.000    0.000    0.000    0.000 
#
# Total GULP energy -222808.936004 kJ/mol
# GULP energy per Si atom -5570.223400 kJ/mol
# Density = 1.743538 g / cm^3
# Si number density = 17.475154 Si / 1000 Ang^3
#
#
#
# Elastic Constant Matrix: (Units=GPa)
#
#
# Indices 1 2 3 4 5 6 
#
# 1 14.1445 15.8461 20.7722 0.0000 0.0000 0.0000
# 2 15.8461 93.7624 78.7378 0.0000 0.0000 0.0000
# 3 20.7722 78.7378 210.8970 0.0000 0.0000 0.0000
# 4 0.0000 0.0000 0.0000 18.4924 0.0000 0.0000
# 5 0.0000 0.0000 0.0000 0.0000 28.8718 0.0000
# 6 0.0000 0.0000 0.0000 0.0000 0.0000 15.7061
#
#
#
# Elastic Compliance Matrix: (Units=1/GPa)
#
#
# Indices 1 2 3 4 5 6 
#
# 1 0.090240 -0.011343 -0.004653 0.000000 0.000000 0.000000
# 2 -0.011343 0.016962 -0.005215 0.000000 0.000000 0.000000
# 3 -0.004653 -0.005215 0.007147 0.000000 0.000000 0.000000
# 4 0.000000 0.000000 0.000000 0.054076 0.000000 0.000000
# 5 0.000000 0.000000 0.000000 0.000000 0.034636 0.000000
# 6 0.000000 0.000000 0.000000 0.000000 0.000000 0.063670
#
#
# Mechanical properties :
#
#
# Convention : Reuss Voigt Hill
#
# Bulk Modulus (GPa) = 13.90330 61.05735 37.48032
# Shear Modulus (GPa) = 15.00915 26.17724 20.59320
#
# Velocity S-wave (km/s) = 2.93385 3.87456 3.43655
# Velocity P-wave (km/s) = 4.41021 7.41833 6.10253
#
# Compressibility (1/GPa) = 0.07192539
#
# Stress axis : x y z
#
# Youngs Moduli (GPa) = 11.08156 58.95517 139.91599
#
# Poissons Ratio (x) = 0.66874 0.65105
# Poissons Ratio (y) = 0.12570 0.72973
# Poissons Ratio (z) = 0.05156 0.30748
#
# Static dielectric constant tensor:
#      x y z
#    x 1.607150 0.000000 0.000000 
#    y 0.000000 1.563000 0.000000 
#    z 0.000000 0.000000 1.648560 
# 
# From -- ./inp_files/14069.got.cif
#   From: 2010.05.17/outbox.cif.g08.bks.cpg/sg59_8_cif.got.tgz:14069.got - 2010.06.03 14:40:33.
