data_PCOD9452071
_publ_section_title
;
Structure prediction by ZEFSAII (Michael W. Deem and Ramdas Pophale) SiO2 
 PCOD9452071
Probable space group: P M M N
;
_chemical_formula_sum "Si O2"
_cell_formula_units_Z 40
_cell_length_a 9.313971
_cell_length_b 15.951567
_cell_length_c 14.772192
_cell_angle_alpha 90.000000
_cell_angle_beta 90.000000
_cell_angle_gamma 90.000000
_cell_volume 2194.740498
_symmetry_space_group_name_H-M "P M M N"
_symmetry_group_IT_number 59
_space_group.IT_coordinate_system_code '2'
_symmetry_cell_setting 'orthorhombic'
loop_
_space_group_symop_operation_xyz
x,y,z
1/2-x,1/2-y,z
1/2+x,-y,-z
-x,1/2+y,-z
-x,-y,-z
1/2+x,1/2+y,-z
1/2-x,y,z
x,1/2-y,z
loop_
_atom_site_type_symbol
_atom_site_label
_atom_site_fract_x
_atom_site_fract_y
_atom_site_fract_z
Si Si1 0.584383 0.847159 0.226101
Si Si2 0.077289 0.750000 0.726612
Si Si3 0.076945 0.250000 0.080121
Si Si4 0.578645 0.093915 0.401890
Si Si5 0.923050 0.583196 0.034155
Si Si6 0.579620 0.082564 0.608468
O O1 0.750000 0.868436 0.248393
O O2 0.581360 0.750000 0.198490
O O3 0.539183 0.900275 0.138984
O O4 0.487765 0.862004 0.312987
O O5 0.250000 0.750000 0.740101
O O6 0.041097 0.831893 0.666783
O O7 0.998196 0.750000 0.822422
O O8 0.250000 0.250000 0.090422
O O9 0.038432 0.165820 0.024296
O O10 0.750000 0.078001 0.394154
O O11 0.550207 0.116423 0.507108
O O12 0.492577 0.008927 0.383684
O O13 0.750000 0.574346 0.029249
O O14 0.000000 0.500000 0.000000
O O15 0.750000 0.075906 0.618739
#
# Coordination Sequence:
#
# PCOD9452071 Si02
#       6
#     8   4   4   8   8   8
#     4  10  21  39  61  84 114 153 190 230 286 349
#     4  10  22  38  59  82 110 152 193 230 279 338
#     4  10  22  42  61  84 118 150 189 242 291 340
#     4   9  20  39  58  80 115 154 191 230 280 340
#     4  10  22  41  63  85 115 153 191 236 291 344
#     4  10  21  36  59  86 116 149 187 237 285 331
#
# _framework density 18.225389
#
# number of rings (size 3 to 8) (size 9 to 14) (size 15 to 20)
#    0.000    2.200    1.000    0.600    4.200    3.600 
#    0.000    0.000    0.000    0.000    0.000    0.000 
#    0.000    0.000    0.000    0.000    0.000    0.000 
#
# Total GULP energy -223289.181743 kJ/mol
# GULP energy per Si atom -5582.229544 kJ/mol
# Density = 1.818391 g / cm^3
# Si number density = 18.225389 Si / 1000 Ang^3
#
#
#
# Elastic Constant Matrix: (Units=GPa)
#
#
# Indices 1 2 3 4 5 6 
#
# 1 25.4260 22.0122 35.2918 0.0000 0.0000 0.0000
# 2 22.0122 72.1256 37.5579 0.0000 0.0000 0.0000
# 3 35.2918 37.5579 90.1883 0.0000 0.0000 0.0000
# 4 0.0000 0.0000 0.0000 34.5428 0.0000 0.0000
# 5 0.0000 0.0000 0.0000 0.0000 34.4051 0.0000
# 6 0.0000 0.0000 0.0000 0.0000 0.0000 31.6911
#
#
#
# Elastic Compliance Matrix: (Units=1/GPa)
#
#
# Indices 1 2 3 4 5 6 
#
# 1 0.093734 -0.012139 -0.031624 0.000000 0.000000 0.000000
# 2 -0.012139 0.019276 -0.003277 0.000000 0.000000 0.000000
# 3 -0.031624 -0.003277 0.024827 0.000000 0.000000 0.000000
# 4 0.000000 0.000000 0.000000 0.028950 0.000000 0.000000
# 5 0.000000 0.000000 0.000000 0.000000 0.029065 0.000000
# 6 0.000000 0.000000 0.000000 0.000000 0.000000 0.031555
#
#
# Mechanical properties :
#
#
# Convention : Reuss Voigt Hill
#
# Bulk Modulus (GPa) = 22.85364 41.94041 32.39702
# Shear Modulus (GPa) = 14.87772 26.31966 20.59869
#
# Velocity S-wave (km/s) = 2.86023 3.80428 3.36552
# Velocity P-wave (km/s) = 4.84505 6.50836 5.73730
#
# Compressibility (1/GPa) = 0.04375672
#
# Stress axis : x y z
#
# Youngs Moduli (GPa) = 10.66851 51.87804 40.27809
#
# Poissons Ratio (x) = 0.62977 1.27375
# Poissons Ratio (y) = 0.12951 0.13199
# Poissons Ratio (z) = 0.33738 0.17000
#
# Static dielectric constant tensor:
#      x y z
#    x 1.604800 0.000000 0.000000 
#    y 0.000000 1.615620 0.000000 
#    z 0.000000 0.000000 1.612680 
# 
# From -- ./inp_files/19951.got.cif
#   From: 2010.05.17/outbox.cif.g08.bks.cpg/sg59_10_cif.got.tgz:19951.got - 2010.06.03 14:40:33.
