data_PCOD9452105
_publ_section_title
;
Structure prediction by ZEFSAII (Michael W. Deem and Ramdas Pophale) SiO2 
 PCOD9452105
Probable space group: P M M N
;
_chemical_formula_sum "Si O2"
_cell_formula_units_Z 64
_cell_length_a 13.881218
_cell_length_b 8.911850
_cell_length_c 24.784982
_cell_angle_alpha 90.000000
_cell_angle_beta 90.000000
_cell_angle_gamma 90.000000
_cell_volume 3066.084013
_symmetry_space_group_name_H-M "P M M N"
_symmetry_group_IT_number 59
_space_group.IT_coordinate_system_code '2'
_symmetry_cell_setting 'orthorhombic'
loop_
_space_group_symop_operation_xyz
x,y,z
1/2-x,1/2-y,z
1/2+x,-y,-z
-x,1/2+y,-z
-x,-y,-z
1/2+x,1/2+y,-z
1/2-x,y,z
x,1/2-y,z
loop_
_atom_site_type_symbol
_atom_site_label
_atom_site_fract_x
_atom_site_fract_y
_atom_site_fract_z
Si Si1 0.866214 0.578680 0.645768
Si Si2 0.634255 0.922060 0.973029
Si Si3 0.548238 0.930856 0.859135
Si Si4 0.637970 0.068210 0.298994
Si Si5 0.956979 0.072277 0.749357
Si Si6 0.358894 0.930073 0.915059
Si Si7 0.366962 0.926129 0.581499
Si Si8 0.632231 0.074101 0.535352
O O1 0.750000 0.578062 0.644214
O O2 0.899425 0.750000 0.652588
O O3 0.899610 0.483545 0.696822
O O4 0.900681 0.515015 0.588064
O O5 0.750000 0.921403 0.972353
O O6 0.600027 0.750000 0.979007
O O7 0.600384 0.976647 0.914606
O O8 0.606877 0.013935 0.026211
O O9 0.556378 0.750000 0.853894
O O10 0.436782 0.972539 0.870419
O O11 0.584764 0.006747 0.804902
O O12 0.750000 0.029196 0.290238
O O13 0.632052 0.250000 0.297516
O O14 0.606506 0.015540 0.359385
O O15 0.563703 0.996652 0.257992
O O16 0.959772 0.250000 0.751009
O O17 0.250000 0.985341 0.905233
O O18 0.356316 0.750000 0.916490
O O19 0.250000 0.931471 0.582164
O O20 0.392750 0.750000 0.579962
O O21 0.397210 0.990382 0.523432
O O22 0.750000 0.070724 0.535828
O O23 0.605435 0.250000 0.539529
#
# Coordination Sequence:
#
# PCOD9452105 Si02
#       8
#     8   8   8   8   8   8   8   8
#     4  10  21  38  59  80 105 141 184 229 278 334
#     4   9  18  33  55  83 112 140 171 212 264 318
#     4  10  21  37  55  76 106 144 185 225 265 314
#     4   9  18  36  61  83 107 144 186 227 275 332
#     4  12  26  40  55  79 111 146 189 237 281 327
#     4   9  18  33  55  83 112 141 174 213 259 313
#     4   7  11  23  48  80 107 134 171 215 268 330
#     4   8  13  25  49  80 110 136 167 214 273 333
#
# _framework density 20.873531
#
# number of rings (size 3 to 8) (size 9 to 14) (size 15 to 20)
#    0.000    2.750    0.000    3.375    0.000    3.000 
#    0.000    3.750    0.000    2.250    0.000    0.000 
#    0.000    0.000    0.000    0.000    0.000    0.000 
#
# Total GULP energy -357213.166371 kJ/mol
# GULP energy per Si atom -5581.455725 kJ/mol
# Density = 2.082602 g / cm^3
# Si number density = 20.873531 Si / 1000 Ang^3
#
#
#
# Elastic Constant Matrix: (Units=GPa)
#
#
# Indices 1 2 3 4 5 6 
#
# 1 32.7468 4.2080 3.5121 0.0000 0.0000 0.0000
# 2 4.2080 36.3668 24.1477 0.0000 0.0000 0.0000
# 3 3.5121 24.1477 117.6263 0.0000 0.0000 0.0000
# 4 0.0000 0.0000 0.0000 33.0846 0.0000 0.0000
# 5 0.0000 0.0000 0.0000 0.0000 23.7060 0.0000
# 6 0.0000 0.0000 0.0000 0.0000 0.0000 16.7953
#
#
#
# Elastic Compliance Matrix: (Units=1/GPa)
#
#
# Indices 1 2 3 4 5 6 
#
# 1 0.031003 -0.003442 -0.000219 0.000000 0.000000 0.000000
# 2 -0.003442 0.032220 -0.006512 0.000000 0.000000 0.000000
# 3 -0.000219 -0.006512 0.009845 0.000000 0.000000 0.000000
# 4 0.000000 0.000000 0.000000 0.030226 0.000000 0.000000
# 5 0.000000 0.000000 0.000000 0.000000 0.042183 0.000000
# 6 0.000000 0.000000 0.000000 0.000000 0.000000 0.059541
#
#
# Mechanical properties :
#
#
# Convention : Reuss Voigt Hill
#
# Bulk Modulus (GPa) = 18.96731 27.83061 23.39896
# Shear Modulus (GPa) = 20.58150 25.04198 22.81174
#
# Velocity S-wave (km/s) = 3.14349 3.46743 3.30942
# Velocity P-wave (km/s) = 4.72036 5.42150 5.08303
#
# Compressibility (1/GPa) = 0.05272230
#
# Stress axis : x y z
#
# Youngs Moduli (GPa) = 32.25480 31.03692 101.57604
#
# Poissons Ratio (x) = 0.10683 0.02226
# Poissons Ratio (y) = 0.11102 0.66143
# Poissons Ratio (z) = 0.00707 0.20210
#
# Static dielectric constant tensor:
#      x y z
#    x 1.808680 0.000000 0.000000 
#    y 0.000000 1.706800 0.000000 
#    z 0.000000 0.000000 1.740390 
# 
# From -- ./inp_files/32151.got.cif
#   From: 2010.05.17/outbox.cif.g08.bks.cpg/sg59_17_cif.got.tgz:32151.got - 2010.06.03 14:40:33.
