data_PCOD9452423
_publ_section_title
;
Structure prediction by ZEFSAII (Michael W. Deem and Ramdas Pophale) SiO2 
 PCOD9452423
Probable space group: P M M N
;
_chemical_formula_sum "Si O2"
_cell_formula_units_Z 64
_cell_length_a 8.810374
_cell_length_b 15.616686
_cell_length_c 24.766287
_cell_angle_alpha 90.000000
_cell_angle_beta 90.000000
_cell_angle_gamma 90.000000
_cell_volume 3407.564806
_symmetry_space_group_name_H-M "P M M N"
_symmetry_group_IT_number 59
_space_group.IT_coordinate_system_code '2'
_symmetry_cell_setting 'orthorhombic'
loop_
_space_group_symop_operation_xyz
x,y,z
1/2-x,1/2-y,z
1/2+x,-y,-z
-x,1/2+y,-z
-x,-y,-z
1/2+x,1/2+y,-z
1/2-x,y,z
x,1/2-y,z
loop_
_atom_site_type_symbol
_atom_site_label
_atom_site_fract_x
_atom_site_fract_y
_atom_site_fract_z
Si Si1 0.431876 0.905264 0.997537
Si Si2 0.432781 0.150844 0.382853
Si Si3 0.932152 0.491204 0.690034
Si Si4 0.566064 0.506219 0.190881
Si Si5 0.069479 0.154222 0.892071
Si Si6 0.931451 0.649171 0.389559
Si Si7 0.565296 0.155691 0.120912
Si Si8 0.076787 0.854011 0.503048
O O1 0.250000 0.909277 0.997609
O O2 0.480362 0.863401 0.940820
O O3 0.488397 0.857296 0.050705
O O4 0.500000 0.000000 0.000000
O O5 0.250000 0.150952 0.386522
O O6 0.480296 0.250000 0.372117
O O7 0.499087 0.122230 0.440637
O O8 0.478108 0.081388 0.338083
O O9 0.750000 0.487816 0.690800
O O10 0.996574 0.486230 0.750193
O O11 0.994547 0.412966 0.654240
O O12 0.750000 0.506788 0.194923
O O13 0.520976 0.583697 0.151239
O O14 0.516827 0.419101 0.160993
O O15 0.250000 0.142190 0.901243
O O16 0.044602 0.250000 0.871296
O O17 0.750000 0.643371 0.386729
O O18 0.973158 0.750000 0.381900
O O19 0.987404 0.621495 0.449117
O O20 0.750000 0.154889 0.121094
O O21 0.513781 0.250000 0.137273
O O22 0.250000 0.884788 0.500596
O O23 0.078684 0.750000 0.503126
#
# Coordination Sequence:
#
# PCOD9452423 Si02
#       8
#     8   8   8   8   8   8   8   8
#     4  11  20  34  58  87 120 152 186 228 282 338
#     4   9  19  37  58  80 112 152 188 225 277 340
#     4  11  24  39  57  83 112 146 191 241 286 329
#     4  10  21  39  57  77 109 149 191 234 281 335
#     4  10  21  38  59  84 114 149 189 232 282 339
#     4  10  21  38  60  84 112 149 188 226 279 344
#     4   9  18  34  57  83 111 145 185 228 276 332
#     4   9  17  31  55  87 118 145 180 230 281 329
#
# _framework density 18.781742000000001
#
# number of rings (size 3 to 8) (size 9 to 14) (size 15 to 20)
#    0.000    2.125    1.250    1.875    0.000    6.000 
#    0.000    1.250    0.000    1.500    0.000    0.000 
#    0.000    0.000    0.000    0.000    0.000    0.000 
#
# Total GULP energy -357327.798483 kJ/mol
# GULP energy per Si atom -5583.246851 kJ/mol
# Density = 1.873899 g / cm^3
# Si number density = 18.781742 Si / 1000 Ang^3
#
#
#
# Elastic Constant Matrix: (Units=GPa)
#
#
# Indices 1 2 3 4 5 6 
#
# 1 27.7427 25.3354 25.0320 0.0000 0.0000 0.0000
# 2 25.3354 74.9698 22.4921 0.0000 0.0000 0.0000
# 3 25.0320 22.4921 97.8770 0.0000 0.0000 0.0000
# 4 0.0000 0.0000 0.0000 -17.4317 0.0000 0.0000
# 5 0.0000 0.0000 0.0000 0.0000 28.0756 0.0000
# 6 0.0000 0.0000 0.0000 0.0000 0.0000 16.0295
#
#
#
# Elastic Compliance Matrix: (Units=1/GPa)
#
#
# Indices 1 2 3 4 5 6 
#
# 1 0.063105 -0.017704 -0.012071 0.000000 0.000000 0.000000
# 2 -0.017704 0.019293 0.000094 0.000000 0.000000 0.000000
# 3 -0.012071 0.000094 0.013282 0.000000 0.000000 0.000000
# 4 0.000000 0.000000 0.000000 -0.057367 0.000000 0.000000
# 5 0.000000 0.000000 0.000000 0.000000 0.035618 0.000000
# 6 0.000000 0.000000 0.000000 0.000000 0.000000 0.062385
#
#
# Mechanical properties :
#
#
# Convention : Reuss Voigt Hill
#
# Bulk Modulus (GPa) = 27.53361 38.47870 33.00615
# Shear Modulus (GPa) = 24.06332 13.85000 18.95666
#
# Velocity S-wave (km/s) = 3.58328 2.71849 3.18042
# Velocity P-wave (km/s) = 5.64016 5.51229 5.57659
#
# Compressibility (1/GPa) = 0.03631925
#
# Stress axis : x y z
#
# Youngs Moduli (GPa) = 15.84661 51.83104 75.28810
#
# Poissons Ratio (x) = 0.91764 0.90878
# Poissons Ratio (y) = 0.28055 -0.00710
# Poissons Ratio (z) = 0.19128 -0.00489
#
# Static dielectric constant tensor:
#      x y z
#    x 1.634120 0.000000 0.000000 
#    y 0.000000 1.671540 0.000000 
#    z 0.000000 0.000000 1.616470 
# 
# From -- ./inp_files/31542.got.cif
#   From: 2010.05.17/outbox.cif.g08.bks.cpg/sg59_16_cif.got.tgz:31542.got - 2010.06.03 14:40:33.
