data_PCOD9452396
_publ_section_title
;
Structure prediction by ZEFSAII (Michael W. Deem and Ramdas Pophale) SiO2 
 PCOD9452396
Probable space group: P M M N
;
_chemical_formula_sum "Si O2"
_cell_formula_units_Z 56
_cell_length_a 26.623127
_cell_length_b 16.882784
_cell_length_c 4.948596
_cell_angle_alpha 90.000000
_cell_angle_beta 90.000000
_cell_angle_gamma 90.000000
_cell_volume 2224.257828
_symmetry_space_group_name_H-M "P M M N"
_symmetry_group_IT_number 59
_space_group.IT_coordinate_system_code '2'
_symmetry_cell_setting 'orthorhombic'
loop_
_space_group_symop_operation_xyz
x,y,z
1/2-x,1/2-y,z
1/2+x,-y,-z
-x,1/2+y,-z
-x,-y,-z
1/2+x,1/2+y,-z
1/2-x,y,z
x,1/2-y,z
loop_
_atom_site_type_symbol
_atom_site_label
_atom_site_fract_x
_atom_site_fract_y
_atom_site_fract_z
Si Si1 0.641405 0.338140 0.226095
Si Si2 0.557733 0.993378 0.586232
Si Si3 0.945765 0.161513 0.853177
Si Si4 0.055420 0.164452 0.059592
Si Si5 0.306859 0.597538 0.270040
Si Si6 0.836696 0.560931 0.450403
Si Si7 0.332524 0.161975 0.019924
O O1 0.657602 0.250000 0.143057
O O2 0.658795 0.350742 0.529656
O O3 0.582634 0.342895 0.144549
O O4 0.670440 0.398181 0.029100
O O5 0.556512 0.916727 0.777600
O O6 0.606392 0.973541 0.402114
O O7 0.500000 0.000000 0.500000
O O8 0.568654 0.078768 0.716851
O O9 0.933063 0.250000 0.741930
O O10 0.005830 0.160303 0.879507
O O11 0.051165 0.250000 0.211619
O O12 0.109415 0.168167 0.919750
O O13 0.250000 0.626598 0.267830
O O14 0.309237 0.510786 0.399792
O O15 0.811961 0.595529 0.181104
O O16 0.835914 0.631199 0.673702
O O17 0.310535 0.250000 0.004532
#
# Coordination Sequence:
#
# PCOD9452396 Si02
#       7
#     8   8   8   8   8   8   8
#     4  11  25  44  68  96 129 172 221 276 333 391
#     4  11  22  34  58  92 127 176 219 268 320 386
#     4  10  21  38  58  88 133 177 219 271 328 389
#     4   9  20  35  56  88 127 171 217 261 315 379
#     4  12  26  45  69  95 129 169 217 278 339 397
#     4  11  23  40  64  94 130 164 217 267 320 398
#     4  10  21  40  65  95 130 172 213 261 317 385
#
# _framework density 25.176935
#
# number of rings (size 3 to 8) (size 9 to 14) (size 15 to 20)
#    0.000    1.429    1.429    3.429    4.000    2.857 
#    0.000    0.000    0.000    2.571    0.000    0.000 
#    0.000    0.000    0.000    0.000    0.000    0.000 
#
# Total GULP energy -312948.610911 kJ/mol
# GULP energy per Si atom -5588.368052 kJ/mol
# Density = 2.511963 g / cm^3
# Si number density = 25.176935 Si / 1000 Ang^3
#
#
#
# Elastic Constant Matrix: (Units=GPa)
#
#
# Indices 1 2 3 4 5 6 
#
# 1 102.8530 3.4837 6.5875 0.0000 0.0000 0.0000
# 2 3.4837 174.6623 29.5992 0.0000 0.0000 0.0000
# 3 6.5875 29.5992 70.5439 0.0000 0.0000 0.0000
# 4 0.0000 0.0000 0.0000 37.5770 0.0000 0.0000
# 5 0.0000 0.0000 0.0000 0.0000 6.5344 0.0000
# 6 0.0000 0.0000 0.0000 0.0000 0.0000 -0.4125
#
#
#
# Elastic Compliance Matrix: (Units=1/GPa)
#
#
# Indices 1 2 3 4 5 6 
#
# 1 0.009781 -0.000043 -0.000895 0.000000 0.000000 0.000000
# 2 -0.000043 0.006164 -0.002582 0.000000 0.000000 0.000000
# 3 -0.000895 -0.002582 0.015343 0.000000 0.000000 0.000000
# 4 0.000000 0.000000 0.000000 0.026612 0.000000 0.000000
# 5 0.000000 0.000000 0.000000 0.000000 0.153035 0.000000
# 6 0.000000 0.000000 0.000000 0.000000 0.000000 -2.424307
#
#
# Mechanical properties :
#
#
# Convention : Reuss Voigt Hill
#
# Bulk Modulus (GPa) = 41.24344 47.48887 44.36616
# Shear Modulus (GPa) = -2.27454 29.29904 13.51225
#
# Velocity S-wave (km/s) = -0.95152 3.41504 2.31917
# Velocity P-wave (km/s) = 3.89998 5.86967 4.98311
#
# Compressibility (1/GPa) = 0.02424628
#
# Stress axis : x y z
#
# Youngs Moduli (GPa) = 102.23464 162.23786 65.17800
#
# Poissons Ratio (x) = 0.00704 0.05835
# Poissons Ratio (y) = 0.00444 0.16830
# Poissons Ratio (z) = 0.09152 0.41893
#
# Static dielectric constant tensor:
#      x y z
#    x 2.030180 0.000000 0.000000 
#    y 0.000000 2.042930 0.000000 
#    z 0.000000 0.000000 2.007220 
# 
# From -- ./inp_files/2336.got.cif
#   From: 2010.05.17/outbox.cif.g08.bks.cpg/sg59_2_cif.got.tgz:2336.got - 2010.06.03 14:40:33.
