data_PCOD9452789
_publ_section_title
;
Structure prediction by ZEFSAII (Michael W. Deem and Ramdas Pophale) SiO2 
 PCOD9452789
Probable space group: P M M N
;
_chemical_formula_sum "Si O2"
_cell_formula_units_Z 56
_cell_length_a 8.600388
_cell_length_b 14.666981
_cell_length_c 23.516039
_cell_angle_alpha 90.000000
_cell_angle_beta 90.000000
_cell_angle_gamma 90.000000
_cell_volume 2966.353781
_symmetry_space_group_name_H-M "P M M N"
_symmetry_group_IT_number 59
_space_group.IT_coordinate_system_code '2'
_symmetry_cell_setting 'orthorhombic'
loop_
_space_group_symop_operation_xyz
x,y,z
1/2-x,1/2-y,z
1/2+x,-y,-z
-x,1/2+y,-z
-x,-y,-z
1/2+x,1/2+y,-z
1/2-x,y,z
x,1/2-y,z
loop_
_atom_site_type_symbol
_atom_site_label
_atom_site_fract_x
_atom_site_fract_y
_atom_site_fract_z
Si Si1 0.562241 0.143887 0.031250
Si Si2 0.062903 0.851557 0.644935
Si Si3 0.563171 0.401108 0.483672
Si Si4 0.433526 0.528448 0.305150
Si Si5 0.940134 0.355681 0.803175
Si Si6 0.071388 0.149130 0.598834
Si Si7 0.437693 0.963595 0.083549
O O1 0.750000 0.144851 0.033607
O O2 0.510702 0.250000 0.038138
O O3 0.501921 0.066007 0.074571
O O4 0.516550 0.101105 0.969792
O O5 0.250000 0.852864 0.644503
O O6 0.009783 0.750000 0.659938
O O7 0.013567 0.873196 0.579761
O O8 0.005697 0.929063 0.687326
O O9 0.500000 0.500000 0.500000
O O10 0.750000 0.397615 0.485585
O O11 0.492371 0.344623 0.535271
O O12 0.250000 0.519009 0.298769
O O13 0.492594 0.589709 0.252851
O O14 0.472282 0.581585 0.363138
O O15 0.750000 0.353626 0.802486
O O16 0.991197 0.250000 0.804266
O O17 0.986770 0.412780 0.858854
O O18 0.250000 0.116758 0.597561
O O19 0.066283 0.250000 0.624713
O O20 0.250000 0.969293 0.083291
#
# Coordination Sequence:
#
# PCOD9452789 Si02
#       7
#     8   8   8   8   8   8   8
#     4   9  17  30  50  78 112 147 180 217 266 319
#     4  10  22  40  59  77 103 140 177 215 264 323
#     4  11  21  35  57  82 107 136 171 214 268 323
#     4  11  22  36  57  81 105 135 175 225 271 315
#     4   9  18  34  56  81 107 137 177 222 268 318
#     4  11  23  37  54  78 109 142 174 212 262 320
#     4   9  17  31  53  79 107 142 183 225 266 312
#
# _framework density 18.878394
#
# number of rings (size 3 to 8) (size 9 to 14) (size 15 to 20)
#    0.000    2.000    1.429    2.571    0.000    5.143 
#    0.000    2.143    0.000    7.286    0.000    0.000 
#    0.000    0.000    0.000    0.000    0.000    0.000 
#
# Total GULP energy -312373.116678 kJ/mol
# GULP energy per Si atom -5578.091369 kJ/mol
# Density = 1.883543 g / cm^3
# Si number density = 18.878394 Si / 1000 Ang^3
#
#
#
# Elastic Constant Matrix: (Units=GPa)
#
#
# Indices 1 2 3 4 5 6 
#
# 1 9.9688 20.1701 10.9889 0.0000 0.0000 0.0000
# 2 20.1701 194.0690 76.5508 0.0000 0.0000 0.0000
# 3 10.9889 76.5508 101.5971 0.0000 0.0000 0.0000
# 4 0.0000 0.0000 0.0000 27.0347 0.0000 0.0000
# 5 0.0000 0.0000 0.0000 0.0000 18.1942 0.0000
# 6 0.0000 0.0000 0.0000 0.0000 0.0000 22.8869
#
#
#
# Elastic Compliance Matrix: (Units=1/GPa)
#
#
# Indices 1 2 3 4 5 6 
#
# 1 0.129137 -0.011258 -0.005485 0.000000 0.000000 0.000000
# 2 -0.011258 0.008313 -0.005046 0.000000 0.000000 0.000000
# 3 -0.005485 -0.005046 0.014238 0.000000 0.000000 0.000000
# 4 0.000000 0.000000 0.000000 0.036990 0.000000 0.000000
# 5 0.000000 0.000000 0.000000 0.000000 0.054962 0.000000
# 6 0.000000 0.000000 0.000000 0.000000 0.000000 0.043693
#
#
# Mechanical properties :
#
#
# Convention : Reuss Voigt Hill
#
# Bulk Modulus (GPa) = 9.24979 57.89493 33.57236
# Shear Modulus (GPa) = 13.62585 26.81819 20.22202
#
# Velocity S-wave (km/s) = 2.68949 3.77314 3.27643
# Velocity P-wave (km/s) = 3.81507 7.05096 5.66881
#
# Compressibility (1/GPa) = 0.10811054
#
# Stress axis : x y z
#
# Youngs Moduli (GPa) = 7.74369 120.28821 70.23317
#
# Poissons Ratio (x) = 1.35420 0.38523
# Poissons Ratio (y) = 0.08718 0.35441
# Poissons Ratio (z) = 0.04247 0.60700
#
# Static dielectric constant tensor:
#      x y z
#    x 1.648240 0.000000 0.000000 
#    y 0.000000 1.703790 0.000000 
#    z 0.000000 0.000000 1.647370 
# 
# From -- ./inp_files/29172.got.cif
#   From: 2010.05.17/outbox.cif.g08.bks.cpg/sg59_15_cif.got.tgz:29172.got - 2010.06.03 14:40:33.
