data_PCOD9452565
_publ_section_title
;
Structure prediction by ZEFSAII (Michael W. Deem and Ramdas Pophale) SiO2 
 PCOD9452565
Probable space group: P M M N
;
_chemical_formula_sum "Si O2"
_cell_formula_units_Z 28
_cell_length_a 13.996473
_cell_length_b 9.735786
_cell_length_c 9.288949
_cell_angle_alpha 90.000000
_cell_angle_beta 90.000000
_cell_angle_gamma 90.000000
_cell_volume 1265.774110
_symmetry_space_group_name_H-M "P M M N"
_symmetry_group_IT_number 59
_space_group.IT_coordinate_system_code '2'
_symmetry_cell_setting 'orthorhombic'
loop_
_space_group_symop_operation_xyz
x,y,z
1/2-x,1/2-y,z
1/2+x,-y,-z
-x,1/2+y,-z
-x,-y,-z
1/2+x,1/2+y,-z
1/2-x,y,z
x,1/2-y,z
loop_
_atom_site_type_symbol
_atom_site_label
_atom_site_fract_x
_atom_site_fract_y
_atom_site_fract_z
Si Si1 0.633693 0.250000 0.813556
Si Si2 0.646991 0.511109 0.427809
Si Si3 0.549081 0.539064 0.699105
Si Si4 0.498445 0.250000 0.057196
Si Si5 0.350266 0.250000 0.805216
O O1 0.750000 0.250000 0.797467
O O2 0.584729 0.384891 0.740713
O O3 0.603267 0.250000 0.983800
O O4 0.750000 0.439212 0.429150
O O5 0.628941 0.580749 0.582539
O O6 0.549992 0.432628 0.388513
O O7 0.647561 0.621297 0.300328
O O8 0.530613 0.620565 0.845319
O O9 0.432976 0.250000 0.917687
O O10 0.250000 0.250000 0.887152
#
# Coordination Sequence:
#
# PCOD9452565 Si02
#       5
#     4   8   8   4   4
#     4  12  26  44  66  98 138 176 218 276 340 398
#     4  10  21  40  67  97 131 177 228 276 329 391
#     4  11  24  44  69  97 137 177 222 278 334 395
#     4  12  25  44  66 101 134 178 223 267 333 397
#     4  10  21  38  64  95 132 170 223 281 331 391
#
# _framework density 22.120850000000001
#
# number of rings (size 3 to 8) (size 9 to 14) (size 15 to 20)
#    0.000    1.143    2.857    2.571    0.000    6.857 
#    0.000    1.429    0.000    0.000    0.000    0.000 
#    0.000    0.000    0.000    0.000    0.000    0.000 
#
# Total GULP energy -155981.355218 kJ/mol
# GULP energy per Si atom -5570.762686 kJ/mol
# Density = 2.207050 g / cm^3
# Si number density = 22.120850 Si / 1000 Ang^3
#
#
#
# Elastic Constant Matrix: (Units=GPa)
#
#
# Indices 1 2 3 4 5 6 
#
# 1 170.3296 31.5313 51.6256 0.0000 0.0000 0.0000
# 2 31.5313 77.1117 23.0439 0.0000 0.0000 0.0000
# 3 51.6256 23.0439 130.3831 0.0000 0.0000 0.0000
# 4 0.0000 0.0000 0.0000 23.3155 0.0000 0.0000
# 5 0.0000 0.0000 0.0000 0.0000 27.6419 0.0000
# 6 0.0000 0.0000 0.0000 0.0000 0.0000 9.3522
#
#
#
# Elastic Compliance Matrix: (Units=1/GPa)
#
#
# Indices 1 2 3 4 5 6 
#
# 1 0.006992 -0.002145 -0.002389 0.000000 0.000000 0.000000
# 2 -0.002145 0.014349 -0.001687 0.000000 0.000000 0.000000
# 3 -0.002389 -0.001687 0.008914 0.000000 0.000000 0.000000
# 4 0.000000 0.000000 0.000000 0.042890 0.000000 0.000000
# 5 0.000000 0.000000 0.000000 0.000000 0.036177 0.000000
# 6 0.000000 0.000000 0.000000 0.000000 0.000000 0.106927
#
#
# Mechanical properties :
#
#
# Convention : Reuss Voigt Hill
#
# Bulk Modulus (GPa) = 56.13896 65.58068 60.85982
# Shear Modulus (GPa) = 21.31020 30.17017 25.74019
#
# Velocity S-wave (km/s) = 3.10716 3.69708 3.41488
# Velocity P-wave (km/s) = 6.18918 6.92354 6.56664
#
# Compressibility (1/GPa) = 0.01781294
#
# Stress axis : x y z
#
# Youngs Moduli (GPa) = 143.01432 69.68930 112.18372
#
# Poissons Ratio (x) = 0.14949 0.26806
# Poissons Ratio (y) = 0.30678 0.18923
# Poissons Ratio (z) = 0.34173 0.11755
#
# Static dielectric constant tensor:
#      x y z
#    x 1.928070 0.000000 0.000000 
#    y 0.000000 1.849250 0.000000 
#    z 0.000000 0.000000 1.820370 
# 
# From -- ./inp_files/8197.got.cif
#   From: 2010.05.17/outbox.cif.g08.bks.cpg/sg59_5_cif.got.tgz:8197.got - 2010.06.03 14:40:33.
