data_PCOD9452745
_publ_section_title
;
Structure prediction by ZEFSAII (Michael W. Deem and Ramdas Pophale) SiO2 
 PCOD9452745
Probable space group: P M M N
;
_chemical_formula_sum "Si O2"
_cell_formula_units_Z 64
_cell_length_a 26.959993
_cell_length_b 19.563754
_cell_length_c 7.091262
_cell_angle_alpha 90.000000
_cell_angle_beta 90.000000
_cell_angle_gamma 90.000000
_cell_volume 3740.205804
_symmetry_space_group_name_H-M "P M M N"
_symmetry_group_IT_number 59
_space_group.IT_coordinate_system_code '2'
_symmetry_cell_setting 'orthorhombic'
loop_
_space_group_symop_operation_xyz
x,y,z
1/2-x,1/2-y,z
1/2+x,-y,-z
-x,1/2+y,-z
-x,-y,-z
1/2+x,1/2+y,-z
1/2-x,y,z
x,1/2-y,z
loop_
_atom_site_type_symbol
_atom_site_label
_atom_site_fract_x
_atom_site_fract_y
_atom_site_fract_z
Si Si1 0.640311 0.588194 0.534820
Si Si2 0.805960 0.672934 0.244816
Si Si3 0.957318 0.828772 0.412208
Si Si4 0.513343 0.834419 0.999907
Si Si5 0.945537 0.327512 0.329167
Si Si6 0.626375 0.827654 0.881091
Si Si7 0.500009 0.986323 0.176774
Si Si8 0.922117 0.036689 0.492304
O O1 0.682507 0.616256 0.399284
O O2 0.589551 0.627168 0.471441
O O3 0.648485 0.615649 0.743888
O O4 0.626187 0.509394 0.515911
O O5 0.750000 0.666552 0.169718
O O6 0.810400 0.750000 0.326019
O O7 0.846759 0.667490 0.081699
O O8 0.941662 0.750000 0.391209
O O9 0.001447 0.831521 0.562283
O O10 0.980617 0.857867 0.219194
O O11 0.509576 0.750000 0.025701
O O12 0.514247 0.950525 0.973203
O O13 0.462091 0.844688 0.882942
O O14 0.567695 0.837874 0.902308
O O15 0.927125 0.250000 0.344988
O O16 0.913511 0.385647 0.429509
O O17 0.634607 0.750000 0.808632
O O18 0.454176 0.969919 0.313570
O O19 0.543557 0.006487 0.320104
#
# Coordination Sequence:
#
# PCOD9452745 Si02
#       8
#     8   8   8   8   8   8   8   8
#     4  12  21  33  52  72  96 127 166 206 249 294
#     4  10  22  39  56  75  99 127 159 199 251 306
#     4  11  19  29  44  66  95 129 169 210 240 274
#     4  12  19  30  47  68  94 134 174 212 240 281
#     4  11  22  33  46  69 100 135 175 212 245 284
#     4  11  21  32  48  72  98 127 168 212 248 285
#     4  11  19  30  46  63  94 130 170 211 247 279
#     4  11  21  34  46  68  96 131 169 208 250 290
#
# _framework density 17.111357000000002
#
# number of rings (size 3 to 8) (size 9 to 14) (size 15 to 20)
#    0.000    0.875    6.250    3.750    0.000    0.500 
#    0.000    1.250    0.000    0.000    0.000    0.000 
#    0.000    0.500    0.000    0.250    0.000    0.000 
#
# Total GULP energy -356353.700923 kJ/mol
# GULP energy per Si atom -5568.026577 kJ/mol
# Density = 1.707241 g / cm^3
# Si number density = 17.111357 Si / 1000 Ang^3
#
#
#
# Elastic Constant Matrix: (Units=GPa)
#
#
# Indices 1 2 3 4 5 6 
#
# 1 22.7059 16.4147 3.0152 0.0000 0.0000 0.0000
# 2 16.4147 63.2108 6.6876 0.0000 0.0000 0.0000
# 3 3.0152 6.6876 69.3015 0.0000 0.0000 0.0000
# 4 0.0000 0.0000 0.0000 25.8383 0.0000 0.0000
# 5 0.0000 0.0000 0.0000 0.0000 8.7755 0.0000
# 6 0.0000 0.0000 0.0000 0.0000 0.0000 18.9921
#
#
#
# Elastic Compliance Matrix: (Units=1/GPa)
#
#
# Indices 1 2 3 4 5 6 
#
# 1 0.054290 -0.013991 -0.001012 0.000000 0.000000 0.000000
# 2 -0.013991 0.019589 -0.001282 0.000000 0.000000 0.000000
# 3 -0.001012 -0.001282 0.014597 0.000000 0.000000 0.000000
# 4 0.000000 0.000000 0.000000 0.038702 0.000000 0.000000
# 5 0.000000 0.000000 0.000000 0.000000 0.113954 0.000000
# 6 0.000000 0.000000 0.000000 0.000000 0.000000 0.052654
#
#
# Mechanical properties :
#
#
# Convention : Reuss Voigt Hill
#
# Bulk Modulus (GPa) = 17.88673 23.05035 20.46854
# Shear Modulus (GPa) = 14.49310 19.32789 16.91049
#
# Velocity S-wave (km/s) = 2.91346 3.36450 3.14707
# Velocity P-wave (km/s) = 4.66835 5.34726 5.01930
#
# Compressibility (1/GPa) = 0.05590738
#
# Stress axis : x y z
#
# Youngs Moduli (GPa) = 18.41943 51.04929 68.50536
#
# Poissons Ratio (x) = 0.71424 0.06932
# Poissons Ratio (y) = 0.25771 0.08780
# Poissons Ratio (z) = 0.01864 0.06542
#
# Static dielectric constant tensor:
#      x y z
#    x 1.551290 0.000000 0.000000 
#    y 0.000000 1.711040 0.000000 
#    z 0.000000 0.000000 1.651840 
# 
# From -- ./inp_files/12701.got.cif
#   From: 2010.05.17/outbox.cif.g08.bks.cpg/sg59_7_cif.got.tgz:12701.got - 2010.06.03 14:40:33.
