data_PCOD9452749
_publ_section_title
;
Structure prediction by ZEFSAII (Michael W. Deem and Ramdas Pophale) SiO2 
 PCOD9452749
Probable space group: P M M N
;
_chemical_formula_sum "Si O2"
_cell_formula_units_Z 64
_cell_length_a 7.673067
_cell_length_b 23.572283
_cell_length_c 16.644622
_cell_angle_alpha 90.000000
_cell_angle_beta 90.000000
_cell_angle_gamma 90.000000
_cell_volume 3010.541190
_symmetry_space_group_name_H-M "P M M N"
_symmetry_group_IT_number 59
_space_group.IT_coordinate_system_code '2'
_symmetry_cell_setting 'orthorhombic'
loop_
_space_group_symop_operation_xyz
x,y,z
1/2-x,1/2-y,z
1/2+x,-y,-z
-x,1/2+y,-z
-x,-y,-z
1/2+x,1/2+y,-z
1/2-x,y,z
x,1/2-y,z
loop_
_atom_site_type_symbol
_atom_site_label
_atom_site_fract_x
_atom_site_fract_y
_atom_site_fract_z
Si Si1 0.463166 0.925026 0.539698
Si Si2 0.050861 0.317695 0.688163
Si Si3 0.539925 0.026889 0.812958
Si Si4 0.549257 0.471597 0.632330
Si Si5 0.047635 0.943871 0.945284
Si Si6 0.953203 0.311509 0.511257
Si Si7 0.048829 0.685629 0.972563
Si Si8 0.454924 0.147757 0.858310
O O1 0.250000 0.928812 0.540736
O O2 0.537405 0.962286 0.610696
O O3 0.524028 0.860628 0.543713
O O4 0.525124 0.946486 0.451202
O O5 0.250000 0.338606 0.682278
O O6 0.054249 0.250000 0.694404
O O7 0.969797 0.339104 0.770369
O O8 0.961629 0.330848 0.604246
O O9 0.750000 0.027178 0.811902
O O10 0.474224 0.036387 0.721296
O O11 0.480661 0.969301 0.855970
O O12 0.475665 0.080261 0.865454
O O13 0.750000 0.452885 0.636095
O O14 0.250000 0.935564 0.963754
O O15 0.972613 0.878424 0.950782
O O16 0.000000 0.000000 0.000000
O O17 0.750000 0.306651 0.492011
O O18 0.037164 0.250000 0.505850
O O19 0.250000 0.686023 0.945035
O O20 0.977893 0.750000 0.951680
O O21 0.041130 0.680821 0.069324
O O22 0.250000 0.162914 0.857688
#
# Coordination Sequence:
#
# PCOD9452749 Si02
#       8
#     8   8   8   8   8   8   8   8
#     4   9  17  31  50  72 101 132 168 215 264 315
#     4   9  18  30  42  63  98 136 173 214 259 311
#     4  11  22  36  55  79 109 142 180 225 272 327
#     4   9  19  33  50  74 102 135 172 215 265 314
#     4  11  22  38  60  85 113 144 182 228 276 326
#     4   9  17  29  46  68  94 129 171 211 256 315
#     4  10  22  39  58  80 108 144 183 223 272 330
#     4  11  21  32  50  76 107 141 178 220 267 323
#
# _framework density 21.258637
#
# number of rings (size 3 to 8) (size 9 to 14) (size 15 to 20)
#    0.000    2.125    1.250    2.250    0.000    4.750 
#    0.000    3.750    0.000    0.750    0.000    5.250 
#    0.000    0.000    0.000    0.000    0.000    0.000 
#
# Total GULP energy -356387.523011 kJ/mol
# GULP energy per Si atom -5568.555047 kJ/mol
# Density = 2.121025 g / cm^3
# Si number density = 21.258637 Si / 1000 Ang^3
#
#
#
# Elastic Constant Matrix: (Units=GPa)
#
#
# Indices 1 2 3 4 5 6 
#
# 1 45.1055 10.7251 -4.2914 0.0000 0.0000 0.0000
# 2 10.7251 88.3545 16.0553 0.0000 0.0000 0.0000
# 3 -4.2914 16.0553 36.9056 0.0000 0.0000 0.0000
# 4 0.0000 0.0000 0.0000 34.4815 0.0000 0.0000
# 5 0.0000 0.0000 0.0000 0.0000 15.8505 0.0000
# 6 0.0000 0.0000 0.0000 0.0000 0.0000 14.8172
#
#
#
# Elastic Compliance Matrix: (Units=1/GPa)
#
#
# Indices 1 2 3 4 5 6 
#
# 1 0.023442 -0.003628 0.004304 0.000000 0.000000 0.000000
# 2 -0.003628 0.012851 -0.006012 0.000000 0.000000 0.000000
# 3 0.004304 -0.006012 0.030212 0.000000 0.000000 0.000000
# 4 0.000000 0.000000 0.000000 0.029001 0.000000 0.000000
# 5 0.000000 0.000000 0.000000 0.000000 0.063089 0.000000
# 6 0.000000 0.000000 0.000000 0.000000 0.000000 0.067489
#
#
# Mechanical properties :
#
#
# Convention : Reuss Voigt Hill
#
# Bulk Modulus (GPa) = 17.91046 23.92706 20.91876
# Shear Modulus (GPa) = 19.57957 22.88830 21.23393
#
# Velocity S-wave (km/s) = 3.03812 3.28481 3.16387
# Velocity P-wave (km/s) = 4.55524 5.06619 4.81749
#
# Compressibility (1/GPa) = 0.05583329
#
# Stress axis : x y z
#
# Youngs Moduli (GPa) = 42.65793 77.81528 33.09917
#
# Poissons Ratio (x) = 0.28229 -0.14246
# Poissons Ratio (y) = 0.15475 0.19901
# Poissons Ratio (z) = -0.18360 0.46786
#
# Static dielectric constant tensor:
#      x y z
#    x 1.802520 0.000000 0.000000 
#    y 0.000000 1.888070 0.000000 
#    z 0.000000 0.000000 1.758100 
# 
# From -- ./inp_files/26542.got.cif
#   From: 2010.05.17/outbox.cif.g08.bks.cpg/sg59_14_cif.got.tgz:26542.got - 2010.06.03 14:40:33.
