data_PCOD9452419
_publ_section_title
;
Structure prediction by ZEFSAII (Michael W. Deem and Ramdas Pophale) SiO2 
 PCOD9452419
Probable space group: P M M N
;
_chemical_formula_sum "Si O2"
_cell_formula_units_Z 64
_cell_length_a 8.386861
_cell_length_b 20.405692
_cell_length_c 19.492486
_cell_angle_alpha 90.000000
_cell_angle_beta 90.000000
_cell_angle_gamma 90.000000
_cell_volume 3335.938253
_symmetry_space_group_name_H-M "P M M N"
_symmetry_group_IT_number 59
_space_group.IT_coordinate_system_code '2'
_symmetry_cell_setting 'orthorhombic'
loop_
_space_group_symop_operation_xyz
x,y,z
1/2-x,1/2-y,z
1/2+x,-y,-z
-x,1/2+y,-z
-x,-y,-z
1/2+x,1/2+y,-z
1/2-x,y,z
x,1/2-y,z
loop_
_atom_site_type_symbol
_atom_site_label
_atom_site_fract_x
_atom_site_fract_y
_atom_site_fract_z
Si Si1 0.064860 0.445620 0.180376
Si Si2 0.559443 0.825313 0.236335
Si Si3 0.058486 0.542956 0.295684
Si Si4 0.058211 0.069599 0.026981
Si Si5 0.942163 0.033933 0.430990
Si Si6 0.062710 0.679506 0.585802
Si Si7 0.059413 0.825403 0.082732
Si Si8 0.934560 0.177351 0.249315
O O1 0.250000 0.462963 0.169724
O O2 0.996041 0.502811 0.228660
O O3 0.997380 0.429837 0.105485
O O4 0.046911 0.378973 0.222505
O O5 0.750000 0.825964 0.241289
O O6 0.504194 0.750000 0.249743
O O7 0.491669 0.881613 0.285812
O O8 0.510704 0.841602 0.157771
O O9 0.250000 0.539271 0.296416
O O10 0.997953 0.505965 0.363738
O O11 0.250000 0.073545 0.026566
O O12 0.995593 0.126168 0.976968
O O13 0.000000 0.000000 0.000000
O O14 0.750000 0.036497 0.428203
O O15 0.005239 0.109006 0.433839
O O16 0.000000 0.000000 0.500000
O O17 0.250000 0.679900 0.565549
O O18 0.993201 0.750000 0.562816
O O19 0.059184 0.679173 0.668474
O O20 0.250000 0.829058 0.088478
O O21 0.013694 0.750000 0.067332
O O22 0.750000 0.163017 0.230609
O O23 0.975289 0.250000 0.223484
#
# Coordination Sequence:
#
# PCOD9452419 Si02
#       8
#     8   8   8   8   8   8   8   8
#     4  10  22  36  52  78 112 146 185 234 285 337
#     4  10  21  38  62  90 116 147 191 242 296 351
#     4  11  22  38  60  86 117 151 191 237 287 350
#     4  11  23  38  55  78 110 150 193 241 295 350
#     4  11  22  38  61  88 120 156 194 241 295 350
#     4   8  15  31  56  83 110 144 187 230 272 325
#     4  10  21  38  59  83 114 153 197 244 294 351
#     4   9  17  31  53  80 107 138 181 227 269 323
#
# _framework density 19.185006999999999
#
# number of rings (size 3 to 8) (size 9 to 14) (size 15 to 20)
#    0.000    2.000    1.250    3.375    0.000    4.750 
#    0.000    3.125    0.000    3.750    0.000    0.000 
#    0.000    0.000    0.000    0.000    0.000    0.000 
#
# Total GULP energy -356918.201981 kJ/mol
# GULP energy per Si atom -5576.846906 kJ/mol
# Density = 1.914134 g / cm^3
# Si number density = 19.185007 Si / 1000 Ang^3
#
#
#
# Elastic Constant Matrix: (Units=GPa)
#
#
# Indices 1 2 3 4 5 6 
#
# 1 33.2452 22.6798 17.1880 0.0000 0.0000 0.0000
# 2 22.6798 158.9225 76.3036 0.0000 0.0000 0.0000
# 3 17.1880 76.3036 70.9633 0.0000 0.0000 0.0000
# 4 0.0000 0.0000 0.0000 24.6865 0.0000 0.0000
# 5 0.0000 0.0000 0.0000 0.0000 23.5382 0.0000
# 6 0.0000 0.0000 0.0000 0.0000 0.0000 26.7173
#
#
#
# Elastic Compliance Matrix: (Units=1/GPa)
#
#
# Indices 1 2 3 4 5 6 
#
# 1 0.034659 -0.001893 -0.006360 0.000000 0.000000 0.000000
# 2 -0.001893 0.013111 -0.013639 0.000000 0.000000 0.000000
# 3 -0.006360 -0.013639 0.030298 0.000000 0.000000 0.000000
# 4 0.000000 0.000000 0.000000 0.040508 0.000000 0.000000
# 5 0.000000 0.000000 0.000000 0.000000 0.042484 0.000000
# 6 0.000000 0.000000 0.000000 0.000000 0.000000 0.037429
#
#
# Mechanical properties :
#
#
# Convention : Reuss Voigt Hill
#
# Bulk Modulus (GPa) = 29.16773 55.05265 42.11019
# Shear Modulus (GPa) = 19.70829 24.78571 22.24700
#
# Velocity S-wave (km/s) = 3.20859 3.59824 3.40899
# Velocity P-wave (km/s) = 5.38174 6.78389 6.12308
#
# Compressibility (1/GPa) = 0.03428447
#
# Stress axis : x y z
#
# Youngs Moduli (GPa) = 28.85285 76.27072 33.00551
#
# Poissons Ratio (x) = 0.14436 0.20990
# Poissons Ratio (y) = 0.05461 0.45018
# Poissons Ratio (z) = 0.18349 1.04029
#
# Static dielectric constant tensor:
#      x y z
#    x 1.665600 0.000000 0.000000 
#    y 0.000000 1.690280 0.000000 
#    z 0.000000 0.000000 1.663380 
# 
# From -- ./inp_files/29388.got.cif
#   From: 2010.05.17/outbox.cif.g08.bks.cpg/sg59_15_cif.got.tgz:29388.got - 2010.06.03 14:40:33.
