data_PCOD9452569
_publ_section_title
;
Structure prediction by ZEFSAII (Michael W. Deem and Ramdas Pophale) SiO2 
 PCOD9452569
Probable space group: P M M N
;
_chemical_formula_sum "Si O2"
_cell_formula_units_Z 56
_cell_length_a 15.455567
_cell_length_b 8.415329
_cell_length_c 22.459261
_cell_angle_alpha 90.000000
_cell_angle_beta 90.000000
_cell_angle_gamma 90.000000
_cell_volume 2921.134162
_symmetry_space_group_name_H-M "P M M N"
_symmetry_group_IT_number 59
_space_group.IT_coordinate_system_code '2'
_symmetry_cell_setting 'orthorhombic'
loop_
_space_group_symop_operation_xyz
x,y,z
1/2-x,1/2-y,z
1/2+x,-y,-z
-x,1/2+y,-z
-x,-y,-z
1/2+x,1/2+y,-z
1/2-x,y,z
x,1/2-y,z
loop_
_atom_site_type_symbol
_atom_site_label
_atom_site_fract_x
_atom_site_fract_y
_atom_site_fract_z
Si Si1 0.059500 0.939037 0.945228
Si Si2 0.750000 0.560726 0.024289
Si Si3 0.750000 0.057824 0.888385
Si Si4 0.656787 0.556737 0.617016
Si Si5 0.512231 0.943055 0.710200
Si Si6 0.154252 0.558276 0.640229
Si Si7 0.096801 0.059283 0.511214
Si Si8 0.562446 0.440365 0.840376
O O1 0.936097 0.250000 0.050605
O O2 0.158387 0.002201 0.948232
O O3 0.007585 0.989352 0.886167
O O4 0.000000 0.000000 0.000000
O O5 0.750000 0.750000 0.026009
O O6 0.750000 0.501872 0.956003
O O7 0.750000 0.250000 0.889015
O O8 0.839755 0.005987 0.857367
O O9 0.750000 0.506204 0.640581
O O10 0.653945 0.750000 0.616710
O O11 0.579807 0.503971 0.659365
O O12 0.646920 0.507648 0.548409
O O13 0.513872 0.750000 0.713012
O O14 0.418525 0.994996 0.686550
O O15 0.538638 0.009288 0.773795
O O16 0.250000 0.501138 0.655502
O O17 0.153553 0.750000 0.640949
O O18 0.131459 0.507111 0.573171
O O19 0.099078 0.250000 0.514194
O O20 0.000000 0.000000 0.500000
O O21 0.560347 0.250000 0.845902
#
# Coordination Sequence:
#
# PCOD9452569 Si02
#       8
#     8   4   4   8   8   8   8   8
#     4  12  24  42  67  97 131 168 209 259 312 367
#     4  12  24  40  68 102 132 168 211 256 311 372
#     4  10  22  40  64  92 130 168 203 250 311 370
#     4   9  18  33  54  81 112 146 186 238 298 363
#     4  10  21  39  59  82 115 157 202 247 302 367
#     4  10  21  39  61  84 113 153 202 255 310 370
#     4  11  20  34  57  84 116 151 192 245 305 364
#     4  11  24  42  63  91 127 166 208 258 310 371
#
# _framework density 19.170635999999998
#
# number of rings (size 3 to 8) (size 9 to 14) (size 15 to 20)
#    0.000    1.429    2.857    3.214    1.000    2.000 
#    1.286    0.000    0.000    1.714    0.000    0.000 
#    0.000    0.000    0.000    0.000    0.000    0.000 
#
# Total GULP energy -312799.358820 kJ/mol
# GULP energy per Si atom -5585.702836 kJ/mol
# Density = 1.912700 g / cm^3
# Si number density = 19.170636 Si / 1000 Ang^3
#
#
#
# Elastic Constant Matrix: (Units=GPa)
#
#
# Indices 1 2 3 4 5 6 
#
# 1 210.5384 36.7253 84.8003 0.0000 0.0000 0.0000
# 2 36.7253 30.2471 20.4309 0.0000 0.0000 0.0000
# 3 84.8003 20.4309 124.4548 0.0000 0.0000 0.0000
# 4 0.0000 0.0000 0.0000 34.0232 0.0000 0.0000
# 5 0.0000 0.0000 0.0000 0.0000 2.4118 0.0000
# 6 0.0000 0.0000 0.0000 0.0000 0.0000 18.8716
#
#
#
# Elastic Compliance Matrix: (Units=1/GPa)
#
#
# Indices 1 2 3 4 5 6 
#
# 1 0.007495 -0.006356 -0.004064 0.000000 0.000000 0.000000
# 2 -0.006356 0.042573 -0.002659 0.000000 0.000000 0.000000
# 3 -0.004064 -0.002659 0.011240 0.000000 0.000000 0.000000
# 4 0.000000 0.000000 0.000000 0.029392 0.000000 0.000000
# 5 0.000000 0.000000 0.000000 0.000000 0.414627 0.000000
# 6 0.000000 0.000000 0.000000 0.000000 0.000000 0.052990
#
#
# Mechanical properties :
#
#
# Convention : Reuss Voigt Hill
#
# Bulk Modulus (GPa) = 28.44660 72.12813 50.28736
# Shear Modulus (GPa) = 8.38659 25.94691 17.16675
#
# Velocity S-wave (km/s) = 2.09385 3.68295 2.99569
# Velocity P-wave (km/s) = 4.55153 7.46937 6.18498
#
# Compressibility (1/GPa) = 0.03515359
#
# Stress axis : x y z
#
# Youngs Moduli (GPa) = 133.42061 23.48881 88.96542
#
# Poissons Ratio (x) = 0.14928 0.36152
# Poissons Ratio (y) = 0.84796 0.23651
# Poissons Ratio (z) = 0.54217 0.06245
#
# Static dielectric constant tensor:
#      x y z
#    x 1.703330 0.000000 0.000000 
#    y 0.000000 1.664140 0.000000 
#    z 0.000000 0.000000 1.632290 
# 
# From -- ./inp_files/30472.got.cif
#   From: 2010.05.17/outbox.cif.g08.bks.cpg/sg59_16_cif.got.tgz:30472.got - 2010.06.03 14:40:33.
