data_PCOD9452306
_publ_section_title
;
Structure prediction by ZEFSAII (Michael W. Deem and Ramdas Pophale) SiO2 
 PCOD9452306
Probable space group: P M M N
;
_chemical_formula_sum "Si O2"
_cell_formula_units_Z 64
_cell_length_a 8.835969
_cell_length_b 23.919430
_cell_length_c 14.927201
_cell_angle_alpha 90.000000
_cell_angle_beta 90.000000
_cell_angle_gamma 90.000000
_cell_volume 3154.883963
_symmetry_space_group_name_H-M "P M M N"
_symmetry_group_IT_number 59
_space_group.IT_coordinate_system_code '2'
_symmetry_cell_setting 'orthorhombic'
loop_
_space_group_symop_operation_xyz
x,y,z
1/2-x,1/2-y,z
1/2+x,-y,-z
-x,1/2+y,-z
-x,-y,-z
1/2+x,1/2+y,-z
1/2-x,y,z
x,1/2-y,z
loop_
_atom_site_type_symbol
_atom_site_label
_atom_site_fract_x
_atom_site_fract_y
_atom_site_fract_z
Si Si1 0.571038 0.122497 0.305317
Si Si2 0.924121 0.658722 0.062140
Si Si3 0.069699 0.002924 0.282335
Si Si4 0.067051 0.185765 0.470467
Si Si5 0.576306 0.313054 0.762828
Si Si6 0.928548 0.604096 0.368378
Si Si7 0.071163 0.315338 0.144172
Si Si8 0.074041 0.474519 0.910779
O O1 0.750000 0.118201 0.315624
O O2 0.495553 0.061877 0.315242
O O3 0.502838 0.165260 0.377624
O O4 0.526897 0.146068 0.208054
O O5 0.750000 0.676929 0.079123
O O6 0.931556 0.592288 0.077305
O O7 0.036690 0.685805 0.132697
O O8 0.959863 0.673268 0.959964
O O9 0.250000 0.004664 0.279595
O O10 0.014264 0.953120 0.347064
O O11 0.007665 0.991304 0.181657
O O12 0.250000 0.184592 0.464935
O O13 0.023085 0.250000 0.491263
O O14 0.021713 0.140611 0.545968
O O15 0.750000 0.330675 0.747824
O O16 0.557257 0.250000 0.728623
O O17 0.463345 0.355186 0.714828
O O18 0.750000 0.592871 0.375004
O O19 0.250000 0.327398 0.159354
O O20 0.045780 0.250000 0.163801
O O21 0.250000 0.491592 0.904662
O O22 0.000000 0.500000 0.000000
#
# Coordination Sequence:
#
# PCOD9452306 Si02
#       8
#     8   8   8   8   8   8   8   8
#     4  12  26  43  66  95 128 167 215 270 328 390
#     4  10  21  37  59  87 121 164 213 261 313 374
#     4  12  25  43  66  93 130 172 216 268 326 387
#     4  10  23  45  72 100 130 168 213 261 320 390
#     4  11  23  37  57  89 128 168 209 255 310 372
#     4  11  23  42  68  97 129 167 213 263 318 384
#     4  10  21  39  63  92 128 170 217 267 323 388
#     4  11  22  37  60  91 127 170 219 269 318 380
#
# _framework density 20.286007000000001
#
# number of rings (size 3 to 8) (size 9 to 14) (size 15 to 20)
#    0.000    1.125    1.250    5.250    0.000    7.500 
#    0.000    0.000    0.000    0.000    0.000    0.000 
#    0.000    0.000    0.000    0.000    0.000    0.000 
#
# Total GULP energy -358014.549361 kJ/mol
# GULP energy per Si atom -5593.977334 kJ/mol
# Density = 2.023983 g / cm^3
# Si number density = 20.286007 Si / 1000 Ang^3
#
#
#
# Elastic Constant Matrix: (Units=GPa)
#
#
# Indices 1 2 3 4 5 6 
#
# 1 50.0445 27.4197 15.6290 0.0000 0.0000 0.0000
# 2 27.4197 77.6363 17.7256 0.0000 0.0000 0.0000
# 3 15.6290 17.7256 43.4762 0.0000 0.0000 0.0000
# 4 0.0000 0.0000 0.0000 34.7055 0.0000 0.0000
# 5 0.0000 0.0000 0.0000 0.0000 15.9050 0.0000
# 6 0.0000 0.0000 0.0000 0.0000 0.0000 5.7108
#
#
#
# Elastic Compliance Matrix: (Units=1/GPa)
#
#
# Indices 1 2 3 4 5 6 
#
# 1 0.026223 -0.007839 -0.006231 0.000000 0.000000 0.000000
# 2 -0.007839 0.016546 -0.003928 0.000000 0.000000 0.000000
# 3 -0.006231 -0.003928 0.026842 0.000000 0.000000 0.000000
# 4 0.000000 0.000000 0.000000 0.028814 0.000000 0.000000
# 5 0.000000 0.000000 0.000000 0.000000 0.062873 0.000000
# 6 0.000000 0.000000 0.000000 0.000000 0.000000 0.175108
#
#
# Mechanical properties :
#
#
# Convention : Reuss Voigt Hill
#
# Bulk Modulus (GPa) = 29.74762 32.52285 31.13523
# Shear Modulus (GPa) = 13.03417 18.62311 15.82864
#
# Velocity S-wave (km/s) = 2.53755 3.03318 2.79637
# Velocity P-wave (km/s) = 4.82509 5.32296 5.08013
#
# Compressibility (1/GPa) = 0.03361614
#
# Stress axis : x y z
#
# Youngs Moduli (GPa) = 38.13437 60.43775 37.25450
#
# Poissons Ratio (x) = 0.47377 0.23212
# Poissons Ratio (y) = 0.29893 0.14633
# Poissons Ratio (z) = 0.23761 0.23740
#
# Static dielectric constant tensor:
#      x y z
#    x 1.689760 0.000000 0.000000 
#    y 0.000000 1.724330 0.000000 
#    z 0.000000 0.000000 1.713080 
# 
# From -- ./inp_files/21589.got.cif
#   From: 2010.05.17/outbox.cif.g08.bks.cpg/sg59_11_cif.got.tgz:21589.got - 2010.06.03 14:40:33.
