data_PCOD9452313
_publ_section_title
;
Structure prediction by ZEFSAII (Michael W. Deem and Ramdas Pophale) SiO2 
 PCOD9452313
Probable space group: P M M N
;
_chemical_formula_sum "Si O2"
_cell_formula_units_Z 40
_cell_length_a 14.813864
_cell_length_b 9.385667
_cell_length_c 14.389200
_cell_angle_alpha 90.000000
_cell_angle_beta 90.000000
_cell_angle_gamma 90.000000
_cell_volume 2000.645510
_symmetry_space_group_name_H-M "P M M N"
_symmetry_group_IT_number 59
_space_group.IT_coordinate_system_code '2'
_symmetry_cell_setting 'orthorhombic'
loop_
_space_group_symop_operation_xyz
x,y,z
1/2-x,1/2-y,z
1/2+x,-y,-z
-x,1/2+y,-z
-x,-y,-z
1/2+x,1/2+y,-z
1/2-x,y,z
x,1/2-y,z
loop_
_atom_site_type_symbol
_atom_site_label
_atom_site_fract_x
_atom_site_fract_y
_atom_site_fract_z
Si Si1 0.004179 0.419715 0.902403
Si Si2 0.141168 0.911256 0.781745
Si Si3 0.070118 0.415102 0.433740
Si Si4 0.856564 0.420263 0.745314
Si Si5 0.147573 0.098446 0.620208
O O1 0.009173 0.250000 0.915079
O O2 0.917339 0.450205 0.836423
O O3 0.091866 0.479514 0.849238
O O4 0.000000 0.500000 0.000000
O O5 0.250000 0.910881 0.792506
O O6 0.109895 0.750000 0.797752
O O7 0.113055 0.964751 0.678400
O O8 0.044764 0.250000 0.416578
O O9 0.100651 0.495613 0.341590
O O10 0.149712 0.413820 0.510121
O O11 0.000000 0.500000 0.500000
O O12 0.750000 0.455646 0.756703
O O13 0.862345 0.250000 0.727744
O O14 0.250000 0.109784 0.652978
O O15 0.099951 0.250000 0.642737
#
# Coordination Sequence:
#
# PCOD9452313 Si02
#       5
#     8   8   8   8   8
#     4  11  24  42  64  89 117 153 199 253 315 379
#     4  10  21  37  59  88 120 154 195 246 303 363
#     4  11  22  35  55  85 121 161 204 248 295 351
#     4  10  23  43  64  88 123 166 209 257 316 379
#     4   9  18  33  52  76 109 147 185 227 277 335
#
# _framework density 19.993545999999998
#
# number of rings (size 3 to 8) (size 9 to 14) (size 15 to 20)
#    0.000    1.800    0.000    3.600    0.000   11.200 
#    0.000    4.000    0.000    0.000    0.000    0.000 
#    0.000    0.000    0.000    0.000    0.000    0.000 
#
# Total GULP energy -222979.176553 kJ/mol
# GULP energy per Si atom -5574.479414 kJ/mol
# Density = 1.994804 g / cm^3
# Si number density = 19.993546 Si / 1000 Ang^3
#
#
#
# Elastic Constant Matrix: (Units=GPa)
#
#
# Indices 1 2 3 4 5 6 
#
# 1 101.9921 62.4679 46.4867 0.0000 0.0000 0.0000
# 2 62.4679 130.6746 90.6804 0.0000 0.0000 0.0000
# 3 46.4867 90.6804 155.8781 0.0000 0.0000 0.0000
# 4 0.0000 0.0000 0.0000 42.6067 0.0000 0.0000
# 5 0.0000 0.0000 0.0000 0.0000 20.3565 0.0000
# 6 0.0000 0.0000 0.0000 0.0000 0.0000 26.7198
#
#
#
# Elastic Compliance Matrix: (Units=1/GPa)
#
#
# Indices 1 2 3 4 5 6 
#
# 1 0.013884 -0.006312 -0.000469 0.000000 0.000000 0.000000
# 2 -0.006312 0.015703 -0.007253 0.000000 0.000000 0.000000
# 3 -0.000469 -0.007253 0.010774 0.000000 0.000000 0.000000
# 4 0.000000 0.000000 0.000000 0.023471 0.000000 0.000000
# 5 0.000000 0.000000 0.000000 0.000000 0.049124 0.000000
# 6 0.000000 0.000000 0.000000 0.000000 0.000000 0.037425
#
#
# Mechanical properties :
#
#
# Convention : Reuss Voigt Hill
#
# Bulk Modulus (GPa) = 81.33565 87.53497 84.43531
# Shear Modulus (GPa) = 27.39033 30.53060 28.96047
#
# Velocity S-wave (km/s) = 3.70531 3.91195 3.81003
# Velocity P-wave (km/s) = 7.68603 8.01755 7.85354
#
# Compressibility (1/GPa) = 0.01229473
#
# Stress axis : x y z
#
# Youngs Moduli (GPa) = 72.02395 63.68272 92.81487
#
# Poissons Ratio (x) = 0.40197 0.04350
# Poissons Ratio (y) = 0.45462 0.67314
# Poissons Ratio (z) = 0.03376 0.46186
#
# Static dielectric constant tensor:
#      x y z
#    x 1.875950 0.000000 0.000000 
#    y 0.000000 1.744440 0.000000 
#    z 0.000000 0.000000 1.697990 
# 
# From -- ./inp_files/19885.got.cif
#   From: 2010.05.17/outbox.cif.g08.bks.cpg/sg59_10_cif.got.tgz:19885.got - 2010.06.03 14:40:33.
