data_PCOD9452212
_publ_section_title
;
Structure prediction by ZEFSAII (Michael W. Deem and Ramdas Pophale) SiO2 
 PCOD9452212
Probable space group: P M M N
;
_chemical_formula_sum "Si O2"
_cell_formula_units_Z 56
_cell_length_a 8.753532
_cell_length_b 19.216411
_cell_length_c 16.880336
_cell_angle_alpha 90.000000
_cell_angle_beta 90.000000
_cell_angle_gamma 90.000000
_cell_volume 2839.466109
_symmetry_space_group_name_H-M "P M M N"
_symmetry_group_IT_number 59
_space_group.IT_coordinate_system_code '2'
_symmetry_cell_setting 'orthorhombic'
loop_
_space_group_symop_operation_xyz
x,y,z
1/2-x,1/2-y,z
1/2+x,-y,-z
-x,1/2+y,-z
-x,-y,-z
1/2+x,1/2+y,-z
1/2-x,y,z
x,1/2-y,z
loop_
_atom_site_type_symbol
_atom_site_label
_atom_site_fract_x
_atom_site_fract_y
_atom_site_fract_z
Si Si1 0.068211 0.578252 0.002160
Si Si2 0.932400 0.584574 0.167074
Si Si3 0.933995 0.669680 0.859394
Si Si4 0.427775 0.166819 0.674811
Si Si5 0.569992 0.544505 0.571365
Si Si6 0.565663 0.546400 0.750230
Si Si7 0.572263 0.332504 0.509633
O O1 0.250000 0.573671 0.996475
O O2 0.016080 0.607369 0.087412
O O3 0.000000 0.500000 0.000000
O O4 0.004042 0.627143 0.932797
O O5 0.750000 0.586709 0.155391
O O6 0.972348 0.630971 0.243422
O O7 0.986292 0.507382 0.190597
O O8 0.750000 0.669446 0.868570
O O9 0.984848 0.750000 0.855781
O O10 0.968422 0.624157 0.780893
O O11 0.250000 0.149148 0.657946
O O12 0.437788 0.250000 0.683535
O O13 0.528362 0.146384 0.599388
O O14 0.500000 0.500000 0.500000
O O15 0.750000 0.532947 0.571325
O O16 0.513169 0.531065 0.660584
O O17 0.530517 0.623818 0.549649
O O18 0.750000 0.537043 0.754000
O O19 0.750000 0.347422 0.495332
O O20 0.546624 0.250000 0.503151
#
# Coordination Sequence:
#
# PCOD9452212 Si02
#       7
#     8   8   8   8   8   8   8
#     4  12  24  40  63  90 121 158 201 245 295 355
#     4  11  22  36  60  90 119 155 196 242 299 358
#     4  10  22  42  66  91 121 158 201 251 307 363
#     4   9  19  36  57  83 116 154 198 245 296 356
#     4  11  23  38  59  88 121 158 204 253 304 361
#     4  10  22  39  60  86 117 157 201 248 300 360
#     4  10  21  37  57  82 115 156 200 247 302 358
#
# _framework density 19.722017000000001
#
# number of rings (size 3 to 8) (size 9 to 14) (size 15 to 20)
#    0.000    1.571    1.429    3.429    0.000    6.857 
#    0.000    2.857    0.000    0.000    0.000    0.000 
#    0.000    0.000    0.000    0.000    0.000    0.000 
#
# Total GULP energy -312921.609771 kJ/mol
# GULP energy per Si atom -5587.885889 kJ/mol
# Density = 1.967713 g / cm^3
# Si number density = 19.722017 Si / 1000 Ang^3
#
#
#
# Elastic Constant Matrix: (Units=GPa)
#
#
# Indices 1 2 3 4 5 6 
#
# 1 31.9987 18.7979 22.6194 0.0000 0.0000 0.0000
# 2 18.7979 60.5070 25.3326 0.0000 0.0000 0.0000
# 3 22.6194 25.3326 101.8244 0.0000 0.0000 0.0000
# 4 0.0000 0.0000 0.0000 34.5604 0.0000 0.0000
# 5 0.0000 0.0000 0.0000 0.0000 29.3082 0.0000
# 6 0.0000 0.0000 0.0000 0.0000 0.0000 29.1959
#
#
#
# Elastic Compliance Matrix: (Units=1/GPa)
#
#
# Indices 1 2 3 4 5 6 
#
# 1 0.042063 -0.010220 -0.006801 0.000000 0.000000 0.000000
# 2 -0.010220 0.020932 -0.002937 0.000000 0.000000 0.000000
# 3 -0.006801 -0.002937 0.012062 0.000000 0.000000 0.000000
# 4 0.000000 0.000000 0.000000 0.028935 0.000000 0.000000
# 5 0.000000 0.000000 0.000000 0.000000 0.034120 0.000000
# 6 0.000000 0.000000 0.000000 0.000000 0.000000 0.034251
#
#
# Mechanical properties :
#
#
# Convention : Reuss Voigt Hill
#
# Bulk Modulus (GPa) = 28.45784 36.42554 32.44169
# Shear Modulus (GPa) = 22.32198 27.11824 24.72011
#
# Velocity S-wave (km/s) = 3.36792 3.71215 3.54422
# Velocity P-wave (km/s) = 5.43918 6.07314 5.76488
#
# Compressibility (1/GPa) = 0.03513970
#
# Stress axis : x y z
#
# Youngs Moduli (GPa) = 23.77392 47.77390 82.90224
#
# Poissons Ratio (x) = 0.48826 0.56384
# Poissons Ratio (y) = 0.24298 0.24350
# Poissons Ratio (z) = 0.16169 0.14032
#
# Static dielectric constant tensor:
#      x y z
#    x 1.670880 0.000000 0.000000 
#    y 0.000000 1.711430 0.000000 
#    z 0.000000 0.000000 1.694790 
# 
# From -- ./inp_files/20943.got.cif
#   From: 2010.05.17/outbox.cif.g08.bks.cpg/sg59_11_cif.got.tgz:20943.got - 2010.06.03 14:40:33.
