data_PCOD9452954
_publ_section_title
;
Structure prediction by ZEFSAII (Michael W. Deem and Ramdas Pophale) SiO2 
 PCOD9452954
Probable space group: P M M N
;
_chemical_formula_sum "Si O2"
_cell_formula_units_Z 56
_cell_length_a 8.816659
_cell_length_b 20.918252
_cell_length_c 14.750728
_cell_angle_alpha 90.000000
_cell_angle_beta 90.000000
_cell_angle_gamma 90.000000
_cell_volume 2720.463412
_symmetry_space_group_name_H-M "P M M N"
_symmetry_group_IT_number 59
_space_group.IT_coordinate_system_code '2'
_symmetry_cell_setting 'orthorhombic'
loop_
_space_group_symop_operation_xyz
x,y,z
1/2-x,1/2-y,z
1/2+x,-y,-z
-x,1/2+y,-z
-x,-y,-z
1/2+x,1/2+y,-z
1/2-x,y,z
x,1/2-y,z
loop_
_atom_site_type_symbol
_atom_site_label
_atom_site_fract_x
_atom_site_fract_y
_atom_site_fract_z
Si Si1 0.429362 0.535799 0.653006
Si Si2 0.433060 0.824991 0.125713
Si Si3 0.079306 0.068239 0.002685
Si Si4 0.078742 0.750000 0.805801
Si Si5 0.069033 0.376046 0.494009
Si Si6 0.923651 0.250000 0.411566
Si Si7 0.567654 0.398492 0.687885
Si Si8 0.079779 0.378964 0.200778
O O1 0.250000 0.526696 0.641729
O O2 0.500947 0.563304 0.560324
O O3 0.506305 0.471176 0.689730
O O4 0.467343 0.589652 0.727360
O O5 0.250000 0.825476 0.119081
O O6 0.481549 0.750000 0.118184
O O7 0.472840 0.856410 0.223778
O O8 0.497953 0.873791 0.050489
O O9 0.250000 0.063658 0.965453
O O10 0.087248 0.081446 0.109416
O O11 0.000000 0.000000 0.000000
O O12 0.250000 0.750000 0.842081
O O13 0.085033 0.750000 0.696666
O O14 0.984796 0.811689 0.830760
O O15 0.250000 0.380278 0.494787
O O16 0.011178 0.312779 0.443466
O O17 0.004430 0.372199 0.595450
O O18 0.750000 0.250000 0.446745
O O19 0.750000 0.399546 0.681168
O O20 0.250000 0.373753 0.240576
#
# Coordination Sequence:
#
# PCOD9452954 Si02
#       8
#     8   8   8   4   8   4   8   8
#     4  12  24  41  64  95 131 169 216 267 322 384
#     4  10  24  46  70  98 131 174 222 273 331 393
#     4  11  25  44  69 100 133 172 215 269 328 390
#     4  11  23  39  63  94 126 167 212 256 315 381
#     4  12  25  41  64  95 129 170 217 266 324 383
#     4  11  23  41  63  92 128 167 214 262 317 381
#     4  11  24  43  67  93 128 171 218 270 326 383
#     4  11  24  41  64  94 130 167 208 257 320 384
#
# _framework density 20.584728999999999
#
# number of rings (size 3 to 8) (size 9 to 14) (size 15 to 20)
#    0.000    0.857    1.429    5.571    2.000    7.714 
#    0.000    0.000    0.000    0.000    0.000    0.000 
#    0.000    0.000    0.000    0.000    0.000    0.000 
#
# Total GULP energy -313124.164208 kJ/mol
# GULP energy per Si atom -5591.502932 kJ/mol
# Density = 2.053788 g / cm^3
# Si number density = 20.584729 Si / 1000 Ang^3
#
#
#
# Elastic Constant Matrix: (Units=GPa)
#
#
# Indices 1 2 3 4 5 6 
#
# 1 112.6807 31.8195 23.8047 0.0000 0.0000 0.0000
# 2 31.8195 122.4948 13.6774 0.0000 0.0000 0.0000
# 3 23.8047 13.6774 70.6273 0.0000 0.0000 0.0000
# 4 0.0000 0.0000 0.0000 2.7386 0.0000 0.0000
# 5 0.0000 0.0000 0.0000 0.0000 31.4183 0.0000
# 6 0.0000 0.0000 0.0000 0.0000 0.0000 42.5999
#
#
#
# Elastic Compliance Matrix: (Units=1/GPa)
#
#
# Indices 1 2 3 4 5 6 
#
# 1 0.010154 -0.002305 -0.002976 0.000000 0.000000 0.000000
# 2 -0.002305 0.008867 -0.000940 0.000000 0.000000 0.000000
# 3 -0.002976 -0.000940 0.015344 0.000000 0.000000 0.000000
# 4 0.000000 0.000000 0.000000 0.365152 0.000000 0.000000
# 5 0.000000 0.000000 0.000000 0.000000 0.031829 0.000000
# 6 0.000000 0.000000 0.000000 0.000000 0.000000 0.023474
#
#
# Mechanical properties :
#
#
# Convention : Reuss Voigt Hill
#
# Bulk Modulus (GPa) = 45.61530 49.37843 47.49687
# Shear Modulus (GPa) = 10.53582 31.11809 20.82695
#
# Velocity S-wave (km/s) = 2.26481 3.89229 3.18428
# Velocity P-wave (km/s) = 5.38953 6.65130 6.05338
#
# Compressibility (1/GPa) = 0.02192247
#
# Stress axis : x y z
#
# Youngs Moduli (GPa) = 98.47980 112.77192 65.17218
#
# Poissons Ratio (x) = 0.25999 0.19395
# Poissons Ratio (y) = 0.22704 0.06128
# Poissons Ratio (z) = 0.29308 0.10603
#
# Static dielectric constant tensor:
#      x y z
#    x 1.723840 0.000000 0.000000 
#    y 0.000000 1.796670 0.000000 
#    z 0.000000 0.000000 1.734880 
# 
# From -- ./inp_files/21127.got.cif
#   From: 2010.05.17/outbox.cif.g08.bks.cpg/sg59_11_cif.got.tgz:21127.got - 2010.06.03 14:40:33.
