data_PCOD9452292
_publ_section_title
;
Structure prediction by ZEFSAII (Michael W. Deem and Ramdas Pophale) SiO2 
 PCOD9452292
Probable space group: P M M N
;
_chemical_formula_sum "Si O2"
_cell_formula_units_Z 48
_cell_length_a 20.685546
_cell_length_b 13.790284
_cell_length_c 9.163214
_cell_angle_alpha 90.000000
_cell_angle_beta 90.000000
_cell_angle_gamma 90.000000
_cell_volume 2613.894339
_symmetry_space_group_name_H-M "P M M N"
_symmetry_group_IT_number 59
_space_group.IT_coordinate_system_code '2'
_symmetry_cell_setting 'orthorhombic'
loop_
_space_group_symop_operation_xyz
x,y,z
1/2-x,1/2-y,z
1/2+x,-y,-z
-x,1/2+y,-z
-x,-y,-z
1/2+x,1/2+y,-z
1/2-x,y,z
x,1/2-y,z
loop_
_atom_site_type_symbol
_atom_site_label
_atom_site_fract_x
_atom_site_fract_y
_atom_site_fract_z
Si Si1 0.443745 0.365053 0.644722
Si Si2 0.823661 0.003750 0.322388
Si Si3 0.600301 0.137331 0.129281
Si Si4 0.469763 0.360803 0.303587
Si Si5 0.932829 0.443411 0.817563
Si Si6 0.675250 0.138472 0.606678
O O1 0.438246 0.250000 0.665915
O O2 0.376950 0.419743 0.675959
O O3 0.463044 0.382230 0.475318
O O4 0.500393 0.406135 0.746677
O O5 0.750000 0.968726 0.315562
O O6 0.840082 0.076440 0.190368
O O7 0.831603 0.067445 0.469254
O O8 0.615302 0.250000 0.101031
O O9 0.544058 0.133548 0.251839
O O10 0.572422 0.087386 0.984644
O O11 0.447930 0.250000 0.277993
O O12 0.431631 0.441602 0.212484
O O13 0.874482 0.393241 0.730262
O O14 0.750000 0.133235 0.656078
O O15 0.662074 0.250000 0.562575
#
# Coordination Sequence:
#
# PCOD9452292 Si02
#       6
#     8   8   8   8   8   8
#     4  11  22  38  62  90 116 154 203 251 295 347
#     4  11  23  40  59  83 118 160 199 245 298 349
#     4  11  23  37  58  90 123 156 193 240 297 360
#     4  10  21  37  60  89 120 153 193 243 298 349
#     4  12  21  39  61  91 123 155 195 243 299 352
#     4  10  21  37  59  86 117 153 195 244 298 355
#
# _framework density 18.363403999999999
#
# number of rings (size 3 to 8) (size 9 to 14) (size 15 to 20)
#    0.000    1.167    3.333    4.000    0.000    3.333 
#    0.000    0.000    0.000    0.500    0.000    0.000 
#    0.000    0.000    0.000    0.000    0.000    0.000 
#
# Total GULP energy -268296.010407 kJ/mol
# GULP energy per Si atom -5589.500217 kJ/mol
# Density = 1.832161 g / cm^3
# Si number density = 18.363404 Si / 1000 Ang^3
#
#
#
# Elastic Constant Matrix: (Units=GPa)
#
#
# Indices 1 2 3 4 5 6 
#
# 1 107.3441 42.3377 49.3407 0.0000 0.0000 0.0000
# 2 42.3377 101.7519 30.0869 0.0000 0.0000 0.0000
# 3 49.3407 30.0869 75.8381 0.0000 0.0000 0.0000
# 4 0.0000 0.0000 0.0000 26.2403 0.0000 0.0000
# 5 0.0000 0.0000 0.0000 0.0000 17.6286 0.0000
# 6 0.0000 0.0000 0.0000 0.0000 0.0000 18.1016
#
#
#
# Elastic Compliance Matrix: (Units=1/GPa)
#
#
# Indices 1 2 3 4 5 6 
#
# 1 0.014394 -0.003648 -0.007918 0.000000 0.000000 0.000000
# 2 -0.003648 0.012058 -0.002410 0.000000 0.000000 0.000000
# 3 -0.007918 -0.002410 0.019293 0.000000 0.000000 0.000000
# 4 0.000000 0.000000 0.000000 0.038109 0.000000 0.000000
# 5 0.000000 0.000000 0.000000 0.000000 0.056726 0.000000
# 6 0.000000 0.000000 0.000000 0.000000 0.000000 0.055244
#
#
# Mechanical properties :
#
#
# Convention : Reuss Voigt Hill
#
# Bulk Modulus (GPa) = 56.19919 58.71829 57.45874
# Shear Modulus (GPa) = 21.76672 23.27201 22.51936
#
# Velocity S-wave (km/s) = 3.44660 3.56378 3.50568
# Velocity P-wave (km/s) = 6.81976 6.99851 6.90971
#
# Compressibility (1/GPa) = 0.01779385
#
# Stress axis : x y z
#
# Youngs Moduli (GPa) = 69.47370 82.92925 51.83099
#
# Poissons Ratio (x) = 0.30253 0.41037
# Poissons Ratio (y) = 0.25344 0.12494
# Poissons Ratio (z) = 0.55006 0.19990
#
# Static dielectric constant tensor:
#      x y z
#    x 1.614900 0.000000 0.000000 
#    y 0.000000 1.642430 0.000000 
#    z 0.000000 0.000000 1.621570 
# 
# From -- ./inp_files/9004.got.cif
#   From: 2010.05.17/outbox.cif.g08.bks.cpg/sg59_5_cif.got.tgz:9004.got - 2010.06.03 14:40:33.
