data_PCOD9453903
_publ_section_title
;
Structure prediction by ZEFSAII (Michael W. Deem and Ramdas Pophale) SiO2 
 PCOD9453903
Probable space group: P B C N
;
_chemical_formula_sum "Si O2"
_cell_formula_units_Z 40
_cell_length_a 10.456895
_cell_length_b 13.789400
_cell_length_c 8.934785
_cell_angle_alpha 90.000000
_cell_angle_beta 90.000000
_cell_angle_gamma 90.000000
_cell_volume 1288.345139
_symmetry_space_group_name_H-M "P B C N"
_symmetry_group_IT_number 60
_symmetry_cell_setting 'orthorhombic'
loop_
_space_group_symop_operation_xyz
x,y,z
1/2-x,1/2-y,1/2+z
1/2+x,1/2-y,-z
-x,y,1/2-z
-x,-y,-z
1/2+x,1/2+y,1/2-z
1/2-x,1/2+y,z
x,-y,1/2+z
loop_
_atom_site_type_symbol
_atom_site_label
_atom_site_fract_x
_atom_site_fract_y
_atom_site_fract_z
Si Si1 0.500000 0.000000 0.000000
Si Si2 0.890095 0.611205 0.696145
Si Si3 0.500000 0.159660 0.250000
Si Si4 0.319097 0.402820 0.465517
Si Si5 0.832320 0.767930 0.496711
Si Si6 0.609664 0.559035 0.829649
O O1 0.345680 0.064893 0.975880
O O2 0.445659 0.917353 0.868855
O O3 0.738190 0.593398 0.729141
O O4 0.893423 0.723743 0.646349
O O5 0.955486 0.579513 0.856784
O O6 0.405518 0.229841 0.154755
O O7 0.304039 0.286582 0.494569
O O8 0.362309 0.449540 0.622096
O O9 0.449815 0.429035 0.358898
O O10 0.844709 0.881016 0.480255
#
# Coordination Sequence:
#
# PCOD9453903 Si02
#       6
#     4   8   4   8   8   8
#     4  10  18  28  62  98 144 170 214 290 380 440
#     4   9  20  39  63 112 141 177 229 312 390 444
#     4  10  18  36  62  98 136 182 220 294 376 434
#     4  10  27  43  73 109 144 199 261 313 380 468
#     4   9  23  43  69 105 142 186 249 311 374 460
#     4  12  25  53  73 102 153 212 259 315 383 462
#
# _framework density 31.047581999999998
#
# number of rings (size 3 to 8) (size 9 to 14) (size 15 to 20)
#    1.200    0.800    2.000    0.600    5.600    1.600 
#    3.600    1.000    0.000    0.000    0.000    0.000 
#    0.000    0.000    0.000    0.000    0.000    0.000 
#
# Total GULP energy -222889.607134 kJ/mol
# GULP energy per Si atom -5572.240178 kJ/mol
# Density = 3.097692 g / cm^3
# Si number density = 31.047582 Si / 1000 Ang^3
#
#
#
# Elastic Constant Matrix: (Units=GPa)
#
#
# Indices 1 2 3 4 5 6 
#
# 1 282.6456 10.5779 60.4335 0.0000 0.0000 0.0000
# 2 10.5779 83.3023 19.5728 0.0000 0.0000 0.0000
# 3 60.4335 19.5728 219.1471 0.0000 0.0000 0.0000
# 4 0.0000 0.0000 0.0000 78.3308 0.0000 0.0000
# 5 0.0000 0.0000 0.0000 0.0000 84.4467 0.0000
# 6 0.0000 0.0000 0.0000 0.0000 0.0000 51.9699
#
#
#
# Elastic Compliance Matrix: (Units=1/GPa)
#
#
# Indices 1 2 3 4 5 6 
#
# 1 0.003764 -0.000239 -0.001017 0.000000 0.000000 0.000000
# 2 -0.000239 0.012277 -0.001031 0.000000 0.000000 0.000000
# 3 -0.001017 -0.001031 0.004936 0.000000 0.000000 0.000000
# 4 0.000000 0.000000 0.000000 0.012766 0.000000 0.000000
# 5 0.000000 0.000000 0.000000 0.000000 0.011842 0.000000
# 6 0.000000 0.000000 0.000000 0.000000 0.000000 0.019242
#
#
# Mechanical properties :
#
#
# Convention : Reuss Voigt Hill
#
# Bulk Modulus (GPa) = 60.96044 85.14038 73.05041
# Shear Modulus (GPa) = 66.78441 75.91687 71.35064
#
# Velocity S-wave (km/s) = 4.64296 4.95024 4.79906
# Velocity P-wave (km/s) = 6.95844 7.75598 7.36801
#
# Compressibility (1/GPa) = 0.01640408
#
# Stress axis : x y z
#
# Youngs Moduli (GPa) = 265.65104 81.45334 202.61105
#
# Poissons Ratio (x) = 0.01948 0.20600
# Poissons Ratio (y) = 0.06352 0.20880
# Poissons Ratio (z) = 0.27009 0.08394
#
# Static dielectric constant tensor:
#      x y z
#    x 2.566630 0.000000 0.000000 
#    y 0.000000 2.404010 0.000000 
#    z 0.000000 0.000000 2.299020 
# 
# From -- ./inp_files/7259.got.cif
#   From: 2010.05.17/outbox.cif.g08.bks.cpg/sg60_4_cif.got.tgz:7259.got - 2010.06.03 14:59:27.
