data_PCOD9453030
_publ_section_title
;
Structure prediction by ZEFSAII (Michael W. Deem and Ramdas Pophale) SiO2 
 PCOD9453030
Probable space group: P M M N
;
_chemical_formula_sum "Si O2"
_cell_formula_units_Z 48
_cell_length_a 8.727359
_cell_length_b 14.941904
_cell_length_c 20.349288
_cell_angle_alpha 90.000000
_cell_angle_beta 90.000000
_cell_angle_gamma 90.000000
_cell_volume 2653.615536
_symmetry_space_group_name_H-M "P M M N"
_symmetry_group_IT_number 59
_space_group.IT_coordinate_system_code '2'
_symmetry_cell_setting 'orthorhombic'
loop_
_space_group_symop_operation_xyz
x,y,z
1/2-x,1/2-y,z
1/2+x,-y,-z
-x,1/2+y,-z
-x,-y,-z
1/2+x,1/2+y,-z
1/2-x,y,z
x,1/2-y,z
loop_
_atom_site_type_symbol
_atom_site_label
_atom_site_fract_x
_atom_site_fract_y
_atom_site_fract_z
Si Si1 0.564745 0.556001 0.701291
Si Si2 0.424542 0.250000 0.441699
Si Si3 0.566321 0.061676 0.823752
Si Si4 0.933613 0.441870 0.060451
Si Si5 0.931643 0.061829 0.443748
Si Si6 0.422997 0.250000 0.282424
Si Si7 0.066494 0.250000 0.026043
Si Si8 0.066708 0.250000 0.869251
O O1 0.750000 0.564656 0.694915
O O2 0.531732 0.476215 0.751298
O O3 0.496971 0.541973 0.629066
O O4 0.508003 0.652001 0.731242
O O5 0.250000 0.250000 0.466143
O O6 0.514290 0.338220 0.460674
O O7 0.415862 0.250000 0.362049
O O8 0.750000 0.061247 0.832688
O O9 0.502806 0.160270 0.838080
O O10 0.491409 0.992771 0.874940
O O11 0.750000 0.441642 0.057240
O O12 0.996624 0.340879 0.055479
O O13 0.000000 0.500000 0.000000
O O14 0.750000 0.055088 0.442063
O O15 0.000000 0.000000 0.500000
O O16 0.250000 0.250000 0.254534
O O17 0.250000 0.250000 0.034909
O O18 0.034027 0.250000 0.947586
O O19 0.250000 0.250000 0.861494
#
# Coordination Sequence:
#
# PCOD9453030 Si02
#       8
#     8   4   8   8   8   4   4   4
#     4   9  19  36  58  86 117 153 192 235 289 350
#     4   9  17  33  55  81 113 149 190 237 288 345
#     4  11  23  39  62  88 118 154 194 242 296 353
#     4  12  24  39  60  87 117 150 191 240 289 345
#     4  11  21  35  58  87 119 156 197 243 292 347
#     4   7  12  28  54  78 107 142 176 217 273 339
#     4  11  23  40  62  88 116 153 197 246 296 344
#     4  11  23  39  61  83 112 156 201 244 289 350
#
# _framework density 18.088529000000001
#
# number of rings (size 3 to 8) (size 9 to 14) (size 15 to 20)
#    0.000    1.667    1.667    5.250    0.000    2.667 
#    0.000    2.500    0.000    5.000    0.000    0.000 
#    0.000    0.000    0.000    0.000    0.000    0.000 
#
# Total GULP energy -267987.017363 kJ/mol
# GULP energy per Si atom -5583.062862 kJ/mol
# Density = 1.804736 g / cm^3
# Si number density = 18.088529 Si / 1000 Ang^3
#
#
#
# Elastic Constant Matrix: (Units=GPa)
#
#
# Indices 1 2 3 4 5 6 
#
# 1 107.6857 73.8432 61.3929 0.0000 0.0000 0.0000
# 2 73.8432 191.5992 84.6322 0.0000 0.0000 0.0000
# 3 61.3929 84.6322 100.3824 0.0000 0.0000 0.0000
# 4 0.0000 0.0000 0.0000 22.7873 0.0000 0.0000
# 5 0.0000 0.0000 0.0000 0.0000 25.9703 0.0000
# 6 0.0000 0.0000 0.0000 0.0000 0.0000 33.5748
#
#
#
# Elastic Compliance Matrix: (Units=1/GPa)
#
#
# Indices 1 2 3 4 5 6 
#
# 1 0.015133 -0.002779 -0.006912 0.000000 0.000000 0.000000
# 2 -0.002779 0.008827 -0.005742 0.000000 0.000000 0.000000
# 3 -0.006912 -0.005742 0.019030 0.000000 0.000000 0.000000
# 4 0.000000 0.000000 0.000000 0.043884 0.000000 0.000000
# 5 0.000000 0.000000 0.000000 0.000000 0.038506 0.000000
# 6 0.000000 0.000000 0.000000 0.000000 0.000000 0.029784
#
#
# Mechanical properties :
#
#
# Convention : Reuss Voigt Hill
#
# Bulk Modulus (GPa) = 82.48511 93.26709 87.87610
# Shear Modulus (GPa) = 26.30602 28.45307 27.37954
#
# Velocity S-wave (km/s) = 3.81766 3.97040 3.89477
# Velocity P-wave (km/s) = 8.07047 8.52597 8.30134
#
# Compressibility (1/GPa) = 0.01212340
#
# Stress axis : x y z
#
# Youngs Moduli (GPa) = 66.08289 113.29318 52.54787
#
# Poissons Ratio (x) = 0.31485 0.36320
# Poissons Ratio (y) = 0.18365 0.30173
# Poissons Ratio (z) = 0.45676 0.65054
#
# Static dielectric constant tensor:
#      x y z
#    x 1.622390 0.000000 0.000000 
#    y 0.000000 1.625590 0.000000 
#    z 0.000000 0.000000 1.603610 
# 
# From -- ./inp_files/25685.got.cif
#   From: 2010.05.17/outbox.cif.g08.bks.cpg/sg59_13_cif.got.tgz:25685.got - 2010.06.03 14:40:33.
