data_PCOD9453841
_publ_section_title
;
Structure prediction by ZEFSAII (Michael W. Deem and Ramdas Pophale) SiO2 
 PCOD9453841
Probable space group: P B C N
;
_chemical_formula_sum "Si O2"
_cell_formula_units_Z 60
_cell_length_a 18.288992
_cell_length_b 9.638690
_cell_length_c 15.694636
_cell_angle_alpha 90.000000
_cell_angle_beta 90.000000
_cell_angle_gamma 90.000000
_cell_volume 2766.680635
_symmetry_space_group_name_H-M "P B C N"
_symmetry_group_IT_number 60
_symmetry_cell_setting 'orthorhombic'
loop_
_space_group_symop_operation_xyz
x,y,z
1/2-x,1/2-y,1/2+z
1/2+x,1/2-y,-z
-x,y,1/2-z
-x,-y,-z
1/2+x,1/2+y,1/2-z
1/2-x,1/2+y,z
x,-y,1/2+z
loop_
_atom_site_type_symbol
_atom_site_label
_atom_site_fract_x
_atom_site_fract_y
_atom_site_fract_z
Si Si1 0.342992 0.768713 0.737342
Si Si2 0.899621 0.759025 0.070250
Si Si3 0.676367 0.531221 0.064312
Si Si4 0.835432 0.507490 0.001625
Si Si5 0.251109 0.039717 0.756615
Si Si6 0.867696 0.695710 0.643276
Si Si7 0.500000 0.868247 0.250000
Si Si8 0.953110 0.613248 0.375373
O O1 0.357961 0.759241 0.838770
O O2 0.305265 0.629471 0.701784
O O3 0.296700 0.910165 0.722225
O O4 0.421286 0.784271 0.694978
O O5 0.888051 0.920765 0.049576
O O6 0.855669 0.669040 0.001185
O O7 0.979459 0.689178 0.078258
O O8 0.747506 0.498106 0.006223
O O9 0.707795 0.512632 0.160453
O O10 0.648898 0.688610 0.072304
O O11 0.867512 0.448341 0.091164
O O12 0.884893 0.426560 0.934875
O O13 0.303546 0.163508 0.790006
O O14 0.938374 0.718914 0.701203
O O15 0.472752 0.973052 0.175967
#
# Coordination Sequence:
#
# PCOD9453841 Si02
#       8
#     8   8   8   8   8   8   4   8
#     4  11  19  36  59  87 127 153 211 259 307 364
#     4  11  20  39  66  88 121 166 207 257 310 380
#     4  10  21  39  62  91 121 165 215 249 318 373
#     4  11  21  38  68  86 118 167 216 254 304 381
#     4  10  17  33  60  84 113 164 202 260 299 361
#     4  11  20  39  61  89 122 165 211 256 314 370
#     4  12  22  38  64  96 126 164 216 258 308 386
#     4  12  22  39  63  97 125 164 211 262 308 378
#
# _framework density 21.686637000000001
#
# number of rings (size 3 to 8) (size 9 to 14) (size 15 to 20)
#    0.000    1.067    8.000    2.000    0.000    0.000 
#    9.600    0.667    0.000    0.000    0.000    0.000 
#    0.000    0.000    0.000    0.000    0.000    0.000 
#
# Total GULP energy -334401.039191 kJ/mol
# GULP energy per Si atom -5573.350653 kJ/mol
# Density = 2.163728 g / cm^3
# Si number density = 21.686637 Si / 1000 Ang^3
#
#
#
# Elastic Constant Matrix: (Units=GPa)
#
#
# Indices 1 2 3 4 5 6 
#
# 1 56.4874 19.4063 22.7679 0.0000 0.0000 0.0000
# 2 19.4063 76.9762 -0.0833 0.0000 0.0000 0.0000
# 3 22.7679 -0.0833 18.7863 0.0000 0.0000 0.0000
# 4 0.0000 0.0000 0.0000 0.2834 0.0000 0.0000
# 5 0.0000 0.0000 0.0000 0.0000 32.6122 0.0000
# 6 0.0000 0.0000 0.0000 0.0000 0.0000 20.3646
#
#
#
# Elastic Compliance Matrix: (Units=1/GPa)
#
#
# Indices 1 2 3 4 5 6 
#
# 1 0.041753 -0.010581 -0.050649 0.000000 0.000000 0.000000
# 2 -0.010581 0.015673 0.012893 0.000000 0.000000 0.000000
# 3 -0.050649 0.012893 0.114671 0.000000 0.000000 0.000000
# 4 0.000000 0.000000 0.000000 3.528023 0.000000 0.000000
# 5 0.000000 0.000000 0.000000 0.000000 0.030663 0.000000
# 6 0.000000 0.000000 0.000000 0.000000 0.000000 0.049105
#
#
# Mechanical properties :
#
#
# Convention : Reuss Voigt Hill
#
# Bulk Modulus (GPa) = 13.25860 26.27019 19.76439
# Shear Modulus (GPa) = 1.28149 17.99599 9.63874
#
# Velocity S-wave (km/s) = 0.76954 2.88378 2.11050
# Velocity P-wave (km/s) = 2.62994 4.81955 3.88231
#
# Compressibility (1/GPa) = 0.07542276
#
# Stress axis : x y z
#
# Youngs Moduli (GPa) = 23.95054 63.80585 8.72060
#
# Poissons Ratio (x) = 0.67513 0.44169
# Poissons Ratio (y) = 0.25342 -0.11244
# Poissons Ratio (z) = 1.21307 -0.82265
#
# Static dielectric constant tensor:
#      x y z
#    x 1.891070 0.000000 0.000000 
#    y 0.000000 1.824750 0.000000 
#    z 0.000000 0.000000 1.644290 
# 
# From -- ./inp_files/20877.got.cif
#   From: 2010.05.17/outbox.cif.g08.bks.cpg/sg60_11_cif.got.tgz:20877.got - 2010.06.03 14:59:27.
