data_PCOD9453979
_publ_section_title
;
Structure prediction by ZEFSAII (Michael W. Deem and Ramdas Pophale) SiO2 
 PCOD9453979
Probable space group: P B C N
;
_chemical_formula_sum "Si O2"
_cell_formula_units_Z 48
_cell_length_a 28.873756
_cell_length_b 6.889367
_cell_length_c 10.276967
_cell_angle_alpha 90.000000
_cell_angle_beta 90.000000
_cell_angle_gamma 90.000000
_cell_volume 2044.313820
_symmetry_space_group_name_H-M "P B C N"
_symmetry_group_IT_number 60
_symmetry_cell_setting 'orthorhombic'
loop_
_space_group_symop_operation_xyz
x,y,z
1/2-x,1/2-y,1/2+z
1/2+x,1/2-y,-z
-x,y,1/2-z
-x,-y,-z
1/2+x,1/2+y,1/2-z
1/2-x,1/2+y,z
x,-y,1/2+z
loop_
_atom_site_type_symbol
_atom_site_label
_atom_site_fract_x
_atom_site_fract_y
_atom_site_fract_z
Si Si1 0.046901 0.695161 0.915936
Si Si2 0.183697 0.213630 0.738245
Si Si3 0.354075 0.261451 0.962190
Si Si4 0.147690 0.291297 0.003464
Si Si5 0.052443 0.655123 0.619130
Si Si6 0.291284 0.835880 0.232673
O O1 0.093124 0.820531 0.932668
O O2 0.053472 0.602656 0.771748
O O3 0.994538 0.776079 0.909297
O O4 0.047784 0.537511 0.031312
O O5 0.162123 0.156025 0.600443
O O6 0.153526 0.182757 0.867176
O O7 0.188740 0.447470 0.734001
O O8 0.236688 0.147353 0.750235
O O9 0.316957 0.282829 0.846285
O O10 0.355271 0.024429 0.978342
O O11 0.100569 0.246342 0.080116
O O12 0.192846 0.257056 0.092588
#
# Coordination Sequence:
#
# PCOD9453979 Si02
#       6
#     8   8   8   8   8   8
#     4   9  16  25  39  60  87 117 147 178 218 270
#     4  10  20  30  47  63  91 117 154 180 223 256
#     4   9  17  28  42  62  87 118 145 180 221 263
#     4   9  17  28  42  62  87 118 145 180 221 263
#     4   9  16  25  39  60  87 117 147 178 218 270
#     4  10  18  32  45  65  87 119 150 186 215 264
#
# _framework density 23.479762000000001
#
# number of rings (size 3 to 8) (size 9 to 14) (size 15 to 20)
#    0.000    2.667    1.667    1.000    7.000    0.000 
#    0.000    0.000    0.000    0.000    0.000    0.000 
#    0.000    8.000    0.000    0.000    0.000    0.000 
#
# Total GULP energy -267992.891415 kJ/mol
# GULP energy per Si atom -5583.185238 kJ/mol
# Density = 2.342632 g / cm^3
# Si number density = 23.479762 Si / 1000 Ang^3
#
#
#
# Elastic Constant Matrix: (Units=GPa)
#
#
# Indices 1 2 3 4 5 6 
#
# 1 106.5735 -22.7020 2.5273 0.0000 0.0000 0.0000
# 2 -22.7020 60.7134 -17.0457 0.0000 0.0000 0.0000
# 3 2.5273 -17.0457 95.3128 0.0000 0.0000 0.0000
# 4 0.0000 0.0000 0.0000 -5.5986 0.0000 0.0000
# 5 0.0000 0.0000 0.0000 0.0000 40.6259 0.0000
# 6 0.0000 0.0000 0.0000 0.0000 0.0000 13.6948
#
#
#
# Elastic Compliance Matrix: (Units=1/GPa)
#
#
# Indices 1 2 3 4 5 6 
#
# 1 0.010212 0.003940 0.000434 0.000000 0.000000 0.000000
# 2 0.003940 0.018862 0.003269 0.000000 0.000000 0.000000
# 3 0.000434 0.003269 0.011065 0.000000 0.000000 0.000000
# 4 0.000000 0.000000 0.000000 -0.178615 0.000000 0.000000
# 5 0.000000 0.000000 0.000000 0.000000 0.024615 0.000000
# 6 0.000000 0.000000 0.000000 0.000000 0.000000 0.073020
#
#
# Mechanical properties :
#
#
# Convention : Reuss Voigt Hill
#
# Bulk Modulus (GPa) = 18.04230 20.90655 19.47442
# Shear Modulus (GPa) = -132.79550 29.73242 -51.53154
#
# Velocity S-wave (km/s) = -7.52863 3.56237 -4.68987
# Velocity P-wave (km/s) = 8.23849 5.08370 4.58414
#
# Compressibility (1/GPa) = 0.05542530
#
# Stress axis : x y z
#
# Youngs Moduli (GPa) = 97.92124 53.01677 90.37630
#
# Poissons Ratio (x) = -0.20891 -0.03922
# Poissons Ratio (y) = -0.38585 -0.29542
# Poissons Ratio (z) = -0.04249 -0.17330
#
# Static dielectric constant tensor:
#      x y z
#    x 1.889880 0.000000 0.000000 
#    y 0.000000 1.961410 0.000000 
#    z 0.000000 0.000000 1.874700 
# 
# From -- ./inp_files/13101.got.cif
#   From: 2010.05.17/outbox.cif.g08.bks.cpg/sg60_7_cif.got.tgz:13101.got - 2010.06.03 14:59:27.
