data_PCOD9453269
_publ_section_title
;
Structure prediction by ZEFSAII (Michael W. Deem and Ramdas Pophale) SiO2 
 PCOD9453269
Probable space group: P M M N
;
_chemical_formula_sum "Si O2"
_cell_formula_units_Z 56
_cell_length_a 14.409623
_cell_length_b 8.145191
_cell_length_c 21.109577
_cell_angle_alpha 90.000000
_cell_angle_beta 90.000000
_cell_angle_gamma 90.000000
_cell_volume 2477.612720
_symmetry_space_group_name_H-M "P M M N"
_symmetry_group_IT_number 59
_space_group.IT_coordinate_system_code '2'
_symmetry_cell_setting 'orthorhombic'
loop_
_space_group_symop_operation_xyz
x,y,z
1/2-x,1/2-y,z
1/2+x,-y,-z
-x,1/2+y,-z
-x,-y,-z
1/2+x,1/2+y,-z
1/2-x,y,z
x,1/2-y,z
loop_
_atom_site_type_symbol
_atom_site_label
_atom_site_fract_x
_atom_site_fract_y
_atom_site_fract_z
Si Si1 0.894147 0.435312 0.424376
Si Si2 0.150638 0.449120 0.119413
Si Si3 0.151307 0.561026 0.313619
Si Si4 0.116762 0.431645 0.443419
Si Si5 0.057745 0.447408 0.847074
Si Si6 0.443414 0.448737 0.709273
Si Si7 0.103333 0.447407 0.981709
O O1 0.860463 0.250000 0.428284
O O2 0.856273 0.534199 0.484330
O O3 0.005099 0.435201 0.437426
O O4 0.886670 0.498303 0.352680
O O5 0.250000 0.501234 0.148310
O O6 0.146011 0.250000 0.122142
O O7 0.052603 0.513005 0.146043
O O8 0.154807 0.500676 0.045233
O O9 0.250000 0.484352 0.293788
O O10 0.150827 0.750000 0.292010
O O11 0.150112 0.555958 0.390191
O O12 0.050966 0.489024 0.295264
O O13 0.146681 0.250000 0.424371
O O14 0.064944 0.250000 0.847812
O O15 0.091612 0.503472 0.778147
O O16 0.112850 0.509030 0.909438
O O17 0.446899 0.250000 0.707364
O O18 0.113602 0.250000 0.979376
O O19 0.000000 0.500000 0.000000
#
# Coordination Sequence:
#
# PCOD9453269 Si02
#       7
#     8   8   8   8   8   8   8
#     4   9  16  26  41  60  80 102 131 167 206 245
#     4   9  17  28  42  61  85 112 141 174 213 257
#     4   9  17  28  40  55  79 110 139 166 200 246
#     4   9  16  26  41  59  78 101 131 170 208 238
#     4   9  17  28  43  62  84 112 144 178 214 253
#     4   9  17  28  41  59  83 110 140 171 205 245
#     4   8  14  26  42  59  80 106 138 175 213 251
#
# _framework density 22.602401
#
# number of rings (size 3 to 8) (size 9 to 14) (size 15 to 20)
#    0.000    3.143    0.000    0.857    0.000    5.143 
#    0.000    1.429    0.000    0.000    0.000    1.000 
#    0.000    3.429    0.000    0.000    0.000    0.000 
#
# Total GULP energy -311758.818967 kJ/mol
# GULP energy per Si atom -5567.121767 kJ/mol
# Density = 2.255096 g / cm^3
# Si number density = 22.602401 Si / 1000 Ang^3
#
#
#
# Elastic Constant Matrix: (Units=GPa)
#
#
# Indices 1 2 3 4 5 6 
#
# 1 37.6028 -7.2197 -11.9822 0.0000 0.0000 0.0000
# 2 -7.2197 22.7876 6.9023 0.0000 0.0000 0.0000
# 3 -11.9822 6.9023 176.0416 0.0000 0.0000 0.0000
# 4 0.0000 0.0000 0.0000 16.9130 0.0000 0.0000
# 5 0.0000 0.0000 0.0000 0.0000 -14.0845 0.0000
# 6 0.0000 0.0000 0.0000 0.0000 0.0000 -7.5493
#
#
#
# Elastic Compliance Matrix: (Units=1/GPa)
#
#
# Indices 1 2 3 4 5 6 
#
# 1 0.028766 0.008623 0.001620 0.000000 0.000000 0.000000
# 2 0.008623 0.046996 -0.001256 0.000000 0.000000 0.000000
# 3 0.001620 -0.001256 0.005840 0.000000 0.000000 0.000000
# 4 0.000000 0.000000 0.000000 0.059126 0.000000 0.000000
# 5 0.000000 0.000000 0.000000 0.000000 -0.071000 0.000000
# 6 0.000000 0.000000 0.000000 0.000000 0.000000 -0.132463
#
#
# Mechanical properties :
#
#
# Convention : Reuss Voigt Hill
#
# Bulk Modulus (GPa) = 10.04262 23.53697 16.78980
# Shear Modulus (GPa) = -105.22418 15.63795 -44.79312
#
# Velocity S-wave (km/s) = -6.83048 2.63320 -4.45655
# Velocity P-wave (km/s) = 7.59964 4.43633 4.36311
#
# Compressibility (1/GPa) = 0.09957558
#
# Stress axis : x y z
#
# Youngs Moduli (GPa) = 34.76380 21.27849 171.23399
#
# Poissons Ratio (x) = -0.18348 -0.27737
# Poissons Ratio (y) = -0.29977 0.21502
# Poissons Ratio (z) = -0.05631 0.02672
#
# Static dielectric constant tensor:
#      x y z
#    x 1.883580 0.000000 0.000000 
#    y 0.000000 1.802770 0.000000 
#    z 0.000000 0.000000 1.890010 
# 
# From -- ./inp_files/26059.got.cif
#   From: 2010.05.17/outbox.cif.g08.bks.cpg/sg59_14_cif.got.tgz:26059.got - 2010.06.03 14:40:33.
