data_PCOD9453751
_publ_section_title
;
Structure prediction by ZEFSAII (Michael W. Deem and Ramdas Pophale) SiO2 
 PCOD9453751
Probable space group: P B C N
;
_chemical_formula_sum "Si O2"
_cell_formula_units_Z 56
_cell_length_a 9.307206
_cell_length_b 14.206595
_cell_length_c 23.259974
_cell_angle_alpha 90.000000
_cell_angle_beta 90.000000
_cell_angle_gamma 90.000000
_cell_volume 3075.519969
_symmetry_space_group_name_H-M "P B C N"
_symmetry_group_IT_number 60
_symmetry_cell_setting 'orthorhombic'
loop_
_space_group_symop_operation_xyz
x,y,z
1/2-x,1/2-y,1/2+z
1/2+x,1/2-y,-z
-x,y,1/2-z
-x,-y,-z
1/2+x,1/2+y,1/2-z
1/2-x,1/2+y,z
x,-y,1/2+z
loop_
_atom_site_type_symbol
_atom_site_label
_atom_site_fract_x
_atom_site_fract_y
_atom_site_fract_z
Si Si1 0.000993 0.884699 0.682420
Si Si2 0.720895 0.528433 0.626944
Si Si3 0.411540 0.858777 0.912856
Si Si4 0.741433 0.158229 0.400965
Si Si5 0.395423 0.587091 0.994429
Si Si6 0.938809 0.711934 0.964586
Si Si7 0.327076 0.214377 0.868882
O O1 0.909977 0.968316 0.652670
O O2 0.917395 0.787381 0.669309
O O3 0.000000 0.901174 0.750000
O O4 0.155699 0.872750 0.651441
O O5 0.845207 0.454272 0.612042
O O6 0.670823 0.576746 0.567826
O O7 0.777274 0.618690 0.661849
O O8 0.573021 0.842160 0.891193
O O9 0.305805 0.775556 0.892590
O O10 0.411901 0.857203 0.982634
O O11 0.778040 0.089025 0.454632
O O12 0.801238 0.258210 0.425956
O O13 0.500000 0.500000 0.000000
O O14 0.475269 0.686562 0.005571
O O15 0.067210 0.687683 0.921899
#
# Coordination Sequence:
#
# PCOD9453751 Si02
#       7
#     8   8   8   8   8   8   8
#     4  10  22  44  63  78 114 156 201 249 295 344
#     4  11  21  36  61  87 115 158 195 239 297 354
#     4  11  19  33  54  87 121 146 190 240 285 352
#     4   9  20  33  56  83 114 153 189 232 300 348
#     4  10  16  32  54  83 116 151 187 224 284 362
#     4   9  18  33  52  80 123 160 179 223 297 363
#     4  10  20  38  57  81 118 156 192 235 295 346
#
# _framework density 18.208303000000001
#
# number of rings (size 3 to 8) (size 9 to 14) (size 15 to 20)
#    0.857    1.143    2.857    2.571    0.000    2.286 
#    0.000   10.000    0.000    0.000    0.000    0.000 
#    0.000    0.000    0.000    0.000    0.000    0.000 
#
# Total GULP energy -311982.246331 kJ/mol
# GULP energy per Si atom -5571.111542 kJ/mol
# Density = 1.816686 g / cm^3
# Si number density = 18.208303 Si / 1000 Ang^3
#
#
#
# Elastic Constant Matrix: (Units=GPa)
#
#
# Indices 1 2 3 4 5 6 
#
# 1 81.0422 -2.7650 17.8126 0.0000 0.0000 0.0000
# 2 -2.7650 58.3668 -3.5744 0.0000 0.0000 0.0000
# 3 17.8126 -3.5744 75.0161 0.0000 0.0000 0.0000
# 4 0.0000 0.0000 0.0000 8.7516 0.0000 0.0000
# 5 0.0000 0.0000 0.0000 0.0000 3.8222 0.0000
# 6 0.0000 0.0000 0.0000 0.0000 0.0000 15.2183
#
#
#
# Elastic Compliance Matrix: (Units=1/GPa)
#
#
# Indices 1 2 3 4 5 6 
#
# 1 0.013029 0.000429 -0.003073 0.000000 0.000000 0.000000
# 2 0.000429 0.017197 0.000718 0.000000 0.000000 0.000000
# 3 -0.003073 0.000718 0.014094 0.000000 0.000000 0.000000
# 4 0.000000 0.000000 0.000000 0.114265 0.000000 0.000000
# 5 0.000000 0.000000 0.000000 0.000000 0.261626 0.000000
# 6 0.000000 0.000000 0.000000 0.000000 0.000000 0.065710
#
#
# Mechanical properties :
#
#
# Convention : Reuss Voigt Hill
#
# Bulk Modulus (GPa) = 24.71119 26.37461 25.54290
# Shear Modulus (GPa) = 9.93512 19.08855 14.51184
#
# Velocity S-wave (km/s) = 2.33842 3.24133 2.82616
# Velocity P-wave (km/s) = 4.57075 5.34085 4.97074
#
# Compressibility (1/GPa) = 0.04046750
#
# Stress axis : x y z
#
# Youngs Moduli (GPa) = 76.74949 58.14867 70.94996
#
# Poissons Ratio (x) = -0.02495 0.21806
# Poissons Ratio (y) = -0.03293 -0.05091
# Poissons Ratio (z) = 0.23588 -0.04172
#
# Static dielectric constant tensor:
#      x y z
#    x 1.682880 0.000000 0.000000 
#    y 0.000000 1.672800 0.000000 
#    z 0.000000 0.000000 1.647150 
# 
# From -- ./inp_files/24119.got.cif
#   From: 2010.05.17/outbox.cif.g08.bks.cpg/sg60_13_cif.got.tgz:24119.got - 2010.06.03 14:59:27.
