data_PCOD9453296
_publ_section_title
;
Structure prediction by ZEFSAII (Michael W. Deem and Ramdas Pophale) SiO2 
 PCOD9453296
Probable space group: P M M N
;
_chemical_formula_sum "Si O2"
_cell_formula_units_Z 64
_cell_length_a 14.793665
_cell_length_b 21.728401
_cell_length_c 10.699729
_cell_angle_alpha 90.000000
_cell_angle_beta 90.000000
_cell_angle_gamma 90.000000
_cell_volume 3439.349623
_symmetry_space_group_name_H-M "P M M N"
_symmetry_group_IT_number 59
_space_group.IT_coordinate_system_code '2'
_symmetry_cell_setting 'orthorhombic'
loop_
_space_group_symop_operation_xyz
x,y,z
1/2-x,1/2-y,z
1/2+x,-y,-z
-x,1/2+y,-z
-x,-y,-z
1/2+x,1/2+y,-z
1/2-x,y,z
x,1/2-y,z
loop_
_atom_site_type_symbol
_atom_site_label
_atom_site_fract_x
_atom_site_fract_y
_atom_site_fract_z
Si Si1 0.550279 0.817833 0.016975
Si Si2 0.386261 0.990571 0.628580
Si Si3 0.098011 0.048526 0.370624
Si Si4 0.951215 0.680576 0.717620
Si Si5 0.847232 0.353197 0.982119
Si Si6 0.097096 0.053444 0.880768
Si Si7 0.615749 0.018810 0.877158
Si Si8 0.847138 0.140938 0.276559
O O1 0.585143 0.750000 0.047843
O O2 0.441670 0.819241 0.040009
O O3 0.593184 0.874009 0.092444
O O4 0.561977 0.828185 0.867506
O O5 0.362166 0.024835 0.500791
O O6 0.363795 0.031868 0.749162
O O7 0.494032 0.975868 0.628440
O O8 0.346822 0.922829 0.648793
O O9 0.093677 0.122227 0.350892
O O10 0.140322 0.016374 0.248953
O O11 0.921075 0.750000 0.685367
O O12 0.059803 0.675852 0.694728
O O13 0.750000 0.321130 0.967995
O O14 0.847156 0.413084 0.895463
O O15 0.852722 0.373824 0.127918
O O16 0.992963 0.029359 0.878470
O O17 0.139943 0.020611 0.000817
O O18 0.750000 0.172692 0.296470
#
# Coordination Sequence:
#
# PCOD9453296 Si02
#       8
#     8   8   8   8   8   8   8   8
#     4   9  16  25  39  60  86 116 146 174 206 249
#     4   9  16  26  41  61  82 106 137 177 220 250
#     4   9  16  26  41  61  82 106 137 177 220 250
#     4   9  16  26  40  60  87 116 144 172 204 248
#     4   9  16  25  39  60  86 116 146 174 206 249
#     4   9  14  24  41  58  78 104 135 172 213 249
#     4   9  14  24  41  58  78 104 135 172 213 249
#     4   9  16  26  40  60  87 116 144 172 204 248
#
# _framework density 18.608169
#
# number of rings (size 3 to 8) (size 9 to 14) (size 15 to 20)
#    0.000    3.000    2.500    0.000    0.000    0.500 
#    0.000    3.750    0.000    0.000    0.000    0.000 
#    0.000   16.000    0.000    0.000    0.000    0.000 
#
# Total GULP energy -356388.717375 kJ/mol
# GULP energy per Si atom -5568.573709 kJ/mol
# Density = 1.856582 g / cm^3
# Si number density = 18.608169 Si / 1000 Ang^3
#
#
#
# Elastic Constant Matrix: (Units=GPa)
#
#
# Indices 1 2 3 4 5 6 
#
# 1 24.9592 -5.8010 2.4795 0.0000 0.0000 0.0000
# 2 -5.8010 136.8715 59.9604 0.0000 0.0000 0.0000
# 3 2.4795 59.9604 99.8428 0.0000 0.0000 0.0000
# 4 0.0000 0.0000 0.0000 14.4560 0.0000 0.0000
# 5 0.0000 0.0000 0.0000 0.0000 0.2345 0.0000
# 6 0.0000 0.0000 0.0000 0.0000 0.0000 -5.7630
#
#
#
# Elastic Compliance Matrix: (Units=1/GPa)
#
#
# Indices 1 2 3 4 5 6 
#
# 1 0.041033 0.002966 -0.002800 0.000000 0.000000 0.000000
# 2 0.002966 0.010129 -0.006157 0.000000 0.000000 0.000000
# 3 -0.002800 -0.006157 0.013783 0.000000 0.000000 0.000000
# 4 0.000000 0.000000 0.000000 0.069176 0.000000 0.000000
# 5 0.000000 0.000000 0.000000 0.000000 4.264245 0.000000
# 6 0.000000 0.000000 0.000000 0.000000 0.000000 -0.173521
#
#
# Mechanical properties :
#
#
# Convention : Reuss Voigt Hill
#
# Bulk Modulus (GPa) = 18.88127 41.66126 30.27127
# Shear Modulus (GPa) = 1.17523 15.45447 8.31485
#
# Velocity S-wave (km/s) = 0.79557 2.88500 2.11615
# Velocity P-wave (km/s) = 3.31854 5.79094 4.71952
#
# Compressibility (1/GPa) = 0.05296253
#
# Stress axis : x y z
#
# Youngs Moduli (GPa) = 24.37073 98.72790 72.55545
#
# Poissons Ratio (x) = -0.29280 0.20316
# Poissons Ratio (y) = -0.07228 0.44669
# Poissons Ratio (z) = 0.06824 0.60782
#
# Static dielectric constant tensor:
#      x y z
#    x 1.692920 0.000000 0.000000 
#    y 0.000000 1.628100 0.000000 
#    z 0.000000 0.000000 1.622070 
# 
# From -- ./inp_files/18013.got.cif
#   From: 2010.05.17/outbox.cif.g08.bks.cpg/sg59_10_cif.got.tgz:18013.got - 2010.06.03 14:40:33.
