data_PCOD9453284
_publ_section_title
;
Structure prediction by ZEFSAII (Michael W. Deem and Ramdas Pophale) SiO2 
 PCOD9453284
Probable space group: P M M N
;
_chemical_formula_sum "Si O2"
_cell_formula_units_Z 56
_cell_length_a 7.383066
_cell_length_b 14.407723
_cell_length_c 21.006536
_cell_angle_alpha 90.000000
_cell_angle_beta 90.000000
_cell_angle_gamma 90.000000
_cell_volume 2234.531821
_symmetry_space_group_name_H-M "P M M N"
_symmetry_group_IT_number 59
_space_group.IT_coordinate_system_code '2'
_symmetry_cell_setting 'orthorhombic'
loop_
_space_group_symop_operation_xyz
x,y,z
1/2-x,1/2-y,z
1/2+x,-y,-z
-x,1/2+y,-z
-x,-y,-z
1/2+x,1/2+y,-z
1/2-x,y,z
x,1/2-y,z
loop_
_atom_site_type_symbol
_atom_site_label
_atom_site_fract_x
_atom_site_fract_y
_atom_site_fract_z
Si Si1 0.463773 0.891922 0.513742
Si Si2 0.966514 0.443222 0.353156
Si Si3 0.970067 0.894636 0.055377
Si Si4 0.456080 0.390464 0.080105
Si Si5 0.533233 0.943279 0.787039
Si Si6 0.957066 0.848716 0.374636
Si Si7 0.960559 0.348346 0.803905
O O1 0.250000 0.870624 0.511617
O O2 0.546793 0.846834 0.451524
O O3 0.500000 0.000000 0.500000
O O4 0.530523 0.882637 0.586437
O O5 0.750000 0.450636 0.362302
O O6 0.038050 0.550414 0.356633
O O7 0.000955 0.404478 0.283111
O O8 0.750000 0.896887 0.053881
O O9 0.028748 0.845930 0.119604
O O10 0.033620 0.855802 0.987151
O O11 0.042166 0.998915 0.066071
O O12 0.250000 0.356039 0.083815
O O13 0.536515 0.386771 0.151255
O O14 0.750000 0.949487 0.796764
O O15 0.461683 0.050154 0.786756
O O16 0.750000 0.849867 0.351401
O O17 0.041488 0.750000 0.354894
O O18 0.750000 0.350014 0.784434
O O19 0.040546 0.250000 0.781477
#
# Coordination Sequence:
#
# PCOD9453284 Si02
#       7
#     8   8   8   8   8   8   8
#     4   9  17  30  47  66  89 116 147 184 224 263
#     4   9  18  30  43  63  92 121 146 178 221 261
#     4   9  15  24  41  61  78 100 135 176 211 244
#     4   8  15  27  40  57  82 106 130 168 214 249
#     4   9  17  28  42  60  83 114 148 175 203 248
#     4   9  18  32  48  67  92 119 147 182 223 264
#     4   9  18  31  42  55  83 118 145 173 212 254
#
# _framework density 25.061181000000001
#
# number of rings (size 3 to 8) (size 9 to 14) (size 15 to 20)
#    0.000    3.143    0.000    2.571    0.000    6.857 
#    0.000    0.000    0.000    0.000    0.000    1.000 
#    0.000    1.143    0.000    0.000    0.000    0.000 
#
# Total GULP energy -312074.444939 kJ/mol
# GULP energy per Si atom -5572.757945 kJ/mol
# Density = 2.500414 g / cm^3
# Si number density = 25.061181 Si / 1000 Ang^3
#
#
#
# Elastic Constant Matrix: (Units=GPa)
#
#
# Indices 1 2 3 4 5 6 
#
# 1 104.8430 -2.3142 -9.2189 0.0000 0.0000 0.0000
# 2 -2.3142 49.3883 1.9513 0.0000 0.0000 0.0000
# 3 -9.2189 1.9513 233.9676 0.0000 0.0000 0.0000
# 4 0.0000 0.0000 0.0000 -32.7354 0.0000 0.0000
# 5 0.0000 0.0000 0.0000 0.0000 22.3062 0.0000
# 6 0.0000 0.0000 0.0000 0.0000 0.0000 -11.8628
#
#
#
# Elastic Compliance Matrix: (Units=1/GPa)
#
#
# Indices 1 2 3 4 5 6 
#
# 1 0.009581 0.000434 0.000374 0.000000 0.000000 0.000000
# 2 0.000434 0.020274 -0.000152 0.000000 0.000000 0.000000
# 3 0.000374 -0.000152 0.004290 0.000000 0.000000 0.000000
# 4 0.000000 0.000000 0.000000 -0.030548 0.000000 0.000000
# 5 0.000000 0.000000 0.000000 0.000000 0.044831 0.000000
# 6 0.000000 0.000000 0.000000 0.000000 0.000000 -0.084297
#
#
# Mechanical properties :
#
#
# Convention : Reuss Voigt Hill
#
# Bulk Modulus (GPa) = 28.20337 41.00393 34.60365
# Shear Modulus (GPa) = -197.13829 22.06031 -87.53899
#
# Velocity S-wave (km/s) = -8.87883 2.97013 -5.91658
# Velocity P-wave (km/s) = 9.68675 5.30653 5.73035
#
# Compressibility (1/GPa) = 0.03545675
#
# Stress axis : x y z
#
# Youngs Moduli (GPa) = 104.37836 49.32413 233.09511
#
# Poissons Ratio (x) = -0.02141 -0.08715
# Poissons Ratio (y) = -0.04532 0.03543
# Poissons Ratio (z) = -0.03902 0.00750
#
# Static dielectric constant tensor:
#      x y z
#    x 1.980680 0.000000 0.000000 
#    y 0.000000 2.006620 0.000000 
#    z 0.000000 0.000000 2.047390 
# 
# From -- ./inp_files/29632.got.cif
#   From: 2010.05.17/outbox.cif.g08.bks.cpg/sg59_15_cif.got.tgz:29632.got - 2010.06.03 14:40:33.
