data_PCOD9453415
_publ_section_title
;
Structure prediction by ZEFSAII (Michael W. Deem and Ramdas Pophale) SiO2 
 PCOD9453415
Probable space group: P M M N
;
_chemical_formula_sum "Si O2"
_cell_formula_units_Z 64
_cell_length_a 9.000000
_cell_length_b 30.000000
_cell_length_c 15.000000
_cell_angle_alpha 90.000000
_cell_angle_beta 90.000000
_cell_angle_gamma 90.000000
_cell_volume 4050.000000
_symmetry_space_group_name_H-M "P M M N"
_symmetry_group_IT_number 59
_space_group.IT_coordinate_system_code '2'
_symmetry_cell_setting 'orthorhombic'
loop_
_space_group_symop_operation_xyz
x,y,z
1/2-x,1/2-y,z
1/2+x,-y,-z
-x,1/2+y,-z
-x,-y,-z
1/2+x,1/2+y,-z
1/2-x,y,z
x,1/2-y,z
loop_
_atom_site_type_symbol
_atom_site_label
_atom_site_fract_x
_atom_site_fract_y
_atom_site_fract_z
Si Si1 0.073045 0.699459 0.321295
Si Si2 0.072052 0.198897 0.977951
Si Si3 0.073925 0.196872 0.301464
Si Si4 0.072441 0.961953 0.116220
Si Si5 0.930334 0.134576 0.833336
Si Si6 0.927427 0.447526 0.092962
Si Si7 0.083960 0.303877 0.502775
Si Si8 0.426428 0.847253 0.859501
O O1 0.250000 0.701801 0.313427
O O2 0.014621 0.750000 0.304616
O O3 0.020025 0.663023 0.251558
O O4 0.028948 0.684923 0.419960
O O5 0.250000 0.195902 0.973333
O O6 0.029189 0.250000 0.954975
O O7 0.014042 0.185923 0.075267
O O8 0.996831 0.162114 0.915342
O O9 0.250000 0.190504 0.281733
O O10 0.045198 0.250000 0.293326
O O11 0.048167 0.182131 0.403122
O O12 0.969476 0.169076 0.237748
O O13 0.250000 0.966455 0.124127
O O14 0.024694 0.917196 0.167509
O O15 0.037724 0.951365 0.012389
O O16 0.999430 0.009240 0.138599
O O17 0.750000 0.135261 0.840712
O O18 0.750000 0.450438 0.102549
O O19 0.973939 0.398559 0.125160
O O20 0.250000 0.319057 0.526665
O O21 0.088144 0.250000 0.498615
O O22 0.250000 0.844469 0.877093
#
# Coordination Sequence:
#
# PCOD9453415 Si02
#       8
#     8   8   8   8   8   8   8   8
#     4   9  17  28  45  69  95 123 154 188 225 268
#     4  11  23  34  44  63  93 128 163 193 221 264
#     4   9  18  32  48  68  95 125 157 192 229 271
#     4   9  17  31  49  67  88 117 153 192 233 276
#     4  10  19  33  49  68  94 124 157 192 232 276
#     4   9  18  32  47  66  90 116 151 193 234 276
#     4   8  15  29  47  65  90 123 154 189 230 268
#     4  11  21  33  48  68  93 123 156 191 233 278
#
# _framework density 15.802469
#
# number of rings (size 3 to 8) (size 9 to 14) (size 15 to 20)
#    0.000    2.500    1.250    2.250    0.000    5.750 
#    0.000    2.500    0.000    0.000    0.000    0.875 
#    0.000    0.000    0.000    0.000    0.000    0.000 
#
# Total GULP energy -356423.556716 kJ/mol
# GULP energy per Si atom -5569.118074 kJ/mol
# Density = 1.576650 g / cm^3
# Si number density = 15.802469 Si / 1000 Ang^3
#
#
#
# Elastic Constant Matrix: (Units=GPa)
#
#
# Indices 1 2 3 4 5 6 
#
# 1 0.4724 15.6054 6.9531 0.0000 0.0000 0.0000
# 2 15.6054 68.1476 3.2347 0.0000 0.0000 0.0000
# 3 6.9531 3.2347 26.1220 0.0000 0.0000 0.0000
# 4 0.0000 0.0000 0.0000 -17.8979 0.0000 0.0000
# 5 0.0000 0.0000 0.0000 0.0000 27.2096 0.0000
# 6 0.0000 0.0000 0.0000 0.0000 0.0000 18.6923
#
#
#
# Elastic Compliance Matrix: (Units=1/GPa)
#
#
# Indices 1 2 3 4 5 6 
#
# 1 -0.217989 0.047443 0.052149 0.000000 0.000000 0.000000
# 2 0.047443 0.004435 -0.013178 0.000000 0.000000 0.000000
# 3 0.052149 -0.013178 0.026033 0.000000 0.000000 0.000000
# 4 0.000000 0.000000 0.000000 -0.055872 0.000000 0.000000
# 5 0.000000 0.000000 0.000000 0.000000 0.036752 0.000000
# 6 0.000000 0.000000 0.000000 0.000000 0.000000 0.053498
#
#
# Mechanical properties :
#
#
# Convention : Reuss Voigt Hill
#
# Bulk Modulus (GPa) = -68.06555 16.25872 -25.90341
# Shear Modulus (GPa) = -15.11165 10.19736 -2.45715
#
# Velocity S-wave (km/s) = -3.09574 2.54303 -1.24831
# Velocity P-wave (km/s) = 7.47960 4.35129 4.30178
#
# Compressibility (1/GPa) = -0.01469172
#
# Stress axis : x y z
#
# Youngs Moduli (GPa) = -4.58738 225.46401 38.41332
#
# Poissons Ratio (x) = -10.69671 -2.00323
# Poissons Ratio (y) = 0.21764 0.50619
# Poissons Ratio (z) = 0.23923 2.97107
#
# Static dielectric constant tensor:
#      x y z
#    x 1.532410 0.000000 0.000000 
#    y 0.000000 1.521040 0.000000 
#    z 0.000000 0.000000 1.548300 
# 
# From -- ./inp_files/21972.got.cif
#   From: 2010.05.17/outbox.ucp.g08.bks.cvg/sg59_11_cif.got.tgz:21972.got - 2010.06.11 16:43:56.
