data_PCOD9453742
_publ_section_title
;
Structure prediction by ZEFSAII (Michael W. Deem and Ramdas Pophale) SiO2 
 PCOD9453742
Probable space group: P B C N
;
_chemical_formula_sum "Si O2"
_cell_formula_units_Z 52
_cell_length_a 5.501169
_cell_length_b 27.889474
_cell_length_c 16.617790
_cell_angle_alpha 90.000000
_cell_angle_beta 90.000000
_cell_angle_gamma 90.000000
_cell_volume 2549.579608
_symmetry_space_group_name_H-M "P B C N"
_symmetry_group_IT_number 60
_symmetry_cell_setting 'orthorhombic'
loop_
_space_group_symop_operation_xyz
x,y,z
1/2-x,1/2-y,1/2+z
1/2+x,1/2-y,-z
-x,y,1/2-z
-x,-y,-z
1/2+x,1/2+y,1/2-z
1/2-x,1/2+y,z
x,-y,1/2+z
loop_
_atom_site_type_symbol
_atom_site_label
_atom_site_fract_x
_atom_site_fract_y
_atom_site_fract_z
Si Si1 0.000000 0.236885 0.250000
Si Si2 0.342342 0.317036 0.324850
Si Si3 0.010252 0.252341 0.951589
Si Si4 0.769034 0.040854 0.842680
Si Si5 0.272986 0.920847 0.343587
Si Si6 0.752689 0.932463 0.801051
Si Si7 0.857096 0.330479 0.835044
O O1 0.813326 0.272469 0.206998
O O2 0.873702 0.202871 0.315177
O O3 0.500000 0.334657 0.250000
O O4 0.508531 0.293720 0.392946
O O5 0.193125 0.363702 0.349185
O O6 0.006645 0.301556 0.900840
O O7 0.269511 0.247166 0.994462
O O8 0.747080 0.060080 0.749490
O O9 0.510920 0.054840 0.880285
O O10 0.010447 0.064863 0.878535
O O11 0.795008 0.983707 0.841589
O O12 0.500000 0.938040 0.750000
O O13 0.712040 0.884952 0.854262
O O14 0.000000 0.922992 0.750000
O O15 0.000000 0.331820 0.750000
#
# Coordination Sequence:
#
# PCOD9453742 Si02
#       7
#     4   8   8   8   8   8   8
#     4  12  18  36  60  86 128 142 212 252 316 348
#     4  12  23  36  62  91 117 165 202 258 308 363
#     4  12  27  44  60  85 128 170 210 254 307 368
#     4  10  16  31  46  85 124 142 173 246 315 355
#     4  10  19  29  51  80 123 142 187 235 308 359
#     4  11  19  30  54  84 124 150 185 241 316 349
#     4  11  23  38  62  91 118 162 208 256 304 364
#
# _framework density 20.395519
#
# number of rings (size 3 to 8) (size 9 to 14) (size 15 to 20)
#    0.000    0.923    8.462    1.846    0.000    0.000 
#    0.000    0.000    0.000    0.000    0.000    6.462 
#    0.000    0.000    0.000    0.000    0.000    0.000 
#
# Total GULP energy -290154.102389 kJ/mol
# GULP energy per Si atom -5579.886584 kJ/mol
# Density = 2.034910 g / cm^3
# Si number density = 20.395519 Si / 1000 Ang^3
#
#
#
# Elastic Constant Matrix: (Units=GPa)
#
#
# Indices 1 2 3 4 5 6 
#
# 1 110.6372 2.5767 4.7484 0.0000 0.0000 0.0000
# 2 2.5767 144.4310 9.3910 0.0000 0.0000 0.0000
# 3 4.7484 9.3910 28.3224 0.0000 0.0000 0.0000
# 4 0.0000 0.0000 0.0000 -5.5991 0.0000 0.0000
# 5 0.0000 0.0000 0.0000 0.0000 20.6512 0.0000
# 6 0.0000 0.0000 0.0000 0.0000 0.0000 58.7543
#
#
#
# Elastic Compliance Matrix: (Units=1/GPa)
#
#
# Indices 1 2 3 4 5 6 
#
# 1 0.009105 -0.000065 -0.001505 0.000000 0.000000 0.000000
# 2 -0.000065 0.007077 -0.002336 0.000000 0.000000 0.000000
# 3 -0.001505 -0.002336 0.036335 0.000000 0.000000 0.000000
# 4 0.000000 0.000000 0.000000 -0.178601 0.000000 0.000000
# 5 0.000000 0.000000 0.000000 0.000000 0.048423 0.000000
# 6 0.000000 0.000000 0.000000 0.000000 0.000000 0.017020
#
#
# Mechanical properties :
#
#
# Convention : Reuss Voigt Hill
#
# Bulk Modulus (GPa) = 22.36866 35.20253 28.78559
# Shear Modulus (GPa) = -131.82324 32.53958 -49.64183
#
# Velocity S-wave (km/s) = -8.04821 3.99861 -4.93887
# Velocity P-wave (km/s) = 8.68181 6.21417 4.28706
#
# Compressibility (1/GPa) = 0.04470541
#
# Stress axis : x y z
#
# Youngs Moduli (GPa) = 109.83394 141.30801 27.52202
#
# Poissons Ratio (x) = 0.00912 0.04142
# Poissons Ratio (y) = 0.00709 0.06428
# Poissons Ratio (z) = 0.16531 0.33004
#
# Static dielectric constant tensor:
#      x y z
#    x 1.628920 0.000000 0.000000 
#    y 0.000000 1.707880 0.000000 
#    z 0.000000 0.000000 1.811580 
# 
# From -- ./inp_files/18771.got.cif
#   From: 2010.05.17/outbox.cif.g08.bks.cpg/sg60_10_cif.got.tgz:18771.got - 2010.06.03 14:59:27.
