data_PCOD9453049
_publ_section_title
;
Structure prediction by ZEFSAII (Michael W. Deem and Ramdas Pophale) SiO2 
 PCOD9453049
Probable space group: P M M N
;
_chemical_formula_sum "Si O2"
_cell_formula_units_Z 40
_cell_length_a 16.569704
_cell_length_b 8.050607
_cell_length_c 14.166391
_cell_angle_alpha 90.000000
_cell_angle_beta 90.000000
_cell_angle_gamma 90.000000
_cell_volume 1889.742373
_symmetry_space_group_name_H-M "P M M N"
_symmetry_group_IT_number 59
_space_group.IT_coordinate_system_code '2'
_symmetry_cell_setting 'orthorhombic'
loop_
_space_group_symop_operation_xyz
x,y,z
1/2-x,1/2-y,z
1/2+x,-y,-z
-x,1/2+y,-z
-x,-y,-z
1/2+x,1/2+y,-z
1/2-x,y,z
x,1/2-y,z
loop_
_atom_site_type_symbol
_atom_site_label
_atom_site_fract_x
_atom_site_fract_y
_atom_site_fract_z
Si Si1 0.414259 0.553615 0.638447
Si Si2 0.750000 0.952614 0.039957
Si Si3 0.658444 0.046945 0.553009
Si Si4 0.750000 0.949995 0.261939
Si Si5 0.426933 0.556414 0.260848
Si Si6 0.583260 0.943682 0.951924
O O1 0.432808 0.750000 0.637497
O O2 0.400715 0.493234 0.530995
O O3 0.329358 0.524043 0.689922
O O4 0.484148 0.462300 0.695142
O O5 0.750000 0.750000 0.030275
O O6 0.750000 0.988985 0.150940
O O7 0.666889 0.016985 0.993208
O O8 0.750000 0.995711 0.532264
O O9 0.656623 0.250000 0.552844
O O10 0.631098 0.990621 0.656251
O O11 0.750000 0.750000 0.273150
O O12 0.408678 0.750000 0.245846
O O13 0.420498 0.471192 0.160085
O O14 0.587307 0.750000 0.972338
O O15 0.500000 0.000000 0.000000
#
# Coordination Sequence:
#
# PCOD9453049 Si02
#       6
#     8   4   8   4   8   8
#     4  11  21  38  62  88 122 163 207 253 304 368
#     4   9  22  41  62  85 120 160 199 255 316 371
#     4   9  19  37  60  87 123 162 202 251 303 362
#     4  11  21  37  62  91 120 154 201 257 318 371
#     4  11  23  38  61  90 124 162 204 254 310 368
#     4  11  23  43  66  92 125 164 209 261 319 379
#
# _framework density 21.166906000000001
#
# number of rings (size 3 to 8) (size 9 to 14) (size 15 to 20)
#    0.000    1.600    1.000    3.900    1.400    1.600 
#    0.000    7.500    0.000    0.000    0.000    0.000 
#    0.000    0.000    0.000    0.000    0.000    0.000 
#
# Total GULP energy -223576.767221 kJ/mol
# GULP energy per Si atom -5589.419181 kJ/mol
# Density = 2.111873 g / cm^3
# Si number density = 21.166906 Si / 1000 Ang^3
#
#
#
# Elastic Constant Matrix: (Units=GPa)
#
#
# Indices 1 2 3 4 5 6 
#
# 1 106.4672 -0.8478 51.3585 0.0000 0.0000 0.0000
# 2 -0.8478 27.6735 -0.8259 0.0000 0.0000 0.0000
# 3 51.3585 -0.8259 125.5755 0.0000 0.0000 0.0000
# 4 0.0000 0.0000 0.0000 22.8971 0.0000 0.0000
# 5 0.0000 0.0000 0.0000 0.0000 98.2263 0.0000
# 6 0.0000 0.0000 0.0000 0.0000 0.0000 22.0549
#
#
#
# Elastic Compliance Matrix: (Units=1/GPa)
#
#
# Indices 1 2 3 4 5 6 
#
# 1 0.011702 0.000216 -0.004785 0.000000 0.000000 0.000000
# 2 0.000216 0.036147 0.000150 0.000000 0.000000 0.000000
# 3 -0.004785 0.000150 0.009921 0.000000 0.000000 0.000000
# 4 0.000000 0.000000 0.000000 0.043674 0.000000 0.000000
# 5 0.000000 0.000000 0.000000 0.000000 0.010181 0.000000
# 6 0.000000 0.000000 0.000000 0.000000 0.000000 0.045341
#
#
# Mechanical properties :
#
#
# Convention : Reuss Voigt Hill
#
# Bulk Modulus (GPa) = 20.43681 39.89843 30.16762
# Shear Modulus (GPa) = 27.45515 42.63775 35.04645
#
# Velocity S-wave (km/s) = 3.60541 4.49303 4.07347
# Velocity P-wave (km/s) = 5.19692 6.76807 6.03385
#
# Compressibility (1/GPa) = 0.04893131
#
# Stress axis : x y z
#
# Youngs Moduli (GPa) = 85.45291 27.66507 100.79442
#
# Poissons Ratio (x) = -0.00597 0.48227
# Poissons Ratio (y) = -0.01843 -0.01507
# Poissons Ratio (z) = 0.40886 -0.00414
#
# Static dielectric constant tensor:
#      x y z
#    x 1.771580 0.000000 0.000000 
#    y 0.000000 1.768200 0.000000 
#    z 0.000000 0.000000 1.734970 
# 
# From -- ./inp_files/23017.got.cif
#   From: 2010.05.17/outbox.cif.g08.bks.cpg/sg59_12_cif.got.tgz:23017.got - 2010.06.03 14:40:33.
