data_PCOD9453664
_publ_section_title
;
Structure prediction by ZEFSAII (Michael W. Deem and Ramdas Pophale) SiO2 
 PCOD9453664
Probable space group: P M M N
;
_chemical_formula_sum "Si O2"
_cell_formula_units_Z 48
_cell_length_a 15.000000
_cell_length_b 9.000000
_cell_length_c 18.000000
_cell_angle_alpha 90.000000
_cell_angle_beta 90.000000
_cell_angle_gamma 90.000000
_cell_volume 2430.000000
_symmetry_space_group_name_H-M "P M M N"
_symmetry_group_IT_number 59
_space_group.IT_coordinate_system_code '2'
_symmetry_cell_setting 'orthorhombic'
loop_
_space_group_symop_operation_xyz
x,y,z
1/2-x,1/2-y,z
1/2+x,-y,-z
-x,1/2+y,-z
-x,-y,-z
1/2+x,1/2+y,-z
1/2-x,y,z
x,1/2-y,z
loop_
_atom_site_type_symbol
_atom_site_label
_atom_site_fract_x
_atom_site_fract_y
_atom_site_fract_z
Si Si1 0.355129 0.582787 0.344172
Si Si2 0.002175 0.928999 0.082132
Si Si3 0.355640 0.570217 0.811937
Si Si4 0.642460 0.926264 0.808213
Si Si5 0.144879 0.916290 0.646751
Si Si6 0.096184 0.426865 0.496973
O O1 0.250000 0.598832 0.332094
O O2 0.394531 0.750000 0.349142
O O3 0.386738 0.491998 0.272108
O O4 0.364001 0.496582 0.421827
O O5 0.003181 0.750000 0.078295
O O6 0.916654 0.987571 0.128538
O O7 0.087818 0.989366 0.127970
O O8 0.000000 0.000000 0.000000
O O9 0.250000 0.535651 0.820662
O O10 0.364888 0.750000 0.818445
O O11 0.387393 0.531057 0.727651
O O12 0.750000 0.944766 0.816272
O O13 0.623452 0.750000 0.810735
O O14 0.250000 0.899099 0.658676
O O15 0.107595 0.750000 0.630440
O O16 0.135869 0.020431 0.575622
O O17 0.096795 0.250000 0.491997
O O18 0.000000 0.500000 0.500000
#
# Coordination Sequence:
#
# PCOD9453664 Si02
#       6
#     8   8   8   8   8   8
#     4  10  21  39  62  87 118 157 202 251 305 364
#     4  12  26  43  66  95 129 166 206 256 312 374
#     4   9  20  41  68  95 126 165 207 254 312 374
#     4  10  22  42  68  96 127 165 209 257 312 374
#     4   9  19  38  62  86 116 156 199 246 302 363
#     4  12  25  37  53  81 119 161 206 255 303 354
#
# _framework density 19.753086
#
# number of rings (size 3 to 8) (size 9 to 14) (size 15 to 20)
#    0.000    1.667    0.000    5.500    2.333    6.000 
#    0.000    1.667    0.000    0.000    0.000    0.000 
#    0.000    0.000    0.000    0.000    0.000    0.000 
#
# Total GULP energy -267981.342870 kJ/mol
# GULP energy per Si atom -5582.944643 kJ/mol
# Density = 1.970813 g / cm^3
# Si number density = 19.753086 Si / 1000 Ang^3
#
#
#
# Elastic Constant Matrix: (Units=GPa)
#
#
# Indices 1 2 3 4 5 6 
#
# 1 72.3883 43.7553 50.7530 0.0000 0.0000 0.0000
# 2 43.7553 171.4618 106.6599 0.0000 0.0000 0.0000
# 3 50.7530 106.6599 203.8944 0.0000 0.0000 0.0000
# 4 0.0000 0.0000 0.0000 36.3535 0.0000 0.0000
# 5 0.0000 0.0000 0.0000 0.0000 35.9537 0.0000
# 6 0.0000 0.0000 0.0000 0.0000 0.0000 29.9864
#
#
#
# Elastic Compliance Matrix: (Units=1/GPa)
#
#
# Indices 1 2 3 4 5 6 
#
# 1 0.017484 -0.002601 -0.002992 0.000000 0.000000 0.000000
# 2 -0.002601 0.009032 -0.004078 0.000000 0.000000 0.000000
# 3 -0.002992 -0.004078 0.007782 0.000000 0.000000 0.000000
# 4 0.000000 0.000000 0.000000 0.027508 0.000000 0.000000
# 5 0.000000 0.000000 0.000000 0.000000 0.027814 0.000000
# 6 0.000000 0.000000 0.000000 0.000000 0.000000 0.033348
#
#
# Mechanical properties :
#
#
# Convention : Reuss Voigt Hill
#
# Bulk Modulus (GPa) = 66.85101 94.45343 80.65222
# Shear Modulus (GPa) = 33.94568 36.89715 35.42142
#
# Velocity S-wave (km/s) = 4.14998 4.32663 4.23922
# Velocity P-wave (km/s) = 7.54187 8.53701 8.05482
#
# Compressibility (1/GPa) = 0.01495864
#
# Stress axis : x y z
#
# Youngs Moduli (GPa) = 57.19554 110.71239 128.49853
#
# Poissons Ratio (x) = 0.28794 0.38441
# Poissons Ratio (y) = 0.14875 0.52396
# Poissons Ratio (z) = 0.17110 0.45144
#
# Static dielectric constant tensor:
#      x y z
#    x 1.678940 0.000000 0.000000 
#    y 0.000000 1.671260 0.000000 
#    z 0.000000 0.000000 1.773510 
# 
# From -- ./inp_files/27374.got.cif
#   From: 2010.05.17/outbox.ucp.g08.bks.cvg/sg59_14_cif.got.tgz:27374.got - 2010.06.11 16:43:56.
