data_PCOD9453834
_publ_section_title
;
Structure prediction by ZEFSAII (Michael W. Deem and Ramdas Pophale) SiO2 
 PCOD9453834
Probable space group: P B C N
;
_chemical_formula_sum "Si O2"
_cell_formula_units_Z 44
_cell_length_a 11.130076
_cell_length_b 24.845156
_cell_length_c 9.011265
_cell_angle_alpha 90.000000
_cell_angle_beta 90.000000
_cell_angle_gamma 90.000000
_cell_volume 2491.871364
_symmetry_space_group_name_H-M "P B C N"
_symmetry_group_IT_number 60
_symmetry_cell_setting 'orthorhombic'
loop_
_space_group_symop_operation_xyz
x,y,z
1/2-x,1/2-y,1/2+z
1/2+x,1/2-y,-z
-x,y,1/2-z
-x,-y,-z
1/2+x,1/2+y,1/2-z
1/2-x,1/2+y,z
x,-y,1/2+z
loop_
_atom_site_type_symbol
_atom_site_label
_atom_site_fract_x
_atom_site_fract_y
_atom_site_fract_z
Si Si1 0.761455 0.341905 0.896912
Si Si2 0.500000 0.498236 0.250000
Si Si3 0.171255 0.276593 0.017422
Si Si4 0.090015 0.924125 0.506781
Si Si5 0.616502 0.339931 0.590659
Si Si6 0.500000 0.809876 0.750000
Si Si7 0.000000 0.255722 0.250000
O O1 0.729432 0.282684 0.960857
O O2 0.709641 0.388251 0.001322
O O3 0.677847 0.351575 0.750246
O O4 0.900050 0.341812 0.846652
O O5 0.416314 0.536156 0.148371
O O6 0.428296 0.460497 0.362966
O O7 0.100541 0.288451 0.168401
O O8 0.272809 0.321833 0.007729
O O9 0.085607 0.279230 0.870742
O O10 0.974594 0.884222 0.530062
O O11 0.545600 0.284644 0.622764
#
# Coordination Sequence:
#
# PCOD9453834 Si02
#       7
#     8   4   8   8   8   4   4
#     4  10  19  34  55  77 118 152 183 230 282 348
#     4  10  23  35  64  86 106 132 207 255 298 340
#     4  10  20  32  54  80 117 159 187 221 270 360
#     4  11  19  40  58  88 106 147 186 252 303 337
#     4  10  17  33  54  76 111 151 179 223 287 337
#     4  10  22  35  50  84 112 164 195 218 278 356
#     4  10  17  34  46  74 116 160 172 217 274 328
#
# _framework density 17.657412000000001
#
# number of rings (size 3 to 8) (size 9 to 14) (size 15 to 20)
#    0.000    1.818    5.455    1.091    0.000    0.727 
#    9.818    0.000    0.000    1.091    0.000    0.000 
#    0.000    0.000    0.000    0.000    0.000    0.000 
#
# Total GULP energy -245043.336623 kJ/mol
# GULP energy per Si atom -5569.166741 kJ/mol
# Density = 1.761722 g / cm^3
# Si number density = 17.657412 Si / 1000 Ang^3
#
#
#
# Elastic Constant Matrix: (Units=GPa)
#
#
# Indices 1 2 3 4 5 6 
#
# 1 110.7404 50.6783 33.2878 0.0000 0.0000 0.0000
# 2 50.6783 82.0073 47.2521 0.0000 0.0000 0.0000
# 3 33.2878 47.2521 62.9949 0.0000 0.0000 0.0000
# 4 0.0000 0.0000 0.0000 16.1985 0.0000 0.0000
# 5 0.0000 0.0000 0.0000 0.0000 35.2476 0.0000
# 6 0.0000 0.0000 0.0000 0.0000 0.0000 -12.2410
#
#
#
# Elastic Compliance Matrix: (Units=1/GPa)
#
#
# Indices 1 2 3 4 5 6 
#
# 1 0.012665 -0.006993 -0.001447 0.000000 0.000000 0.000000
# 2 -0.006993 0.025337 -0.015310 0.000000 0.000000 0.000000
# 3 -0.001447 -0.015310 0.028123 0.000000 0.000000 0.000000
# 4 0.000000 0.000000 0.000000 0.061734 0.000000 0.000000
# 5 0.000000 0.000000 0.000000 0.000000 0.028371 0.000000
# 6 0.000000 0.000000 0.000000 0.000000 0.000000 -0.081692
#
#
# Mechanical properties :
#
#
# Convention : Reuss Voigt Hill
#
# Bulk Modulus (GPa) = 53.69114 57.57544 55.63329
# Shear Modulus (GPa) = 38.98749 16.14264 27.56507
#
# Velocity S-wave (km/s) = 4.70403 3.02688 3.95537
# Velocity P-wave (km/s) = 7.74448 6.70028 7.24123
#
# Compressibility (1/GPa) = 0.01862505
#
# Stress axis : x y z
#
# Youngs Moduli (GPa) = 78.95559 39.46809 35.55815
#
# Poissons Ratio (x) = 0.27600 0.05146
# Poissons Ratio (y) = 0.55213 0.54439
# Poissons Ratio (z) = 0.11427 0.60425
#
# Static dielectric constant tensor:
#      x y z
#    x 1.692420 0.000000 0.000000 
#    y 0.000000 1.595190 0.000000 
#    z 0.000000 0.000000 1.678140 
# 
# From -- ./inp_files/5022.got.cif
#   From: 2010.05.17/outbox.cif.g08.bks.cpg/sg60_3_cif.got.tgz:5022.got - 2010.06.03 14:59:27.
