data_PCOD9453548
_publ_section_title
;
Structure prediction by ZEFSAII (Michael W. Deem and Ramdas Pophale) SiO2 
 PCOD9453548
Probable space group: P M M N
;
_chemical_formula_sum "Si O2"
_cell_formula_units_Z 64
_cell_length_a 18.000000
_cell_length_b 9.000000
_cell_length_c 21.000000
_cell_angle_alpha 90.000000
_cell_angle_beta 90.000000
_cell_angle_gamma 90.000000
_cell_volume 3402.000000
_symmetry_space_group_name_H-M "P M M N"
_symmetry_group_IT_number 59
_space_group.IT_coordinate_system_code '2'
_symmetry_cell_setting 'orthorhombic'
loop_
_space_group_symop_operation_xyz
x,y,z
1/2-x,1/2-y,z
1/2+x,-y,-z
-x,1/2+y,-z
-x,-y,-z
1/2+x,1/2+y,-z
1/2-x,y,z
x,1/2-y,z
loop_
_atom_site_type_symbol
_atom_site_label
_atom_site_fract_x
_atom_site_fract_y
_atom_site_fract_z
Si Si1 0.530016 0.574952 0.562174
Si Si2 0.662251 0.918408 0.133896
Si Si3 0.667264 0.929088 0.638136
Si Si4 0.579542 0.923659 0.001683
Si Si5 0.337998 0.586637 0.741154
Si Si6 0.591253 0.074456 0.758152
Si Si7 0.547386 0.580376 0.324212
Si Si8 0.336062 0.928292 0.112262
O O1 0.500000 0.500000 0.500000
O O2 0.531557 0.750000 0.553816
O O3 0.611469 0.521422 0.583130
O O4 0.479636 0.528862 0.621431
O O5 0.750000 0.928616 0.118658
O O6 0.649136 0.750000 0.158770
O O7 0.644405 0.038074 0.187171
O O8 0.614698 0.939088 0.071257
O O9 0.750000 0.979850 0.626070
O O10 0.665267 0.750000 0.640777
O O11 0.638509 0.990623 0.705002
O O12 0.571642 0.750000 0.987590
O O13 0.634397 0.996606 0.950996
O O14 0.500000 0.000000 0.000000
O O15 0.250000 0.590519 0.735763
O O16 0.368783 0.750000 0.726602
O O17 0.370936 0.462422 0.695822
O O18 0.608771 0.250000 0.754213
O O19 0.506110 0.057260 0.736895
O O20 0.613099 0.024508 0.828271
O O21 0.538708 0.750000 0.345062
O O22 0.250000 0.964355 0.125113
O O23 0.341907 0.750000 0.105614
#
# Coordination Sequence:
#
# PCOD9453548 Si02
#       8
#     8   8   8   8   8   8   8   8
#     4  10  20  36  57  81 112 149 188 229 273 323
#     4   9  19  37  58  76  99 136 180 226 276 331
#     4   9  18  33  54  81 111 142 179 223 269 318
#     4  11  24  39  55  77 106 141 184 231 278 331
#     4  10  21  36  56  83 112 140 177 228 281 330
#     4   9  19  34  54  81 111 143 179 219 266 320
#     4  10  20  35  57  83 112 147 184 223 268 323
#     4  10  21  37  56  79 110 145 179 221 275 330
#
# _framework density 18.812463000000001
#
# number of rings (size 3 to 8) (size 9 to 14) (size 15 to 20)
#    0.000    2.250    0.000    2.250    1.750    4.750 
#    0.000    1.875    0.000    2.250    0.000    0.000 
#    0.000    0.000    0.000    0.000    0.000    0.000 
#
# Total GULP energy -356872.572136 kJ/mol
# GULP energy per Si atom -5576.133940 kJ/mol
# Density = 1.876965 g / cm^3
# Si number density = 18.812463 Si / 1000 Ang^3
#
#
#
# Elastic Constant Matrix: (Units=GPa)
#
#
# Indices 1 2 3 4 5 6 
#
# 1 26.3651 42.4309 53.2545 0.0000 0.0000 0.0000
# 2 42.4309 0.5753 -4.3351 0.0000 0.0000 0.0000
# 3 53.2545 -4.3351 -25.6595 0.0000 0.0000 0.0000
# 4 0.0000 0.0000 0.0000 29.9068 0.0000 0.0000
# 5 0.0000 0.0000 0.0000 0.0000 -3.0944 0.0000
# 6 0.0000 0.0000 0.0000 0.0000 0.0000 22.5709
#
#
#
# Elastic Compliance Matrix: (Units=1/GPa)
#
#
# Indices 1 2 3 4 5 6 
#
# 1 -0.001393 0.035613 -0.008908 0.000000 0.000000 0.000000
# 2 0.035613 -0.145816 0.098548 0.000000 0.000000 0.000000
# 3 -0.008908 0.098548 -0.074109 0.000000 0.000000 0.000000
# 4 0.000000 0.000000 0.000000 0.033437 0.000000 0.000000
# 5 0.000000 0.000000 0.000000 0.000000 -0.323162 0.000000
# 6 0.000000 0.000000 0.000000 0.000000 0.000000 0.044305
#
#
# Mechanical properties :
#
#
# Convention : Reuss Voigt Hill
#
# Bulk Modulus (GPa) = 34.25823 20.44239 27.35031
# Shear Modulus (GPa) = -7.06698 3.87203 -1.59748
#
# Velocity S-wave (km/s) = -1.94028 1.43621 -0.92250
# Velocity P-wave (km/s) = 3.63735 3.69327 3.66542
#
# Compressibility (1/GPa) = 0.02919007
#
# Stress axis : x y z
#
# Youngs Moduli (GPa) = -717.88965 -6.85797 -13.49361
#
# Poissons Ratio (x) = 0.24424 -0.12020
# Poissons Ratio (y) = 25.56647 1.32977
# Poissons Ratio (z) = -6.39484 0.67584
#
# Static dielectric constant tensor:
#      x y z
#    x 1.670640 0.000000 0.000000 
#    y 0.000000 1.677850 0.000000 
#    z 0.000000 0.000000 1.639240 
# 
# From -- ./inp_files/30769.got.cif
#   From: 2010.05.17/outbox.ucp.g08.bks.cvg/sg59_16_cif.got.tgz:30769.got - 2010.06.11 16:43:56.
