data_PCOD9453248
_publ_section_title
;
Structure prediction by ZEFSAII (Michael W. Deem and Ramdas Pophale) SiO2 
 PCOD9453248
Probable space group: P M M N
;
_chemical_formula_sum "Si O2"
_cell_formula_units_Z 48
_cell_length_a 7.446978
_cell_length_b 19.865778
_cell_length_c 16.782430
_cell_angle_alpha 90.000000
_cell_angle_beta 90.000000
_cell_angle_gamma 90.000000
_cell_volume 2482.792891
_symmetry_space_group_name_H-M "P M M N"
_symmetry_group_IT_number 59
_space_group.IT_coordinate_system_code '2'
_symmetry_cell_setting 'orthorhombic'
loop_
_space_group_symop_operation_xyz
x,y,z
1/2-x,1/2-y,z
1/2+x,-y,-z
-x,1/2+y,-z
-x,-y,-z
1/2+x,1/2+y,-z
1/2-x,y,z
x,1/2-y,z
loop_
_atom_site_type_symbol
_atom_site_label
_atom_site_fract_x
_atom_site_fract_y
_atom_site_fract_z
Si Si1 0.535408 0.075102 0.033141
Si Si2 0.529814 0.250000 0.585494
Si Si3 0.035771 0.606802 0.475760
Si Si4 0.534002 0.021459 0.374471
Si Si5 0.969476 0.250000 0.769612
Si Si6 0.537696 0.471525 0.196996
Si Si7 0.967335 0.120684 0.868433
O O1 0.750000 0.084692 0.038318
O O2 0.464179 0.073234 0.123542
O O3 0.469480 0.121614 0.960719
O O4 0.500000 0.000000 0.000000
O O5 0.750000 0.250000 0.584548
O O6 0.468566 0.318860 0.543910
O O7 0.475048 0.250000 0.677846
O O8 0.250000 0.612256 0.485058
O O9 0.965538 0.571033 0.555988
O O10 0.004331 0.554348 0.403886
O O11 0.750000 0.027540 0.372436
O O12 0.464018 0.036094 0.286017
O O13 0.750000 0.250000 0.769980
O O14 0.028754 0.183346 0.816216
O O15 0.750000 0.457194 0.201361
O O16 0.518447 0.549485 0.170828
O O17 0.750000 0.122025 0.870028
#
# Coordination Sequence:
#
# PCOD9453248 Si02
#       7
#     8   4   8   8   4   8   8
#     4   8  14  24  38  55  75  99 124 152 186 221
#     4   9  16  26  41  60  80 104 133 165 201 239
#     4   9  17  29  44  60  80 106 136 168 201 239
#     4   9  17  28  42  61  83 106 132 166 206 241
#     4   9  16  24  37  58  80 100 125 159 193 225
#     4   9  16  26  40  58  80 102 126 159 197 233
#     4   9  16  26  40  58  79 103 131 159 188 226
#
# _framework density 19.333067
#
# number of rings (size 3 to 8) (size 9 to 14) (size 15 to 20)
#    0.000    3.167    0.000    1.000    0.000    2.000 
#    0.000    0.833    0.000    4.000    0.000    7.000 
#    0.000    0.000    0.000   21.667    0.000   21.667 
#
# Total GULP energy -267450.733552 kJ/mol
# GULP energy per Si atom -5571.890282 kJ/mol
# Density = 1.928906 g / cm^3
# Si number density = 19.333067 Si / 1000 Ang^3
#
#
#
# Elastic Constant Matrix: (Units=GPa)
#
#
# Indices 1 2 3 4 5 6 
#
# 1 60.6251 1.8929 4.4537 0.0000 0.0000 0.0000
# 2 1.8929 91.5147 57.9871 0.0000 0.0000 0.0000
# 3 4.4537 57.9871 166.4349 0.0000 0.0000 0.0000
# 4 0.0000 0.0000 0.0000 20.5378 0.0000 0.0000
# 5 0.0000 0.0000 0.0000 0.0000 6.6741 0.0000
# 6 0.0000 0.0000 0.0000 0.0000 0.0000 15.3363
#
#
#
# Elastic Compliance Matrix: (Units=1/GPa)
#
#
# Indices 1 2 3 4 5 6 
#
# 1 0.016528 -0.000079 -0.000415 0.000000 0.000000 0.000000
# 2 -0.000079 0.014023 -0.004884 0.000000 0.000000 0.000000
# 3 -0.000415 -0.004884 0.007721 0.000000 0.000000 0.000000
# 4 0.000000 0.000000 0.000000 0.048691 0.000000 0.000000
# 5 0.000000 0.000000 0.000000 0.000000 0.149833 0.000000
# 6 0.000000 0.000000 0.000000 0.000000 0.000000 0.065205
#
#
# Mechanical properties :
#
#
# Convention : Reuss Voigt Hill
#
# Bulk Modulus (GPa) = 36.34113 49.69357 43.01735
# Shear Modulus (GPa) = 15.53141 25.45904 20.49522
#
# Velocity S-wave (km/s) = 2.83744 3.63280 3.25947
# Velocity P-wave (km/s) = 5.43810 6.58453 6.03858
#
# Compressibility (1/GPa) = 0.02751703
#
# Stress axis : x y z
#
# Youngs Moduli (GPa) = 60.50429 71.30961 129.51732
#
# Poissons Ratio (x) = 0.00564 0.05371
# Poissons Ratio (y) = 0.00479 0.63253
# Poissons Ratio (z) = 0.02509 0.34826
#
# Static dielectric constant tensor:
#      x y z
#    x 1.730380 0.000000 0.000000 
#    y 0.000000 1.634180 0.000000 
#    z 0.000000 0.000000 1.721550 
# 
# From -- ./inp_files/22442.got.cif
#   From: 2010.05.17/outbox.cif.g08.bks.cpg/sg59_12_cif.got.tgz:22442.got - 2010.06.03 14:40:33.
