data_PCOD9453137
_publ_section_title
;
Structure prediction by ZEFSAII (Michael W. Deem and Ramdas Pophale) SiO2 
 PCOD9453137
Probable space group: P M M N
;
_chemical_formula_sum "Si O2"
_cell_formula_units_Z 48
_cell_length_a 8.914479
_cell_length_b 23.710312
_cell_length_c 12.838409
_cell_angle_alpha 90.000000
_cell_angle_beta 90.000000
_cell_angle_gamma 90.000000
_cell_volume 2713.591325
_symmetry_space_group_name_H-M "P M M N"
_symmetry_group_IT_number 59
_space_group.IT_coordinate_system_code '2'
_symmetry_cell_setting 'orthorhombic'
loop_
_space_group_symop_operation_xyz
x,y,z
1/2-x,1/2-y,z
1/2+x,-y,-z
-x,1/2+y,-z
-x,-y,-z
1/2+x,1/2+y,-z
1/2-x,y,z
x,1/2-y,z
loop_
_atom_site_type_symbol
_atom_site_label
_atom_site_fract_x
_atom_site_fract_y
_atom_site_fract_z
Si Si1 0.070873 0.683943 0.387152
Si Si2 0.429006 0.001944 0.884912
Si Si3 0.428006 0.371910 0.807720
Si Si4 0.928199 0.183756 0.006224
Si Si5 0.429660 0.684095 0.630048
Si Si6 0.571457 0.610657 0.809683
O O1 0.250000 0.676754 0.373124
O O2 0.036791 0.750000 0.367085
O O3 0.037050 0.672797 0.508560
O O4 0.983009 0.645686 0.306184
O O5 0.250000 0.994691 0.893279
O O6 0.459235 0.062828 0.834419
O O7 0.498943 0.950993 0.819475
O O8 0.500000 0.000000 0.000000
O O9 0.250000 0.362714 0.818308
O O10 0.514490 0.334417 0.892807
O O11 0.750000 0.173727 0.014739
O O12 0.955829 0.250000 0.023865
O O13 0.013064 0.146396 0.091383
O O14 0.250000 0.677707 0.645011
O O15 0.465180 0.750000 0.651217
O O16 0.516133 0.643474 0.707607
O O17 0.750000 0.606556 0.813026
#
# Coordination Sequence:
#
# PCOD9453137 Si02
#       6
#     8   8   8   8   8   8
#     4   9  19  37  61  87 116 153 193 231 281 346
#     4  11  23  40  60  82 112 154 197 238 287 344
#     4  11  23  37  57  86 116 147 189 239 289 340
#     4  11  23  37  56  82 114 152 189 230 285 347
#     4   9  19  38  62  86 115 153 194 235 283 342
#     4  12  24  37  57  86 116 149 191 239 291 343
#
# _framework density 17.688735999999999
#
# number of rings (size 3 to 8) (size 9 to 14) (size 15 to 20)
#    0.000    1.500    1.667    5.000    0.000    8.667 
#    0.000    2.500    0.000    0.000    0.000    0.000 
#    0.000    0.000    0.000    0.000    0.000    0.000 
#
# Total GULP energy -268305.854122 kJ/mol
# GULP energy per Si atom -5589.705294 kJ/mol
# Density = 1.764848 g / cm^3
# Si number density = 17.688736 Si / 1000 Ang^3
#
#
#
# Elastic Constant Matrix: (Units=GPa)
#
#
# Indices 1 2 3 4 5 6 
#
# 1 65.8711 44.4406 34.1531 0.0000 0.0000 0.0000
# 2 44.4406 62.8551 34.2561 0.0000 0.0000 0.0000
# 3 34.1531 34.2561 70.5810 0.0000 0.0000 0.0000
# 4 0.0000 0.0000 0.0000 13.4777 0.0000 0.0000
# 5 0.0000 0.0000 0.0000 0.0000 34.2536 0.0000
# 6 0.0000 0.0000 0.0000 0.0000 0.0000 27.5713
#
#
#
# Elastic Compliance Matrix: (Units=1/GPa)
#
#
# Indices 1 2 3 4 5 6 
#
# 1 0.030722 -0.018518 -0.005879 0.000000 0.000000 0.000000
# 2 -0.018518 0.032793 -0.006955 0.000000 0.000000 0.000000
# 3 -0.005879 -0.006955 0.020388 0.000000 0.000000 0.000000
# 4 0.000000 0.000000 0.000000 0.074197 0.000000 0.000000
# 5 0.000000 0.000000 0.000000 0.000000 0.029194 0.000000
# 6 0.000000 0.000000 0.000000 0.000000 0.000000 0.036270
#
#
# Mechanical properties :
#
#
# Convention : Reuss Voigt Hill
#
# Bulk Modulus (GPa) = 47.16940 47.22297 47.19619
# Shear Modulus (GPa) = 17.04537 20.82433 18.93485
#
# Velocity S-wave (km/s) = 3.10760 3.43485 3.27532
# Velocity P-wave (km/s) = 6.29289 6.51809 6.40648
#
# Compressibility (1/GPa) = 0.02120018
#
# Stress axis : x y z
#
# Youngs Moduli (GPa) = 32.54949 30.49417 49.04741
#
# Poissons Ratio (x) = 0.56469 0.28833
# Poissons Ratio (y) = 0.60275 0.34115
# Poissons Ratio (z) = 0.19134 0.21210
#
# Static dielectric constant tensor:
#      x y z
#    x 1.588000 0.000000 0.000000 
#    y 0.000000 1.588480 0.000000 
#    z 0.000000 0.000000 1.582200 
# 
# From -- ./inp_files/14360.got.cif
#   From: 2010.05.17/outbox.cif.g08.bks.cpg/sg59_8_cif.got.tgz:14360.got - 2010.06.03 14:40:33.
