data_PCOD9453204
_publ_section_title
;
Structure prediction by ZEFSAII (Michael W. Deem and Ramdas Pophale) SiO2 
 PCOD9453204
Probable space group: P M M N
;
_chemical_formula_sum "Si O2"
_cell_formula_units_Z 56
_cell_length_a 19.139780
_cell_length_b 7.450165
_cell_length_c 19.934955
_cell_angle_alpha 90.000000
_cell_angle_beta 90.000000
_cell_angle_gamma 90.000000
_cell_volume 2842.615321
_symmetry_space_group_name_H-M "P M M N"
_symmetry_group_IT_number 59
_space_group.IT_coordinate_system_code '2'
_symmetry_cell_setting 'orthorhombic'
loop_
_space_group_symop_operation_xyz
x,y,z
1/2-x,1/2-y,z
1/2+x,-y,-z
-x,1/2+y,-z
-x,-y,-z
1/2+x,1/2+y,-z
1/2-x,y,z
x,1/2-y,z
loop_
_atom_site_type_symbol
_atom_site_label
_atom_site_fract_x
_atom_site_fract_y
_atom_site_fract_z
Si Si1 0.029091 0.464244 0.926540
Si Si2 0.329227 0.535553 0.587200
Si Si3 0.956570 0.469200 0.792706
Si Si4 0.335139 0.957429 0.442931
Si Si5 0.169906 0.529866 0.295762
Si Si6 0.901194 0.964408 0.273537
Si Si7 0.328152 0.030681 0.861818
O O1 0.032333 0.250000 0.919135
O O2 0.107782 0.528451 0.909441
O O3 0.977478 0.528901 0.867415
O O4 0.000000 0.500000 0.000000
O O5 0.250000 0.468177 0.599247
O O6 0.324218 0.750000 0.578526
O O7 0.356082 0.464306 0.515158
O O8 0.375419 0.505595 0.652350
O O9 0.954818 0.250000 0.793124
O O10 0.883790 0.528315 0.761140
O O11 0.021130 0.525968 0.745420
O O12 0.250000 0.958102 0.444260
O O13 0.358705 0.750000 0.441589
O O14 0.353768 0.033060 0.370077
O O15 0.250000 0.475089 0.284488
O O16 0.170061 0.750000 0.297789
O O17 0.902441 0.750000 0.267973
O O18 0.849498 0.025689 0.213886
O O19 0.250000 0.970312 0.879021
O O20 0.327033 0.250000 0.862912
#
# Coordination Sequence:
#
# PCOD9453204 Si02
#       7
#     8   8   8   8   8   8   8
#     4   9  17  30  47  65  87 112 134 162 204 249
#     4   9  16  25  37  56  83 110 137 173 210 240
#     4   8  15  27  41  59  83 108 135 169 206 241
#     4   7  11  20  34  53  77 106 139 171 203 240
#     4   8  12  21  40  61  79 105 142 177 206 240
#     4   9  16  26  41  60  83 110 138 169 204 242
#     4   8  14  26  44  62  79 107 147 176 190 223
#
# _framework density 19.700168000000001
#
# number of rings (size 3 to 8) (size 9 to 14) (size 15 to 20)
#    0.000    3.714    0.000    3.857    0.000    0.857 
#    0.000    4.286    0.000    2.143    0.000    1.000 
#    0.000    4.000    0.000    0.000    0.000    0.000 
#
# Total GULP energy -311824.536509 kJ/mol
# GULP energy per Si atom -5568.295295 kJ/mol
# Density = 1.965533 g / cm^3
# Si number density = 19.700168 Si / 1000 Ang^3
#
#
#
# Elastic Constant Matrix: (Units=GPa)
#
#
# Indices 1 2 3 4 5 6 
#
# 1 128.2924 4.4034 114.8468 0.0000 0.0000 0.0000
# 2 4.4034 55.2538 2.9839 0.0000 0.0000 0.0000
# 3 114.8468 2.9839 183.8925 0.0000 0.0000 0.0000
# 4 0.0000 0.0000 0.0000 -12.5763 0.0000 0.0000
# 5 0.0000 0.0000 0.0000 0.0000 26.2261 0.0000
# 6 0.0000 0.0000 0.0000 0.0000 0.0000 1.1582
#
#
#
# Elastic Compliance Matrix: (Units=1/GPa)
#
#
# Indices 1 2 3 4 5 6 
#
# 1 0.017715 -0.000815 -0.011050 0.000000 0.000000 0.000000
# 2 -0.000815 0.018152 0.000214 0.000000 0.000000 0.000000
# 3 -0.011050 0.000214 0.012336 0.000000 0.000000 0.000000
# 4 0.000000 0.000000 0.000000 -0.079515 0.000000 0.000000
# 5 0.000000 0.000000 0.000000 0.000000 0.038130 0.000000
# 6 0.000000 0.000000 0.000000 0.000000 0.000000 0.863396
#
#
# Mechanical properties :
#
#
# Convention : Reuss Voigt Hill
#
# Bulk Modulus (GPa) = 40.15967 67.98965 54.07466
# Shear Modulus (GPa) = 5.54437 19.30857 12.42647
#
# Velocity S-wave (km/s) = 1.67943 3.13409 2.51426
# Velocity P-wave (km/s) = 4.91837 6.90535 5.99475
#
# Compressibility (1/GPa) = 0.02490060
#
# Stress axis : x y z
#
# Youngs Moduli (GPa) = 56.45009 55.09136 81.06557
#
# Poissons Ratio (x) = 0.04490 0.89579
# Poissons Ratio (y) = 0.04601 -0.01739
# Poissons Ratio (z) = 0.62379 -0.01182
#
# Static dielectric constant tensor:
#      x y z
#    x 1.677930 0.000000 0.000000 
#    y 0.000000 1.763490 0.000000 
#    z 0.000000 0.000000 1.708010 
# 
# From -- ./inp_files/27935.got.cif
#   From: 2010.05.17/outbox.cif.g08.bks.cpg/sg59_14_cif.got.tgz:27935.got - 2010.06.03 14:40:33.
