data_PCOD9453672
_publ_section_title
;
Structure prediction by ZEFSAII (Michael W. Deem and Ramdas Pophale) SiO2 
 PCOD9453672
Probable space group: P M M N
;
_chemical_formula_sum "Si O2"
_cell_formula_units_Z 32
_cell_length_a 9.000000
_cell_length_b 15.000000
_cell_length_c 12.000000
_cell_angle_alpha 90.000000
_cell_angle_beta 90.000000
_cell_angle_gamma 90.000000
_cell_volume 1620.000000
_symmetry_space_group_name_H-M "P M M N"
_symmetry_group_IT_number 59
_space_group.IT_coordinate_system_code '2'
_symmetry_cell_setting 'orthorhombic'
loop_
_space_group_symop_operation_xyz
x,y,z
1/2-x,1/2-y,z
1/2+x,-y,-z
-x,1/2+y,-z
-x,-y,-z
1/2+x,1/2+y,-z
1/2-x,y,z
x,1/2-y,z
loop_
_atom_site_type_symbol
_atom_site_label
_atom_site_fract_x
_atom_site_fract_y
_atom_site_fract_z
Si Si1 0.570006 0.250000 0.657553
Si Si2 0.582754 0.353125 0.286350
Si Si3 0.926318 0.597495 0.495446
Si Si4 0.428763 0.250000 0.903948
Si Si5 0.927187 0.089776 0.040556
O O1 0.750000 0.250000 0.656328
O O2 0.506762 0.336694 0.592138
O O3 0.505003 0.250000 0.782311
O O4 0.750000 0.376274 0.328626
O O5 0.587108 0.250000 0.253009
O O6 0.463275 0.364836 0.382209
O O7 0.552267 0.405214 0.173633
O O8 0.750000 0.594214 0.473931
O O9 0.000000 0.500000 0.500000
O O10 0.250000 0.250000 0.893340
O O11 0.487611 0.333311 0.974768
O O12 0.750000 0.096033 0.019544
O O13 0.000000 0.000000 0.000000
#
# Coordination Sequence:
#
# PCOD9453672 Si02
#       5
#     4   8   8   4   8
#     4  12  26  47  70  95 132 175 221 275 333 394
#     4  10  21  42  69  94 129 172 217 270 327 386
#     4  12  26  44  68  99 133 173 220 270 329 394
#     4  12  26  45  68  97 134 175 221 273 333 400
#     4  11  24  44  68  98 134 175 222 272 328 390
#
# _framework density 19.753086
#
# number of rings (size 3 to 8) (size 9 to 14) (size 15 to 20)
#    0.000    0.750    2.500    5.250    3.500    2.000 
#    0.000    0.000    0.000    0.000    0.000    0.000 
#    0.000    0.000    0.000    0.000    0.000    0.000 
#
# Total GULP energy -178888.367258 kJ/mol
# GULP energy per Si atom -5590.261477 kJ/mol
# Density = 1.970813 g / cm^3
# Si number density = 19.753086 Si / 1000 Ang^3
#
#
#
# Elastic Constant Matrix: (Units=GPa)
#
#
# Indices 1 2 3 4 5 6 
#
# 1 134.3391 -4.3103 23.0242 0.0000 0.0000 0.0000
# 2 -4.3103 66.1562 -12.1747 0.0000 0.0000 0.0000
# 3 23.0242 -12.1747 47.2715 0.0000 0.0000 0.0000
# 4 0.0000 0.0000 0.0000 32.1760 0.0000 0.0000
# 5 0.0000 0.0000 0.0000 0.0000 33.7670 0.0000
# 6 0.0000 0.0000 0.0000 0.0000 0.0000 36.5959
#
#
#
# Elastic Compliance Matrix: (Units=1/GPa)
#
#
# Indices 1 2 3 4 5 6 
#
# 1 0.008125 -0.000209 -0.004011 0.000000 0.000000 0.000000
# 2 -0.000209 0.015873 0.004190 0.000000 0.000000 0.000000
# 3 -0.004011 0.004190 0.024187 0.000000 0.000000 0.000000
# 4 0.000000 0.000000 0.000000 0.031079 0.000000 0.000000
# 5 0.000000 0.000000 0.000000 0.000000 0.029615 0.000000
# 6 0.000000 0.000000 0.000000 0.000000 0.000000 0.027325
#
#
# Mechanical properties :
#
#
# Convention : Reuss Voigt Hill
#
# Bulk Modulus (GPa) = 20.77926 28.98282 24.88104
# Shear Modulus (GPa) = 32.82874 36.58963 34.70918
#
# Velocity S-wave (km/s) = 4.08113 4.30856 4.19639
# Velocity P-wave (km/s) = 5.72275 6.28140 6.00857
#
# Compressibility (1/GPa) = 0.04812491
#
# Stress axis : x y z
#
# Youngs Moduli (GPa) = 123.08322 62.99935 41.34442
#
# Poissons Ratio (x) = 0.01315 0.16583
# Poissons Ratio (y) = 0.02570 -0.17322
# Poissons Ratio (z) = 0.49368 -0.26395
#
# Static dielectric constant tensor:
#      x y z
#    x 1.677040 0.000000 0.000000 
#    y 0.000000 1.624440 0.000000 
#    z 0.000000 0.000000 1.664210 
# 
# From -- ./inp_files/13633.got.cif
#   From: 2010.05.17/outbox.ucp.g08.bks.cvg/sg59_7_cif.got.tgz:13633.got - 2010.06.11 16:43:56.
