data_PCOD9453234
_publ_section_title
;
Structure prediction by ZEFSAII (Michael W. Deem and Ramdas Pophale) SiO2 
 PCOD9453234
Probable space group: P M M N
;
_chemical_formula_sum "Si O2"
_cell_formula_units_Z 64
_cell_length_a 7.395403
_cell_length_b 15.106566
_cell_length_c 29.276935
_cell_angle_alpha 90.000000
_cell_angle_beta 90.000000
_cell_angle_gamma 90.000000
_cell_volume 3270.794103
_symmetry_space_group_name_H-M "P M M N"
_symmetry_group_IT_number 59
_space_group.IT_coordinate_system_code '2'
_symmetry_cell_setting 'orthorhombic'
loop_
_space_group_symop_operation_xyz
x,y,z
1/2-x,1/2-y,z
1/2+x,-y,-z
-x,1/2+y,-z
-x,-y,-z
1/2+x,1/2+y,-z
1/2-x,y,z
x,1/2-y,z
loop_
_atom_site_type_symbol
_atom_site_label
_atom_site_fract_x
_atom_site_fract_y
_atom_site_fract_z
Si Si1 0.464976 0.043560 0.612308
Si Si2 0.464917 0.099897 0.516372
Si Si3 0.532106 0.655229 0.580418
Si Si4 0.529673 0.851455 0.197096
Si Si5 0.032191 0.351087 0.971810
Si Si6 0.529685 0.851921 0.300490
Si Si7 0.971788 0.529676 0.112903
Si Si8 0.537361 0.349075 0.076471
O O1 0.250000 0.058281 0.612152
O O2 0.536462 0.098212 0.568124
O O3 0.534050 0.082232 0.659950
O O4 0.487197 0.938127 0.604306
O O5 0.250000 0.117889 0.519115
O O6 0.533850 0.152439 0.472385
O O7 0.500000 0.000000 0.500000
O O8 0.750000 0.655508 0.578958
O O9 0.473697 0.750000 0.600873
O O10 0.750000 0.851897 0.196767
O O11 0.475725 0.750000 0.186843
O O12 0.472028 0.873312 0.248769
O O13 0.470089 0.919317 0.158342
O O14 0.250000 0.350806 0.970736
O O15 0.971026 0.250000 0.963856
O O16 0.970382 0.415380 0.931805
O O17 0.978492 0.375967 0.023188
O O18 0.750000 0.854136 0.299964
O O19 0.478746 0.750000 0.310372
O O20 0.750000 0.529337 0.112828
O O21 0.034563 0.428883 0.107019
O O22 0.750000 0.342561 0.086425
O O23 0.459771 0.250000 0.081246
#
# Coordination Sequence:
#
# PCOD9453234 Si02
#       8
#     8   8   8   8   8   8   8   8
#     4   9  16  26  42  63  85 108 135 169 207 245
#     4   8  14  24  37  54  77 104 133 164 196 230
#     4   9  17  28  41  58  82 113 145 172 199 236
#     4   8  13  22  37  58  82 103 124 156 198 238
#     4   9  16  25  38  57  78  99 127 161 191 221
#     4   8  14  24  39  61  86 107 128 160 205 251
#     4   9  15  23  37  55  76 103 131 158 189 226
#     4   9  17  27  37  52  77 106 131 155 187 227
#
# _framework density 19.567115000000001
#
# number of rings (size 3 to 8) (size 9 to 14) (size 15 to 20)
#    0.000    3.375    0.000    1.500    0.000    2.250 
#    0.000    2.500    0.000    1.125    0.000    8.750 
#    0.000    4.000    0.000    0.000    0.000    0.000 
#
# Total GULP energy -356533.016294 kJ/mol
# GULP energy per Si atom -5570.828380 kJ/mol
# Density = 1.952258 g / cm^3
# Si number density = 19.567115 Si / 1000 Ang^3
#
#
#
# Elastic Constant Matrix: (Units=GPa)
#
#
# Indices 1 2 3 4 5 6 
#
# 1 66.6594 1.4236 2.9866 0.0000 0.0000 0.0000
# 2 1.4236 131.7245 112.3004 0.0000 0.0000 0.0000
# 3 2.9866 112.3004 148.0664 0.0000 0.0000 0.0000
# 4 0.0000 0.0000 0.0000 32.7331 0.0000 0.0000
# 5 0.0000 0.0000 0.0000 0.0000 2.3514 0.0000
# 6 0.0000 0.0000 0.0000 0.0000 0.0000 -3.9307
#
#
#
# Elastic Compliance Matrix: (Units=1/GPa)
#
#
# Indices 1 2 3 4 5 6 
#
# 1 0.015019 0.000272 -0.000509 0.000000 0.000000 0.000000
# 2 0.000272 0.021487 -0.016302 0.000000 0.000000 0.000000
# 3 -0.000509 -0.016302 0.019128 0.000000 0.000000 0.000000
# 4 0.000000 0.000000 0.000000 0.030550 0.000000 0.000000
# 5 0.000000 0.000000 0.000000 0.000000 0.425282 0.000000
# 6 0.000000 0.000000 0.000000 0.000000 0.000000 -0.254406
#
#
# Mechanical properties :
#
#
# Convention : Reuss Voigt Hill
#
# Bulk Modulus (GPa) = 44.33635 64.43015 54.38325
# Shear Modulus (GPa) = 16.79786 21.54675 19.17231
#
# Velocity S-wave (km/s) = 2.93315 3.32199 3.13361
# Velocity P-wave (km/s) = 5.84628 6.90749 6.39892
#
# Compressibility (1/GPa) = 0.02255485
#
# Stress axis : x y z
#
# Youngs Moduli (GPa) = 66.58394 46.54016 52.27879
#
# Poissons Ratio (x) = -0.01264 0.02660
# Poissons Ratio (y) = -0.01808 0.85225
# Poissons Ratio (z) = 0.03388 0.75870
#
# Static dielectric constant tensor:
#      x y z
#    x 1.758010 0.000000 0.000000 
#    y 0.000000 1.700740 0.000000 
#    z 0.000000 0.000000 1.676100 
# 
# From -- ./inp_files/33226.got.cif
#   From: 2010.05.17/outbox.cif.g08.bks.cpg/sg59_17_cif.got.tgz:33226.got - 2010.06.03 14:40:33.
