data_PCOD9453879
_publ_section_title
;
Structure prediction by ZEFSAII (Michael W. Deem and Ramdas Pophale) SiO2 
 PCOD9453879
Probable space group: P B C N
;
_chemical_formula_sum "Si O2"
_cell_formula_units_Z 52
_cell_length_a 7.735274
_cell_length_b 18.067381
_cell_length_c 17.176799
_cell_angle_alpha 90.000000
_cell_angle_beta 90.000000
_cell_angle_gamma 90.000000
_cell_volume 2400.563169
_symmetry_space_group_name_H-M "P B C N"
_symmetry_group_IT_number 60
_symmetry_cell_setting 'orthorhombic'
loop_
_space_group_symop_operation_xyz
x,y,z
1/2-x,1/2-y,1/2+z
1/2+x,1/2-y,-z
-x,y,1/2-z
-x,-y,-z
1/2+x,1/2+y,1/2-z
1/2-x,1/2+y,z
x,-y,1/2+z
loop_
_atom_site_type_symbol
_atom_site_label
_atom_site_fract_x
_atom_site_fract_y
_atom_site_fract_z
Si Si1 0.295281 0.934137 0.156027
Si Si2 0.298884 0.720187 0.601634
Si Si3 0.500000 0.034742 0.250000
Si Si4 0.577163 0.837087 0.626779
Si Si5 0.885865 0.055036 0.451160
Si Si6 0.067076 0.201865 0.423200
Si Si7 0.543256 0.083480 0.523880
O O1 0.190469 0.858254 0.146634
O O2 0.472574 0.911873 0.110503
O O3 0.344870 0.977109 0.233622
O O4 0.209374 0.001090 0.108168
O O5 0.417454 0.782362 0.641768
O O6 0.376703 0.712862 0.513722
O O7 0.099974 0.748466 0.596779
O O8 0.447388 0.090523 0.319567
O O9 0.759546 0.793995 0.628844
O O10 0.558875 0.866338 0.537738
O O11 0.744115 0.095126 0.506136
O O12 0.000867 0.117995 0.413572
O O13 0.000000 0.000000 0.500000
O O14 0.500000 0.000000 0.500000
#
# Coordination Sequence:
#
# PCOD9453879 Si02
#       7
#     8   8   4   8   8   8   8
#     4  11  23  42  69  98 138 184 235 293 345 419
#     4  12  23  41  69 107 140 172 231 298 362 415
#     4  12  26  48  70  92 148 202 234 278 360 436
#     4  12  24  45  70  98 142 187 229 292 356 424
#     4  11  20  35  67 106 132 169 232 293 333 415
#     4  12  22  38  72 108 134 171 227 299 365 409
#     4  10  17  37  67  95 124 169 229 289 332 393
#
# _framework density 21.661584000000001
#
# number of rings (size 3 to 8) (size 9 to 14) (size 15 to 20)
#    0.000    0.615    9.231    0.923    0.000    0.000 
#    2.769    2.308    0.000    0.000    0.000    0.000 
#    0.000    0.000    0.000    0.000    0.000    0.000 
#
# Total GULP energy -290144.326714 kJ/mol
# GULP energy per Si atom -5579.698591 kJ/mol
# Density = 2.161228 g / cm^3
# Si number density = 21.661584 Si / 1000 Ang^3
#
#
#
# Elastic Constant Matrix: (Units=GPa)
#
#
# Indices 1 2 3 4 5 6 
#
# 1 112.4275 33.0436 14.9417 0.0000 0.0000 0.0000
# 2 33.0436 147.6064 33.9305 0.0000 0.0000 0.0000
# 3 14.9417 33.9305 43.2718 0.0000 0.0000 0.0000
# 4 0.0000 0.0000 0.0000 27.2008 0.0000 0.0000
# 5 0.0000 0.0000 0.0000 0.0000 15.5332 0.0000
# 6 0.0000 0.0000 0.0000 0.0000 0.0000 39.3721
#
#
#
# Elastic Compliance Matrix: (Units=1/GPa)
#
#
# Indices 1 2 3 4 5 6 
#
# 1 0.009661 -0.001703 -0.002001 0.000000 0.000000 0.000000
# 2 -0.001703 0.008565 -0.006128 0.000000 0.000000 0.000000
# 3 -0.002001 -0.006128 0.028605 0.000000 0.000000 0.000000
# 4 0.000000 0.000000 0.000000 0.036764 0.000000 0.000000
# 5 0.000000 0.000000 0.000000 0.000000 0.064378 0.000000
# 6 0.000000 0.000000 0.000000 0.000000 0.000000 0.025399
#
#
# Mechanical properties :
#
#
# Convention : Reuss Voigt Hill
#
# Bulk Modulus (GPa) = 36.80724 51.90413 44.35569
# Shear Modulus (GPa) = 24.74142 31.18053 27.96097
#
# Velocity S-wave (km/s) = 3.38328 3.79811 3.59668
# Velocity P-wave (km/s) = 5.68251 6.57629 6.14567
#
# Compressibility (1/GPa) = 0.02716857
#
# Stress axis : x y z
#
# Youngs Moduli (GPa) = 103.50895 116.76019 34.95833
#
# Poissons Ratio (x) = 0.19882 0.06994
# Poissons Ratio (y) = 0.17626 0.21421
# Poissons Ratio (z) = 0.20709 0.71547
#
# Static dielectric constant tensor:
#      x y z
#    x 1.927190 0.000000 0.000000 
#    y 0.000000 1.812760 0.000000 
#    z 0.000000 0.000000 1.734750 
# 
# From -- ./inp_files/19497.got.cif
#   From: 2010.05.17/outbox.cif.g08.bks.cpg/sg60_10_cif.got.tgz:19497.got - 2010.06.03 14:59:27.
