data_PCOD9453741
_publ_section_title
;
Structure prediction by ZEFSAII (Michael W. Deem and Ramdas Pophale) SiO2 
 PCOD9453741
Probable space group: P B C N
;
_chemical_formula_sum "Si O2"
_cell_formula_units_Z 48
_cell_length_a 7.151864
_cell_length_b 23.883130
_cell_length_c 11.521846
_cell_angle_alpha 90.000000
_cell_angle_beta 90.000000
_cell_angle_gamma 90.000000
_cell_volume 1968.033814
_symmetry_space_group_name_H-M "P B C N"
_symmetry_group_IT_number 60
_symmetry_cell_setting 'orthorhombic'
loop_
_space_group_symop_operation_xyz
x,y,z
1/2-x,1/2-y,1/2+z
1/2+x,1/2-y,-z
-x,y,1/2-z
-x,-y,-z
1/2+x,1/2+y,1/2-z
1/2-x,1/2+y,z
x,-y,1/2+z
loop_
_atom_site_type_symbol
_atom_site_label
_atom_site_fract_x
_atom_site_fract_y
_atom_site_fract_z
Si Si1 0.554622 0.861605 0.121026
Si Si2 0.222238 0.358549 0.721527
Si Si3 0.239960 0.835208 0.962547
Si Si4 0.296699 0.015132 0.874658
Si Si5 0.227600 0.475379 0.625253
Si Si6 0.394490 0.228795 0.059997
O O1 0.500000 0.845175 0.250000
O O2 0.671143 0.918104 0.126025
O O3 0.365068 0.873715 0.045890
O O4 0.642125 0.809164 0.054118
O O5 0.328800 0.362496 0.844160
O O6 0.265123 0.409173 0.635320
O O7 0.236072 0.298559 0.658197
O O8 0.000000 0.367825 0.750000
O O9 0.394328 0.790357 0.914286
O O10 0.114166 0.794323 0.038138
O O11 0.502961 0.986697 0.875871
O O12 0.210103 0.999337 0.750312
O O13 0.207389 0.001882 0.000065
#
# Coordination Sequence:
#
# PCOD9453741 Si02
#       6
#     8   8   8   8   8   8
#     4  10  19  30  44  69 101 125 153 204 241 281
#     4  10  16  31  45  64  94 135 155 191 238 303
#     4   9  21  31  50  65  96 130 164 200 242 279
#     4  10  17  25  43  67  97 130 149 189 249 301
#     4  10  17  24  42  64 100 128 150 184 253 308
#     4   9  20  32  47  67  94 129 163 200 238 279
#
# _framework density 24.389824999999998
#
# number of rings (size 3 to 8) (size 9 to 14) (size 15 to 20)
#    1.000    1.333    5.000    0.000    4.667    0.000 
#    0.000    0.000    0.000    0.000    0.000    0.000 
#    0.000    8.000    0.000    0.000    0.000    0.000 
#
# Total GULP energy -267499.198321 kJ/mol
# GULP energy per Si atom -5572.899965 kJ/mol
# Density = 2.433431 g / cm^3
# Si number density = 24.389825 Si / 1000 Ang^3
#
#
#
# Elastic Constant Matrix: (Units=GPa)
#
#
# Indices 1 2 3 4 5 6 
#
# 1 59.3032 3.7329 7.8161 0.0000 0.0000 0.0000
# 2 3.7329 60.2969 21.4951 0.0000 0.0000 0.0000
# 3 7.8161 21.4951 227.2758 0.0000 0.0000 0.0000
# 4 0.0000 0.0000 0.0000 63.0812 0.0000 0.0000
# 5 0.0000 0.0000 0.0000 0.0000 -7.7499 0.0000
# 6 0.0000 0.0000 0.0000 0.0000 0.0000 3.4184
#
#
#
# Elastic Compliance Matrix: (Units=1/GPa)
#
#
# Indices 1 2 3 4 5 6 
#
# 1 0.016984 -0.000873 -0.000502 0.000000 0.000000 0.000000
# 2 -0.000873 0.017208 -0.001597 0.000000 0.000000 0.000000
# 3 -0.000502 -0.001597 0.004568 0.000000 0.000000 0.000000
# 4 0.000000 0.000000 0.000000 0.015853 0.000000 0.000000
# 5 0.000000 0.000000 0.000000 0.000000 -0.129034 0.000000
# 6 0.000000 0.000000 0.000000 0.000000 0.000000 0.292535
#
#
# Mechanical properties :
#
#
# Convention : Reuss Voigt Hill
#
# Bulk Modulus (GPa) = 30.47241 45.88492 38.17867
# Shear Modulus (GPa) = 21.27691 32.67205 26.97448
#
# Velocity S-wave (km/s) = 2.95679 3.66399 3.32922
# Velocity P-wave (km/s) = 4.91710 6.06249 5.51958
#
# Compressibility (1/GPa) = 0.03281657
#
# Stress axis : x y z
#
# Youngs Moduli (GPa) = 58.88059 58.11215 218.90102
#
# Poissons Ratio (x) = 0.05071 0.10979
# Poissons Ratio (y) = 0.05138 0.34969
# Poissons Ratio (z) = 0.02953 0.09283
#
# Static dielectric constant tensor:
#      x y z
#    x 2.032910 0.000000 0.000000 
#    y 0.000000 1.947770 0.000000 
#    z 0.000000 0.000000 2.047170 
# 
# From -- ./inp_files/11299.got.cif
#   From: 2010.05.17/outbox.cif.g08.bks.cpg/sg60_6_cif.got.tgz:11299.got - 2010.06.03 14:59:27.
