data_PCOD9453772
_publ_section_title
;
Structure prediction by ZEFSAII (Michael W. Deem and Ramdas Pophale) SiO2 
 PCOD9453772
Probable space group: P B C N
;
_chemical_formula_sum "Si O2"
_cell_formula_units_Z 48
_cell_length_a 8.004628
_cell_length_b 22.665996
_cell_length_c 14.884023
_cell_angle_alpha 90.000000
_cell_angle_beta 90.000000
_cell_angle_gamma 90.000000
_cell_volume 2700.450954
_symmetry_space_group_name_H-M "P B C N"
_symmetry_group_IT_number 60
_symmetry_cell_setting 'orthorhombic'
loop_
_space_group_symop_operation_xyz
x,y,z
1/2-x,1/2-y,1/2+z
1/2+x,1/2-y,-z
-x,y,1/2-z
-x,-y,-z
1/2+x,1/2+y,1/2-z
1/2-x,1/2+y,z
x,-y,1/2+z
loop_
_atom_site_type_symbol
_atom_site_label
_atom_site_fract_x
_atom_site_fract_y
_atom_site_fract_z
Si Si1 0.020652 0.935232 0.038332
Si Si2 0.990306 0.190542 0.042340
Si Si3 0.285766 0.106823 0.844095
Si Si4 0.844526 0.602918 0.866704
Si Si5 0.214023 0.235508 0.616489
Si Si6 0.821997 0.741094 0.695988
O O1 0.876594 0.921202 0.111627
O O2 0.205512 0.931294 0.078949
O O3 0.007952 0.879567 0.970631
O O4 0.000000 0.000000 0.000000
O O5 0.856637 0.211649 0.118064
O O6 0.168084 0.215140 0.073699
O O7 0.940903 0.222073 0.948241
O O8 0.305109 0.093382 0.738464
O O9 0.463325 0.088641 0.886931
O O10 0.279934 0.178096 0.847553
O O11 0.811104 0.672420 0.884762
O O12 0.193673 0.251088 0.721730
O O13 0.000000 0.736417 0.750000
#
# Coordination Sequence:
#
# PCOD9453772 Si02
#       6
#     8   8   8   8   8   8
#     4  11  24  34  48  82 112 148 186 213 256 324
#     4  10  18  31  52  77 108 138 173 222 273 326
#     4  10  16  35  60  75 103 135 180 231 276 308
#     4   9  18  35  57  80 100 133 182 234 266 321
#     4   9  17  30  52  82 105 129 175 225 286 329
#     4   9  15  31  55  82 105 132 173 229 290 327
#
# _framework density 17.774808
#
# number of rings (size 3 to 8) (size 9 to 14) (size 15 to 20)
#    0.000    2.333    5.000    1.500    0.000    0.667 
#    0.000    7.500    0.000    0.000    0.000    0.000 
#    0.000    0.000    0.000    0.000    0.000    0.000 
#
# Total GULP energy -267465.647706 kJ/mol
# GULP energy per Si atom -5572.200994 kJ/mol
# Density = 1.773435 g / cm^3
# Si number density = 17.774808 Si / 1000 Ang^3
#
#
#
# Elastic Constant Matrix: (Units=GPa)
#
#
# Indices 1 2 3 4 5 6 
#
# 1 75.8141 35.5718 36.6402 0.0000 0.0000 0.0000
# 2 35.5718 107.5074 48.6611 0.0000 0.0000 0.0000
# 3 36.6402 48.6611 65.4311 0.0000 0.0000 0.0000
# 4 0.0000 0.0000 0.0000 17.8245 0.0000 0.0000
# 5 0.0000 0.0000 0.0000 0.0000 31.4158 0.0000
# 6 0.0000 0.0000 0.0000 0.0000 0.0000 16.1461
#
#
#
# Elastic Compliance Matrix: (Units=1/GPa)
#
#
# Indices 1 2 3 4 5 6 
#
# 1 0.018408 -0.002148 -0.008710 0.000000 0.000000 0.000000
# 2 -0.002148 0.014272 -0.009411 0.000000 0.000000 0.000000
# 3 -0.008710 -0.009411 0.027160 0.000000 0.000000 0.000000
# 4 0.000000 0.000000 0.000000 0.056102 0.000000 0.000000
# 5 0.000000 0.000000 0.000000 0.000000 0.031831 0.000000
# 6 0.000000 0.000000 0.000000 0.000000 0.000000 0.061935
#
#
# Mechanical properties :
#
#
# Convention : Reuss Voigt Hill
#
# Bulk Modulus (GPa) = 51.81262 54.49988 53.15625
# Shear Modulus (GPa) = 19.47937 21.60258 20.54097
#
# Velocity S-wave (km/s) = 3.31403 3.48997 3.40313
# Velocity P-wave (km/s) = 6.62242 6.85330 6.73885
#
# Compressibility (1/GPa) = 0.01930032
#
# Stress axis : x y z
#
# Youngs Moduli (GPa) = 54.32508 70.06564 36.81857
#
# Poissons Ratio (x) = 0.15051 0.32071
# Poissons Ratio (y) = 0.11670 0.34652
# Poissons Ratio (z) = 0.47320 0.65942
#
# Static dielectric constant tensor:
#      x y z
#    x 1.676830 0.000000 0.000000 
#    y 0.000000 1.574810 0.000000 
#    z 0.000000 0.000000 1.657630 
# 
# From -- ./inp_files/15153.got.cif
#   From: 2010.05.17/outbox.cif.g08.bks.cpg/sg60_8_cif.got.tgz:15153.got - 2010.06.03 14:59:27.
