data_PCOD9453695
_publ_section_title
;
Structure prediction by ZEFSAII (Michael W. Deem and Ramdas Pophale) SiO2 
 PCOD9453695
Probable space group: P B C N
;
_chemical_formula_sum "Si O2"
_cell_formula_units_Z 48
_cell_length_a 16.473575
_cell_length_b 6.953720
_cell_length_c 17.139299
_cell_angle_alpha 90.000000
_cell_angle_beta 90.000000
_cell_angle_gamma 90.000000
_cell_volume 1963.351742
_symmetry_space_group_name_H-M "P B C N"
_symmetry_group_IT_number 60
_symmetry_cell_setting 'orthorhombic'
loop_
_space_group_symop_operation_xyz
x,y,z
1/2-x,1/2-y,1/2+z
1/2+x,1/2-y,-z
-x,y,1/2-z
-x,-y,-z
1/2+x,1/2+y,1/2-z
1/2-x,1/2+y,z
x,-y,1/2+z
loop_
_atom_site_type_symbol
_atom_site_label
_atom_site_fract_x
_atom_site_fract_y
_atom_site_fract_z
Si Si1 0.922420 0.215440 0.944390
Si Si2 0.457548 0.206791 0.673971
Si Si3 0.591818 0.370357 0.274303
Si Si4 0.402592 0.740782 0.011960
Si Si5 0.801259 0.153990 0.628593
Si Si6 0.133449 0.732026 0.899726
O O1 0.894733 0.232552 0.856268
O O2 0.913143 0.985933 0.963385
O O3 0.870651 0.322288 0.009785
O O4 0.016119 0.275906 0.959432
O O5 0.500000 0.103635 0.750000
O O6 0.412484 0.396429 0.710072
O O7 0.403908 0.153252 0.596807
O O8 0.541984 0.242598 0.628644
O O9 0.500000 0.330301 0.250000
O O10 0.652164 0.297003 0.208104
O O11 0.328400 0.764036 0.950857
O O12 0.705735 0.124670 0.643182
O O13 0.835678 0.946241 0.609532
#
# Coordination Sequence:
#
# PCOD9453695 Si02
#       6
#     8   8   8   8   8   8
#     4   8  14  27  45  72  93 125 165 211 240 298
#     4   9  15  30  52  75  92 132 184 212 233 302
#     4  10  14  27  54  78  92 126 187 215 234 295
#     4   8  14  25  48  68  93 122 167 202 244 294
#     4  11  19  32  49  79 104 132 167 223 263 302
#     4  10  20  32  49  75 109 132 165 217 270 298
#
# _framework density 24.447987999999999
#
# number of rings (size 3 to 8) (size 9 to 14) (size 15 to 20)
#    0.000    2.667    5.000    2.000    0.000    0.000 
#    3.000    0.000    0.000    5.000    0.000    0.000 
#    0.000    0.000    0.000    0.000    0.000    0.000 
#
# Total GULP energy -267318.609667 kJ/mol
# GULP energy per Si atom -5569.137701 kJ/mol
# Density = 2.439234 g / cm^3
# Si number density = 24.447988 Si / 1000 Ang^3
#
#
#
# Elastic Constant Matrix: (Units=GPa)
#
#
# Indices 1 2 3 4 5 6 
#
# 1 65.9205 -3.1871 10.4622 0.0000 0.0000 0.0000
# 2 -3.1871 56.2976 27.8585 0.0000 0.0000 0.0000
# 3 10.4622 27.8585 137.8621 0.0000 0.0000 0.0000
# 4 0.0000 0.0000 0.0000 22.6205 0.0000 0.0000
# 5 0.0000 0.0000 0.0000 0.0000 31.2763 0.0000
# 6 0.0000 0.0000 0.0000 0.0000 0.0000 13.5703
#
#
#
# Elastic Compliance Matrix: (Units=1/GPa)
#
#
# Indices 1 2 3 4 5 6 
#
# 1 0.015487 0.001620 -0.001503 0.000000 0.000000 0.000000
# 2 0.001620 0.019906 -0.004145 0.000000 0.000000 0.000000
# 3 -0.001503 -0.004145 0.008205 0.000000 0.000000 0.000000
# 4 0.000000 0.000000 0.000000 0.044208 0.000000 0.000000
# 5 0.000000 0.000000 0.000000 0.000000 0.031973 0.000000
# 6 0.000000 0.000000 0.000000 0.000000 0.000000 0.073690
#
#
# Mechanical properties :
#
#
# Convention : Reuss Voigt Hill
#
# Bulk Modulus (GPa) = 28.13560 36.70528 32.42044
# Shear Modulus (GPa) = 23.43324 28.48984 25.96154
#
# Velocity S-wave (km/s) = 3.09931 3.41739 3.26223
# Velocity P-wave (km/s) = 4.93366 5.53332 5.24207
#
# Compressibility (1/GPa) = 0.03554217
#
# Stress axis : x y z
#
# Youngs Moduli (GPa) = 64.57188 50.23654 121.87163
#
# Poissons Ratio (x) = -0.08140 0.18314
# Poissons Ratio (y) = -0.10463 0.50521
# Poissons Ratio (z) = 0.09703 0.20825
#
# Static dielectric constant tensor:
#      x y z
#    x 1.986810 0.000000 0.000000 
#    y 0.000000 2.158720 0.000000 
#    z 0.000000 0.000000 2.049990 
# 
# From -- ./inp_files/20585.got.cif
#   From: 2010.05.17/outbox.cif.g08.bks.cpg/sg60_11_cif.got.tgz:20585.got - 2010.06.03 14:59:27.
