data_PCOD9453878
_publ_section_title
;
Structure prediction by ZEFSAII (Michael W. Deem and Ramdas Pophale) SiO2 
 PCOD9453878
Probable space group: P B C N
;
_chemical_formula_sum "Si O2"
_cell_formula_units_Z 64
_cell_length_a 14.239609
_cell_length_b 12.379239
_cell_length_c 18.240514
_cell_angle_alpha 90.000000
_cell_angle_beta 90.000000
_cell_angle_gamma 90.000000
_cell_volume 3215.356147
_symmetry_space_group_name_H-M "P B C N"
_symmetry_group_IT_number 60
_symmetry_cell_setting 'orthorhombic'
loop_
_space_group_symop_operation_xyz
x,y,z
1/2-x,1/2-y,1/2+z
1/2+x,1/2-y,-z
-x,y,1/2-z
-x,-y,-z
1/2+x,1/2+y,1/2-z
1/2-x,1/2+y,z
x,-y,1/2+z
loop_
_atom_site_type_symbol
_atom_site_label
_atom_site_fract_x
_atom_site_fract_y
_atom_site_fract_z
Si Si1 0.644460 0.140090 0.377056
Si Si2 0.675567 0.616364 0.913008
Si Si3 0.872296 0.288796 0.404586
Si Si4 0.811716 0.089491 0.489807
Si Si5 0.713121 0.471856 0.772054
Si Si6 0.512176 0.978715 0.085076
Si Si7 0.610160 0.269440 0.741164
Si Si8 0.705608 0.103757 0.637982
O O1 0.629470 0.267363 0.394271
O O2 0.714326 0.100519 0.442578
O O3 0.703472 0.104463 0.305067
O O4 0.549289 0.071161 0.375932
O O5 0.782245 0.647976 0.934918
O O6 0.646130 0.529994 0.975312
O O7 0.678187 0.545455 0.839077
O O8 0.877745 0.179201 0.451139
O O9 0.848090 0.268796 0.319442
O O10 0.962433 0.363382 0.403896
O O11 0.780536 0.115752 0.572427
O O12 0.631918 0.395648 0.741095
O O13 0.750397 0.544790 0.707299
O O14 0.619156 0.968663 0.108753
O O15 0.500000 0.000000 0.000000
O O16 0.500000 0.246840 0.750000
O O17 0.658912 0.211511 0.672525
#
# Coordination Sequence:
#
# PCOD9453878 Si02
#       8
#     8   8   8   8   8   8   8   8
#     4  10  19  35  62  89 118 171 212 246 320 395
#     4  10  17  37  64  83 117 171 210 244 309 406
#     4  11  19  38  65  87 124 166 216 251 320 390
#     4  10  21  37  62  92 121 173 206 257 319 389
#     4  11  21  39  62  92 126 165 211 261 326 388
#     4  12  22  37  59  97 126 160 211 273 318 377
#     4  12  23  38  67  96 122 165 219 271 316 381
#     4  12  24  37  64 100 131 156 220 283 323 372
#
# _framework density 19.904482000000002
#
# number of rings (size 3 to 8) (size 9 to 14) (size 15 to 20)
#    0.000    1.000   10.000    0.000    0.000    3.000 
#    0.000    0.000    8.250    1.500    0.000    0.000 
#    0.000    0.000    0.000    0.000    0.000    0.000 
#
# Total GULP energy -356798.264523 kJ/mol
# GULP energy per Si atom -5574.972883 kJ/mol
# Density = 1.985918 g / cm^3
# Si number density = 19.904482 Si / 1000 Ang^3
#
#
#
# Elastic Constant Matrix: (Units=GPa)
#
#
# Indices 1 2 3 4 5 6 
#
# 1 17.9784 16.9518 12.7902 0.0000 0.0000 0.0000
# 2 16.9518 115.1759 17.4195 0.0000 0.0000 0.0000
# 3 12.7902 17.4195 82.3675 0.0000 0.0000 0.0000
# 4 0.0000 0.0000 0.0000 14.8727 0.0000 0.0000
# 5 0.0000 0.0000 0.0000 0.0000 12.4712 0.0000
# 6 0.0000 0.0000 0.0000 0.0000 0.0000 19.8057
#
#
#
# Elastic Compliance Matrix: (Units=1/GPa)
#
#
# Indices 1 2 3 4 5 6 
#
# 1 0.070563 -0.009017 -0.009050 0.000000 0.000000 0.000000
# 2 -0.009017 0.010121 -0.000740 0.000000 0.000000 0.000000
# 3 -0.009050 -0.000740 0.013703 0.000000 0.000000 0.000000
# 4 0.000000 0.000000 0.000000 0.067237 0.000000 0.000000
# 5 0.000000 0.000000 0.000000 0.000000 0.080185 0.000000
# 6 0.000000 0.000000 0.000000 0.000000 0.000000 0.050491
#
#
# Mechanical properties :
#
#
# Convention : Reuss Voigt Hill
#
# Bulk Modulus (GPa) = 17.61428 34.42719 26.02073
# Shear Modulus (GPa) = 14.33330 20.65394 17.49362
#
# Velocity S-wave (km/s) = 2.68639 3.22476 2.96780
# Velocity P-wave (km/s) = 4.30010 5.58562 4.98448
#
# Compressibility (1/GPa) = 0.05677213
#
# Stress axis : x y z
#
# Youngs Moduli (GPa) = 14.17178 98.80004 72.97869
#
# Poissons Ratio (x) = 0.89086 0.66047
# Poissons Ratio (y) = 0.12778 0.05403
# Poissons Ratio (z) = 0.12826 0.07315
#
# Static dielectric constant tensor:
#      x y z
#    x 1.729940 0.000000 0.000000 
#    y 0.000000 1.475310 0.000000 
#    z 0.000000 0.000000 1.722050 
# 
# From -- ./inp_files/20667.got.cif
#   From: 2010.05.17/outbox.cif.g08.bks.cpg/sg60_11_cif.got.tgz:20667.got - 2010.06.03 14:59:27.
