data_PCOD9453965
_publ_section_title
;
Structure prediction by ZEFSAII (Michael W. Deem and Ramdas Pophale) SiO2 
 PCOD9453965
Probable space group: P B C N
;
_chemical_formula_sum "Si O2"
_cell_formula_units_Z 64
_cell_length_a 30.852433
_cell_length_b 5.425360
_cell_length_c 14.040304
_cell_angle_alpha 90.000000
_cell_angle_beta 90.000000
_cell_angle_gamma 90.000000
_cell_volume 2350.144090
_symmetry_space_group_name_H-M "P B C N"
_symmetry_group_IT_number 60
_symmetry_cell_setting 'orthorhombic'
loop_
_space_group_symop_operation_xyz
x,y,z
1/2-x,1/2-y,1/2+z
1/2+x,1/2-y,-z
-x,y,1/2-z
-x,-y,-z
1/2+x,1/2+y,1/2-z
1/2-x,1/2+y,z
x,-y,1/2+z
loop_
_atom_site_type_symbol
_atom_site_label
_atom_site_fract_x
_atom_site_fract_y
_atom_site_fract_z
Si Si1 0.416985 0.465708 0.112756
Si Si2 0.733894 0.360724 0.714766
Si Si3 0.268242 0.864350 0.006660
Si Si4 0.148923 0.664462 0.044065
Si Si5 0.090469 0.303287 0.933999
Si Si6 0.547689 0.785780 0.222468
Si Si7 0.861821 0.113461 0.150980
Si Si8 0.006000 0.149523 0.901418
O O1 0.371397 0.328964 0.127253
O O2 0.415291 0.568977 0.005987
O O3 0.431569 0.690842 0.177907
O O4 0.457442 0.281941 0.126258
O O5 0.751149 0.113349 0.761434
O O6 0.759727 0.360429 0.609826
O O7 0.681649 0.352762 0.711743
O O8 0.236516 0.084431 0.037619
O O9 0.312791 0.971762 0.047038
O O10 0.109798 0.501325 0.003765
O O11 0.159017 0.833441 0.952847
O O12 0.119477 0.166587 0.854031
O O13 0.041188 0.368657 0.903855
O O14 0.500000 0.910343 0.250000
O O15 0.597328 0.801861 0.171293
O O16 0.528678 0.546800 0.167227
O O17 0.000000 0.000000 0.000000
#
# Coordination Sequence:
#
# PCOD9453965 Si02
#       8
#     8   8   8   8   8   8   8   8
#     4   9  19  33  51  76 112 151 188 229 295 365
#     4  10  18  31  54  88 120 146 192 256 321 367
#     4  10  19  32  54  87 123 150 192 251 317 369
#     4  11  20  31  55  85 113 144 195 251 302 363
#     4   9  18  31  52  79 109 144 187 241 295 347
#     4   9  18  36  58  78 115 162 200 244 307 380
#     4  10  19  32  56  84 109 149 195 252 307 361
#     4   8  15  32  55  79 105 143 190 243 293 347
#
# _framework density 27.232374
#
# number of rings (size 3 to 8) (size 9 to 14) (size 15 to 20)
#    0.000    2.500    2.500    2.250    1.750    0.500 
#    0.000    2.500    0.000   11.250    0.000    0.000 
#    0.000    0.000    0.000    0.000    0.000    0.000 
#
# Total GULP energy -356387.434656 kJ/mol
# GULP energy per Si atom -5568.553667 kJ/mol
# Density = 2.717039 g / cm^3
# Si number density = 27.232374 Si / 1000 Ang^3
#
#
#
# Elastic Constant Matrix: (Units=GPa)
#
#
# Indices 1 2 3 4 5 6 
#
# 1 77.2563 14.9111 20.2938 0.0000 0.0000 0.0000
# 2 14.9111 51.0166 -13.3516 0.0000 0.0000 0.0000
# 3 20.2938 -13.3516 59.4489 0.0000 0.0000 0.0000
# 4 0.0000 0.0000 0.0000 -8.1853 0.0000 0.0000
# 5 0.0000 0.0000 0.0000 0.0000 12.0207 0.0000
# 6 0.0000 0.0000 0.0000 0.0000 0.0000 41.2423
#
#
#
# Elastic Compliance Matrix: (Units=1/GPa)
#
#
# Indices 1 2 3 4 5 6 
#
# 1 0.016017 -0.006494 -0.006926 0.000000 0.000000 0.000000
# 2 -0.006494 0.023459 0.007485 0.000000 0.000000 0.000000
# 3 -0.006926 0.007485 0.020867 0.000000 0.000000 0.000000
# 4 0.000000 0.000000 0.000000 -0.122170 0.000000 0.000000
# 5 0.000000 0.000000 0.000000 0.000000 0.083190 0.000000
# 6 0.000000 0.000000 0.000000 0.000000 0.000000 0.024247
#
#
# Mechanical properties :
#
#
# Convention : Reuss Voigt Hill
#
# Bulk Modulus (GPa) = 20.63022 25.71426 23.17224
# Shear Modulus (GPa) = 67.90167 20.07342 43.98754
#
# Velocity S-wave (km/s) = 4.99883 2.71793 4.02340
# Velocity P-wave (km/s) = 6.39608 4.39461 5.48737
#
# Compressibility (1/GPa) = 0.04847259
#
# Stress axis : x y z
#
# Youngs Moduli (GPa) = 62.43499 42.62841 47.92342
#
# Poissons Ratio (x) = 0.27683 0.33192
# Poissons Ratio (y) = 0.40545 -0.35872
# Poissons Ratio (z) = 0.43243 -0.31909
#
# Static dielectric constant tensor:
#      x y z
#    x 2.269730 0.000000 0.000000 
#    y 0.000000 2.240930 0.000000 
#    z 0.000000 0.000000 1.486960 
# 
# From -- ./inp_files/21297.got.cif
#   From: 2010.05.17/outbox.cif.g08.bks.cpg/sg60_11_cif.got.tgz:21297.got - 2010.06.03 14:59:27.
