data_PCOD9453124
_publ_section_title
;
Structure prediction by ZEFSAII (Michael W. Deem and Ramdas Pophale) SiO2 
 PCOD9453124
Probable space group: P M M N
;
_chemical_formula_sum "Si O2"
_cell_formula_units_Z 48
_cell_length_a 21.155560
_cell_length_b 8.890240
_cell_length_c 15.336419
_cell_angle_alpha 90.000000
_cell_angle_beta 90.000000
_cell_angle_gamma 90.000000
_cell_volume 2884.443101
_symmetry_space_group_name_H-M "P M M N"
_symmetry_group_IT_number 59
_space_group.IT_coordinate_system_code '2'
_symmetry_cell_setting 'orthorhombic'
loop_
_space_group_symop_operation_xyz
x,y,z
1/2-x,1/2-y,z
1/2+x,-y,-z
-x,1/2+y,-z
-x,-y,-z
1/2+x,1/2+y,-z
1/2-x,y,z
x,1/2-y,z
loop_
_atom_site_type_symbol
_atom_site_label
_atom_site_fract_x
_atom_site_fract_y
_atom_site_fract_z
Si Si1 0.681532 0.932749 0.883379
Si Si2 0.154252 0.424573 0.315355
Si Si3 0.320106 0.928510 0.495503
Si Si4 0.552328 0.928065 0.435368
Si Si5 0.541347 0.567872 0.923078
Si Si6 0.006762 0.424757 0.273079
O O1 0.750000 0.984161 0.918019
O O2 0.680752 0.750000 0.887693
O O3 0.677734 0.969440 0.780467
O O4 0.615133 0.982725 0.925137
O O5 0.172327 0.250000 0.330831
O O6 0.177028 0.526573 0.393741
O O7 0.078274 0.429829 0.309886
O O8 0.250000 0.969734 0.528624
O O9 0.328407 0.750000 0.504868
O O10 0.378482 0.012267 0.539894
O O11 0.549581 0.750000 0.446016
O O12 0.500000 0.000000 0.500000
O O13 0.535129 0.976571 0.337150
O O14 0.541033 0.750000 0.927539
O O15 0.512856 0.528078 0.827884
O O16 0.500000 0.500000 0.000000
O O17 0.986209 0.250000 0.276324
#
# Coordination Sequence:
#
# PCOD9453124 Si02
#       6
#     8   8   8   8   8   8
#     4   8  14  26  46  72 100 130 165 204 250 304
#     4   9  16  28  49  73  98 131 167 205 252 310
#     4  11  23  35  48  71 105 141 176 217 263 308
#     4  12  23  35  54  77 103 138 179 218 257 308
#     4   9  18  32  52  77 104 134 169 211 260 310
#     4   9  18  33  52  76 103 133 170 214 261 309
#
# _framework density 16.640993000000002
#
# number of rings (size 3 to 8) (size 9 to 14) (size 15 to 20)
#    0.000    2.333    1.667    4.500    0.000    2.667 
#    0.000    2.500    0.000    2.500    0.000    4.667 
#    0.000    0.000    0.000    0.000    0.000    0.000 
#
# Total GULP energy -267630.547852 kJ/mol
# GULP energy per Si atom -5575.636414 kJ/mol
# Density = 1.660312 g / cm^3
# Si number density = 16.640993 Si / 1000 Ang^3
#
#
#
# Elastic Constant Matrix: (Units=GPa)
#
#
# Indices 1 2 3 4 5 6 
#
# 1 149.4137 54.8974 72.1954 0.0000 0.0000 0.0000
# 2 54.8974 60.6785 35.7295 0.0000 0.0000 0.0000
# 3 72.1954 35.7295 81.3260 0.0000 0.0000 0.0000
# 4 0.0000 0.0000 0.0000 28.0074 0.0000 0.0000
# 5 0.0000 0.0000 0.0000 0.0000 16.9265 0.0000
# 6 0.0000 0.0000 0.0000 0.0000 0.0000 19.1073
#
#
#
# Elastic Compliance Matrix: (Units=1/GPa)
#
#
# Indices 1 2 3 4 5 6 
#
# 1 0.013628 -0.007023 -0.009013 0.000000 0.000000 0.000000
# 2 -0.007023 0.025850 -0.005123 0.000000 0.000000 0.000000
# 3 -0.009013 -0.005123 0.022548 0.000000 0.000000 0.000000
# 4 0.000000 0.000000 0.000000 0.035705 0.000000 0.000000
# 5 0.000000 0.000000 0.000000 0.000000 0.059079 0.000000
# 6 0.000000 0.000000 0.000000 0.000000 0.000000 0.052336
#
#
# Mechanical properties :
#
#
# Convention : Reuss Voigt Hill
#
# Bulk Modulus (GPa) = 50.73633 68.56255 59.64944
# Shear Modulus (GPa) = 19.37750 21.38130 20.37940
#
# Velocity S-wave (km/s) = 3.41610 3.58838 3.50330
# Velocity P-wave (km/s) = 6.79077 7.64585 7.23096
#
# Compressibility (1/GPa) = 0.01970974
#
# Stress axis : x y z
#
# Youngs Moduli (GPa) = 73.37925 38.68429 44.35074
#
# Poissons Ratio (x) = 0.27166 0.39971
# Poissons Ratio (y) = 0.51531 0.22720
# Poissons Ratio (z) = 0.66133 0.19817
#
# Static dielectric constant tensor:
#      x y z
#    x 1.594500 0.000000 0.000000 
#    y 0.000000 1.558550 0.000000 
#    z 0.000000 0.000000 1.543950 
# 
# From -- ./inp_files/24090.got.cif
#   From: 2010.05.17/outbox.cif.g08.bks.cpg/sg59_13_cif.got.tgz:24090.got - 2010.06.03 14:40:33.
