data_PCOD9453215
_publ_section_title
;
Structure prediction by ZEFSAII (Michael W. Deem and Ramdas Pophale) SiO2 
 PCOD9453215
Probable space group: P M M N
;
_chemical_formula_sum "Si O2"
_cell_formula_units_Z 64
_cell_length_a 7.371027
_cell_length_b 14.444922
_cell_length_c 30.278563
_cell_angle_alpha 90.000000
_cell_angle_beta 90.000000
_cell_angle_gamma 90.000000
_cell_volume 3223.876994
_symmetry_space_group_name_H-M "P M M N"
_symmetry_group_IT_number 59
_space_group.IT_coordinate_system_code '2'
_symmetry_cell_setting 'orthorhombic'
loop_
_space_group_symop_operation_xyz
x,y,z
1/2-x,1/2-y,z
1/2+x,-y,-z
-x,1/2+y,-z
-x,-y,-z
1/2+x,1/2+y,-z
1/2-x,y,z
x,1/2-y,z
loop_
_atom_site_type_symbol
_atom_site_label
_atom_site_fract_x
_atom_site_fract_y
_atom_site_fract_z
Si Si1 0.529353 0.641566 0.074595
Si Si2 0.528629 0.643265 0.346350
Si Si3 0.472569 0.467753 0.838421
Si Si4 0.961860 0.146529 0.118197
Si Si5 0.532773 0.640438 0.979272
Si Si6 0.031847 0.645252 0.518262
Si Si7 0.534495 0.531638 0.429991
Si Si8 0.970839 0.643550 0.246700
O O1 0.750000 0.637975 0.074065
O O2 0.480246 0.750000 0.076816
O O3 0.469432 0.590821 0.118721
O O4 0.467969 0.602925 0.026658
O O5 0.750000 0.642635 0.346987
O O6 0.474953 0.750000 0.354969
O O7 0.463757 0.574946 0.384623
O O8 0.472764 0.618438 0.296462
O O9 0.250000 0.466885 0.838337
O O10 0.535589 0.571951 0.847755
O O11 0.531862 0.422087 0.792796
O O12 0.750000 0.155665 0.128150
O O13 0.041711 0.250000 0.118411
O O14 0.970352 0.105791 0.068320
O O15 0.750000 0.635033 0.978850
O O16 0.482823 0.750000 0.979509
O O17 0.250000 0.648012 0.522316
O O18 0.964470 0.750000 0.523831
O O19 0.963361 0.567141 0.552490
O O20 0.992176 0.604818 0.469673
O O21 0.750000 0.520041 0.424292
O O22 0.750000 0.642431 0.246501
O O23 0.024588 0.750000 0.238290
#
# Coordination Sequence:
#
# PCOD9453215 Si02
#       8
#     8   8   8   8   8   8   8   8
#     4   8  13  21  34  52  71  90 115 147 179 212
#     4   8  13  21  35  56  78  98 124 160 196 227
#     4   9  15  22  34  51  72  98 121 143 180 225
#     4   9  17  27  37  51  73  98 121 145 174 211
#     4   8  14  25  39  53  70  92 118 148 178 208
#     4   9  17  27  38  56  84 113 139 169 201 231
#     4   9  16  26  41  59  80 109 141 168 197 236
#     4   8  13  21  34  54  78  98 118 152 196 232
#
# _framework density 19.851873999999999
#
# number of rings (size 3 to 8) (size 9 to 14) (size 15 to 20)
#    0.000    3.500    0.000    2.250    0.000    2.750 
#    0.000    0.000    0.000    0.750    0.000    6.125 
#    0.000    2.500    0.000    4.000    0.000    4.500 
#
# Total GULP energy -356863.114595 kJ/mol
# GULP energy per Si atom -5575.986166 kJ/mol
# Density = 1.980669 g / cm^3
# Si number density = 19.851874 Si / 1000 Ang^3
#
#
#
# Elastic Constant Matrix: (Units=GPa)
#
#
# Indices 1 2 3 4 5 6 
#
# 1 68.0532 1.1315 2.7571 0.0000 0.0000 0.0000
# 2 1.1315 133.2555 109.1067 0.0000 0.0000 0.0000
# 3 2.7571 109.1067 179.5076 0.0000 0.0000 0.0000
# 4 0.0000 0.0000 0.0000 35.2595 0.0000 0.0000
# 5 0.0000 0.0000 0.0000 0.0000 6.8437 0.0000
# 6 0.0000 0.0000 0.0000 0.0000 0.0000 -3.7248
#
#
#
# Elastic Compliance Matrix: (Units=1/GPa)
#
#
# Indices 1 2 3 4 5 6 
#
# 1 0.014704 0.000120 -0.000299 0.000000 0.000000 0.000000
# 2 0.000120 0.014940 -0.009082 0.000000 0.000000 0.000000
# 3 -0.000299 -0.009082 0.011096 0.000000 0.000000 0.000000
# 4 0.000000 0.000000 0.000000 0.028361 0.000000 0.000000
# 5 0.000000 0.000000 0.000000 0.000000 0.146120 0.000000
# 6 0.000000 0.000000 0.000000 0.000000 0.000000 -0.268471
#
#
# Mechanical properties :
#
#
# Convention : Reuss Voigt Hill
#
# Bulk Modulus (GPa) = 45.00989 67.42300 56.21644
# Shear Modulus (GPa) = -183.00731 25.53042 -78.73845
#
# Velocity S-wave (km/s) = -9.61179 3.59004 -6.30469
# Velocity P-wave (km/s) = 10.02297 7.15690 4.96179
#
# Compressibility (1/GPa) = 0.02221734
#
# Stress axis : x y z
#
# Youngs Moduli (GPa) = 68.00640 66.93490 90.12416
#
# Poissons Ratio (x) = -0.00800 0.02690
# Poissons Ratio (y) = -0.00813 0.81855
# Poissons Ratio (z) = 0.02030 0.60793
#
# Static dielectric constant tensor:
#      x y z
#    x 1.808630 0.000000 0.000000 
#    y 0.000000 1.722500 0.000000 
#    z 0.000000 0.000000 1.679720 
# 
# From -- ./inp_files/33245.got.cif
#   From: 2010.05.17/outbox.cif.g08.bks.cpg/sg59_17_cif.got.tgz:33245.got - 2010.06.03 14:40:33.
