data_PCOD9453104
_publ_section_title
;
Structure prediction by ZEFSAII (Michael W. Deem and Ramdas Pophale) SiO2 
 PCOD9453104
Probable space group: P M M N
;
_chemical_formula_sum "Si O2"
_cell_formula_units_Z 48
_cell_length_a 8.786591
_cell_length_b 29.673574
_cell_length_c 9.984721
_cell_angle_alpha 90.000000
_cell_angle_beta 90.000000
_cell_angle_gamma 90.000000
_cell_volume 2603.311896
_symmetry_space_group_name_H-M "P M M N"
_symmetry_group_IT_number 59
_space_group.IT_coordinate_system_code '2'
_symmetry_cell_setting 'orthorhombic'
loop_
_space_group_symop_operation_xyz
x,y,z
1/2-x,1/2-y,z
1/2+x,-y,-z
-x,1/2+y,-z
-x,-y,-z
1/2+x,1/2+y,-z
1/2-x,y,z
x,1/2-y,z
loop_
_atom_site_type_symbol
_atom_site_label
_atom_site_fract_x
_atom_site_fract_y
_atom_site_fract_z
Si Si1 0.427868 0.527086 0.877703
Si Si2 0.427839 0.032095 0.611047
Si Si3 0.935136 0.198745 0.733576
Si Si4 0.568452 0.879940 0.773142
Si Si5 0.566410 0.196974 0.039317
Si Si6 0.567433 0.376575 0.525651
O O1 0.250000 0.536345 0.903468
O O2 0.439362 0.494269 0.749922
O O3 0.508591 0.574146 0.842260
O O4 0.500000 0.500000 0.000000
O O5 0.250000 0.040269 0.581653
O O6 0.517230 0.078701 0.604004
O O7 0.500000 0.000000 0.500000
O O8 0.750000 0.198620 0.733465
O O9 0.985016 0.250000 0.709375
O O10 0.979332 0.185912 0.885485
O O11 0.984305 0.165348 0.616743
O O12 0.750000 0.880649 0.769133
O O13 0.503691 0.877624 0.622143
O O14 0.510122 0.837095 0.857707
O O15 0.750000 0.192554 0.049045
O O16 0.530744 0.250000 0.062606
O O17 0.750000 0.375488 0.511873
#
# Coordination Sequence:
#
# PCOD9453104 Si02
#       6
#     8   8   8   8   8   8
#     4  11  25  43  63  89 121 158 202 248 300 359
#     4  11  23  40  62  87 120 159 200 244 296 356
#     4   8  17  36  62  91 118 148 193 244 294 352
#     4  12  25  40  59  87 124 162 202 248 300 359
#     4   9  19  39  65  90 118 155 199 249 304 361
#     4  11  22  37  61  91 120 157 202 249 301 355
#
# _framework density 18.438051000000002
#
# number of rings (size 3 to 8) (size 9 to 14) (size 15 to 20)
#    0.000    1.667    1.667    4.000    2.333    3.000 
#    0.000    2.500    0.000    3.500    0.000    0.000 
#    0.000    0.000    0.000    0.000    0.000    0.000 
#
# Total GULP energy -268124.242177 kJ/mol
# GULP energy per Si atom -5585.921712 kJ/mol
# Density = 1.839609 g / cm^3
# Si number density = 18.438051 Si / 1000 Ang^3
#
#
#
# Elastic Constant Matrix: (Units=GPa)
#
#
# Indices 1 2 3 4 5 6 
#
# 1 100.3733 56.5795 61.2319 0.0000 0.0000 0.0000
# 2 56.5795 119.9482 58.9701 0.0000 0.0000 0.0000
# 3 61.2319 58.9701 76.4296 0.0000 0.0000 0.0000
# 4 0.0000 0.0000 0.0000 37.4628 0.0000 0.0000
# 5 0.0000 0.0000 0.0000 0.0000 25.2974 0.0000
# 6 0.0000 0.0000 0.0000 0.0000 0.0000 29.8149
#
#
#
# Elastic Compliance Matrix: (Units=1/GPa)
#
#
# Indices 1 2 3 4 5 6 
#
# 1 0.019942 -0.002501 -0.014047 0.000000 0.000000 0.000000
# 2 -0.002501 0.013746 -0.008602 0.000000 0.000000 0.000000
# 3 -0.014047 -0.008602 0.030975 0.000000 0.000000 0.000000
# 4 0.000000 0.000000 0.000000 0.026693 0.000000 0.000000
# 5 0.000000 0.000000 0.000000 0.000000 0.039530 0.000000
# 6 0.000000 0.000000 0.000000 0.000000 0.000000 0.033540
#
#
# Mechanical properties :
#
#
# Convention : Reuss Voigt Hill
#
# Bulk Modulus (GPa) = 69.62550 72.25713 70.94132
# Shear Modulus (GPa) = 22.77781 26.51300 24.64541
#
# Velocity S-wave (km/s) = 3.51860 3.79615 3.66000
# Velocity P-wave (km/s) = 7.37233 7.64778 7.51131
#
# Compressibility (1/GPa) = 0.01436255
#
# Stress axis : x y z
#
# Youngs Moduli (GPa) = 50.14658 72.75093 32.28427
#
# Poissons Ratio (x) = 0.18192 0.45350
# Poissons Ratio (y) = 0.12539 0.27772
# Poissons Ratio (z) = 0.70441 0.62582
#
# Static dielectric constant tensor:
#      x y z
#    x 1.628600 0.000000 0.000000 
#    y 0.000000 1.621780 0.000000 
#    z 0.000000 0.000000 1.609860 
# 
# From -- ./inp_files/6284.got.cif
#   From: 2010.05.17/outbox.cif.g08.bks.cpg/sg59_4_cif.got.tgz:6284.got - 2010.06.03 14:40:33.
