data_PCOD9454831
_publ_section_title
;
Structure prediction by ZEFSAII (Michael W. Deem and Ramdas Pophale) SiO2 
 PCOD9454831
Probable space group: P B C N
;
_chemical_formula_sum "Si O2"
_cell_formula_units_Z 32
_cell_length_a 6.804719
_cell_length_b 15.919200
_cell_length_c 11.379357
_cell_angle_alpha 90.000000
_cell_angle_beta 90.000000
_cell_angle_gamma 90.000000
_cell_volume 1232.676616
_symmetry_space_group_name_H-M "P B C N"
_symmetry_group_IT_number 60
_symmetry_cell_setting 'orthorhombic'
loop_
_space_group_symop_operation_xyz
x,y,z
1/2-x,1/2-y,1/2+z
1/2+x,1/2-y,-z
-x,y,1/2-z
-x,-y,-z
1/2+x,1/2+y,1/2-z
1/2-x,1/2+y,z
x,-y,1/2+z
loop_
_atom_site_type_symbol
_atom_site_label
_atom_site_fract_x
_atom_site_fract_y
_atom_site_fract_z
Si Si1 0.184044 0.560719 0.079949
Si Si2 0.500000 0.644941 0.250000
Si Si3 0.500000 0.076452 0.750000
Si Si4 0.612911 0.203993 0.125912
Si Si5 0.370326 0.385633 0.361577
O O1 0.347877 0.594245 0.169247
O O2 0.084105 0.483371 0.147082
O O3 0.009765 0.630140 0.061604
O O4 0.304255 0.547424 0.959063
O O5 0.339803 0.685810 0.341308
O O6 0.330158 0.134636 0.795176
O O7 0.500000 0.207785 0.250000
O O8 0.574175 0.297852 0.076954
O O9 0.500000 0.412496 0.250000
#
# Coordination Sequence:
#
# PCOD9454831 Si02
#       5
#     8   4   4   8   8
#     4  11  24  44  72 103 141 186 242 297 358 434
#     4  10  19  40  72  93 132 182 234 288 361 412
#     4  12  25  48  66 103 152 190 236 302 351 442
#     4   9  20  42  66 104 135 177 243 295 355 423
#     4  11  27  44  70 106 143 187 241 297 369 432
#
# _framework density 25.959769000000001
#
# number of rings (size 3 to 8) (size 9 to 14) (size 15 to 20)
#    0.000    1.500    3.750    1.500    5.250    3.000 
#    0.000    0.000    0.000    0.000    0.000    0.000 
#    0.000    0.000    0.000    0.000    0.000    0.000 
#
# Total GULP energy -178570.839808 kJ/mol
# GULP energy per Si atom -5580.338744 kJ/mol
# Density = 2.590068 g / cm^3
# Si number density = 25.959769 Si / 1000 Ang^3
#
#
#
# Elastic Constant Matrix: (Units=GPa)
#
#
# Indices 1 2 3 4 5 6 
#
# 1 157.2255 45.4918 56.2587 0.0000 0.0000 0.0000
# 2 45.4918 99.1716 32.3754 0.0000 0.0000 0.0000
# 3 56.2587 32.3754 130.0675 0.0000 0.0000 0.0000
# 4 0.0000 0.0000 0.0000 -100.9784 0.0000 0.0000
# 5 0.0000 0.0000 0.0000 0.0000 50.1712 0.0000
# 6 0.0000 0.0000 0.0000 0.0000 0.0000 -324.4769
#
#
#
# Elastic Compliance Matrix: (Units=1/GPa)
#
#
# Indices 1 2 3 4 5 6 
#
# 1 0.008196 -0.002833 -0.002840 0.000000 0.000000 0.000000
# 2 -0.002833 0.011954 -0.001750 0.000000 0.000000 0.000000
# 3 -0.002840 -0.001750 0.009352 0.000000 0.000000 0.000000
# 4 0.000000 0.000000 0.000000 -0.009903 0.000000 0.000000
# 5 0.000000 0.000000 0.000000 0.000000 0.019932 0.000000
# 6 0.000000 0.000000 0.000000 0.000000 0.000000 -0.003082
#
#
# Mechanical properties :
#
#
# Convention : Reuss Voigt Hill
#
# Bulk Modulus (GPa) = 68.22743 72.74625 70.48684
# Shear Modulus (GPa) = 88.99786 -58.23423 15.38182
#
# Velocity S-wave (km/s) = 5.86152 -4.74143 2.43682
# Velocity P-wave (km/s) = 8.49405 1.37528 5.92695
#
# Compressibility (1/GPa) = 0.01465686
#
# Stress axis : x y z
#
# Youngs Moduli (GPa) = 122.00945 83.65190 106.92413
#
# Poissons Ratio (x) = 0.23695 0.30367
# Poissons Ratio (y) = 0.34560 0.18716
# Poissons Ratio (z) = 0.34651 0.14642
#
# Static dielectric constant tensor:
#      x y z
#    x 2.023160 0.000000 0.000000 
#    y 0.000000 2.074000 0.000000 
#    z 0.000000 0.000000 2.061480 
# 
# From -- ./inp_files/8869.got.cif
#   From: 2010.05.17/outbox.cif.g08.bks.cpg/sg60_5_cif.got.tgz:8869.got - 2010.06.03 14:59:27.
