data_PCOD9454349
_publ_section_title
;
Structure prediction by ZEFSAII (Michael W. Deem and Ramdas Pophale) SiO2 
 PCOD9454349
Probable space group: P B C N
;
_chemical_formula_sum "Si O2"
_cell_formula_units_Z 20
_cell_length_a 9.349610
_cell_length_b 16.127525
_cell_length_c 5.035583
_cell_angle_alpha 90.000000
_cell_angle_beta 90.000000
_cell_angle_gamma 90.000000
_cell_volume 759.295766
_symmetry_space_group_name_H-M "P B C N"
_symmetry_group_IT_number 60
_symmetry_cell_setting 'orthorhombic'
loop_
_space_group_symop_operation_xyz
x,y,z
1/2-x,1/2-y,1/2+z
1/2+x,1/2-y,-z
-x,y,1/2-z
-x,-y,-z
1/2+x,1/2+y,1/2-z
1/2-x,1/2+y,z
x,-y,1/2+z
loop_
_atom_site_type_symbol
_atom_site_label
_atom_site_fract_x
_atom_site_fract_y
_atom_site_fract_z
Si Si1 0.308232 0.954803 0.659757
Si Si2 0.500000 0.593030 0.250000
Si Si3 0.768237 0.801912 0.530714
O O1 0.332310 0.869098 0.817462
O O2 0.134109 0.955710 0.633562
O O3 0.355853 0.974241 0.364890
O O4 0.577981 0.653274 0.038861
O O5 0.727468 0.774466 0.237518
#
# Coordination Sequence:
#
# PCOD9454349 Si02
#       3
#     8   4   8
#     4  10  19  32  53  79 106 129 163 216 270 306
#     4   8  22  30  58  72 118 122 174 206 270 296
#     4  10  21  33  49  78 108 137 169 201 260 313
#
# _framework density 26.340197
#
# number of rings (size 3 to 8) (size 9 to 14) (size 15 to 20)
#    2.400    0.000    0.000    3.600    0.000    4.800 
#    0.000    0.000    0.000    0.000    0.000   28.000 
#    0.000    0.000    0.000    0.000    0.000    0.000 
#
# Total GULP energy -111595.435892 kJ/mol
# GULP energy per Si atom -5579.771795 kJ/mol
# Density = 2.628025 g / cm^3
# Si number density = 26.340197 Si / 1000 Ang^3
#
#
#
# Elastic Constant Matrix: (Units=GPa)
#
#
# Indices 1 2 3 4 5 6 
#
# 1 129.8931 -4.5696 32.7454 0.0000 0.0000 0.0000
# 2 -4.5696 78.5761 19.7533 0.0000 0.0000 0.0000
# 3 32.7454 19.7533 146.0400 0.0000 0.0000 0.0000
# 4 0.0000 0.0000 0.0000 37.4714 0.0000 0.0000
# 5 0.0000 0.0000 0.0000 0.0000 22.8938 0.0000
# 6 0.0000 0.0000 0.0000 0.0000 0.0000 -10.3984
#
#
#
# Elastic Compliance Matrix: (Units=1/GPa)
#
#
# Indices 1 2 3 4 5 6 
#
# 1 0.008232 0.000976 -0.001978 0.000000 0.000000 0.000000
# 2 0.000976 0.013290 -0.002016 0.000000 0.000000 0.000000
# 3 -0.001978 -0.002016 0.007564 0.000000 0.000000 0.000000
# 4 0.000000 0.000000 0.000000 0.026687 0.000000 0.000000
# 5 0.000000 0.000000 0.000000 0.000000 0.043680 0.000000
# 6 0.000000 0.000000 0.000000 0.000000 0.000000 -0.096169
#
#
# Mechanical properties :
#
#
# Convention : Reuss Voigt Hill
#
# Bulk Modulus (GPa) = 43.38611 50.04082 46.71347
# Shear Modulus (GPa) = 294.06184 30.43201 162.24693
#
# Velocity S-wave (km/s) = 10.57744 3.40272 7.85687
# Velocity P-wave (km/s) = 12.87182 5.87173 10.00402
#
# Compressibility (1/GPa) = 0.02304885
#
# Stress axis : x y z
#
# Youngs Moduli (GPa) = 121.48394 75.24350 132.21169
#
# Poissons Ratio (x) = -0.07343 0.26147
# Poissons Ratio (y) = -0.11855 0.26660
# Poissons Ratio (z) = 0.24026 0.15172
#
# Static dielectric constant tensor:
#      x y z
#    x 2.132130 0.000000 0.000000 
#    y 0.000000 2.177530 0.000000 
#    z 0.000000 0.000000 1.952140 
# 
# From -- ./inp_files/24.got.cif
#   From: 2010.05.17/outbox.cif.g08.bks.cpg/sg60_1_cif.got.tgz:24.got - 2010.06.03 14:59:27.
