data_PCOD9454135
_publ_section_title
;
Structure prediction by ZEFSAII (Michael W. Deem and Ramdas Pophale) SiO2 
 PCOD9454135
Probable space group: P B C N
;
_chemical_formula_sum "Si O2"
_cell_formula_units_Z 64
_cell_length_a 23.530062
_cell_length_b 9.211144
_cell_length_c 13.950193
_cell_angle_alpha 90.000000
_cell_angle_beta 90.000000
_cell_angle_gamma 90.000000
_cell_volume 3023.547943
_symmetry_space_group_name_H-M "P B C N"
_symmetry_group_IT_number 60
_symmetry_cell_setting 'orthorhombic'
loop_
_space_group_symop_operation_xyz
x,y,z
1/2-x,1/2-y,1/2+z
1/2+x,1/2-y,-z
-x,y,1/2-z
-x,-y,-z
1/2+x,1/2+y,1/2-z
1/2-x,1/2+y,z
x,-y,1/2+z
loop_
_atom_site_type_symbol
_atom_site_label
_atom_site_fract_x
_atom_site_fract_y
_atom_site_fract_z
Si Si1 0.201692 0.938951 0.839815
Si Si2 0.591692 0.326231 0.579894
Si Si3 0.612688 0.634134 0.879396
Si Si4 0.392197 0.799780 0.802222
Si Si5 0.514299 0.438784 0.145848
Si Si6 0.793211 0.749768 0.063134
Si Si7 0.661735 0.317680 0.851812
Si Si8 0.568071 0.882431 0.240805
O O1 0.134623 0.920385 0.856192
O O2 0.238135 0.842164 0.911940
O O3 0.205838 0.870931 0.732193
O O4 0.214270 0.100912 0.876123
O O5 0.624232 0.298740 0.481821
O O6 0.536968 0.432015 0.579142
O O7 0.580329 0.180450 0.635510
O O8 0.636206 0.716344 0.787814
O O9 0.544494 0.638276 0.877013
O O10 0.629864 0.466742 0.879148
O O11 0.439647 0.688656 0.841824
O O12 0.346966 0.826906 0.885417
O O13 0.418050 0.947338 0.760437
O O14 0.500000 0.508308 0.250000
O O15 0.807346 0.768141 0.950270
O O16 0.613279 0.204898 0.810415
O O17 0.500000 0.860671 0.250000
#
# Coordination Sequence:
#
# PCOD9454135 Si02
#       8
#     8   8   8   8   8   8   8   8
#     4  11  25  45  69  97 131 174 226 290 344 405
#     4  11  21  39  63  97 130 170 229 282 332 413
#     4  11  20  38  70  95 127 177 223 274 345 410
#     4  11  23  42  62  94 141 176 226 283 335 409
#     4  10  18  35  63  94 126 176 221 274 338 402
#     4  12  26  47  71  99 135 176 235 293 348 408
#     4  11  24  46  72 103 135 180 230 284 349 421
#     4  11  24  42  64 102 149 186 224 283 351 415
#
# _framework density 21.167186999999998
#
# number of rings (size 3 to 8) (size 9 to 14) (size 15 to 20)
#    0.000    1.000    3.750    4.875    3.500    4.000 
#    0.000    1.875    0.000    0.000    0.000    0.000 
#    0.000    0.000    0.000    0.000    0.000    0.000 
#
# Total GULP energy -356718.679971 kJ/mol
# GULP energy per Si atom -5573.729375 kJ/mol
# Density = 2.111901 g / cm^3
# Si number density = 21.167187 Si / 1000 Ang^3
#
#
#
# Elastic Constant Matrix: (Units=GPa)
#
#
# Indices 1 2 3 4 5 6 
#
# 1 70.9809 20.3576 29.2761 0.0000 0.0000 0.0000
# 2 20.3576 74.4695 20.8663 0.0000 0.0000 0.0000
# 3 29.2761 20.8663 139.5209 0.0000 0.0000 0.0000
# 4 0.0000 0.0000 0.0000 18.8677 0.0000 0.0000
# 5 0.0000 0.0000 0.0000 0.0000 26.7430 0.0000
# 6 0.0000 0.0000 0.0000 0.0000 0.0000 20.9376
#
#
#
# Elastic Compliance Matrix: (Units=1/GPa)
#
#
# Indices 1 2 3 4 5 6 
#
# 1 0.016324 -0.003656 -0.002879 0.000000 0.000000 0.000000
# 2 -0.003656 0.014834 -0.001451 0.000000 0.000000 0.000000
# 3 -0.002879 -0.001451 0.007988 0.000000 0.000000 0.000000
# 4 0.000000 0.000000 0.000000 0.053001 0.000000 0.000000
# 5 0.000000 0.000000 0.000000 0.000000 0.037393 0.000000
# 6 0.000000 0.000000 0.000000 0.000000 0.000000 0.047761
#
#
# Mechanical properties :
#
#
# Convention : Reuss Voigt Hill
#
# Bulk Modulus (GPa) = 43.14973 47.33014 45.23994
# Shear Modulus (GPa) = 24.87579 27.60773 26.24176
#
# Velocity S-wave (km/s) = 3.43185 3.61539 3.52481
# Velocity P-wave (km/s) = 6.01106 6.31163 6.16318
#
# Compressibility (1/GPa) = 0.02317512
#
# Stress axis : x y z
#
# Youngs Moduli (GPa) = 61.25918 67.41078 125.18025
#
# Poissons Ratio (x) = 0.24645 0.36034
# Poissons Ratio (y) = 0.22396 0.18169
# Poissons Ratio (z) = 0.17634 0.09784
#
# Static dielectric constant tensor:
#      x y z
#    x 1.768250 0.000000 0.000000 
#    y 0.000000 1.746540 0.000000 
#    z 0.000000 0.000000 1.921940 
# 
# From -- ./inp_files/17941.got.cif
#   From: 2010.05.17/outbox.cif.g08.bks.cpg/sg60_9_cif.got.tgz:17941.got - 2010.06.03 14:59:27.
