data_PCOD9454533
_publ_section_title
;
Structure prediction by ZEFSAII (Michael W. Deem and Ramdas Pophale) SiO2 
 PCOD9454533
Probable space group: P B C N
;
_chemical_formula_sum "Si O2"
_cell_formula_units_Z 32
_cell_length_a 7.302613
_cell_length_b 17.128006
_cell_length_c 10.956074
_cell_angle_alpha 90.000000
_cell_angle_beta 90.000000
_cell_angle_gamma 90.000000
_cell_volume 1370.376963
_symmetry_space_group_name_H-M "P B C N"
_symmetry_group_IT_number 60
_symmetry_cell_setting 'orthorhombic'
loop_
_space_group_symop_operation_xyz
x,y,z
1/2-x,1/2-y,1/2+z
1/2+x,1/2-y,-z
-x,y,1/2-z
-x,-y,-z
1/2+x,1/2+y,1/2-z
1/2-x,1/2+y,z
x,-y,1/2+z
loop_
_atom_site_type_symbol
_atom_site_label
_atom_site_fract_x
_atom_site_fract_y
_atom_site_fract_z
Si Si1 0.353597 0.223165 0.925465
Si Si2 0.698384 0.043133 0.504131
Si Si3 0.224139 0.473767 0.239266
Si Si4 0.261465 0.295646 0.173102
O O1 0.314770 0.134506 0.967579
O O2 0.222479 0.243473 0.808558
O O3 0.555077 0.221035 0.869676
O O4 0.362812 0.273205 0.048589
O O5 0.792624 0.007587 0.624853
O O6 0.500000 0.000000 0.500000
O O7 0.776796 0.030215 0.370175
O O8 0.283251 0.387262 0.199708
O O9 0.000000 0.471632 0.250000
#
# Coordination Sequence:
#
# PCOD9454533 Si02
#       4
#     8   8   8   8
#     4  10  20  34  52  76 112 140 172 220 265 313
#     4   9  15  29  49  74  99 130 171 220 256 293
#     4   9  15  29  50  70 105 130 162 219 264 290
#     4  10  19  35  49  76 109 143 169 219 266 310
#
# _framework density 23.351240000000001
#
# number of rings (size 3 to 8) (size 9 to 14) (size 15 to 20)
#    0.000    2.500    7.500    0.000    0.000    3.000 
#    4.500    0.000    0.000    1.500    0.000    0.000 
#    0.000    0.000    0.000    0.000    0.000    0.000 
#
# Total GULP energy -178325.071949 kJ/mol
# GULP energy per Si atom -5572.658498 kJ/mol
# Density = 2.329809 g / cm^3
# Si number density = 23.351240 Si / 1000 Ang^3
#
#
#
# Elastic Constant Matrix: (Units=GPa)
#
#
# Indices 1 2 3 4 5 6 
#
# 1 39.5198 2.5882 31.4245 0.0000 0.0000 0.0000
# 2 2.5882 22.4666 62.3320 0.0000 0.0000 0.0000
# 3 31.4245 62.3320 284.5300 0.0000 0.0000 0.0000
# 4 0.0000 0.0000 0.0000 45.5458 0.0000 0.0000
# 5 0.0000 0.0000 0.0000 0.0000 20.7750 0.0000
# 6 0.0000 0.0000 0.0000 0.0000 0.0000 -55.8584
#
#
#
# Elastic Compliance Matrix: (Units=1/GPa)
#
#
# Indices 1 2 3 4 5 6 
#
# 1 0.029451 0.014358 -0.006398 0.000000 0.000000 0.000000
# 2 0.014358 0.120488 -0.027981 0.000000 0.000000 0.000000
# 3 -0.006398 -0.027981 0.010351 0.000000 0.000000 0.000000
# 4 0.000000 0.000000 0.000000 0.021956 0.000000 0.000000
# 5 0.000000 0.000000 0.000000 0.000000 0.048135 0.000000
# 6 0.000000 0.000000 0.000000 0.000000 0.000000 -0.017902
#
#
# Mechanical properties :
#
#
# Convention : Reuss Voigt Hill
#
# Bulk Modulus (GPa) = 8.31612 59.91176 34.11394
# Shear Modulus (GPa) = 17.08799 18.77059 17.92929
#
# Velocity S-wave (km/s) = 2.70808 2.83828 2.77394
# Velocity P-wave (km/s) = 3.65340 6.03768 4.99003
#
# Compressibility (1/GPa) = 0.12024834
#
# Stress axis : x y z
#
# Youngs Moduli (GPa) = 33.95477 8.29956 96.60870
#
# Poissons Ratio (x) = -0.11917 0.61812
# Poissons Ratio (y) = -0.48753 2.70322
# Poissons Ratio (z) = 0.21725 0.23223
#
# Static dielectric constant tensor:
#      x y z
#    x 2.010560 0.000000 0.000000 
#    y 0.000000 1.824170 0.000000 
#    z 0.000000 0.000000 1.969260 
# 
# From -- ./inp_files/10730.got.cif
#   From: 2010.05.17/outbox.cif.g08.bks.cpg/sg60_6_cif.got.tgz:10730.got - 2010.06.03 14:59:27.
