data_PCOD9454974
_publ_section_title
;
Structure prediction by ZEFSAII (Michael W. Deem and Ramdas Pophale) SiO2 
 PCOD9454974
Probable space group: P B C N
;
_chemical_formula_sum "Si O2"
_cell_formula_units_Z 48
_cell_length_a 11.641344
_cell_length_b 19.201729
_cell_length_c 9.369773
_cell_angle_alpha 90.000000
_cell_angle_beta 90.000000
_cell_angle_gamma 90.000000
_cell_volume 2094.462207
_symmetry_space_group_name_H-M "P B C N"
_symmetry_group_IT_number 60
_symmetry_cell_setting 'orthorhombic'
loop_
_space_group_symop_operation_xyz
x,y,z
1/2-x,1/2-y,1/2+z
1/2+x,1/2-y,-z
-x,y,1/2-z
-x,-y,-z
1/2+x,1/2+y,1/2-z
1/2-x,1/2+y,z
x,-y,1/2+z
loop_
_atom_site_type_symbol
_atom_site_label
_atom_site_fract_x
_atom_site_fract_y
_atom_site_fract_z
Si Si1 0.160691 0.002025 0.655979
Si Si2 0.334462 0.798547 0.601014
Si Si3 0.000000 0.410948 0.750000
Si Si4 0.818819 0.196389 0.140486
Si Si5 0.792539 0.446955 0.580877
Si Si6 0.988891 0.889904 0.999895
Si Si7 0.000000 0.809300 0.250000
O O1 0.194958 0.983518 0.817366
O O2 0.094678 0.936126 0.592452
O O3 0.277005 0.018501 0.571587
O O4 0.077619 0.063885 0.598595
O O5 0.415481 0.864038 0.646510
O O6 0.218252 0.801014 0.694686
O O7 0.313327 0.770529 0.440964
O O8 0.408186 0.735931 0.667459
O O9 0.915045 0.454535 0.651792
O O10 0.732007 0.136593 0.077666
O O11 0.939555 0.160979 0.101643
O O12 0.929647 0.849106 0.127738
#
# Coordination Sequence:
#
# PCOD9454974 Si02
#       7
#     8   8   4   8   8   8   4
#     4  10  20  34  55  79 110 142 176 225 276 318
#     4   9  18  35  55  77 107 143 176 220 270 320
#     4   9  20  38  56  76 110 148 186 221 266 324
#     4   9  19  34  55  81 111 143 179 222 274 327
#     4  10  21  37  56  80 109 144 184 226 271 325
#     4   9  18  32  52  83 112 137 176 224 273 323
#     4   9  16  28  50  74 104 142 176 211 262 322
#
# _framework density 22.917577999999999
#
# number of rings (size 3 to 8) (size 9 to 14) (size 15 to 20)
#    0.000    2.667    0.000    1.000    0.000    8.667 
#    0.000    5.000    0.000    4.000    0.000    0.000 
#    0.000    0.000    0.000    0.000    0.000    0.000 
#
# Total GULP energy -267662.019465 kJ/mol
# GULP energy per Si atom -5576.292072 kJ/mol
# Density = 2.286542 g / cm^3
# Si number density = 22.917578 Si / 1000 Ang^3
#
#
#
# Elastic Constant Matrix: (Units=GPa)
#
#
# Indices 1 2 3 4 5 6 
#
# 1 62.0550 10.1761 8.1320 0.0000 0.0000 0.0000
# 2 10.1761 37.9652 14.5326 0.0000 0.0000 0.0000
# 3 8.1320 14.5326 61.2176 0.0000 0.0000 0.0000
# 4 0.0000 0.0000 0.0000 32.3171 0.0000 0.0000
# 5 0.0000 0.0000 0.0000 0.0000 31.3638 0.0000
# 6 0.0000 0.0000 0.0000 0.0000 0.0000 -119.6049
#
#
#
# Elastic Compliance Matrix: (Units=1/GPa)
#
#
# Indices 1 2 3 4 5 6 
#
# 1 0.016948 -0.004049 -0.001290 0.000000 0.000000 0.000000
# 2 -0.004049 0.029940 -0.006570 0.000000 0.000000 0.000000
# 3 -0.001290 -0.006570 0.018066 0.000000 0.000000 0.000000
# 4 0.000000 0.000000 0.000000 0.030943 0.000000 0.000000
# 5 0.000000 0.000000 0.000000 0.000000 0.031884 0.000000
# 6 0.000000 0.000000 0.000000 0.000000 0.000000 -0.008361
#
#
# Mechanical properties :
#
#
# Convention : Reuss Voigt Hill
#
# Bulk Modulus (GPa) = 24.30924 25.21323 24.76124
# Shear Modulus (GPa) = 31.85738 -2.62499 14.61619
#
# Velocity S-wave (km/s) = 3.73243 -1.07140 2.52816
# Velocity P-wave (km/s) = 5.40416 3.08141 4.39887
#
# Compressibility (1/GPa) = 0.04113661
#
# Stress axis : x y z
#
# Youngs Moduli (GPa) = 59.00492 33.40026 55.35215
#
# Poissons Ratio (x) = 0.13523 0.07141
# Poissons Ratio (y) = 0.23890 0.36365
# Poissons Ratio (z) = 0.07612 0.21943
#
# Static dielectric constant tensor:
#      x y z
#    x 1.899830 0.000000 0.000000 
#    y 0.000000 1.930920 0.000000 
#    z 0.000000 0.000000 1.866210 
# 
# From -- ./inp_files/5127.got.cif
#   From: 2010.05.17/outbox.cif.g08.bks.cpg/sg60_3_cif.got.tgz:5127.got - 2010.06.03 14:59:27.
