data_PCOD9454124
_publ_section_title
;
Structure prediction by ZEFSAII (Michael W. Deem and Ramdas Pophale) SiO2 
 PCOD9454124
Probable space group: P B C N
;
_chemical_formula_sum "Si O2"
_cell_formula_units_Z 48
_cell_length_a 13.016423
_cell_length_b 9.755771
_cell_length_c 19.539508
_cell_angle_alpha 90.000000
_cell_angle_beta 90.000000
_cell_angle_gamma 90.000000
_cell_volume 2481.229152
_symmetry_space_group_name_H-M "P B C N"
_symmetry_group_IT_number 60
_symmetry_cell_setting 'orthorhombic'
loop_
_space_group_symop_operation_xyz
x,y,z
1/2-x,1/2-y,1/2+z
1/2+x,1/2-y,-z
-x,y,1/2-z
-x,-y,-z
1/2+x,1/2+y,1/2-z
1/2-x,1/2+y,z
x,-y,1/2+z
loop_
_atom_site_type_symbol
_atom_site_label
_atom_site_fract_x
_atom_site_fract_y
_atom_site_fract_z
Si Si1 0.524628 0.232934 0.965649
Si Si2 0.746066 0.830242 0.614236
Si Si3 0.032860 0.568122 0.323001
Si Si4 0.060328 0.244433 0.316163
Si Si5 0.126019 0.445773 0.556553
Si Si6 0.185841 0.079855 0.976788
O O1 0.495458 0.277658 0.889157
O O2 0.574703 0.358962 0.006033
O O3 0.604742 0.104996 0.962853
O O4 0.430769 0.157828 0.004015
O O5 0.632472 0.870260 0.639618
O O6 0.826010 0.815826 0.676288
O O7 0.735180 0.686003 0.576680
O O8 0.796987 0.935886 0.560494
O O9 0.063392 0.409531 0.310995
O O10 0.000000 0.629216 0.250000
O O11 0.934030 0.574292 0.372667
O O12 0.000000 0.191777 0.250000
O O13 0.246118 0.420078 0.546107
#
# Coordination Sequence:
#
# PCOD9454124 Si02
#       6
#     8   8   8   8   8   8
#     4  10  19  35  59  87 116 154 198 242 295 354
#     4  12  21  38  62  90 115 155 199 248 302 351
#     4  10  21  38  62  85 118 166 201 235 299 371
#     4  10  22  40  61  85 122 162 197 241 300 366
#     4  10  18  35  58  86 116 152 202 242 289 359
#     4  12  21  35  63  91 117 153 198 255 297 347
#
# _framework density 19.345251000000001
#
# number of rings (size 3 to 8) (size 9 to 14) (size 15 to 20)
#    0.000    1.333    6.667    1.000    0.000    2.000 
#    0.000    0.833    0.000    0.000    0.000    0.000 
#    0.000    0.000    0.000    0.000    0.000    0.000 
#
# Total GULP energy -267686.564553 kJ/mol
# GULP energy per Si atom -5576.803428 kJ/mol
# Density = 1.930122 g / cm^3
# Si number density = 19.345251 Si / 1000 Ang^3
#
#
#
# Elastic Constant Matrix: (Units=GPa)
#
#
# Indices 1 2 3 4 5 6 
#
# 1 49.0952 12.6231 12.7584 0.0000 0.0000 0.0000
# 2 12.6231 28.2817 9.1993 0.0000 0.0000 0.0000
# 3 12.7584 9.1993 83.4607 0.0000 0.0000 0.0000
# 4 0.0000 0.0000 0.0000 14.2211 0.0000 0.0000
# 5 0.0000 0.0000 0.0000 0.0000 28.7479 0.0000
# 6 0.0000 0.0000 0.0000 0.0000 0.0000 20.9077
#
#
#
# Elastic Compliance Matrix: (Units=1/GPa)
#
#
# Indices 1 2 3 4 5 6 
#
# 1 0.023512 -0.009672 -0.002528 0.000000 0.000000 0.000000
# 2 -0.009672 0.040652 -0.003002 0.000000 0.000000 0.000000
# 3 -0.002528 -0.003002 0.012699 0.000000 0.000000 0.000000
# 4 0.000000 0.000000 0.000000 0.070318 0.000000 0.000000
# 5 0.000000 0.000000 0.000000 0.000000 0.034785 0.000000
# 6 0.000000 0.000000 0.000000 0.000000 0.000000 0.047829
#
#
# Mechanical properties :
#
#
# Convention : Reuss Voigt Hill
#
# Bulk Modulus (GPa) = 21.52456 25.55548 23.54002
# Shear Modulus (GPa) = 18.13650 21.19247 19.66449
#
# Velocity S-wave (km/s) = 3.06521 3.31340 3.19172
# Velocity P-wave (km/s) = 4.86601 5.27988 5.07716
#
# Compressibility (1/GPa) = 0.04645855
#
# Stress axis : x y z
#
# Youngs Moduli (GPa) = 42.53073 24.59897 78.74588
#
# Poissons Ratio (x) = 0.23792 0.19908
# Poissons Ratio (y) = 0.41136 0.23642
# Poissons Ratio (z) = 0.10753 0.07385
#
# Static dielectric constant tensor:
#      x y z
#    x 1.709190 0.000000 0.000000 
#    y 0.000000 1.669310 0.000000 
#    z 0.000000 0.000000 1.686700 
# 
# From -- ./inp_files/20511.got.cif
#   From: 2010.05.17/outbox.cif.g08.bks.cpg/sg60_11_cif.got.tgz:20511.got - 2010.06.03 14:59:27.
