data_PCOD9454151
_publ_section_title
;
Structure prediction by ZEFSAII (Michael W. Deem and Ramdas Pophale) SiO2 
 PCOD9454151
Probable space group: P B C N
;
_chemical_formula_sum "Si O2"
_cell_formula_units_Z 44
_cell_length_a 9.506613
_cell_length_b 22.268989
_cell_length_c 10.219295
_cell_angle_alpha 90.000000
_cell_angle_beta 90.000000
_cell_angle_gamma 90.000000
_cell_volume 2163.451938
_symmetry_space_group_name_H-M "P B C N"
_symmetry_group_IT_number 60
_symmetry_cell_setting 'orthorhombic'
loop_
_space_group_symop_operation_xyz
x,y,z
1/2-x,1/2-y,1/2+z
1/2+x,1/2-y,-z
-x,y,1/2-z
-x,-y,-z
1/2+x,1/2+y,1/2-z
1/2-x,1/2+y,z
x,-y,1/2+z
loop_
_atom_site_type_symbol
_atom_site_label
_atom_site_fract_x
_atom_site_fract_y
_atom_site_fract_z
Si Si1 0.631602 0.854736 0.330498
Si Si2 0.522689 0.755721 0.008196
Si Si3 0.387786 0.555420 0.627484
Si Si4 0.869694 0.079368 0.429508
Si Si5 0.500000 0.332978 0.750000
Si Si6 0.221615 0.187012 0.913935
O O1 0.500000 0.882806 0.250000
O O2 0.564867 0.814584 0.445615
O O3 0.755697 0.900371 0.363464
O O4 0.702452 0.810718 0.224210
O O5 0.535177 0.709164 0.128609
O O6 0.680053 0.777811 0.982291
O O7 0.429962 0.717839 0.907655
O O8 0.500000 0.558481 0.750000
O O9 0.330687 0.487548 0.611543
O O10 0.477843 0.571563 0.498531
O O11 0.785628 0.118241 0.536689
O O12 0.881043 0.122317 0.304222
#
# Coordination Sequence:
#
# PCOD9454151 Si02
#       6
#     8   8   8   8   4   8
#     4  10  21  38  57  84 121 152 191 237 295 340
#     4  10  21  35  58  83 118 154 185 234 296 342
#     4  11  21  37  62  87 109 153 204 237 279 348
#     4  10  22  36  61  85 114 149 199 242 281 339
#     4  10  18  36  56  84 118 148 182 240 290 330
#     4  10  20  37  56  83 115 148 189 234 286 346
#
# _framework density 20.337868
#
# number of rings (size 3 to 8) (size 9 to 14) (size 15 to 20)
#    0.000    1.818    5.455    0.000    5.091    0.000 
#    0.000    3.636    4.000    0.000    0.000    0.000 
#    0.000    0.000    0.000    0.000    0.000    0.000 
#
# Total GULP energy -245203.924578 kJ/mol
# GULP energy per Si atom -5572.816468 kJ/mol
# Density = 2.029158 g / cm^3
# Si number density = 20.337868 Si / 1000 Ang^3
#
#
#
# Elastic Constant Matrix: (Units=GPa)
#
#
# Indices 1 2 3 4 5 6 
#
# 1 56.8407 32.5137 3.2135 0.0000 0.0000 0.0000
# 2 32.5137 103.7683 -2.0516 0.0000 0.0000 0.0000
# 3 3.2135 -2.0516 24.6474 0.0000 0.0000 0.0000
# 4 0.0000 0.0000 0.0000 17.4838 0.0000 0.0000
# 5 0.0000 0.0000 0.0000 0.0000 27.3065 0.0000
# 6 0.0000 0.0000 0.0000 0.0000 0.0000 31.5714
#
#
#
# Elastic Compliance Matrix: (Units=1/GPa)
#
#
# Indices 1 2 3 4 5 6 
#
# 1 0.021716 -0.006872 -0.003403 0.000000 0.000000 0.000000
# 2 -0.006872 0.011827 0.001880 0.000000 0.000000 0.000000
# 3 -0.003403 0.001880 0.041173 0.000000 0.000000 0.000000
# 4 0.000000 0.000000 0.000000 0.057196 0.000000 0.000000
# 5 0.000000 0.000000 0.000000 0.000000 0.036621 0.000000
# 6 0.000000 0.000000 0.000000 0.000000 0.000000 0.031674
#
#
# Mechanical properties :
#
#
# Convention : Reuss Voigt Hill
#
# Bulk Modulus (GPa) = 17.26321 28.06751 22.66536
# Shear Modulus (GPa) = 21.15910 25.37772 23.26841
#
# Velocity S-wave (km/s) = 3.22899 3.53626 3.38611
# Velocity P-wave (km/s) = 4.73376 5.52305 5.14357
#
# Compressibility (1/GPa) = 0.05792666
#
# Stress axis : x y z
#
# Youngs Moduli (GPa) = 46.04880 84.55153 24.28805
#
# Poissons Ratio (x) = 0.58100 0.08266
# Poissons Ratio (y) = 0.31643 -0.04567
# Poissons Ratio (z) = 0.15672 -0.15899
#
# Static dielectric constant tensor:
#      x y z
#    x 1.750910 0.000000 0.000000 
#    y 0.000000 1.766780 0.000000 
#    z 0.000000 0.000000 1.800770 
# 
# From -- ./inp_files/10003.got.cif
#   From: 2010.05.17/outbox.cif.g08.bks.cpg/sg60_6_cif.got.tgz:10003.got - 2010.06.03 14:59:27.
