data_PCOD9454232
_publ_section_title
;
Structure prediction by ZEFSAII (Michael W. Deem and Ramdas Pophale) SiO2 
 PCOD9454232
Probable space group: P B C N
;
_chemical_formula_sum "Si O2"
_cell_formula_units_Z 56
_cell_length_a 16.996909
_cell_length_b 5.280289
_cell_length_c 26.988327
_cell_angle_alpha 90.000000
_cell_angle_beta 90.000000
_cell_angle_gamma 90.000000
_cell_volume 2422.164339
_symmetry_space_group_name_H-M "P B C N"
_symmetry_group_IT_number 60
_symmetry_cell_setting 'orthorhombic'
loop_
_space_group_symop_operation_xyz
x,y,z
1/2-x,1/2-y,1/2+z
1/2+x,1/2-y,-z
-x,y,1/2-z
-x,-y,-z
1/2+x,1/2+y,1/2-z
1/2-x,1/2+y,z
x,-y,1/2+z
loop_
_atom_site_type_symbol
_atom_site_label
_atom_site_fract_x
_atom_site_fract_y
_atom_site_fract_z
Si Si1 0.000000 0.715416 0.750000
Si Si2 0.088867 0.292999 0.569586
Si Si3 0.198817 0.694027 0.271511
Si Si4 0.803186 0.957662 0.983148
Si Si5 0.565929 0.552833 0.675067
Si Si6 0.907664 0.346718 0.820847
Si Si7 0.000000 0.500000 0.500000
Si Si8 0.566382 0.477351 0.563524
O O1 0.067476 0.870517 0.777911
O O2 0.043024 0.556773 0.708042
O O3 0.136244 0.036421 0.560902
O O4 0.109953 0.406720 0.622265
O O5 0.090530 0.484152 0.524206
O O6 0.994367 0.221758 0.559926
O O7 0.244425 0.433263 0.279374
O O8 0.164290 0.709572 0.215436
O O9 0.125043 0.724367 0.309230
O O10 0.746871 0.204824 0.980577
O O11 0.855852 0.965605 0.032758
O O12 0.473692 0.628154 0.673961
O O13 0.583972 0.443666 0.621447
O O14 0.023657 0.261014 0.460787
#
# Coordination Sequence:
#
# PCOD9454232 Si02
#       8
#     4   8   8   8   8   8   4   8
#     4  12  18  40  72  98 136 174 240 298 346 404
#     4  10  24  41  71  99 134 180 243 291 352 419
#     4  12  26  44  67  99 148 188 232 294 358 430
#     4  11  26  45  68  98 144 183 220 285 353 423
#     4  11  23  43  68 101 132 186 241 295 349 423
#     4  11  23  43  68 101 132 186 241 295 349 423
#     4  10  18  40  64 100 124 166 230 296 350 402
#     4  10  24  41  71  99 134 180 243 291 352 419
#
# _framework density 23.119817000000001
#
# number of rings (size 3 to 8) (size 9 to 14) (size 15 to 20)
#    0.000    1.143    2.857    3.429    8.000    2.286 
#    0.000    0.000    0.000    0.000    0.000    0.000 
#    0.000    0.000    0.000    0.000    0.000    0.000 
#
# Total GULP energy -312094.591397 kJ/mol
# GULP energy per Si atom -5573.117704 kJ/mol
# Density = 2.306720 g / cm^3
# Si number density = 23.119817 Si / 1000 Ang^3
#
#
#
# Elastic Constant Matrix: (Units=GPa)
#
#
# Indices 1 2 3 4 5 6 
#
# 1 75.0672 23.4182 -1.1907 0.0000 0.0000 0.0000
# 2 23.4182 82.7430 -14.7625 0.0000 0.0000 0.0000
# 3 -1.1907 -14.7625 93.2710 0.0000 0.0000 0.0000
# 4 0.0000 0.0000 0.0000 35.1565 0.0000 0.0000
# 5 0.0000 0.0000 0.0000 0.0000 20.8954 0.0000
# 6 0.0000 0.0000 0.0000 0.0000 0.0000 39.0056
#
#
#
# Elastic Compliance Matrix: (Units=1/GPa)
#
#
# Indices 1 2 3 4 5 6 
#
# 1 0.014633 -0.004227 -0.000482 0.000000 0.000000 0.000000
# 2 -0.004227 0.013658 0.002108 0.000000 0.000000 0.000000
# 3 -0.000482 0.002108 0.011049 0.000000 0.000000 0.000000
# 4 0.000000 0.000000 0.000000 0.028444 0.000000 0.000000
# 5 0.000000 0.000000 0.000000 0.000000 0.047857 0.000000
# 6 0.000000 0.000000 0.000000 0.000000 0.000000 0.025637
#
#
# Mechanical properties :
#
#
# Convention : Reuss Voigt Hill
#
# Bulk Modulus (GPa) = 29.29480 29.55678 29.42579
# Shear Modulus (GPa) = 31.67345 35.25259 33.46302
#
# Velocity S-wave (km/s) = 3.70533 3.90908 3.80856
# Velocity P-wave (km/s) = 5.56815 5.76077 5.66528
#
# Compressibility (1/GPa) = 0.03413575
#
# Stress axis : x y z
#
# Youngs Moduli (GPa) = 68.34083 73.21652 90.50674
#
# Poissons Ratio (x) = 0.30952 0.04365
# Poissons Ratio (y) = 0.28890 -0.19077
# Poissons Ratio (z) = 0.03296 -0.15432
#
# Static dielectric constant tensor:
#      x y z
#    x 2.017290 0.000000 0.000000 
#    y 0.000000 1.521560 0.000000 
#    z 0.000000 0.000000 1.811710 
# 
# From -- ./inp_files/26159.got.cif
#   From: 2010.05.17/outbox.cif.g08.bks.cpg/sg60_14_cif.got.tgz:26159.got - 2010.06.03 14:59:27.
