data_PCOD9454494
_publ_section_title
;
Structure prediction by ZEFSAII (Michael W. Deem and Ramdas Pophale) SiO2 
 PCOD9454494
Probable space group: P B C N
;
_chemical_formula_sum "Si O2"
_cell_formula_units_Z 48
_cell_length_a 8.623815
_cell_length_b 30.115124
_cell_length_c 8.031387
_cell_angle_alpha 90.000000
_cell_angle_beta 90.000000
_cell_angle_gamma 90.000000
_cell_volume 2085.809496
_symmetry_space_group_name_H-M "P B C N"
_symmetry_group_IT_number 60
_symmetry_cell_setting 'orthorhombic'
loop_
_space_group_symop_operation_xyz
x,y,z
1/2-x,1/2-y,1/2+z
1/2+x,1/2-y,-z
-x,y,1/2-z
-x,-y,-z
1/2+x,1/2+y,1/2-z
1/2-x,1/2+y,z
x,-y,1/2+z
loop_
_atom_site_type_symbol
_atom_site_label
_atom_site_fract_x
_atom_site_fract_y
_atom_site_fract_z
Si Si1 0.328037 0.902077 0.321520
Si Si2 0.673917 0.441404 0.685654
Si Si3 0.671521 0.230119 0.178259
Si Si4 0.177496 0.357810 0.685535
Si Si5 0.175126 0.314135 0.186539
Si Si6 0.182104 0.488738 0.507713
O O1 0.500000 0.911113 0.250000
O O2 0.327655 0.876640 0.499645
O O3 0.255154 0.864048 0.201958
O O4 0.267801 0.950764 0.373368
O O5 0.500000 0.446743 0.750000
O O6 0.723820 0.390579 0.698631
O O7 0.715167 0.467247 0.517933
O O8 0.786264 0.465934 0.816665
O O9 0.500000 0.237306 0.250000
O O10 0.741816 0.191847 0.297496
O O11 0.751859 0.277267 0.193524
O O12 0.675513 0.207506 0.996651
O O13 0.000000 0.357674 0.750000
O O14 0.000000 0.319522 0.250000
O O15 0.000000 0.500000 0.500000
#
# Coordination Sequence:
#
# PCOD9454494 Si02
#       6
#     8   8   8   8   8   8
#     4  10  19  34  57  86 113 148 200 254 299 358
#     4  11  23  38  57  87 123 154 194 253 316 366
#     4  11  22  39  61  88 119 159 205 253 308 373
#     4  10  20  36  58  83 112 153 202 246 294 368
#     4  11  22  38  60  87 119 155 197 255 312 371
#     4  11  22  39  63  87 117 163 210 253 305 382
#
# _framework density 23.012649
#
# number of rings (size 3 to 8) (size 9 to 14) (size 15 to 20)
#    0.000    1.333    0.000   10.000    0.000    2.000 
#    0.000    4.167    0.000    0.000    0.000    0.000 
#    0.000    0.000    0.000    0.000    0.000    0.000 
#
# Total GULP energy -268126.027766 kJ/mol
# GULP energy per Si atom -5585.958912 kJ/mol
# Density = 2.296027 g / cm^3
# Si number density = 23.012649 Si / 1000 Ang^3
#
#
#
# Elastic Constant Matrix: (Units=GPa)
#
#
# Indices 1 2 3 4 5 6 
#
# 1 43.0814 13.8742 -14.3642 0.0000 0.0000 0.0000
# 2 13.8742 136.6386 10.1459 0.0000 0.0000 0.0000
# 3 -14.3642 10.1459 97.0328 0.0000 0.0000 0.0000
# 4 0.0000 0.0000 0.0000 39.5725 0.0000 0.0000
# 5 0.0000 0.0000 0.0000 0.0000 22.6458 0.0000
# 6 0.0000 0.0000 0.0000 0.0000 0.0000 12.9505
#
#
#
# Elastic Compliance Matrix: (Units=1/GPa)
#
#
# Indices 1 2 3 4 5 6 
#
# 1 0.025503 -0.002892 0.004078 0.000000 0.000000 0.000000
# 2 -0.002892 0.007704 -0.001234 0.000000 0.000000 0.000000
# 3 0.004078 -0.001234 0.011038 0.000000 0.000000 0.000000
# 4 0.000000 0.000000 0.000000 0.025270 0.000000 0.000000
# 5 0.000000 0.000000 0.000000 0.000000 0.044158 0.000000
# 6 0.000000 0.000000 0.000000 0.000000 0.000000 0.077217
#
#
# Mechanical properties :
#
#
# Convention : Reuss Voigt Hill
#
# Bulk Modulus (GPa) = 22.65075 32.89607 27.77341
# Shear Modulus (GPa) = 24.30681 32.84022 28.57352
#
# Velocity S-wave (km/s) = 3.25351 3.78173 3.52752
# Velocity P-wave (km/s) = 4.89672 5.77879 5.35595
#
# Compressibility (1/GPa) = 0.04414865
#
# Stress axis : x y z
#
# Youngs Moduli (GPa) = 39.21118 129.80495 90.59256
#
# Poissons Ratio (x) = 0.37544 -0.36941
# Poissons Ratio (y) = 0.11341 0.11176
# Poissons Ratio (z) = -0.15989 0.16014
#
# Static dielectric constant tensor:
#      x y z
#    x 1.729290 0.000000 0.000000 
#    y 0.000000 1.912670 0.000000 
#    z 0.000000 0.000000 1.952660 
# 
# From -- ./inp_files/4166.got.cif
#   From: 2010.05.17/outbox.cif.g08.bks.cpg/sg60_3_cif.got.tgz:4166.got - 2010.06.03 14:59:27.
