data_PCOD9454756
_publ_section_title
;
Structure prediction by ZEFSAII (Michael W. Deem and Ramdas Pophale) SiO2 
 PCOD9454756
Probable space group: P B C N
;
_chemical_formula_sum "Si O2"
_cell_formula_units_Z 56
_cell_length_a 9.442886
_cell_length_b 15.330346
_cell_length_c 20.429823
_cell_angle_alpha 90.000000
_cell_angle_beta 90.000000
_cell_angle_gamma 90.000000
_cell_volume 2957.476535
_symmetry_space_group_name_H-M "P B C N"
_symmetry_group_IT_number 60
_symmetry_cell_setting 'orthorhombic'
loop_
_space_group_symop_operation_xyz
x,y,z
1/2-x,1/2-y,1/2+z
1/2+x,1/2-y,-z
-x,y,1/2-z
-x,-y,-z
1/2+x,1/2+y,1/2-z
1/2-x,1/2+y,z
x,-y,1/2+z
loop_
_atom_site_type_symbol
_atom_site_label
_atom_site_fract_x
_atom_site_fract_y
_atom_site_fract_z
Si Si1 0.332693 0.489901 0.511175
Si Si2 0.410676 0.319746 0.814177
Si Si3 0.819058 0.994808 0.139485
Si Si4 0.094819 0.190407 0.058520
Si Si5 0.928605 0.871029 0.318015
Si Si6 0.835983 0.365837 0.233504
Si Si7 0.153267 0.178806 0.548817
O O1 0.500000 0.500000 0.500000
O O2 0.279961 0.484021 0.436678
O O3 0.323767 0.402241 0.552640
O O4 0.290095 0.579241 0.545323
O O5 0.500000 0.345494 0.750000
O O6 0.325860 0.403931 0.840208
O O7 0.523377 0.296601 0.871014
O O8 0.322176 0.233209 0.794820
O O9 0.712141 0.936537 0.180753
O O10 0.974422 0.952671 0.157524
O O11 0.212287 0.260584 0.041454
O O12 0.964937 0.191011 0.006981
O O13 0.766844 0.883654 0.295114
O O14 0.921576 0.809074 0.380832
O O15 0.000000 0.840102 0.250000
O O16 0.000000 0.374468 0.250000
#
# Coordination Sequence:
#
# PCOD9454756 Si02
#       7
#     8   8   8   8   8   8   8
#     4  10  19  38  61  91 119 155 211 246 282 376
#     4  11  21  38  61  90 118 159 206 244 298 364
#     4  11  20  39  68  86 117 168 208 241 299 371
#     4  11  23  38  65  89 121 164 200 251 307 361
#     4  10  20  38  63  87 115 162 205 241 293 366
#     4  10  23  38  60  91 126 154 197 261 314 347
#     4  11  21  39  63  91 124 156 206 252 301 360
#
# _framework density 18.935061000000001
#
# number of rings (size 3 to 8) (size 9 to 14) (size 15 to 20)
#    0.000    1.429    5.714    3.000    2.000    0.000 
#    0.000    2.857    6.286    0.000    0.000    0.000 
#    0.000    0.000    0.000    0.000    0.000    0.000 
#
# Total GULP energy -312136.708902 kJ/mol
# GULP energy per Si atom -5573.869802 kJ/mol
# Density = 1.889196 g / cm^3
# Si number density = 18.935061 Si / 1000 Ang^3
#
#
#
# Elastic Constant Matrix: (Units=GPa)
#
#
# Indices 1 2 3 4 5 6 
#
# 1 70.6542 36.1268 21.1232 0.0000 0.0000 0.0000
# 2 36.1268 103.5552 -4.0480 0.0000 0.0000 0.0000
# 3 21.1232 -4.0480 104.4175 0.0000 0.0000 0.0000
# 4 0.0000 0.0000 0.0000 33.7607 0.0000 0.0000
# 5 0.0000 0.0000 0.0000 0.0000 12.2144 0.0000
# 6 0.0000 0.0000 0.0000 0.0000 0.0000 20.8293
#
#
#
# Elastic Compliance Matrix: (Units=1/GPa)
#
#
# Indices 1 2 3 4 5 6 
#
# 1 0.018804 -0.006719 -0.004064 0.000000 0.000000 0.000000
# 2 -0.006719 0.012072 0.001827 0.000000 0.000000 0.000000
# 3 -0.004064 0.001827 0.010470 0.000000 0.000000 0.000000
# 4 0.000000 0.000000 0.000000 0.029620 0.000000 0.000000
# 5 0.000000 0.000000 0.000000 0.000000 0.081871 0.000000
# 6 0.000000 0.000000 0.000000 0.000000 0.000000 0.048009
#
#
# Mechanical properties :
#
#
# Convention : Reuss Voigt Hill
#
# Bulk Modulus (GPa) = 42.67340 42.78121 42.72731
# Shear Modulus (GPa) = 22.06824 28.38922 25.22873
#
# Velocity S-wave (km/s) = 3.41760 3.87627 3.65414
# Velocity P-wave (km/s) = 6.17729 6.53274 6.35750
#
# Compressibility (1/GPa) = 0.02343380
#
# Stress axis : x y z
#
# Youngs Moduli (GPa) = 53.17987 82.83550 95.51106
#
# Poissons Ratio (x) = 0.55657 0.38820
# Poissons Ratio (y) = 0.35731 -0.17452
# Poissons Ratio (z) = 0.21615 -0.15136
#
# Static dielectric constant tensor:
#      x y z
#    x 1.647610 0.000000 0.000000 
#    y 0.000000 1.693980 0.000000 
#    z 0.000000 0.000000 4.005990 
# 
# From -- ./inp_files/22216.got.cif
#   From: 2010.05.17/outbox.cif.g08.bks.cpg/sg60_12_cif.got.tgz:22216.got - 2010.06.03 14:59:27.
