data_PCOD9454479
_publ_section_title
;
Structure prediction by ZEFSAII (Michael W. Deem and Ramdas Pophale) SiO2 
 PCOD9454479
Probable space group: P B C N
;
_chemical_formula_sum "Si O2"
_cell_formula_units_Z 64
_cell_length_a 20.234615
_cell_length_b 26.546173
_cell_length_c 5.751431
_cell_angle_alpha 90.000000
_cell_angle_beta 90.000000
_cell_angle_gamma 90.000000
_cell_volume 3089.390309
_symmetry_space_group_name_H-M "P B C N"
_symmetry_group_IT_number 60
_symmetry_cell_setting 'orthorhombic'
loop_
_space_group_symop_operation_xyz
x,y,z
1/2-x,1/2-y,1/2+z
1/2+x,1/2-y,-z
-x,y,1/2-z
-x,-y,-z
1/2+x,1/2+y,1/2-z
1/2-x,1/2+y,z
x,-y,1/2+z
loop_
_atom_site_type_symbol
_atom_site_label
_atom_site_fract_x
_atom_site_fract_y
_atom_site_fract_z
Si Si1 0.466777 0.778424 0.499147
Si Si2 0.749099 0.188038 0.578362
Si Si3 0.219635 0.120935 0.314905
Si Si4 0.835231 0.987358 0.644147
Si Si5 0.658110 0.124017 0.861492
Si Si6 0.667876 0.720469 0.937111
Si Si7 0.511600 0.109877 0.999347
Si Si8 0.317620 0.023199 0.871099
O O1 0.500000 0.765495 0.250000
O O2 0.398697 0.748500 0.507255
O O3 0.465379 0.839818 0.496812
O O4 0.500000 0.766471 0.750000
O O5 0.756972 0.137171 0.436617
O O6 0.690563 0.174852 0.760599
O O7 0.724171 0.236457 0.443242
O O8 0.821156 0.199144 0.680233
O O9 0.175543 0.072176 0.329995
O O10 0.285470 0.107532 0.457579
O O11 0.185442 0.171933 0.408933
O O12 0.866573 0.995978 0.389758
O O13 0.762779 0.015532 0.631159
O O14 0.656492 0.079531 0.672816
O O15 0.587559 0.129055 0.982802
O O16 0.500000 0.084527 0.250000
O O17 0.500000 0.083063 0.750000
O O18 0.339307 0.995351 0.628500
#
# Coordination Sequence:
#
# PCOD9454479 Si02
#       8
#     8   8   8   8   8   8   8   8
#     4  10  23  40  61  78 112 166 212 252 283 345
#     4  11  22  36  55  88 125 161 187 255 310 383
#     4  11  23  35  59  89 123 159 193 249 310 383
#     4  10  19  36  55  85 119 155 193 234 300 378
#     4  11  23  35  63  85 115 158 208 246 309 367
#     4  11  24  37  56  88 126 162 206 249 316 366
#     4  10  23  39  56  82 105 152 213 258 283 340
#     4  10  19  34  56  87 112 152 191 245 305 372
#
# _framework density 20.716061
#
# number of rings (size 3 to 8) (size 9 to 14) (size 15 to 20)
#    0.000    1.500    3.750    3.000    8.750    0.000 
#    0.000    0.000    0.000    2.250    0.000    0.000 
#    0.000    3.000    0.000    0.000    0.000    0.000 
#
# Total GULP energy -356601.120580 kJ/mol
# GULP energy per Si atom -5571.892509 kJ/mol
# Density = 2.066891 g / cm^3
# Si number density = 20.716061 Si / 1000 Ang^3
#
#
#
# Elastic Constant Matrix: (Units=GPa)
#
#
# Indices 1 2 3 4 5 6 
#
# 1 24.8631 7.6348 16.1894 0.0000 0.0000 0.0000
# 2 7.6348 55.3692 5.2582 0.0000 0.0000 0.0000
# 3 16.1894 5.2582 144.0349 0.0000 0.0000 0.0000
# 4 0.0000 0.0000 0.0000 597.3259 0.0000 0.0000
# 5 0.0000 0.0000 0.0000 0.0000 10.0830 0.0000
# 6 0.0000 0.0000 0.0000 0.0000 0.0000 9.3333
#
#
#
# Elastic Compliance Matrix: (Units=1/GPa)
#
#
# Indices 1 2 3 4 5 6 
#
# 1 0.045158 -0.005765 -0.004865 0.000000 0.000000 0.000000
# 2 -0.005765 0.018859 -0.000041 0.000000 0.000000 0.000000
# 3 -0.004865 -0.000041 0.007491 0.000000 0.000000 0.000000
# 4 0.000000 0.000000 0.000000 0.001674 0.000000 0.000000
# 5 0.000000 0.000000 0.000000 0.000000 0.099176 0.000000
# 6 0.000000 0.000000 0.000000 0.000000 0.000000 0.107143
#
#
# Mechanical properties :
#
#
# Convention : Reuss Voigt Hill
#
# Bulk Modulus (GPa) = 19.93317 31.38131 25.65724
# Shear Modulus (GPa) = 15.74476 136.36078 76.05277
#
# Velocity S-wave (km/s) = 2.75985 8.12198 6.06561
# Velocity P-wave (km/s) = 4.44957 10.15562 7.84013
#
# Compressibility (1/GPa) = 0.05016763
#
# Stress axis : x y z
#
# Youngs Moduli (GPa) = 22.14423 53.02412 133.49175
#
# Poissons Ratio (x) = 0.30567 0.64948
# Poissons Ratio (y) = 0.12766 0.00541
# Poissons Ratio (z) = 0.10774 0.00215
#
# Static dielectric constant tensor:
#      x y z
#    x 1.737030 0.000000 0.000000 
#    y 0.000000 1.738260 0.000000 
#    z 0.000000 0.000000 2.042320 
# 
# From -- ./inp_files/1915.got.cif
#   From: 2010.05.17/outbox.cif.g08.bks.cpg/sg60_1_cif.got.tgz:1915.got - 2010.06.03 14:59:27.
