data_PCOD9454286
_publ_section_title
;
Structure prediction by ZEFSAII (Michael W. Deem and Ramdas Pophale) SiO2 
 PCOD9454286
Probable space group: P B C N
;
_chemical_formula_sum "Si O2"
_cell_formula_units_Z 64
_cell_length_a 13.591213
_cell_length_b 23.442869
_cell_length_c 8.001949
_cell_angle_alpha 90.000000
_cell_angle_beta 90.000000
_cell_angle_gamma 90.000000
_cell_volume 2549.557192
_symmetry_space_group_name_H-M "P B C N"
_symmetry_group_IT_number 60
_symmetry_cell_setting 'orthorhombic'
loop_
_space_group_symop_operation_xyz
x,y,z
1/2-x,1/2-y,1/2+z
1/2+x,1/2-y,-z
-x,y,1/2-z
-x,-y,-z
1/2+x,1/2+y,1/2-z
1/2-x,1/2+y,z
x,-y,1/2+z
loop_
_atom_site_type_symbol
_atom_site_label
_atom_site_fract_x
_atom_site_fract_y
_atom_site_fract_z
Si Si1 0.799475 0.574203 0.960919
Si Si2 0.851208 0.329808 0.971381
Si Si3 0.728309 0.054052 0.564237
Si Si4 0.375053 0.698631 0.029185
Si Si5 0.643135 0.718140 0.823605
Si Si6 0.376562 0.182218 0.657232
Si Si7 0.885711 0.860761 0.617075
Si Si8 0.462809 0.560532 0.939691
O O1 0.778780 0.566950 0.762240
O O2 0.881920 0.624143 0.951535
O O3 0.810701 0.509715 0.027695
O O4 0.709535 0.601993 0.065027
O O5 0.742865 0.302485 0.995619
O O6 0.881710 0.286038 0.824603
O O7 0.829210 0.397564 0.957008
O O8 0.906975 0.325564 0.149296
O O9 0.845394 0.060507 0.533173
O O10 0.414744 0.760911 0.072451
O O11 0.383814 0.662058 0.196665
O O12 0.403807 0.686860 0.837301
O O13 0.758347 0.698091 0.829518
O O14 0.608285 0.694587 0.000290
O O15 0.977009 0.897510 0.557248
O O16 0.500000 0.567916 0.750000
O O17 0.500000 0.500000 0.000000
#
# Coordination Sequence:
#
# PCOD9454286 Si02
#       8
#     8   8   8   8   8   8   8   8
#     4  10  21  32  50  70 101 143 193 240 289 339
#     4   9  18  31  51  72 102 123 169 237 292 355
#     4  11  21  36  50  73 104 151 199 243 290 340
#     4  10  19  30  54  76  93 122 171 236 303 358
#     4   9  18  32  51  78  93 120 169 239 300 356
#     4   8  16  31  46  73  97 119 161 234 296 352
#     4  11  21  36  52  70 102 138 190 253 291 321
#     4  12  24  40  52  70 107 163 215 260 284 321
#
# _framework density 25.102397
#
# number of rings (size 3 to 8) (size 9 to 14) (size 15 to 20)
#    0.000    2.000    3.750    0.750    7.000    1.000 
#    0.000    0.000    0.000    0.000    0.000    0.000 
#    0.000    0.000    0.000    0.000    0.000   20.000 
#
# Total GULP energy -357327.290439 kJ/mol
# GULP energy per Si atom -5583.238913 kJ/mol
# Density = 2.504526 g / cm^3
# Si number density = 25.102397 Si / 1000 Ang^3
#
#
#
# Elastic Constant Matrix: (Units=GPa)
#
#
# Indices 1 2 3 4 5 6 
#
# 1 25.6644 -5.8844 7.2600 0.0000 0.0000 0.0000
# 2 -5.8844 164.4023 44.8286 0.0000 0.0000 0.0000
# 3 7.2600 44.8286 135.8149 0.0000 0.0000 0.0000
# 4 0.0000 0.0000 0.0000 46.1671 0.0000 0.0000
# 5 0.0000 0.0000 0.0000 0.0000 26.7277 0.0000
# 6 0.0000 0.0000 0.0000 0.0000 0.0000 22.2948
#
#
#
# Elastic Compliance Matrix: (Units=1/GPa)
#
#
# Indices 1 2 3 4 5 6 
#
# 1 0.040293 0.002230 -0.002890 0.000000 0.000000 0.000000
# 2 0.002230 0.006808 -0.002366 0.000000 0.000000 0.000000
# 3 -0.002890 -0.002366 0.008298 0.000000 0.000000 0.000000
# 4 0.000000 0.000000 0.000000 0.021660 0.000000 0.000000
# 5 0.000000 0.000000 0.000000 0.000000 0.037414 0.000000
# 6 0.000000 0.000000 0.000000 0.000000 0.000000 0.044854
#
#
# Mechanical properties :
#
#
# Convention : Reuss Voigt Hill
#
# Bulk Modulus (GPa) = 20.26441 46.47665 33.37053
# Shear Modulus (GPa) = 27.49832 37.68306 32.59069
#
# Velocity S-wave (km/s) = 3.31334 3.87870 3.60712
# Velocity P-wave (km/s) = 4.76738 6.21403 5.53814
#
# Compressibility (1/GPa) = 0.04934759
#
# Stress axis : x y z
#
# Youngs Moduli (GPa) = 24.81792 146.89279 120.50396
#
# Poissons Ratio (x) = -0.32761 0.34826
# Poissons Ratio (y) = -0.05535 0.28514
# Poissons Ratio (z) = 0.07172 0.34758
#
# Static dielectric constant tensor:
#      x y z
#    x 2.092010 0.000000 0.000000 
#    y 0.000000 1.842720 0.000000 
#    z 0.000000 0.000000 1.965190 
# 
# From -- ./inp_files/7086.got.cif
#   From: 2010.05.17/outbox.cif.g08.bks.cpg/sg60_4_cif.got.tgz:7086.got - 2010.06.03 14:59:27.
