data_PCOD9454481
_publ_section_title
;
Structure prediction by ZEFSAII (Michael W. Deem and Ramdas Pophale) SiO2 
 PCOD9454481
Probable space group: P B C N
;
_chemical_formula_sum "Si O2"
_cell_formula_units_Z 48
_cell_length_a 28.181193
_cell_length_b 7.720815
_cell_length_c 10.404798
_cell_angle_alpha 90.000000
_cell_angle_beta 90.000000
_cell_angle_gamma 90.000000
_cell_volume 2263.894445
_symmetry_space_group_name_H-M "P B C N"
_symmetry_group_IT_number 60
_symmetry_cell_setting 'orthorhombic'
loop_
_space_group_symop_operation_xyz
x,y,z
1/2-x,1/2-y,1/2+z
1/2+x,1/2-y,-z
-x,y,1/2-z
-x,-y,-z
1/2+x,1/2+y,1/2-z
1/2-x,1/2+y,z
x,-y,1/2+z
loop_
_atom_site_type_symbol
_atom_site_label
_atom_site_fract_x
_atom_site_fract_y
_atom_site_fract_z
Si Si1 0.423069 0.619650 0.512485
Si Si2 0.738151 0.964216 0.888299
Si Si3 0.182935 0.768965 0.727609
Si Si4 0.812444 0.836721 0.500753
Si Si5 0.928075 0.827813 0.788106
Si Si6 0.469515 0.043694 0.126990
O O1 0.365840 0.598122 0.511443
O O2 0.556452 0.531935 0.395701
O O3 0.439293 0.624311 0.361835
O O4 0.434790 0.803419 0.579808
O O5 0.702362 0.118891 0.862129
O O6 0.780772 0.927530 0.788901
O O7 0.772358 0.015012 0.007392
O O8 0.706866 0.792001 0.892677
O O9 0.186980 0.714948 0.874676
O O10 0.128985 0.817480 0.704544
O O11 0.946731 0.636902 0.824324
O O12 0.500000 0.106895 0.250000
O O13 0.500000 0.000000 0.000000
#
# Coordination Sequence:
#
# PCOD9454481 Si02
#       6
#     8   8   8   8   8   8
#     4  11  25  45  70 102 139 177 222 278 341 401
#     4  10  19  34  56  88 126 171 218 257 315 370
#     4  10  20  36  57  88 127 168 218 262 317 376
#     4  10  20  36  57  88 126 169 214 264 317 377
#     4  11  25  45  70 103 138 178 222 281 338 403
#     4  12  27  50  72 103 133 172 220 276 347 419
#
# _framework density 21.202403
#
# number of rings (size 3 to 8) (size 9 to 14) (size 15 to 20)
#    0.000    1.333    3.333    2.000    2.333    1.333 
#    0.000    1.667    0.000    0.000    0.000    0.000 
#    0.000    0.000    0.000    0.000    0.000    0.000 
#
# Total GULP energy -267401.403361 kJ/mol
# GULP energy per Si atom -5570.862570 kJ/mol
# Density = 2.115415 g / cm^3
# Si number density = 21.202403 Si / 1000 Ang^3
#
#
#
# Elastic Constant Matrix: (Units=GPa)
#
#
# Indices 1 2 3 4 5 6 
#
# 1 54.8058 9.6111 32.3608 0.0000 0.0000 0.0000
# 2 9.6111 101.8637 37.9919 0.0000 0.0000 0.0000
# 3 32.3608 37.9919 119.1338 0.0000 0.0000 0.0000
# 4 0.0000 0.0000 0.0000 28.1388 0.0000 0.0000
# 5 0.0000 0.0000 0.0000 0.0000 17.5739 0.0000
# 6 0.0000 0.0000 0.0000 0.0000 0.0000 24.8190
#
#
#
# Elastic Compliance Matrix: (Units=1/GPa)
#
#
# Indices 1 2 3 4 5 6 
#
# 1 0.021734 0.000172 -0.005959 0.000000 0.000000 0.000000
# 2 0.000172 0.011144 -0.003600 0.000000 0.000000 0.000000
# 3 -0.005959 -0.003600 0.011161 0.000000 0.000000 0.000000
# 4 0.000000 0.000000 0.000000 0.035538 0.000000 0.000000
# 5 0.000000 0.000000 0.000000 0.000000 0.056903 0.000000
# 6 0.000000 0.000000 0.000000 0.000000 0.000000 0.040292
#
#
# Mechanical properties :
#
#
# Convention : Reuss Voigt Hill
#
# Bulk Modulus (GPa) = 39.58164 48.41452 43.99808
# Shear Modulus (GPa) = 24.51376 27.16231 25.83804
#
# Velocity S-wave (km/s) = 3.40395 3.58312 3.49469
# Velocity P-wave (km/s) = 5.84450 6.32474 6.08936
#
# Compressibility (1/GPa) = 0.02526424
#
# Stress axis : x y z
#
# Youngs Moduli (GPa) = 46.00990 89.73713 89.60073
#
# Poissons Ratio (x) = -0.01540 0.53389
# Poissons Ratio (y) = -0.00790 0.32259
# Poissons Ratio (z) = 0.27415 0.32309
#
# Static dielectric constant tensor:
#      x y z
#    x 1.749090 0.000000 0.000000 
#    y 0.000000 1.825650 0.000000 
#    z 0.000000 0.000000 1.908850 
# 
# From -- ./inp_files/13061.got.cif
#   From: 2010.05.17/outbox.cif.g08.bks.cpg/sg60_7_cif.got.tgz:13061.got - 2010.06.03 14:59:27.
