data_PCOD9454285
_publ_section_title
;
Structure prediction by ZEFSAII (Michael W. Deem and Ramdas Pophale) SiO2 
 PCOD9454285
Probable space group: P B C N
;
_chemical_formula_sum "Si O2"
_cell_formula_units_Z 48
_cell_length_a 4.930597
_cell_length_b 27.212160
_cell_length_c 18.015192
_cell_angle_alpha 90.000000
_cell_angle_beta 90.000000
_cell_angle_gamma 90.000000
_cell_volume 2417.137844
_symmetry_space_group_name_H-M "P B C N"
_symmetry_group_IT_number 60
_symmetry_cell_setting 'orthorhombic'
loop_
_space_group_symop_operation_xyz
x,y,z
1/2-x,1/2-y,1/2+z
1/2+x,1/2-y,-z
-x,y,1/2-z
-x,-y,-z
1/2+x,1/2+y,1/2-z
1/2-x,1/2+y,z
x,-y,1/2+z
loop_
_atom_site_type_symbol
_atom_site_label
_atom_site_fract_x
_atom_site_fract_y
_atom_site_fract_z
Si Si1 0.216125 0.792685 0.073023
Si Si2 0.458041 0.582085 0.058593
Si Si3 0.353826 0.121792 0.671294
Si Si4 0.158209 0.067555 0.887264
Si Si5 0.536549 0.975171 0.582020
Si Si6 0.280522 0.185968 0.026149
O O1 0.267697 0.823920 0.146490
O O2 0.417438 0.812634 0.007900
O O3 0.915996 0.803758 0.043867
O O4 0.252953 0.734260 0.077364
O O5 0.765985 0.571853 0.080091
O O6 0.261037 0.543969 0.101219
O O7 0.449370 0.567452 0.971333
O O8 0.329402 0.636111 0.062481
O O9 0.500000 0.119122 0.750000
O O10 0.589057 0.104640 0.615303
O O11 0.091427 0.086775 0.661935
O O12 0.306681 0.016098 0.870350
O O13 0.500000 0.000000 0.500000
#
# Coordination Sequence:
#
# PCOD9454285 Si02
#       6
#     8   8   8   8   8   8
#     4  10  19  34  46  75 100 137 171 214 256 315
#     4  11  17  31  50  76 101 137 164 208 267 326
#     4  12  22  34  52  72 103 144 179 212 257 308
#     4  11  20  34  47  72 106 138 170 215 250 314
#     4  10  20  29  48  74 104 134 166 203 262 314
#     4  10  19  30  54  70 104 135 166 209 274 316
#
# _framework density 19.858198000000002
#
# number of rings (size 3 to 8) (size 9 to 14) (size 15 to 20)
#    0.000    1.333    3.333    6.500    0.000    0.000 
#    0.000    0.000    0.000    0.000    0.000    4.667 
#    0.000    2.667    0.000    0.000    0.000    0.000 
#
# Total GULP energy -267751.761952 kJ/mol
# GULP energy per Si atom -5578.161707 kJ/mol
# Density = 1.981300 g / cm^3
# Si number density = 19.858198 Si / 1000 Ang^3
#
#
#
# Elastic Constant Matrix: (Units=GPa)
#
#
# Indices 1 2 3 4 5 6 
#
# 1 101.5401 18.4486 13.4411 0.0000 0.0000 0.0000
# 2 18.4486 111.9810 18.9382 0.0000 0.0000 0.0000
# 3 13.4411 18.9382 27.9324 0.0000 0.0000 0.0000
# 4 0.0000 0.0000 0.0000 6.5162 0.0000 0.0000
# 5 0.0000 0.0000 0.0000 0.0000 11.0563 0.0000
# 6 0.0000 0.0000 0.0000 0.0000 0.0000 30.9776
#
#
#
# Elastic Compliance Matrix: (Units=1/GPa)
#
#
# Indices 1 2 3 4 5 6 
#
# 1 0.010616 -0.001000 -0.004431 0.000000 0.000000 0.000000
# 2 -0.001000 0.010181 -0.006422 0.000000 0.000000 0.000000
# 3 -0.004431 -0.006422 0.042287 0.000000 0.000000 0.000000
# 4 0.000000 0.000000 0.000000 0.153463 0.000000 0.000000
# 5 0.000000 0.000000 0.000000 0.000000 0.090446 0.000000
# 6 0.000000 0.000000 0.000000 0.000000 0.000000 0.032281
#
#
# Mechanical properties :
#
#
# Convention : Reuss Voigt Hill
#
# Bulk Modulus (GPa) = 25.39373 38.12323 31.75848
# Shear Modulus (GPa) = 13.29416 22.41841 17.85628
#
# Velocity S-wave (km/s) = 2.59019 3.36359 3.00190
# Velocity P-wave (km/s) = 4.66484 5.85870 5.29552
#
# Compressibility (1/GPa) = 0.03937979
#
# Stress axis : x y z
#
# Youngs Moduli (GPa) = 94.19316 98.22415 23.64808
#
# Poissons Ratio (x) = 0.09819 0.10478
# Poissons Ratio (y) = 0.09416 0.15186
# Poissons Ratio (z) = 0.41736 0.63075
#
# Static dielectric constant tensor:
#      x y z
#    x 1.713940 0.000000 0.000000 
#    y 0.000000 1.776800 0.000000 
#    z 0.000000 0.000000 1.707520 
# 
# From -- ./inp_files/18707.got.cif
#   From: 2010.05.17/outbox.cif.g08.bks.cpg/sg60_10_cif.got.tgz:18707.got - 2010.06.03 14:59:27.
