data_PCOD9454221
_publ_section_title
;
Structure prediction by ZEFSAII (Michael W. Deem and Ramdas Pophale) SiO2 
 PCOD9454221
Probable space group: P B C N
;
_chemical_formula_sum "Si O2"
_cell_formula_units_Z 48
_cell_length_a 21.321936
_cell_length_b 10.101626
_cell_length_c 8.800171
_cell_angle_alpha 90.000000
_cell_angle_beta 90.000000
_cell_angle_gamma 90.000000
_cell_volume 1895.435594
_symmetry_space_group_name_H-M "P B C N"
_symmetry_group_IT_number 60
_symmetry_cell_setting 'orthorhombic'
loop_
_space_group_symop_operation_xyz
x,y,z
1/2-x,1/2-y,1/2+z
1/2+x,1/2-y,-z
-x,y,1/2-z
-x,-y,-z
1/2+x,1/2+y,1/2-z
1/2-x,1/2+y,z
x,-y,1/2+z
loop_
_atom_site_type_symbol
_atom_site_label
_atom_site_fract_x
_atom_site_fract_y
_atom_site_fract_z
Si Si1 0.590441 0.641658 0.501792
Si Si2 0.585418 0.175849 0.514066
Si Si3 0.200250 0.240490 0.649172
Si Si4 0.000000 0.753334 0.250000
Si Si5 0.157337 0.594942 0.433118
Si Si6 0.277000 0.571532 0.939651
Si Si7 0.000000 0.829234 0.750000
O O1 0.548389 0.660618 0.651208
O O2 0.620897 0.789227 0.476381
O O3 0.650272 0.550709 0.527806
O O4 0.546007 0.597046 0.366048
O O5 0.643051 0.272559 0.468820
O O6 0.538692 0.167191 0.370640
O O7 0.544638 0.239469 0.646298
O O8 0.615864 0.036596 0.559520
O O9 0.168002 0.344805 0.766584
O O10 0.223905 0.127955 0.766489
O O11 0.253900 0.315487 0.556293
O O12 0.228370 0.546019 0.468304
#
# Coordination Sequence:
#
# PCOD9454221 Si02
#       7
#     8   8   8   4   8   8   4
#     4  10  22  39  60  95 128 163 209 248 316 377
#     4  10  21  35  54  83 125 164 201 246 306 374
#     4  10  22  40  56  86 121 165 206 261 307 371
#     4  10  18  39  58  84 125 168 198 245 306 378
#     4  10  22  36  58  87 129 160 203 252 313 368
#     4  10  22  38  63  82 128 165 209 260 306 374
#     4  10  24  33  62  90 129 172 196 257 310 388
#
# _framework density 25.323993999999999
#
# number of rings (size 3 to 8) (size 9 to 14) (size 15 to 20)
#    0.000    2.000    3.333    0.000    9.333    6.667 
#    0.000    0.000    0.000    0.000    0.000    3.500 
#    0.000    0.000    0.000    0.000    0.000    0.000 
#
# Total GULP energy -268580.206686 kJ/mol
# GULP energy per Si atom -5595.420973 kJ/mol
# Density = 2.526636 g / cm^3
# Si number density = 25.323994 Si / 1000 Ang^3
#
#
#
# Elastic Constant Matrix: (Units=GPa)
#
#
# Indices 1 2 3 4 5 6 
#
# 1 181.3935 34.9931 63.8460 0.0000 0.0000 0.0000
# 2 34.9931 116.4694 28.5725 0.0000 0.0000 0.0000
# 3 63.8460 28.5725 127.0361 0.0000 0.0000 0.0000
# 4 0.0000 0.0000 0.0000 27.7135 0.0000 0.0000
# 5 0.0000 0.0000 0.0000 0.0000 51.9589 0.0000
# 6 0.0000 0.0000 0.0000 0.0000 0.0000 31.4670
#
#
#
# Elastic Compliance Matrix: (Units=1/GPa)
#
#
# Indices 1 2 3 4 5 6 
#
# 1 0.006876 -0.001289 -0.003166 0.000000 0.000000 0.000000
# 2 -0.001289 0.009329 -0.001450 0.000000 0.000000 0.000000
# 3 -0.003166 -0.001450 0.009789 0.000000 0.000000 0.000000
# 4 0.000000 0.000000 0.000000 0.036084 0.000000 0.000000
# 5 0.000000 0.000000 0.000000 0.000000 0.019246 0.000000
# 6 0.000000 0.000000 0.000000 0.000000 0.000000 0.031779
#
#
# Mechanical properties :
#
#
# Convention : Reuss Voigt Hill
#
# Bulk Modulus (GPa) = 70.50482 75.52470 73.01476
# Shear Modulus (GPa) = 38.56802 42.06036 40.31419
#
# Velocity S-wave (km/s) = 3.90678 4.07982 3.99424
# Velocity P-wave (km/s) = 6.94637 7.21674 7.08285
#
# Compressibility (1/GPa) = 0.01418343
#
# Stress axis : x y z
#
# Youngs Moduli (GPa) = 145.43694 107.19160 102.15542
#
# Poissons Ratio (x) = 0.13819 0.32339
# Poissons Ratio (y) = 0.18750 0.14816
# Poissons Ratio (z) = 0.46041 0.15546
#
# Static dielectric constant tensor:
#      x y z
#    x 2.020960 0.000000 0.000000 
#    y 0.000000 1.993670 0.000000 
#    z 0.000000 0.000000 2.091980 
# 
# From -- ./inp_files/7332.got.cif
#   From: 2010.05.17/outbox.cif.g08.bks.cpg/sg60_4_cif.got.tgz:7332.got - 2010.06.03 14:59:27.
