data_PCOD9454246
_publ_section_title
;
Structure prediction by ZEFSAII (Michael W. Deem and Ramdas Pophale) SiO2 
 PCOD9454246
Probable space group: P B C N
;
_chemical_formula_sum "Si O2"
_cell_formula_units_Z 56
_cell_length_a 17.453789
_cell_length_b 13.929584
_cell_length_c 8.693506
_cell_angle_alpha 90.000000
_cell_angle_beta 90.000000
_cell_angle_gamma 90.000000
_cell_volume 2113.600127
_symmetry_space_group_name_H-M "P B C N"
_symmetry_group_IT_number 60
_symmetry_cell_setting 'orthorhombic'
loop_
_space_group_symop_operation_xyz
x,y,z
1/2-x,1/2-y,1/2+z
1/2+x,1/2-y,-z
-x,y,1/2-z
-x,-y,-z
1/2+x,1/2+y,1/2-z
1/2-x,1/2+y,z
x,-y,1/2+z
loop_
_atom_site_type_symbol
_atom_site_label
_atom_site_fract_x
_atom_site_fract_y
_atom_site_fract_z
Si Si1 0.884821 0.947859 0.711253
Si Si2 0.785888 0.060980 0.909405
Si Si3 0.721261 0.238395 0.294398
Si Si4 0.000000 0.880397 0.250000
Si Si5 0.131851 0.600869 0.441368
Si Si6 0.403950 0.747022 0.188525
Si Si7 0.500000 0.062996 0.250000
Si Si8 0.077152 0.282404 0.533573
O O1 0.846945 0.921442 0.547315
O O2 0.935533 0.044013 0.693207
O O3 0.927601 0.864960 0.808789
O O4 0.812326 0.970245 0.817338
O O5 0.699916 0.049146 0.969193
O O6 0.790221 0.147071 0.786340
O O7 0.679180 0.175518 0.166210
O O8 0.811662 0.232727 0.305321
O O9 0.669411 0.216076 0.443588
O O10 0.036555 0.808745 0.121548
O O11 0.086995 0.673589 0.556198
O O12 0.073261 0.529985 0.352278
O O13 0.565245 0.782187 0.147407
O O14 0.455474 0.128331 0.126986
#
# Coordination Sequence:
#
# PCOD9454246 Si02
#       8
#     8   8   8   4   8   8   4   8
#     4  12  24  40  58  98 135 179 218 263 327 407
#     4  11  24  41  62  91 131 172 227 263 328 391
#     4  10  18  41  61  82 129 173 226 271 313 381
#     4  11  24  38  64  88 152 191 196 260 337 422
#     4  10  22  41  65  90 120 176 218 283 330 380
#     4  11  21  35  63  94 127 168 230 275 313 386
#     4   9  22  38  66  86 126 163 212 282 341 374
#     4  10  20  40  59  94 130 176 220 261 329 398
#
# _framework density 26.495077999999999
#
# number of rings (size 3 to 8) (size 9 to 14) (size 15 to 20)
#    0.000    1.429    4.286    0.857    2.000    4.000 
#    0.000    0.000    0.000    0.857    0.000    0.000 
#    0.000    0.000    0.000    0.000    0.000    0.000 
#
# Total GULP energy -312862.312119 kJ/mol
# GULP energy per Si atom -5586.827002 kJ/mol
# Density = 2.643477 g / cm^3
# Si number density = 26.495078 Si / 1000 Ang^3
#
#
#
# Elastic Constant Matrix: (Units=GPa)
#
#
# Indices 1 2 3 4 5 6 
#
# 1 159.3920 11.3727 25.7855 0.0000 0.0000 0.0000
# 2 11.3727 57.3342 22.6618 0.0000 0.0000 0.0000
# 3 25.7855 22.6618 89.3910 0.0000 0.0000 0.0000
# 4 0.0000 0.0000 0.0000 23.8285 0.0000 0.0000
# 5 0.0000 0.0000 0.0000 0.0000 52.0045 0.0000
# 6 0.0000 0.0000 0.0000 0.0000 0.0000 28.3317
#
#
#
# Elastic Compliance Matrix: (Units=1/GPa)
#
#
# Indices 1 2 3 4 5 6 
#
# 1 0.006601 -0.000619 -0.001747 0.000000 0.000000 0.000000
# 2 -0.000619 0.019442 -0.004750 0.000000 0.000000 0.000000
# 3 -0.001747 -0.004750 0.012895 0.000000 0.000000 0.000000
# 4 0.000000 0.000000 0.000000 0.041967 0.000000 0.000000
# 5 0.000000 0.000000 0.000000 0.000000 0.019229 0.000000
# 6 0.000000 0.000000 0.000000 0.000000 0.000000 0.035296
#
#
# Mechanical properties :
#
#
# Convention : Reuss Voigt Hill
#
# Bulk Modulus (GPa) = 40.47722 47.30635 43.89178
# Shear Modulus (GPa) = 31.66623 37.25275 34.45949
#
# Velocity S-wave (km/s) = 3.46088 3.75377 3.61030
# Velocity P-wave (km/s) = 5.59291 6.05650 5.82932
#
# Compressibility (1/GPa) = 0.02470526
#
# Stress axis : x y z
#
# Youngs Moduli (GPa) = 151.50066 51.43526 77.54915
#
# Poissons Ratio (x) = 0.03182 0.13549
# Poissons Ratio (y) = 0.09374 0.36838
# Poissons Ratio (z) = 0.26469 0.24433
#
# Static dielectric constant tensor:
#      x y z
#    x 2.181650 0.000000 0.000000 
#    y 0.000000 2.087860 0.000000 
#    z 0.000000 0.000000 2.098950 
# 
# From -- ./inp_files/12615.got.cif
#   From: 2010.05.17/outbox.cif.g08.bks.cpg/sg60_7_cif.got.tgz:12615.got - 2010.06.03 14:59:27.
