data_PCOD9454253
_publ_section_title
;
Structure prediction by ZEFSAII (Michael W. Deem and Ramdas Pophale) SiO2 
 PCOD9454253
Probable space group: P B C N
;
_chemical_formula_sum "Si O2"
_cell_formula_units_Z 28
_cell_length_a 4.761975
_cell_length_b 11.642992
_cell_length_c 21.124730
_cell_angle_alpha 90.000000
_cell_angle_beta 90.000000
_cell_angle_gamma 90.000000
_cell_volume 1171.231858
_symmetry_space_group_name_H-M "P B C N"
_symmetry_group_IT_number 60
_symmetry_cell_setting 'orthorhombic'
loop_
_space_group_symop_operation_xyz
x,y,z
1/2-x,1/2-y,1/2+z
1/2+x,1/2-y,-z
-x,y,1/2-z
-x,-y,-z
1/2+x,1/2+y,1/2-z
1/2-x,1/2+y,z
x,-y,1/2+z
loop_
_atom_site_type_symbol
_atom_site_label
_atom_site_fract_x
_atom_site_fract_y
_atom_site_fract_z
Si Si1 0.178880 0.327066 0.165682
Si Si2 0.059748 0.252287 0.543309
Si Si3 0.000000 0.004559 0.250000
Si Si4 0.844208 0.675254 0.165026
O O1 0.292629 0.333969 0.093664
O O2 0.283276 0.429881 0.208174
O O3 0.353834 0.215389 0.190639
O O4 0.858141 0.287994 0.167073
O O5 0.811012 0.203099 0.500440
O O6 0.914132 0.344272 0.590728
O O7 0.814534 0.075483 0.199978
#
# Coordination Sequence:
#
# PCOD9454253 Si02
#       4
#     8   8   4   8
#     4  10  23  40  64  95 124 169 200 266 309 368
#     4  10  18  42  66  84 126 170 208 250 312 362
#     4  12  24  42  64  98 132 158 216 250 330 372
#     4  10  23  40  64  95 124 169 200 266 309 368
#
# _framework density 23.906455000000001
#
# number of rings (size 3 to 8) (size 9 to 14) (size 15 to 20)
#    1.714    0.000    2.857    1.714    0.000    4.571 
#    0.000    2.857    0.000    0.000    0.000    0.000 
#    0.000    0.000    0.000    0.000    0.000    0.000 
#
# Total GULP energy -156317.019136 kJ/mol
# GULP energy per Si atom -5582.750683 kJ/mol
# Density = 2.385204 g / cm^3
# Si number density = 23.906455 Si / 1000 Ang^3
#
#
#
# Elastic Constant Matrix: (Units=GPa)
#
#
# Indices 1 2 3 4 5 6 
#
# 1 147.4088 22.1467 47.3301 0.0000 0.0000 0.0000
# 2 22.1467 58.4413 40.1481 0.0000 0.0000 0.0000
# 3 47.3301 40.1481 160.7302 0.0000 0.0000 0.0000
# 4 0.0000 0.0000 0.0000 9.7280 0.0000 0.0000
# 5 0.0000 0.0000 0.0000 0.0000 60.6930 0.0000
# 6 0.0000 0.0000 0.0000 0.0000 0.0000 26.0056
#
#
#
# Elastic Compliance Matrix: (Units=1/GPa)
#
#
# Indices 1 2 3 4 5 6 
#
# 1 0.007618 -0.001625 -0.001837 0.000000 0.000000 0.000000
# 2 -0.001625 0.021002 -0.004768 0.000000 0.000000 0.000000
# 3 -0.001837 -0.004768 0.007954 0.000000 0.000000 0.000000
# 4 0.000000 0.000000 0.000000 0.102796 0.000000 0.000000
# 5 0.000000 0.000000 0.000000 0.000000 0.016476 0.000000
# 6 0.000000 0.000000 0.000000 0.000000 0.000000 0.038453
#
#
# Mechanical properties :
#
#
# Convention : Reuss Voigt Hill
#
# Bulk Modulus (GPa) = 49.71594 65.09224 57.40409
# Shear Modulus (GPa) = 22.99241 36.41568 29.70404
#
# Velocity S-wave (km/s) = 3.10460 3.90713 3.52875
# Velocity P-wave (km/s) = 5.80453 6.90226 6.37706
#
# Compressibility (1/GPa) = 0.02011427
#
# Stress axis : x y z
#
# Youngs Moduli (GPa) = 131.26978 47.61431 125.72981
#
# Poissons Ratio (x) = 0.07735 0.23102
# Poissons Ratio (y) = 0.21326 0.59943
# Poissons Ratio (z) = 0.24120 0.22701
#
# Static dielectric constant tensor:
#      x y z
#    x 1.877530 0.000000 0.000000 
#    y 0.000000 1.934140 0.000000 
#    z 0.000000 0.000000 2.024670 
# 
# From -- ./inp_files/21335.got.cif
#   From: 2010.05.17/outbox.cif.g08.bks.cpg/sg60_11_cif.got.tgz:21335.got - 2010.06.03 14:59:27.
