data_PCOD9454118
_publ_section_title
;
Structure prediction by ZEFSAII (Michael W. Deem and Ramdas Pophale) SiO2 
 PCOD9454118
Probable space group: P B C N
;
_chemical_formula_sum "Si O2"
_cell_formula_units_Z 48
_cell_length_a 7.624887
_cell_length_b 16.080086
_cell_length_c 20.210034
_cell_angle_alpha 90.000000
_cell_angle_beta 90.000000
_cell_angle_gamma 90.000000
_cell_volume 2477.928799
_symmetry_space_group_name_H-M "P B C N"
_symmetry_group_IT_number 60
_symmetry_cell_setting 'orthorhombic'
loop_
_space_group_symop_operation_xyz
x,y,z
1/2-x,1/2-y,1/2+z
1/2+x,1/2-y,-z
-x,y,1/2-z
-x,-y,-z
1/2+x,1/2+y,1/2-z
1/2-x,1/2+y,z
x,-y,1/2+z
loop_
_atom_site_type_symbol
_atom_site_label
_atom_site_fract_x
_atom_site_fract_y
_atom_site_fract_z
Si Si1 0.726595 0.744511 0.111936
Si Si2 0.929841 0.407014 0.176362
Si Si3 0.812177 0.573581 0.945820
Si Si4 0.625954 0.103210 0.448272
Si Si5 0.099584 0.594130 0.318998
Si Si6 0.929305 0.223847 0.977664
O O1 0.682181 0.829137 0.150499
O O2 0.764151 0.666199 0.160155
O O3 0.900525 0.759165 0.067182
O O4 0.576290 0.724831 0.057663
O O5 0.835692 0.497933 0.178012
O O6 0.000000 0.391432 0.250000
O O7 0.090688 0.416095 0.124419
O O8 0.755715 0.477956 0.957148
O O9 0.659670 0.638994 0.955144
O O10 0.963288 0.592201 0.000397
O O11 0.547645 0.098746 0.375538
O O12 0.691312 0.195302 0.460580
O O13 0.000000 0.608297 0.250000
#
# Coordination Sequence:
#
# PCOD9454118 Si02
#       6
#     8   8   8   8   8   8
#     4  11  21  35  59  87 117 149 195 246 294 350
#     4  10  21  38  58  81 113 155 191 236 286 356
#     4  10  18  35  56  78 110 153 194 232 288 354
#     4   9  18  32  57  75 111 151 191 231 292 352
#     4   9  19  36  57  80 110 155 194 222 286 363
#     4  11  19  34  56  86 113 145 190 248 288 333
#
# _framework density 19.371015
#
# number of rings (size 3 to 8) (size 9 to 14) (size 15 to 20)
#    0.000    2.000    5.000    0.000    0.000    2.667 
#    0.000    5.000    0.000    1.000    0.000    0.000 
#    0.000    0.000    0.000    0.000    0.000    0.000 
#
# Total GULP energy -267324.873146 kJ/mol
# GULP energy per Si atom -5569.268191 kJ/mol
# Density = 1.932693 g / cm^3
# Si number density = 19.371015 Si / 1000 Ang^3
#
#
#
# Elastic Constant Matrix: (Units=GPa)
#
#
# Indices 1 2 3 4 5 6 
#
# 1 39.6691 35.6613 21.5924 0.0000 0.0000 0.0000
# 2 35.6613 153.2061 39.2614 0.0000 0.0000 0.0000
# 3 21.5924 39.2614 148.9592 0.0000 0.0000 0.0000
# 4 0.0000 0.0000 0.0000 35.2785 0.0000 0.0000
# 5 0.0000 0.0000 0.0000 0.0000 18.8799 0.0000
# 6 0.0000 0.0000 0.0000 0.0000 0.0000 33.4891
#
#
#
# Elastic Compliance Matrix: (Units=1/GPa)
#
#
# Indices 1 2 3 4 5 6 
#
# 1 0.033056 -0.006935 -0.002964 0.000000 0.000000 0.000000
# 2 -0.006935 0.008455 -0.001223 0.000000 0.000000 0.000000
# 3 -0.002964 -0.001223 0.007465 0.000000 0.000000 0.000000
# 4 0.000000 0.000000 0.000000 0.028346 0.000000 0.000000
# 5 0.000000 0.000000 0.000000 0.000000 0.052966 0.000000
# 6 0.000000 0.000000 0.000000 0.000000 0.000000 0.029860
#
#
# Mechanical properties :
#
#
# Convention : Reuss Voigt Hill
#
# Bulk Modulus (GPa) = 37.40780 59.42939 48.41860
# Shear Modulus (GPa) = 26.13650 33.88411 30.01030
#
# Velocity S-wave (km/s) = 3.67721 4.18690 3.94031
# Velocity P-wave (km/s) = 6.11411 7.35661 6.76395
#
# Compressibility (1/GPa) = 0.02673239
#
# Stress axis : x y z
#
# Youngs Moduli (GPa) = 30.25172 118.27583 133.95358
#
# Poissons Ratio (x) = 0.82022 0.39701
# Poissons Ratio (y) = 0.20979 0.16385
# Poissons Ratio (z) = 0.08966 0.14468
#
# Static dielectric constant tensor:
#      x y z
#    x 1.696790 0.000000 0.000000 
#    y 0.000000 1.762000 0.000000 
#    z 0.000000 0.000000 1.661630 
# 
# From -- ./inp_files/22087.got.cif
#   From: 2010.05.17/outbox.cif.g08.bks.cpg/sg60_12_cif.got.tgz:22087.got - 2010.06.03 14:59:27.
