data_PCOD9454847
_publ_section_title
;
Structure prediction by ZEFSAII (Michael W. Deem and Ramdas Pophale) SiO2 
 PCOD9454847
Probable space group: P B C N
;
_chemical_formula_sum "Si O2"
_cell_formula_units_Z 40
_cell_length_a 9.483059
_cell_length_b 11.793211
_cell_length_c 14.243973
_cell_angle_alpha 90.000000
_cell_angle_beta 90.000000
_cell_angle_gamma 90.000000
_cell_volume 1592.984915
_symmetry_space_group_name_H-M "P B C N"
_symmetry_group_IT_number 60
_symmetry_cell_setting 'orthorhombic'
loop_
_space_group_symop_operation_xyz
x,y,z
1/2-x,1/2-y,1/2+z
1/2+x,1/2-y,-z
-x,y,1/2-z
-x,-y,-z
1/2+x,1/2+y,1/2-z
1/2-x,1/2+y,z
x,-y,1/2+z
loop_
_atom_site_type_symbol
_atom_site_label
_atom_site_fract_x
_atom_site_fract_y
_atom_site_fract_z
Si Si1 0.476884 0.874281 0.144713
Si Si2 0.843583 0.697063 0.232487
Si Si3 0.660579 0.614728 0.891605
Si Si4 0.715227 0.209587 0.542261
Si Si5 0.111825 0.122052 0.133151
O O1 0.500000 0.913045 0.250000
O O2 0.328557 0.914828 0.103323
O O3 0.612791 0.888575 0.080971
O O4 0.476777 0.735268 0.150572
O O5 0.843753 0.808926 0.298498
O O6 0.803136 0.733584 0.127259
O O7 0.723415 0.620205 0.280215
O O8 0.000000 0.650836 0.250000
O O9 0.561723 0.506118 0.879459
O O10 0.633915 0.693069 0.981901
O O11 0.810681 0.152796 0.463389
#
# Coordination Sequence:
#
# PCOD9454847 Si02
#       5
#     8   8   8   8   8
#     4  10  19  42  62  80 123 158 190 240 296 352
#     4  10  22  42  60  84 125 156 191 243 298 346
#     4  10  24  38  60  92 115 151 203 241 290 349
#     4  10  21  41  62  82 121 162 188 241 301 344
#     4  10  24  38  60  92 115 151 203 241 290 349
#
# _framework density 25.110095000000001
#
# number of rings (size 3 to 8) (size 9 to 14) (size 15 to 20)
#    0.000    2.400    4.000    0.000   11.200    4.800 
#    0.000    0.000    0.000    0.000    0.000    0.000 
#    0.000    0.000    0.000    0.000    0.000    0.000 
#
# Total GULP energy -223530.351834 kJ/mol
# GULP energy per Si atom -5588.258796 kJ/mol
# Density = 2.505294 g / cm^3
# Si number density = 25.110095 Si / 1000 Ang^3
#
#
#
# Elastic Constant Matrix: (Units=GPa)
#
#
# Indices 1 2 3 4 5 6 
#
# 1 60.4053 -30.1140 15.7915 0.0000 0.0000 0.0000
# 2 -30.1140 112.2829 14.7961 0.0000 0.0000 0.0000
# 3 15.7915 14.7961 161.0910 0.0000 0.0000 0.0000
# 4 0.0000 0.0000 0.0000 -9.8731 0.0000 0.0000
# 5 0.0000 0.0000 0.0000 0.0000 43.3847 0.0000
# 6 0.0000 0.0000 0.0000 0.0000 0.0000 4.7108
#
#
#
# Elastic Compliance Matrix: (Units=1/GPa)
#
#
# Indices 1 2 3 4 5 6 
#
# 1 0.020050 0.005705 -0.002490 0.000000 0.000000 0.000000
# 2 0.005705 0.010639 -0.001536 0.000000 0.000000 0.000000
# 3 -0.002490 -0.001536 0.006593 0.000000 0.000000 0.000000
# 4 0.000000 0.000000 0.000000 -0.101286 0.000000 0.000000
# 5 0.000000 0.000000 0.000000 0.000000 0.023050 0.000000
# 6 0.000000 0.000000 0.000000 0.000000 0.000000 0.212279
#
#
# Mechanical properties :
#
#
# Convention : Reuss Voigt Hill
#
# Bulk Modulus (GPa) = 24.60604 37.19184 30.89894
# Shear Modulus (GPa) = 27.54634 29.86486 28.70560
#
# Velocity S-wave (km/s) = 3.31573 3.45245 3.38478
# Velocity P-wave (km/s) = 4.94765 5.54402 5.25430
#
# Compressibility (1/GPa) = 0.04064043
#
# Stress axis : x y z
#
# Youngs Moduli (GPa) = 49.87534 93.99632 151.67979
#
# Poissons Ratio (x) = -0.53629 0.37761
# Poissons Ratio (y) = -0.28456 0.23305
# Poissons Ratio (z) = 0.12417 0.14442
#
# Static dielectric constant tensor:
#      x y z
#    x 2.137820 0.000000 0.000000 
#    y 0.000000 2.003310 0.000000 
#    z 0.000000 0.000000 1.950610 
# 
# From -- ./inp_files/15925.got.cif
#   From: 2010.05.17/outbox.cif.g08.bks.cpg/sg60_8_cif.got.tgz:15925.got - 2010.06.03 14:59:27.
