data_PCOD9455574
_publ_section_title
;
Structure prediction by ZEFSAII (Michael W. Deem and Ramdas Pophale) SiO2 
 PCOD9455574
Probable space group: P B C N
;
_chemical_formula_sum "Si O2"
_cell_formula_units_Z 24
_cell_length_a 6.635934
_cell_length_b 10.266249
_cell_length_c 14.195418
_cell_angle_alpha 90.000000
_cell_angle_beta 90.000000
_cell_angle_gamma 90.000000
_cell_volume 967.079187
_symmetry_space_group_name_H-M "P B C N"
_symmetry_group_IT_number 60
_symmetry_cell_setting 'orthorhombic'
loop_
_space_group_symop_operation_xyz
x,y,z
1/2-x,1/2-y,1/2+z
1/2+x,1/2-y,-z
-x,y,1/2-z
-x,-y,-z
1/2+x,1/2+y,1/2-z
1/2-x,1/2+y,z
x,-y,1/2+z
loop_
_atom_site_type_symbol
_atom_site_label
_atom_site_fract_x
_atom_site_fract_y
_atom_site_fract_z
Si Si1 0.734124 0.874601 0.174162
Si Si2 0.124990 0.628281 0.420726
Si Si3 0.326669 0.345720 0.114378
O O1 0.718632 0.734829 0.123022
O O2 0.720227 0.845458 0.284751
O O3 0.962176 0.915806 0.139791
O O4 0.615253 0.999644 0.140749
O O5 0.203069 0.603001 0.525892
O O6 0.910903 0.702416 0.413969
#
# Coordination Sequence:
#
# PCOD9455574 Si02
#       3
#     8   8   8
#     4   9  21  40  62  90 127 160 203 261 312 367
#     4  10  20  40  64  87 124 168 204 259 308 372
#     4   9  21  41  63  88 126 163 209 251 315 366
#
# _framework density 24.816994000000001
#
# number of rings (size 3 to 8) (size 9 to 14) (size 15 to 20)
#    2.000    0.667    0.000    1.000    0.000    4.000 
#    6.000    0.000    0.000    0.000    0.000    0.000 
#    0.000    0.000    0.000    0.000    0.000    0.000 
#
# Total GULP energy -133968.589840 kJ/mol
# GULP energy per Si atom -5582.024577 kJ/mol
# Density = 2.476051 g / cm^3
# Si number density = 24.816994 Si / 1000 Ang^3
#
#
#
# Elastic Constant Matrix: (Units=GPa)
#
#
# Indices 1 2 3 4 5 6 
#
# 1 52.2733 23.8175 44.7872 0.0000 0.0000 0.0000
# 2 23.8175 108.1718 65.3915 0.0000 0.0000 0.0000
# 3 44.7872 65.3915 249.5615 0.0000 0.0000 0.0000
# 4 0.0000 0.0000 0.0000 34.4817 0.0000 0.0000
# 5 0.0000 0.0000 0.0000 0.0000 36.1621 0.0000
# 6 0.0000 0.0000 0.0000 0.0000 0.0000 26.4546
#
#
#
# Elastic Compliance Matrix: (Units=1/GPa)
#
#
# Indices 1 2 3 4 5 6 
#
# 1 0.023456 -0.003113 -0.003394 0.000000 0.000000 0.000000
# 2 -0.003113 0.011398 -0.002428 0.000000 0.000000 0.000000
# 3 -0.003394 -0.002428 0.005252 0.000000 0.000000 0.000000
# 4 0.000000 0.000000 0.000000 0.029001 0.000000 0.000000
# 5 0.000000 0.000000 0.000000 0.000000 0.027653 0.000000
# 6 0.000000 0.000000 0.000000 0.000000 0.000000 0.037801
#
#
# Mechanical properties :
#
#
# Convention : Reuss Voigt Hill
#
# Bulk Modulus (GPa) = 44.97028 75.33320 60.15174
# Shear Modulus (GPa) = 31.28072 37.82038 34.55055
#
# Velocity S-wave (km/s) = 3.55414 3.90804 3.73529
# Velocity P-wave (km/s) = 5.91630 7.12637 6.54934
#
# Compressibility (1/GPa) = 0.02223691
#
# Stress axis : x y z
#
# Youngs Moduli (GPa) = 42.63219 87.73752 190.39456
#
# Poissons Ratio (x) = 0.27313 0.64618
# Poissons Ratio (y) = 0.13272 0.46224
# Poissons Ratio (z) = 0.14469 0.21301
#
# Static dielectric constant tensor:
#      x y z
#    x 2.116490 0.000000 0.000000 
#    y 0.000000 1.893200 0.000000 
#    z 0.000000 0.000000 1.914000 
# 
# From -- ./inp_files/9343.got.cif
#   From: 2010.05.17/outbox.cif.g08.bks.cpg/sg60_5_cif.got.tgz:9343.got - 2010.06.03 14:59:27.
