data_PCOD9455446
_publ_section_title
;
Structure prediction by ZEFSAII (Michael W. Deem and Ramdas Pophale) SiO2 
 PCOD9455446
Probable space group: P B C N
;
_chemical_formula_sum "Si O2"
_cell_formula_units_Z 56
_cell_length_a 28.558260
_cell_length_b 14.436775
_cell_length_c 5.367124
_cell_angle_alpha 90.000000
_cell_angle_beta 90.000000
_cell_angle_gamma 90.000000
_cell_volume 2212.807121
_symmetry_space_group_name_H-M "P B C N"
_symmetry_group_IT_number 60
_symmetry_cell_setting 'orthorhombic'
loop_
_space_group_symop_operation_xyz
x,y,z
1/2-x,1/2-y,1/2+z
1/2+x,1/2-y,-z
-x,y,1/2-z
-x,-y,-z
1/2+x,1/2+y,1/2-z
1/2-x,1/2+y,z
x,-y,1/2+z
loop_
_atom_site_type_symbol
_atom_site_label
_atom_site_fract_x
_atom_site_fract_y
_atom_site_fract_z
Si Si1 0.339879 0.555572 0.183856
Si Si2 0.236927 0.506673 0.649640
Si Si3 0.633893 0.762749 0.410168
Si Si4 0.898803 0.552658 0.638388
Si Si5 0.000000 0.935461 0.750000
Si Si6 0.961425 0.779322 0.049542
Si Si7 0.500000 0.109422 0.750000
Si Si8 0.263078 0.791844 0.092731
O O1 0.354428 0.495483 0.425579
O O2 0.282708 0.556930 0.158987
O O3 0.356273 0.660913 0.201733
O O4 0.208914 0.490787 0.401451
O O5 0.258328 0.607804 0.625970
O O6 0.617754 0.843858 0.220828
O O7 0.592486 0.743357 0.609664
O O8 0.684095 0.795366 0.512390
O O9 0.885568 0.516459 0.365205
O O10 0.955697 0.555556 0.645412
O O11 0.039161 0.858406 0.668339
O O12 0.000000 0.000000 0.500000
O O13 0.000000 0.811333 0.250000
O O14 0.980912 0.681546 0.955166
O O15 0.234851 0.742856 0.875275
#
# Coordination Sequence:
#
# PCOD9455446 Si02
#       8
#     8   8   8   8   4   8   4   8
#     4  10  21  42  65 101 138 186 241 294 361 448
#     4  10  20  38  67  93 134 178 230 294 357 432
#     4  11  27  47  75 113 150 203 252 323 393 464
#     4  11  26  45  71 108 148 192 252 311 380 456
#     4  11  22  44  70 103 152 208 258 311 384 447
#     4  10  23  46  71 108 152 201 261 326 388 470
#     4   9  22  42  72 103 140 200 244 309 382 467
#     4  12  25  46  71 105 143 193 250 310 381 458
#
# _framework density 25.307220999999998
#
# number of rings (size 3 to 8) (size 9 to 14) (size 15 to 20)
#    0.000    1.429    0.714    4.714    4.000    4.571 
#   10.286    0.000    0.000    0.000    0.000    0.000 
#    0.000    0.000    0.000    0.000    0.000    0.000 
#
# Total GULP energy -312488.618739 kJ/mol
# GULP energy per Si atom -5580.153906 kJ/mol
# Density = 2.524962 g / cm^3
# Si number density = 25.307221 Si / 1000 Ang^3
#
#
#
# Elastic Constant Matrix: (Units=GPa)
#
#
# Indices 1 2 3 4 5 6 
#
# 1 113.4675 11.7176 1.7505 0.0000 0.0000 0.0000
# 2 11.7176 107.8789 37.7043 0.0000 0.0000 0.0000
# 3 1.7505 37.7043 154.9745 0.0000 0.0000 0.0000
# 4 0.0000 0.0000 0.0000 -51.5271 0.0000 0.0000
# 5 0.0000 0.0000 0.0000 0.0000 21.2708 0.0000
# 6 0.0000 0.0000 0.0000 0.0000 0.0000 14.5697
#
#
#
# Elastic Compliance Matrix: (Units=1/GPa)
#
#
# Indices 1 2 3 4 5 6 
#
# 1 0.008916 -0.001020 0.000147 0.000000 0.000000 0.000000
# 2 -0.001020 0.010248 -0.002482 0.000000 0.000000 0.000000
# 3 0.000147 -0.002482 0.007055 0.000000 0.000000 0.000000
# 4 0.000000 0.000000 0.000000 -0.019407 0.000000 0.000000
# 5 0.000000 0.000000 0.000000 0.000000 0.047013 0.000000
# 6 0.000000 0.000000 0.000000 0.000000 0.000000 0.068636
#
#
# Mechanical properties :
#
#
# Convention : Reuss Voigt Hill
#
# Bulk Modulus (GPa) = 51.25508 53.18507 52.22007
# Shear Modulus (GPa) = 36.85356 18.53923 27.69639
#
# Velocity S-wave (km/s) = 3.82022 2.70953 3.31177
# Velocity P-wave (km/s) = 6.30523 5.55429 5.94163
#
# Compressibility (1/GPa) = 0.01951026
#
# Stress axis : x y z
#
# Youngs Moduli (GPa) = 112.15594 97.58174 141.74758
#
# Poissons Ratio (x) = 0.09953 -0.02090
# Poissons Ratio (y) = 0.11440 0.35178
# Poissons Ratio (z) = -0.01654 0.24217
#
# Static dielectric constant tensor:
#      x y z
#    x 2.039280 0.000000 0.000000 
#    y 0.000000 2.004530 0.000000 
#    z 0.000000 0.000000 2.137710 
# 
# From -- ./inp_files/2712.got.cif
#   From: 2010.05.17/outbox.cif.g08.bks.cpg/sg60_2_cif.got.tgz:2712.got - 2010.06.03 14:59:27.
