data_PCOD9455409
_publ_section_title
;
Structure prediction by ZEFSAII (Michael W. Deem and Ramdas Pophale) SiO2 
 PCOD9455409
Probable space group: P B C N
;
_chemical_formula_sum "Si O2"
_cell_formula_units_Z 36
_cell_length_a 7.587004
_cell_length_b 13.823115
_cell_length_c 14.768118
_cell_angle_alpha 90.000000
_cell_angle_beta 90.000000
_cell_angle_gamma 90.000000
_cell_volume 1548.821569
_symmetry_space_group_name_H-M "P B C N"
_symmetry_group_IT_number 60
_symmetry_cell_setting 'orthorhombic'
loop_
_space_group_symop_operation_xyz
x,y,z
1/2-x,1/2-y,1/2+z
1/2+x,1/2-y,-z
-x,y,1/2-z
-x,-y,-z
1/2+x,1/2+y,1/2-z
1/2-x,1/2+y,z
x,-y,1/2+z
loop_
_atom_site_type_symbol
_atom_site_label
_atom_site_fract_x
_atom_site_fract_y
_atom_site_fract_z
Si Si1 0.305358 0.721002 0.935487
Si Si2 0.131884 0.566180 0.057890
Si Si3 0.500000 0.967832 0.750000
Si Si4 0.211153 0.871611 0.253579
Si Si5 0.685083 0.623936 0.943998
O O1 0.259657 0.708089 0.830436
O O2 0.490126 0.666255 0.947498
O O3 0.179063 0.659092 0.000429
O O4 0.288501 0.828947 0.972496
O O5 0.298671 0.491731 0.063475
O O6 0.063824 0.586473 0.159614
O O7 0.000000 0.500000 0.000000
O O8 0.664678 0.037352 0.723014
O O9 0.264536 0.840764 0.152320
O O10 0.000000 0.893997 0.250000
#
# Coordination Sequence:
#
# PCOD9455409 Si02
#       5
#     8   8   4   8   8
#     4  11  21  41  62  89 125 159 214 252 308 380
#     4  11  21  39  64  90 120 161 202 252 314 365
#     4  10  20  38  64  86 124 156 206 248 318 360
#     4   9  20  38  61  88 122 161 201 257 309 362
#     4  10  23  39  62  91 120 166 203 259 313 364
#
# _framework density 23.243479000000001
#
# number of rings (size 3 to 8) (size 9 to 14) (size 15 to 20)
#    0.000    1.778    2.222    2.000    3.111    0.000 
#   10.000    0.000    0.000    0.000    0.000    0.000 
#    0.000    0.000    0.000    0.000    0.000    0.000 
#
# Total GULP energy -201134.509155 kJ/mol
# GULP energy per Si atom -5587.069699 kJ/mol
# Density = 2.319058 g / cm^3
# Si number density = 23.243479 Si / 1000 Ang^3
#
#
#
# Elastic Constant Matrix: (Units=GPa)
#
#
# Indices 1 2 3 4 5 6 
#
# 1 36.9051 -11.3074 -4.5176 0.0000 0.0000 0.0000
# 2 -11.3074 57.3500 23.4596 0.0000 0.0000 0.0000
# 3 -4.5176 23.4596 122.7677 0.0000 0.0000 0.0000
# 4 0.0000 0.0000 0.0000 32.0015 0.0000 0.0000
# 5 0.0000 0.0000 0.0000 0.0000 34.0327 0.0000
# 6 0.0000 0.0000 0.0000 0.0000 0.0000 29.5205
#
#
#
# Elastic Compliance Matrix: (Units=1/GPa)
#
#
# Indices 1 2 3 4 5 6 
#
# 1 0.028839 0.005697 -0.000027 0.000000 0.000000 0.000000
# 2 0.005697 0.020041 -0.003620 0.000000 0.000000 0.000000
# 3 -0.000027 -0.003620 0.008836 0.000000 0.000000 0.000000
# 4 0.000000 0.000000 0.000000 0.031248 0.000000 0.000000
# 5 0.000000 0.000000 0.000000 0.000000 0.029383 0.000000
# 6 0.000000 0.000000 0.000000 0.000000 0.000000 0.033875
#
#
# Mechanical properties :
#
#
# Convention : Reuss Voigt Hill
#
# Bulk Modulus (GPa) = 16.17723 25.81025 20.99374
# Shear Modulus (GPa) = 29.63348 33.07016 31.35182
#
# Velocity S-wave (km/s) = 3.57447 3.77606 3.67665
# Velocity P-wave (km/s) = 4.90008 5.48998 5.20340
#
# Compressibility (1/GPa) = 0.06181529
#
# Stress axis : x y z
#
# Youngs Moduli (GPa) = 34.67562 49.89805 113.17100
#
# Poissons Ratio (x) = -0.28428 0.00311
# Poissons Ratio (y) = -0.19755 0.40967
# Poissons Ratio (z) = 0.00095 0.18063
#
# Static dielectric constant tensor:
#      x y z
#    x 1.971300 0.000000 0.000000 
#    y 0.000000 1.892030 0.000000 
#    z 0.000000 0.000000 1.888080 
# 
# From -- ./inp_files/14554.got.cif
#   From: 2010.05.17/outbox.cif.g08.bks.cpg/sg60_8_cif.got.tgz:14554.got - 2010.06.03 14:59:27.
