data_PCOD9455303
_publ_section_title
;
Structure prediction by ZEFSAII (Michael W. Deem and Ramdas Pophale) SiO2 
 PCOD9455303
Probable space group: P B C N
;
_chemical_formula_sum "Si O2"
_cell_formula_units_Z 48
_cell_length_a 13.377264
_cell_length_b 13.427117
_cell_length_c 14.395089
_cell_angle_alpha 90.000000
_cell_angle_beta 90.000000
_cell_angle_gamma 90.000000
_cell_volume 2585.618375
_symmetry_space_group_name_H-M "P B C N"
_symmetry_group_IT_number 60
_symmetry_cell_setting 'orthorhombic'
loop_
_space_group_symop_operation_xyz
x,y,z
1/2-x,1/2-y,1/2+z
1/2+x,1/2-y,-z
-x,y,1/2-z
-x,-y,-z
1/2+x,1/2+y,1/2-z
1/2-x,1/2+y,z
x,-y,1/2+z
loop_
_atom_site_type_symbol
_atom_site_label
_atom_site_fract_x
_atom_site_fract_y
_atom_site_fract_z
Si Si1 0.658384 0.071024 0.211945
Si Si2 0.428901 0.278750 0.053302
Si Si3 0.396901 0.791212 0.082110
Si Si4 0.239435 0.380384 0.593146
Si Si5 0.000000 0.743240 0.250000
Si Si6 0.000000 0.405530 0.250000
Si Si7 0.735343 0.572494 0.020082
O O1 0.712377 0.065162 0.311117
O O2 0.589301 0.170122 0.215870
O O3 0.582932 0.978147 0.204387
O O4 0.735845 0.075217 0.128010
O O5 0.358118 0.181131 0.060845
O O6 0.462258 0.301735 0.159332
O O7 0.362732 0.365304 0.007475
O O8 0.522735 0.250417 0.990584
O O9 0.324177 0.701379 0.110339
O O10 0.450366 0.839344 0.170437
O O11 0.327825 0.873980 0.032654
O O12 0.271248 0.460469 0.517062
#
# Coordination Sequence:
#
# PCOD9455303 Si02
#       7
#     8   8   8   8   4   4   8
#     4  10  20  37  65  89 119 158 202 261 300 352
#     4  10  22  39  64  88 121 169 204 254 307 367
#     4  11  23  40  62  91 123 159 206 252 304 367
#     4  10  23  41  57  94 128 153 207 257 301 367
#     4   9  18  38  61  88 118 154 211 252 299 356
#     4  11  22  36  67  92 114 166 209 254 309 356
#     4  11  22  41  61  89 125 164 202 253 314 362
#
# _framework density 18.564225
#
# number of rings (size 3 to 8) (size 9 to 14) (size 15 to 20)
#    0.000    1.667    3.333    1.000    2.333    2.000 
#    3.000    0.833    0.000    0.000    0.000    0.000 
#    0.000    0.000    0.000    0.000    0.000    0.000 
#
# Total GULP energy -268133.868138 kJ/mol
# GULP energy per Si atom -5586.122253 kJ/mol
# Density = 1.852197 g / cm^3
# Si number density = 18.564225 Si / 1000 Ang^3
#
#
#
# Elastic Constant Matrix: (Units=GPa)
#
#
# Indices 1 2 3 4 5 6 
#
# 1 71.3877 9.7158 15.7276 0.0000 0.0000 0.0000
# 2 9.7158 30.5029 -6.9083 0.0000 0.0000 0.0000
# 3 15.7276 -6.9083 41.2311 0.0000 0.0000 0.0000
# 4 0.0000 0.0000 0.0000 6.0841 0.0000 0.0000
# 5 0.0000 0.0000 0.0000 0.0000 38.3198 0.0000
# 6 0.0000 0.0000 0.0000 0.0000 0.0000 8.3829
#
#
#
# Elastic Compliance Matrix: (Units=1/GPa)
#
#
# Indices 1 2 3 4 5 6 
#
# 1 0.016614 -0.006993 -0.007509 0.000000 0.000000 0.000000
# 2 -0.006993 0.037020 0.008870 0.000000 0.000000 0.000000
# 3 -0.007509 0.008870 0.028604 0.000000 0.000000 0.000000
# 4 0.000000 0.000000 0.000000 0.164364 0.000000 0.000000
# 5 0.000000 0.000000 0.000000 0.000000 0.026096 0.000000
# 6 0.000000 0.000000 0.000000 0.000000 0.000000 0.119290
#
#
# Mechanical properties :
#
#
# Convention : Reuss Voigt Hill
#
# Bulk Modulus (GPa) = 14.08952 20.02134 17.05543
# Shear Modulus (GPa) = 11.71208 18.86314 15.28761
#
# Velocity S-wave (km/s) = 2.51449 3.19109 2.87278
# Velocity P-wave (km/s) = 4.00453 4.93819 4.49567
#
# Compressibility (1/GPa) = 0.07097476
#
# Stress axis : x y z
#
# Youngs Moduli (GPa) = 60.19012 27.01252 34.96012
#
# Poissons Ratio (x) = 0.18889 0.26252
# Poissons Ratio (y) = 0.42088 -0.31010
# Poissons Ratio (z) = 0.45197 -0.23960
#
# Static dielectric constant tensor:
#      x y z
#    x 1.630430 0.000000 0.000000 
#    y 0.000000 1.621870 0.000000 
#    z 0.000000 0.000000 1.621820 
# 
# From -- ./inp_files/11905.got.cif
#   From: 2010.05.17/outbox.cif.g08.bks.cpg/sg60_6_cif.got.tgz:11905.got - 2010.06.03 14:59:27.
