data_PCOD9455478
_publ_section_title
;
Structure prediction by ZEFSAII (Michael W. Deem and Ramdas Pophale) SiO2 
 PCOD9455478
Probable space group: P B C N
;
_chemical_formula_sum "Si O2"
_cell_formula_units_Z 60
_cell_length_a 9.617750
_cell_length_b 21.676510
_cell_length_c 15.059351
_cell_angle_alpha 90.000000
_cell_angle_beta 90.000000
_cell_angle_gamma 90.000000
_cell_volume 3139.562263
_symmetry_space_group_name_H-M "P B C N"
_symmetry_group_IT_number 60
_symmetry_cell_setting 'orthorhombic'
loop_
_space_group_symop_operation_xyz
x,y,z
1/2-x,1/2-y,1/2+z
1/2+x,1/2-y,-z
-x,y,1/2-z
-x,-y,-z
1/2+x,1/2+y,1/2-z
1/2-x,1/2+y,z
x,-y,1/2+z
loop_
_atom_site_type_symbol
_atom_site_label
_atom_site_fract_x
_atom_site_fract_y
_atom_site_fract_z
Si Si1 0.906653 0.483116 0.085107
Si Si2 0.152786 0.984233 0.539427
Si Si3 0.986473 0.236588 0.098141
Si Si4 0.500000 0.161103 0.750000
Si Si5 0.874875 0.388558 0.685891
Si Si6 0.669002 0.907615 0.369481
Si Si7 0.306040 0.193492 0.480080
Si Si8 0.612545 0.384814 0.812336
O O1 0.890345 0.540921 0.151389
O O2 0.007560 0.430596 0.122535
O O3 0.756057 0.471169 0.043119
O O4 0.000000 0.500000 0.000000
O O5 0.145725 0.925139 0.602217
O O6 0.227227 0.036669 0.602699
O O7 0.000000 0.000000 0.500000
O O8 0.974080 0.293794 0.165839
O O9 0.839483 0.219136 0.055108
O O10 0.048003 0.178974 0.152897
O O11 0.093009 0.255055 0.020149
O O12 0.355178 0.124676 0.725816
O O13 0.872417 0.345157 0.600340
O O14 0.740838 0.377582 0.746384
O O15 0.000000 0.373927 0.750000
O O16 0.710246 0.855804 0.440547
O O17 0.500000 0.418300 0.750000
#
# Coordination Sequence:
#
# PCOD9455478 Si02
#       8
#     8   8   8   4   8   8   8   8
#     4  10  20  39  60  94 128 167 217 255 317 398
#     4  11  22  39  64  92 131 172 207 264 334 400
#     4  11  24  45  67  92 126 179 225 272 331 389
#     4  10  22  42  68  88 128 172 220 276 316 390
#     4  12  23  37  65 100 129 166 220 277 321 394
#     4  10  22  40  67  93 128 167 218 267 332 386
#     4  11  23  43  68  91 127 171 225 273 325 398
#     4  12  24  40  64  94 136 169 214 276 336 388
#
# _framework density 19.110944
#
# number of rings (size 3 to 8) (size 9 to 14) (size 15 to 20)
#    0.000    1.067    4.667    3.200    4.667    1.067 
#    0.000    0.000    0.000    0.000    0.000    0.000 
#    0.000    0.000    0.000    0.000    0.000    0.000 
#
# Total GULP energy -334438.491762 kJ/mol
# GULP energy per Si atom -5573.974863 kJ/mol
# Density = 1.906745 g / cm^3
# Si number density = 19.110944 Si / 1000 Ang^3
#
#
#
# Elastic Constant Matrix: (Units=GPa)
#
#
# Indices 1 2 3 4 5 6 
#
# 1 113.1504 17.2893 28.5677 0.0000 0.0000 0.0000
# 2 17.2893 63.9372 7.9643 0.0000 0.0000 0.0000
# 3 28.5677 7.9643 62.5116 0.0000 0.0000 0.0000
# 4 0.0000 0.0000 0.0000 99.0325 0.0000 0.0000
# 5 0.0000 0.0000 0.0000 0.0000 33.5652 0.0000
# 6 0.0000 0.0000 0.0000 0.0000 0.0000 25.6697
#
#
#
# Elastic Compliance Matrix: (Units=1/GPa)
#
#
# Indices 1 2 3 4 5 6 
#
# 1 0.010295 -0.002233 -0.004420 0.000000 0.000000 0.000000
# 2 -0.002233 0.016377 -0.001066 0.000000 0.000000 0.000000
# 3 -0.004420 -0.001066 0.018153 0.000000 0.000000 0.000000
# 4 0.000000 0.000000 0.000000 0.010098 0.000000 0.000000
# 5 0.000000 0.000000 0.000000 0.000000 0.029793 0.000000
# 6 0.000000 0.000000 0.000000 0.000000 0.000000 0.038956
#
#
# Mechanical properties :
#
#
# Convention : Reuss Voigt Hill
#
# Bulk Modulus (GPa) = 34.02979 38.58242 36.30611
# Shear Modulus (GPa) = 33.57821 44.03869 38.80845
#
# Velocity S-wave (km/s) = 4.19622 4.80559 4.51121
# Velocity P-wave (km/s) = 6.42828 7.14312 6.79511
#
# Compressibility (1/GPa) = 0.02938601
#
# Stress axis : x y z
#
# Youngs Moduli (GPa) = 97.13406 61.06117 55.08759
#
# Poissons Ratio (x) = 0.13637 0.24350
# Poissons Ratio (y) = 0.21693 0.05872
# Poissons Ratio (z) = 0.42936 0.06509
#
# Static dielectric constant tensor:
#      x y z
#    x 1.639030 0.000000 0.000000 
#    y 0.000000 1.728990 0.000000 
#    z 0.000000 0.000000 1.741640 
# 
# From -- ./inp_files/15375.got.cif
#   From: 2010.05.17/outbox.cif.g08.bks.cpg/sg60_8_cif.got.tgz:15375.got - 2010.06.03 14:59:27.
