data_PCOD9455175
_publ_section_title
;
Structure prediction by ZEFSAII (Michael W. Deem and Ramdas Pophale) SiO2 
 PCOD9455175
Probable space group: P B C N
;
_chemical_formula_sum "Si O2"
_cell_formula_units_Z 44
_cell_length_a 11.114785
_cell_length_b 24.084528
_cell_length_c 7.338902
_cell_angle_alpha 90.000000
_cell_angle_beta 90.000000
_cell_angle_gamma 90.000000
_cell_volume 1964.582605
_symmetry_space_group_name_H-M "P B C N"
_symmetry_group_IT_number 60
_symmetry_cell_setting 'orthorhombic'
loop_
_space_group_symop_operation_xyz
x,y,z
1/2-x,1/2-y,1/2+z
1/2+x,1/2-y,-z
-x,y,1/2-z
-x,-y,-z
1/2+x,1/2+y,1/2-z
1/2-x,1/2+y,z
x,-y,1/2+z
loop_
_atom_site_type_symbol
_atom_site_label
_atom_site_fract_x
_atom_site_fract_y
_atom_site_fract_z
Si Si1 0.500000 0.110494 0.750000
Si Si2 0.195959 0.679796 0.954471
Si Si3 0.790520 0.925916 0.925285
Si Si4 0.718144 0.959259 0.333747
Si Si5 0.617172 0.707993 0.862597
Si Si6 0.546481 0.409123 0.460103
O O1 0.575648 0.150436 0.618387
O O2 0.408704 0.070963 0.636670
O O3 0.252206 0.637634 0.103434
O O4 0.287404 0.684997 0.784500
O O5 0.171140 0.740529 0.030488
O O6 0.755244 0.937217 0.135407
O O7 0.935003 0.930157 0.920123
O O8 0.718600 0.974366 0.825909
O O9 0.827955 0.941789 0.466700
O O10 0.500000 0.726689 0.750000
O O11 0.575730 0.655870 0.985584
O O12 0.500000 0.413197 0.250000
#
# Coordination Sequence:
#
# PCOD9455175 Si02
#       6
#     4   8   8   8   8   8
#     4  10  22  40  60  88 128 164 202 256 328 376
#     4  11  24  40  65  92 124 169 209 259 318 378
#     4  10  20  40  60  87 121 160 205 255 310 370
#     4  10  20  36  62  86 120 162 200 255 310 372
#     4  11  22  43  67  87 129 166 210 266 311 372
#     4   9  16  37  63  82 115 160 199 247 311 354
#
# _framework density 22.396615000000001
#
# number of rings (size 3 to 8) (size 9 to 14) (size 15 to 20)
#    0.000    1.818    7.273    0.545    2.545    2.909 
#    8.182    0.000    0.000    0.000    0.000    0.000 
#    0.000    0.000    0.000    0.000    0.000    0.000 
#
# Total GULP energy -245773.864114 kJ/mol
# GULP energy per Si atom -5585.769639 kJ/mol
# Density = 2.234564 g / cm^3
# Si number density = 22.396615 Si / 1000 Ang^3
#
#
#
# Elastic Constant Matrix: (Units=GPa)
#
#
# Indices 1 2 3 4 5 6 
#
# 1 123.0847 36.2780 12.7878 0.0000 0.0000 0.0000
# 2 36.2780 124.1367 9.4879 0.0000 0.0000 0.0000
# 3 12.7878 9.4879 13.7742 0.0000 0.0000 0.0000
# 4 0.0000 0.0000 0.0000 33.7238 0.0000 0.0000
# 5 0.0000 0.0000 0.0000 0.0000 19.6778 0.0000
# 6 0.0000 0.0000 0.0000 0.0000 0.0000 34.6335
#
#
#
# Elastic Compliance Matrix: (Units=1/GPa)
#
#
# Indices 1 2 3 4 5 6 
#
# 1 0.009542 -0.002229 -0.007324 0.000000 0.000000 0.000000
# 2 -0.002229 0.009024 -0.004146 0.000000 0.000000 0.000000
# 3 -0.007324 -0.004146 0.082255 0.000000 0.000000 0.000000
# 4 0.000000 0.000000 0.000000 0.029653 0.000000 0.000000
# 5 0.000000 0.000000 0.000000 0.000000 0.050819 0.000000
# 6 0.000000 0.000000 0.000000 0.000000 0.000000 0.028874
#
#
# Mechanical properties :
#
#
# Convention : Reuss Voigt Hill
#
# Bulk Modulus (GPa) = 13.61973 42.01145 27.81559
# Shear Modulus (GPa) = 19.08115 31.10314 25.09215
#
# Velocity S-wave (km/s) = 2.92201 3.73063 3.35080
# Velocity P-wave (km/s) = 4.18074 6.11191 5.23612
#
# Compressibility (1/GPa) = 0.07342289
#
# Stress axis : x y z
#
# Youngs Moduli (GPa) = 104.79622 110.81633 12.15734
#
# Poissons Ratio (x) = 0.24700 0.08904
# Poissons Ratio (y) = 0.23358 0.05041
# Poissons Ratio (z) = 0.76750 0.45950
#
# Static dielectric constant tensor:
#      x y z
#    x 1.854100 0.000000 0.000000 
#    y 0.000000 1.852270 0.000000 
#    z 0.000000 0.000000 1.825390 
# 
# From -- ./inp_files/4990.got.cif
#   From: 2010.05.17/outbox.cif.g08.bks.cpg/sg60_3_cif.got.tgz:4990.got - 2010.06.03 14:59:27.
