data_PCOD9455211
_publ_section_title
;
Structure prediction by ZEFSAII (Michael W. Deem and Ramdas Pophale) SiO2 
 PCOD9455211
Probable space group: P B C N
;
_chemical_formula_sum "Si O2"
_cell_formula_units_Z 44
_cell_length_a 5.693893
_cell_length_b 14.033850
_cell_length_c 22.493120
_cell_angle_alpha 90.000000
_cell_angle_beta 90.000000
_cell_angle_gamma 90.000000
_cell_volume 1797.363144
_symmetry_space_group_name_H-M "P B C N"
_symmetry_group_IT_number 60
_symmetry_cell_setting 'orthorhombic'
loop_
_space_group_symop_operation_xyz
x,y,z
1/2-x,1/2-y,1/2+z
1/2+x,1/2-y,-z
-x,y,1/2-z
-x,-y,-z
1/2+x,1/2+y,1/2-z
1/2-x,1/2+y,z
x,-y,1/2+z
loop_
_atom_site_type_symbol
_atom_site_label
_atom_site_fract_x
_atom_site_fract_y
_atom_site_fract_z
Si Si1 0.248154 0.933875 0.861823
Si Si2 0.281942 0.641179 0.017627
Si Si3 0.609627 0.086801 0.825829
Si Si4 0.926456 0.741840 0.597632
Si Si5 0.500000 0.510048 0.750000
Si Si6 0.890604 0.048442 0.936478
O O1 0.254035 0.826725 0.885712
O O2 0.478440 0.987058 0.838481
O O3 0.127933 0.997685 0.912983
O O4 0.068763 0.945142 0.806100
O O5 0.336984 0.703811 0.075534
O O6 0.220178 0.535455 0.040785
O O7 0.138834 0.683031 0.962347
O O8 0.536611 0.620931 0.987065
O O9 0.444683 0.175100 0.844024
O O10 0.771509 0.073666 0.767843
O O11 0.791841 0.098953 0.879640
#
# Coordination Sequence:
#
# PCOD9455211 Si02
#       6
#     8   8   8   8   4   8
#     4  10  22  44  65  95 132 173 230 289 335 408
#     4  10  20  37  57 101 143 178 219 269 325 404
#     4  11  22  43  71  95 130 182 227 282 346 407
#     4  11  23  37  67 103 139 175 235 271 337 416
#     4  10  24  48  70  86 132 176 228 298 356 390
#     4   9  20  38  62  91 140 183 219 265 330 406
#
# _framework density 24.480305999999999
#
# number of rings (size 3 to 8) (size 9 to 14) (size 15 to 20)
#    0.000    1.818    1.818    1.636    2.545    0.727 
#    6.545    0.000    0.000    0.000    0.000    0.000 
#    0.000    0.000    0.000    0.000    0.000    0.000 
#
# Total GULP energy -245456.100807 kJ/mol
# GULP energy per Si atom -5578.547746 kJ/mol
# Density = 2.442459 g / cm^3
# Si number density = 24.480306 Si / 1000 Ang^3
#
#
#
# Elastic Constant Matrix: (Units=GPa)
#
#
# Indices 1 2 3 4 5 6 
#
# 1 60.3209 20.1654 5.4912 0.0000 0.0000 0.0000
# 2 20.1654 87.9939 13.3015 0.0000 0.0000 0.0000
# 3 5.4912 13.3015 105.9838 0.0000 0.0000 0.0000
# 4 0.0000 0.0000 0.0000 33.4533 0.0000 0.0000
# 5 0.0000 0.0000 0.0000 0.0000 47.3847 0.0000
# 6 0.0000 0.0000 0.0000 0.0000 0.0000 20.4899
#
#
#
# Elastic Compliance Matrix: (Units=1/GPa)
#
#
# Indices 1 2 3 4 5 6 
#
# 1 0.017972 -0.004055 -0.000422 0.000000 0.000000 0.000000
# 2 -0.004055 0.012499 -0.001359 0.000000 0.000000 0.000000
# 3 -0.000422 -0.001359 0.009628 0.000000 0.000000 0.000000
# 4 0.000000 0.000000 0.000000 0.029892 0.000000 0.000000
# 5 0.000000 0.000000 0.000000 0.000000 0.021104 0.000000
# 6 0.000000 0.000000 0.000000 0.000000 0.000000 0.048805
#
#
# Mechanical properties :
#
#
# Convention : Reuss Voigt Hill
#
# Bulk Modulus (GPa) = 35.17720 36.91275 36.04498
# Shear Modulus (GPa) = 31.04689 34.62161 32.83425
#
# Velocity S-wave (km/s) = 3.56510 3.76475 3.66628
# Velocity P-wave (km/s) = 5.59887 5.83173 5.71649
#
# Compressibility (1/GPa) = 0.02842750
#
# Stress axis : x y z
#
# Youngs Moduli (GPa) = 55.64226 80.00630 103.86592
#
# Poissons Ratio (x) = 0.32441 0.04386
# Poissons Ratio (y) = 0.22562 0.14111
# Poissons Ratio (z) = 0.02350 0.10870
#
# Static dielectric constant tensor:
#      x y z
#    x 2.049140 0.000000 0.000000 
#    y 0.000000 2.028160 0.000000 
#    z 0.000000 0.000000 1.972950 
# 
# From -- ./inp_files/24820.got.cif
#   From: 2010.05.17/outbox.cif.g08.bks.cpg/sg60_13_cif.got.tgz:24820.got - 2010.06.03 14:59:27.
