data_PCOD9455260
_publ_section_title
;
Structure prediction by ZEFSAII (Michael W. Deem and Ramdas Pophale) SiO2 
 PCOD9455260
Probable space group: P B C N
;
_chemical_formula_sum "Si O2"
_cell_formula_units_Z 48
_cell_length_a 12.166320
_cell_length_b 8.692129
_cell_length_c 22.787697
_cell_angle_alpha 90.000000
_cell_angle_beta 90.000000
_cell_angle_gamma 90.000000
_cell_volume 2409.826825
_symmetry_space_group_name_H-M "P B C N"
_symmetry_group_IT_number 60
_symmetry_cell_setting 'orthorhombic'
loop_
_space_group_symop_operation_xyz
x,y,z
1/2-x,1/2-y,1/2+z
1/2+x,1/2-y,-z
-x,y,1/2-z
-x,-y,-z
1/2+x,1/2+y,1/2-z
1/2-x,1/2+y,z
x,-y,1/2+z
loop_
_atom_site_type_symbol
_atom_site_label
_atom_site_fract_x
_atom_site_fract_y
_atom_site_fract_z
Si Si1 0.104845 0.055378 0.284235
Si Si2 0.374169 0.946790 0.006884
Si Si3 0.029390 0.066150 0.906367
Si Si4 0.843185 0.104950 0.470261
Si Si5 0.696232 0.861218 0.195379
Si Si6 0.637027 0.145749 0.123627
O O1 0.127217 0.233776 0.271074
O O2 0.000000 0.996622 0.250000
O O3 0.080002 0.034238 0.353668
O O4 0.211767 0.955330 0.269301
O O5 0.333365 0.908215 0.941207
O O6 0.367555 0.784524 0.040574
O O7 0.500000 0.000000 0.000000
O O8 0.285946 0.067600 0.031140
O O9 0.032606 0.241755 0.882969
O O10 0.105906 0.068275 0.964769
O O11 0.912788 0.000486 0.926099
O O12 0.768634 0.756425 0.150294
O O13 0.627577 0.993342 0.162617
#
# Coordination Sequence:
#
# PCOD9455260 Si02
#       6
#     8   8   8   8   8   8
#     4  10  20  37  61  85 111 146 194 238 295 339
#     4  11  23  33  56  83 118 159 196 235 286 348
#     4   9  20  37  59  84 116 156 188 247 291 338
#     4  10  22  37  56  84 125 152 199 238 288 347
#     4   9  18  35  61  83 107 143 196 243 271 347
#     4   9  17  33  56  81 108 145 197 232 281 329
#
# _framework density 19.918444000000001
#
# number of rings (size 3 to 8) (size 9 to 14) (size 15 to 20)
#    0.000    2.333    0.000    4.000    9.333    0.000 
#    0.000    9.167    0.000    0.000    0.000    0.000 
#    0.000    0.000    0.000    0.000    0.000    0.000 
#
# Total GULP energy -267524.943048 kJ/mol
# GULP energy per Si atom -5573.436314 kJ/mol
# Density = 1.987311 g / cm^3
# Si number density = 19.918444 Si / 1000 Ang^3
#
#
#
# Elastic Constant Matrix: (Units=GPa)
#
#
# Indices 1 2 3 4 5 6 
#
# 1 96.1119 43.1089 -1.6726 0.0000 0.0000 0.0000
# 2 43.1089 120.4220 2.1739 0.0000 0.0000 0.0000
# 3 -1.6726 2.1739 6.1705 0.0000 0.0000 0.0000
# 4 0.0000 0.0000 0.0000 4.6725 0.0000 0.0000
# 5 0.0000 0.0000 0.0000 0.0000 18.5641 0.0000
# 6 0.0000 0.0000 0.0000 0.0000 0.0000 17.5517
#
#
#
# Elastic Compliance Matrix: (Units=1/GPa)
#
#
# Indices 1 2 3 4 5 6 
#
# 1 0.012547 -0.004582 0.005015 0.000000 0.000000 0.000000
# 2 -0.004582 0.010031 -0.004776 0.000000 0.000000 0.000000
# 3 0.005015 -0.004776 0.165103 0.000000 0.000000 0.000000
# 4 0.000000 0.000000 0.000000 0.214016 0.000000 0.000000
# 5 0.000000 0.000000 0.000000 0.000000 0.053867 0.000000
# 6 0.000000 0.000000 0.000000 0.000000 0.000000 0.056975
#
#
# Mechanical properties :
#
#
# Convention : Reuss Voigt Hill
#
# Bulk Modulus (GPa) = 5.58674 34.43609 20.01141
# Shear Modulus (GPa) = 8.60749 20.09728 14.35238
#
# Velocity S-wave (km/s) = 2.08104 3.17989 2.68723
# Velocity P-wave (km/s) = 2.93005 5.55053 4.43810
#
# Compressibility (1/GPa) = 0.17899539
#
# Stress axis : x y z
#
# Youngs Moduli (GPa) = 79.70004 99.69425 6.05682
#
# Poissons Ratio (x) = 0.45681 -0.03038
# Poissons Ratio (y) = 0.36520 0.02893
# Poissons Ratio (z) = -0.39972 0.47613
#
# Static dielectric constant tensor:
#      x y z
#    x 1.726200 0.000000 0.000000 
#    y 0.000000 1.750300 0.000000 
#    z 0.000000 0.000000 1.729280 
# 
# From -- ./inp_files/24248.got.cif
#   From: 2010.05.17/outbox.cif.g08.bks.cpg/sg60_13_cif.got.tgz:24248.got - 2010.06.03 14:59:27.
