data_PCOD9455541
_publ_section_title
;
Structure prediction by ZEFSAII (Michael W. Deem and Ramdas Pophale) SiO2 
 PCOD9455541
Probable space group: P B C N
;
_chemical_formula_sum "Si O2"
_cell_formula_units_Z 32
_cell_length_a 7.580447
_cell_length_b 32.794062
_cell_length_c 5.528438
_cell_angle_alpha 90.000000
_cell_angle_beta 90.000000
_cell_angle_gamma 90.000000
_cell_volume 1374.334575
_symmetry_space_group_name_H-M "P B C N"
_symmetry_group_IT_number 60
_symmetry_cell_setting 'orthorhombic'
loop_
_space_group_symop_operation_xyz
x,y,z
1/2-x,1/2-y,1/2+z
1/2+x,1/2-y,-z
-x,y,1/2-z
-x,-y,-z
1/2+x,1/2+y,1/2-z
1/2-x,1/2+y,z
x,-y,1/2+z
loop_
_atom_site_type_symbol
_atom_site_label
_atom_site_fract_x
_atom_site_fract_y
_atom_site_fract_z
Si Si1 0.822785 0.387992 0.088701
Si Si2 0.000000 0.330910 0.750000
Si Si3 0.203853 0.483505 0.495964
Si Si4 0.000000 0.834511 0.250000
Si Si5 0.257205 0.724930 0.501822
O O1 0.792042 0.434923 0.025212
O O2 0.662436 0.364734 0.210499
O O3 0.000000 0.386570 0.250000
O O4 0.853943 0.360916 0.852254
O O5 0.914632 0.302886 0.545554
O O6 0.282550 0.497982 0.750267
O O7 0.000000 0.500000 0.500000
O O8 0.928601 0.803626 0.456744
O O9 0.233490 0.749033 0.754419
#
# Coordination Sequence:
#
# PCOD9455541 Si02
#       5
#     8   4   8   4   8
#     4  12  25  47  75 110 153 199 250 316 377 449
#     4  12  27  46  76 104 148 200 248 310 390 452
#     4  10  20  39  72 104 144 201 247 291 370 451
#     4  12  29  50  78 116 150 196 262 318 382 456
#     4  12  29  51  77 110 151 200 255 318 389 460
#
# _framework density 23.283995000000001
#
# number of rings (size 3 to 8) (size 9 to 14) (size 15 to 20)
#    0.000    0.500    5.000    3.750    0.000   10.000 
#    0.000    1.250    0.000    0.000    0.000    0.000 
#    0.000    0.000    0.000    0.000    0.000    0.000 
#
# Total GULP energy -179049.301036 kJ/mol
# GULP energy per Si atom -5595.290657 kJ/mol
# Density = 2.323100 g / cm^3
# Si number density = 23.283995 Si / 1000 Ang^3
#
#
#
# Elastic Constant Matrix: (Units=GPa)
#
#
# Indices 1 2 3 4 5 6 
#
# 1 99.0054 61.1464 46.1608 0.0000 0.0000 0.0000
# 2 61.1464 222.1704 109.8137 0.0000 0.0000 0.0000
# 3 46.1608 109.8137 191.4507 0.0000 0.0000 0.0000
# 4 0.0000 0.0000 0.0000 48.6101 0.0000 0.0000
# 5 0.0000 0.0000 0.0000 0.0000 26.9556 0.0000
# 6 0.0000 0.0000 0.0000 0.0000 0.0000 18.6712
#
#
#
# Elastic Compliance Matrix: (Units=1/GPa)
#
#
# Indices 1 2 3 4 5 6 
#
# 1 0.012449 -0.002711 -0.001446 0.000000 0.000000 0.000000
# 2 -0.002711 0.006873 -0.003288 0.000000 0.000000 0.000000
# 3 -0.001446 -0.003288 0.007458 0.000000 0.000000 0.000000
# 4 0.000000 0.000000 0.000000 0.020572 0.000000 0.000000
# 5 0.000000 0.000000 0.000000 0.000000 0.037098 0.000000
# 6 0.000000 0.000000 0.000000 0.000000 0.000000 0.053558
#
#
# Mechanical properties :
#
#
# Convention : Reuss Voigt Hill
#
# Bulk Modulus (GPa) = 84.11927 105.20758 94.66343
# Shear Modulus (GPa) = 31.87485 38.54777 35.21131
#
# Velocity S-wave (km/s) = 3.70396 4.07326 3.89299
# Velocity P-wave (km/s) = 7.38230 8.21002 7.80714
#
# Compressibility (1/GPa) = 0.01188788
#
# Stress axis : x y z
#
# Youngs Moduli (GPa) = 80.32476 145.50477 134.08143
#
# Poissons Ratio (x) = 0.39453 0.19394
# Poissons Ratio (y) = 0.21779 0.44090
# Poissons Ratio (z) = 0.11619 0.47846
#
# Static dielectric constant tensor:
#      x y z
#    x 1.856680 0.000000 0.000000 
#    y 0.000000 1.827820 0.000000 
#    z 0.000000 0.000000 1.904370 
# 
# From -- ./inp_files/441.got.cif
#   From: 2010.05.17/outbox.cif.g08.bks.cpg/sg60_1_cif.got.tgz:441.got - 2010.06.03 14:59:27.
