data_PCOD9455941
_publ_section_title
;
Structure prediction by ZEFSAII (Michael W. Deem and Ramdas Pophale) SiO2 
 PCOD9455941
Probable space group: P B C N
;
_chemical_formula_sum "Si O2"
_cell_formula_units_Z 36
_cell_length_a 12.631013
_cell_length_b 10.591348
_cell_length_c 12.680116
_cell_angle_alpha 90.000000
_cell_angle_beta 90.000000
_cell_angle_gamma 90.000000
_cell_volume 1696.338999
_symmetry_space_group_name_H-M "P B C N"
_symmetry_group_IT_number 60
_symmetry_cell_setting 'orthorhombic'
loop_
_space_group_symop_operation_xyz
x,y,z
1/2-x,1/2-y,1/2+z
1/2+x,1/2-y,-z
-x,y,1/2-z
-x,-y,-z
1/2+x,1/2+y,1/2-z
1/2-x,1/2+y,z
x,-y,1/2+z
loop_
_atom_site_type_symbol
_atom_site_label
_atom_site_fract_x
_atom_site_fract_y
_atom_site_fract_z
Si Si1 0.200007 0.634601 0.795664
Si Si2 0.000000 0.252192 0.250000
Si Si3 0.429314 0.123676 0.013401
Si Si4 0.035973 0.871298 0.553628
Si Si5 0.253429 0.882314 0.687223
O O1 0.095294 0.656025 0.722757
O O2 0.152583 0.627697 0.913318
O O3 0.260634 0.762285 0.765485
O O4 0.255748 0.508984 0.756198
O O5 0.033643 0.159652 0.342601
O O6 0.505629 0.247414 0.013995
O O7 0.358132 0.117790 0.116759
O O8 0.500000 0.000000 0.000000
O O9 0.153850 0.876273 0.604475
O O10 0.000000 0.000000 0.500000
#
# Coordination Sequence:
#
# PCOD9455941 Si02
#       5
#     8   4   8   8   8
#     4  10  22  39  61  89 121 162 211 261 316 380
#     4   8  18  38  56  78 118 158 196 252 312 374
#     4  11  24  43  65  91 129 173 214 262 327 397
#     4  10  21  37  60  90 123 159 207 265 317 370
#     4  11  22  39  63  92 127 169 217 267 322 386
#
# _framework density 21.222172
#
# number of rings (size 3 to 8) (size 9 to 14) (size 15 to 20)
#    0.000    1.778    0.000    5.333    0.000    8.889 
#    0.000    2.222    0.000    1.333    0.000    0.000 
#    0.000    0.000    0.000    0.000    0.000    0.000 
#
# Total GULP energy -200513.416434 kJ/mol
# GULP energy per Si atom -5569.817123 kJ/mol
# Density = 2.117387 g / cm^3
# Si number density = 21.222172 Si / 1000 Ang^3
#
#
#
# Elastic Constant Matrix: (Units=GPa)
#
#
# Indices 1 2 3 4 5 6 
#
# 1 57.8415 34.1988 8.4068 0.0000 0.0000 0.0000
# 2 34.1988 183.9781 37.8049 0.0000 0.0000 0.0000
# 3 8.4068 37.8049 61.5287 0.0000 0.0000 0.0000
# 4 0.0000 0.0000 0.0000 27.2854 0.0000 0.0000
# 5 0.0000 0.0000 0.0000 0.0000 34.7078 0.0000
# 6 0.0000 0.0000 0.0000 0.0000 0.0000 39.4998
#
#
#
# Elastic Compliance Matrix: (Units=1/GPa)
#
#
# Indices 1 2 3 4 5 6 
#
# 1 0.019437 -0.003511 -0.000499 0.000000 0.000000 0.000000
# 2 -0.003511 0.006855 -0.003732 0.000000 0.000000 0.000000
# 3 -0.000499 -0.003732 0.018614 0.000000 0.000000 0.000000
# 4 0.000000 0.000000 0.000000 0.036650 0.000000 0.000000
# 5 0.000000 0.000000 0.000000 0.000000 0.028812 0.000000
# 6 0.000000 0.000000 0.000000 0.000000 0.000000 0.025317
#
#
# Mechanical properties :
#
#
# Convention : Reuss Voigt Hill
#
# Bulk Modulus (GPa) = 33.98744 51.57437 42.78090
# Shear Modulus (GPa) = 31.06091 35.16113 33.11102
#
# Velocity S-wave (km/s) = 3.82986 4.07481 3.95423
# Velocity P-wave (km/s) = 5.96716 6.81862 6.40705
#
# Compressibility (1/GPa) = 0.02942263
#
# Stress axis : x y z
#
# Youngs Moduli (GPa) = 51.44906 145.88111 53.72339
#
# Poissons Ratio (x) = 0.51212 0.02679
# Poissons Ratio (y) = 0.18061 0.20051
# Poissons Ratio (z) = 0.02566 0.54446
#
# Static dielectric constant tensor:
#      x y z
#    x 1.851850 0.000000 0.000000 
#    y 0.000000 1.827920 0.000000 
#    z 0.000000 0.000000 1.846340 
# 
# From -- ./inp_files/16553.got.cif
#   From: 2010.05.17/outbox.cif.g08.bks.cpg/sg60_9_cif.got.tgz:16553.got - 2010.06.03 14:59:27.
