data_PCOD9455362
_publ_section_title
;
Structure prediction by ZEFSAII (Michael W. Deem and Ramdas Pophale) SiO2 
 PCOD9455362
Probable space group: P B C N
;
_chemical_formula_sum "Si O2"
_cell_formula_units_Z 40
_cell_length_a 13.583653
_cell_length_b 10.746802
_cell_length_c 13.201462
_cell_angle_alpha 90.000000
_cell_angle_beta 90.000000
_cell_angle_gamma 90.000000
_cell_volume 1927.160370
_symmetry_space_group_name_H-M "P B C N"
_symmetry_group_IT_number 60
_symmetry_cell_setting 'orthorhombic'
loop_
_space_group_symop_operation_xyz
x,y,z
1/2-x,1/2-y,1/2+z
1/2+x,1/2-y,-z
-x,y,1/2-z
-x,-y,-z
1/2+x,1/2+y,1/2-z
1/2-x,1/2+y,z
x,-y,1/2+z
loop_
_atom_site_type_symbol
_atom_site_label
_atom_site_fract_x
_atom_site_fract_y
_atom_site_fract_z
Si Si1 0.780902 0.152575 0.772149
Si Si2 0.008851 0.610932 0.078171
Si Si3 0.442402 0.495890 0.840115
Si Si4 0.841306 0.412736 0.733491
Si Si5 0.106559 0.136515 0.529925
O O1 0.765691 0.297937 0.749127
O O2 0.801474 0.143013 0.893109
O O3 0.880097 0.105211 0.713919
O O4 0.703572 0.050380 0.735280
O O5 0.904217 0.619509 0.134368
O O6 0.086155 0.591526 0.169639
O O7 0.050554 0.732399 0.022420
O O8 0.000000 0.500000 0.000000
O O9 0.500000 0.424859 0.750000
O O10 0.528860 0.552175 0.908633
O O11 0.376367 0.419291 0.919029
#
# Coordination Sequence:
#
# PCOD9455362 Si02
#       5
#     8   8   8   8   8
#     4  10  20  38  61  86 121 155 196 252 296 351
#     4  10  21  41  61  81 119 163 195 243 304 363
#     4   9  17  34  60  87 114 153 196 241 290 349
#     4  10  22  41  61  86 119 158 200 245 304 356
#     4   9  18  36  60  86 114 157 199 237 293 358
#
# _framework density 20.755927
#
# number of rings (size 3 to 8) (size 9 to 14) (size 15 to 20)
#    0.000    2.400    2.000    0.000    0.000    3.200 
#   14.400    4.000    0.000    0.000    0.000    0.000 
#    0.000    0.000    0.000    0.000    0.000    0.000 
#
# Total GULP energy -222914.559920 kJ/mol
# GULP energy per Si atom -5572.863998 kJ/mol
# Density = 2.070869 g / cm^3
# Si number density = 20.755927 Si / 1000 Ang^3
#
#
#
# Elastic Constant Matrix: (Units=GPa)
#
#
# Indices 1 2 3 4 5 6 
#
# 1 18.7261 10.6240 -12.9769 0.0000 0.0000 0.0000
# 2 10.6240 102.1841 42.7286 0.0000 0.0000 0.0000
# 3 -12.9769 42.7286 97.9327 0.0000 0.0000 0.0000
# 4 0.0000 0.0000 0.0000 26.1422 0.0000 0.0000
# 5 0.0000 0.0000 0.0000 0.0000 9.9306 0.0000
# 6 0.0000 0.0000 0.0000 0.0000 0.0000 28.0600
#
#
#
# Elastic Compliance Matrix: (Units=1/GPa)
#
#
# Indices 1 2 3 4 5 6 
#
# 1 0.072298 -0.014094 0.015729 0.000000 0.000000 0.000000
# 2 -0.014094 0.014718 -0.008289 0.000000 0.000000 0.000000
# 3 0.015729 -0.008289 0.015912 0.000000 0.000000 0.000000
# 4 0.000000 0.000000 0.000000 0.038252 0.000000 0.000000
# 5 0.000000 0.000000 0.000000 0.000000 0.100699 0.000000
# 6 0.000000 0.000000 0.000000 0.000000 0.000000 0.035638
#
#
# Mechanical properties :
#
#
# Convention : Reuss Voigt Hill
#
# Bulk Modulus (GPa) = 11.15825 33.28825 22.22325
# Shear Modulus (GPa) = 15.59104 24.72438 20.15771
#
# Velocity S-wave (km/s) = 2.74371 3.45512 3.11975
# Velocity P-wave (km/s) = 3.92745 5.65596 4.86902
#
# Compressibility (1/GPa) = 0.08961979
#
# Stress axis : x y z
#
# Youngs Moduli (GPa) = 13.83173 67.94560 62.84614
#
# Poissons Ratio (x) = 0.95762 -0.98853
# Poissons Ratio (y) = 0.19494 0.52093
# Poissons Ratio (z) = -0.21756 0.56320
#
# Static dielectric constant tensor:
#      x y z
#    x 1.795060 0.000000 0.000000 
#    y 0.000000 1.745660 0.000000 
#    z 0.000000 0.000000 1.756310 
# 
# From -- ./inp_files/11690.got.cif
#   From: 2010.05.17/outbox.cif.g08.bks.cpg/sg60_6_cif.got.tgz:11690.got - 2010.06.03 14:59:27.
