data_PCOD9455724
_publ_section_title
;
Structure prediction by ZEFSAII (Michael W. Deem and Ramdas Pophale) SiO2 
 PCOD9455724
Probable space group: P B C N
;
_chemical_formula_sum "Si O2"
_cell_formula_units_Z 36
_cell_length_a 5.684248
_cell_length_b 22.725873
_cell_length_c 11.550894
_cell_angle_alpha 90.000000
_cell_angle_beta 90.000000
_cell_angle_gamma 90.000000
_cell_volume 1492.138690
_symmetry_space_group_name_H-M "P B C N"
_symmetry_group_IT_number 60
_symmetry_cell_setting 'orthorhombic'
loop_
_space_group_symop_operation_xyz
x,y,z
1/2-x,1/2-y,1/2+z
1/2+x,1/2-y,-z
-x,y,1/2-z
-x,-y,-z
1/2+x,1/2+y,1/2-z
1/2-x,1/2+y,z
x,-y,1/2+z
loop_
_atom_site_type_symbol
_atom_site_label
_atom_site_fract_x
_atom_site_fract_y
_atom_site_fract_z
Si Si1 0.230577 0.256616 0.066113
Si Si2 0.813377 0.956290 0.554269
Si Si3 0.000000 0.454985 0.750000
Si Si4 0.025310 0.618750 0.616605
Si Si5 0.695175 0.632260 0.405278
O O1 0.181493 0.321321 0.114430
O O2 0.217941 0.197860 0.144190
O O3 0.494575 0.254466 0.013011
O O4 0.686452 0.984773 0.664711
O O5 0.647840 0.934310 0.451818
O O6 0.939112 0.896321 0.597178
O O7 0.000000 0.000000 0.500000
O O8 0.857198 0.412781 0.836220
O O9 0.000000 0.604493 0.750000
O O10 0.794985 0.632619 0.537727
#
# Coordination Sequence:
#
# PCOD9455724 Si02
#       5
#     8   8   4   8   8
#     4  10  20  42  72 101 152 192 242 302 370 448
#     4  11  24  48  71 100 143 188 246 304 371 445
#     4  10  24  44  74 104 130 190 248 300 366 446
#     4  10  23  43  68 108 145 189 238 304 373 442
#     4  10  22  45  68 104 140 186 243 295 366 446
#
# _framework density 24.126442999999998
#
# number of rings (size 3 to 8) (size 9 to 14) (size 15 to 20)
#    0.000    1.778    2.222    0.667    0.000    6.222 
#   20.000    0.000    0.000    0.000    0.000    0.000 
#    0.000    0.000    0.000    0.000    0.000    0.000 
#
# Total GULP energy -201192.090635 kJ/mol
# GULP energy per Si atom -5588.669184 kJ/mol
# Density = 2.407153 g / cm^3
# Si number density = 24.126443 Si / 1000 Ang^3
#
#
#
# Elastic Constant Matrix: (Units=GPa)
#
#
# Indices 1 2 3 4 5 6 
#
# 1 103.6970 24.0731 53.0325 0.0000 0.0000 0.0000
# 2 24.0731 103.4108 29.5957 0.0000 0.0000 0.0000
# 3 53.0325 29.5957 152.8013 0.0000 0.0000 0.0000
# 4 0.0000 0.0000 0.0000 19.0986 0.0000 0.0000
# 5 0.0000 0.0000 0.0000 0.0000 30.0661 0.0000
# 6 0.0000 0.0000 0.0000 0.0000 0.0000 40.1772
#
#
#
# Elastic Compliance Matrix: (Units=1/GPa)
#
#
# Indices 1 2 3 4 5 6 
#
# 1 0.011999 -0.001695 -0.003836 0.000000 0.000000 0.000000
# 2 -0.001695 0.010477 -0.001441 0.000000 0.000000 0.000000
# 3 -0.003836 -0.001441 0.008155 0.000000 0.000000 0.000000
# 4 0.000000 0.000000 0.000000 0.052360 0.000000 0.000000
# 5 0.000000 0.000000 0.000000 0.000000 0.033260 0.000000
# 6 0.000000 0.000000 0.000000 0.000000 0.000000 0.024890
#
#
# Mechanical properties :
#
#
# Convention : Reuss Voigt Hill
#
# Bulk Modulus (GPa) = 59.92921 63.70130 61.81525
# Shear Modulus (GPa) = 31.12408 34.74892 32.93650
#
# Velocity S-wave (km/s) = 3.59561 3.79922 3.69882
# Velocity P-wave (km/s) = 6.49087 6.76061 6.62712
#
# Compressibility (1/GPa) = 0.01668635
#
# Stress axis : x y z
#
# Youngs Moduli (GPa) = 83.34108 95.44525 122.62552
#
# Poissons Ratio (x) = 0.16181 0.47040
# Poissons Ratio (y) = 0.14129 0.17669
# Poissons Ratio (z) = 0.31970 0.13753
#
# Static dielectric constant tensor:
#      x y z
#    x 1.979820 0.000000 0.000000 
#    y 0.000000 1.997850 0.000000 
#    z 0.000000 0.000000 1.925720 
# 
# From -- ./inp_files/8952.got.cif
#   From: 2010.05.17/outbox.cif.g08.bks.cpg/sg60_5_cif.got.tgz:8952.got - 2010.06.03 14:59:27.
