data_PCOD9455721
_publ_section_title
;
Structure prediction by ZEFSAII (Michael W. Deem and Ramdas Pophale) SiO2 
 PCOD9455721
Probable space group: P B C N
;
_chemical_formula_sum "Si O2"
_cell_formula_units_Z 56
_cell_length_a 9.027074
_cell_length_b 18.968519
_cell_length_c 15.255131
_cell_angle_alpha 90.000000
_cell_angle_beta 90.000000
_cell_angle_gamma 90.000000
_cell_volume 2612.139509
_symmetry_space_group_name_H-M "P B C N"
_symmetry_group_IT_number 60
_symmetry_cell_setting 'orthorhombic'
loop_
_space_group_symop_operation_xyz
x,y,z
1/2-x,1/2-y,1/2+z
1/2+x,1/2-y,-z
-x,y,1/2-z
-x,-y,-z
1/2+x,1/2+y,1/2-z
1/2-x,1/2+y,z
x,-y,1/2+z
loop_
_atom_site_type_symbol
_atom_site_label
_atom_site_fract_x
_atom_site_fract_y
_atom_site_fract_z
Si Si1 0.500084 0.619682 0.351157
Si Si2 0.384474 0.520037 0.921639
Si Si3 0.120708 0.419338 0.177342
Si Si4 0.198251 0.443033 0.576619
Si Si5 0.484367 0.846197 0.000472
Si Si6 0.203559 0.762871 0.932457
Si Si7 0.855974 0.155933 0.699822
O O1 0.500000 0.639160 0.250000
O O2 0.402241 0.548103 0.360978
O O3 0.663973 0.603871 0.389051
O O4 0.420865 0.682018 0.402732
O O5 0.404797 0.591263 0.865254
O O6 0.500000 0.500000 0.000000
O O7 0.236072 0.532196 0.977264
O O8 0.192200 0.489055 0.137250
O O9 0.044840 0.378170 0.096792
O O10 0.244174 0.374417 0.227644
O O11 0.000000 0.438124 0.250000
O O12 0.041513 0.404186 0.568371
O O13 0.620743 0.791922 0.004969
O O14 0.335852 0.806878 0.974168
O O15 0.273918 0.716005 0.855137
O O16 0.000000 0.183187 0.750000
#
# Coordination Sequence:
#
# PCOD9455721 Si02
#       7
#     8   8   8   8   8   8   8
#     4  11  25  42  72 103 147 185 239 303 367 421
#     4  10  20  42  70 105 133 181 238 295 348 427
#     4  12  25  46  77 106 150 185 243 306 373 420
#     4  11  23  45  75 106 143 186 246 299 360 441
#     4  12  27  47  71 104 144 198 243 298 357 446
#     4  12  28  46  72 101 147 197 244 293 364 443
#     4  12  26  46  72 109 144 192 242 302 368 433
#
# _framework density 21.438365999999998
#
# number of rings (size 3 to 8) (size 9 to 14) (size 15 to 20)
#    0.000    0.571    2.857    5.143    6.000    3.429 
#    0.000    0.000    0.000    0.000    0.000    0.000 
#    0.000    0.000    0.000    0.000    0.000    0.000 
#
# Total GULP energy -313271.369773 kJ/mol
# GULP energy per Si atom -5594.131603 kJ/mol
# Density = 2.138957 g / cm^3
# Si number density = 21.438366 Si / 1000 Ang^3
#
#
#
# Elastic Constant Matrix: (Units=GPa)
#
#
# Indices 1 2 3 4 5 6 
#
# 1 78.4739 17.8101 24.6096 0.0000 0.0000 0.0000
# 2 17.8101 70.9971 17.4810 0.0000 0.0000 0.0000
# 3 24.6096 17.4810 69.3348 0.0000 0.0000 0.0000
# 4 0.0000 0.0000 0.0000 -28.3594 0.0000 0.0000
# 5 0.0000 0.0000 0.0000 0.0000 41.3478 0.0000
# 6 0.0000 0.0000 0.0000 0.0000 0.0000 44.5653
#
#
#
# Elastic Compliance Matrix: (Units=1/GPa)
#
#
# Indices 1 2 3 4 5 6 
#
# 1 0.014767 -0.002574 -0.004593 0.000000 0.000000 0.000000
# 2 -0.002574 0.015466 -0.002986 0.000000 0.000000 0.000000
# 3 -0.004593 -0.002986 0.016806 0.000000 0.000000 0.000000
# 4 0.000000 0.000000 0.000000 -0.035262 0.000000 0.000000
# 5 0.000000 0.000000 0.000000 0.000000 0.024185 0.000000
# 6 0.000000 0.000000 0.000000 0.000000 0.000000 0.022439
#
#
# Mechanical properties :
#
#
# Convention : Reuss Voigt Hill
#
# Bulk Modulus (GPa) = 37.40460 37.62302 37.51381
# Shear Modulus (GPa) = 57.06629 22.10440 39.58534
#
# Velocity S-wave (km/s) = 5.16493 3.21451 4.30172
# Velocity P-wave (km/s) = 7.28383 5.60044 6.49688
#
# Compressibility (1/GPa) = 0.02673468
#
# Stress axis : x y z
#
# Youngs Moduli (GPa) = 67.71641 64.65842 59.50367
#
# Poissons Ratio (x) = 0.16641 0.27328
# Poissons Ratio (y) = 0.17428 0.17767
# Poissons Ratio (z) = 0.31100 0.19306
#
# Static dielectric constant tensor:
#      x y z
#    x 1.813460 0.000000 0.000000 
#    y 0.000000 1.790910 0.000000 
#    z 0.000000 0.000000 1.760450 
# 
# From -- ./inp_files/15283.got.cif
#   From: 2010.05.17/outbox.cif.g08.bks.cpg/sg60_8_cif.got.tgz:15283.got - 2010.06.03 14:59:27.
