data_PCOD9455618
_publ_section_title
;
Structure prediction by ZEFSAII (Michael W. Deem and Ramdas Pophale) SiO2 
 PCOD9455618
Probable space group: P B C N
;
_chemical_formula_sum "Si O2"
_cell_formula_units_Z 32
_cell_length_a 7.447010
_cell_length_b 22.630445
_cell_length_c 7.935104
_cell_angle_alpha 90.000000
_cell_angle_beta 90.000000
_cell_angle_gamma 90.000000
_cell_volume 1337.296334
_symmetry_space_group_name_H-M "P B C N"
_symmetry_group_IT_number 60
_symmetry_cell_setting 'orthorhombic'
loop_
_space_group_symop_operation_xyz
x,y,z
1/2-x,1/2-y,1/2+z
1/2+x,1/2-y,-z
-x,y,1/2-z
-x,-y,-z
1/2+x,1/2+y,1/2-z
1/2-x,1/2+y,z
x,-y,1/2+z
loop_
_atom_site_type_symbol
_atom_site_label
_atom_site_fract_x
_atom_site_fract_y
_atom_site_fract_z
Si Si1 0.533200 0.432765 0.950289
Si Si2 0.215214 0.232549 0.267747
Si Si3 0.902362 0.374435 0.922109
Si Si4 0.746711 0.844046 0.403232
O O1 0.500000 0.423269 0.750000
O O2 0.738000 0.414576 0.978437
O O3 0.500000 0.500000 0.000000
O O4 0.399508 0.390889 0.055238
O O5 0.317477 0.188436 0.138694
O O6 0.256252 0.204335 0.446686
O O7 0.272929 0.300795 0.253796
O O8 0.000000 0.230169 0.250000
O O9 0.000000 0.397057 0.750000
O O10 0.051525 0.371695 0.066561
#
# Coordination Sequence:
#
# PCOD9455618 Si02
#       4
#     8   8   8   8
#     4  12  25  50  67  93 138 188 236 284 341 416
#     4  11  20  41  69 100 142 173 218 281 359 415
#     4  10  20  40  70  92 130 181 214 279 351 395
#     4  11  23  43  69 101 139 179 220 288 350 416
#
# _framework density 23.928878000000001
#
# number of rings (size 3 to 8) (size 9 to 14) (size 15 to 20)
#    0.000    1.000    7.500    1.500    0.000    1.000 
#   13.500    0.000    0.000    0.000    0.000    0.000 
#    0.000    0.000    0.000    0.000    0.000    0.000 
#
# Total GULP energy -179301.649429 kJ/mol
# GULP energy per Si atom -5603.176545 kJ/mol
# Density = 2.387441 g / cm^3
# Si number density = 23.928878 Si / 1000 Ang^3
#
#
#
# Elastic Constant Matrix: (Units=GPa)
#
#
# Indices 1 2 3 4 5 6 
#
# 1 208.8411 88.9472 18.4076 0.0000 0.0000 0.0000
# 2 88.9472 163.8607 29.5469 0.0000 0.0000 0.0000
# 3 18.4076 29.5469 72.3607 0.0000 0.0000 0.0000
# 4 0.0000 0.0000 0.0000 32.1123 0.0000 0.0000
# 5 0.0000 0.0000 0.0000 0.0000 10.5830 0.0000
# 6 0.0000 0.0000 0.0000 0.0000 0.0000 -86.7606
#
#
#
# Elastic Compliance Matrix: (Units=1/GPa)
#
#
# Indices 1 2 3 4 5 6 
#
# 1 0.006232 -0.003343 -0.000220 0.000000 0.000000 0.000000
# 2 -0.003343 0.008381 -0.002572 0.000000 0.000000 0.000000
# 3 -0.000220 -0.002572 0.014926 0.000000 0.000000 0.000000
# 4 0.000000 0.000000 0.000000 0.031141 0.000000 0.000000
# 5 0.000000 0.000000 0.000000 0.000000 0.094491 0.000000
# 6 0.000000 0.000000 0.000000 0.000000 0.000000 -0.011526
#
#
# Mechanical properties :
#
#
# Convention : Reuss Voigt Hill
#
# Bulk Modulus (GPa) = 57.90881 79.87397 68.89139
# Shear Modulus (GPa) = 30.92706 11.73099 21.32903
#
# Velocity S-wave (km/s) = 3.59898 2.21655 2.98879
# Velocity P-wave (km/s) = 6.44384 6.32479 6.38459
#
# Compressibility (1/GPa) = 0.01726853
#
# Stress axis : x y z
#
# Youngs Moduli (GPa) = 160.47495 119.31634 66.99791
#
# Poissons Ratio (x) = 0.39886 0.01475
# Poissons Ratio (y) = 0.53645 0.17231
# Poissons Ratio (z) = 0.03534 0.30686
#
# Static dielectric constant tensor:
#      x y z
#    x 2.222770 0.000000 0.000000 
#    y 0.000000 1.879100 0.000000 
#    z 0.000000 0.000000 2.079470 
# 
# From -- ./inp_files/3579.got.cif
#   From: 2010.05.17/outbox.cif.g08.bks.cpg/sg60_2_cif.got.tgz:3579.got - 2010.06.03 14:59:27.
