data_PCOD9455251
_publ_section_title
;
Structure prediction by ZEFSAII (Michael W. Deem and Ramdas Pophale) SiO2 
 PCOD9455251
Probable space group: P B C N
;
_chemical_formula_sum "Si O2"
_cell_formula_units_Z 64
_cell_length_a 11.148373
_cell_length_b 33.728796
_cell_length_c 8.531869
_cell_angle_alpha 90.000000
_cell_angle_beta 90.000000
_cell_angle_gamma 90.000000
_cell_volume 3208.163608
_symmetry_space_group_name_H-M "P B C N"
_symmetry_group_IT_number 60
_symmetry_cell_setting 'orthorhombic'
loop_
_space_group_symop_operation_xyz
x,y,z
1/2-x,1/2-y,1/2+z
1/2+x,1/2-y,-z
-x,y,1/2-z
-x,-y,-z
1/2+x,1/2+y,1/2-z
1/2-x,1/2+y,z
x,-y,1/2+z
loop_
_atom_site_type_symbol
_atom_site_label
_atom_site_fract_x
_atom_site_fract_y
_atom_site_fract_z
Si Si1 0.109997 0.450215 0.974979
Si Si2 0.702157 0.397713 0.015286
Si Si3 0.918897 0.224415 0.395501
Si Si4 0.339746 0.033064 0.113512
Si Si5 0.527667 0.350777 0.431935
Si Si6 0.935283 0.690586 0.013166
Si Si7 0.683510 0.174193 0.341827
Si Si8 0.208533 0.627281 0.639836
O O1 0.155540 0.457311 0.797795
O O2 0.965687 0.452519 0.962776
O O3 0.159513 0.486244 0.080846
O O4 0.148069 0.408965 0.049159
O O5 0.562125 0.386095 0.018524
O O6 0.757239 0.385921 0.184386
O O7 0.734831 0.442231 0.968977
O O8 0.764176 0.368265 0.890749
O O9 0.991063 0.188453 0.475374
O O10 0.904677 0.263158 0.500775
O O11 0.790824 0.205924 0.350578
O O12 0.000000 0.237562 0.250000
O O13 0.500000 0.342739 0.250000
O O14 0.666098 0.361593 0.443906
O O15 0.873333 0.673804 0.170263
O O16 0.076897 0.685273 0.038404
O O17 0.878369 0.665163 0.872801
#
# Coordination Sequence:
#
# PCOD9455251 Si02
#       8
#     8   8   8   8   8   8   8   8
#     4  10  21  36  60  91 123 160 190 248 297 360
#     4  10  21  39  62  86 119 159 200 246 296 367
#     4  11  25  39  62  84 115 154 206 247 304 364
#     4  10  20  37  60  89 126 154 198 238 303 355
#     4   9  22  42  61  84 117 163 200 249 302 358
#     4  11  25  38  59  83 116 153 193 254 299 357
#     4  10  24  41  56  84 116 154 195 244 304 355
#     4  11  22  38  62  88 121 154 204 247 302 357
#
# _framework density 19.949107999999999
#
# number of rings (size 3 to 8) (size 9 to 14) (size 15 to 20)
#    0.000    1.750    0.000    3.000    7.000    6.500 
#    0.000    0.625    0.000    0.000    0.000    0.000 
#    0.000    0.000    0.000    0.000    0.000    0.000 
#
# Total GULP energy -357788.312622 kJ/mol
# GULP energy per Si atom -5590.442385 kJ/mol
# Density = 1.990370 g / cm^3
# Si number density = 19.949108 Si / 1000 Ang^3
#
#
#
# Elastic Constant Matrix: (Units=GPa)
#
#
# Indices 1 2 3 4 5 6 
#
# 1 76.1857 17.7800 10.3568 0.0000 0.0000 0.0000
# 2 17.7800 67.5331 6.2579 0.0000 0.0000 0.0000
# 3 10.3568 6.2579 35.0555 0.0000 0.0000 0.0000
# 4 0.0000 0.0000 0.0000 52.1968 0.0000 0.0000
# 5 0.0000 0.0000 0.0000 0.0000 22.5633 0.0000
# 6 0.0000 0.0000 0.0000 0.0000 0.0000 20.9545
#
#
#
# Elastic Compliance Matrix: (Units=1/GPa)
#
#
# Indices 1 2 3 4 5 6 
#
# 1 0.014429 -0.003461 -0.003645 0.000000 0.000000 0.000000
# 2 -0.003461 0.015887 -0.001813 0.000000 0.000000 0.000000
# 3 -0.003645 -0.001813 0.029927 0.000000 0.000000 0.000000
# 4 0.000000 0.000000 0.000000 0.019158 0.000000 0.000000
# 5 0.000000 0.000000 0.000000 0.000000 0.044320 0.000000
# 6 0.000000 0.000000 0.000000 0.000000 0.000000 0.047722
#
#
# Mechanical properties :
#
#
# Convention : Reuss Voigt Hill
#
# Bulk Modulus (GPa) = 23.58299 27.50707 25.54503
# Shear Modulus (GPa) = 24.58005 28.76823 26.67414
#
# Velocity S-wave (km/s) = 3.51399 3.80159 3.66062
# Velocity P-wave (km/s) = 5.32085 5.75222 5.54073
#
# Compressibility (1/GPa) = 0.04240345
#
# Stress axis : x y z
#
# Youngs Moduli (GPa) = 69.30449 62.94520 33.41488
#
# Poissons Ratio (x) = 0.21786 0.12180
# Poissons Ratio (y) = 0.23987 0.06060
# Poissons Ratio (z) = 0.25262 0.11415
#
# Static dielectric constant tensor:
#      x y z
#    x 1.696200 0.000000 0.000000 
#    y 0.000000 1.674110 0.000000 
#    z 0.000000 0.000000 1.716670 
# 
# From -- ./inp_files/5352.got.cif
#   From: 2010.05.17/outbox.cif.g08.bks.cpg/sg60_3_cif.got.tgz:5352.got - 2010.06.03 14:59:27.
