data_PCOD9455402
_publ_section_title
;
Structure prediction by ZEFSAII (Michael W. Deem and Ramdas Pophale) SiO2 
 PCOD9455402
Probable space group: P B C N
;
_chemical_formula_sum "Si O2"
_cell_formula_units_Z 56
_cell_length_a 29.544635
_cell_length_b 5.591057
_cell_length_c 12.602706
_cell_angle_alpha 90.000000
_cell_angle_beta 90.000000
_cell_angle_gamma 90.000000
_cell_volume 2081.787296
_symmetry_space_group_name_H-M "P B C N"
_symmetry_group_IT_number 60
_symmetry_cell_setting 'orthorhombic'
loop_
_space_group_symop_operation_xyz
x,y,z
1/2-x,1/2-y,1/2+z
1/2+x,1/2-y,-z
-x,y,1/2-z
-x,-y,-z
1/2+x,1/2+y,1/2-z
1/2-x,1/2+y,z
x,-y,1/2+z
loop_
_atom_site_type_symbol
_atom_site_label
_atom_site_fract_x
_atom_site_fract_y
_atom_site_fract_z
Si Si1 0.094461 0.147509 0.018176
Si Si2 0.636761 0.138597 0.234710
Si Si3 0.000000 0.000000 0.500000
Si Si4 0.370593 0.848522 0.514653
Si Si5 0.226720 0.849308 0.950090
Si Si6 0.500000 0.447310 0.750000
Si Si7 0.900140 0.143775 0.235903
Si Si8 0.241309 0.657200 0.219218
O O1 0.122314 0.377510 0.978347
O O2 0.095954 0.867768 0.980201
O O3 0.111640 0.125590 0.139245
O O4 0.041030 0.195296 0.011188
O O5 0.622318 0.126242 0.358515
O O6 0.612767 0.380350 0.194271
O O7 0.690605 0.166860 0.236990
O O8 0.625637 0.873922 0.192786
O O9 0.006158 0.068120 0.632983
O O10 0.320794 0.738760 0.496696
O O11 0.260862 0.626330 0.971686
O O12 0.225643 0.845978 0.820604
O O13 0.546546 0.306962 0.730690
O O14 0.248459 0.405207 0.161493
#
# Coordination Sequence:
#
# PCOD9455402 Si02
#       8
#     8   8   4   8   8   4   8   8
#     4   9  20  39  65  97 134 175 230 301 362 448
#     4  10  20  38  63  92 127 175 236 295 363 438
#     4  10  22  46  74 112 154 198 252 312 396 462
#     4  10  20  38  63  92 127 175 236 295 365 437
#     4  10  21  37  54  82 122 170 218 295 345 434
#     4  10  22  46  74 112 154 198 252 312 396 462
#     4   9  20  39  65  97 134 175 230 301 362 446
#     4  10  21  37  54  82 122 170 218 295 345 434
#
# _framework density 26.899963
#
# number of rings (size 3 to 8) (size 9 to 14) (size 15 to 20)
#    0.000    2.286    0.000    1.714    0.000    2.286 
#   15.429    2.857    0.000    0.000    0.000    0.000 
#    0.000    0.000    0.000    0.000    0.000    0.000 
#
# Total GULP energy -311881.345943 kJ/mol
# GULP energy per Si atom -5569.309749 kJ/mol
# Density = 2.683874 g / cm^3
# Si number density = 26.899963 Si / 1000 Ang^3
#
#
#
# Elastic Constant Matrix: (Units=GPa)
#
#
# Indices 1 2 3 4 5 6 
#
# 1 74.8042 61.5490 -22.1188 0.0000 0.0000 0.0000
# 2 61.5490 237.9399 56.0965 0.0000 0.0000 0.0000
# 3 -22.1188 56.0965 91.5110 0.0000 0.0000 0.0000
# 4 0.0000 0.0000 0.0000 69.8354 0.0000 0.0000
# 5 0.0000 0.0000 0.0000 0.0000 -19.5459 0.0000
# 6 0.0000 0.0000 0.0000 0.0000 0.0000 -1.4774
#
#
#
# Elastic Compliance Matrix: (Units=1/GPa)
#
#
# Indices 1 2 3 4 5 6 
#
# 1 0.023955 -0.008839 0.011209 0.000000 0.000000 0.000000
# 2 -0.008839 0.008174 -0.007147 0.000000 0.000000 0.000000
# 3 0.011209 -0.007147 0.018018 0.000000 0.000000 0.000000
# 4 0.000000 0.000000 0.000000 0.014319 0.000000 0.000000
# 5 0.000000 0.000000 0.000000 0.000000 -0.051162 0.000000
# 6 0.000000 0.000000 0.000000 0.000000 0.000000 -0.676871
#
#
# Mechanical properties :
#
#
# Convention : Reuss Voigt Hill
#
# Bulk Modulus (GPa) = 24.63538 66.14538 45.39038
# Shear Modulus (GPa) = -7.80665 30.34433 11.26884
#
# Velocity S-wave (km/s) = -1.70540 3.36228 2.04897
# Velocity P-wave (km/s) = 2.30221 6.30206 4.74427
#
# Compressibility (1/GPa) = 0.04059202
#
# Stress axis : x y z
#
# Youngs Moduli (GPa) = 41.74429 122.33530 55.49953
#
# Poissons Ratio (x) = 1.08134 -0.62207
# Poissons Ratio (y) = 0.36898 0.39667
# Poissons Ratio (z) = -0.46790 0.87437
#
# Static dielectric constant tensor:
#      x y z
#    x 2.108080 0.000000 0.000000 
#    y 0.000000 2.128810 0.000000 
#    z 0.000000 0.000000 2.216310 
# 
# From -- ./inp_files/18211.got.cif
#   From: 2010.05.17/outbox.cif.g08.bks.cpg/sg60_10_cif.got.tgz:18211.got - 2010.06.03 14:59:27.
