data_PCOD9455889
_publ_section_title
;
Structure prediction by ZEFSAII (Michael W. Deem and Ramdas Pophale) SiO2 
 PCOD9455889
Probable space group: P B C N
;
_chemical_formula_sum "Si O2"
_cell_formula_units_Z 48
_cell_length_a 13.952814
_cell_length_b 18.293455
_cell_length_c 9.404634
_cell_angle_alpha 90.000000
_cell_angle_beta 90.000000
_cell_angle_gamma 90.000000
_cell_volume 2400.487451
_symmetry_space_group_name_H-M "P B C N"
_symmetry_group_IT_number 60
_symmetry_cell_setting 'orthorhombic'
loop_
_space_group_symop_operation_xyz
x,y,z
1/2-x,1/2-y,1/2+z
1/2+x,1/2-y,-z
-x,y,1/2-z
-x,-y,-z
1/2+x,1/2+y,1/2-z
1/2-x,1/2+y,z
x,-y,1/2+z
loop_
_atom_site_type_symbol
_atom_site_label
_atom_site_fract_x
_atom_site_fract_y
_atom_site_fract_z
Si Si1 0.280498 0.627784 0.530104
Si Si2 0.431422 0.475207 0.873850
Si Si3 0.493575 0.229477 0.092601
Si Si4 0.804513 0.279708 0.081672
Si Si5 0.629179 0.361318 0.167646
Si Si6 0.908258 0.644374 0.837887
O O1 0.347708 0.575003 0.437463
O O2 0.261121 0.698762 0.432058
O O3 0.338818 0.654114 0.670379
O O4 0.180743 0.597678 0.597714
O O5 0.500000 0.442538 0.750000
O O6 0.390138 0.553010 0.825159
O O7 0.500000 0.500000 0.000000
O O8 0.500000 0.197164 0.250000
O O9 0.542097 0.310562 0.111139
O O10 0.386114 0.218885 0.036641
O O11 0.552040 0.187576 0.972324
O O12 0.719790 0.338467 0.071454
O O13 0.858677 0.298413 0.228758
O O14 0.000000 0.612179 0.750000
#
# Coordination Sequence:
#
# PCOD9455889 Si02
#       6
#     8   8   8   8   8   8
#     4  11  21  41  63  93 127 173 219 268 327 401
#     4  12  25  43  64  93 133 178 215 260 335 405
#     4  11  19  35  61  88 127 158 206 264 325 381
#     4  10  21  36  64  90 122 167 212 270 330 379
#     4  11  22  41  60  91 137 164 209 273 326 383
#     4   9  21  38  60  94 122 162 214 276 326 384
#
# _framework density 19.995939
#
# number of rings (size 3 to 8) (size 9 to 14) (size 15 to 20)
#    0.000    1.333    5.000    1.500    0.000    3.333 
#    3.000    0.000    0.000   10.000    0.000    0.000 
#    0.000    0.000    0.000    0.000    0.000    0.000 
#
# Total GULP energy -267245.742501 kJ/mol
# GULP energy per Si atom -5567.619635 kJ/mol
# Density = 1.995043 g / cm^3
# Si number density = 19.995939 Si / 1000 Ang^3
#
#
#
# Elastic Constant Matrix: (Units=GPa)
#
#
# Indices 1 2 3 4 5 6 
#
# 1 160.3432 26.6745 47.0087 0.0000 0.0000 0.0000
# 2 26.6745 33.6063 11.5922 0.0000 0.0000 0.0000
# 3 47.0087 11.5922 102.2288 0.0000 0.0000 0.0000
# 4 0.0000 0.0000 0.0000 26.3018 0.0000 0.0000
# 5 0.0000 0.0000 0.0000 0.0000 26.1862 0.0000
# 6 0.0000 0.0000 0.0000 0.0000 0.0000 24.6602
#
#
#
# Elastic Compliance Matrix: (Units=1/GPa)
#
#
# Indices 1 2 3 4 5 6 
#
# 1 0.008024 -0.005304 -0.003089 0.000000 0.000000 0.000000
# 2 -0.005304 0.034473 -0.001470 0.000000 0.000000 0.000000
# 3 -0.003089 -0.001470 0.011369 0.000000 0.000000 0.000000
# 4 0.000000 0.000000 0.000000 0.038020 0.000000 0.000000
# 5 0.000000 0.000000 0.000000 0.000000 0.038188 0.000000
# 6 0.000000 0.000000 0.000000 0.000000 0.000000 0.040551
#
#
# Mechanical properties :
#
#
# Convention : Reuss Voigt Hill
#
# Bulk Modulus (GPa) = 29.28984 51.85880 40.57432
# Shear Modulus (GPa) = 24.78536 29.48981 27.13758
#
# Velocity S-wave (km/s) = 3.52450 3.84447 3.68795
# Velocity P-wave (km/s) = 5.58950 6.75999 6.20242
#
# Compressibility (1/GPa) = 0.03414153
#
# Stress axis : x y z
#
# Youngs Moduli (GPa) = 124.61908 29.00791 87.95922
#
# Poissons Ratio (x) = 0.15386 0.27166
# Poissons Ratio (y) = 0.66097 0.12931
# Poissons Ratio (z) = 0.38489 0.04265
#
# Static dielectric constant tensor:
#      x y z
#    x 1.816750 0.000000 0.000000 
#    y 0.000000 1.814180 0.000000 
#    z 0.000000 0.000000 1.720670 
# 
# From -- ./inp_files/6040.got.cif
#   From: 2010.05.17/outbox.cif.g08.bks.cpg/sg60_4_cif.got.tgz:6040.got - 2010.06.03 14:59:27.
