data_PCOD9455000
_publ_section_title
;
Structure prediction by ZEFSAII (Michael W. Deem and Ramdas Pophale) SiO2 
 PCOD9455000
Probable space group: P B C N
;
_chemical_formula_sum "Si O2"
_cell_formula_units_Z 40
_cell_length_a 5.312444
_cell_length_b 14.623789
_cell_length_c 22.145132
_cell_angle_alpha 90.000000
_cell_angle_beta 90.000000
_cell_angle_gamma 90.000000
_cell_volume 1720.412346
_symmetry_space_group_name_H-M "P B C N"
_symmetry_group_IT_number 60
_symmetry_cell_setting 'orthorhombic'
loop_
_space_group_symop_operation_xyz
x,y,z
1/2-x,1/2-y,1/2+z
1/2+x,1/2-y,-z
-x,y,1/2-z
-x,-y,-z
1/2+x,1/2+y,1/2-z
1/2-x,1/2+y,z
x,-y,1/2+z
loop_
_atom_site_type_symbol
_atom_site_label
_atom_site_fract_x
_atom_site_fract_y
_atom_site_fract_z
Si Si1 0.750030 0.446905 0.784434
Si Si2 0.748889 0.167338 0.784484
Si Si3 0.204900 0.724371 0.577174
Si Si4 0.620912 0.387373 0.531305
Si Si5 0.115884 0.409029 0.578580
O O1 0.500000 0.414530 0.750000
O O2 0.745294 0.557072 0.782844
O O3 0.778637 0.420640 0.854251
O O4 0.000000 0.415820 0.750000
O O5 0.500000 0.198460 0.750000
O O6 0.721120 0.195272 0.853824
O O7 0.000000 0.199413 0.750000
O O8 0.260606 0.640473 0.532939
O O9 0.418977 0.800656 0.567073
O O10 0.963763 0.788435 0.561623
O O11 0.346302 0.435690 0.534630
O O12 0.833852 0.442812 0.568322
#
# Coordination Sequence:
#
# PCOD9455000 Si02
#       5
#     8   8   8   8   8
#     4  10  21  40  56  79 117 155 183 235 286 328
#     4  10  24  38  58  83 114 151 190 227 284 336
#     4  10  21  37  61  80 120 141 186 232 280 331
#     4  10  20  35  57  85 110 147 178 234 287 318
#     4  10  20  34  58  82 110 142 193 222 277 340
#
# _framework density 23.250239000000001
#
# number of rings (size 3 to 8) (size 9 to 14) (size 15 to 20)
#    1.200    0.800    2.000    1.200    2.800    1.600 
#    0.000    2.000    0.000    0.000    0.000    0.000 
#    0.000    0.000    0.000    0.000    0.000    0.000 
#
# Total GULP energy -223089.461147 kJ/mol
# GULP energy per Si atom -5577.236529 kJ/mol
# Density = 2.319732 g / cm^3
# Si number density = 23.250239 Si / 1000 Ang^3
#
#
#
# Elastic Constant Matrix: (Units=GPa)
#
#
# Indices 1 2 3 4 5 6 
#
# 1 212.9237 23.6157 83.4991 0.0000 0.0000 0.0000
# 2 23.6157 67.0048 9.0977 0.0000 0.0000 0.0000
# 3 83.4991 9.0977 176.0403 0.0000 0.0000 0.0000
# 4 0.0000 0.0000 0.0000 33.5319 0.0000 0.0000
# 5 0.0000 0.0000 0.0000 0.0000 33.2697 0.0000
# 6 0.0000 0.0000 0.0000 0.0000 0.0000 -3.3858
#
#
#
# Elastic Compliance Matrix: (Units=1/GPa)
#
#
# Indices 1 2 3 4 5 6 
#
# 1 0.005962 -0.001730 -0.002739 0.000000 0.000000 0.000000
# 2 -0.001730 0.015531 0.000018 0.000000 0.000000 0.000000
# 3 -0.002739 0.000018 0.006979 0.000000 0.000000 0.000000
# 4 0.000000 0.000000 0.000000 0.029822 0.000000 0.000000
# 5 0.000000 0.000000 0.000000 0.000000 0.030057 0.000000
# 6 0.000000 0.000000 0.000000 0.000000 0.000000 -0.295355
#
#
# Mechanical properties :
#
#
# Convention : Reuss Voigt Hill
#
# Bulk Modulus (GPa) = 51.09503 76.48819 63.79161
# Shear Modulus (GPa) = -26.09908 35.33359 4.61726
#
# Velocity S-wave (km/s) = -3.35405 3.90257 1.41075
# Velocity P-wave (km/s) = 2.65034 7.29904 5.49091
#
# Compressibility (1/GPa) = 0.01957137
#
# Stress axis : x y z
#
# Youngs Moduli (GPa) = 167.71989 64.38535 143.29531
#
# Poissons Ratio (x) = 0.11136 0.39244
# Poissons Ratio (y) = 0.29008 -0.00254
# Poissons Ratio (z) = 0.45933 -0.00114
#
# Static dielectric constant tensor:
#      x y z
#    x 1.973550 0.000000 0.000000 
#    y 0.000000 1.931520 0.000000 
#    z 0.000000 0.000000 1.868050 
# 
# From -- ./inp_files/21545.got.cif
#   From: 2010.05.17/outbox.cif.g08.bks.cpg/sg60_11_cif.got.tgz:21545.got - 2010.06.03 14:59:27.
