data_PCOD9455230
_publ_section_title
;
Structure prediction by ZEFSAII (Michael W. Deem and Ramdas Pophale) SiO2 
 PCOD9455230
Probable space group: P B C N
;
_chemical_formula_sum "Si O2"
_cell_formula_units_Z 52
_cell_length_a 16.156270
_cell_length_b 17.716430
_cell_length_c 8.862476
_cell_angle_alpha 90.000000
_cell_angle_beta 90.000000
_cell_angle_gamma 90.000000
_cell_volume 2536.719148
_symmetry_space_group_name_H-M "P B C N"
_symmetry_group_IT_number 60
_symmetry_cell_setting 'orthorhombic'
loop_
_space_group_symop_operation_xyz
x,y,z
1/2-x,1/2-y,1/2+z
1/2+x,1/2-y,-z
-x,y,1/2-z
-x,-y,-z
1/2+x,1/2+y,1/2-z
1/2-x,1/2+y,z
x,-y,1/2+z
loop_
_atom_site_type_symbol
_atom_site_label
_atom_site_fract_x
_atom_site_fract_y
_atom_site_fract_z
Si Si1 0.500000 0.290902 0.250000
Si Si2 0.783691 0.686728 0.574466
Si Si3 0.115984 0.447040 0.510030
Si Si4 0.710844 0.901618 0.397413
Si Si5 0.878927 0.843652 0.510795
Si Si6 0.611998 0.237791 0.995975
Si Si7 0.500000 0.998086 0.250000
Si Si8 0.500000 0.680051 0.250000
O O1 0.438422 0.334705 0.135162
O O2 0.440982 0.242498 0.354429
O O3 0.831862 0.628065 0.471152
O O4 0.777872 0.639649 0.732456
O O5 0.838342 0.763422 0.566396
O O6 0.693187 0.709794 0.516662
O O7 0.174427 0.516422 0.562375
O O8 0.041011 0.450673 0.624649
O O9 0.071814 0.453119 0.343718
O O10 0.800913 0.894917 0.472698
O O11 0.644736 0.845401 0.471083
O O12 0.937869 0.867821 0.647420
O O13 0.554131 0.267937 0.861801
#
# Coordination Sequence:
#
# PCOD9455230 Si02
#       8
#     4   8   8   8   8   8   4   4
#     4  10  20  37  58  96 110 155 190 254 294 349
#     4  11  22  41  58  90 118 161 191 247 282 360
#     4  11  24  40  64  79 130 158 200 231 298 334
#     4  11  22  41  58  90 118 161 191 247 282 360
#     4  10  22  37  65  85 122 148 201 239 301 341
#     4  10  22  37  65  85 122 148 201 239 301 341
#     4  10  24  40  54  96 116 166 196 236 270 370
#     4  10  20  37  60  98 110 155 186 258 292 343
#
# _framework density 20.498919000000001
#
# number of rings (size 3 to 8) (size 9 to 14) (size 15 to 20)
#    0.000    1.538    4.615    0.000    0.000    9.846 
#    0.000    0.000    0.000    5.538    0.000    0.000 
#    0.000    0.000    0.000    0.000    0.000    0.000 
#
# Total GULP energy -290031.092032 kJ/mol
# GULP energy per Si atom -5577.521001 kJ/mol
# Density = 2.045226 g / cm^3
# Si number density = 20.498919 Si / 1000 Ang^3
#
#
#
# Elastic Constant Matrix: (Units=GPa)
#
#
# Indices 1 2 3 4 5 6 
#
# 1 106.3705 21.1289 27.6835 0.0000 0.0000 0.0000
# 2 21.1289 47.7127 -6.3840 0.0000 0.0000 0.0000
# 3 27.6835 -6.3840 81.7139 0.0000 0.0000 0.0000
# 4 0.0000 0.0000 0.0000 2.2039 0.0000 0.0000
# 5 0.0000 0.0000 0.0000 0.0000 31.9706 0.0000
# 6 0.0000 0.0000 0.0000 0.0000 0.0000 -11.4275
#
#
#
# Elastic Compliance Matrix: (Units=1/GPa)
#
#
# Indices 1 2 3 4 5 6 
#
# 1 0.011696 -0.005770 -0.004413 0.000000 0.000000 0.000000
# 2 -0.005770 0.024027 0.003832 0.000000 0.000000 0.000000
# 3 -0.004413 0.003832 0.014032 0.000000 0.000000 0.000000
# 4 0.000000 0.000000 0.000000 0.453749 0.000000 0.000000
# 5 0.000000 0.000000 0.000000 0.000000 0.031279 0.000000
# 6 0.000000 0.000000 0.000000 0.000000 0.000000 -0.087508
#
#
# Mechanical properties :
#
#
# Convention : Reuss Voigt Hill
#
# Bulk Modulus (GPa) = 26.98877 35.62820 31.30849
# Shear Modulus (GPa) = 10.58588 17.44063 14.01325
#
# Velocity S-wave (km/s) = 2.27493 2.92002 2.61743
# Velocity P-wave (km/s) = 4.48274 5.36535 4.94378
#
# Compressibility (1/GPa) = 0.03705245
#
# Stress axis : x y z
#
# Youngs Moduli (GPa) = 85.50137 41.62059 71.26421
#
# Poissons Ratio (x) = 0.24014 0.31450
# Poissons Ratio (y) = 0.49332 -0.27307
# Poissons Ratio (z) = 0.37733 -0.15948
#
# Static dielectric constant tensor:
#      x y z
#    x 1.748660 0.000000 0.000000 
#    y 0.000000 1.676250 0.000000 
#    z 0.000000 0.000000 1.855810 
# 
# From -- ./inp_files/6887.got.cif
#   From: 2010.05.17/outbox.cif.g08.bks.cpg/sg60_4_cif.got.tgz:6887.got - 2010.06.03 14:59:27.
