data_PCOD9455250
_publ_section_title
;
Structure prediction by ZEFSAII (Michael W. Deem and Ramdas Pophale) SiO2 
 PCOD9455250
Probable space group: P B C N
;
_chemical_formula_sum "Si O2"
_cell_formula_units_Z 64
_cell_length_a 21.773494
_cell_length_b 9.142597
_cell_length_c 16.772215
_cell_angle_alpha 90.000000
_cell_angle_beta 90.000000
_cell_angle_gamma 90.000000
_cell_volume 3338.782463
_symmetry_space_group_name_H-M "P B C N"
_symmetry_group_IT_number 60
_symmetry_cell_setting 'orthorhombic'
loop_
_space_group_symop_operation_xyz
x,y,z
1/2-x,1/2-y,1/2+z
1/2+x,1/2-y,-z
-x,y,1/2-z
-x,-y,-z
1/2+x,1/2+y,1/2-z
1/2-x,1/2+y,z
x,-y,1/2+z
loop_
_atom_site_type_symbol
_atom_site_label
_atom_site_fract_x
_atom_site_fract_y
_atom_site_fract_z
Si Si1 0.934946 0.849553 0.717672
Si Si2 0.290063 0.203320 0.162130
Si Si3 0.134737 0.854843 0.516824
Si Si4 0.598178 0.410418 0.349510
Si Si5 0.197468 0.756030 0.809601
Si Si6 0.801116 0.402449 0.428821
Si Si7 0.473979 0.568710 0.919220
Si Si8 0.243998 0.015550 0.916460
O O1 0.874921 0.748902 0.709558
O O2 0.000000 0.787085 0.750000
O O3 0.913764 0.975511 0.779022
O O4 0.950205 0.936714 0.636347
O O5 0.353549 0.288405 0.177268
O O6 0.241148 0.205472 0.234408
O O7 0.256682 0.301771 0.095105
O O8 0.302118 0.040421 0.130016
O O9 0.142717 0.710760 0.570417
O O10 0.082139 0.836290 0.450890
O O11 0.196003 0.888641 0.467126
O O12 0.122983 0.992085 0.575910
O O13 0.530851 0.353863 0.375414
O O14 0.222989 0.609198 0.848814
O O15 0.207796 0.884027 0.874378
O O16 0.792087 0.458929 0.518377
O O17 0.500000 0.500000 0.000000
#
# Coordination Sequence:
#
# PCOD9455250 Si02
#       8
#     8   8   8   8   8   8   8   8
#     4  10  20  37  60  89 120 157 205 255 303 365
#     4  12  23  38  58  88 124 159 205 250 312 375
#     4  11  20  38  60  88 122 155 207 251 312 364
#     4  10  21  38  62  89 119 163 204 254 308 367
#     4  12  24  37  59  92 122 156 202 259 312 366
#     4  12  22  37  59  86 120 163 197 255 306 375
#     4   9  20  35  62  89 119 159 205 256 300 362
#     4  12  22  36  58  89 121 155 199 255 312 361
#
# _framework density 19.168664
#
# number of rings (size 3 to 8) (size 9 to 14) (size 15 to 20)
#    0.000    1.000    5.000    3.000    0.000    0.000 
#    0.000    0.625    0.000    3.000    0.000    7.875 
#    0.000    0.000    0.000    0.000    0.000    0.000 
#
# Total GULP energy -357169.535650 kJ/mol
# GULP energy per Si atom -5580.773995 kJ/mol
# Density = 1.912504 g / cm^3
# Si number density = 19.168664 Si / 1000 Ang^3
#
#
#
# Elastic Constant Matrix: (Units=GPa)
#
#
# Indices 1 2 3 4 5 6 
#
# 1 90.7413 17.5432 12.7523 0.0000 0.0000 0.0000
# 2 17.5432 43.9446 -0.8526 0.0000 0.0000 0.0000
# 3 12.7523 -0.8526 66.1047 0.0000 0.0000 0.0000
# 4 0.0000 0.0000 0.0000 23.8733 0.0000 0.0000
# 5 0.0000 0.0000 0.0000 0.0000 26.7798 0.0000
# 6 0.0000 0.0000 0.0000 0.0000 0.0000 25.7220
#
#
#
# Elastic Compliance Matrix: (Units=1/GPa)
#
#
# Indices 1 2 3 4 5 6 
#
# 1 0.012324 -0.004967 -0.002441 0.000000 0.000000 0.000000
# 2 -0.004967 0.024764 0.001278 0.000000 0.000000 0.000000
# 3 -0.002441 0.001278 0.015615 0.000000 0.000000 0.000000
# 4 0.000000 0.000000 0.000000 0.041888 0.000000 0.000000
# 5 0.000000 0.000000 0.000000 0.000000 0.037342 0.000000
# 6 0.000000 0.000000 0.000000 0.000000 0.000000 0.038877
#
#
# Mechanical properties :
#
#
# Convention : Reuss Voigt Hill
#
# Bulk Modulus (GPa) = 24.72774 28.85294 26.79034
# Shear Modulus (GPa) = 25.43868 26.69821 26.06845
#
# Velocity S-wave (km/s) = 3.64689 3.73608 3.69175
# Velocity P-wave (km/s) = 5.53725 5.80481 5.67261
#
# Compressibility (1/GPa) = 0.04044041
#
# Stress axis : x y z
#
# Youngs Moduli (GPa) = 81.14402 40.38172 64.04108
#
# Poissons Ratio (x) = 0.20058 0.15635
# Poissons Ratio (y) = 0.40306 -0.08182
# Poissons Ratio (z) = 0.19811 -0.05159
#
# Static dielectric constant tensor:
#      x y z
#    x 1.730300 0.000000 0.000000 
#    y 0.000000 1.657570 0.000000 
#    z 0.000000 0.000000 1.710500 
# 
# From -- ./inp_files/21062.got.cif
#   From: 2010.05.17/outbox.cif.g08.bks.cpg/sg60_11_cif.got.tgz:21062.got - 2010.06.03 14:59:27.
