data_PCOD9455659
_publ_section_title
;
Structure prediction by ZEFSAII (Michael W. Deem and Ramdas Pophale) SiO2 
 PCOD9455659
Probable space group: P B C N
;
_chemical_formula_sum "Si O2"
_cell_formula_units_Z 64
_cell_length_a 15.419973
_cell_length_b 11.439643
_cell_length_c 15.579217
_cell_angle_alpha 90.000000
_cell_angle_beta 90.000000
_cell_angle_gamma 90.000000
_cell_volume 2748.158084
_symmetry_space_group_name_H-M "P B C N"
_symmetry_group_IT_number 60
_symmetry_cell_setting 'orthorhombic'
loop_
_space_group_symop_operation_xyz
x,y,z
1/2-x,1/2-y,1/2+z
1/2+x,1/2-y,-z
-x,y,1/2-z
-x,-y,-z
1/2+x,1/2+y,1/2-z
1/2-x,1/2+y,z
x,-y,1/2+z
loop_
_atom_site_type_symbol
_atom_site_label
_atom_site_fract_x
_atom_site_fract_y
_atom_site_fract_z
Si Si1 0.801543 0.184379 0.470009
Si Si2 0.343817 0.476094 0.380043
Si Si3 0.817898 0.657757 0.823288
Si Si4 0.375974 0.587820 0.697348
Si Si5 0.094769 0.160549 0.270056
Si Si6 0.993913 0.716202 0.151314
Si Si7 0.366266 0.948144 0.582018
Si Si8 0.321712 0.107230 0.422191
O O1 0.849338 0.089098 0.529517
O O2 0.852835 0.257879 0.399252
O O3 0.723744 0.121680 0.421427
O O4 0.767935 0.287743 0.532640
O O5 0.366579 0.391108 0.300505
O O6 0.400532 0.591062 0.360075
O O7 0.245293 0.525612 0.370595
O O8 0.716287 0.630225 0.838218
O O9 0.837076 0.735003 0.740085
O O10 0.864828 0.535190 0.836554
O O11 0.387275 0.447754 0.703144
O O12 0.456384 0.656466 0.655732
O O13 0.000000 0.207352 0.250000
O O14 0.056351 0.640729 0.090527
O O15 0.000000 0.677989 0.250000
O O16 0.898900 0.675812 0.122668
O O17 0.362667 0.024971 0.495861
#
# Coordination Sequence:
#
# PCOD9455659 Si02
#       8
#     8   8   8   8   8   8   8   8
#     4  10  20  41  67  93 127 171 226 262 330 398
#     4   9  23  39  65  92 130 168 223 270 327 396
#     4  11  22  41  70  91 134 176 223 267 339 405
#     4  10  23  39  69  94 134 171 223 275 331 401
#     4  10  24  43  63  97 135 171 221 283 330 395
#     4  12  24  37  67 102 132 171 224 278 340 391
#     4  10  23  43  62  96 133 178 219 276 331 404
#     4  10  23  41  65  96 132 178 219 283 329 404
#
# _framework density 23.288325
#
# number of rings (size 3 to 8) (size 9 to 14) (size 15 to 20)
#    0.750    1.000    1.250    2.250    7.000    0.500 
#    0.000    3.125    0.000    0.000    0.000    0.000 
#    0.000    0.000    0.000    0.000    0.000    0.000 
#
# Total GULP energy -356639.496770 kJ/mol
# GULP energy per Si atom -5572.492137 kJ/mol
# Density = 2.323532 g / cm^3
# Si number density = 23.288325 Si / 1000 Ang^3
#
#
#
# Elastic Constant Matrix: (Units=GPa)
#
#
# Indices 1 2 3 4 5 6 
#
# 1 69.0256 21.1816 -4.7791 0.0000 0.0000 0.0000
# 2 21.1816 97.1932 6.4340 0.0000 0.0000 0.0000
# 3 -4.7791 6.4340 10.6888 0.0000 0.0000 0.0000
# 4 0.0000 0.0000 0.0000 22.7925 0.0000 0.0000
# 5 0.0000 0.0000 0.0000 0.0000 28.6600 0.0000
# 6 0.0000 0.0000 0.0000 0.0000 0.0000 -0.0891
#
#
#
# Elastic Compliance Matrix: (Units=1/GPa)
#
#
# Indices 1 2 3 4 5 6 
#
# 1 0.016478 -0.004248 0.009925 0.000000 0.000000 0.000000
# 2 -0.004248 0.011811 -0.009009 0.000000 0.000000 0.000000
# 3 0.009925 -0.009009 0.103416 0.000000 0.000000 0.000000
# 4 0.000000 0.000000 0.000000 0.043874 0.000000 0.000000
# 5 0.000000 0.000000 0.000000 0.000000 0.034892 0.000000
# 6 0.000000 0.000000 0.000000 0.000000 0.000000-11.218085
#
#
# Mechanical properties :
#
#
# Convention : Reuss Voigt Hill
#
# Bulk Modulus (GPa) = 7.99739 24.73117 16.36428
# Shear Modulus (GPa) = -0.45623 20.54410 10.04393
#
# Velocity S-wave (km/s) = -0.44309 2.97335 2.07900
# Velocity P-wave (km/s) = 1.78319 4.73607 3.57841
#
# Compressibility (1/GPa) = 0.12504082
#
# Stress axis : x y z
#
# Youngs Moduli (GPa) = 60.68648 84.66716 9.66966
#
# Poissons Ratio (x) = 0.35968 -0.09597
# Poissons Ratio (y) = 0.25780 0.08711
# Poissons Ratio (z) = -0.60230 0.76276
#
# Static dielectric constant tensor:
#      x y z
#    x 1.887260 0.000000 0.000000 
#    y 0.000000 1.944300 0.000000 
#    z 0.000000 0.000000 1.960680 
# 
# From -- ./inp_files/20649.got.cif
#   From: 2010.05.17/outbox.cif.g08.bks.cpg/sg60_11_cif.got.tgz:20649.got - 2010.06.03 14:59:27.
