data_PCOD9455331
_publ_section_title
;
Structure prediction by ZEFSAII (Michael W. Deem and Ramdas Pophale) SiO2 
 PCOD9455331
Probable space group: P B C N
;
_chemical_formula_sum "Si O2"
_cell_formula_units_Z 56
_cell_length_a 9.038635
_cell_length_b 20.662899
_cell_length_c 14.374943
_cell_angle_alpha 90.000000
_cell_angle_beta 90.000000
_cell_angle_gamma 90.000000
_cell_volume 2684.727635
_symmetry_space_group_name_H-M "P B C N"
_symmetry_group_IT_number 60
_symmetry_cell_setting 'orthorhombic'
loop_
_space_group_symop_operation_xyz
x,y,z
1/2-x,1/2-y,1/2+z
1/2+x,1/2-y,-z
-x,y,1/2-z
-x,-y,-z
1/2+x,1/2+y,1/2-z
1/2-x,1/2+y,z
x,-y,1/2+z
loop_
_atom_site_type_symbol
_atom_site_label
_atom_site_fract_x
_atom_site_fract_y
_atom_site_fract_z
Si Si1 0.717446 0.790648 0.180100
Si Si2 0.847439 0.650903 0.198899
Si Si3 0.621956 0.227908 0.877063
Si Si4 0.850891 0.119890 0.372168
Si Si5 0.796076 0.582141 0.563793
Si Si6 0.120737 0.608663 0.502671
Si Si7 0.617405 0.461661 0.560013
O O1 0.792710 0.721351 0.164995
O O2 0.547112 0.779140 0.153769
O O3 0.721092 0.798737 0.291909
O O4 0.757234 0.854686 0.121892
O O5 0.732753 0.618785 0.272521
O O6 0.886141 0.608510 0.109064
O O7 0.000000 0.662512 0.250000
O O8 0.646589 0.303276 0.892955
O O9 0.640159 0.182005 0.964196
O O10 0.757053 0.089743 0.456803
O O11 0.015453 0.088011 0.379822
O O12 0.720647 0.517631 0.605219
O O13 0.975585 0.581194 0.554597
O O14 0.275466 0.572833 0.514831
O O15 0.500000 0.500000 0.500000
#
# Coordination Sequence:
#
# PCOD9455331 Si02
#       7
#     8   8   8   8   8   8   8
#     4   9  19  36  58  89 124 157 203 261 316 379
#     4  11  21  37  61  94 125 160 208 272 327 380
#     4   9  19  36  62  92 121 159 204 262 329 373
#     4  10  20  38  59  91 128 159 212 261 317 387
#     4  10  20  39  62  88 124 168 211 255 311 379
#     4  11  21  38  64  90 124 166 211 263 323 374
#     4  10  23  41  61  89 125 172 214 258 309 380
#
# _framework density 20.858726000000001
#
# number of rings (size 3 to 8) (size 9 to 14) (size 15 to 20)
#    0.000    2.000    1.429    2.143    0.000    2.857 
#   10.286    4.286    3.143    0.000    0.000    0.000 
#    0.000    0.000    0.000    0.000    0.000    0.000 
#
# Total GULP energy -311957.499356 kJ/mol
# GULP energy per Si atom -5570.669631 kJ/mol
# Density = 2.081125 g / cm^3
# Si number density = 20.858726 Si / 1000 Ang^3
#
#
#
# Elastic Constant Matrix: (Units=GPa)
#
#
# Indices 1 2 3 4 5 6 
#
# 1 103.3614 53.0881 40.2997 0.0000 0.0000 0.0000
# 2 53.0881 91.7294 38.8973 0.0000 0.0000 0.0000
# 3 40.2997 38.8973 70.2058 0.0000 0.0000 0.0000
# 4 0.0000 0.0000 0.0000 14.5328 0.0000 0.0000
# 5 0.0000 0.0000 0.0000 0.0000 -12.9233 0.0000
# 6 0.0000 0.0000 0.0000 0.0000 0.0000 42.0630
#
#
#
# Elastic Compliance Matrix: (Units=1/GPa)
#
#
# Indices 1 2 3 4 5 6 
#
# 1 0.014982 -0.006567 -0.004962 0.000000 0.000000 0.000000
# 2 -0.006567 0.017128 -0.005720 0.000000 0.000000 0.000000
# 3 -0.004962 -0.005720 0.020261 0.000000 0.000000 0.000000
# 4 0.000000 0.000000 0.000000 0.068810 0.000000 0.000000
# 5 0.000000 0.000000 0.000000 0.000000 -0.077380 0.000000
# 6 0.000000 0.000000 0.000000 0.000000 0.000000 0.023774
#
#
# Mechanical properties :
#
#
# Convention : Reuss Voigt Hill
#
# Bulk Modulus (GPa) = 55.94798 58.87410 57.41104
# Shear Modulus (GPa) = 46.28329 17.60195 31.94262
#
# Velocity S-wave (km/s) = 4.71562 2.90809 3.91753
# Velocity P-wave (km/s) = 7.51865 6.28986 6.93154
#
# Compressibility (1/GPa) = 0.01787375
#
# Stress axis : x y z
#
# Youngs Moduli (GPa) = 66.74593 58.38487 49.35557
#
# Poissons Ratio (x) = 0.38341 0.24489
# Poissons Ratio (y) = 0.43831 0.28231
# Poissons Ratio (z) = 0.33118 0.33396
#
# Static dielectric constant tensor:
#      x y z
#    x 1.868010 0.000000 0.000000 
#    y 0.000000 1.568100 0.000000 
#    z 0.000000 0.000000 1.791760 
# 
# From -- ./inp_files/15266.got.cif
#   From: 2010.05.17/outbox.cif.g08.bks.cpg/sg60_8_cif.got.tgz:15266.got - 2010.06.03 14:59:27.
