data_PCOD9455152
_publ_section_title
;
Structure prediction by ZEFSAII (Michael W. Deem and Ramdas Pophale) SiO2 
 PCOD9455152
Probable space group: P B C N
;
_chemical_formula_sum "Si O2"
_cell_formula_units_Z 40
_cell_length_a 14.565719
_cell_length_b 17.726729
_cell_length_c 8.658327
_cell_angle_alpha 90.000000
_cell_angle_beta 90.000000
_cell_angle_gamma 90.000000
_cell_volume 2235.602140
_symmetry_space_group_name_H-M "P B C N"
_symmetry_group_IT_number 60
_symmetry_cell_setting 'orthorhombic'
loop_
_space_group_symop_operation_xyz
x,y,z
1/2-x,1/2-y,1/2+z
1/2+x,1/2-y,-z
-x,y,1/2-z
-x,-y,-z
1/2+x,1/2+y,1/2-z
1/2-x,1/2+y,z
x,-y,1/2+z
loop_
_atom_site_type_symbol
_atom_site_label
_atom_site_fract_x
_atom_site_fract_y
_atom_site_fract_z
Si Si1 0.990024 0.341470 0.998353
Si Si2 0.866376 0.611615 0.753639
Si Si3 0.000000 0.472515 0.750000
Si Si4 0.066669 0.957402 0.877894
Si Si5 0.346486 0.593432 0.682127
Si Si6 0.000000 0.787605 0.250000
O O1 0.995342 0.267555 0.895847
O O2 0.995882 0.416613 0.894482
O O3 0.896434 0.347754 0.095735
O O4 0.075683 0.346378 0.114067
O O5 0.759847 0.608168 0.787763
O O6 0.912550 0.528194 0.745136
O O7 0.000000 0.917907 0.750000
O O8 0.123371 0.017944 0.776105
O O9 0.131046 0.912972 0.998258
O O10 0.000000 0.000000 0.000000
O O11 0.411690 0.658671 0.748815
#
# Coordination Sequence:
#
# PCOD9455152 Si02
#       6
#     8   8   4   8   8   4
#     4   9  21  39  57  81 119 159 189 238 296 363
#     4  10  20  36  59  89 111 143 206 244 297 337
#     4   9  18  36  60  84 115 146 190 252 309 334
#     4   9  18  38  54  86 115 150 194 235 297 335
#     4  11  22  35  63  87 119 150 196 254 286 355
#     4  11  22  42  54  76 127 164 192 230 293 354
#
# _framework density 17.892272999999999
#
# number of rings (size 3 to 8) (size 9 to 14) (size 15 to 20)
#    0.000    2.400    3.000    2.400    5.600    1.600 
#    3.600    0.000    0.000    0.000    0.000    0.000 
#    0.000    0.000    0.000    0.000    0.000    0.000 
#
# Total GULP energy -222890.997326 kJ/mol
# GULP energy per Si atom -5572.274933 kJ/mol
# Density = 1.785155 g / cm^3
# Si number density = 17.892273 Si / 1000 Ang^3
#
#
#
# Elastic Constant Matrix: (Units=GPa)
#
#
# Indices 1 2 3 4 5 6 
#
# 1 173.4403 47.1548 60.4519 0.0000 0.0000 0.0000
# 2 47.1548 79.0197 33.8729 0.0000 0.0000 0.0000
# 3 60.4519 33.8729 123.3505 0.0000 0.0000 0.0000
# 4 0.0000 0.0000 0.0000 -28.4461 0.0000 0.0000
# 5 0.0000 0.0000 0.0000 0.0000 15.7894 0.0000
# 6 0.0000 0.0000 0.0000 0.0000 0.0000 1.5616
#
#
#
# Elastic Compliance Matrix: (Units=1/GPa)
#
#
# Indices 1 2 3 4 5 6 
#
# 1 0.007667 -0.003360 -0.002835 0.000000 0.000000 0.000000
# 2 -0.003360 0.015816 -0.002696 0.000000 0.000000 0.000000
# 3 -0.002835 -0.002696 0.010237 0.000000 0.000000 0.000000
# 4 0.000000 0.000000 0.000000 -0.035154 0.000000 0.000000
# 5 0.000000 0.000000 0.000000 0.000000 0.063334 0.000000
# 6 0.000000 0.000000 0.000000 0.000000 0.000000 0.640377
#
#
# Mechanical properties :
#
#
# Convention : Reuss Voigt Hill
#
# Bulk Modulus (GPa) = 62.74650 73.19663 67.97156
# Shear Modulus (GPa) = 6.89301 13.40301 10.14801
#
# Velocity S-wave (km/s) = 1.96491 2.73993 2.38412
# Velocity P-wave (km/s) = 6.34768 7.14199 6.75652
#
# Compressibility (1/GPa) = 0.01593714
#
# Stress axis : x y z
#
# Youngs Moduli (GPa) = 130.42325 63.22643 97.68712
#
# Poissons Ratio (x) = 0.21246 0.27693
# Poissons Ratio (y) = 0.43826 0.26341
# Poissons Ratio (z) = 0.36973 0.17049
#
# Static dielectric constant tensor:
#      x y z
#    x 1.586650 0.000000 0.000000 
#    y 0.000000 1.625440 0.000000 
#    z 0.000000 0.000000 1.670390 
# 
# From -- ./inp_files/5798.got.cif
#   From: 2010.05.17/outbox.cif.g08.bks.cpg/sg60_3_cif.got.tgz:5798.got - 2010.06.03 14:59:27.
