data_PCOD9455585
_publ_section_title
;
Structure prediction by ZEFSAII (Michael W. Deem and Ramdas Pophale) SiO2 
 PCOD9455585
Probable space group: P B C N
;
_chemical_formula_sum "Si O2"
_cell_formula_units_Z 44
_cell_length_a 9.568204
_cell_length_b 13.813125
_cell_length_c 13.976557
_cell_angle_alpha 90.000000
_cell_angle_beta 90.000000
_cell_angle_gamma 90.000000
_cell_volume 1847.236784
_symmetry_space_group_name_H-M "P B C N"
_symmetry_group_IT_number 60
_symmetry_cell_setting 'orthorhombic'
loop_
_space_group_symop_operation_xyz
x,y,z
1/2-x,1/2-y,1/2+z
1/2+x,1/2-y,-z
-x,y,1/2-z
-x,-y,-z
1/2+x,1/2+y,1/2-z
1/2-x,1/2+y,z
x,-y,1/2+z
loop_
_atom_site_type_symbol
_atom_site_label
_atom_site_fract_x
_atom_site_fract_y
_atom_site_fract_z
Si Si1 0.898527 0.023936 0.159479
Si Si2 0.840251 0.649383 0.255663
Si Si3 0.246364 0.166195 0.865115
Si Si4 0.566501 0.687956 0.009874
Si Si5 0.301496 0.248896 0.588417
Si Si6 0.500000 0.161064 0.750000
O O1 0.763759 0.080131 0.199729
O O2 0.953528 0.096837 0.078511
O O3 0.000000 0.012054 0.250000
O O4 0.858815 0.921024 0.114566
O O5 0.825205 0.754618 0.204299
O O6 0.784624 0.662666 0.364213
O O7 0.000000 0.619053 0.250000
O O8 0.336925 0.227109 0.942082
O O9 0.374293 0.112856 0.807043
O O10 0.412630 0.733953 0.001603
O O11 0.679985 0.667937 0.926439
O O12 0.413087 0.223426 0.672495
#
# Coordination Sequence:
#
# PCOD9455585 Si02
#       6
#     8   8   8   8   8   4
#     4  11  21  40  62  90 128 170 209 266 320 387
#     4  10  21  37  63  89 116 166 223 254 310 389
#     4   9  20  37  62  86 127 161 213 261 318 383
#     4  10  22  39  61  90 128 168 208 272 330 376
#     4  10  20  40  65  88 128 169 212 270 322 380
#     4   8  18  40  62  88 116 178 214 262 322 378
#
# _framework density 23.819361000000001
#
# number of rings (size 3 to 8) (size 9 to 14) (size 15 to 20)
#    0.000    2.182    1.818    1.636    8.909    0.000 
#    0.000    8.182    0.000    0.000    0.000    0.000 
#    0.000    0.000    0.000    0.000    0.000    0.000 
#
# Total GULP energy -245202.039058 kJ/mol
# GULP energy per Si atom -5572.773615 kJ/mol
# Density = 2.376515 g / cm^3
# Si number density = 23.819361 Si / 1000 Ang^3
#
#
#
# Elastic Constant Matrix: (Units=GPa)
#
#
# Indices 1 2 3 4 5 6 
#
# 1 157.4815 4.4908 9.4111 0.0000 0.0000 0.0000
# 2 4.4908 81.7866 12.3799 0.0000 0.0000 0.0000
# 3 9.4111 12.3799 49.3943 0.0000 0.0000 0.0000
# 4 0.0000 0.0000 0.0000 4.3633 0.0000 0.0000
# 5 0.0000 0.0000 0.0000 0.0000 35.2799 0.0000
# 6 0.0000 0.0000 0.0000 0.0000 0.0000 13.1709
#
#
#
# Elastic Compliance Matrix: (Units=1/GPa)
#
#
# Indices 1 2 3 4 5 6 
#
# 1 0.006425 -0.000174 -0.001181 0.000000 0.000000 0.000000
# 2 -0.000174 0.012714 -0.003153 0.000000 0.000000 0.000000
# 3 -0.001181 -0.003153 0.021261 0.000000 0.000000 0.000000
# 4 0.000000 0.000000 0.000000 0.229185 0.000000 0.000000
# 5 0.000000 0.000000 0.000000 0.000000 0.028345 0.000000
# 6 0.000000 0.000000 0.000000 0.000000 0.000000 0.075925
#
#
# Mechanical properties :
#
#
# Convention : Reuss Voigt Hill
#
# Bulk Modulus (GPa) = 31.86366 37.91399 34.88883
# Shear Modulus (GPa) = 12.71192 28.05485 20.38338
#
# Velocity S-wave (km/s) = 2.31266 3.43566 2.92849
# Velocity P-wave (km/s) = 4.53182 5.62940 5.11017
#
# Compressibility (1/GPa) = 0.03138371
#
# Stress axis : x y z
#
# Youngs Moduli (GPa) = 155.63061 78.65457 47.03551
#
# Poissons Ratio (x) = 0.01369 0.05553
# Poissons Ratio (y) = 0.02710 0.14832
# Poissons Ratio (z) = 0.18374 0.24802
#
# Static dielectric constant tensor:
#      x y z
#    x 2.056000 0.000000 0.000000 
#    y 0.000000 1.856750 0.000000 
#    z 0.000000 0.000000 2.511670 
# 
# From -- ./inp_files/19219.got.cif
#   From: 2010.05.17/outbox.cif.g08.bks.cpg/sg60_10_cif.got.tgz:19219.got - 2010.06.03 14:59:27.
