data_PCOD9455748
_publ_section_title
;
Structure prediction by ZEFSAII (Michael W. Deem and Ramdas Pophale) SiO2 
 PCOD9455748
Probable space group: P B C N
;
_chemical_formula_sum "Si O2"
_cell_formula_units_Z 48
_cell_length_a 22.195712
_cell_length_b 8.472037
_cell_length_c 12.091729
_cell_angle_alpha 90.000000
_cell_angle_beta 90.000000
_cell_angle_gamma 90.000000
_cell_volume 2273.763706
_symmetry_space_group_name_H-M "P B C N"
_symmetry_group_IT_number 60
_symmetry_cell_setting 'orthorhombic'
loop_
_space_group_symop_operation_xyz
x,y,z
1/2-x,1/2-y,1/2+z
1/2+x,1/2-y,-z
-x,y,1/2-z
-x,-y,-z
1/2+x,1/2+y,1/2-z
1/2-x,1/2+y,z
x,-y,1/2+z
loop_
_atom_site_type_symbol
_atom_site_label
_atom_site_fract_x
_atom_site_fract_y
_atom_site_fract_z
Si Si1 0.000000 0.322723 0.250000
Si Si2 0.597844 0.944943 0.692879
Si Si3 0.314598 0.511496 0.273072
Si Si4 0.199760 0.654550 0.696618
Si Si5 0.000000 0.805210 0.250000
Si Si6 0.651729 0.299683 0.028665
Si Si7 0.066529 0.048324 0.130068
O O1 0.954029 0.424387 0.175852
O O2 0.960165 0.212844 0.327507
O O3 0.558164 0.805716 0.746010
O O4 0.628306 0.857724 0.589893
O O5 0.648755 0.028338 0.767517
O O6 0.301385 0.698101 0.282627
O O7 0.263249 0.433114 0.197617
O O8 0.313467 0.409843 0.384817
O O9 0.379745 0.500691 0.214853
O O10 0.185922 0.737878 0.579924
O O11 0.985870 0.920289 0.353365
O O12 0.598168 0.413003 0.984621
#
# Coordination Sequence:
#
# PCOD9455748 Si02
#       7
#     4   8   8   8   4   8   8
#     4  10  20  44  66  94 152 176 218 298 324 388
#     4  11  22  42  67 104 141 179 227 285 338 409
#     4  11  23  45  69  97 139 176 229 296 337 408
#     4  11  26  47  69 101 143 171 236 298 336 418
#     4  10  22  42  70  96 148 180 224 296 328 402
#     4  11  24  45  72 104 129 192 231 267 375 403
#     4  10  22  44  65 100 141 179 230 286 333 408
#
# _framework density 21.110374
#
# number of rings (size 3 to 8) (size 9 to 14) (size 15 to 20)
#    0.000    1.333    5.000    1.000    0.000    6.667 
#    3.000    0.000    0.000    0.000    0.000    0.000 
#    0.000    0.000    0.000    0.000    0.000    0.000 
#
# Total GULP energy -267785.554580 kJ/mol
# GULP energy per Si atom -5578.865720 kJ/mol
# Density = 2.106233 g / cm^3
# Si number density = 21.110374 Si / 1000 Ang^3
#
#
#
# Elastic Constant Matrix: (Units=GPa)
#
#
# Indices 1 2 3 4 5 6 
#
# 1 -85.5376 27.1406 -45.2711 0.0000 0.0000 0.0000
# 2 27.1406 134.8777 30.9253 0.0000 0.0000 0.0000
# 3 -45.2711 30.9253 47.6319 0.0000 0.0000 0.0000
# 4 0.0000 0.0000 0.0000 48.7746 0.0000 0.0000
# 5 0.0000 0.0000 0.0000 0.0000 32.9065 0.0000
# 6 0.0000 0.0000 0.0000 0.0000 0.0000 39.6769
#
#
#
# Elastic Compliance Matrix: (Units=1/GPa)
#
#
# Indices 1 2 3 4 5 6 
#
# 1 -0.006394 0.003149 -0.008121 0.000000 0.000000 0.000000
# 2 0.003149 0.007160 -0.001656 0.000000 0.000000 0.000000
# 3 -0.008121 -0.001656 0.014351 0.000000 0.000000 0.000000
# 4 0.000000 0.000000 0.000000 0.020502 0.000000 0.000000
# 5 0.000000 0.000000 0.000000 0.000000 0.030389 0.000000
# 6 0.000000 0.000000 0.000000 0.000000 0.000000 0.025204
#
#
# Mechanical properties :
#
#
# Convention : Reuss Voigt Hill
#
# Bulk Modulus (GPa) = 537.54472 13.61795 275.58134
# Shear Modulus (GPa) = 47.57790 29.88341 38.73066
#
# Velocity S-wave (km/s) = 4.75254 3.76650 4.28796
# Velocity P-wave (km/s) = 16.89093 5.03788 12.46362
#
# Compressibility (1/GPa) = 0.00186031
#
# Stress axis : x y z
#
# Youngs Moduli (GPa) = -156.40481 139.65831 69.68040
#
# Poissons Ratio (x) = -0.43972 0.56587
# Poissons Ratio (y) = 0.49245 0.11542
# Poissons Ratio (z) = -1.27016 0.23133
#
# Static dielectric constant tensor:
#      x y z
#    x 1.801720 0.000000 0.000000 
#    y 0.000000 1.770010 0.000000 
#    z 0.000000 0.000000 1.786140 
# 
# From -- ./inp_files/13082.got.cif
#   From: 2010.05.17/outbox.cif.g08.bks.cpg/sg60_7_cif.got.tgz:13082.got - 2010.06.03 14:59:27.
