data_PCOD9455857
_publ_section_title
;
Structure prediction by ZEFSAII (Michael W. Deem and Ramdas Pophale) SiO2 
 PCOD9455857
Probable space group: P B C N
;
_chemical_formula_sum "Si O2"
_cell_formula_units_Z 64
_cell_length_a 15.205953
_cell_length_b 16.495825
_cell_length_c 11.078471
_cell_angle_alpha 90.000000
_cell_angle_beta 90.000000
_cell_angle_gamma 90.000000
_cell_volume 2778.865389
_symmetry_space_group_name_H-M "P B C N"
_symmetry_group_IT_number 60
_symmetry_cell_setting 'orthorhombic'
loop_
_space_group_symop_operation_xyz
x,y,z
1/2-x,1/2-y,1/2+z
1/2+x,1/2-y,-z
-x,y,1/2-z
-x,-y,-z
1/2+x,1/2+y,1/2-z
1/2-x,1/2+y,z
x,-y,1/2+z
loop_
_atom_site_type_symbol
_atom_site_label
_atom_site_fract_x
_atom_site_fract_y
_atom_site_fract_z
Si Si1 0.612592 0.159967 0.426153
Si Si2 0.050653 0.824520 0.016708
Si Si3 0.965471 0.543542 0.121590
Si Si4 0.126171 0.938319 0.848717
Si Si5 0.651047 0.314646 0.067698
Si Si6 0.195803 0.650024 0.330812
Si Si7 0.763719 0.954325 0.959442
Si Si8 0.666824 0.577728 0.794766
O O1 0.595629 0.237848 0.507743
O O2 0.517748 0.128067 0.387986
O O3 0.659463 0.179289 0.298816
O O4 0.668820 0.086138 0.482857
O O5 0.115801 0.868310 0.109908
O O6 0.954319 0.814428 0.071822
O O7 0.049028 0.885557 0.904380
O O8 0.864205 0.572281 0.131250
O O9 0.000000 0.506262 0.250000
O O10 0.000000 0.500000 0.000000
O O11 0.204188 0.876745 0.815832
O O12 0.103494 0.004965 0.750064
O O13 0.177486 0.994020 0.947683
O O14 0.685282 0.223098 0.074442
O O15 0.689120 0.363159 0.184190
O O16 0.680661 0.369970 0.955215
O O17 0.756547 0.020757 0.851733
#
# Coordination Sequence:
#
# PCOD9455857 Si02
#       8
#     8   8   8   8   8   8   8   8
#     4  11  20  38  65  88 121 158 210 256 311 380
#     4  11  22  37  61  88 117 158 206 250 306 376
#     4  10  22  38  68 100 127 171 211 267 322 380
#     4  10  22  38  59  88 118 158 195 256 312 367
#     4  11  22  37  61  88 117 158 206 250 306 376
#     4  11  20  38  65  88 121 158 210 256 311 380
#     4  10  22  38  59  88 118 158 195 256 312 367
#     4  10  21  36  56  85 120 152 204 243 304 364
#
# _framework density 23.030982999999999
#
# number of rings (size 3 to 8) (size 9 to 14) (size 15 to 20)
#    0.000    1.500    3.750    1.875    0.000    5.500 
#    0.000    0.000    2.750    0.000    0.000    0.000 
#    0.000    0.000    0.000    0.000    0.000    0.000 
#
# Total GULP energy -356646.244489 kJ/mol
# GULP energy per Si atom -5572.597570 kJ/mol
# Density = 2.297856 g / cm^3
# Si number density = 23.030983 Si / 1000 Ang^3
#
#
#
# Elastic Constant Matrix: (Units=GPa)
#
#
# Indices 1 2 3 4 5 6 
#
# 1 54.9167 18.7771 -9.1953 0.0000 0.0000 0.0000
# 2 18.7771 108.3628 26.8614 0.0000 0.0000 0.0000
# 3 -9.1953 26.8614 48.6003 0.0000 0.0000 0.0000
# 4 0.0000 0.0000 0.0000 35.8612 0.0000 0.0000
# 5 0.0000 0.0000 0.0000 0.0000 19.9545 0.0000
# 6 0.0000 0.0000 0.0000 0.0000 0.0000 25.7464
#
#
#
# Elastic Compliance Matrix: (Units=1/GPa)
#
#
# Indices 1 2 3 4 5 6 
#
# 1 0.021236 -0.005418 0.007013 0.000000 0.000000 0.000000
# 2 -0.005418 0.012076 -0.007699 0.000000 0.000000 0.000000
# 3 0.007013 -0.007699 0.026158 0.000000 0.000000 0.000000
# 4 0.000000 0.000000 0.000000 0.027885 0.000000 0.000000
# 5 0.000000 0.000000 0.000000 0.000000 0.050114 0.000000
# 6 0.000000 0.000000 0.000000 0.000000 0.000000 0.038840
#
#
# Mechanical properties :
#
#
# Convention : Reuss Voigt Hill
#
# Bulk Modulus (GPa) = 21.15946 31.64068 26.40007
# Shear Modulus (GPa) = 24.47707 28.00820 26.24264
#
# Velocity S-wave (km/s) = 3.26358 3.49106 3.37924
# Velocity P-wave (km/s) = 4.83825 5.47888 5.16850
#
# Compressibility (1/GPa) = 0.04726019
#
# Stress axis : x y z
#
# Youngs Moduli (GPa) = 47.08956 82.81137 38.22895
#
# Poissons Ratio (x) = 0.44868 -0.26808
# Poissons Ratio (y) = 0.25513 0.29434
# Poissons Ratio (z) = -0.33022 0.63759
#
# Static dielectric constant tensor:
#      x y z
#    x 1.870310 0.000000 0.000000 
#    y 0.000000 1.847670 0.000000 
#    z 0.000000 0.000000 2.054530 
# 
# From -- ./inp_files/12539.got.cif
#   From: 2010.05.17/outbox.cif.g08.bks.cpg/sg60_7_cif.got.tgz:12539.got - 2010.06.03 14:59:27.
