data_PCOD9456958
_publ_section_title
;
Structure prediction by ZEFSAII (Michael W. Deem and Ramdas Pophale) SiO2 
 PCOD9456958
Probable space group: P B C N
;
_chemical_formula_sum "Si O2"
_cell_formula_units_Z 56
_cell_length_a 28.137190
_cell_length_b 4.811521
_cell_length_c 17.161071
_cell_angle_alpha 90.000000
_cell_angle_beta 90.000000
_cell_angle_gamma 90.000000
_cell_volume 2323.311793
_symmetry_space_group_name_H-M "P B C N"
_symmetry_group_IT_number 60
_symmetry_cell_setting 'orthorhombic'
loop_
_space_group_symop_operation_xyz
x,y,z
1/2-x,1/2-y,1/2+z
1/2+x,1/2-y,-z
-x,y,1/2-z
-x,-y,-z
1/2+x,1/2+y,1/2-z
1/2-x,1/2+y,z
x,-y,1/2+z
loop_
_atom_site_type_symbol
_atom_site_label
_atom_site_fract_x
_atom_site_fract_y
_atom_site_fract_z
Si Si1 0.219526 0.637266 0.138143
Si Si2 0.361330 0.138197 0.253538
Si Si3 0.366868 0.635700 0.358809
Si Si4 0.716650 0.913457 0.042476
Si Si5 0.951557 0.861492 0.534518
Si Si6 0.009747 0.436296 0.160600
Si Si7 0.932559 0.923230 0.365952
O O1 0.267373 0.458625 0.147898
O O2 0.182242 0.539572 0.201340
O O3 0.203669 0.597439 0.049168
O O4 0.345550 0.371881 0.314786
O O5 0.395447 0.306950 0.195302
O O6 0.383495 0.873828 0.297500
O O7 0.327422 0.796830 0.409237
O O8 0.410974 0.516463 0.409060
O O9 0.737267 0.218512 0.056901
O O10 0.923462 0.816752 0.453609
O O11 0.972597 0.625051 0.591421
O O12 0.000000 0.000000 0.500000
O O13 0.019234 0.763453 0.158272
O O14 0.000000 0.358733 0.250000
O O15 0.055920 0.249221 0.137287
#
# Coordination Sequence:
#
# PCOD9456958 Si02
#       7
#     8   8   8   8   8   8   8
#     4  10  22  41  66  93 126 167 209 254 317 386
#     4  12  25  41  63  94 129 167 212 267 320 380
#     4  12  26  42  65  96 131 167 215 267 323 379
#     4  10  22  43  68  97 132 172 215 265 321 387
#     4  10  24  44  66  93 126 171 219 266 322 387
#     4  11  22  39  63  89 120 156 202 260 316 370
#     4  11  23  40  61  86 120 162 206 253 308 373
#
# _framework density 24.103522000000002
#
# number of rings (size 3 to 8) (size 9 to 14) (size 15 to 20)
#    0.000    1.143    0.000    6.000    0.000    9.143 
#    0.000    8.571    0.000    0.000    0.000    0.000 
#    0.000    0.000    0.000    0.000    0.000    0.000 
#
# Total GULP energy -312800.633388 kJ/mol
# GULP energy per Si atom -5585.725596 kJ/mol
# Density = 2.404866 g / cm^3
# Si number density = 24.103522 Si / 1000 Ang^3
#
#
#
# Elastic Constant Matrix: (Units=GPa)
#
#
# Indices 1 2 3 4 5 6 
#
# 1 54.6946 -10.1453 45.2479 0.0000 0.0000 0.0000
# 2 -10.1453 80.5068 29.6454 0.0000 0.0000 0.0000
# 3 45.2479 29.6454 142.0976 0.0000 0.0000 0.0000
# 4 0.0000 0.0000 0.0000 15.8012 0.0000 0.0000
# 5 0.0000 0.0000 0.0000 0.0000 42.4896 0.0000
# 6 0.0000 0.0000 0.0000 0.0000 0.0000 27.3690
#
#
#
# Elastic Compliance Matrix: (Units=1/GPa)
#
#
# Indices 1 2 3 4 5 6 
#
# 1 0.028469 0.007502 -0.010631 0.000000 0.000000 0.000000
# 2 0.007502 0.015432 -0.005608 0.000000 0.000000 0.000000
# 3 -0.010631 -0.005608 0.011593 0.000000 0.000000 0.000000
# 4 0.000000 0.000000 0.000000 0.063286 0.000000 0.000000
# 5 0.000000 0.000000 0.000000 0.000000 0.023535 0.000000
# 6 0.000000 0.000000 0.000000 0.000000 0.000000 0.036538
#
#
# Mechanical properties :
#
#
# Convention : Reuss Voigt Hill
#
# Bulk Modulus (GPa) = 26.30172 45.19943 35.75058
# Shear Modulus (GPa) = 23.92339 31.30202 27.61270
#
# Velocity S-wave (km/s) = 3.15386 3.60759 3.38833
# Velocity P-wave (km/s) = 4.91916 6.01214 5.49290
#
# Compressibility (1/GPa) = 0.03802032
#
# Stress axis : x y z
#
# Youngs Moduli (GPa) = 35.12531 64.80060 86.26202
#
# Poissons Ratio (x) = -0.48615 0.91702
# Poissons Ratio (y) = -0.26352 0.48380
# Poissons Ratio (z) = 0.37341 0.36343
#
# Static dielectric constant tensor:
#      x y z
#    x 1.949470 0.000000 0.000000 
#    y 0.000000 1.882410 0.000000 
#    z 0.000000 0.000000 1.932070 
# 
# From -- ./inp_files/18189.got.cif
#   From: 2010.05.17/outbox.cif.g08.bks.cpg/sg60_10_cif.got.tgz:18189.got - 2010.06.03 14:59:27.
