data_PCOD9456393
_publ_section_title
;
Structure prediction by ZEFSAII (Michael W. Deem and Ramdas Pophale) SiO2 
 PCOD9456393
Probable space group: P B C N
;
_chemical_formula_sum "Si O2"
_cell_formula_units_Z 48
_cell_length_a 8.471434
_cell_length_b 17.140251
_cell_length_c 15.154898
_cell_angle_alpha 90.000000
_cell_angle_beta 90.000000
_cell_angle_gamma 90.000000
_cell_volume 2200.529154
_symmetry_space_group_name_H-M "P B C N"
_symmetry_group_IT_number 60
_symmetry_cell_setting 'orthorhombic'
loop_
_space_group_symop_operation_xyz
x,y,z
1/2-x,1/2-y,1/2+z
1/2+x,1/2-y,-z
-x,y,1/2-z
-x,-y,-z
1/2+x,1/2+y,1/2-z
1/2-x,1/2+y,z
x,-y,1/2+z
loop_
_atom_site_type_symbol
_atom_site_label
_atom_site_fract_x
_atom_site_fract_y
_atom_site_fract_z
Si Si1 0.128563 0.410318 0.574100
Si Si2 0.000000 0.669020 0.250000
Si Si3 0.704271 0.433433 0.408845
Si Si4 0.018972 0.324696 0.094610
Si Si5 0.944840 0.837369 0.989057
Si Si6 0.000000 0.059790 0.750000
Si Si7 0.793569 0.804263 0.173989
O O1 0.046902 0.383290 0.665306
O O2 0.166800 0.501958 0.565010
O O3 0.034968 0.373469 0.491791
O O4 0.303766 0.375588 0.564598
O O5 0.855448 0.728416 0.226119
O O6 0.579383 0.398624 0.479903
O O7 0.600480 0.474153 0.330914
O O8 0.807811 0.356998 0.381575
O O9 0.887844 0.328188 0.169704
O O10 0.998944 0.234819 0.067621
O O11 0.865501 0.797609 0.075313
O O12 0.877374 0.117780 0.705730
#
# Coordination Sequence:
#
# PCOD9456393 Si02
#       7
#     8   4   8   8   8   4   8
#     4  11  24  41  66  97 134 179 214 280 340 388
#     4  11  22  42  62  98 141 170 218 290 333 390
#     4  11  23  43  66  96 140 170 222 272 335 401
#     4  11  22  40  69  99 117 178 236 273 317 396
#     4  10  21  41  67  95 124 177 226 262 327 390
#     4   9  22  40  60  86 135 180 200 274 341 392
#     4   9  20  38  63  88 126 165 224 279 318 379
#
# _framework density 21.812935
#
# number of rings (size 3 to 8) (size 9 to 14) (size 15 to 20)
#    0.000    1.667    1.667    3.000    4.667    2.000 
#    3.000    1.667    0.000    0.000    0.000    0.000 
#    0.000    0.000    0.000    0.000    0.000    0.000 
#
# Total GULP energy -267523.256679 kJ/mol
# GULP energy per Si atom -5573.401181 kJ/mol
# Density = 2.176329 g / cm^3
# Si number density = 21.812935 Si / 1000 Ang^3
#
#
#
# Elastic Constant Matrix: (Units=GPa)
#
#
# Indices 1 2 3 4 5 6 
#
# 1 94.7363 15.9738 47.5506 0.0000 0.0000 0.0000
# 2 15.9738 75.8967 9.6067 0.0000 0.0000 0.0000
# 3 47.5506 9.6067 45.3888 0.0000 0.0000 0.0000
# 4 0.0000 0.0000 0.0000 9.2588 0.0000 0.0000
# 5 0.0000 0.0000 0.0000 0.0000 41.1055 0.0000
# 6 0.0000 0.0000 0.0000 0.0000 0.0000 40.0929
#
#
#
# Elastic Compliance Matrix: (Units=1/GPa)
#
#
# Indices 1 2 3 4 5 6 
#
# 1 0.022498 -0.001800 -0.023189 0.000000 0.000000 0.000000
# 2 -0.001800 0.013683 -0.001010 0.000000 0.000000 0.000000
# 3 -0.023189 -0.001010 0.046539 0.000000 0.000000 0.000000
# 4 0.000000 0.000000 0.000000 0.108005 0.000000 0.000000
# 5 0.000000 0.000000 0.000000 0.000000 0.024328 0.000000
# 6 0.000000 0.000000 0.000000 0.000000 0.000000 0.024942
#
#
# Mechanical properties :
#
#
# Convention : Reuss Voigt Hill
#
# Bulk Modulus (GPa) = 32.55036 40.25378 36.40207
# Shear Modulus (GPa) = 16.54354 27.61749 22.08052
#
# Velocity S-wave (km/s) = 2.75695 3.56210 3.18507
# Velocity P-wave (km/s) = 5.00891 5.95082 5.50007
#
# Compressibility (1/GPa) = 0.03072162
#
# Stress axis : x y z
#
# Youngs Moduli (GPa) = 44.44807 73.08595 21.48741
#
# Poissons Ratio (x) = 0.13155 0.49827
# Poissons Ratio (y) = 0.08001 0.02171
# Poissons Ratio (z) = 1.03070 0.07383
#
# Static dielectric constant tensor:
#      x y z
#    x 1.811940 0.000000 0.000000 
#    y 0.000000 1.837090 0.000000 
#    z 0.000000 0.000000 1.873940 
# 
# From -- ./inp_files/15073.got.cif
#   From: 2010.05.17/outbox.cif.g08.bks.cpg/sg60_8_cif.got.tgz:15073.got - 2010.06.03 14:59:27.
