data_PCOD9456652
_publ_section_title
;
Structure prediction by ZEFSAII (Michael W. Deem and Ramdas Pophale) SiO2 
 PCOD9456652
Probable space group: P B C N
;
_chemical_formula_sum "Si O2"
_cell_formula_units_Z 32
_cell_length_a 9.281423
_cell_length_b 14.380796
_cell_length_c 10.276357
_cell_angle_alpha 90.000000
_cell_angle_beta 90.000000
_cell_angle_gamma 90.000000
_cell_volume 1371.629051
_symmetry_space_group_name_H-M "P B C N"
_symmetry_group_IT_number 60
_symmetry_cell_setting 'orthorhombic'
loop_
_space_group_symop_operation_xyz
x,y,z
1/2-x,1/2-y,1/2+z
1/2+x,1/2-y,-z
-x,y,1/2-z
-x,-y,-z
1/2+x,1/2+y,1/2-z
1/2-x,1/2+y,z
x,-y,1/2+z
loop_
_atom_site_type_symbol
_atom_site_label
_atom_site_fract_x
_atom_site_fract_y
_atom_site_fract_z
Si Si1 0.215521 0.539365 0.702126
Si Si2 0.968482 0.102491 0.385252
Si Si3 0.202579 0.411538 0.922900
Si Si4 0.367891 0.297839 0.351521
O O1 0.356219 0.476661 0.661095
O O2 0.140779 0.475022 0.809088
O O3 0.143870 0.566541 0.565838
O O4 0.260380 0.632711 0.777676
O O5 0.909435 0.158011 0.508741
O O6 0.000000 0.157913 0.250000
O O7 0.125758 0.066803 0.426531
O O8 0.187116 0.304698 0.883498
O O9 0.500000 0.290475 0.250000
#
# Coordination Sequence:
#
# PCOD9456652 Si02
#       4
#     8   8   8   8
#     4  11  22  41  66  97 125 166 219 269 310 385
#     4  10  22  37  63  96 125 159 216 267 313 375
#     4  11  24  38  67  93 126 169 214 268 322 373
#     4  12  24  41  64  98 133 164 212 272 325 382
#
# _framework density 23.329924999999999
#
# number of rings (size 3 to 8) (size 9 to 14) (size 15 to 20)
#    0.000    1.000    5.000    3.000    7.000    0.000 
#    0.000    1.250    0.000    0.000    0.000    0.000 
#    0.000    0.000    0.000    0.000    0.000    0.000 
#
# Total GULP energy -178798.541061 kJ/mol
# GULP energy per Si atom -5587.454408 kJ/mol
# Density = 2.327683 g / cm^3
# Si number density = 23.329925 Si / 1000 Ang^3
#
#
#
# Elastic Constant Matrix: (Units=GPa)
#
#
# Indices 1 2 3 4 5 6 
#
# 1 40.8586 26.3589 32.4193 0.0000 0.0000 0.0000
# 2 26.3589 172.8419 110.3647 0.0000 0.0000 0.0000
# 3 32.4193 110.3647 283.0240 0.0000 0.0000 0.0000
# 4 0.0000 0.0000 0.0000 32.7865 0.0000 0.0000
# 5 0.0000 0.0000 0.0000 0.0000 20.6061 0.0000
# 6 0.0000 0.0000 0.0000 0.0000 0.0000 12.0671
#
#
#
# Elastic Compliance Matrix: (Units=1/GPa)
#
#
# Indices 1 2 3 4 5 6 
#
# 1 0.028015 -0.002960 -0.002055 0.000000 0.000000 0.000000
# 2 -0.002960 0.008017 -0.002787 0.000000 0.000000 0.000000
# 3 -0.002055 -0.002787 0.004855 0.000000 0.000000 0.000000
# 4 0.000000 0.000000 0.000000 0.030500 0.000000 0.000000
# 5 0.000000 0.000000 0.000000 0.000000 0.048529 0.000000
# 6 0.000000 0.000000 0.000000 0.000000 0.000000 0.082870
#
#
# Mechanical properties :
#
#
# Convention : Reuss Voigt Hill
#
# Bulk Modulus (GPa) = 39.55254 92.77891 66.16573
# Shear Modulus (GPa) = 22.04408 34.93070 28.48739
#
# Velocity S-wave (km/s) = 3.07723 3.87363 3.49817
# Velocity P-wave (km/s) = 5.44207 7.73700 6.68870
#
# Compressibility (1/GPa) = 0.02528282
#
# Stress axis : x y z
#
# Youngs Moduli (GPa) = 35.69557 124.73992 205.95668
#
# Poissons Ratio (x) = 0.36928 0.42315
# Poissons Ratio (y) = 0.10567 0.57400
# Poissons Ratio (z) = 0.07334 0.34765
#
# Static dielectric constant tensor:
#      x y z
#    x 1.907470 0.000000 0.000000 
#    y 0.000000 1.836210 0.000000 
#    z 0.000000 0.000000 1.920610 
# 
# From -- ./inp_files/10593.got.cif
#   From: 2010.05.17/outbox.cif.g08.bks.cpg/sg60_6_cif.got.tgz:10593.got - 2010.06.03 14:59:27.
