data_PCOD9456855
_publ_section_title
;
Structure prediction by ZEFSAII (Michael W. Deem and Ramdas Pophale) SiO2 
 PCOD9456855
Probable space group: P B C N
;
_chemical_formula_sum "Si O2"
_cell_formula_units_Z 48
_cell_length_a 9.584811
_cell_length_b 13.755302
_cell_length_c 15.927649
_cell_angle_alpha 90.000000
_cell_angle_beta 90.000000
_cell_angle_gamma 90.000000
_cell_volume 2099.932620
_symmetry_space_group_name_H-M "P B C N"
_symmetry_group_IT_number 60
_symmetry_cell_setting 'orthorhombic'
loop_
_space_group_symop_operation_xyz
x,y,z
1/2-x,1/2-y,1/2+z
1/2+x,1/2-y,-z
-x,y,1/2-z
-x,-y,-z
1/2+x,1/2+y,1/2-z
1/2-x,1/2+y,z
x,-y,1/2+z
loop_
_atom_site_type_symbol
_atom_site_label
_atom_site_fract_x
_atom_site_fract_y
_atom_site_fract_z
Si Si1 0.657212 0.031213 0.984277
Si Si2 0.915908 0.007557 0.086814
Si Si3 0.876280 0.403304 0.305927
Si Si4 0.979907 0.784949 0.904971
Si Si5 0.739325 0.251570 0.025913
Si Si6 0.618248 0.332282 0.195045
O O1 0.673041 0.028329 0.883027
O O2 0.758189 0.985016 0.054936
O O3 0.694619 0.143383 0.001419
O O4 0.500000 0.000000 0.000000
O O5 0.946478 0.114887 0.123943
O O6 0.956357 0.924591 0.151334
O O7 0.000000 0.000000 0.000000
O O8 0.943227 0.302075 0.342259
O O9 0.744885 0.371682 0.250799
O O10 0.000000 0.448681 0.250000
O O11 0.094226 0.742402 0.970720
O O12 0.839368 0.812693 0.954756
O O13 0.681483 0.272286 0.118235
O O14 0.500000 0.280373 0.250000
#
# Coordination Sequence:
#
# PCOD9456855 Si02
#       6
#     8   8   8   8   8   8
#     4  10  23  42  66  95 124 174 223 262 325 407
#     4  11  22  41  65  95 131 171 222 268 326 402
#     4  11  22  41  67  93 133 172 213 279 339 384
#     4  10  22  40  66  94 126 175 224 264 328 415
#     4  10  22  40  66  90 127 171 221 264 325 412
#     4  12  25  42  63  98 135 171 218 286 338 387
#
# _framework density 22.857876000000001
#
# number of rings (size 3 to 8) (size 9 to 14) (size 15 to 20)
#    0.000    1.333    3.333    2.000    7.000    0.667 
#    0.000    4.167    0.000    0.000    0.000    0.000 
#    0.000    0.000    0.000    0.000    0.000    0.000 
#
# Total GULP energy -267996.513328 kJ/mol
# GULP energy per Si atom -5583.260694 kJ/mol
# Density = 2.280585 g / cm^3
# Si number density = 22.857876 Si / 1000 Ang^3
#
#
#
# Elastic Constant Matrix: (Units=GPa)
#
#
# Indices 1 2 3 4 5 6 
#
# 1 77.0722 -18.5958 10.3124 0.0000 0.0000 0.0000
# 2 -18.5958 30.3027 -8.0549 0.0000 0.0000 0.0000
# 3 10.3124 -8.0549 86.5198 0.0000 0.0000 0.0000
# 4 0.0000 0.0000 0.0000 9.0858 0.0000 0.0000
# 5 0.0000 0.0000 0.0000 0.0000 50.7130 0.0000
# 6 0.0000 0.0000 0.0000 0.0000 0.0000 30.2056
#
#
#
# Elastic Compliance Matrix: (Units=1/GPa)
#
#
# Indices 1 2 3 4 5 6 
#
# 1 0.015310 0.009136 -0.000974 0.000000 0.000000 0.000000
# 2 0.009136 0.039290 0.002569 0.000000 0.000000 0.000000
# 3 -0.000974 0.002569 0.011913 0.000000 0.000000 0.000000
# 4 0.000000 0.000000 0.000000 0.110062 0.000000 0.000000
# 5 0.000000 0.000000 0.000000 0.000000 0.019719 0.000000
# 6 0.000000 0.000000 0.000000 0.000000 0.000000 0.033106
#
#
# Mechanical properties :
#
#
# Convention : Reuss Voigt Hill
#
# Bulk Modulus (GPa) = 11.36699 17.91310 14.64005
# Shear Modulus (GPa) = 21.07367 32.01643 26.54505
#
# Velocity S-wave (km/s) = 3.03965 3.74662 3.41149
# Velocity P-wave (km/s) = 4.15968 5.15460 4.68364
#
# Compressibility (1/GPa) = 0.08797400
#
# Stress axis : x y z
#
# Youngs Moduli (GPa) = 65.31890 25.45196 83.93956
#
# Poissons Ratio (x) = -0.23253 0.08177
# Poissons Ratio (y) = -0.59675 -0.21563
# Poissons Ratio (z) = 0.06363 -0.06538
#
# Static dielectric constant tensor:
#      x y z
#    x 1.891150 0.000000 0.000000 
#    y 0.000000 1.930070 0.000000 
#    z 0.000000 0.000000 1.884700 
# 
# From -- ./inp_files/14983.got.cif
#   From: 2010.05.17/outbox.cif.g08.bks.cpg/sg60_8_cif.got.tgz:14983.got - 2010.06.03 14:59:27.
