data_PCOD9456302
_publ_section_title
;
Structure prediction by ZEFSAII (Michael W. Deem and Ramdas Pophale) SiO2 
 PCOD9456302
Probable space group: P B C N
;
_chemical_formula_sum "Si O2"
_cell_formula_units_Z 52
_cell_length_a 8.199206
_cell_length_b 20.698875
_cell_length_c 14.757728
_cell_angle_alpha 90.000000
_cell_angle_beta 90.000000
_cell_angle_gamma 90.000000
_cell_volume 2504.598069
_symmetry_space_group_name_H-M "P B C N"
_symmetry_group_IT_number 60
_symmetry_cell_setting 'orthorhombic'
loop_
_space_group_symop_operation_xyz
x,y,z
1/2-x,1/2-y,1/2+z
1/2+x,1/2-y,-z
-x,y,1/2-z
-x,-y,-z
1/2+x,1/2+y,1/2-z
1/2-x,1/2+y,z
x,-y,1/2+z
loop_
_atom_site_type_symbol
_atom_site_label
_atom_site_fract_x
_atom_site_fract_y
_atom_site_fract_z
Si Si1 0.830520 0.047443 0.709429
Si Si2 0.684364 0.339759 0.496734
Si Si3 0.690417 0.962216 0.404417
Si Si4 0.000000 0.346693 0.750000
Si Si5 0.531131 0.791387 0.946947
Si Si6 0.155383 0.898614 0.808659
Si Si7 0.669069 0.083906 0.529339
O O1 0.709891 0.038980 0.795833
O O2 0.769411 0.085772 0.622377
O O3 0.000000 0.072450 0.750000
O O4 0.859224 0.974768 0.673272
O O5 0.691055 0.405969 0.440888
O O6 0.573295 0.282507 0.462150
O O7 0.646538 0.359731 0.598875
O O8 0.865292 0.309510 0.501424
O O9 0.509982 0.941231 0.437684
O O10 0.725207 0.030788 0.454116
O O11 0.985656 0.305382 0.840753
O O12 0.832568 0.386811 0.736691
O O13 0.656087 0.845584 0.984916
O O14 0.000000 0.879205 0.750000
#
# Coordination Sequence:
#
# PCOD9456302 Si02
#       7
#     8   8   8   4   8   8   8
#     4  11  23  38  60  98 132 164 214 273 331 391
#     4  10  22  43  62  93 129 168 215 276 332 399
#     4  10  21  40  67  89 128 166 219 276 324 392
#     4  10  22  42  66  96 120 176 228 262 332 398
#     4  10  23  41  67  94 127 171 220 269 337 399
#     4  10  22  40  64  96 129 170 222 270 329 402
#     4  10  21  41  66  96 120 173 219 268 331 395
#
# _framework density 20.761814000000001
#
# number of rings (size 3 to 8) (size 9 to 14) (size 15 to 20)
#    0.000    1.846    1.538    1.385    6.462    1.846 
#    6.923    0.000    0.000    0.000    0.000    0.000 
#    0.000    0.000    0.000    0.000    0.000    0.000 
#
# Total GULP energy -290466.825338 kJ/mol
# GULP energy per Si atom -5585.900487 kJ/mol
# Density = 2.071456 g / cm^3
# Si number density = 20.761814 Si / 1000 Ang^3
#
#
#
# Elastic Constant Matrix: (Units=GPa)
#
#
# Indices 1 2 3 4 5 6 
#
# 1 64.1139 21.9478 31.3608 0.0000 0.0000 0.0000
# 2 21.9478 69.9706 22.5749 0.0000 0.0000 0.0000
# 3 31.3608 22.5749 84.3006 0.0000 0.0000 0.0000
# 4 0.0000 0.0000 0.0000 5.2614 0.0000 0.0000
# 5 0.0000 0.0000 0.0000 0.0000 23.5305 0.0000
# 6 0.0000 0.0000 0.0000 0.0000 0.0000 16.7841
#
#
#
# Elastic Compliance Matrix: (Units=1/GPa)
#
#
# Indices 1 2 3 4 5 6 
#
# 1 0.020171 -0.004276 -0.006359 0.000000 0.000000 0.000000
# 2 -0.004276 0.016550 -0.002841 0.000000 0.000000 0.000000
# 3 -0.006359 -0.002841 0.014989 0.000000 0.000000 0.000000
# 4 0.000000 0.000000 0.000000 0.190064 0.000000 0.000000
# 5 0.000000 0.000000 0.000000 0.000000 0.042498 0.000000
# 6 0.000000 0.000000 0.000000 0.000000 0.000000 0.059580
#
#
# Mechanical properties :
#
#
# Convention : Reuss Voigt Hill
#
# Bulk Modulus (GPa) = 40.39093 41.12800 40.75947
# Shear Modulus (GPa) = 13.19066 18.61529 15.90298
#
# Velocity S-wave (km/s) = 2.52332 2.99760 2.77062
# Velocity P-wave (km/s) = 5.29019 5.64209 5.46898
#
# Compressibility (1/GPa) = 0.02475803
#
# Stress axis : x y z
#
# Youngs Moduli (GPa) = 49.57531 60.42469 66.71650
#
# Poissons Ratio (x) = 0.25835 0.42425
# Poissons Ratio (y) = 0.21196 0.18956
# Poissons Ratio (z) = 0.31525 0.17168
#
# Static dielectric constant tensor:
#      x y z
#    x 1.766010 0.000000 0.000000 
#    y 0.000000 1.704400 0.000000 
#    z 0.000000 0.000000 1.707730 
# 
# From -- ./inp_files/15200.got.cif
#   From: 2010.05.17/outbox.cif.g08.bks.cpg/sg60_8_cif.got.tgz:15200.got - 2010.06.03 14:59:27.
