data_PCOD9456750
_publ_section_title
;
Structure prediction by ZEFSAII (Michael W. Deem and Ramdas Pophale) SiO2 
 PCOD9456750
Probable space group: P B C N
;
_chemical_formula_sum "Si O2"
_cell_formula_units_Z 64
_cell_length_a 10.771414
_cell_length_b 16.190871
_cell_length_c 17.920152
_cell_angle_alpha 90.000000
_cell_angle_beta 90.000000
_cell_angle_gamma 90.000000
_cell_volume 3125.248965
_symmetry_space_group_name_H-M "P B C N"
_symmetry_group_IT_number 60
_symmetry_cell_setting 'orthorhombic'
loop_
_space_group_symop_operation_xyz
x,y,z
1/2-x,1/2-y,1/2+z
1/2+x,1/2-y,-z
-x,y,1/2-z
-x,-y,-z
1/2+x,1/2+y,1/2-z
1/2-x,1/2+y,z
x,-y,1/2+z
loop_
_atom_site_type_symbol
_atom_site_label
_atom_site_fract_x
_atom_site_fract_y
_atom_site_fract_z
Si Si1 0.552985 0.590195 0.832191
Si Si2 0.554741 0.116036 0.319651
Si Si3 0.931116 0.664459 0.894560
Si Si4 0.808254 0.454078 0.276261
Si Si5 0.151932 0.399786 0.945924
Si Si6 0.313769 0.232106 0.931863
Si Si7 0.293009 0.559868 0.891365
Si Si8 0.320487 0.250077 0.096784
O O1 0.500000 0.609121 0.750000
O O2 0.676974 0.537257 0.819409
O O3 0.440115 0.549625 0.877333
O O4 0.603805 0.673539 0.869339
O O5 0.500000 0.166393 0.250000
O O6 0.454418 0.097002 0.383114
O O7 0.659894 0.169702 0.356118
O O8 0.615671 0.036895 0.283153
O O9 0.888433 0.613132 0.821855
O O10 0.824077 0.731197 0.906380
O O11 0.064439 0.707282 0.884342
O O12 0.910327 0.610132 0.971329
O O13 0.773830 0.437332 0.190264
O O14 0.237279 0.318416 0.925560
O O15 0.232367 0.484056 0.937288
O O16 0.227373 0.151061 0.925468
O O17 0.369893 0.236253 0.014414
#
# Coordination Sequence:
#
# PCOD9456750 Si02
#       8
#     8   8   8   8   8   8   8   8
#     4   9  20  42  66  87 130 170 217 263 320 383
#     4  12  22  38  66  92 129 159 214 268 312 381
#     4  10  23  42  62  89 134 164 213 266 314 389
#     4  10  23  41  63  96 123 169 218 262 326 385
#     4  11  24  41  63 102 125 169 222 257 323 391
#     4  11  24  40  65  92 133 169 211 265 323 377
#     4  11  23  42  68  94 132 173 209 273 322 378
#     4  10  22  39  60  94 121 171 215 258 319 379
#
# _framework density 20.478370000000002
#
# number of rings (size 3 to 8) (size 9 to 14) (size 15 to 20)
#    0.000    1.500    2.500    1.875    3.500    4.000 
#    0.000    5.625    0.000    0.000    0.000    0.000 
#    0.000    0.000    0.000    0.000    0.000    0.000 
#
# Total GULP energy -356980.046226 kJ/mol
# GULP energy per Si atom -5577.813222 kJ/mol
# Density = 2.043176 g / cm^3
# Si number density = 20.478370 Si / 1000 Ang^3
#
#
#
# Elastic Constant Matrix: (Units=GPa)
#
#
# Indices 1 2 3 4 5 6 
#
# 1 63.8010 16.4019 8.4599 0.0000 0.0000 0.0000
# 2 16.4019 72.8405 10.1283 0.0000 0.0000 0.0000
# 3 8.4599 10.1283 44.7679 0.0000 0.0000 0.0000
# 4 0.0000 0.0000 0.0000 27.8668 0.0000 0.0000
# 5 0.0000 0.0000 0.0000 0.0000 21.1058 0.0000
# 6 0.0000 0.0000 0.0000 0.0000 0.0000 15.6931
#
#
#
# Elastic Compliance Matrix: (Units=1/GPa)
#
#
# Indices 1 2 3 4 5 6 
#
# 1 0.016884 -0.003467 -0.002406 0.000000 0.000000 0.000000
# 2 -0.003467 0.014887 -0.002713 0.000000 0.000000 0.000000
# 3 -0.002406 -0.002713 0.023406 0.000000 0.000000 0.000000
# 4 0.000000 0.000000 0.000000 0.035885 0.000000 0.000000
# 5 0.000000 0.000000 0.000000 0.000000 0.047380 0.000000
# 6 0.000000 0.000000 0.000000 0.000000 0.000000 0.063722
#
#
# Mechanical properties :
#
#
# Convention : Reuss Voigt Hill
#
# Bulk Modulus (GPa) = 26.31293 27.93218 27.12256
# Shear Modulus (GPa) = 21.55130 22.69444 22.12287
#
# Velocity S-wave (km/s) = 3.24758 3.33260 3.29036
# Velocity P-wave (km/s) = 5.19032 5.33645 5.26389
#
# Compressibility (1/GPa) = 0.03800413
#
# Stress axis : x y z
#
# Youngs Moduli (GPa) = 59.22707 67.17463 42.72436
#
# Poissons Ratio (x) = 0.23292 0.10280
# Poissons Ratio (y) = 0.20536 0.11590
# Poissons Ratio (z) = 0.14251 0.18223
#
# Static dielectric constant tensor:
#      x y z
#    x 1.773750 0.000000 0.000000 
#    y 0.000000 1.728720 0.000000 
#    z 0.000000 0.000000 1.789570 
# 
# From -- ./inp_files/20217.got.cif
#   From: 2010.05.17/outbox.cif.g08.bks.cpg/sg60_11_cif.got.tgz:20217.got - 2010.06.03 14:59:27.
