data_PCOD9456609
_publ_section_title
;
Structure prediction by ZEFSAII (Michael W. Deem and Ramdas Pophale) SiO2 
 PCOD9456609
Probable space group: P B C N
;
_chemical_formula_sum "Si O2"
_cell_formula_units_Z 36
_cell_length_a 5.347931
_cell_length_b 24.735461
_cell_length_c 11.499153
_cell_angle_alpha 90.000000
_cell_angle_beta 90.000000
_cell_angle_gamma 90.000000
_cell_volume 1521.148651
_symmetry_space_group_name_H-M "P B C N"
_symmetry_group_IT_number 60
_symmetry_cell_setting 'orthorhombic'
loop_
_space_group_symop_operation_xyz
x,y,z
1/2-x,1/2-y,1/2+z
1/2+x,1/2-y,-z
-x,y,1/2-z
-x,-y,-z
1/2+x,1/2+y,1/2-z
1/2-x,1/2+y,z
x,-y,1/2+z
loop_
_atom_site_type_symbol
_atom_site_label
_atom_site_fract_x
_atom_site_fract_y
_atom_site_fract_z
Si Si1 0.881946 0.229470 0.869727
Si Si2 0.500000 0.691879 0.250000
Si Si3 0.443451 0.095360 0.873457
Si Si4 0.169912 0.333510 0.945063
Si Si5 0.948720 0.973224 0.374201
O O1 0.645052 0.266802 0.834695
O O2 0.000000 0.211281 0.750000
O O3 0.060207 0.273891 0.926462
O O4 0.858208 0.177857 0.950163
O O5 0.691525 0.655664 0.175485
O O6 0.500000 0.125936 0.750000
O O7 0.166906 0.071745 0.866946
O O8 0.665634 0.050139 0.875681
O O9 0.474307 0.127209 0.994865
O O10 0.000000 0.004019 0.250000
O O11 0.000000 0.000000 0.500000
#
# Coordination Sequence:
#
# PCOD9456609 Si02
#       5
#     8   4   8   8   8
#     4  10  22  36  57  83 119 171 220 269 316 377
#     4  10  22  40  52  84 126 166 224 274 312 388
#     4  10  24  40  69 100 132 164 218 272 318 400
#     4  11  22  38  61  87 127 170 221 269 331 370
#     4  10  22  46  70 102 131 166 211 267 337 410
#
# _framework density 23.666322999999998
#
# number of rings (size 3 to 8) (size 9 to 14) (size 15 to 20)
#    0.000    1.778    2.222    0.667    4.667    2.667 
#    2.000    0.000    0.000    0.000    0.000    0.000 
#    0.000    0.000    0.000    0.000    0.000    0.000 
#
# Total GULP energy -200786.083526 kJ/mol
# GULP energy per Si atom -5577.391209 kJ/mol
# Density = 2.361246 g / cm^3
# Si number density = 23.666323 Si / 1000 Ang^3
#
#
#
# Elastic Constant Matrix: (Units=GPa)
#
#
# Indices 1 2 3 4 5 6 
#
# 1 89.0219 7.6344 12.2005 0.0000 0.0000 0.0000
# 2 7.6344 10.4407 16.2107 0.0000 0.0000 0.0000
# 3 12.2005 16.2107 143.6817 0.0000 0.0000 0.0000
# 4 0.0000 0.0000 0.0000 0.5314 0.0000 0.0000
# 5 0.0000 0.0000 0.0000 0.0000 28.3087 0.0000
# 6 0.0000 0.0000 0.0000 0.0000 0.0000 21.8641
#
#
#
# Elastic Compliance Matrix: (Units=1/GPa)
#
#
# Indices 1 2 3 4 5 6 
#
# 1 0.011985 -0.008709 -0.000035 0.000000 0.000000 0.000000
# 2 -0.008709 0.122449 -0.013076 0.000000 0.000000 0.000000
# 3 -0.000035 -0.013076 0.008438 0.000000 0.000000 0.000000
# 4 0.000000 0.000000 0.000000 1.881657 0.000000 0.000000
# 5 0.000000 0.000000 0.000000 0.000000 0.035325 0.000000
# 6 0.000000 0.000000 0.000000 0.000000 0.000000 0.045737
#
#
# Mechanical properties :
#
#
# Convention : Reuss Voigt Hill
#
# Bulk Modulus (GPa) = 10.07737 35.02616 22.55177
# Shear Modulus (GPa) = 2.29115 23.94743 13.11929
#
# Velocity S-wave (km/s) = 0.98499 3.18445 2.35701
# Velocity P-wave (km/s) = 2.35817 5.32477 4.11789
#
# Compressibility (1/GPa) = 0.09923222
#
# Stress axis : x y z
#
# Youngs Moduli (GPa) = 83.43853 8.16669 118.51095
#
# Poissons Ratio (x) = 0.07112 0.00416
# Poissons Ratio (y) = 0.72667 1.54960
# Poissons Ratio (z) = 0.00293 0.10678
#
# Static dielectric constant tensor:
#      x y z
#    x 2.099010 0.000000 0.000000 
#    y 0.000000 1.877460 0.000000 
#    z 0.000000 0.000000 2.536170 
# 
# From -- ./inp_files/8971.got.cif
#   From: 2010.05.17/outbox.cif.g08.bks.cpg/sg60_5_cif.got.tgz:8971.got - 2010.06.03 14:59:27.
