data_PCOD9456362
_publ_section_title
;
Structure prediction by ZEFSAII (Michael W. Deem and Ramdas Pophale) SiO2 
 PCOD9456362
Probable space group: P B C N
;
_chemical_formula_sum "Si O2"
_cell_formula_units_Z 40
_cell_length_a 5.219219
_cell_length_b 12.122889
_cell_length_c 25.226701
_cell_angle_alpha 90.000000
_cell_angle_beta 90.000000
_cell_angle_gamma 90.000000
_cell_volume 1596.144144
_symmetry_space_group_name_H-M "P B C N"
_symmetry_group_IT_number 60
_symmetry_cell_setting 'orthorhombic'
loop_
_space_group_symop_operation_xyz
x,y,z
1/2-x,1/2-y,1/2+z
1/2+x,1/2-y,-z
-x,y,1/2-z
-x,-y,-z
1/2+x,1/2+y,1/2-z
1/2-x,1/2+y,z
x,-y,1/2+z
loop_
_atom_site_type_symbol
_atom_site_label
_atom_site_fract_x
_atom_site_fract_y
_atom_site_fract_z
Si Si1 0.608235 0.305487 0.915590
Si Si2 0.500000 0.273095 0.750000
Si Si3 0.071375 0.859055 0.030963
Si Si4 0.059780 0.426807 0.413714
Si Si5 0.500000 0.634163 0.750000
Si Si6 0.372406 0.548840 0.334806
O O1 0.875035 0.256264 0.937561
O O2 0.484818 0.195671 0.888955
O O3 0.582888 0.406324 0.876212
O O4 0.453444 0.331827 0.969465
O O5 0.634078 0.353531 0.707320
O O6 0.743714 0.199915 0.766022
O O7 0.815280 0.914131 0.051665
O O8 0.684634 0.067044 0.952373
O O9 0.125574 0.516934 0.369692
O O10 0.559893 0.558487 0.698987
#
# Coordination Sequence:
#
# PCOD9456362 Si02
#       6
#     8   4   8   8   4   8
#     4  10  21  44  66 103 149 196 228 288 353 414
#     4  11  28  55  74 102 150 183 232 329 366 428
#     4  10  21  41  64  98 156 187 226 296 340 411
#     4  10  22  41  63 103 142 184 242 285 335 431
#     4  11  28  53  72 108 142 175 250 309 364 442
#     4  11  26  45  79 108 132 200 239 293 376 427
#
# _framework density 25.060395
#
# number of rings (size 3 to 8) (size 9 to 14) (size 15 to 20)
#    1.200    0.400    2.000    1.200    2.800    6.400 
#    7.200    0.000    0.000    0.000    0.000    0.000 
#    0.000    0.000    0.000    0.000    0.000    0.000 
#
# Total GULP energy -223552.799175 kJ/mol
# GULP energy per Si atom -5588.819979 kJ/mol
# Density = 2.500336 g / cm^3
# Si number density = 25.060395 Si / 1000 Ang^3
#
#
#
# Elastic Constant Matrix: (Units=GPa)
#
#
# Indices 1 2 3 4 5 6 
#
# 1 159.9876 40.3916 26.8394 0.0000 0.0000 0.0000
# 2 40.3916 94.8232 41.4344 0.0000 0.0000 0.0000
# 3 26.8394 41.4344 90.4964 0.0000 0.0000 0.0000
# 4 0.0000 0.0000 0.0000 0.4435 0.0000 0.0000
# 5 0.0000 0.0000 0.0000 0.0000 17.9653 0.0000
# 6 0.0000 0.0000 0.0000 0.0000 0.0000 35.5847
#
#
#
# Elastic Compliance Matrix: (Units=1/GPa)
#
#
# Indices 1 2 3 4 5 6 
#
# 1 0.007061 -0.002616 -0.000896 0.000000 0.000000 0.000000
# 2 -0.002616 0.014153 -0.005704 0.000000 0.000000 0.000000
# 3 -0.000896 -0.005704 0.013928 0.000000 0.000000 0.000000
# 4 0.000000 0.000000 0.000000 2.254677 0.000000 0.000000
# 5 0.000000 0.000000 0.000000 0.000000 0.055663 0.000000
# 6 0.000000 0.000000 0.000000 0.000000 0.000000 0.028102
#
#
# Mechanical properties :
#
#
# Convention : Reuss Voigt Hill
#
# Bulk Modulus (GPa) = 59.84973 62.51532 61.18252
# Shear Modulus (GPa) = 2.08543 26.57482 14.33013
#
# Velocity S-wave (km/s) = 0.91322 3.25996 2.39388
# Velocity P-wave (km/s) = 5.00460 6.25858 5.66638
#
# Compressibility (1/GPa) = 0.01670851
#
# Stress axis : x y z
#
# Youngs Moduli (GPa) = 141.61559 70.65722 71.79956
#
# Poissons Ratio (x) = 0.18485 0.06436
# Poissons Ratio (y) = 0.37050 0.40955
# Poissons Ratio (z) = 0.12695 0.40303
#
# Static dielectric constant tensor:
#      x y z
#    x 1.911930 0.000000 0.000000 
#    y 0.000000 2.073970 0.000000 
#    z 0.000000 0.000000 1.989030 
# 
# From -- ./inp_files/24786.got.cif
#   From: 2010.05.17/outbox.cif.g08.bks.cpg/sg60_13_cif.got.tgz:24786.got - 2010.06.03 14:59:27.
