data_PCOD9456862
_publ_section_title
;
Structure prediction by ZEFSAII (Michael W. Deem and Ramdas Pophale) SiO2 
 PCOD9456862
Probable space group: P B C N
;
_chemical_formula_sum "Si O2"
_cell_formula_units_Z 48
_cell_length_a 7.222619
_cell_length_b 15.995467
_cell_length_c 17.602369
_cell_angle_alpha 90.000000
_cell_angle_beta 90.000000
_cell_angle_gamma 90.000000
_cell_volume 2033.586973
_symmetry_space_group_name_H-M "P B C N"
_symmetry_group_IT_number 60
_symmetry_cell_setting 'orthorhombic'
loop_
_space_group_symop_operation_xyz
x,y,z
1/2-x,1/2-y,1/2+z
1/2+x,1/2-y,-z
-x,y,1/2-z
-x,-y,-z
1/2+x,1/2+y,1/2-z
1/2-x,1/2+y,z
x,-y,1/2+z
loop_
_atom_site_type_symbol
_atom_site_label
_atom_site_fract_x
_atom_site_fract_y
_atom_site_fract_z
Si Si1 0.278191 0.465301 0.774001
Si Si2 0.630791 0.806014 0.062253
Si Si3 0.708216 0.277049 0.724070
Si Si4 0.667346 0.383279 0.306149
Si Si5 0.689818 0.988074 0.051862
Si Si6 0.706961 0.645761 0.965582
O O1 0.500000 0.454686 0.750000
O O2 0.206348 0.369604 0.773676
O O3 0.208056 0.535664 0.713710
O O4 0.215244 0.501254 0.856574
O O5 0.706368 0.767211 0.141161
O O6 0.416360 0.835877 0.065911
O O7 0.734273 0.890646 0.036788
O O8 0.640239 0.731462 0.001984
O O9 0.500000 0.287620 0.750000
O O10 0.775702 0.210019 0.785041
O O11 0.500000 0.394306 0.250000
O O12 0.603886 0.384869 0.391410
O O13 0.801547 0.068719 0.022996
O O14 0.500000 0.000000 0.000000
#
# Coordination Sequence:
#
# PCOD9456862 Si02
#       6
#     8   8   8   8   8   8
#     4  10  22  40  66  96 132 176 224 279 335 412
#     4  11  23  42  69  97 134 176 221 280 339 405
#     4  11  21  42  70  92 131 178 229 269 337 406
#     4  11  25  42  63  97 134 174 218 278 336 401
#     4  10  22  41  66  98 135 174 223 281 344 409
#     4  11  25  42  65 100 134 175 226 276 345 405
#
# _framework density 23.603611000000001
#
# number of rings (size 3 to 8) (size 9 to 14) (size 15 to 20)
#    0.000    1.333    5.000    0.000    2.333    1.333 
#    3.000    6.667    0.000    0.000    0.000    0.000 
#    0.000    0.000    0.000    0.000    0.000    0.000 
#
# Total GULP energy -267292.849447 kJ/mol
# GULP energy per Si atom -5568.601030 kJ/mol
# Density = 2.354989 g / cm^3
# Si number density = 23.603611 Si / 1000 Ang^3
#
#
#
# Elastic Constant Matrix: (Units=GPa)
#
#
# Indices 1 2 3 4 5 6 
#
# 1 58.4214 -4.5639 8.4504 0.0000 0.0000 0.0000
# 2 -4.5639 241.7753 59.3477 0.0000 0.0000 0.0000
# 3 8.4504 59.3477 140.5497 0.0000 0.0000 0.0000
# 4 0.0000 0.0000 0.0000 67.2210 0.0000 0.0000
# 5 0.0000 0.0000 0.0000 0.0000 30.5631 0.0000
# 6 0.0000 0.0000 0.0000 0.0000 0.0000 19.8849
#
#
#
# Elastic Compliance Matrix: (Units=1/GPa)
#
#
# Indices 1 2 3 4 5 6 
#
# 1 0.017359 0.000651 -0.001319 0.000000 0.000000 0.000000
# 2 0.000651 0.004639 -0.001998 0.000000 0.000000 0.000000
# 3 -0.001319 -0.001998 0.008038 0.000000 0.000000 0.000000
# 4 0.000000 0.000000 0.000000 0.014876 0.000000 0.000000
# 5 0.000000 0.000000 0.000000 0.000000 0.032719 0.000000
# 6 0.000000 0.000000 0.000000 0.000000 0.000000 0.050289
#
#
# Mechanical properties :
#
#
# Convention : Reuss Voigt Hill
#
# Bulk Modulus (GPa) = 40.47804 63.02387 51.75096
# Shear Modulus (GPa) = 35.33930 48.70129 42.02030
#
# Velocity S-wave (km/s) = 3.87356 4.54728 4.22388
# Velocity P-wave (km/s) = 6.09855 7.37084 6.76467
#
# Compressibility (1/GPa) = 0.02470475
#
# Stress axis : x y z
#
# Youngs Moduli (GPa) = 57.60823 215.57360 124.41168
#
# Poissons Ratio (x) = -0.14042 0.16406
# Poissons Ratio (y) = -0.03752 0.24856
# Poissons Ratio (z) = 0.07597 0.43070
#
# Static dielectric constant tensor:
#      x y z
#    x 1.999570 0.000000 0.000000 
#    y 0.000000 2.097810 0.000000 
#    z 0.000000 0.000000 1.832420 
# 
# From -- ./inp_files/19310.got.cif
#   From: 2010.05.17/outbox.cif.g08.bks.cpg/sg60_10_cif.got.tgz:19310.got - 2010.06.03 14:59:27.
