data_PCOD9456119
_publ_section_title
;
Structure prediction by ZEFSAII (Michael W. Deem and Ramdas Pophale) SiO2 
 PCOD9456119
Probable space group: P B C N
;
_chemical_formula_sum "Si O2"
_cell_formula_units_Z 48
_cell_length_a 5.196235
_cell_length_b 13.721711
_cell_length_c 23.711177
_cell_angle_alpha 90.000000
_cell_angle_beta 90.000000
_cell_angle_gamma 90.000000
_cell_volume 1690.636202
_symmetry_space_group_name_H-M "P B C N"
_symmetry_group_IT_number 60
_symmetry_cell_setting 'orthorhombic'
loop_
_space_group_symop_operation_xyz
x,y,z
1/2-x,1/2-y,1/2+z
1/2+x,1/2-y,-z
-x,y,1/2-z
-x,-y,-z
1/2+x,1/2+y,1/2-z
1/2-x,1/2+y,z
x,-y,1/2+z
loop_
_atom_site_type_symbol
_atom_site_label
_atom_site_fract_x
_atom_site_fract_y
_atom_site_fract_z
Si Si1 0.848548 0.899143 0.194759
Si Si2 0.960697 0.601006 0.380239
Si Si3 0.631402 0.634308 0.192564
Si Si4 0.064452 0.782635 0.571604
Si Si5 0.253672 0.557675 0.477560
Si Si6 0.828841 0.610004 0.865769
O O1 0.037482 0.859096 0.146208
O O2 0.000000 0.863486 0.250000
O O3 0.552770 0.874728 0.180893
O O4 0.856714 0.016793 0.199481
O O5 0.844363 0.667621 0.429513
O O6 0.069450 0.652370 0.324711
O O7 0.204042 0.548141 0.410583
O O8 0.797329 0.505900 0.368775
O O9 0.500000 0.670570 0.250000
O O10 0.490832 0.681741 0.137649
O O11 0.870450 0.830070 0.527115
O O12 0.077621 0.666807 0.578490
O O13 0.500000 0.500000 0.500000
O O14 0.000000 0.500000 0.500000
#
# Coordination Sequence:
#
# PCOD9456119 Si02
#       6
#     8   8   8   8   8   8
#     4  10  21  39  60  89 130 178 223 272 323 376
#     4  10  22  43  66  97 135 175 216 274 339 389
#     4   9  20  37  62  94 131 177 224 268 322 390
#     4  11  23  41  67  96 129 176 223 267 334 393
#     4  11  23  43  73  94 123 163 210 273 338 398
#     4  11  24  39  64  93 133 173 220 273 325 392
#
# _framework density 28.391680999999998
#
# number of rings (size 3 to 8) (size 9 to 14) (size 15 to 20)
#    0.000    1.667    3.333    0.500    4.667    2.000 
#    0.000    1.667    0.000    0.000    0.000    0.000 
#    0.000    0.000    0.000    0.000    0.000    0.000 
#
# Total GULP energy -267412.547806 kJ/mol
# GULP energy per Si atom -5571.094746 kJ/mol
# Density = 2.832706 g / cm^3
# Si number density = 28.391681 Si / 1000 Ang^3
#
#
#
# Elastic Constant Matrix: (Units=GPa)
#
#
# Indices 1 2 3 4 5 6 
#
# 1 153.5257 40.7586 17.6283 0.0000 0.0000 0.0000
# 2 40.7586 133.3355 0.5995 0.0000 0.0000 0.0000
# 3 17.6283 0.5995 81.6359 0.0000 0.0000 0.0000
# 4 0.0000 0.0000 0.0000 30.7492 0.0000 0.0000
# 5 0.0000 0.0000 0.0000 0.0000 40.1693 0.0000
# 6 0.0000 0.0000 0.0000 0.0000 0.0000 1.2563
#
#
#
# Elastic Compliance Matrix: (Units=1/GPa)
#
#
# Indices 1 2 3 4 5 6 
#
# 1 0.007281 -0.002219 -0.001556 0.000000 0.000000 0.000000
# 2 -0.002219 0.008176 0.000419 0.000000 0.000000 0.000000
# 3 -0.001556 0.000419 0.012582 0.000000 0.000000 0.000000
# 4 0.000000 0.000000 0.000000 0.032521 0.000000 0.000000
# 5 0.000000 0.000000 0.000000 0.000000 0.024895 0.000000
# 6 0.000000 0.000000 0.000000 0.000000 0.000000 0.795999
#
#
# Mechanical properties :
#
#
# Convention : Reuss Voigt Hill
#
# Bulk Modulus (GPa) = 46.88556 54.05221 50.46889
# Shear Modulus (GPa) = 5.58487 35.06901 20.32694
#
# Velocity S-wave (km/s) = 1.40405 3.51833 2.67862
# Velocity P-wave (km/s) = 4.37929 5.96526 5.23271
#
# Compressibility (1/GPa) = 0.02132853
#
# Stress axis : x y z
#
# Youngs Moduli (GPa) = 137.33846 122.30560 79.47586
#
# Poissons Ratio (x) = 0.27137 0.12367
# Poissons Ratio (y) = 0.30472 -0.03331
# Poissons Ratio (z) = 0.21370 -0.05126
#
# Static dielectric constant tensor:
#      x y z
#    x 2.885210 0.000000 0.000000 
#    y 0.000000 2.570910 0.000000 
#    z 0.000000 0.000000 2.259090 
# 
# From -- ./inp_files/24867.got.cif
#   From: 2010.05.17/outbox.cif.g08.bks.cpg/sg60_13_cif.got.tgz:24867.got - 2010.06.03 14:59:27.
