data_PCOD9456795
_publ_section_title
;
Structure prediction by ZEFSAII (Michael W. Deem and Ramdas Pophale) SiO2 
 PCOD9456795
Probable space group: P B C N
;
_chemical_formula_sum "Si O2"
_cell_formula_units_Z 32
_cell_length_a 5.197296
_cell_length_b 19.176807
_cell_length_c 15.228472
_cell_angle_alpha 90.000000
_cell_angle_beta 90.000000
_cell_angle_gamma 90.000000
_cell_volume 1517.784377
_symmetry_space_group_name_H-M "P B C N"
_symmetry_group_IT_number 60
_symmetry_cell_setting 'orthorhombic'
loop_
_space_group_symop_operation_xyz
x,y,z
1/2-x,1/2-y,1/2+z
1/2+x,1/2-y,-z
-x,y,1/2-z
-x,-y,-z
1/2+x,1/2+y,1/2-z
1/2-x,1/2+y,z
x,-y,1/2+z
loop_
_atom_site_type_symbol
_atom_site_label
_atom_site_fract_x
_atom_site_fract_y
_atom_site_fract_z
Si Si1 0.439115 0.013085 0.850761
Si Si2 0.810453 0.065275 0.999007
Si Si3 0.756234 0.846661 0.193202
Si Si4 0.570936 0.287041 0.020260
O O1 0.500000 0.992130 0.750000
O O2 0.223070 0.072592 0.837565
O O3 0.366708 0.949837 0.915269
O O4 0.647983 0.056865 0.908824
O O5 0.960595 0.137548 0.007519
O O6 0.000000 0.000000 0.000000
O O7 0.500000 0.841111 0.250000
O O8 0.769065 0.798120 0.109485
O O9 0.000000 0.829127 0.250000
O O10 0.306374 0.243975 0.037049
#
# Coordination Sequence:
#
# PCOD9456795 Si02
#       4
#     8   8   8   8
#     4  10  22  39  69 103 134 175 229 299 345 398
#     4  11  23  41  70  99 134 176 239 283 345 419
#     4  11  22  41  70 100 127 175 236 277 330 415
#     4  12  25  43  68  98 139 185 223 280 351 412
#
# _framework density 21.083364
#
# number of rings (size 3 to 8) (size 9 to 14) (size 15 to 20)
#    0.000    1.000    2.500    6.000    3.500    0.000 
#    0.000    1.250   11.000    0.000    0.000    0.000 
#    0.000    0.000    0.000    0.000    0.000    0.000 
#
# Total GULP energy -178445.734445 kJ/mol
# GULP energy per Si atom -5576.429201 kJ/mol
# Density = 2.103538 g / cm^3
# Si number density = 21.083364 Si / 1000 Ang^3
#
#
#
# Elastic Constant Matrix: (Units=GPa)
#
#
# Indices 1 2 3 4 5 6 
#
# 1 102.3974 43.1460 43.2421 0.0000 0.0000 0.0000
# 2 43.1460 92.1896 29.1066 0.0000 0.0000 0.0000
# 3 43.2421 29.1066 135.4011 0.0000 0.0000 0.0000
# 4 0.0000 0.0000 0.0000 19.6213 0.0000 0.0000
# 5 0.0000 0.0000 0.0000 0.0000 40.6824 0.0000
# 6 0.0000 0.0000 0.0000 0.0000 0.0000 52.1745
#
#
#
# Elastic Compliance Matrix: (Units=1/GPa)
#
#
# Indices 1 2 3 4 5 6 
#
# 1 0.013288 -0.005235 -0.003119 0.000000 0.000000 0.000000
# 2 -0.005235 0.013699 -0.001273 0.000000 0.000000 0.000000
# 3 -0.003119 -0.001273 0.008655 0.000000 0.000000 0.000000
# 4 0.000000 0.000000 0.000000 0.050965 0.000000 0.000000
# 5 0.000000 0.000000 0.000000 0.000000 0.024581 0.000000
# 6 0.000000 0.000000 0.000000 0.000000 0.000000 0.019166
#
#
# Mechanical properties :
#
#
# Convention : Reuss Voigt Hill
#
# Bulk Modulus (GPa) = 61.01253 62.33083 61.67168
# Shear Modulus (GPa) = 32.24336 36.79520 34.51928
#
# Velocity S-wave (km/s) = 3.91490 4.18212 4.05072
# Velocity P-wave (km/s) = 7.03113 7.27656 7.15490
#
# Compressibility (1/GPa) = 0.01639008
#
# Stress axis : x y z
#
# Youngs Moduli (GPa) = 75.25312 72.99795 115.53886
#
# Poissons Ratio (x) = 0.38211 0.36032
# Poissons Ratio (y) = 0.39392 0.14709
# Poissons Ratio (z) = 0.23468 0.09293
#
# Static dielectric constant tensor:
#      x y z
#    x 1.869710 0.000000 0.000000 
#    y 0.000000 1.775100 0.000000 
#    z 0.000000 0.000000 1.874470 
# 
# From -- ./inp_files/13571.got.cif
#   From: 2010.05.17/outbox.cif.g08.bks.cpg/sg60_7_cif.got.tgz:13571.got - 2010.06.03 14:59:27.
