data_PCOD9456790
_publ_section_title
;
Structure prediction by ZEFSAII (Michael W. Deem and Ramdas Pophale) SiO2 
 PCOD9456790
Probable space group: P B C N
;
_chemical_formula_sum "Si O2"
_cell_formula_units_Z 48
_cell_length_a 7.910035
_cell_length_b 15.535757
_cell_length_c 17.883573
_cell_angle_alpha 90.000000
_cell_angle_beta 90.000000
_cell_angle_gamma 90.000000
_cell_volume 2197.683344
_symmetry_space_group_name_H-M "P B C N"
_symmetry_group_IT_number 60
_symmetry_cell_setting 'orthorhombic'
loop_
_space_group_symop_operation_xyz
x,y,z
1/2-x,1/2-y,1/2+z
1/2+x,1/2-y,-z
-x,y,1/2-z
-x,-y,-z
1/2+x,1/2+y,1/2-z
1/2-x,1/2+y,z
x,-y,1/2+z
loop_
_atom_site_type_symbol
_atom_site_label
_atom_site_fract_x
_atom_site_fract_y
_atom_site_fract_z
Si Si1 0.311398 0.474991 0.784101
Si Si2 0.659749 0.796412 0.062673
Si Si3 0.693925 0.284622 0.724946
Si Si4 0.666200 0.370090 0.301084
Si Si5 0.825076 0.978094 0.042224
Si Si6 0.780850 0.639021 0.961964
O O1 0.500000 0.463553 0.750000
O O2 0.232108 0.380349 0.780642
O O3 0.227403 0.551379 0.735720
O O4 0.331289 0.503096 0.869484
O O5 0.708722 0.766019 0.146387
O O6 0.765794 0.879399 0.034803
O O7 0.464295 0.825661 0.061934
O O8 0.692413 0.713549 0.010679
O O9 0.500000 0.289561 0.750000
O O10 0.773358 0.226073 0.788217
O O11 0.500000 0.372763 0.250000
O O12 0.667488 0.381923 0.389214
O O13 0.700841 0.050430 0.007699
O O14 0.000000 0.000000 0.000000
#
# Coordination Sequence:
#
# PCOD9456790 Si02
#       6
#     8   8   8   8   8   8
#     4  10  22  39  67  96 128 174 226 275 339 418
#     4  12  26  44  71 102 142 184 234 294 353 426
#     4  11  22  44  70  95 134 181 230 283 349 415
#     4  11  24  43  68  99 134 179 233 288 349 415
#     4  12  24  43  70 100 138 183 227 290 357 418
#     4  12  27  44  68 105 141 184 239 288 360 419
#
# _framework density 21.841180999999999
#
# number of rings (size 3 to 8) (size 9 to 14) (size 15 to 20)
#    0.000    0.667    5.000    3.500    2.333    1.333 
#    0.000    2.500    0.000    0.000    0.000    0.000 
#    0.000    0.000    0.000    0.000    0.000    0.000 
#
# Total GULP energy -268048.953357 kJ/mol
# GULP energy per Si atom -5584.353195 kJ/mol
# Density = 2.179147 g / cm^3
# Si number density = 21.841181 Si / 1000 Ang^3
#
#
#
# Elastic Constant Matrix: (Units=GPa)
#
#
# Indices 1 2 3 4 5 6 
#
# 1 35.1566 5.4347 -4.8163 0.0000 0.0000 0.0000
# 2 5.4347 163.4338 38.9183 0.0000 0.0000 0.0000
# 3 -4.8163 38.9183 141.4535 0.0000 0.0000 0.0000
# 4 0.0000 0.0000 0.0000 23.8776 0.0000 0.0000
# 5 0.0000 0.0000 0.0000 0.0000 23.3029 0.0000
# 6 0.0000 0.0000 0.0000 0.0000 0.0000 31.7217
#
#
#
# Elastic Compliance Matrix: (Units=1/GPa)
#
#
# Indices 1 2 3 4 5 6 
#
# 1 0.028824 -0.001276 0.001332 0.000000 0.000000 0.000000
# 2 -0.001276 0.006604 -0.001860 0.000000 0.000000 0.000000
# 3 0.001332 -0.001860 0.007627 0.000000 0.000000 0.000000
# 4 0.000000 0.000000 0.000000 0.041880 0.000000 0.000000
# 5 0.000000 0.000000 0.000000 0.000000 0.042913 0.000000
# 6 0.000000 0.000000 0.000000 0.000000 0.000000 0.031524
#
#
# Mechanical properties :
#
#
# Convention : Reuss Voigt Hill
#
# Bulk Modulus (GPa) = 25.35034 46.56857 35.95946
# Shear Modulus (GPa) = 28.38830 35.81426 32.10128
#
# Velocity S-wave (km/s) = 3.60913 4.05379 3.83790
# Velocity P-wave (km/s) = 5.38513 6.57865 6.01158
#
# Compressibility (1/GPa) = 0.03944720
#
# Stress axis : x y z
#
# Youngs Moduli (GPa) = 34.69337 151.42027 131.11838
#
# Poissons Ratio (x) = 0.19318 -0.17470
# Poissons Ratio (y) = 0.04426 0.24394
# Poissons Ratio (z) = -0.04623 0.28171
#
# Static dielectric constant tensor:
#      x y z
#    x 1.869860 0.000000 0.000000 
#    y 0.000000 1.888260 0.000000 
#    z 0.000000 0.000000 1.742470 
# 
# From -- ./inp_files/19309.got.cif
#   From: 2010.05.17/outbox.cif.g08.bks.cpg/sg60_10_cif.got.tgz:19309.got - 2010.06.03 14:59:27.
