data_PCOD9456564
_publ_section_title
;
Structure prediction by ZEFSAII (Michael W. Deem and Ramdas Pophale) SiO2 
 PCOD9456564
Probable space group: P B C N
;
_chemical_formula_sum "Si O2"
_cell_formula_units_Z 48
_cell_length_a 11.915248
_cell_length_b 8.763001
_cell_length_c 23.262024
_cell_angle_alpha 90.000000
_cell_angle_beta 90.000000
_cell_angle_gamma 90.000000
_cell_volume 2428.865392
_symmetry_space_group_name_H-M "P B C N"
_symmetry_group_IT_number 60
_symmetry_cell_setting 'orthorhombic'
loop_
_space_group_symop_operation_xyz
x,y,z
1/2-x,1/2-y,1/2+z
1/2+x,1/2-y,-z
-x,y,1/2-z
-x,-y,-z
1/2+x,1/2+y,1/2-z
1/2-x,1/2+y,z
x,-y,1/2+z
loop_
_atom_site_type_symbol
_atom_site_label
_atom_site_fract_x
_atom_site_fract_y
_atom_site_fract_z
Si Si1 0.896604 0.948106 0.789938
Si Si2 0.664354 0.382113 0.518593
Si Si3 0.897830 0.535194 0.542834
Si Si4 0.533861 0.124288 0.153735
Si Si5 0.663962 0.801806 0.765658
Si Si6 0.479793 0.559014 0.591509
O O1 0.862924 0.122172 0.772324
O O2 0.936011 0.958089 0.855668
O O3 0.000000 0.901602 0.750000
O O4 0.790595 0.841140 0.780322
O O5 0.792789 0.426756 0.528188
O O6 0.642933 0.206550 0.533012
O O7 0.584090 0.481702 0.559649
O O8 0.619473 0.414726 0.454339
O O9 0.937746 0.505170 0.607973
O O10 0.000000 0.500000 0.500000
O O11 0.418939 0.110643 0.190063
O O12 0.629700 0.147270 0.201624
O O13 0.518951 0.279538 0.117317
#
# Coordination Sequence:
#
# PCOD9456564 Si02
#       6
#     8   8   8   8   8   8
#     4  11  23  43  68  98 129 173 218 275 332 393
#     4  11  26  42  66  99 132 178 224 274 332 398
#     4  12  26  42  69  99 133 175 225 272 336 394
#     4  10  21  46  66  93 134 176 217 277 332 396
#     4  10  23  43  69  94 133 173 218 275 336 391
#     4  10  22  45  69  91 136 175 221 274 334 392
#
# _framework density 19.762312999999999
#
# number of rings (size 3 to 8) (size 9 to 14) (size 15 to 20)
#    0.000    1.333    5.000    1.000    7.000    2.667 
#    3.000    0.000    0.000    0.000    0.000    0.000 
#    0.000    0.000    0.000    0.000    0.000    0.000 
#
# Total GULP energy -268438.117817 kJ/mol
# GULP energy per Si atom -5592.460788 kJ/mol
# Density = 1.971733 g / cm^3
# Si number density = 19.762313 Si / 1000 Ang^3
#
#
#
# Elastic Constant Matrix: (Units=GPa)
#
#
# Indices 1 2 3 4 5 6 
#
# 1 122.5477 26.4086 42.8992 0.0000 0.0000 0.0000
# 2 26.4086 27.7865 18.8167 0.0000 0.0000 0.0000
# 3 42.8992 18.8167 139.0372 0.0000 0.0000 0.0000
# 4 0.0000 0.0000 0.0000 19.4693 0.0000 0.0000
# 5 0.0000 0.0000 0.0000 0.0000 15.3512 0.0000
# 6 0.0000 0.0000 0.0000 0.0000 0.0000 33.1574
#
#
#
# Elastic Compliance Matrix: (Units=1/GPa)
#
#
# Indices 1 2 3 4 5 6 
#
# 1 0.010812 -0.008825 -0.002141 0.000000 0.000000 0.000000
# 2 -0.008825 0.046824 -0.003614 0.000000 0.000000 0.000000
# 3 -0.002141 -0.003614 0.008342 0.000000 0.000000 0.000000
# 4 0.000000 0.000000 0.000000 0.051363 0.000000 0.000000
# 5 0.000000 0.000000 0.000000 0.000000 0.065141 0.000000
# 6 0.000000 0.000000 0.000000 0.000000 0.000000 0.030159
#
#
# Mechanical properties :
#
#
# Convention : Reuss Voigt Hill
#
# Bulk Modulus (GPa) = 27.16206 51.73560 39.44883
# Shear Modulus (GPa) = 19.67930 27.01204 23.34567
#
# Velocity S-wave (km/s) = 3.15905 3.70110 3.44077
# Velocity P-wave (km/s) = 5.20388 6.67083 5.98249
#
# Compressibility (1/GPa) = 0.03681607
#
# Stress axis : x y z
#
# Youngs Moduli (GPa) = 92.49369 21.35672 119.87309
#
# Poissons Ratio (x) = 0.18848 0.25671
# Poissons Ratio (y) = 0.81628 0.43321
# Poissons Ratio (z) = 0.19807 0.07718
#
# Static dielectric constant tensor:
#      x y z
#    x 1.668030 0.000000 0.000000 
#    y 0.000000 1.686590 0.000000 
#    z 0.000000 0.000000 1.683720 
# 
# From -- ./inp_files/24208.got.cif
#   From: 2010.05.17/outbox.cif.g08.bks.cpg/sg60_13_cif.got.tgz:24208.got - 2010.06.03 14:59:27.
