data_PCOD9456213
_publ_section_title
;
Structure prediction by ZEFSAII (Michael W. Deem and Ramdas Pophale) SiO2 
 PCOD9456213
Probable space group: P B C N
;
_chemical_formula_sum "Si O2"
_cell_formula_units_Z 20
_cell_length_a 7.455592
_cell_length_b 20.206168
_cell_length_c 5.407565
_cell_angle_alpha 90.000000
_cell_angle_beta 90.000000
_cell_angle_gamma 90.000000
_cell_volume 814.643960
_symmetry_space_group_name_H-M "P B C N"
_symmetry_group_IT_number 60
_symmetry_cell_setting 'orthorhombic'
loop_
_space_group_symop_operation_xyz
x,y,z
1/2-x,1/2-y,1/2+z
1/2+x,1/2-y,-z
-x,y,1/2-z
-x,-y,-z
1/2+x,1/2+y,1/2-z
1/2-x,1/2+y,z
x,-y,1/2+z
loop_
_atom_site_type_symbol
_atom_site_label
_atom_site_fract_x
_atom_site_fract_y
_atom_site_fract_z
Si Si1 0.000000 0.274344 0.250000
Si Si2 0.211591 0.968977 0.726716
Si Si3 0.648671 0.341860 0.069221
O O1 0.827692 0.318758 0.202754
O O2 0.948304 0.223611 0.467257
O O3 0.211460 0.892228 0.644984
O O4 0.000000 0.983238 0.750000
O O5 0.287313 0.010816 0.494007
O O6 0.500000 0.373737 0.250000
#
# Coordination Sequence:
#
# PCOD9456213 Si02
#       3
#     4   8   8
#     4  12  26  42  66 104 134 186 230 292 354 418
#     4  10  21  39  69 101 133 183 235 285 349 417
#     4  12  24  43  68  99 139 178 236 289 350 419
#
# _framework density 24.550604
#
# number of rings (size 3 to 8) (size 9 to 14) (size 15 to 20)
#    0.000    0.800    6.000    3.600    0.000    0.000 
#    0.000    2.000    0.000    0.000    0.000    2.800 
#    0.000    0.000    0.000    0.000    0.000    0.000 
#
# Total GULP energy -111925.870908 kJ/mol
# GULP energy per Si atom -5596.293545 kJ/mol
# Density = 2.449473 g / cm^3
# Si number density = 24.550604 Si / 1000 Ang^3
#
#
#
# Elastic Constant Matrix: (Units=GPa)
#
#
# Indices 1 2 3 4 5 6 
#
# 1 109.7623 26.9963 10.5692 0.0000 0.0000 0.0000
# 2 26.9963 124.3819 30.6139 0.0000 0.0000 0.0000
# 3 10.5692 30.6139 119.2788 0.0000 0.0000 0.0000
# 4 0.0000 0.0000 0.0000 57.0986 0.0000 0.0000
# 5 0.0000 0.0000 0.0000 0.0000 12.3559 0.0000
# 6 0.0000 0.0000 0.0000 0.0000 0.0000 177.7204
#
#
#
# Elastic Compliance Matrix: (Units=1/GPa)
#
#
# Indices 1 2 3 4 5 6 
#
# 1 0.009637 -0.002008 -0.000338 0.000000 0.000000 0.000000
# 2 -0.002008 0.009000 -0.002132 0.000000 0.000000 0.000000
# 3 -0.000338 -0.002132 0.008961 0.000000 0.000000 0.000000
# 4 0.000000 0.000000 0.000000 0.017514 0.000000 0.000000
# 5 0.000000 0.000000 0.000000 0.000000 0.080933 0.000000
# 6 0.000000 0.000000 0.000000 0.000000 0.000000 0.005627
#
#
# Mechanical properties :
#
#
# Convention : Reuss Voigt Hill
#
# Bulk Modulus (GPa) = 53.64619 54.42022 54.03320
# Shear Modulus (GPa) = 34.04993 68.45122 51.25057
#
# Velocity S-wave (km/s) = 3.72819 5.28604 4.57393
# Velocity P-wave (km/s) = 6.35856 7.71174 7.06761
#
# Compressibility (1/GPa) = 0.01864065
#
# Stress axis : x y z
#
# Youngs Moduli (GPa) = 103.76509 111.10586 111.59555
#
# Poissons Ratio (x) = 0.22314 0.03777
# Poissons Ratio (y) = 0.20840 0.23793
# Poissons Ratio (z) = 0.03512 0.23689
#
# Static dielectric constant tensor:
#      x y z
#    x 1.912950 0.000000 0.000000 
#    y 0.000000 1.930760 0.000000 
#    z 0.000000 0.000000 2.055690 
# 
# From -- ./inp_files/158.got.cif
#   From: 2010.05.17/outbox.cif.g08.bks.cpg/sg60_1_cif.got.tgz:158.got - 2010.06.03 14:59:27.
