data_PCOD9456323
_publ_section_title
;
Structure prediction by ZEFSAII (Michael W. Deem and Ramdas Pophale) SiO2 
 PCOD9456323
Probable space group: P B C N
;
_chemical_formula_sum "Si O2"
_cell_formula_units_Z 60
_cell_length_a 5.197395
_cell_length_b 18.527709
_cell_length_c 27.993364
_cell_angle_alpha 90.000000
_cell_angle_beta 90.000000
_cell_angle_gamma 90.000000
_cell_volume 2695.644000
_symmetry_space_group_name_H-M "P B C N"
_symmetry_group_IT_number 60
_symmetry_cell_setting 'orthorhombic'
loop_
_space_group_symop_operation_xyz
x,y,z
1/2-x,1/2-y,1/2+z
1/2+x,1/2-y,-z
-x,y,1/2-z
-x,-y,-z
1/2+x,1/2+y,1/2-z
1/2-x,1/2+y,z
x,-y,1/2+z
loop_
_atom_site_type_symbol
_atom_site_label
_atom_site_fract_x
_atom_site_fract_y
_atom_site_fract_z
Si Si1 0.499842 0.205431 0.006453
Si Si2 0.529055 0.608271 0.148964
Si Si3 0.000000 0.815762 0.750000
Si Si4 0.007935 0.360052 0.407538
Si Si5 0.462214 0.985027 0.637650
Si Si6 0.240119 0.072049 0.724793
Si Si7 0.322981 0.227738 0.392882
Si Si8 0.813040 0.785183 0.320712
O O1 0.554421 0.188872 0.061535
O O2 0.204477 0.230120 0.003372
O O3 0.566433 0.151828 0.962951
O O4 0.549700 0.632233 0.204502
O O5 0.272946 0.569856 0.129797
O O6 0.572056 0.681879 0.119498
O O7 0.770368 0.556405 0.139599
O O8 0.808020 0.759723 0.777000
O O9 0.998541 0.444160 0.395305
O O10 0.850619 0.318564 0.365429
O O11 0.269361 0.312324 0.403940
O O12 0.373860 0.018422 0.688034
O O13 0.500000 0.101869 0.750000
O O14 0.089998 0.139455 0.700922
O O15 0.000000 0.033382 0.750000
O O16 0.487607 0.231255 0.345055
#
# Coordination Sequence:
#
# PCOD9456323 Si02
#       8
#     8   8   4   8   8   8   8   8
#     4  10  21  40  73 108 138 170 226 291 364 405
#     4  12  28  46  65  97 142 185 231 281 341 412
#     4  12  26  46  64 100 140 192 230 280 356 406
#     4  10  23  46  72 103 134 178 232 291 346 412
#     4  11  28  46  66  94 142 182 228 284 346 403
#     4  11  25  41  65  91 130 174 235 276 332 394
#     4  11  24  43  73 105 138 180 234 293 344 417
#     4  11  23  41  66 101 134 174 228 288 332 403
#
# _framework density 22.258133000000001
#
# number of rings (size 3 to 8) (size 9 to 14) (size 15 to 20)
#    0.000    1.067    3.333    1.600   12.133    1.067 
#    0.000    1.333    0.000    0.000    0.000    0.000 
#    0.000    0.000    0.000    0.000    0.000    0.000 
#
# Total GULP energy -334232.664187 kJ/mol
# GULP energy per Si atom -5570.544403 kJ/mol
# Density = 2.220747 g / cm^3
# Si number density = 22.258133 Si / 1000 Ang^3
#
#
#
# Elastic Constant Matrix: (Units=GPa)
#
#
# Indices 1 2 3 4 5 6 
#
# 1 54.9286 26.0501 13.3261 0.0000 0.0000 0.0000
# 2 26.0501 113.1972 14.3918 0.0000 0.0000 0.0000
# 3 13.3261 14.3918 82.0725 0.0000 0.0000 0.0000
# 4 0.0000 0.0000 0.0000 9.6804 0.0000 0.0000
# 5 0.0000 0.0000 0.0000 0.0000 29.2874 0.0000
# 6 0.0000 0.0000 0.0000 0.0000 0.0000 38.9327
#
#
#
# Elastic Compliance Matrix: (Units=1/GPa)
#
#
# Indices 1 2 3 4 5 6 
#
# 1 0.020971 -0.004493 -0.002617 0.000000 0.000000 0.000000
# 2 -0.004493 0.009998 -0.001024 0.000000 0.000000 0.000000
# 3 -0.002617 -0.001024 0.012789 0.000000 0.000000 0.000000
# 4 0.000000 0.000000 0.000000 0.103301 0.000000 0.000000
# 5 0.000000 0.000000 0.000000 0.000000 0.034144 0.000000
# 6 0.000000 0.000000 0.000000 0.000000 0.000000 0.025685
#
#
# Mechanical properties :
#
#
# Convention : Reuss Voigt Hill
#
# Bulk Modulus (GPa) = 36.37680 39.74826 38.06253
# Shear Modulus (GPa) = 21.52188 28.67545 25.09867
#
# Velocity S-wave (km/s) = 3.11291 3.59320 3.36165
# Velocity P-wave (km/s) = 5.41285 5.92549 5.67496
#
# Compressibility (1/GPa) = 0.02749005
#
# Stress axis : x y z
#
# Youngs Moduli (GPa) = 47.68393 100.01637 78.19338
#
# Poissons Ratio (x) = 0.44942 0.20465
# Poissons Ratio (y) = 0.21426 0.08004
# Poissons Ratio (z) = 0.12480 0.10238
#
# Static dielectric constant tensor:
#      x y z
#    x 1.895830 0.000000 0.000000 
#    y 0.000000 1.849820 0.000000 
#    z 0.000000 0.000000 1.874310 
# 
# From -- ./inp_files/24978.got.cif
#   From: 2010.05.17/outbox.cif.g08.bks.cpg/sg60_13_cif.got.tgz:24978.got - 2010.06.03 14:59:27.
