data_PCOD9456069
_publ_section_title
;
Structure prediction by ZEFSAII (Michael W. Deem and Ramdas Pophale) SiO2 
 PCOD9456069
Probable space group: P B C N
;
_chemical_formula_sum "Si O2"
_cell_formula_units_Z 60
_cell_length_a 22.270556
_cell_length_b 13.042386
_cell_length_c 9.589746
_cell_angle_alpha 90.000000
_cell_angle_beta 90.000000
_cell_angle_gamma 90.000000
_cell_volume 2785.449014
_symmetry_space_group_name_H-M "P B C N"
_symmetry_group_IT_number 60
_symmetry_cell_setting 'orthorhombic'
loop_
_space_group_symop_operation_xyz
x,y,z
1/2-x,1/2-y,1/2+z
1/2+x,1/2-y,-z
-x,y,1/2-z
-x,-y,-z
1/2+x,1/2+y,1/2-z
1/2-x,1/2+y,z
x,-y,1/2+z
loop_
_atom_site_type_symbol
_atom_site_label
_atom_site_fract_x
_atom_site_fract_y
_atom_site_fract_z
Si Si1 0.627810 0.696095 0.016208
Si Si2 0.312351 0.011888 0.893054
Si Si3 0.500000 0.981229 0.250000
Si Si4 0.454414 0.474904 0.877236
Si Si5 0.073131 0.417483 0.510691
Si Si6 0.243863 0.914532 0.665868
Si Si7 0.155814 0.909802 0.269891
Si Si8 0.728817 0.780472 0.200715
O O1 0.604223 0.808195 0.979375
O O2 0.632356 0.632720 0.875523
O O3 0.580756 0.632975 0.109376
O O4 0.692879 0.712631 0.087188
O O5 0.375938 0.001114 0.966215
O O6 0.266730 0.038428 0.020344
O O7 0.310163 0.114702 0.796045
O O8 0.294468 0.923301 0.787111
O O9 0.469915 0.916820 0.375105
O O10 0.455859 0.051334 0.156887
O O11 0.500000 0.475523 0.750000
O O12 0.400207 0.557887 0.864497
O O13 0.500000 0.500000 0.000000
O O14 0.228543 0.794283 0.665398
O O15 0.192181 0.987161 0.727820
O O16 0.204482 0.826313 0.323068
#
# Coordination Sequence:
#
# PCOD9456069 Si02
#       8
#     8   8   4   8   8   8   8   8
#     4  11  23  45  69 100 141 184 238 301 353 444
#     4  10  22  36  61  90 127 164 207 274 343 417
#     4  10  22  42  64  92 124 180 222 298 344 410
#     4  12  26  46  70  98 142 201 249 295 360 434
#     4  10  22  40  65  91 131 168 231 282 355 412
#     4  11  21  39  64  95 132 169 215 276 358 420
#     4  11  24  42  70 100 142 182 234 300 359 431
#     4  10  21  38  64 102 129 171 220 284 359 414
#
# _framework density 21.540513000000001
#
# number of rings (size 3 to 8) (size 9 to 14) (size 15 to 20)
#    0.000    1.333    2.667    3.200    2.800    2.133 
#    2.400    1.333    0.000    0.000    0.000    0.000 
#    0.000    0.000    0.000    0.000    0.000    0.000 
#
# Total GULP energy -334719.332804 kJ/mol
# GULP energy per Si atom -5578.655547 kJ/mol
# Density = 2.149149 g / cm^3
# Si number density = 21.540513 Si / 1000 Ang^3
#
#
#
# Elastic Constant Matrix: (Units=GPa)
#
#
# Indices 1 2 3 4 5 6 
#
# 1 84.7160 26.2819 30.4240 0.0000 0.0000 0.0000
# 2 26.2819 67.3205 17.0812 0.0000 0.0000 0.0000
# 3 30.4240 17.0812 102.0118 0.0000 0.0000 0.0000
# 4 0.0000 0.0000 0.0000 23.5675 0.0000 0.0000
# 5 0.0000 0.0000 0.0000 0.0000 43.7765 0.0000
# 6 0.0000 0.0000 0.0000 0.0000 0.0000 32.6226
#
#
#
# Elastic Compliance Matrix: (Units=1/GPa)
#
#
# Indices 1 2 3 4 5 6 
#
# 1 0.014561 -0.004786 -0.003541 0.000000 0.000000 0.000000
# 2 -0.004786 0.017087 -0.001434 0.000000 0.000000 0.000000
# 3 -0.003541 -0.001434 0.011099 0.000000 0.000000 0.000000
# 4 0.000000 0.000000 0.000000 0.042431 0.000000 0.000000
# 5 0.000000 0.000000 0.000000 0.000000 0.022843 0.000000
# 6 0.000000 0.000000 0.000000 0.000000 0.000000 0.030654
#
#
# Mechanical properties :
#
#
# Convention : Reuss Voigt Hill
#
# Bulk Modulus (GPa) = 43.05797 44.62473 43.84135
# Shear Modulus (GPa) = 30.13181 32.01073 31.07127
#
# Velocity S-wave (km/s) = 3.74417 3.85914 3.80209
# Velocity P-wave (km/s) = 6.22290 6.37330 6.29855
#
# Compressibility (1/GPa) = 0.02322451
#
# Stress axis : x y z
#
# Youngs Moduli (GPa) = 68.67810 58.52564 90.09846
#
# Poissons Ratio (x) = 0.28010 0.31906
# Poissons Ratio (y) = 0.32869 0.12917
# Poissons Ratio (z) = 0.24320 0.08391
#
# Static dielectric constant tensor:
#      x y z
#    x 1.852270 0.000000 0.000000 
#    y 0.000000 1.800720 0.000000 
#    z 0.000000 0.000000 1.789280 
# 
# From -- ./inp_files/7933.got.cif
#   From: 2010.05.17/outbox.cif.g08.bks.cpg/sg60_4_cif.got.tgz:7933.got - 2010.06.03 14:59:27.
