data_PCOD9456156
_publ_section_title
;
Structure prediction by ZEFSAII (Michael W. Deem and Ramdas Pophale) SiO2 
 PCOD9456156
Probable space group: P B C N
;
_chemical_formula_sum "Si O2"
_cell_formula_units_Z 32
_cell_length_a 7.893292
_cell_length_b 9.547147
_cell_length_c 14.837886
_cell_angle_alpha 90.000000
_cell_angle_beta 90.000000
_cell_angle_gamma 90.000000
_cell_volume 1118.159631
_symmetry_space_group_name_H-M "P B C N"
_symmetry_group_IT_number 60
_symmetry_cell_setting 'orthorhombic'
loop_
_space_group_symop_operation_xyz
x,y,z
1/2-x,1/2-y,1/2+z
1/2+x,1/2-y,-z
-x,y,1/2-z
-x,-y,-z
1/2+x,1/2+y,1/2-z
1/2-x,1/2+y,z
x,-y,1/2+z
loop_
_atom_site_type_symbol
_atom_site_label
_atom_site_fract_x
_atom_site_fract_y
_atom_site_fract_z
Si Si1 0.208840 0.311604 0.860101
Si Si2 0.469747 0.869417 0.139945
Si Si3 0.267946 0.131379 0.152138
Si Si4 0.455931 0.457179 0.400011
O O1 0.370881 0.219747 0.892353
O O2 0.191018 0.319558 0.752618
O O3 0.275485 0.466773 0.881772
O O4 0.058976 0.209277 0.890772
O O5 0.500000 0.871973 0.250000
O O6 0.313434 0.769608 0.108408
O O7 0.413471 0.027208 0.115016
O O8 0.103601 0.026552 0.160014
O O9 0.500000 0.500000 0.500000
#
# Coordination Sequence:
#
# PCOD9456156 Si02
#       4
#     8   8   8   8
#     4  10  22  43  65  95 134 178 229 281 344 421
#     4   9  19  34  57  90 120 157 214 273 327 390
#     4  10  21  39  63  92 125 169 224 278 336 407
#     4  11  25  44  65  97 138 178 228 292 353 422
#
# _framework density 28.618455999999998
#
# number of rings (size 3 to 8) (size 9 to 14) (size 15 to 20)
#    0.000    2.000    0.000    5.250    0.000    8.000 
#    0.000    2.500    0.000    0.000    0.000    0.000 
#    0.000    0.000    0.000    0.000    0.000    0.000 
#
# Total GULP energy -179011.523840 kJ/mol
# GULP energy per Si atom -5594.110120 kJ/mol
# Density = 2.855332 g / cm^3
# Si number density = 28.618456 Si / 1000 Ang^3
#
#
#
# Elastic Constant Matrix: (Units=GPa)
#
#
# Indices 1 2 3 4 5 6 
#
# 1 115.8761 16.0115 0.7222 0.0000 0.0000 0.0000
# 2 16.0115 231.9478 -14.3348 0.0000 0.0000 0.0000
# 3 0.7222 -14.3348 69.7279 0.0000 0.0000 0.0000
# 4 0.0000 0.0000 0.0000 24.8279 0.0000 0.0000
# 5 0.0000 0.0000 0.0000 0.0000 17.2173 0.0000
# 6 0.0000 0.0000 0.0000 0.0000 0.0000 72.6083
#
#
#
# Elastic Compliance Matrix: (Units=1/GPa)
#
#
# Indices 1 2 3 4 5 6 
#
# 1 0.008716 -0.000615 -0.000217 0.000000 0.000000 0.000000
# 2 -0.000615 0.004410 0.000913 0.000000 0.000000 0.000000
# 3 -0.000217 0.000913 0.014531 0.000000 0.000000 0.000000
# 4 0.000000 0.000000 0.000000 0.040277 0.000000 0.000000
# 5 0.000000 0.000000 0.000000 0.000000 0.058081 0.000000
# 6 0.000000 0.000000 0.000000 0.000000 0.000000 0.013773
#
#
# Mechanical properties :
#
#
# Convention : Reuss Voigt Hill
#
# Bulk Modulus (GPa) = 35.94498 46.92773 41.43635
# Shear Modulus (GPa) = 33.57963 50.60757 42.09360
#
# Velocity S-wave (km/s) = 3.42914 4.20974 3.83933
# Velocity P-wave (km/s) = 5.31658 6.32950 5.84502
#
# Compressibility (1/GPa) = 0.02782030
#
# Stress axis : x y z
#
# Youngs Moduli (GPa) = 114.72823 226.74707 68.81650
#
# Poissons Ratio (x) = 0.13947 0.01491
# Poissons Ratio (y) = 0.07057 -0.06283
# Poissons Ratio (z) = 0.02486 -0.20703
#
# Static dielectric constant tensor:
#      x y z
#    x 2.526750 0.000000 0.000000 
#    y 0.000000 2.208940 0.000000 
#    z 0.000000 0.000000 2.163060 
# 
# From -- ./inp_files/19798.got.cif
#   From: 2010.05.17/outbox.cif.g08.bks.cpg/sg60_10_cif.got.tgz:19798.got - 2010.06.03 14:59:27.
