data_PCOD9456187
_publ_section_title
;
Structure prediction by ZEFSAII (Michael W. Deem and Ramdas Pophale) SiO2 
 PCOD9456187
Probable space group: P B C N
;
_chemical_formula_sum "Si O2"
_cell_formula_units_Z 44
_cell_length_a 5.073616
_cell_length_b 27.025881
_cell_length_c 14.417623
_cell_angle_alpha 90.000000
_cell_angle_beta 90.000000
_cell_angle_gamma 90.000000
_cell_volume 1976.929216
_symmetry_space_group_name_H-M "P B C N"
_symmetry_group_IT_number 60
_symmetry_cell_setting 'orthorhombic'
loop_
_space_group_symop_operation_xyz
x,y,z
1/2-x,1/2-y,1/2+z
1/2+x,1/2-y,-z
-x,y,1/2-z
-x,-y,-z
1/2+x,1/2+y,1/2-z
1/2-x,1/2+y,z
x,-y,1/2+z
loop_
_atom_site_type_symbol
_atom_site_label
_atom_site_fract_x
_atom_site_fract_y
_atom_site_fract_z
Si Si1 0.500000 0.785012 0.750000
Si Si2 0.020683 0.470516 0.853658
Si Si3 0.286091 0.380188 0.462877
Si Si4 0.184088 0.233189 0.938468
Si Si5 0.253539 0.054624 0.531310
Si Si6 0.688274 0.374850 0.829889
O O1 0.625532 0.756202 0.663030
O O2 0.289068 0.822207 0.704657
O O3 0.915561 0.414966 0.842021
O O4 0.000000 0.491582 0.750000
O O5 0.268496 0.462852 0.923068
O O6 0.833846 0.505780 0.913522
O O7 0.271772 0.325410 0.422334
O O8 0.499648 0.418992 0.425719
O O9 0.408708 0.369823 0.565701
O O10 0.002394 0.407172 0.463172
O O11 0.435361 0.255278 0.993800
O O12 0.500000 0.394665 0.750000
#
# Coordination Sequence:
#
# PCOD9456187 Si02
#       6
#     4   8   8   8   8   8
#     4  12  26  44  66 108 130 176 232 288 340 410
#     4  10  21  39  65  97 127 169 215 271 327 392
#     4  11  23  44  66  92 135 176 211 274 330 398
#     4  12  26  45  72 100 137 181 226 284 348 401
#     4  10  24  42  64  95 131 170 219 260 331 402
#     4  11  22  38  70  98 131 167 225 283 339 390
#
# _framework density 22.256739
#
# number of rings (size 3 to 8) (size 9 to 14) (size 15 to 20)
#    0.000    1.091    2.727    3.273    5.091    8.000 
#    3.273    0.000    0.000    0.000    0.000    0.000 
#    0.000    0.000    0.000    0.000    0.000    0.000 
#
# Total GULP energy -245573.057576 kJ/mol
# GULP energy per Si atom -5581.205854 kJ/mol
# Density = 2.220608 g / cm^3
# Si number density = 22.256739 Si / 1000 Ang^3
#
#
#
# Elastic Constant Matrix: (Units=GPa)
#
#
# Indices 1 2 3 4 5 6 
#
# 1 93.6831 26.7928 -1.1056 0.0000 0.0000 0.0000
# 2 26.7928 120.3364 38.8875 0.0000 0.0000 0.0000
# 3 -1.1056 38.8875 101.3493 0.0000 0.0000 0.0000
# 4 0.0000 0.0000 0.0000 34.6584 0.0000 0.0000
# 5 0.0000 0.0000 0.0000 0.0000 13.0066 0.0000
# 6 0.0000 0.0000 0.0000 0.0000 0.0000 68.0089
#
#
#
# Elastic Compliance Matrix: (Units=1/GPa)
#
#
# Indices 1 2 3 4 5 6 
#
# 1 0.011541 -0.002980 0.001269 0.000000 0.000000 0.000000
# 2 -0.002980 0.010256 -0.003968 0.000000 0.000000 0.000000
# 3 0.001269 -0.003968 0.011403 0.000000 0.000000 0.000000
# 4 0.000000 0.000000 0.000000 0.028853 0.000000 0.000000
# 5 0.000000 0.000000 0.000000 0.000000 0.076884 0.000000
# 6 0.000000 0.000000 0.000000 0.000000 0.000000 0.014704
#
#
# Mechanical properties :
#
#
# Convention : Reuss Voigt Hill
#
# Bulk Modulus (GPa) = 45.77950 49.39091 47.58520
# Shear Modulus (GPa) = 29.02267 39.85439 34.43853
#
# Velocity S-wave (km/s) = 3.61500 4.23622 3.93788
# Velocity P-wave (km/s) = 6.16748 6.79463 6.48864
#
# Compressibility (1/GPa) = 0.02184384
#
# Stress axis : x y z
#
# Youngs Moduli (GPa) = 86.64400 97.50724 87.69576
#
# Poissons Ratio (x) = 0.29056 -0.11131
# Poissons Ratio (y) = 0.25819 0.34794
# Poissons Ratio (z) = -0.10997 0.38687
#
# Static dielectric constant tensor:
#      x y z
#    x 1.890000 0.000000 0.000000 
#    y 0.000000 1.807710 0.000000 
#    z 0.000000 0.000000 1.936570 
# 
# From -- ./inp_files/13893.got.cif
#   From: 2010.05.17/outbox.cif.g08.bks.cpg/sg60_7_cif.got.tgz:13893.got - 2010.06.03 14:59:27.
