data_PCOD9456986
_publ_section_title
;
Structure prediction by ZEFSAII (Michael W. Deem and Ramdas Pophale) SiO2 
 PCOD9456986
Probable space group: P B C N
;
_chemical_formula_sum "Si O2"
_cell_formula_units_Z 48
_cell_length_a 24.572990
_cell_length_b 14.401548
_cell_length_c 4.930745
_cell_angle_alpha 90.000000
_cell_angle_beta 90.000000
_cell_angle_gamma 90.000000
_cell_volume 1744.936886
_symmetry_space_group_name_H-M "P B C N"
_symmetry_group_IT_number 60
_symmetry_cell_setting 'orthorhombic'
loop_
_space_group_symop_operation_xyz
x,y,z
1/2-x,1/2-y,1/2+z
1/2+x,1/2-y,-z
-x,y,1/2-z
-x,-y,-z
1/2+x,1/2+y,1/2-z
1/2-x,1/2+y,z
x,-y,1/2+z
loop_
_atom_site_type_symbol
_atom_site_label
_atom_site_fract_x
_atom_site_fract_y
_atom_site_fract_z
Si Si1 0.500000 0.825982 0.250000
Si Si2 0.265603 0.667668 0.050218
Si Si3 0.878655 0.851322 0.268486
Si Si4 0.207316 0.015134 0.554094
Si Si5 0.500000 0.305356 0.250000
Si Si6 0.830669 0.298643 0.142501
Si Si7 0.899344 0.559163 0.965480
O O1 0.484976 0.758700 0.495902
O O2 0.545203 0.891033 0.380680
O O3 0.266642 0.566167 0.826251
O O4 0.269605 0.759029 0.274068
O O5 0.333155 0.683614 0.951453
O O6 0.198898 0.647872 0.102104
O O7 0.854566 0.951255 0.363914
O O8 0.869168 0.777996 0.511686
O O9 0.941906 0.855389 0.186055
O O10 0.213795 0.079003 0.277303
O O11 0.855284 0.370201 0.348867
O O12 0.897350 0.467243 0.778434
#
# Coordination Sequence:
#
# PCOD9456986 Si02
#       7
#     4   8   8   8   4   8   8
#     4  12  24  49  76 101 148 192 244 304 367 433
#     4  11  24  43  72 103 141 194 240 299 371 434
#     4  11  24  45  70 106 144 189 240 300 368 437
#     4  10  22  41  68  99 139 181 226 290 353 421
#     4  12  26  43  80 109 142 196 248 300 361 449
#     4  12  24  44  73  99 146 188 246 298 367 442
#     4  12  28  46  71 108 146 189 246 305 370 439
#
# _framework density 27.508157000000001
#
# number of rings (size 3 to 8) (size 9 to 14) (size 15 to 20)
#    0.000    0.667    5.000    2.500    2.333    2.667 
#    0.000    3.333    0.000    0.000    0.000    0.000 
#    0.000    0.000    0.000    0.000    0.000    0.000 
#
# Total GULP energy -267225.785521 kJ/mol
# GULP energy per Si atom -5567.203865 kJ/mol
# Density = 2.744555 g / cm^3
# Si number density = 27.508157 Si / 1000 Ang^3
#
#
#
# Elastic Constant Matrix: (Units=GPa)
#
#
# Indices 1 2 3 4 5 6 
#
# 1 196.4684 58.8756 12.2097 0.0000 0.0000 0.0000
# 2 58.8756 138.0349 5.5837 0.0000 0.0000 0.0000
# 3 12.2097 5.5837 196.8188 0.0000 0.0000 0.0000
# 4 0.0000 0.0000 0.0000 52.5871 0.0000 0.0000
# 5 0.0000 0.0000 0.0000 0.0000 33.7437 0.0000
# 6 0.0000 0.0000 0.0000 0.0000 0.0000 95.4888
#
#
#
# Elastic Compliance Matrix: (Units=1/GPa)
#
#
# Indices 1 2 3 4 5 6 
#
# 1 0.005853 -0.002484 -0.000293 0.000000 0.000000 0.000000
# 2 -0.002484 0.008308 -0.000082 0.000000 0.000000 0.000000
# 3 -0.000293 -0.000082 0.005101 0.000000 0.000000 0.000000
# 4 0.000000 0.000000 0.000000 0.019016 0.000000 0.000000
# 5 0.000000 0.000000 0.000000 0.000000 0.029635 0.000000
# 6 0.000000 0.000000 0.000000 0.000000 0.000000 0.010472
#
#
# Mechanical properties :
#
#
# Convention : Reuss Voigt Hill
#
# Bulk Modulus (GPa) = 73.83230 76.07333 74.95281
# Shear Modulus (GPa) = 56.42261 66.67413 61.54837
#
# Velocity S-wave (km/s) = 4.53385 4.92855 4.73531
# Velocity P-wave (km/s) = 7.36927 7.75257 7.56335
#
# Compressibility (1/GPa) = 0.01354421
#
# Stress axis : x y z
#
# Youngs Moduli (GPa) = 170.86504 120.37277 196.02928
#
# Poissons Ratio (x) = 0.29906 0.05735
# Poissons Ratio (y) = 0.42450 0.01599
# Poissons Ratio (z) = 0.04999 0.00982
#
# Static dielectric constant tensor:
#      x y z
#    x 2.092140 0.000000 0.000000 
#    y 0.000000 2.348300 0.000000 
#    z 0.000000 0.000000 2.377370 
# 
# From -- ./inp_files/2556.got.cif
#   From: 2010.05.17/outbox.cif.g08.bks.cpg/sg60_2_cif.got.tgz:2556.got - 2010.06.03 14:59:27.
