data_PCOD9456344
_publ_section_title
;
Structure prediction by ZEFSAII (Michael W. Deem and Ramdas Pophale) SiO2 
 PCOD9456344
Probable space group: P B C N
;
_chemical_formula_sum "Si O2"
_cell_formula_units_Z 48
_cell_length_a 7.994004
_cell_length_b 13.633458
_cell_length_c 19.527815
_cell_angle_alpha 90.000000
_cell_angle_beta 90.000000
_cell_angle_gamma 90.000000
_cell_volume 2128.256840
_symmetry_space_group_name_H-M "P B C N"
_symmetry_group_IT_number 60
_symmetry_cell_setting 'orthorhombic'
loop_
_space_group_symop_operation_xyz
x,y,z
1/2-x,1/2-y,1/2+z
1/2+x,1/2-y,-z
-x,y,1/2-z
-x,-y,-z
1/2+x,1/2+y,1/2-z
1/2-x,1/2+y,z
x,-y,1/2+z
loop_
_atom_site_type_symbol
_atom_site_label
_atom_site_fract_x
_atom_site_fract_y
_atom_site_fract_z
Si Si1 0.000000 0.127449 0.250000
Si Si2 0.734617 0.855341 0.456417
Si Si3 0.500000 0.708225 0.750000
Si Si4 0.826981 0.987221 0.568672
Si Si5 0.859851 0.040557 0.835432
Si Si6 0.761475 0.692395 0.145220
Si Si7 0.850655 0.324499 0.015901
O O1 0.901173 0.188378 0.193936
O O2 0.866459 0.056618 0.289207
O O3 0.725057 0.925395 0.390721
O O4 0.547739 0.842703 0.484019
O O5 0.801492 0.743681 0.451202
O O6 0.865200 0.907718 0.509061
O O7 0.371819 0.632754 0.714995
O O8 0.587107 0.769707 0.690711
O O9 0.737143 0.072010 0.526704
O O10 0.972491 0.027426 0.617581
O O11 0.714324 0.918730 0.618139
O O12 0.715169 0.763202 0.082115
#
# Coordination Sequence:
#
# PCOD9456344 Si02
#       7
#     4   8   4   8   8   8   8
#     4   9  22  40  61  90 126 166 211 258 315 372
#     4  11  24  38  67  94 124 171 205 269 323 384
#     4  11  22  40  65  86 126 170 205 258 313 380
#     4  10  21  43  62  90 129 159 213 263 319 379
#     4  10  21  41  63  89 123 170 208 254 319 377
#     4  10  23  40  63  91 125 167 209 264 310 380
#     4  11  23  41  62  95 127 163 214 266 321 381
#
# _framework density 22.553667999999998
#
# number of rings (size 3 to 8) (size 9 to 14) (size 15 to 20)
#    0.000    1.667    1.667    2.000    4.667    4.000 
#    0.000    0.833    0.000    0.000    0.000    0.000 
#    0.000    0.000    0.000    0.000    0.000    0.000 
#
# Total GULP energy -267734.541035 kJ/mol
# GULP energy per Si atom -5577.802938 kJ/mol
# Density = 2.250234 g / cm^3
# Si number density = 22.553668 Si / 1000 Ang^3
#
#
#
# Elastic Constant Matrix: (Units=GPa)
#
#
# Indices 1 2 3 4 5 6 
#
# 1 45.0283 3.6034 -8.0968 0.0000 0.0000 0.0000
# 2 3.6034 75.9418 3.1701 0.0000 0.0000 0.0000
# 3 -8.0968 3.1701 69.2733 0.0000 0.0000 0.0000
# 4 0.0000 0.0000 0.0000 -20.5479 0.0000 0.0000
# 5 0.0000 0.0000 0.0000 0.0000 35.6327 0.0000
# 6 0.0000 0.0000 0.0000 0.0000 0.0000 8.2504
#
#
#
# Elastic Compliance Matrix: (Units=1/GPa)
#
#
# Indices 1 2 3 4 5 6 
#
# 1 0.022793 -0.001195 0.002719 0.000000 0.000000 0.000000
# 2 -0.001195 0.013256 -0.000746 0.000000 0.000000 0.000000
# 3 0.002719 -0.000746 0.014787 0.000000 0.000000 0.000000
# 4 0.000000 0.000000 0.000000 -0.048667 0.000000 0.000000
# 5 0.000000 0.000000 0.000000 0.000000 0.028064 0.000000
# 6 0.000000 0.000000 0.000000 0.000000 0.000000 0.121206
#
#
# Mechanical properties :
#
#
# Convention : Reuss Voigt Hill
#
# Bulk Modulus (GPa) = 19.08724 20.84409 19.96566
# Shear Modulus (GPa) = 29.87786 17.43816 23.65801
#
# Velocity S-wave (km/s) = 3.64365 2.78364 3.24229
# Velocity P-wave (km/s) = 5.11693 4.42646 4.78417
#
# Compressibility (1/GPa) = 0.05239103
#
# Stress axis : x y z
#
# Youngs Moduli (GPa) = 43.87356 75.43852 67.62468
#
# Poissons Ratio (x) = 0.09015 -0.18385
# Poissons Ratio (y) = 0.05243 0.05047
# Poissons Ratio (z) = -0.11928 0.05630
#
# Static dielectric constant tensor:
#      x y z
#    x 1.818150 0.000000 0.000000 
#    y 0.000000 1.865690 0.000000 
#    z 0.000000 0.000000 1.927570 
# 
# From -- ./inp_files/19378.got.cif
#   From: 2010.05.17/outbox.cif.g08.bks.cpg/sg60_10_cif.got.tgz:19378.got - 2010.06.03 14:59:27.
