data_PCOD9456513
_publ_section_title
;
Structure prediction by ZEFSAII (Michael W. Deem and Ramdas Pophale) SiO2 
 PCOD9456513
Probable space group: P B C N
;
_chemical_formula_sum "Si O2"
_cell_formula_units_Z 28
_cell_length_a 14.942486
_cell_length_b 5.138220
_cell_length_c 14.115978
_cell_angle_alpha 90.000000
_cell_angle_beta 90.000000
_cell_angle_gamma 90.000000
_cell_volume 1083.793459
_symmetry_space_group_name_H-M "P B C N"
_symmetry_group_IT_number 60
_symmetry_cell_setting 'orthorhombic'
loop_
_space_group_symop_operation_xyz
x,y,z
1/2-x,1/2-y,1/2+z
1/2+x,1/2-y,-z
-x,y,1/2-z
-x,-y,-z
1/2+x,1/2+y,1/2-z
1/2-x,1/2+y,z
x,-y,1/2+z
loop_
_atom_site_type_symbol
_atom_site_label
_atom_site_fract_x
_atom_site_fract_y
_atom_site_fract_z
Si Si1 0.976916 0.252641 0.060965
Si Si2 0.797773 0.864733 0.497842
Si Si3 0.000000 0.022382 0.250000
Si Si4 0.810500 0.804478 0.273091
O O1 0.020950 0.210544 0.161885
O O2 0.870572 0.244128 0.069156
O O3 0.000000 0.500000 0.000000
O O4 0.000000 0.000000 0.000000
O O5 0.714179 0.671719 0.510985
O O6 0.823635 0.811372 0.388128
O O7 0.910368 0.852259 0.232322
O O8 0.757959 0.539851 0.249924
#
# Coordination Sequence:
#
# PCOD9456513 Si02
#       4
#     8   8   4   8
#     4  12  27  46  71 109 144 193 252 305 376 456
#     4  10  21  43  72 100 142 190 241 311 371 440
#     4  12  28  48  80 108 156 202 248 320 382 450
#     4  10  24  43  71 108 146 191 250 309 370 449
#
# _framework density 25.835180000000001
#
# number of rings (size 3 to 8) (size 9 to 14) (size 15 to 20)
#    0.000    1.143    2.857    1.714    8.000    6.857 
#    0.000    0.000    0.000    0.000    0.000    0.000 
#    0.000    0.000    0.000    0.000    0.000    0.000 
#
# Total GULP energy -156885.158481 kJ/mol
# GULP energy per Si atom -5603.041374 kJ/mol
# Density = 2.577638 g / cm^3
# Si number density = 25.835180 Si / 1000 Ang^3
#
#
#
# Elastic Constant Matrix: (Units=GPa)
#
#
# Indices 1 2 3 4 5 6 
#
# 1 107.9185 20.4083 6.5914 0.0000 0.0000 0.0000
# 2 20.4083 155.9175 38.9086 0.0000 0.0000 0.0000
# 3 6.5914 38.9086 86.2337 0.0000 0.0000 0.0000
# 4 0.0000 0.0000 0.0000 27.2277 0.0000 0.0000
# 5 0.0000 0.0000 0.0000 0.0000 36.7760 0.0000
# 6 0.0000 0.0000 0.0000 0.0000 0.0000 34.5728
#
#
#
# Elastic Compliance Matrix: (Units=1/GPa)
#
#
# Indices 1 2 3 4 5 6 
#
# 1 0.009504 -0.001198 -0.000186 0.000000 0.000000 0.000000
# 2 -0.001198 0.007378 -0.003238 0.000000 0.000000 0.000000
# 3 -0.000186 -0.003238 0.013071 0.000000 0.000000 0.000000
# 4 0.000000 0.000000 0.000000 0.036727 0.000000 0.000000
# 5 0.000000 0.000000 0.000000 0.000000 0.027192 0.000000
# 6 0.000000 0.000000 0.000000 0.000000 0.000000 0.028924
#
#
# Mechanical properties :
#
#
# Convention : Reuss Voigt Hill
#
# Bulk Modulus (GPa) = 48.28273 53.54292 50.91282
# Shear Modulus (GPa) = 35.98585 38.65940 37.32262
#
# Velocity S-wave (km/s) = 3.73621 3.87251 3.80497
# Velocity P-wave (km/s) = 6.11078 6.38474 6.24926
#
# Compressibility (1/GPa) = 0.02071134
#
# Stress axis : x y z
#
# Youngs Moduli (GPa) = 105.21788 135.53226 76.50286
#
# Poissons Ratio (x) = 0.16231 0.01424
# Poissons Ratio (y) = 0.12600 0.24768
# Poissons Ratio (z) = 0.01958 0.43879
#
# Static dielectric constant tensor:
#      x y z
#    x 2.160990 0.000000 0.000000 
#    y 0.000000 1.994590 0.000000 
#    z 0.000000 0.000000 2.071120 
# 
# From -- ./inp_files/16482.got.cif
#   From: 2010.05.17/outbox.cif.g08.bks.cpg/sg60_9_cif.got.tgz:16482.got - 2010.06.03 14:59:27.
