data_PCOD9456903
_publ_section_title
;
Structure prediction by ZEFSAII (Michael W. Deem and Ramdas Pophale) SiO2 
 PCOD9456903
Probable space group: P B C N
;
_chemical_formula_sum "Si O2"
_cell_formula_units_Z 44
_cell_length_a 15.761031
_cell_length_b 13.869722
_cell_length_c 8.450874
_cell_angle_alpha 90.000000
_cell_angle_beta 90.000000
_cell_angle_gamma 90.000000
_cell_volume 1847.370508
_symmetry_space_group_name_H-M "P B C N"
_symmetry_group_IT_number 60
_symmetry_cell_setting 'orthorhombic'
loop_
_space_group_symop_operation_xyz
x,y,z
1/2-x,1/2-y,1/2+z
1/2+x,1/2-y,-z
-x,y,1/2-z
-x,-y,-z
1/2+x,1/2+y,1/2-z
1/2-x,1/2+y,z
x,-y,1/2+z
loop_
_atom_site_type_symbol
_atom_site_label
_atom_site_fract_x
_atom_site_fract_y
_atom_site_fract_z
Si Si1 0.282683 0.736220 0.575171
Si Si2 0.317356 0.377722 0.777950
Si Si3 0.435897 0.138239 0.957410
Si Si4 0.500000 0.500000 0.000000
Si Si5 0.500000 0.704197 0.250000
Si Si6 0.868700 0.921545 0.239830
Si Si7 0.500000 0.983251 0.750000
O O1 0.208985 0.802266 0.643492
O O2 0.271114 0.656922 0.438181
O O3 0.349461 0.808609 0.495039
O O4 0.325291 0.679522 0.722179
O O5 0.420849 0.365524 0.785987
O O6 0.301973 0.489880 0.751873
O O7 0.500005 0.222061 0.896801
O O8 0.430875 0.057130 0.821767
O O9 0.467535 0.083651 0.111053
O O10 0.434353 0.443239 0.118269
O O11 0.580286 0.435860 0.077166
#
# Coordination Sequence:
#
# PCOD9456903 Si02
#       7
#     8   8   8   4   4   8   4
#     4  11  26  45  67 105 142 182 241 292 367 426
#     4  11  25  46  68 102 142 187 234 302 359 433
#     4   9  20  40  65  99 127 178 229 282 342 416
#     4  10  22  40  76 104 140 180 236 288 356 444
#     4   9  20  44  71  94 136 180 237 286 355 424
#     4  11  23  45  70 108 141 189 234 298 372 428
#     4   9  18  40  65  94 138 180 229 280 347 418
#
# _framework density 23.817636
#
# number of rings (size 3 to 8) (size 9 to 14) (size 15 to 20)
#    0.000    1.818    1.818    1.091    5.091    2.909 
#   16.364    0.000    0.000    0.000    0.000    0.000 
#    0.000    0.000    0.000    0.000    0.000    0.000 
#
# Total GULP energy -244954.796480 kJ/mol
# GULP energy per Si atom -5567.154465 kJ/mol
# Density = 2.376343 g / cm^3
# Si number density = 23.817636 Si / 1000 Ang^3
#
#
#
# Elastic Constant Matrix: (Units=GPa)
#
#
# Indices 1 2 3 4 5 6 
#
# 1 23.9144 11.3022 11.7600 0.0000 0.0000 0.0000
# 2 11.3022 104.0428 28.1160 0.0000 0.0000 0.0000
# 3 11.7600 28.1160 82.2399 0.0000 0.0000 0.0000
# 4 0.0000 0.0000 0.0000 31.1417 0.0000 0.0000
# 5 0.0000 0.0000 0.0000 0.0000 21.2162 0.0000
# 6 0.0000 0.0000 0.0000 0.0000 0.0000 6.8800
#
#
#
# Elastic Compliance Matrix: (Units=1/GPa)
#
#
# Indices 1 2 3 4 5 6 
#
# 1 0.046144 -0.003558 -0.005382 0.000000 0.000000 0.000000
# 2 -0.003558 0.010864 -0.003205 0.000000 0.000000 0.000000
# 3 -0.005382 -0.003205 0.014025 0.000000 0.000000 0.000000
# 4 0.000000 0.000000 0.000000 0.032111 0.000000 0.000000
# 5 0.000000 0.000000 0.000000 0.000000 0.047134 0.000000
# 6 0.000000 0.000000 0.000000 0.000000 0.000000 0.145349
#
#
# Mechanical properties :
#
#
# Convention : Reuss Voigt Hill
#
# Bulk Modulus (GPa) = 21.39400 34.72816 28.06108
# Shear Modulus (GPa) = 14.90315 22.44883 18.67599
#
# Velocity S-wave (km/s) = 2.50415 3.07340 2.80326
# Velocity P-wave (km/s) = 4.16689 5.21602 4.72069
#
# Compressibility (1/GPa) = 0.04674208
#
# Stress axis : x y z
#
# Youngs Moduli (GPa) = 21.67122 92.04566 71.30116
#
# Poissons Ratio (x) = 0.32752 0.38374
# Poissons Ratio (y) = 0.07711 0.22855
# Poissons Ratio (z) = 0.11663 0.29504
#
# Static dielectric constant tensor:
#      x y z
#    x 1.953570 0.000000 0.000000 
#    y 0.000000 2.088390 0.000000 
#    z 0.000000 0.000000 2.368020 
# 
# From -- ./inp_files/6675.got.cif
#   From: 2010.05.17/outbox.cif.g08.bks.cpg/sg60_4_cif.got.tgz:6675.got - 2010.06.03 14:59:27.
