data_PCOD9456825
_publ_section_title
;
Structure prediction by ZEFSAII (Michael W. Deem and Ramdas Pophale) SiO2 
 PCOD9456825
Probable space group: P B C N
;
_chemical_formula_sum "Si O2"
_cell_formula_units_Z 52
_cell_length_a 12.934201
_cell_length_b 22.304773
_cell_length_c 8.284613
_cell_angle_alpha 90.000000
_cell_angle_beta 90.000000
_cell_angle_gamma 90.000000
_cell_volume 2390.064600
_symmetry_space_group_name_H-M "P B C N"
_symmetry_group_IT_number 60
_symmetry_cell_setting 'orthorhombic'
loop_
_space_group_symop_operation_xyz
x,y,z
1/2-x,1/2-y,1/2+z
1/2+x,1/2-y,-z
-x,y,1/2-z
-x,-y,-z
1/2+x,1/2+y,1/2-z
1/2-x,1/2+y,z
x,-y,1/2+z
loop_
_atom_site_type_symbol
_atom_site_label
_atom_site_fract_x
_atom_site_fract_y
_atom_site_fract_z
Si Si1 0.858182 0.720048 0.487339
Si Si2 0.725972 0.498823 0.884252
Si Si3 0.117660 0.605178 0.207964
Si Si4 0.500000 0.816960 0.250000
Si Si5 0.328694 0.307519 0.292078
Si Si6 0.677994 0.122218 0.950254
Si Si7 0.597439 0.433724 0.130875
O O1 0.876524 0.651532 0.437300
O O2 0.745128 0.722349 0.572165
O O3 0.879227 0.759128 0.327882
O O4 0.938774 0.727497 0.631007
O O5 0.808743 0.448593 0.842970
O O6 0.786549 0.553145 0.971565
O O7 0.690262 0.534486 0.726463
O O8 0.622885 0.467011 0.961482
O O9 0.161295 0.639965 0.364791
O O10 0.000000 0.587262 0.250000
O O11 0.424314 0.860427 0.149031
O O12 0.262728 0.343275 0.155178
O O13 0.391509 0.361501 0.377330
O O14 0.500000 0.443796 0.250000
#
# Coordination Sequence:
#
# PCOD9456825 Si02
#       7
#     8   8   8   4   8   8   8
#     4  11  22  43  64  91 132 167 212 268 326 390
#     4  11  23  41  65  94 132 167 211 270 322 397
#     4  12  23  37  65  99 129 172 207 257 336 400
#     4  10  22  40  64  98 128 166 216 270 326 408
#     4  10  23  42  65  89 125 171 213 268 324 381
#     4  10  22  40  62  93 132 165 211 261 335 389
#     4  11  23  44  66  92 124 171 221 271 319 379
#
# _framework density 21.756734999999999
#
# number of rings (size 3 to 8) (size 9 to 14) (size 15 to 20)
#    0.000    1.231    4.615    1.385    1.077    1.231 
#    5.538    0.000    3.385    0.000    0.000    0.000 
#    0.000    0.000    0.000    0.000    0.000    0.000 
#
# Total GULP energy -289563.260957 kJ/mol
# GULP energy per Si atom -5568.524249 kJ/mol
# Density = 2.170722 g / cm^3
# Si number density = 21.756735 Si / 1000 Ang^3
#
#
#
# Elastic Constant Matrix: (Units=GPa)
#
#
# Indices 1 2 3 4 5 6 
#
# 1 46.0956 19.1203 -15.2476 0.0000 0.0000 0.0000
# 2 19.1203 94.7170 3.0572 0.0000 0.0000 0.0000
# 3 -15.2476 3.0572 39.6954 0.0000 0.0000 0.0000
# 4 0.0000 0.0000 0.0000 26.9745 0.0000 0.0000
# 5 0.0000 0.0000 0.0000 0.0000 37.8498 0.0000
# 6 0.0000 0.0000 0.0000 0.0000 0.0000 -2.6092
#
#
#
# Elastic Compliance Matrix: (Units=1/GPa)
#
#
# Indices 1 2 3 4 5 6 
#
# 1 0.027871 -0.005987 0.011167 0.000000 0.000000 0.000000
# 2 -0.005987 0.011870 -0.003214 0.000000 0.000000 0.000000
# 3 0.011167 -0.003214 0.029729 0.000000 0.000000 0.000000
# 4 0.000000 0.000000 0.000000 0.037072 0.000000 0.000000
# 5 0.000000 0.000000 0.000000 0.000000 0.026420 0.000000
# 6 0.000000 0.000000 0.000000 0.000000 0.000000 -0.383266
#
#
# Mechanical properties :
#
#
# Convention : Reuss Voigt Hill
#
# Bulk Modulus (GPa) = 13.62354 21.59643 17.60999
# Shear Modulus (GPa) = -21.76099 24.01491 1.12696
#
# Velocity S-wave (km/s) = -3.16602 3.32594 0.72049
# Velocity P-wave (km/s) = 2.66262 4.96961 2.96711
#
# Compressibility (1/GPa) = 0.07340235
#
# Stress axis : x y z
#
# Youngs Moduli (GPa) = 35.87951 84.24583 33.63755
#
# Poissons Ratio (x) = 0.50436 -0.37562
# Poissons Ratio (y) = 0.21480 0.10810
# Poissons Ratio (z) = -0.40066 0.27075
#
# Static dielectric constant tensor:
#      x y z
#    x 1.837630 0.000000 0.000000 
#    y 0.000000 1.813910 0.000000 
#    z 0.000000 0.000000 1.898020 
# 
# From -- ./inp_files/6092.got.cif
#   From: 2010.05.17/outbox.cif.g08.bks.cpg/sg60_4_cif.got.tgz:6092.got - 2010.06.03 14:59:27.
