data_PCOD9456100
_publ_section_title
;
Structure prediction by ZEFSAII (Michael W. Deem and Ramdas Pophale) SiO2 
 PCOD9456100
Probable space group: P B C N
;
_chemical_formula_sum "Si O2"
_cell_formula_units_Z 36
_cell_length_a 15.473018
_cell_length_b 22.312804
_cell_length_c 5.245337
_cell_angle_alpha 90.000000
_cell_angle_beta 90.000000
_cell_angle_gamma 90.000000
_cell_volume 1810.933810
_symmetry_space_group_name_H-M "P B C N"
_symmetry_group_IT_number 60
_symmetry_cell_setting 'orthorhombic'
loop_
_space_group_symop_operation_xyz
x,y,z
1/2-x,1/2-y,1/2+z
1/2+x,1/2-y,-z
-x,y,1/2-z
-x,-y,-z
1/2+x,1/2+y,1/2-z
1/2-x,1/2+y,z
x,-y,1/2+z
loop_
_atom_site_type_symbol
_atom_site_label
_atom_site_fract_x
_atom_site_fract_y
_atom_site_fract_z
Si Si1 0.260010 0.965404 0.363307
Si Si2 0.062204 0.056202 0.942980
Si Si3 0.000000 0.154276 0.250000
Si Si4 0.151868 0.789995 0.015977
Si Si5 0.748706 0.169369 0.484980
O O1 0.154436 0.964697 0.349270
O O2 0.281399 0.897840 0.449463
O O3 0.287650 0.011109 0.586735
O O4 0.000000 0.091202 0.750000
O O5 0.071433 0.104694 0.162601
O O6 0.000000 0.000000 0.000000
O O7 0.053664 0.195498 0.441707
O O8 0.212087 0.821201 0.797913
O O9 0.174558 0.719770 0.994950
O O10 0.181098 0.813529 0.294035
#
# Coordination Sequence:
#
# PCOD9456100 Si02
#       5
#     8   8   4   8   8
#     4  12  22  33  52  75 103 143 175 209 254 315
#     4  12  21  29  43  72 111 139 166 199 245 306
#     4  12  22  34  52  76 102 146 178 216 258 310
#     4  10  22  36  56  73 104 143 179 221 259 303
#     4  10  21  39  52  75 105 141 180 219 260 309
#
# _framework density 19.879245000000001
#
# number of rings (size 3 to 8) (size 9 to 14) (size 15 to 20)
#    0.000    0.889    5.556    2.667    0.000    0.000 
#    0.000    0.000    0.000    0.000    0.000    1.556 
#    0.000    0.000    0.000    0.000    0.000    0.000 
#
# Total GULP energy -200646.792184 kJ/mol
# GULP energy per Si atom -5573.522005 kJ/mol
# Density = 1.983400 g / cm^3
# Si number density = 19.879245 Si / 1000 Ang^3
#
#
#
# Elastic Constant Matrix: (Units=GPa)
#
#
# Indices 1 2 3 4 5 6 
#
# 1 22.2095 13.6635 -4.4773 0.0000 0.0000 0.0000
# 2 13.6635 111.6805 -0.2767 0.0000 0.0000 0.0000
# 3 -4.4773 -0.2767 78.8876 0.0000 0.0000 0.0000
# 4 0.0000 0.0000 0.0000 29.8531 0.0000 0.0000
# 5 0.0000 0.0000 0.0000 0.0000 14.6198 0.0000
# 6 0.0000 0.0000 0.0000 0.0000 0.0000 29.2253
#
#
#
# Elastic Compliance Matrix: (Units=1/GPa)
#
#
# Indices 1 2 3 4 5 6 
#
# 1 0.049291 -0.006024 0.002776 0.000000 0.000000 0.000000
# 2 -0.006024 0.009690 -0.000308 0.000000 0.000000 0.000000
# 3 0.002776 -0.000308 0.012833 0.000000 0.000000 0.000000
# 4 0.000000 0.000000 0.000000 0.033497 0.000000 0.000000
# 5 0.000000 0.000000 0.000000 0.000000 0.068400 0.000000
# 6 0.000000 0.000000 0.000000 0.000000 0.000000 0.034217
#
#
# Mechanical properties :
#
#
# Convention : Reuss Voigt Hill
#
# Bulk Modulus (GPa) = 15.45493 25.62184 20.53839
# Shear Modulus (GPa) = 21.13203 28.33083 24.73143
#
# Velocity S-wave (km/s) = 3.26394 3.77921 3.53098
# Velocity P-wave (km/s) = 4.68995 5.65331 5.19401
#
# Compressibility (1/GPa) = 0.06470426
#
# Stress axis : x y z
#
# Youngs Moduli (GPa) = 20.28750 103.19575 77.92557
#
# Poissons Ratio (x) = 0.62162 -0.21636
# Poissons Ratio (y) = 0.12221 0.02399
# Poissons Ratio (z) = -0.05633 0.03177
#
# Static dielectric constant tensor:
#      x y z
#    x 1.720410 0.000000 0.000000 
#    y 0.000000 1.725310 0.000000 
#    z 0.000000 0.000000 2.534380 
# 
# From -- ./inp_files/1996.got.cif
#   From: 2010.05.17/outbox.cif.g08.bks.cpg/sg60_1_cif.got.tgz:1996.got - 2010.06.03 14:59:27.
