data_PCOD9456203
_publ_section_title
;
Structure prediction by ZEFSAII (Michael W. Deem and Ramdas Pophale) SiO2 
 PCOD9456203
Probable space group: P B C N
;
_chemical_formula_sum "Si O2"
_cell_formula_units_Z 56
_cell_length_a 19.494044
_cell_length_b 9.051043
_cell_length_c 14.380097
_cell_angle_alpha 90.000000
_cell_angle_beta 90.000000
_cell_angle_gamma 90.000000
_cell_volume 2537.244885
_symmetry_space_group_name_H-M "P B C N"
_symmetry_group_IT_number 60
_symmetry_cell_setting 'orthorhombic'
loop_
_space_group_symop_operation_xyz
x,y,z
1/2-x,1/2-y,1/2+z
1/2+x,1/2-y,-z
-x,y,1/2-z
-x,-y,-z
1/2+x,1/2+y,1/2-z
1/2-x,1/2+y,z
x,-y,1/2+z
loop_
_atom_site_type_symbol
_atom_site_label
_atom_site_fract_x
_atom_site_fract_y
_atom_site_fract_z
Si Si1 0.333287 0.307956 0.501833
Si Si2 0.170535 0.856830 0.279926
Si Si3 0.583346 0.209502 0.359983
Si Si4 0.306673 0.689591 0.287237
Si Si5 0.579611 0.069128 0.736399
Si Si6 0.451281 0.113625 0.444938
Si Si7 0.806415 0.149144 0.989418
O O1 0.334021 0.332149 0.389848
O O2 0.401896 0.209131 0.511282
O O3 0.269473 0.208172 0.534681
O O4 0.322803 0.477524 0.534781
O O5 0.102634 0.812321 0.226202
O O6 0.235101 0.756134 0.252882
O O7 0.186693 0.023533 0.254438
O O8 0.505767 0.220208 0.394131
O O9 0.636117 0.251176 0.440679
O O10 0.594431 0.046931 0.318145
O O11 0.368609 0.796028 0.260221
O O12 0.308679 0.675271 0.399586
O O13 0.500000 0.112506 0.750000
O O14 0.586145 0.980780 0.637160
O O15 0.500000 0.000000 0.500000
#
# Coordination Sequence:
#
# PCOD9456203 Si02
#       7
#     8   8   8   8   8   8   8
#     4  10  23  43  67  99 132 184 223 277 350 403
#     4  10  21  39  67  94 130 178 219 287 339 402
#     4  11  23  43  66  99 131 176 229 287 340 404
#     4  10  21  41  64  93 132 177 225 271 347 412
#     4  10  22  42  65  95 134 178 222 275 347 406
#     4  11  24  43  73  97 137 184 224 279 346 422
#     4  10  24  41  68  97 132 176 230 283 335 415
#
# _framework density 22.071185
#
# number of rings (size 3 to 8) (size 9 to 14) (size 15 to 20)
#    0.000    1.714    1.429    1.714    8.000    2.857 
#   12.857    0.000    0.000    0.000    0.000    0.000 
#    0.000    0.000    0.000    0.000    0.000    0.000 
#
# Total GULP energy -312990.333169 kJ/mol
# GULP energy per Si atom -5589.113092 kJ/mol
# Density = 2.202095 g / cm^3
# Si number density = 22.071185 Si / 1000 Ang^3
#
#
#
# Elastic Constant Matrix: (Units=GPa)
#
#
# Indices 1 2 3 4 5 6 
#
# 1 105.8347 68.7555 7.4252 0.0000 0.0000 0.0000
# 2 68.7555 121.3666 5.1047 0.0000 0.0000 0.0000
# 3 7.4252 5.1047 72.6400 0.0000 0.0000 0.0000
# 4 0.0000 0.0000 0.0000 24.9362 0.0000 0.0000
# 5 0.0000 0.0000 0.0000 0.0000 25.8434 0.0000
# 6 0.0000 0.0000 0.0000 0.0000 0.0000 44.9974
#
#
#
# Elastic Compliance Matrix: (Units=1/GPa)
#
#
# Indices 1 2 3 4 5 6 
#
# 1 0.015015 -0.008467 -0.000940 0.000000 0.000000 0.000000
# 2 -0.008467 0.013038 -0.000051 0.000000 0.000000 0.000000
# 3 -0.000940 -0.000051 0.013866 0.000000 0.000000 0.000000
# 4 0.000000 0.000000 0.000000 0.040102 0.000000 0.000000
# 5 0.000000 0.000000 0.000000 0.000000 0.038695 0.000000
# 6 0.000000 0.000000 0.000000 0.000000 0.000000 0.022223
#
#
# Mechanical properties :
#
#
# Convention : Reuss Voigt Hill
#
# Bulk Modulus (GPa) = 43.46936 51.37914 47.42425
# Shear Modulus (GPa) = 29.49465 33.72580 31.61023
#
# Velocity S-wave (km/s) = 3.65957 3.91326 3.78854
# Velocity P-wave (km/s) = 6.13143 6.61419 6.37738
#
# Compressibility (1/GPa) = 0.02300471
#
# Stress axis : x y z
#
# Youngs Moduli (GPa) = 66.60027 76.69857 72.11806
#
# Poissons Ratio (x) = 0.64938 0.06778
# Poissons Ratio (y) = 0.56388 0.00366
# Poissons Ratio (z) = 0.06259 0.00390
#
# Static dielectric constant tensor:
#      x y z
#    x 1.786880 0.000000 0.000000 
#    y 0.000000 1.790720 0.000000 
#    z 0.000000 0.000000 1.887870 
# 
# From -- ./inp_files/17713.got.cif
#   From: 2010.05.17/outbox.cif.g08.bks.cpg/sg60_9_cif.got.tgz:17713.got - 2010.06.03 14:59:27.
