data_PCOD9456738
_publ_section_title
;
Structure prediction by ZEFSAII (Michael W. Deem and Ramdas Pophale) SiO2 
 PCOD9456738
Probable space group: P B C N
;
_chemical_formula_sum "Si O2"
_cell_formula_units_Z 48
_cell_length_a 5.226074
_cell_length_b 25.959262
_cell_length_c 16.986219
_cell_angle_alpha 90.000000
_cell_angle_beta 90.000000
_cell_angle_gamma 90.000000
_cell_volume 2304.435812
_symmetry_space_group_name_H-M "P B C N"
_symmetry_group_IT_number 60
_symmetry_cell_setting 'orthorhombic'
loop_
_space_group_symop_operation_xyz
x,y,z
1/2-x,1/2-y,1/2+z
1/2+x,1/2-y,-z
-x,y,1/2-z
-x,-y,-z
1/2+x,1/2+y,1/2-z
1/2-x,1/2+y,z
x,-y,1/2+z
loop_
_atom_site_type_symbol
_atom_site_label
_atom_site_fract_x
_atom_site_fract_y
_atom_site_fract_z
Si Si1 0.061403 0.549667 0.335425
Si Si2 0.750060 0.381865 0.951559
Si Si3 0.579131 0.782026 0.021697
Si Si4 0.652856 0.656775 0.168810
Si Si5 0.754303 0.022688 0.541319
Si Si6 0.243626 0.769384 0.303538
O O1 0.205104 0.603306 0.323994
O O2 0.225877 0.505041 0.375558
O O3 0.000000 0.529821 0.250000
O O4 0.833959 0.573057 0.390077
O O5 0.523007 0.351445 0.908074
O O6 0.942685 0.336463 0.975822
O O7 0.715834 0.416196 0.030057
O O8 0.679790 0.792892 0.111105
O O9 0.307134 0.752417 0.017829
O O10 0.500000 0.660914 0.250000
O O11 0.810050 0.709732 0.170795
O O12 0.500000 0.000000 0.500000
O O13 0.000000 0.000000 0.500000
O O14 0.500000 0.772358 0.250000
O O15 0.000000 0.786530 0.250000
#
# Coordination Sequence:
#
# PCOD9456738 Si02
#       6
#     8   8   8   8   8   8
#     4  11  21  36  61  92 124 158 204 261 320 374
#     4  11  23  39  60  92 126 163 207 262 313 377
#     4  12  25  41  64  95 127 168 215 260 316 378
#     4  11  20  33  60  90 122 155 200 262 322 364
#     4  10  22  39  59  85 123 161 196 248 315 376
#     4  11  24  41  60  88 128 169 210 259 317 376
#
# _framework density 20.829393
#
# number of rings (size 3 to 8) (size 9 to 14) (size 15 to 20)
#    0.000    1.000    5.000    2.500    4.667    0.000 
#    0.000    0.833    0.000    3.000    0.000    0.000 
#    0.000    0.000    0.000    0.000    0.000    0.000 
#
# Total GULP energy -267305.654403 kJ/mol
# GULP energy per Si atom -5568.867800 kJ/mol
# Density = 2.078198 g / cm^3
# Si number density = 20.829393 Si / 1000 Ang^3
#
#
#
# Elastic Constant Matrix: (Units=GPa)
#
#
# Indices 1 2 3 4 5 6 
#
# 1 77.1161 6.9044 22.8437 0.0000 0.0000 0.0000
# 2 6.9044 65.9904 19.7790 0.0000 0.0000 0.0000
# 3 22.8437 19.7790 115.8683 0.0000 0.0000 0.0000
# 4 0.0000 0.0000 0.0000 28.3086 0.0000 0.0000
# 5 0.0000 0.0000 0.0000 0.0000 35.3463 0.0000
# 6 0.0000 0.0000 0.0000 0.0000 0.0000 34.5674
#
#
#
# Elastic Compliance Matrix: (Units=1/GPa)
#
#
# Indices 1 2 3 4 5 6 
#
# 1 0.013799 -0.000662 -0.002607 0.000000 0.000000 0.000000
# 2 -0.000662 0.016003 -0.002601 0.000000 0.000000 0.000000
# 3 -0.002607 -0.002601 0.009589 0.000000 0.000000 0.000000
# 4 0.000000 0.000000 0.000000 0.035325 0.000000 0.000000
# 5 0.000000 0.000000 0.000000 0.000000 0.028291 0.000000
# 6 0.000000 0.000000 0.000000 0.000000 0.000000 0.028929
#
#
# Mechanical properties :
#
#
# Convention : Reuss Voigt Hill
#
# Bulk Modulus (GPa) = 36.16814 39.78101 37.97457
# Shear Modulus (GPa) = 32.70246 33.60765 33.15506
#
# Velocity S-wave (km/s) = 3.96664 4.02116 3.99399
# Velocity P-wave (km/s) = 6.19521 6.37963 6.28810
#
# Compressibility (1/GPa) = 0.02764865
#
# Stress axis : x y z
#
# Youngs Moduli (GPa) = 72.46816 62.48976 104.29073
#
# Poissons Ratio (x) = 0.04138 0.27194
# Poissons Ratio (y) = 0.04799 0.27127
# Poissons Ratio (z) = 0.18896 0.16254
#
# Static dielectric constant tensor:
#      x y z
#    x 1.579100 0.000000 0.000000 
#    y 0.000000 1.747950 0.000000 
#    z 0.000000 0.000000 0.508280 
# 
# From -- ./inp_files/13935.got.cif
#   From: 2010.05.17/outbox.cif.g08.bks.cpg/sg60_7_cif.got.tgz:13935.got - 2010.06.03 14:59:27.
