data_PCOD9456563
_publ_section_title
;
Structure prediction by ZEFSAII (Michael W. Deem and Ramdas Pophale) SiO2 
 PCOD9456563
Probable space group: P B C N
;
_chemical_formula_sum "Si O2"
_cell_formula_units_Z 40
_cell_length_a 12.668716
_cell_length_b 18.104801
_cell_length_c 8.096042
_cell_angle_alpha 90.000000
_cell_angle_beta 90.000000
_cell_angle_gamma 90.000000
_cell_volume 1856.945290
_symmetry_space_group_name_H-M "P B C N"
_symmetry_group_IT_number 60
_symmetry_cell_setting 'orthorhombic'
loop_
_space_group_symop_operation_xyz
x,y,z
1/2-x,1/2-y,1/2+z
1/2+x,1/2-y,-z
-x,y,1/2-z
-x,-y,-z
1/2+x,1/2+y,1/2-z
1/2-x,1/2+y,z
x,-y,1/2+z
loop_
_atom_site_type_symbol
_atom_site_label
_atom_site_fract_x
_atom_site_fract_y
_atom_site_fract_z
Si Si1 0.030829 0.917694 0.942142
Si Si2 0.269238 0.329670 0.859607
Si Si3 0.142774 0.703939 0.061817
Si Si4 0.567193 0.111065 0.999161
Si Si5 0.000000 0.490904 0.250000
Si Si6 0.000000 0.183522 0.750000
O O1 0.154057 0.893740 0.929213
O O2 0.000000 0.905365 0.750000
O O3 0.980976 0.865473 0.085561
O O4 0.000000 0.000000 0.000000
O O5 0.235270 0.335050 0.667442
O O6 0.161537 0.335237 0.962863
O O7 0.322125 0.251555 0.904679
O O8 0.045881 0.650926 0.014491
O O9 0.094656 0.763311 0.192268
O O10 0.562622 0.045336 0.132024
O O11 0.580259 0.065463 0.833616
#
# Coordination Sequence:
#
# PCOD9456563 Si02
#       6
#     8   8   8   8   4   4
#     4  11  25  45  66  99 139 180 227 274 339 414
#     4  11  25  40  70  98 127 186 217 278 356 395
#     4  11  23  43  66  98 134 168 230 288 331 405
#     4  11  22  47  64  98 139 167 232 280 335 403
#     4  10  23  40  70  91 132 180 212 290 322 397
#     4  10  21  46  66  87 142 174 212 308 316 389
#
# _framework density 21.540752000000001
#
# number of rings (size 3 to 8) (size 9 to 14) (size 15 to 20)
#    0.000    1.200    5.000    0.000    5.600    1.600 
#    1.800    0.000    0.000    0.000    0.000    0.000 
#    0.000    0.000    0.000    0.000    0.000    0.000 
#
# Total GULP energy -222990.385003 kJ/mol
# GULP energy per Si atom -5574.759625 kJ/mol
# Density = 2.149172 g / cm^3
# Si number density = 21.540752 Si / 1000 Ang^3
#
#
#
# Elastic Constant Matrix: (Units=GPa)
#
#
# Indices 1 2 3 4 5 6 
#
# 1 79.8069 34.9926 24.6956 0.0000 0.0000 0.0000
# 2 34.9926 109.1732 32.3861 0.0000 0.0000 0.0000
# 3 24.6956 32.3861 74.6130 0.0000 0.0000 0.0000
# 4 0.0000 0.0000 0.0000 27.2631 0.0000 0.0000
# 5 0.0000 0.0000 0.0000 0.0000 22.5943 0.0000
# 6 0.0000 0.0000 0.0000 0.0000 0.0000 19.6449
#
#
#
# Elastic Compliance Matrix: (Units=1/GPa)
#
#
# Indices 1 2 3 4 5 6 
#
# 1 0.015282 -0.003900 -0.003365 0.000000 0.000000 0.000000
# 2 -0.003900 0.011509 -0.003705 0.000000 0.000000 0.000000
# 3 -0.003365 -0.003705 0.016124 0.000000 0.000000 0.000000
# 4 0.000000 0.000000 0.000000 0.036680 0.000000 0.000000
# 5 0.000000 0.000000 0.000000 0.000000 0.044259 0.000000
# 6 0.000000 0.000000 0.000000 0.000000 0.000000 0.050904
#
#
# Mechanical properties :
#
#
# Convention : Reuss Voigt Hill
#
# Bulk Modulus (GPa) = 47.67516 49.74908 48.71212
# Shear Modulus (GPa) = 24.54735 25.33504 24.94120
#
# Velocity S-wave (km/s) = 3.37942 3.43322 3.40643
# Velocity P-wave (km/s) = 6.11620 6.23389 6.17533
#
# Compressibility (1/GPa) = 0.02097528
#
# Stress axis : x y z
#
# Youngs Moduli (GPa) = 65.43859 86.89070 62.01803
#
# Poissons Ratio (x) = 0.33886 0.20870
# Poissons Ratio (y) = 0.25520 0.22976
# Poissons Ratio (z) = 0.22021 0.32190
#
# Static dielectric constant tensor:
#      x y z
#    x 1.811620 0.000000 0.000000 
#    y 0.000000 1.762980 0.000000 
#    z 0.000000 0.000000 1.904980 
# 
# From -- ./inp_files/4795.got.cif
#   From: 2010.05.17/outbox.cif.g08.bks.cpg/sg60_3_cif.got.tgz:4795.got - 2010.06.03 14:59:27.
