data_PCOD9456299
_publ_section_title
;
Structure prediction by ZEFSAII (Michael W. Deem and Ramdas Pophale) SiO2 
 PCOD9456299
Probable space group: P B C N
;
_chemical_formula_sum "Si O2"
_cell_formula_units_Z 64
_cell_length_a 14.268245
_cell_length_b 9.894533
_cell_length_c 21.766628
_cell_angle_alpha 90.000000
_cell_angle_beta 90.000000
_cell_angle_gamma 90.000000
_cell_volume 3072.960758
_symmetry_space_group_name_H-M "P B C N"
_symmetry_group_IT_number 60
_symmetry_cell_setting 'orthorhombic'
loop_
_space_group_symop_operation_xyz
x,y,z
1/2-x,1/2-y,1/2+z
1/2+x,1/2-y,-z
-x,y,1/2-z
-x,-y,-z
1/2+x,1/2+y,1/2-z
1/2-x,1/2+y,z
x,-y,1/2+z
loop_
_atom_site_type_symbol
_atom_site_label
_atom_site_fract_x
_atom_site_fract_y
_atom_site_fract_z
Si Si1 0.061255 0.966387 0.178976
Si Si2 0.599216 0.722546 0.647839
Si Si3 0.823159 0.299920 0.371622
Si Si4 0.406937 0.498151 0.957180
Si Si5 0.465451 0.718983 0.360846
Si Si6 0.737554 0.384892 0.246548
Si Si7 0.793780 0.975685 0.926838
Si Si8 0.083961 0.504483 0.800447
O O1 0.146544 0.954947 0.224665
O O2 0.114863 0.979770 0.113498
O O3 0.993776 0.838535 0.180277
O O4 0.995944 0.097135 0.183887
O O5 0.600533 0.631974 0.585862
O O6 0.692671 0.689853 0.687660
O O7 0.582990 0.883436 0.650233
O O8 0.786076 0.296888 0.301194
O O9 0.791025 0.438911 0.400775
O O10 0.933548 0.280161 0.378814
O O11 0.777411 0.179428 0.410203
O O12 0.413760 0.363827 0.914791
O O13 0.500000 0.500000 0.000000
O O14 0.319463 0.498420 0.003136
O O15 0.416045 0.845353 0.329636
O O16 0.815295 0.496864 0.232060
O O17 0.000000 0.494022 0.750000
#
# Coordination Sequence:
#
# PCOD9456299 Si02
#       8
#     8   8   8   8   8   8   8   8
#     4   9  20  42  70  94 125 180 229 265 338 417
#     4  11  25  42  66  97 138 178 222 278 356 402
#     4  10  21  40  67 100 126 168 228 277 335 400
#     4  11  21  49  71  89 131 182 232 271 332 421
#     4  10  22  41  67  97 131 174 223 272 336 404
#     4  11  24  40  64 100 139 176 218 279 342 422
#     4  10  21  41  72  98 123 175 229 284 325 404
#     4  12  26  42  64 101 143 172 217 288 342 403
#
# _framework density 20.826820000000001
#
# number of rings (size 3 to 8) (size 9 to 14) (size 15 to 20)
#    0.000    1.500    5.000    1.125    5.250    6.000 
#    4.500    0.625    0.000    0.000    0.000    0.000 
#    0.000    0.000    0.000    0.000    0.000    0.000 
#
# Total GULP energy -356955.721527 kJ/mol
# GULP energy per Si atom -5577.433149 kJ/mol
# Density = 2.077942 g / cm^3
# Si number density = 20.826820 Si / 1000 Ang^3
#
#
#
# Elastic Constant Matrix: (Units=GPa)
#
#
# Indices 1 2 3 4 5 6 
#
# 1 49.2656 10.6987 3.6180 0.0000 0.0000 0.0000
# 2 10.6987 72.2215 21.9522 0.0000 0.0000 0.0000
# 3 3.6180 21.9522 96.3490 0.0000 0.0000 0.0000
# 4 0.0000 0.0000 0.0000 -22.1802 0.0000 0.0000
# 5 0.0000 0.0000 0.0000 0.0000 22.2975 0.0000
# 6 0.0000 0.0000 0.0000 0.0000 0.0000 13.0712
#
#
#
# Elastic Compliance Matrix: (Units=1/GPa)
#
#
# Indices 1 2 3 4 5 6 
#
# 1 0.020974 -0.003081 -0.000086 0.000000 0.000000 0.000000
# 2 -0.003081 0.015329 -0.003377 0.000000 0.000000 0.000000
# 3 -0.000086 -0.003377 0.011152 0.000000 0.000000 0.000000
# 4 0.000000 0.000000 0.000000 -0.045085 0.000000 0.000000
# 5 0.000000 0.000000 0.000000 0.000000 0.044848 0.000000
# 6 0.000000 0.000000 0.000000 0.000000 0.000000 0.076504
#
#
# Mechanical properties :
#
#
# Convention : Reuss Voigt Hill
#
# Bulk Modulus (GPa) = 29.09746 32.26377 30.68062
# Shear Modulus (GPa) = 33.72366 14.74217 24.23291
#
# Velocity S-wave (km/s) = 4.02835 2.66342 3.41478
# Velocity P-wave (km/s) = 5.96978 4.99835 5.50553
#
# Compressibility (1/GPa) = 0.03436727
#
# Stress axis : x y z
#
# Youngs Moduli (GPa) = 47.67920 65.23531 89.67367
#
# Poissons Ratio (x) = 0.20099 0.00768
# Poissons Ratio (y) = 0.14690 0.30282
# Poissons Ratio (z) = 0.00408 0.22029
#
# Static dielectric constant tensor:
#      x y z
#    x 1.761130 0.000000 0.000000 
#    y 0.000000 1.757150 0.000000 
#    z 0.000000 0.000000 1.841420 
# 
# From -- ./inp_files/24449.got.cif
#   From: 2010.05.17/outbox.cif.g08.bks.cpg/sg60_13_cif.got.tgz:24449.got - 2010.06.03 14:59:27.
