data_PCOD9457761
_publ_section_title
;
Structure prediction by ZEFSAII (Michael W. Deem and Ramdas Pophale) SiO2 
 PCOD9457761
Probable space group: P B C N
;
_chemical_formula_sum "Si O2"
_cell_formula_units_Z 48
_cell_length_a 16.069168
_cell_length_b 9.444704
_cell_length_c 13.375706
_cell_angle_alpha 90.000000
_cell_angle_beta 90.000000
_cell_angle_gamma 90.000000
_cell_volume 2030.011308
_symmetry_space_group_name_H-M "P B C N"
_symmetry_group_IT_number 60
_symmetry_cell_setting 'orthorhombic'
loop_
_space_group_symop_operation_xyz
x,y,z
1/2-x,1/2-y,1/2+z
1/2+x,1/2-y,-z
-x,y,1/2-z
-x,-y,-z
1/2+x,1/2+y,1/2-z
1/2-x,1/2+y,z
x,-y,1/2+z
loop_
_atom_site_type_symbol
_atom_site_label
_atom_site_fract_x
_atom_site_fract_y
_atom_site_fract_z
Si Si1 0.211126 0.239954 0.611157
Si Si2 0.619994 0.295750 0.769898
Si Si3 0.029610 0.649869 0.882141
Si Si4 0.555263 0.152683 0.088319
Si Si5 0.362003 0.392685 0.304029
Si Si6 0.770424 0.500974 0.029917
O O1 0.300598 0.262819 0.663700
O O2 0.157150 0.208083 0.709159
O O3 0.197298 0.378299 0.544287
O O4 0.213694 0.105201 0.537613
O O5 0.614162 0.210022 0.665215
O O6 0.543586 0.239917 0.833848
O O7 0.612372 0.458396 0.742140
O O8 0.022833 0.485263 0.854313
O O9 0.009853 0.664751 0.998088
O O10 0.569440 0.304999 0.135582
O O11 0.649172 0.095937 0.060344
O O12 0.285074 0.434796 0.379542
#
# Coordination Sequence:
#
# PCOD9457761 Si02
#       6
#     8   8   8   8   8   8
#     4  12  25  42  71 107 143 178 231 296 364 425
#     4  11  23  44  66  99 139 181 232 290 346 415
#     4  10  24  44  69  90 136 191 234 287 339 420
#     4  11  24  45  67 101 135 190 239 282 359 427
#     4  12  26  43  72 107 143 181 234 304 358 420
#     4  12  24  44  71 108 144 180 232 296 366 429
#
# _framework density 23.645187
#
# number of rings (size 3 to 8) (size 9 to 14) (size 15 to 20)
#    0.000    0.667    5.000    2.000    4.667    0.667 
#    0.000   10.000    0.000    0.000    0.000    0.000 
#    0.000    0.000    0.000    0.000    0.000    0.000 
#
# Total GULP energy -268308.640969 kJ/mol
# GULP energy per Si atom -5589.763354 kJ/mol
# Density = 2.359137 g / cm^3
# Si number density = 23.645187 Si / 1000 Ang^3
#
#
#
# Elastic Constant Matrix: (Units=GPa)
#
#
# Indices 1 2 3 4 5 6 
#
# 1 57.0842 3.0393 12.4951 0.0000 0.0000 0.0000
# 2 3.0393 102.8907 17.4886 0.0000 0.0000 0.0000
# 3 12.4951 17.4886 77.9613 0.0000 0.0000 0.0000
# 4 0.0000 0.0000 0.0000 58.9269 0.0000 0.0000
# 5 0.0000 0.0000 0.0000 0.0000 27.5441 0.0000
# 6 0.0000 0.0000 0.0000 0.0000 0.0000 29.1707
#
#
#
# Elastic Compliance Matrix: (Units=1/GPa)
#
#
# Indices 1 2 3 4 5 6 
#
# 1 0.018155 -0.000043 -0.002900 0.000000 0.000000 0.000000
# 2 -0.000043 0.010104 -0.002260 0.000000 0.000000 0.000000
# 3 -0.002900 -0.002260 0.013799 0.000000 0.000000 0.000000
# 4 0.000000 0.000000 0.000000 0.016970 0.000000 0.000000
# 5 0.000000 0.000000 0.000000 0.000000 0.036305 0.000000
# 6 0.000000 0.000000 0.000000 0.000000 0.000000 0.034281
#
#
# Mechanical properties :
#
#
# Convention : Reuss Voigt Hill
#
# Bulk Modulus (GPa) = 31.59370 33.77577 32.68473
# Shear Modulus (GPa) = 33.20680 36.78921 34.99801
#
# Velocity S-wave (km/s) = 3.75157 3.94875 3.85142
# Velocity P-wave (km/s) = 5.67065 5.92500 5.79922
#
# Compressibility (1/GPa) = 0.03165188
#
# Stress axis : x y z
#
# Youngs Moduli (GPa) = 55.08099 98.96655 72.47125
#
# Poissons Ratio (x) = 0.00429 0.21017
# Poissons Ratio (y) = 0.00239 0.16376
# Poissons Ratio (z) = 0.15974 0.22364
#
# Static dielectric constant tensor:
#      x y z
#    x 1.943060 0.000000 0.000000 
#    y 0.000000 1.853400 0.000000 
#    z 0.000000 0.000000 1.938900 
# 
# From -- ./inp_files/17302.got.cif
#   From: 2010.05.17/outbox.cif.g08.bks.cpg/sg60_9_cif.got.tgz:17302.got - 2010.06.03 14:59:27.
