data_PCOD9457252
_publ_section_title
;
Structure prediction by ZEFSAII (Michael W. Deem and Ramdas Pophale) SiO2 
 PCOD9457252
Probable space group: P B C N
;
_chemical_formula_sum "Si O2"
_cell_formula_units_Z 36
_cell_length_a 5.305761
_cell_length_b 13.277687
_cell_length_c 20.067872
_cell_angle_alpha 90.000000
_cell_angle_beta 90.000000
_cell_angle_gamma 90.000000
_cell_volume 1413.746140
_symmetry_space_group_name_H-M "P B C N"
_symmetry_group_IT_number 60
_symmetry_cell_setting 'orthorhombic'
loop_
_space_group_symop_operation_xyz
x,y,z
1/2-x,1/2-y,1/2+z
1/2+x,1/2-y,-z
-x,y,1/2-z
-x,-y,-z
1/2+x,1/2+y,1/2-z
1/2-x,1/2+y,z
x,-y,1/2+z
loop_
_atom_site_type_symbol
_atom_site_label
_atom_site_fract_x
_atom_site_fract_y
_atom_site_fract_z
Si Si1 0.660646 0.973283 0.933053
Si Si2 0.964431 0.772941 0.963397
Si Si3 0.112796 0.649724 0.324511
Si Si4 0.208154 0.840470 0.142525
Si Si5 0.500000 0.242565 0.750000
O O1 0.849838 0.882379 0.950207
O O2 0.463882 0.936711 0.875655
O O3 0.835773 0.056207 0.895369
O O4 0.500000 0.000000 0.000000
O O5 0.943873 0.698910 0.901096
O O6 0.746696 0.725003 0.010479
O O7 0.394914 0.679859 0.305107
O O8 0.000000 0.631788 0.250000
O O9 0.994716 0.751278 0.357246
O O10 0.296243 0.833134 0.218761
#
# Coordination Sequence:
#
# PCOD9457252 Si02
#       5
#     8   8   8   8   4
#     4  11  23  42  73 114 143 197 251 316 382 474
#     4  11  25  46  71 102 149 194 239 307 384 452
#     4   9  22  45  71 100 145 195 246 309 388 448
#     4  10  23  41  70 100 145 188 244 304 374 454
#     4  10  22  46  72  98 142 198 244 316 376 458
#
# _framework density 25.464258999999998
#
# number of rings (size 3 to 8) (size 9 to 14) (size 15 to 20)
#    0.000    1.778    2.222    0.000    7.778    0.889 
#    4.000    0.000    9.778    0.000    0.000    0.000 
#    0.000    0.000    0.000    0.000    0.000    0.000 
#
# Total GULP energy -200859.308018 kJ/mol
# GULP energy per Si atom -5579.425223 kJ/mol
# Density = 2.540630 g / cm^3
# Si number density = 25.464259 Si / 1000 Ang^3
#
#
#
# Elastic Constant Matrix: (Units=GPa)
#
#
# Indices 1 2 3 4 5 6 
#
# 1 56.3076 -12.7983 36.5412 0.0000 0.0000 0.0000
# 2 -12.7983 90.9740 42.2508 0.0000 0.0000 0.0000
# 3 36.5412 42.2508 125.8976 0.0000 0.0000 0.0000
# 4 0.0000 0.0000 0.0000 49.1678 0.0000 0.0000
# 5 0.0000 0.0000 0.0000 0.0000 61.1917 0.0000
# 6 0.0000 0.0000 0.0000 0.0000 0.0000 16.7977
#
#
#
# Elastic Compliance Matrix: (Units=1/GPa)
#
#
# Indices 1 2 3 4 5 6 
#
# 1 0.026650 0.008697 -0.010654 0.000000 0.000000 0.000000
# 2 0.008697 0.015860 -0.007847 0.000000 0.000000 0.000000
# 3 -0.010654 -0.007847 0.013669 0.000000 0.000000 0.000000
# 4 0.000000 0.000000 0.000000 0.020338 0.000000 0.000000
# 5 0.000000 0.000000 0.000000 0.000000 0.016342 0.000000
# 6 0.000000 0.000000 0.000000 0.000000 0.000000 0.059532
#
#
# Mechanical properties :
#
#
# Convention : Reuss Voigt Hill
#
# Bulk Modulus (GPa) = 27.34361 45.01853 36.18107
# Shear Modulus (GPa) = 27.14603 39.24381 33.19492
#
# Velocity S-wave (km/s) = 3.26858 3.92999 3.61444
# Velocity P-wave (km/s) = 5.00061 6.18955 5.62657
#
# Compressibility (1/GPa) = 0.03657162
#
# Stress axis : x y z
#
# Youngs Moduli (GPa) = 37.52311 63.05189 73.16062
#
# Poissons Ratio (x) = -0.54837 0.77944
# Poissons Ratio (y) = -0.32634 0.57408
# Poissons Ratio (z) = 0.39976 0.49476
#
# Static dielectric constant tensor:
#      x y z
#    x 2.059940 0.000000 0.000000 
#    y 0.000000 2.057840 0.000000 
#    z 0.000000 0.000000 2.170640 
# 
# From -- ./inp_files/21461.got.cif
#   From: 2010.05.17/outbox.cif.g08.bks.cpg/sg60_11_cif.got.tgz:21461.got - 2010.06.03 14:59:27.
