data_PCOD9457976
_publ_section_title
;
Structure prediction by ZEFSAII (Michael W. Deem and Ramdas Pophale) SiO2 
 PCOD9457976
Probable space group: P B C N
;
_chemical_formula_sum "Si O2"
_cell_formula_units_Z 52
_cell_length_a 18.652895
_cell_length_b 14.258876
_cell_length_c 7.698121
_cell_angle_alpha 90.000000
_cell_angle_beta 90.000000
_cell_angle_gamma 90.000000
_cell_volume 2047.463983
_symmetry_space_group_name_H-M "P B C N"
_symmetry_group_IT_number 60
_symmetry_cell_setting 'orthorhombic'
loop_
_space_group_symop_operation_xyz
x,y,z
1/2-x,1/2-y,1/2+z
1/2+x,1/2-y,-z
-x,y,1/2-z
-x,-y,-z
1/2+x,1/2+y,1/2-z
1/2-x,1/2+y,z
x,-y,1/2+z
loop_
_atom_site_type_symbol
_atom_site_label
_atom_site_fract_x
_atom_site_fract_y
_atom_site_fract_z
Si Si1 0.500000 0.736156 0.750000
Si Si2 0.715774 0.251815 0.142217
Si Si3 0.652136 0.373335 0.651641
Si Si4 0.212190 0.945417 0.168293
Si Si5 0.875915 0.425648 0.293473
Si Si6 0.584235 0.264110 0.920772
Si Si7 0.617708 0.128648 0.391824
O O1 0.453164 0.693576 0.907953
O O2 0.445947 0.798349 0.636472
O O3 0.793933 0.211714 0.110041
O O4 0.711496 0.358384 0.202251
O O5 0.668538 0.254636 0.969315
O O6 0.679586 0.179436 0.278485
O O7 0.648262 0.423039 0.466469
O O8 0.693309 0.453165 0.759951
O O9 0.585021 0.330334 0.752619
O O10 0.296751 0.940864 0.114125
O O11 0.927178 0.346138 0.378296
O O12 0.866983 0.394658 0.092804
O O13 0.904989 0.530698 0.303355
#
# Coordination Sequence:
#
# PCOD9457976 Si02
#       7
#     4   8   8   8   8   8   8
#     4  10  26  48  62  90 128 186 230 282 302 382
#     4  11  21  38  61  94 128 170 207 268 328 399
#     4  12  22  38  61  94 129 174 205 267 332 401
#     4  12  24  36  63  99 141 163 206 266 346 404
#     4  12  22  37  63  99 130 176 206 274 326 408
#     4  11  24  42  65  90 132 171 228 264 329 383
#     4  11  24  39  64  92 135 175 230 262 328 376
#
# _framework density 25.397273999999999
#
# number of rings (size 3 to 8) (size 9 to 14) (size 15 to 20)
#    0.000    0.615    4.615    4.615    2.154    3.077 
#    0.000    0.000    0.000    8.308    0.000    0.000 
#    0.000    0.000    0.000    0.000    0.000    0.000 
#
# Total GULP energy -290526.745166 kJ/mol
# GULP energy per Si atom -5587.052792 kJ/mol
# Density = 2.533947 g / cm^3
# Si number density = 25.397274 Si / 1000 Ang^3
#
#
#
# Elastic Constant Matrix: (Units=GPa)
#
#
# Indices 1 2 3 4 5 6 
#
# 1 39.7897 -4.0106 -2.1927 0.0000 0.0000 0.0000
# 2 -4.0106 99.6102 -0.4161 0.0000 0.0000 0.0000
# 3 -2.1927 -0.4161 81.3052 0.0000 0.0000 0.0000
# 4 0.0000 0.0000 0.0000 36.7559 0.0000 0.0000
# 5 0.0000 0.0000 0.0000 0.0000 45.1047 0.0000
# 6 0.0000 0.0000 0.0000 0.0000 0.0000 2.8953
#
#
#
# Elastic Compliance Matrix: (Units=1/GPa)
#
#
# Indices 1 2 3 4 5 6 
#
# 1 0.025273 0.001020 0.000687 0.000000 0.000000 0.000000
# 2 0.001020 0.010081 0.000079 0.000000 0.000000 0.000000
# 3 0.000687 0.000079 0.012318 0.000000 0.000000 0.000000
# 4 0.000000 0.000000 0.000000 0.027207 0.000000 0.000000
# 5 0.000000 0.000000 0.000000 0.000000 0.022171 0.000000
# 6 0.000000 0.000000 0.000000 0.000000 0.000000 0.345385
#
#
# Mechanical properties :
#
#
# Convention : Reuss Voigt Hill
#
# Bulk Modulus (GPa) = 19.51437 23.05183 21.28310
# Shear Modulus (GPa) = 10.96630 32.10615 21.53623
#
# Velocity S-wave (km/s) = 2.08021 3.55936 2.91516
# Velocity P-wave (km/s) = 3.67015 5.09786 4.44175
#
# Compressibility (1/GPa) = 0.05124429
#
# Stress axis : x y z
#
# Youngs Moduli (GPa) = 39.56817 99.20100 81.18031
#
# Poissons Ratio (x) = -0.10123 -0.05575
# Poissons Ratio (y) = -0.04038 -0.00642
# Poissons Ratio (z) = -0.02718 -0.00785
#
# Static dielectric constant tensor:
#      x y z
#    x 2.089980 0.000000 0.000000 
#    y 0.000000 2.040880 0.000000 
#    z 0.000000 0.000000 2.049310 
# 
# From -- ./inp_files/7363.got.cif
#   From: 2010.05.17/outbox.cif.g08.bks.cpg/sg60_4_cif.got.tgz:7363.got - 2010.06.03 14:59:27.
