data_PCOD9457384
_publ_section_title
;
Structure prediction by ZEFSAII (Michael W. Deem and Ramdas Pophale) SiO2 
 PCOD9457384
Probable space group: P B C N
;
_chemical_formula_sum "Si O2"
_cell_formula_units_Z 32
_cell_length_a 5.237945
_cell_length_b 33.012305
_cell_length_c 8.582675
_cell_angle_alpha 90.000000
_cell_angle_beta 90.000000
_cell_angle_gamma 90.000000
_cell_volume 1484.087305
_symmetry_space_group_name_H-M "P B C N"
_symmetry_group_IT_number 60
_symmetry_cell_setting 'orthorhombic'
loop_
_space_group_symop_operation_xyz
x,y,z
1/2-x,1/2-y,1/2+z
1/2+x,1/2-y,-z
-x,y,1/2-z
-x,-y,-z
1/2+x,1/2+y,1/2-z
1/2-x,1/2+y,z
x,-y,1/2+z
loop_
_atom_site_type_symbol
_atom_site_label
_atom_site_fract_x
_atom_site_fract_y
_atom_site_fract_z
Si Si1 0.537740 0.454570 0.936356
Si Si2 0.250941 0.737835 0.143632
Si Si3 0.525050 0.818236 0.434680
Si Si4 0.043017 0.410399 0.062755
O O1 0.500000 0.454025 0.750000
O O2 0.500000 0.500000 0.000000
O O3 0.809793 0.434913 0.983470
O O4 0.312047 0.429620 0.017943
O O5 0.500000 0.733489 0.250000
O O6 0.273349 0.781243 0.057430
O O7 0.000000 0.737492 0.250000
O O8 0.214535 0.701730 0.021360
O O9 0.500000 0.823076 0.250000
O O10 0.559612 0.863601 0.493629
O O11 0.000000 0.411953 0.250000
#
# Coordination Sequence:
#
# PCOD9457384 Si02
#       4
#     8   8   8   8
#     4  12  26  47  72 100 133 170 214 267 332 398
#     4  11  24  41  64  94 132 177 225 276 326 380
#     4  10  23  42  65  94 132 177 224 270 326 386
#     4  11  25  44  69 100 135 174 219 271 327 392
#
# _framework density 21.562076999999999
#
# number of rings (size 3 to 8) (size 9 to 14) (size 15 to 20)
#    0.000    1.000    0.000    6.750    0.000   13.000 
#    0.000    1.250    0.000    0.000    0.000    0.000 
#    0.000    0.000    0.000    0.000    0.000    0.000 
#
# Total GULP energy -178799.909187 kJ/mol
# GULP energy per Si atom -5587.497162 kJ/mol
# Density = 2.151300 g / cm^3
# Si number density = 21.562077 Si / 1000 Ang^3
#
#
#
# Elastic Constant Matrix: (Units=GPa)
#
#
# Indices 1 2 3 4 5 6 
#
# 1 104.8529 8.9268 8.2970 0.0000 0.0000 0.0000
# 2 8.9268 157.9374 -0.6315 0.0000 0.0000 0.0000
# 3 8.2970 -0.6315 83.0121 0.0000 0.0000 0.0000
# 4 0.0000 0.0000 0.0000 16.0750 0.0000 0.0000
# 5 0.0000 0.0000 0.0000 0.0000 48.0213 0.0000
# 6 0.0000 0.0000 0.0000 0.0000 0.0000 41.9172
#
#
#
# Elastic Compliance Matrix: (Units=1/GPa)
#
#
# Indices 1 2 3 4 5 6 
#
# 1 0.009661 -0.000550 -0.000970 0.000000 0.000000 0.000000
# 2 -0.000550 0.006363 0.000103 0.000000 0.000000 0.000000
# 3 -0.000970 0.000103 0.012144 0.000000 0.000000 0.000000
# 4 0.000000 0.000000 0.000000 0.062208 0.000000 0.000000
# 5 0.000000 0.000000 0.000000 0.000000 0.020824 0.000000
# 6 0.000000 0.000000 0.000000 0.000000 0.000000 0.023857
#
#
# Mechanical properties :
#
#
# Convention : Reuss Voigt Hill
#
# Bulk Modulus (GPa) = 39.47051 42.10967 40.79009
# Shear Modulus (GPa) = 34.16822 43.15002 38.65912
#
# Velocity S-wave (km/s) = 3.98508 4.47833 4.23888
# Velocity P-wave (km/s) = 6.28647 6.80533 6.55104
#
# Compressibility (1/GPa) = 0.02533537
#
# Stress axis : x y z
#
# Youngs Moduli (GPa) = 103.51185 157.15565 82.34417
#
# Poissons Ratio (x) = 0.08642 0.07985
# Poissons Ratio (y) = 0.05692 -0.00851
# Poissons Ratio (z) = 0.10038 -0.01624
#
# Static dielectric constant tensor:
#      x y z
#    x 1.775280 0.000000 0.000000 
#    y 0.000000 1.783470 0.000000 
#    z 0.000000 0.000000 1.814010 
# 
# From -- ./inp_files/3030.got.cif
#   From: 2010.05.17/outbox.cif.g08.bks.cpg/sg60_2_cif.got.tgz:3030.got - 2010.06.03 14:59:27.
