data_PCOD9457935
_publ_section_title
;
Structure prediction by ZEFSAII (Michael W. Deem and Ramdas Pophale) SiO2 
 PCOD9457935
Probable space group: P B C N
;
_chemical_formula_sum "Si O2"
_cell_formula_units_Z 28
_cell_length_a 4.943298
_cell_length_b 17.009062
_cell_length_c 13.542461
_cell_angle_alpha 90.000000
_cell_angle_beta 90.000000
_cell_angle_gamma 90.000000
_cell_volume 1138.661797
_symmetry_space_group_name_H-M "P B C N"
_symmetry_group_IT_number 60
_symmetry_cell_setting 'orthorhombic'
loop_
_space_group_symop_operation_xyz
x,y,z
1/2-x,1/2-y,1/2+z
1/2+x,1/2-y,-z
-x,y,1/2-z
-x,-y,-z
1/2+x,1/2+y,1/2-z
1/2-x,1/2+y,z
x,-y,1/2+z
loop_
_atom_site_type_symbol
_atom_site_label
_atom_site_fract_x
_atom_site_fract_y
_atom_site_fract_z
Si Si1 0.333253 0.339440 0.527087
Si Si2 0.520764 0.190254 0.855423
Si Si3 0.644754 0.058513 0.078647
Si Si4 0.000000 0.543934 0.750000
O O1 0.360613 0.251266 0.567809
O O2 0.585587 0.397244 0.544329
O O3 0.252438 0.335264 0.411829
O O4 0.082839 0.375093 0.587738
O O5 0.500000 0.233069 0.750000
O O6 0.650891 0.107148 0.821631
O O7 0.677150 0.010687 0.179657
O O8 0.500000 0.000000 0.000000
#
# Coordination Sequence:
#
# PCOD9457935 Si02
#       4
#     8   8   8   4
#     4  12  26  51  78 109 157 203 262 317 393 467
#     4  10  25  50  75 114 151 209 258 321 385 468
#     4  12  26  49  75 113 151 201 254 329 390 466
#     4  10  26  46  74 114 154 200 260 318 396 458
#
# _framework density 24.590271000000001
#
# number of rings (size 3 to 8) (size 9 to 14) (size 15 to 20)
#    0.857    0.000    2.857    2.571    4.000    0.000 
#    0.000   15.714    0.000    0.000    0.000    0.000 
#    0.000    0.000    0.000    0.000    0.000    0.000 
#
# Total GULP energy -156279.373076 kJ/mol
# GULP energy per Si atom -5581.406181 kJ/mol
# Density = 2.453430 g / cm^3
# Si number density = 24.590271 Si / 1000 Ang^3
#
#
#
# Elastic Constant Matrix: (Units=GPa)
#
#
# Indices 1 2 3 4 5 6 
#
# 1 129.0783 61.8040 53.7702 0.0000 0.0000 0.0000
# 2 61.8040 148.2910 77.8726 0.0000 0.0000 0.0000
# 3 53.7702 77.8726 175.3042 0.0000 0.0000 0.0000
# 4 0.0000 0.0000 0.0000 51.4344 0.0000 0.0000
# 5 0.0000 0.0000 0.0000 0.0000 22.3780 0.0000
# 6 0.0000 0.0000 0.0000 0.0000 0.0000 33.2632
#
#
#
# Elastic Compliance Matrix: (Units=1/GPa)
#
#
# Indices 1 2 3 4 5 6 
#
# 1 0.010006 -0.003337 -0.001587 0.000000 0.000000 0.000000
# 2 -0.003337 0.009908 -0.003378 0.000000 0.000000 0.000000
# 3 -0.001587 -0.003378 0.007692 0.000000 0.000000 0.000000
# 4 0.000000 0.000000 0.000000 0.019442 0.000000 0.000000
# 5 0.000000 0.000000 0.000000 0.000000 0.044687 0.000000
# 6 0.000000 0.000000 0.000000 0.000000 0.000000 0.030063
#
#
# Mechanical properties :
#
#
# Convention : Reuss Voigt Hill
#
# Bulk Modulus (GPa) = 90.88792 93.28524 92.08658
# Shear Modulus (GPa) = 35.19429 38.69688 36.94559
#
# Velocity S-wave (km/s) = 3.78726 3.97125 3.88035
# Velocity P-wave (km/s) = 7.49437 7.68414 7.58985
#
# Compressibility (1/GPa) = 0.01100256
#
# Stress axis : x y z
#
# Youngs Moduli (GPa) = 99.93984 100.92806 130.01352
#
# Poissons Ratio (x) = 0.33680 0.20630
# Poissons Ratio (y) = 0.33350 0.43915
# Poissons Ratio (z) = 0.15858 0.34091
#
# Static dielectric constant tensor:
#      x y z
#    x 1.992390 0.000000 0.000000 
#    y 0.000000 1.988700 0.000000 
#    z 0.000000 0.000000 2.017510 
# 
# From -- ./inp_files/13673.got.cif
#   From: 2010.05.17/outbox.cif.g08.bks.cpg/sg60_7_cif.got.tgz:13673.got - 2010.06.03 14:59:27.
