data_PCOD9457340
_publ_section_title
;
Structure prediction by ZEFSAII (Michael W. Deem and Ramdas Pophale) SiO2 
 PCOD9457340
Probable space group: P B C N
;
_chemical_formula_sum "Si O2"
_cell_formula_units_Z 40
_cell_length_a 5.000828
_cell_length_b 28.365894
_cell_length_c 12.273300
_cell_angle_alpha 90.000000
_cell_angle_beta 90.000000
_cell_angle_gamma 90.000000
_cell_volume 1741.003897
_symmetry_space_group_name_H-M "P B C N"
_symmetry_group_IT_number 60
_symmetry_cell_setting 'orthorhombic'
loop_
_space_group_symop_operation_xyz
x,y,z
1/2-x,1/2-y,1/2+z
1/2+x,1/2-y,-z
-x,y,1/2-z
-x,-y,-z
1/2+x,1/2+y,1/2-z
1/2-x,1/2+y,z
x,-y,1/2+z
loop_
_atom_site_type_symbol
_atom_site_label
_atom_site_fract_x
_atom_site_fract_y
_atom_site_fract_z
Si Si1 0.453593 0.751288 0.074073
Si Si2 0.670787 0.662826 0.846376
Si Si3 0.615232 0.390095 0.553004
Si Si4 0.000000 0.825744 0.750000
Si Si5 0.500000 0.079973 0.750000
Si Si6 0.122815 0.551360 0.981576
O O1 0.409052 0.802128 0.126798
O O2 0.374895 0.711175 0.162208
O O3 0.752060 0.748033 0.028633
O O4 0.500000 0.685166 0.750000
O O5 0.779092 0.614123 0.799979
O O6 0.532258 0.648041 0.959664
O O7 0.640527 0.362270 0.666580
O O8 0.396499 0.432112 0.540433
O O9 0.901971 0.411331 0.522907
O O10 0.638146 0.053915 0.649689
O O11 0.000000 0.500000 0.000000
#
# Coordination Sequence:
#
# PCOD9457340 Si02
#       6
#     8   8   8   4   4   8
#     4  12  30  46  70 106 148 198 253 297 349 432
#     4  11  23  44  72 101 141 189 245 291 342 423
#     4  11  26  45  71 105 143 187 235 295 372 428
#     4  12  29  48  72 108 158 192 242 310 371 430
#     4  10  23  40  74 100 132 186 230 290 351 418
#     4  11  25  47  73 107 140 180 241 300 369 447
#
# _framework density 22.975249999999999
#
# number of rings (size 3 to 8) (size 9 to 14) (size 15 to 20)
#    0.000    0.800    4.000    1.200   11.200    4.000 
#    0.000    0.000    0.000    0.000    0.000    0.000 
#    0.000    0.000    0.000    0.000    0.000    0.000 
#
# Total GULP energy -223353.265812 kJ/mol
# GULP energy per Si atom -5583.831645 kJ/mol
# Density = 2.292296 g / cm^3
# Si number density = 22.975250 Si / 1000 Ang^3
#
#
#
# Elastic Constant Matrix: (Units=GPa)
#
#
# Indices 1 2 3 4 5 6 
#
# 1 48.3528 -23.1513 -2.2079 0.0000 0.0000 0.0000
# 2 -23.1513 69.5152 34.9031 0.0000 0.0000 0.0000
# 3 -2.2079 34.9031 138.5358 0.0000 0.0000 0.0000
# 4 0.0000 0.0000 0.0000 33.7604 0.0000 0.0000
# 5 0.0000 0.0000 0.0000 0.0000 23.7715 0.0000
# 6 0.0000 0.0000 0.0000 0.0000 0.0000 30.7411
#
#
#
# Elastic Compliance Matrix: (Units=1/GPa)
#
#
# Indices 1 2 3 4 5 6 
#
# 1 0.025056 0.009324 -0.001950 0.000000 0.000000 0.000000
# 2 0.009324 0.019938 -0.004875 0.000000 0.000000 0.000000
# 3 -0.001950 -0.004875 0.008415 0.000000 0.000000 0.000000
# 4 0.000000 0.000000 0.000000 0.029620 0.000000 0.000000
# 5 0.000000 0.000000 0.000000 0.000000 0.042067 0.000000
# 6 0.000000 0.000000 0.000000 0.000000 0.000000 0.032530
#
#
# Mechanical properties :
#
#
# Convention : Reuss Voigt Hill
#
# Bulk Modulus (GPa) = 17.12075 30.61019 23.86547
# Shear Modulus (GPa) = 29.05321 34.11195 31.58258
#
# Velocity S-wave (km/s) = 3.55990 3.85739 3.71163
# Velocity P-wave (km/s) = 4.93611 5.76119 5.36454
#
# Compressibility (1/GPa) = 0.05840865
#
# Stress axis : x y z
#
# Youngs Moduli (GPa) = 39.90985 50.15535 118.82960
#
# Poissons Ratio (x) = -0.46763 0.23168
# Poissons Ratio (y) = -0.37211 0.57925
# Poissons Ratio (z) = 0.07781 0.24449
#
# Static dielectric constant tensor:
#      x y z
#    x 1.861470 0.000000 0.000000 
#    y 0.000000 1.865660 0.000000 
#    z 0.000000 0.000000 1.943660 
# 
# From -- ./inp_files/9116.got.cif
#   From: 2010.05.17/outbox.cif.g08.bks.cpg/sg60_5_cif.got.tgz:9116.got - 2010.06.03 14:59:27.
