data_PCOD9457978
_publ_section_title
;
Structure prediction by ZEFSAII (Michael W. Deem and Ramdas Pophale) SiO2 
 PCOD9457978
Probable space group: P B C N
;
_chemical_formula_sum "Si O2"
_cell_formula_units_Z 36
_cell_length_a 17.980337
_cell_length_b 9.137732
_cell_length_c 8.542549
_cell_angle_alpha 90.000000
_cell_angle_beta 90.000000
_cell_angle_gamma 90.000000
_cell_volume 1403.536536
_symmetry_space_group_name_H-M "P B C N"
_symmetry_group_IT_number 60
_symmetry_cell_setting 'orthorhombic'
loop_
_space_group_symop_operation_xyz
x,y,z
1/2-x,1/2-y,1/2+z
1/2+x,1/2-y,-z
-x,y,1/2-z
-x,-y,-z
1/2+x,1/2+y,1/2-z
1/2-x,1/2+y,z
x,-y,1/2+z
loop_
_atom_site_type_symbol
_atom_site_label
_atom_site_fract_x
_atom_site_fract_y
_atom_site_fract_z
Si Si1 0.372887 0.427650 0.961031
Si Si2 0.389761 0.834926 0.676322
Si Si3 0.092809 0.356643 0.041850
Si Si4 0.000000 0.873801 0.750000
Si Si5 0.788044 0.171420 0.337384
O O1 0.442353 0.468435 0.850653
O O2 0.317176 0.350797 0.838757
O O3 0.406301 0.311621 0.081992
O O4 0.327701 0.551761 0.050972
O O5 0.299825 0.839250 0.664523
O O6 0.422850 0.977560 0.592094
O O7 0.411991 0.836092 0.856965
O O8 0.044993 0.237656 0.137257
O O9 0.177576 0.322452 0.098974
#
# Coordination Sequence:
#
# PCOD9457978 Si02
#       5
#     8   8   8   4   8
#     4  11  25  41  68  94 134 174 214 274 323 399
#     4  12  23  41  67 100 127 168 217 275 339 385
#     4  11  25  41  68  94 134 174 214 273 322 399
#     4  10  26  48  62  96 130 176 228 256 328 396
#     4  11  22  42  66  99 130 167 217 274 338 390
#
# _framework density 25.649493
#
# number of rings (size 3 to 8) (size 9 to 14) (size 15 to 20)
#    0.000    0.889    0.000    8.000    0.000    8.000 
#    0.000    0.000    0.000    0.000    0.000    0.000 
#    0.000    0.000    0.000    0.000    0.000    0.000 
#
# Total GULP energy -202038.053998 kJ/mol
# GULP energy per Si atom -5612.168167 kJ/mol
# Density = 2.559111 g / cm^3
# Si number density = 25.649493 Si / 1000 Ang^3
#
#
#
# Elastic Constant Matrix: (Units=GPa)
#
#
# Indices 1 2 3 4 5 6 
#
# 1 123.2216 13.2016 55.6208 0.0000 0.0000 0.0000
# 2 13.2016 79.6476 47.0659 0.0000 0.0000 0.0000
# 3 55.6208 47.0659 200.3419 0.0000 0.0000 0.0000
# 4 0.0000 0.0000 0.0000 45.9474 0.0000 0.0000
# 5 0.0000 0.0000 0.0000 0.0000 52.1364 0.0000
# 6 0.0000 0.0000 0.0000 0.0000 0.0000 37.3038
#
#
#
# Elastic Compliance Matrix: (Units=1/GPa)
#
#
# Indices 1 2 3 4 5 6 
#
# 1 0.009278 -0.000018 -0.002572 0.000000 0.000000 0.000000
# 2 -0.000018 0.014579 -0.003420 0.000000 0.000000 0.000000
# 3 -0.002572 -0.003420 0.006509 0.000000 0.000000 0.000000
# 4 0.000000 0.000000 0.000000 0.021764 0.000000 0.000000
# 5 0.000000 0.000000 0.000000 0.000000 0.019180 0.000000
# 6 0.000000 0.000000 0.000000 0.000000 0.000000 0.026807
#
#
# Mechanical properties :
#
#
# Convention : Reuss Voigt Hill
#
# Bulk Modulus (GPa) = 54.50582 70.55419 62.53001
# Shear Modulus (GPa) = 43.00959 46.23236 44.62097
#
# Velocity S-wave (km/s) = 4.09934 4.25015 4.17543
# Velocity P-wave (km/s) = 6.61079 7.18692 6.90487
#
# Compressibility (1/GPa) = 0.01834667
#
# Stress axis : x y z
#
# Youngs Moduli (GPa) = 107.77936 68.59029 153.63609
#
# Poissons Ratio (x) = 0.00125 0.39509
# Poissons Ratio (y) = 0.00196 0.52544
# Poissons Ratio (z) = 0.27717 0.23458
#
# Static dielectric constant tensor:
#      x y z
#    x 2.050750 0.000000 0.000000 
#    y 0.000000 1.974130 0.000000 
#    z 0.000000 0.000000 1.953660 
# 
# From -- ./inp_files/7175.got.cif
#   From: 2010.05.17/outbox.cif.g08.bks.cpg/sg60_4_cif.got.tgz:7175.got - 2010.06.03 14:59:27.
