data_PCOD9457952
_publ_section_title
;
Structure prediction by ZEFSAII (Michael W. Deem and Ramdas Pophale) SiO2 
 PCOD9457952
Probable space group: P B C N
;
_chemical_formula_sum "Si O2"
_cell_formula_units_Z 56
_cell_length_a 12.161204
_cell_length_b 22.176939
_cell_length_c 8.995361
_cell_angle_alpha 90.000000
_cell_angle_beta 90.000000
_cell_angle_gamma 90.000000
_cell_volume 2426.033383
_symmetry_space_group_name_H-M "P B C N"
_symmetry_group_IT_number 60
_symmetry_cell_setting 'orthorhombic'
loop_
_space_group_symop_operation_xyz
x,y,z
1/2-x,1/2-y,1/2+z
1/2+x,1/2-y,-z
-x,y,1/2-z
-x,-y,-z
1/2+x,1/2+y,1/2-z
1/2-x,1/2+y,z
x,-y,1/2+z
loop_
_atom_site_type_symbol
_atom_site_label
_atom_site_fract_x
_atom_site_fract_y
_atom_site_fract_z
Si Si1 0.104056 0.247657 0.150613
Si Si2 0.857057 0.423887 0.973252
Si Si3 0.094038 0.632429 0.475759
Si Si4 0.664853 0.420453 0.501716
Si Si5 0.266081 0.507481 0.763594
Si Si6 0.833079 0.301556 0.821584
Si Si7 0.523074 0.311038 0.416852
O O1 0.218648 0.229423 0.222699
O O2 0.913419 0.208701 0.498727
O O3 0.000000 0.232418 0.250000
O O4 0.094040 0.317383 0.104594
O O5 0.815898 0.467333 0.839517
O O6 0.813545 0.357105 0.933042
O O7 0.988404 0.411225 0.978920
O O8 0.805617 0.451588 0.123185
O O9 0.206761 0.597172 0.490886
O O10 0.107227 0.669081 0.320923
O O11 0.654833 0.465023 0.639298
O O12 0.657970 0.454335 0.345937
O O13 0.589093 0.362280 0.502901
O O14 0.904388 0.249751 0.899724
O O15 0.500000 0.331702 0.250000
#
# Coordination Sequence:
#
# PCOD9457952 Si02
#       7
#     8   8   8   8   8   8   8
#     4  12  28  41  71 110 141 183 231 281 361 436
#     4  11  24  43  71 101 143 184 236 277 359 407
#     4  12  24  42  71 105 144 181 225 286 353 435
#     4  11  25  45  71 100 143 180 241 283 352 411
#     4  10  26  45  69 101 142 192 231 292 339 417
#     4  12  24  45  71 100 150 176 225 294 361 414
#     4  12  25  46  75 105 138 184 231 290 367 419
#
# _framework density 23.082947000000001
#
# number of rings (size 3 to 8) (size 9 to 14) (size 15 to 20)
#    0.000    0.571    5.714    1.286    4.000    3.429 
#    0.000    0.714    0.000    0.000    0.000    0.000 
#    0.000    0.000    0.000    0.000    0.000    0.000 
#
# Total GULP energy -313522.083247 kJ/mol
# GULP energy per Si atom -5598.608629 kJ/mol
# Density = 2.303041 g / cm^3
# Si number density = 23.082947 Si / 1000 Ang^3
#
#
#
# Elastic Constant Matrix: (Units=GPa)
#
#
# Indices 1 2 3 4 5 6 
#
# 1 33.5682 17.2820 -5.7687 0.0000 0.0000 0.0000
# 2 17.2820 125.2025 33.1424 0.0000 0.0000 0.0000
# 3 -5.7687 33.1424 74.9859 0.0000 0.0000 0.0000
# 4 0.0000 0.0000 0.0000 18.1669 0.0000 0.0000
# 5 0.0000 0.0000 0.0000 0.0000 17.9256 0.0000
# 6 0.0000 0.0000 0.0000 0.0000 0.0000 38.6359
#
#
#
# Elastic Compliance Matrix: (Units=1/GPa)
#
#
# Indices 1 2 3 4 5 6 
#
# 1 0.033822 -0.006067 0.005283 0.000000 0.000000 0.000000
# 2 -0.006067 0.010134 -0.004946 0.000000 0.000000 0.000000
# 3 0.005283 -0.004946 0.015928 0.000000 0.000000 0.000000
# 4 0.000000 0.000000 0.000000 0.055045 0.000000 0.000000
# 5 0.000000 0.000000 0.000000 0.000000 0.055786 0.000000
# 6 0.000000 0.000000 0.000000 0.000000 0.000000 0.025883
#
#
# Mechanical properties :
#
#
# Convention : Reuss Voigt Hill
#
# Bulk Modulus (GPa) = 20.65054 35.89645 28.27350
# Shear Modulus (GPa) = 22.30175 27.55239 24.92707
#
# Velocity S-wave (km/s) = 3.11168 3.45864 3.28973
# Velocity P-wave (km/s) = 4.67715 5.61555 5.16769
#
# Compressibility (1/GPa) = 0.04842488
#
# Stress axis : x y z
#
# Youngs Moduli (GPa) = 29.56692 98.68089 62.78188
#
# Poissons Ratio (x) = 0.59870 -0.33170
# Poissons Ratio (y) = 0.17938 0.31050
# Poissons Ratio (z) = -0.15621 0.48804
#
# Static dielectric constant tensor:
#      x y z
#    x 1.845500 0.000000 0.000000 
#    y 0.000000 1.869570 0.000000 
#    z 0.000000 0.000000 1.958440 
# 
# From -- ./inp_files/6131.got.cif
#   From: 2010.05.17/outbox.cif.g08.bks.cpg/sg60_4_cif.got.tgz:6131.got - 2010.06.03 14:59:27.
