data_PCOD9457131
_publ_section_title
;
Structure prediction by ZEFSAII (Michael W. Deem and Ramdas Pophale) SiO2 
 PCOD9457131
Probable space group: P B C N
;
_chemical_formula_sum "Si O2"
_cell_formula_units_Z 60
_cell_length_a 5.198951
_cell_length_b 19.589084
_cell_length_c 20.719693
_cell_angle_alpha 90.000000
_cell_angle_beta 90.000000
_cell_angle_gamma 90.000000
_cell_volume 2110.149227
_symmetry_space_group_name_H-M "P B C N"
_symmetry_group_IT_number 60
_symmetry_cell_setting 'orthorhombic'
loop_
_space_group_symop_operation_xyz
x,y,z
1/2-x,1/2-y,1/2+z
1/2+x,1/2-y,-z
-x,y,1/2-z
-x,-y,-z
1/2+x,1/2+y,1/2-z
1/2-x,1/2+y,z
x,-y,1/2+z
loop_
_atom_site_type_symbol
_atom_site_label
_atom_site_fract_x
_atom_site_fract_y
_atom_site_fract_z
Si Si1 0.282030 0.297222 0.507588
Si Si2 0.248776 0.544994 0.517051
Si Si3 0.500000 0.573877 0.750000
Si Si4 0.296100 0.665493 0.868349
Si Si5 0.205799 0.759035 0.645440
Si Si6 0.812968 0.911752 0.611078
Si Si7 0.253653 0.643734 0.266850
Si Si8 0.311996 0.000294 0.646732
O O1 0.022573 0.253720 0.499594
O O2 0.286534 0.350523 0.446810
O O3 0.293411 0.312286 0.584753
O O4 0.500000 0.500000 0.500000
O O5 0.262659 0.603740 0.463635
O O6 0.220155 0.559827 0.592017
O O7 0.000000 0.500000 0.500000
O O8 0.353780 0.613189 0.809497
O O9 0.723442 0.532549 0.786807
O O10 0.035295 0.707749 0.854699
O O11 0.540005 0.714890 0.862653
O O12 0.233357 0.796021 0.715141
O O13 0.767537 0.847251 0.657448
O O14 0.588906 0.965351 0.634075
O O15 0.085561 0.947753 0.624558
O O16 0.500000 0.600310 0.250000
O O17 0.000000 0.604842 0.250000
#
# Coordination Sequence:
#
# PCOD9457131 Si02
#       8
#     8   8   4   8   8   8   8   8
#     4   8  16  37  66  92 120 170 218 266 327 377
#     4   8  16  37  66  92 121 171 218 266 326 377
#     4  12  28  42  68 102 134 184 228 266 344 398
#     4  10  23  41  68  96 133 176 223 276 322 391
#     4  10  22  43  69  95 134 170 217 279 330 400
#     4  10  22  43  69  95 134 169 217 277 330 398
#     4  12  26  40  64 106 132 173 214 262 356 404
#     4  10  23  41  68  96 131 176 221 274 321 390
#
# _framework density 28.434011000000002
#
# number of rings (size 3 to 8) (size 9 to 14) (size 15 to 20)
#    0.000    2.133    0.000    1.600    5.600    2.133 
#    2.400    0.000    0.000    0.000    0.000    0.933 
#    0.000    0.000    0.000    0.000    0.000    0.000 
#
# Total GULP energy -335814.488470 kJ/mol
# GULP energy per Si atom -5596.908141 kJ/mol
# Density = 2.836929 g / cm^3
# Si number density = 28.434011 Si / 1000 Ang^3
#
#
#
# Elastic Constant Matrix: (Units=GPa)
#
#
# Indices 1 2 3 4 5 6 
#
# 1 215.1827 38.8081 8.1693 0.0000 0.0000 0.0000
# 2 38.8081 94.3307 66.9955 0.0000 0.0000 0.0000
# 3 8.1693 66.9955 216.0939 0.0000 0.0000 0.0000
# 4 0.0000 0.0000 0.0000 18.5327 0.0000 0.0000
# 5 0.0000 0.0000 0.0000 0.0000 43.1561 0.0000
# 6 0.0000 0.0000 0.0000 0.0000 0.0000 -9.2825
#
#
#
# Elastic Compliance Matrix: (Units=1/GPa)
#
#
# Indices 1 2 3 4 5 6 
#
# 1 0.005077 -0.002503 0.000584 0.000000 0.000000 0.000000
# 2 -0.002503 0.014829 -0.004503 0.000000 0.000000 0.000000
# 3 0.000584 -0.004503 0.006002 0.000000 0.000000 0.000000
# 4 0.000000 0.000000 0.000000 0.053959 0.000000 0.000000
# 5 0.000000 0.000000 0.000000 0.000000 0.023172 0.000000
# 6 0.000000 0.000000 0.000000 0.000000 0.000000 -0.107730
#
#
# Mechanical properties :
#
#
# Convention : Reuss Voigt Hill
#
# Bulk Modulus (GPa) = 76.55212 83.72810 80.14011
# Shear Modulus (GPa) = 399.80967 37.92355 218.86661
#
# Velocity S-wave (km/s) = 11.87076 3.65600 8.78297
# Velocity P-wave (km/s) = 14.65837 6.87984 11.44989
#
# Compressibility (1/GPa) = 0.01306300
#
# Stress axis : x y z
#
# Youngs Moduli (GPa) = 196.98500 67.43606 166.62455
#
# Poissons Ratio (x) = 0.16882 -0.09735
# Poissons Ratio (y) = 0.49314 0.75027
# Poissons Ratio (z) = -0.11508 0.30365
#
# Static dielectric constant tensor:
#      x y z
#    x 2.311070 0.000000 0.000000 
#    y 0.000000 2.175290 0.000000 
#    z 0.000000 0.000000 2.379400 
# 
# From -- ./inp_files/21775.got.cif
#   From: 2010.05.17/outbox.cif.g08.bks.cpg/sg60_11_cif.got.tgz:21775.got - 2010.06.03 14:59:27.
