data_PCOD9457911
_publ_section_title
;
Structure prediction by ZEFSAII (Michael W. Deem and Ramdas Pophale) SiO2 
 PCOD9457911
Probable space group: P B C N
;
_chemical_formula_sum "Si O2"
_cell_formula_units_Z 56
_cell_length_a 14.080108
_cell_length_b 15.482701
_cell_length_c 11.861302
_cell_angle_alpha 90.000000
_cell_angle_beta 90.000000
_cell_angle_gamma 90.000000
_cell_volume 2585.741326
_symmetry_space_group_name_H-M "P B C N"
_symmetry_group_IT_number 60
_symmetry_cell_setting 'orthorhombic'
loop_
_space_group_symop_operation_xyz
x,y,z
1/2-x,1/2-y,1/2+z
1/2+x,1/2-y,-z
-x,y,1/2-z
-x,-y,-z
1/2+x,1/2+y,1/2-z
1/2-x,1/2+y,z
x,-y,1/2+z
loop_
_atom_site_type_symbol
_atom_site_label
_atom_site_fract_x
_atom_site_fract_y
_atom_site_fract_z
Si Si1 0.785700 0.357880 0.884135
Si Si2 0.859715 0.975975 0.000364
Si Si3 0.334001 0.813262 0.062172
Si Si4 0.976211 0.882809 0.381894
Si Si5 0.390846 0.899325 0.287467
Si Si6 0.444877 0.789201 0.494378
Si Si7 0.772554 0.432419 0.643205
O O1 0.734514 0.435675 0.948548
O O2 0.730591 0.271605 0.923966
O O3 0.772021 0.373583 0.752983
O O4 0.896745 0.353821 0.915562
O O5 0.911557 0.033520 0.906354
O O6 0.928541 0.902867 0.047970
O O7 0.830521 0.031357 0.109358
O O8 0.334137 0.865099 0.179510
O O9 0.443912 0.793178 0.032613
O O10 0.301064 0.875038 0.962722
O O11 0.928149 0.802690 0.446114
O O12 0.000000 0.868088 0.250000
O O13 0.500000 0.916326 0.250000
O O14 0.394444 0.821715 0.379560
O O15 0.341840 0.985964 0.333940
#
# Coordination Sequence:
#
# PCOD9457911 Si02
#       7
#     8   8   8   8   8   8   8
#     4  12  26  43  73 108 147 189 243 300 369 441
#     4  11  24  48  69 107 144 190 241 302 370 447
#     4  11  27  46  69 107 144 191 240 305 367 433
#     4  11  25  45  74 104 144 189 248 305 369 441
#     4  10  25  46  71 102 145 190 242 296 364 444
#     4  11  25  47  72 102 145 188 242 304 366 432
#     4  12  26  44  77 105 148 191 242 299 368 442
#
# _framework density 21.657233000000002
#
# number of rings (size 3 to 8) (size 9 to 14) (size 15 to 20)
#    0.000    0.857    2.857    2.571    8.000    2.286 
#    0.000    0.000    0.000    0.000    0.000    0.000 
#    0.000    0.000    0.000    0.000    0.000    0.000 
#
# Total GULP energy -312936.284140 kJ/mol
# GULP energy per Si atom -5588.147931 kJ/mol
# Density = 2.160794 g / cm^3
# Si number density = 21.657233 Si / 1000 Ang^3
#
#
#
# Elastic Constant Matrix: (Units=GPa)
#
#
# Indices 1 2 3 4 5 6 
#
# 1 49.6044 23.9848 43.5998 0.0000 0.0000 0.0000
# 2 23.9848 97.0882 79.9906 0.0000 0.0000 0.0000
# 3 43.5998 79.9906 141.8382 0.0000 0.0000 0.0000
# 4 0.0000 0.0000 0.0000 34.6107 0.0000 0.0000
# 5 0.0000 0.0000 0.0000 0.0000 24.3574 0.0000
# 6 0.0000 0.0000 0.0000 0.0000 0.0000 33.7159
#
#
#
# Elastic Compliance Matrix: (Units=1/GPa)
#
#
# Indices 1 2 3 4 5 6 
#
# 1 0.027628 0.000321 -0.008674 0.000000 0.000000 0.000000
# 2 0.000321 0.019243 -0.010951 0.000000 0.000000 0.000000
# 3 -0.008674 -0.010951 0.015892 0.000000 0.000000 0.000000
# 4 0.000000 0.000000 0.000000 0.028893 0.000000 0.000000
# 5 0.000000 0.000000 0.000000 0.000000 0.041055 0.000000
# 6 0.000000 0.000000 0.000000 0.000000 0.000000 0.029660
#
#
# Mechanical properties :
#
#
# Convention : Reuss Voigt Hill
#
# Bulk Modulus (GPa) = 41.39736 64.85350 53.12543
# Shear Modulus (GPa) = 23.92002 27.93385 25.92693
#
# Velocity S-wave (km/s) = 3.32698 3.59530 3.46374
# Velocity P-wave (km/s) = 5.82363 6.87352 6.37024
#
# Compressibility (1/GPa) = 0.02415613
#
# Stress axis : x y z
#
# Youngs Moduli (GPa) = 36.19523 51.96695 62.92379
#
# Poissons Ratio (x) = -0.01667 0.54577
# Poissons Ratio (y) = -0.01161 0.68907
# Poissons Ratio (z) = 0.31394 0.56908
#
# Static dielectric constant tensor:
#      x y z
#    x 1.806960 0.000000 0.000000 
#    y 0.000000 1.794320 0.000000 
#    z 0.000000 0.000000 1.770270 
# 
# From -- ./inp_files/11964.got.cif
#   From: 2010.05.17/outbox.cif.g08.bks.cpg/sg60_6_cif.got.tgz:11964.got - 2010.06.03 14:59:27.
