data_PCOD9457270
_publ_section_title
;
Structure prediction by ZEFSAII (Michael W. Deem and Ramdas Pophale) SiO2 
 PCOD9457270
Probable space group: P B C N
;
_chemical_formula_sum "Si O2"
_cell_formula_units_Z 28
_cell_length_a 7.734483
_cell_length_b 8.594818
_cell_length_c 16.020334
_cell_angle_alpha 90.000000
_cell_angle_beta 90.000000
_cell_angle_gamma 90.000000
_cell_volume 1064.975312
_symmetry_space_group_name_H-M "P B C N"
_symmetry_group_IT_number 60
_symmetry_cell_setting 'orthorhombic'
loop_
_space_group_symop_operation_xyz
x,y,z
1/2-x,1/2-y,1/2+z
1/2+x,1/2-y,-z
-x,y,1/2-z
-x,-y,-z
1/2+x,1/2+y,1/2-z
1/2-x,1/2+y,z
x,-y,1/2+z
loop_
_atom_site_type_symbol
_atom_site_label
_atom_site_fract_x
_atom_site_fract_y
_atom_site_fract_z
Si Si1 0.500000 0.744127 0.750000
Si Si2 0.306013 0.782623 0.991582
Si Si3 0.806458 0.443412 0.888319
Si Si4 0.407724 0.513911 0.880729
O O1 0.402386 0.860033 0.687299
O O2 0.373909 0.622931 0.799630
O O3 0.415159 0.641433 0.953367
O O4 0.228737 0.888052 0.915930
O O5 0.163089 0.669754 0.033709
O O6 0.356945 0.890650 0.071196
O O7 0.601233 0.449198 0.869055
#
# Coordination Sequence:
#
# PCOD9457270 Si02
#       4
#     4   8   8   8
#     4  12  28  46  76 110 166 200 242 322 400 452
#     4  10  22  47  84 104 152 203 263 313 372 463
#     4  11  24  49  74 116 156 199 260 321 377 471
#     4  11  26  49  74 119 150 202 257 323 384 462
#
# _framework density 26.291692000000001
#
# number of rings (size 3 to 8) (size 9 to 14) (size 15 to 20)
#    0.000    1.143    2.857    3.429    4.000    1.143 
#    5.143    1.429    0.000    0.000    0.000    0.000 
#    0.000    0.000    0.000    0.000    0.000    0.000 
#
# Total GULP energy -156117.353019 kJ/mol
# GULP energy per Si atom -5575.619751 kJ/mol
# Density = 2.623185 g / cm^3
# Si number density = 26.291692 Si / 1000 Ang^3
#
#
#
# Elastic Constant Matrix: (Units=GPa)
#
#
# Indices 1 2 3 4 5 6 
#
# 1 56.9199 37.5028 19.2927 0.0000 0.0000 0.0000
# 2 37.5028 186.9617 48.5005 0.0000 0.0000 0.0000
# 3 19.2927 48.5005 113.0981 0.0000 0.0000 0.0000
# 4 0.0000 0.0000 0.0000 66.2940 0.0000 0.0000
# 5 0.0000 0.0000 0.0000 0.0000 49.5425 0.0000
# 6 0.0000 0.0000 0.0000 0.0000 0.0000 44.5753
#
#
#
# Elastic Compliance Matrix: (Units=1/GPa)
#
#
# Indices 1 2 3 4 5 6 
#
# 1 0.020624 -0.003628 -0.001962 0.000000 0.000000 0.000000
# 2 -0.003628 0.006656 -0.002236 0.000000 0.000000 0.000000
# 3 -0.001962 -0.002236 0.010135 0.000000 0.000000 0.000000
# 4 0.000000 0.000000 0.000000 0.015084 0.000000 0.000000
# 5 0.000000 0.000000 0.000000 0.000000 0.020185 0.000000
# 6 0.000000 0.000000 0.000000 0.000000 0.000000 0.022434
#
#
# Mechanical properties :
#
#
# Convention : Reuss Voigt Hill
#
# Bulk Modulus (GPa) = 45.94759 63.06354 54.50556
# Shear Modulus (GPa) = 42.36386 48.86126 45.61256
#
# Velocity S-wave (km/s) = 4.01846 4.31563 4.16969
# Velocity P-wave (km/s) = 6.24858 6.99078 6.63007
#
# Compressibility (1/GPa) = 0.02176393
#
# Stress axis : x y z
#
# Youngs Moduli (GPa) = 48.48719 150.23199 98.66467
#
# Poissons Ratio (x) = 0.54503 0.19361
# Poissons Ratio (y) = 0.17591 0.22058
# Poissons Ratio (z) = 0.09515 0.33586
#
# Static dielectric constant tensor:
#      x y z
#    x 2.394900 0.000000 0.000000 
#    y 0.000000 2.117630 0.000000 
#    z 0.000000 0.000000 5.238530 
# 
# From -- ./inp_files/18892.got.cif
#   From: 2010.05.17/outbox.cif.g08.bks.cpg/sg60_10_cif.got.tgz:18892.got - 2010.06.03 14:59:27.
