data_PCOD9457777
_publ_section_title
;
Structure prediction by ZEFSAII (Michael W. Deem and Ramdas Pophale) SiO2 
 PCOD9457777
Probable space group: P B C N
;
_chemical_formula_sum "Si O2"
_cell_formula_units_Z 20
_cell_length_a 9.643146
_cell_length_b 9.279904
_cell_length_c 7.897404
_cell_angle_alpha 90.000000
_cell_angle_beta 90.000000
_cell_angle_gamma 90.000000
_cell_volume 706.718697
_symmetry_space_group_name_H-M "P B C N"
_symmetry_group_IT_number 60
_symmetry_cell_setting 'orthorhombic'
loop_
_space_group_symop_operation_xyz
x,y,z
1/2-x,1/2-y,1/2+z
1/2+x,1/2-y,-z
-x,y,1/2-z
-x,-y,-z
1/2+x,1/2+y,1/2-z
1/2-x,1/2+y,z
x,-y,1/2+z
loop_
_atom_site_type_symbol
_atom_site_label
_atom_site_fract_x
_atom_site_fract_y
_atom_site_fract_z
Si Si1 0.500000 0.212918 0.750000
Si Si2 0.908525 0.840715 0.411640
Si Si3 0.650578 0.983879 0.908506
O O1 0.503409 0.303556 0.579422
O O2 0.630265 0.102870 0.758460
O O3 0.843907 0.683230 0.361559
O O4 0.000000 0.884567 0.250000
O O5 0.793114 0.952435 0.476604
O O6 0.500000 0.000000 0.000000
#
# Coordination Sequence:
#
# PCOD9457777 Si02
#       3
#     4   8   8
#     4  10  24  44  78 112 162 206 264 330 394 480
#     4  11  25  49  79 117 155 214 268 328 404 482
#     4  10  24  47  77 116 160 206 268 332 401 477
#
# _framework density 28.299800999999999
#
# number of rings (size 3 to 8) (size 9 to 14) (size 15 to 20)
#    0.000    1.600    2.000    0.000   11.200    0.000 
#    3.600   16.000    0.000    9.600    0.000    0.000 
#    0.000    0.000    0.000    0.000    0.000    0.000 
#
# Total GULP energy -111799.186941 kJ/mol
# GULP energy per Si atom -5589.959347 kJ/mol
# Density = 2.823539 g / cm^3
# Si number density = 28.299801 Si / 1000 Ang^3
#
#
#
# Elastic Constant Matrix: (Units=GPa)
#
#
# Indices 1 2 3 4 5 6 
#
# 1 146.3048 119.9470 61.3341 0.0000 0.0000 0.0000
# 2 119.9470 180.7300 50.9448 0.0000 0.0000 0.0000
# 3 61.3341 50.9448 162.2064 0.0000 0.0000 0.0000
# 4 0.0000 0.0000 0.0000 39.0756 0.0000 0.0000
# 5 0.0000 0.0000 0.0000 0.0000 53.7588 0.0000
# 6 0.0000 0.0000 0.0000 0.0000 0.0000 92.6186
#
#
#
# Elastic Compliance Matrix: (Units=1/GPa)
#
#
# Indices 1 2 3 4 5 6 
#
# 1 0.016240 -0.009926 -0.003023 0.000000 0.000000 0.000000
# 2 -0.009926 0.012138 -0.000059 0.000000 0.000000 0.000000
# 3 -0.003023 -0.000059 0.007327 0.000000 0.000000 0.000000
# 4 0.000000 0.000000 0.000000 0.025591 0.000000 0.000000
# 5 0.000000 0.000000 0.000000 0.000000 0.018602 0.000000
# 6 0.000000 0.000000 0.000000 0.000000 0.000000 0.010797
#
#
# Mechanical properties :
#
#
# Convention : Reuss Voigt Hill
#
# Bulk Modulus (GPa) = 103.22054 105.96589 104.59321
# Shear Modulus (GPa) = 41.68733 54.22495 47.95614
#
# Velocity S-wave (km/s) = 3.84221 4.38206 4.12099
# Velocity P-wave (km/s) = 7.49910 7.94535 7.72545
#
# Compressibility (1/GPa) = 0.00968799
#
# Stress axis : x y z
#
# Youngs Moduli (GPa) = 61.57464 82.38909 136.48858
#
# Poissons Ratio (x) = 0.81781 0.41265
# Poissons Ratio (y) = 0.61121 0.00802
# Poissons Ratio (z) = 0.18616 0.00484
#
# Static dielectric constant tensor:
#      x y z
#    x 2.293380 0.000000 0.000000 
#    y 0.000000 2.280590 0.000000 
#    z 0.000000 0.000000 2.632480 
# 
# From -- ./inp_files/3248.got.cif
#   From: 2010.05.17/outbox.cif.g08.bks.cpg/sg60_2_cif.got.tgz:3248.got - 2010.06.03 14:59:27.
