data_PCOD9457142
_publ_section_title
;
Structure prediction by ZEFSAII (Michael W. Deem and Ramdas Pophale) SiO2 
 PCOD9457142
Probable space group: P B C N
;
_chemical_formula_sum "Si O2"
_cell_formula_units_Z 64
_cell_length_a 22.468985
_cell_length_b 12.110276
_cell_length_c 9.549653
_cell_angle_alpha 90.000000
_cell_angle_beta 90.000000
_cell_angle_gamma 90.000000
_cell_volume 2598.514153
_symmetry_space_group_name_H-M "P B C N"
_symmetry_group_IT_number 60
_symmetry_cell_setting 'orthorhombic'
loop_
_space_group_symop_operation_xyz
x,y,z
1/2-x,1/2-y,1/2+z
1/2+x,1/2-y,-z
-x,y,1/2-z
-x,-y,-z
1/2+x,1/2+y,1/2-z
1/2-x,1/2+y,z
x,-y,1/2+z
loop_
_atom_site_type_symbol
_atom_site_label
_atom_site_fract_x
_atom_site_fract_y
_atom_site_fract_z
Si Si1 0.403617 0.192483 0.537406
Si Si2 0.271237 0.155401 0.036403
Si Si3 0.181329 0.775803 0.313999
Si Si4 0.324479 0.526823 0.203303
Si Si5 0.542242 0.510422 0.867501
Si Si6 0.036962 0.753051 0.048749
Si Si7 0.043179 0.485456 0.627791
Si Si8 0.357123 0.258777 0.835866
O O1 0.374954 0.221814 0.389511
O O2 0.471312 0.236527 0.517276
O O3 0.370625 0.239512 0.673257
O O4 0.403538 0.063661 0.583292
O O5 0.297595 0.213068 0.174859
O O6 0.230189 0.055777 0.097993
O O7 0.226002 0.229404 0.946050
O O8 0.323376 0.158677 0.917504
O O9 0.178464 0.904937 0.270179
O O10 0.390145 0.531515 0.129471
O O11 0.325262 0.621107 0.325117
O O12 0.500000 0.459271 0.750000
O O13 0.546319 0.642430 0.851989
O O14 0.500000 0.500000 0.000000
O O15 0.054518 0.643573 0.134558
O O16 0.082403 0.769934 0.921726
O O17 0.000000 0.473417 0.250000
O O18 0.000000 0.500000 0.500000
#
# Coordination Sequence:
#
# PCOD9457142 Si02
#       8
#     8   8   8   8   8   8   8   8
#     4  11  23  48  82 117 159 207 264 334 404 487
#     4  12  28  53  78 111 154 210 273 330 398 482
#     4  12  27  52  84 115 152 210 271 334 406 487
#     4  12  28  50  81 109 165 204 264 339 414 467
#     4  12  26  44  75 118 155 207 261 323 413 499
#     4  11  24  43  76 121 165 201 264 334 403 488
#     4  10  22  43  73 107 156 209 248 319 395 465
#     4  12  25  49  76 119 153 216 267 331 403 486
#
# _framework density 24.629459000000001
#
# number of rings (size 3 to 8) (size 9 to 14) (size 15 to 20)
#    0.000    0.500    2.500    5.250    5.250    3.000 
#    6.750    0.000    0.000    0.000    0.000    0.000 
#    0.000    0.000    0.000    0.000    0.000    0.000 
#
# Total GULP energy -357292.785649 kJ/mol
# GULP energy per Si atom -5582.699776 kJ/mol
# Density = 2.457340 g / cm^3
# Si number density = 24.629459 Si / 1000 Ang^3
#
#
#
# Elastic Constant Matrix: (Units=GPa)
#
#
# Indices 1 2 3 4 5 6 
#
# 1 117.4217 43.2248 73.6936 0.0000 0.0000 0.0000
# 2 43.2248 142.3163 27.5224 0.0000 0.0000 0.0000
# 3 73.6936 27.5224 168.4561 0.0000 0.0000 0.0000
# 4 0.0000 0.0000 0.0000 42.3531 0.0000 0.0000
# 5 0.0000 0.0000 0.0000 0.0000 63.6712 0.0000
# 6 0.0000 0.0000 0.0000 0.0000 0.0000 22.9898
#
#
#
# Elastic Compliance Matrix: (Units=1/GPa)
#
#
# Indices 1 2 3 4 5 6 
#
# 1 0.012800 -0.002896 -0.005126 0.000000 0.000000 0.000000
# 2 -0.002896 0.007911 -0.000026 0.000000 0.000000 0.000000
# 3 -0.005126 -0.000026 0.008183 0.000000 0.000000 0.000000
# 4 0.000000 0.000000 0.000000 0.023611 0.000000 0.000000
# 5 0.000000 0.000000 0.000000 0.000000 0.015706 0.000000
# 6 0.000000 0.000000 0.000000 0.000000 0.000000 0.043498
#
#
# Mechanical properties :
#
#
# Convention : Reuss Voigt Hill
#
# Bulk Modulus (GPa) = 78.13787 79.67508 78.90648
# Shear Modulus (GPa) = 37.85871 44.71969 41.28920
#
# Velocity S-wave (km/s) = 3.92488 4.26573 4.09885
# Velocity P-wave (km/s) = 7.23421 7.52872 7.38293
#
# Compressibility (1/GPa) = 0.01279789
#
# Stress axis : x y z
#
# Youngs Moduli (GPa) = 78.12716 126.40328 122.20501
#
# Poissons Ratio (x) = 0.36609 0.62645
# Poissons Ratio (y) = 0.22627 0.00312
# Poissons Ratio (z) = 0.40050 0.00323
#
# Static dielectric constant tensor:
#      x y z
#    x 2.173710 0.000000 0.000000 
#    y 0.000000 1.620010 0.000000 
#    z 0.000000 0.000000 1.953960 
# 
# From -- ./inp_files/7965.got.cif
#   From: 2010.05.17/outbox.cif.g08.bks.cpg/sg60_4_cif.got.tgz:7965.got - 2010.06.03 14:59:27.
