data_PCOD9457663
_publ_section_title
;
Structure prediction by ZEFSAII (Michael W. Deem and Ramdas Pophale) SiO2 
 PCOD9457663
Probable space group: P B C N
;
_chemical_formula_sum "Si O2"
_cell_formula_units_Z 64
_cell_length_a 9.094646
_cell_length_b 26.020218
_cell_length_c 14.137722
_cell_angle_alpha 90.000000
_cell_angle_beta 90.000000
_cell_angle_gamma 90.000000
_cell_volume 3345.616579
_symmetry_space_group_name_H-M "P B C N"
_symmetry_group_IT_number 60
_symmetry_cell_setting 'orthorhombic'
loop_
_space_group_symop_operation_xyz
x,y,z
1/2-x,1/2-y,1/2+z
1/2+x,1/2-y,-z
-x,y,1/2-z
-x,-y,-z
1/2+x,1/2+y,1/2-z
1/2-x,1/2+y,z
x,-y,1/2+z
loop_
_atom_site_type_symbol
_atom_site_label
_atom_site_fract_x
_atom_site_fract_y
_atom_site_fract_z
Si Si1 0.828690 0.031916 0.725288
Si Si2 0.536171 0.160064 0.537516
Si Si3 0.427178 0.946471 0.965168
Si Si4 0.634445 0.768271 0.322590
Si Si5 0.168620 0.986983 0.487850
Si Si6 0.673509 0.866176 0.224294
Si Si7 0.321481 0.061425 0.169377
Si Si8 0.364167 0.823561 0.677412
O O1 0.809902 0.038287 0.613492
O O2 0.761636 0.085057 0.761295
O O3 0.000000 0.024897 0.750000
O O4 0.735469 0.983563 0.762703
O O5 0.460058 0.104178 0.525296
O O6 0.438193 0.205697 0.583783
O O7 0.665986 0.148334 0.613059
O O8 0.580724 0.173702 0.431177
O O9 0.506955 0.939956 0.863598
O O10 0.257577 0.959770 0.976541
O O11 0.500000 0.000000 0.000000
O O12 0.500000 0.758283 0.250000
O O13 0.724955 0.815571 0.278169
O O14 0.737954 0.719277 0.324733
O O15 0.232488 0.952228 0.572228
O O16 0.000000 0.000000 0.500000
O O17 0.500000 0.874038 0.250000
O O18 0.297947 0.119820 0.201271
O O19 0.500000 0.813714 0.750000
#
# Coordination Sequence:
#
# PCOD9457663 Si02
#       8
#     8   8   8   8   8   8   8   8
#     4  12  24  36  60  91 126 167 201 253 323 371
#     4   9  20  41  64  93 116 164 209 255 310 369
#     4   9  19  34  63  85 119 158 203 244 297 374
#     4   9  22  43  65  91 126 158 209 271 319 363
#     4  11  23  39  55  88 132 159 199 254 309 385
#     4   9  21  38  66  89 117 155 212 259 307 374
#     4  10  24  41  58  89 125 168 209 252 310 377
#     4  11  24  42  64  93 125 163 222 259 307 387
#
# _framework density 19.129507
#
# number of rings (size 3 to 8) (size 9 to 14) (size 15 to 20)
#    0.000    2.250    1.250    2.250   12.250    3.000 
#    0.000    2.500    0.000    0.000    0.000    0.000 
#    0.000    0.000    0.000    0.000    0.000    0.000 
#
# Total GULP energy -356513.495222 kJ/mol
# GULP energy per Si atom -5570.523363 kJ/mol
# Density = 1.908597 g / cm^3
# Si number density = 19.129507 Si / 1000 Ang^3
#
#
#
# Elastic Constant Matrix: (Units=GPa)
#
#
# Indices 1 2 3 4 5 6 
#
# 1 89.4311 69.2918 26.9506 0.0000 0.0000 0.0000
# 2 69.2918 168.9999 34.7679 0.0000 0.0000 0.0000
# 3 26.9506 34.7679 92.8073 0.0000 0.0000 0.0000
# 4 0.0000 0.0000 0.0000 20.8249 0.0000 0.0000
# 5 0.0000 0.0000 0.0000 0.0000 19.1584 0.0000
# 6 0.0000 0.0000 0.0000 0.0000 0.0000 33.2390
#
#
#
# Elastic Compliance Matrix: (Units=1/GPa)
#
#
# Indices 1 2 3 4 5 6 
#
# 1 0.016909 -0.006417 -0.002506 0.000000 0.000000 0.000000
# 2 -0.006417 0.008847 -0.001451 0.000000 0.000000 0.000000
# 3 -0.002506 -0.001451 0.012046 0.000000 0.000000 0.000000
# 4 0.000000 0.000000 0.000000 0.048019 0.000000 0.000000
# 5 0.000000 0.000000 0.000000 0.000000 0.052196 0.000000
# 6 0.000000 0.000000 0.000000 0.000000 0.000000 0.030085
#
#
# Mechanical properties :
#
#
# Convention : Reuss Voigt Hill
#
# Bulk Modulus (GPa) = 58.63800 68.13987 63.38893
# Shear Modulus (GPa) = 25.70214 29.32635 27.51424
#
# Velocity S-wave (km/s) = 3.66947 3.91966 3.79663
# Velocity P-wave (km/s) = 6.97661 7.49550 7.24071
#
# Compressibility (1/GPa) = 0.01705379
#
# Stress axis : x y z
#
# Youngs Moduli (GPa) = 59.13907 113.03521 83.01328
#
# Poissons Ratio (x) = 0.72539 0.20805
# Poissons Ratio (y) = 0.37952 0.12042
# Poissons Ratio (z) = 0.14822 0.16398
#
# Static dielectric constant tensor:
#      x y z
#    x 1.822980 0.000000 0.000000 
#    y 0.000000 1.680120 0.000000 
#    z 0.000000 0.000000 1.761850 
# 
# From -- ./inp_files/15400.got.cif
#   From: 2010.05.17/outbox.cif.g08.bks.cpg/sg60_8_cif.got.tgz:15400.got - 2010.06.03 14:59:27.
