data_PCOD9457390
_publ_section_title
;
Structure prediction by ZEFSAII (Michael W. Deem and Ramdas Pophale) SiO2 
 PCOD9457390
Probable space group: P B C N
;
_chemical_formula_sum "Si O2"
_cell_formula_units_Z 64
_cell_length_a 7.952704
_cell_length_b 23.233477
_cell_length_c 14.992708
_cell_angle_alpha 90.000000
_cell_angle_beta 90.000000
_cell_angle_gamma 90.000000
_cell_volume 2770.187147
_symmetry_space_group_name_H-M "P B C N"
_symmetry_group_IT_number 60
_symmetry_cell_setting 'orthorhombic'
loop_
_space_group_symop_operation_xyz
x,y,z
1/2-x,1/2-y,1/2+z
1/2+x,1/2-y,-z
-x,y,1/2-z
-x,-y,-z
1/2+x,1/2+y,1/2-z
1/2-x,1/2+y,z
x,-y,1/2+z
loop_
_atom_site_type_symbol
_atom_site_label
_atom_site_fract_x
_atom_site_fract_y
_atom_site_fract_z
Si Si1 0.890989 0.427796 0.448276
Si Si2 0.711008 0.188356 0.973391
Si Si3 0.673224 0.728437 0.630184
Si Si4 0.289432 0.761371 0.681838
Si Si5 0.947414 0.123419 0.526418
Si Si6 0.354559 0.382870 0.676210
Si Si7 0.743490 0.515209 0.580827
Si Si8 0.691685 0.001503 0.781174
O O1 0.925531 0.361529 0.473318
O O2 0.775990 0.456342 0.526409
O O3 0.808479 0.446727 0.352994
O O4 0.076960 0.454694 0.439432
O O5 0.679064 0.235615 0.897998
O O6 0.870436 0.148382 0.949345
O O7 0.740172 0.222940 0.063590
O O8 0.480097 0.747693 0.651621
O O9 0.755722 0.729033 0.726857
O O10 0.671922 0.667135 0.581597
O O11 0.264754 0.828791 0.697311
O O12 0.926812 0.129387 0.421129
O O13 0.901011 0.058024 0.548306
O O14 0.500000 0.385295 0.750000
O O15 0.258639 0.443517 0.673776
O O16 0.715371 0.508972 0.686682
O O17 0.500000 0.992711 0.750000
#
# Coordination Sequence:
#
# PCOD9457390 Si02
#       8
#     8   8   8   8   8   8   8   8
#     4  10  23  42  66  95 126 169 221 259 321 389
#     4  11  24  41  69  95 131 170 216 270 328 387
#     4  10  23  43  67  94 129 180 217 265 332 395
#     4  10  24  43  65  96 132 172 221 264 329 399
#     4  11  24  43  65  94 136 166 219 274 327 385
#     4  12  25  43  65  99 131 165 215 280 324 383
#     4  10  23  42  67  94 128 172 214 270 317 385
#     4  10  24  44  67  95 131 173 218 260 325 395
#
# _framework density 23.103131000000001
#
# number of rings (size 3 to 8) (size 9 to 14) (size 15 to 20)
#    0.000    1.500    2.500    0.750    8.750    1.500 
#    2.250    0.000    0.000    0.000    0.000    0.000 
#    0.000    0.000    0.000    0.000    0.000    0.000 
#
# Total GULP energy -357687.039646 kJ/mol
# GULP energy per Si atom -5588.859994 kJ/mol
# Density = 2.305055 g / cm^3
# Si number density = 23.103131 Si / 1000 Ang^3
#
#
#
# Elastic Constant Matrix: (Units=GPa)
#
#
# Indices 1 2 3 4 5 6 
#
# 1 29.1812 7.2024 5.9733 0.0000 0.0000 0.0000
# 2 7.2024 49.4002 -9.5039 0.0000 0.0000 0.0000
# 3 5.9733 -9.5039 92.4588 0.0000 0.0000 0.0000
# 4 0.0000 0.0000 0.0000 28.4319 0.0000 0.0000
# 5 0.0000 0.0000 0.0000 0.0000 23.8605 0.0000
# 6 0.0000 0.0000 0.0000 0.0000 0.0000 16.7703
#
#
#
# Elastic Compliance Matrix: (Units=1/GPa)
#
#
# Indices 1 2 3 4 5 6 
#
# 1 0.036319 -0.005863 -0.002949 0.000000 0.000000 0.000000
# 2 -0.005863 0.021598 0.002599 0.000000 0.000000 0.000000
# 3 -0.002949 0.002599 0.011273 0.000000 0.000000 0.000000
# 4 0.000000 0.000000 0.000000 0.035172 0.000000 0.000000
# 5 0.000000 0.000000 0.000000 0.000000 0.041910 0.000000
# 6 0.000000 0.000000 0.000000 0.000000 0.000000 0.059629
#
#
# Mechanical properties :
#
#
# Convention : Reuss Voigt Hill
#
# Bulk Modulus (GPa) = 17.61669 19.82043 18.71856
# Shear Modulus (GPa) = 21.07494 24.97043 23.02269
#
# Velocity S-wave (km/s) = 3.02356 3.29116 3.16019
# Velocity P-wave (km/s) = 4.45320 4.80000 4.62985
#
# Compressibility (1/GPa) = 0.05676436
#
# Stress axis : x y z
#
# Youngs Moduli (GPa) = 27.53361 46.30148 88.70529
#
# Poissons Ratio (x) = 0.27145 0.26160
# Poissons Ratio (y) = 0.16142 -0.23053
# Poissons Ratio (z) = 0.08120 -0.12033
#
# Static dielectric constant tensor:
#      x y z
#    x 1.959830 0.000000 0.000000 
#    y 0.000000 1.885370 0.000000 
#    z 0.000000 0.000000 1.872000 
# 
# From -- ./inp_files/15428.got.cif
#   From: 2010.05.17/outbox.cif.g08.bks.cpg/sg60_8_cif.got.tgz:15428.got - 2010.06.03 14:59:27.
