data_PCOD9457008
_publ_section_title
;
Structure prediction by ZEFSAII (Michael W. Deem and Ramdas Pophale) SiO2 
 PCOD9457008
Probable space group: P B C N
;
_chemical_formula_sum "Si O2"
_cell_formula_units_Z 36
_cell_length_a 10.309670
_cell_length_b 27.913269
_cell_length_c 5.340061
_cell_angle_alpha 90.000000
_cell_angle_beta 90.000000
_cell_angle_gamma 90.000000
_cell_volume 1536.744556
_symmetry_space_group_name_H-M "P B C N"
_symmetry_group_IT_number 60
_symmetry_cell_setting 'orthorhombic'
loop_
_space_group_symop_operation_xyz
x,y,z
1/2-x,1/2-y,1/2+z
1/2+x,1/2-y,-z
-x,y,1/2-z
-x,-y,-z
1/2+x,1/2+y,1/2-z
1/2-x,1/2+y,z
x,-y,1/2+z
loop_
_atom_site_type_symbol
_atom_site_label
_atom_site_fract_x
_atom_site_fract_y
_atom_site_fract_z
Si Si1 0.911003 0.814859 0.994464
Si Si2 0.285417 0.879909 0.394634
Si Si3 0.135509 0.709858 0.597032
Si Si4 0.000000 0.643229 0.250000
Si Si5 0.851407 0.969055 0.292953
O O1 0.830965 0.763881 0.971994
O O2 0.000000 0.810263 0.750000
O O3 0.837756 0.865390 0.939794
O O4 0.000000 0.814400 0.250000
O O5 0.280966 0.829633 0.242398
O O6 0.422180 0.885156 0.537012
O O7 0.248468 0.925577 0.235371
O O8 0.000000 0.710523 0.750000
O O9 0.106883 0.679992 0.348271
O O10 0.000000 0.951933 0.250000
O O11 0.833575 0.994227 0.560785
#
# Coordination Sequence:
#
# PCOD9457008 Si02
#       5
#     8   8   8   4   8
#     4  11  25  41  65 102 140 180 234 280 333 404
#     4  11  25  40  72  97 138 184 233 280 349 418
#     4   9  21  39  59  93 137 180 217 271 329 396
#     4  10  22  42  62  94 142 178 224 270 346 398
#     4  10  24  47  72 100 133 172 226 295 358 411
#
# _framework density 23.426145999999999
#
# number of rings (size 3 to 8) (size 9 to 14) (size 15 to 20)
#    0.000    1.778    1.111    0.667    9.333    2.667 
#    0.000    1.111    0.000    0.000    0.000    0.000 
#    0.000    0.000    0.000    0.000    0.000    0.000 
#
# Total GULP energy -200649.668556 kJ/mol
# GULP energy per Si atom -5573.601904 kJ/mol
# Density = 2.337283 g / cm^3
# Si number density = 23.426146 Si / 1000 Ang^3
#
#
#
# Elastic Constant Matrix: (Units=GPa)
#
#
# Indices 1 2 3 4 5 6 
#
# 1 50.6953 39.9064 8.1716 0.0000 0.0000 0.0000
# 2 39.9064 56.3885 -4.0883 0.0000 0.0000 0.0000
# 3 8.1716 -4.0883 70.5275 0.0000 0.0000 0.0000
# 4 0.0000 0.0000 0.0000 40.8697 0.0000 0.0000
# 5 0.0000 0.0000 0.0000 0.0000 29.3759 0.0000
# 6 0.0000 0.0000 0.0000 0.0000 0.0000 127.4164
#
#
#
# Elastic Compliance Matrix: (Units=1/GPa)
#
#
# Indices 1 2 3 4 5 6 
#
# 1 0.048285 -0.034723 -0.007607 0.000000 0.000000 0.000000
# 2 -0.034723 0.042779 0.006503 0.000000 0.000000 0.000000
# 3 -0.007607 0.006503 0.015437 0.000000 0.000000 0.000000
# 4 0.000000 0.000000 0.000000 0.024468 0.000000 0.000000
# 5 0.000000 0.000000 0.000000 0.000000 0.034042 0.000000
# 6 0.000000 0.000000 0.000000 0.000000 0.000000 0.007848
#
#
# Mechanical properties :
#
#
# Convention : Reuss Voigt Hill
#
# Bulk Modulus (GPa) = 28.69711 29.51007 29.10359
# Shear Modulus (GPa) = 19.52125 48.44051 33.98088
#
# Velocity S-wave (km/s) = 2.88984 4.55224 3.81275
# Velocity P-wave (km/s) = 4.83855 6.34467 5.64209
#
# Compressibility (1/GPa) = 0.03484672
#
# Stress axis : x y z
#
# Youngs Moduli (GPa) = 20.71015 23.37569 64.77833
#
# Poissons Ratio (x) = 0.81168 0.49279
# Poissons Ratio (y) = 0.71913 -0.42126
# Poissons Ratio (z) = 0.15755 -0.15201
#
# Static dielectric constant tensor:
#      x y z
#    x 0.703640 0.000000 0.000000 
#    y 0.000000 1.827180 0.000000 
#    z 0.000000 0.000000 1.648610 
# 
# From -- ./inp_files/740.got.cif
#   From: 2010.05.17/outbox.cif.g08.bks.cpg/sg60_1_cif.got.tgz:740.got - 2010.06.03 14:59:27.
