data_PCOD9457855
_publ_section_title
;
Structure prediction by ZEFSAII (Michael W. Deem and Ramdas Pophale) SiO2 
 PCOD9457855
Probable space group: P B C N
;
_chemical_formula_sum "Si O2"
_cell_formula_units_Z 44
_cell_length_a 5.435549
_cell_length_b 13.240048
_cell_length_c 24.766097
_cell_angle_alpha 90.000000
_cell_angle_beta 90.000000
_cell_angle_gamma 90.000000
_cell_volume 1782.339961
_symmetry_space_group_name_H-M "P B C N"
_symmetry_group_IT_number 60
_symmetry_cell_setting 'orthorhombic'
loop_
_space_group_symop_operation_xyz
x,y,z
1/2-x,1/2-y,1/2+z
1/2+x,1/2-y,-z
-x,y,1/2-z
-x,-y,-z
1/2+x,1/2+y,1/2-z
1/2-x,1/2+y,z
x,-y,1/2+z
loop_
_atom_site_type_symbol
_atom_site_label
_atom_site_fract_x
_atom_site_fract_y
_atom_site_fract_z
Si Si1 0.287883 0.426451 0.155055
Si Si2 0.371587 0.814076 0.504278
Si Si3 0.391779 0.530007 0.942180
Si Si4 0.543549 0.100996 0.113945
Si Si5 0.843541 0.729932 0.296064
Si Si6 0.500000 0.555028 0.250000
O O1 0.428053 0.412517 0.098242
O O2 0.069934 0.504146 0.143499
O O3 0.189160 0.320169 0.177589
O O4 0.475102 0.482066 0.197532
O O5 0.626312 0.753905 0.498410
O O6 0.337019 0.898358 0.457971
O O7 0.383286 0.868588 0.562139
O O8 0.303497 0.430585 0.910526
O O9 0.500000 0.500000 0.000000
O O10 0.522158 0.188908 0.157156
O O11 0.711786 0.636333 0.266360
O O12 0.000000 0.781431 0.250000
#
# Coordination Sequence:
#
# PCOD9457855 Si02
#       6
#     8   8   8   8   8   4
#     4  11  24  46  72 108 145 200 250 320 398 466
#     4  12  27  46  74 111 155 204 260 314 389 476
#     4  12  25  45  74 105 156 200 254 323 394 470
#     4  11  26  44  72 107 154 193 259 318 394 468
#     4  11  24  46  74 105 144 198 257 316 398 467
#     4  10  24  48  70 106 152 182 260 324 386 468
#
# _framework density 24.686648000000002
#
# number of rings (size 3 to 8) (size 9 to 14) (size 15 to 20)
#    0.000    0.727    2.727    3.818    5.091    1.455 
#    9.818    0.000    0.000    0.000    0.000    0.000 
#    0.000    0.000    0.000    0.000    0.000    0.000 
#
# Total GULP energy -246010.135356 kJ/mol
# GULP energy per Si atom -5591.139440 kJ/mol
# Density = 2.463046 g / cm^3
# Si number density = 24.686648 Si / 1000 Ang^3
#
#
#
# Elastic Constant Matrix: (Units=GPa)
#
#
# Indices 1 2 3 4 5 6 
#
# 1 71.2313 11.3952 15.7525 0.0000 0.0000 0.0000
# 2 11.3952 90.2726 14.9967 0.0000 0.0000 0.0000
# 3 15.7525 14.9967 98.8499 0.0000 0.0000 0.0000
# 4 0.0000 0.0000 0.0000 0.5659 0.0000 0.0000
# 5 0.0000 0.0000 0.0000 0.0000 34.5177 0.0000
# 6 0.0000 0.0000 0.0000 0.0000 0.0000 47.3902
#
#
#
# Elastic Compliance Matrix: (Units=1/GPa)
#
#
# Indices 1 2 3 4 5 6 
#
# 1 0.014749 -0.001509 -0.002121 0.000000 0.000000 0.000000
# 2 -0.001509 0.011518 -0.001507 0.000000 0.000000 0.000000
# 3 -0.002121 -0.001507 0.010683 0.000000 0.000000 0.000000
# 4 0.000000 0.000000 0.000000 1.766952 0.000000 0.000000
# 5 0.000000 0.000000 0.000000 0.000000 0.028971 0.000000
# 6 0.000000 0.000000 0.000000 0.000000 0.000000 0.021101
#
#
# Mechanical properties :
#
#
# Convention : Reuss Voigt Hill
#
# Bulk Modulus (GPa) = 37.48789 38.29364 37.89077
# Shear Modulus (GPa) = 2.66931 31.04207 16.85569
#
# Velocity S-wave (km/s) = 1.04097 3.54989 2.61585
# Velocity P-wave (km/s) = 4.08207 5.68752 4.95031
#
# Compressibility (1/GPa) = 0.02667528
#
# Stress axis : x y z
#
# Youngs Moduli (GPa) = 67.79942 86.81732 93.60634
#
# Poissons Ratio (x) = 0.13104 0.19858
# Poissons Ratio (y) = 0.10234 0.14106
# Poissons Ratio (z) = 0.14383 0.13083
#
# Static dielectric constant tensor:
#      x y z
#    x 2.009060 0.000000 0.000000 
#    y 0.000000 1.992200 0.000000 
#    z 0.000000 0.000000 1.882380 
# 
# From -- ./inp_files/24828.got.cif
#   From: 2010.05.17/outbox.cif.g08.bks.cpg/sg60_13_cif.got.tgz:24828.got - 2010.06.03 14:59:27.
