data_PCOD9457082
_publ_section_title
;
Structure prediction by ZEFSAII (Michael W. Deem and Ramdas Pophale) SiO2 
 PCOD9457082
Probable space group: P B C N
;
_chemical_formula_sum "Si O2"
_cell_formula_units_Z 48
_cell_length_a 5.122840
_cell_length_b 27.221915
_cell_length_c 13.461950
_cell_angle_alpha 90.000000
_cell_angle_beta 90.000000
_cell_angle_gamma 90.000000
_cell_volume 1877.316247
_symmetry_space_group_name_H-M "P B C N"
_symmetry_group_IT_number 60
_symmetry_cell_setting 'orthorhombic'
loop_
_space_group_symop_operation_xyz
x,y,z
1/2-x,1/2-y,1/2+z
1/2+x,1/2-y,-z
-x,y,1/2-z
-x,-y,-z
1/2+x,1/2+y,1/2-z
1/2-x,1/2+y,z
x,-y,1/2+z
loop_
_atom_site_type_symbol
_atom_site_label
_atom_site_fract_x
_atom_site_fract_y
_atom_site_fract_z
Si Si1 0.000000 0.317515 0.750000
Si Si2 0.076457 0.478370 0.865624
Si Si3 0.059062 0.245737 0.568494
Si Si4 0.500000 0.531261 0.250000
Si Si5 0.589781 0.919748 0.364186
Si Si6 0.373962 0.613704 0.374413
Si Si7 0.411705 0.360429 0.420903
O O1 0.905993 0.284389 0.842378
O O2 0.770886 0.350738 0.702141
O O3 0.354823 0.501885 0.830532
O O4 0.914704 0.523642 0.905150
O O5 0.153473 0.426140 0.910726
O O6 0.000000 0.466560 0.750000
O O7 0.331074 0.238129 0.509183
O O8 0.950012 0.195018 0.614858
O O9 0.581294 0.574146 0.330260
O O10 0.500000 0.923925 0.250000
O O11 0.869713 0.894929 0.372486
O O12 0.371848 0.883788 0.410317
O O13 0.507687 0.641367 0.463271
#
# Coordination Sequence:
#
# PCOD9457082 Si02
#       7
#     4   8   8   4   8   8   8
#     4  12  26  48  81 108 150 203 244 330 400 434
#     4   9  20  38  68 100 142 191 244 294 366 458
#     4  12  29  51  78 112 150 193 258 316 382 461
#     4   8  20  38  65 102 140 185 244 294 364 444
#     4  11  27  45  73  98 153 201 244 296 381 448
#     4  10  22  42  74 108 141 190 247 313 378 441
#     4  12  27  48  70 112 146 193 249 313 363 466
#
# _framework density 25.568414000000001
#
# number of rings (size 3 to 8) (size 9 to 14) (size 15 to 20)
#    1.000    0.333    2.500    1.500    9.333    3.333 
#    0.000    0.000    0.000    0.000    0.000    0.000 
#    0.000    0.000    0.000    0.000    0.000    0.000 
#
# Total GULP energy -267483.275518 kJ/mol
# GULP energy per Si atom -5572.568240 kJ/mol
# Density = 2.551022 g / cm^3
# Si number density = 25.568414 Si / 1000 Ang^3
#
#
#
# Elastic Constant Matrix: (Units=GPa)
#
#
# Indices 1 2 3 4 5 6 
#
# 1 83.7296 35.6660 29.7029 0.0000 0.0000 0.0000
# 2 35.6660 143.3135 35.7549 0.0000 0.0000 0.0000
# 3 29.7029 35.7549 93.8093 0.0000 0.0000 0.0000
# 4 0.0000 0.0000 0.0000 50.2279 0.0000 0.0000
# 5 0.0000 0.0000 0.0000 0.0000 42.0454 0.0000
# 6 0.0000 0.0000 0.0000 0.0000 0.0000 29.3514
#
#
#
# Elastic Compliance Matrix: (Units=1/GPa)
#
#
# Indices 1 2 3 4 5 6 
#
# 1 0.014336 -0.002691 -0.003513 0.000000 0.000000 0.000000
# 2 -0.002691 0.008216 -0.002279 0.000000 0.000000 0.000000
# 3 -0.003513 -0.002279 0.012641 0.000000 0.000000 0.000000
# 4 0.000000 0.000000 0.000000 0.019909 0.000000 0.000000
# 5 0.000000 0.000000 0.000000 0.000000 0.023784 0.000000
# 6 0.000000 0.000000 0.000000 0.000000 0.000000 0.034070
#
#
# Mechanical properties :
#
#
# Convention : Reuss Voigt Hill
#
# Bulk Modulus (GPa) = 54.86931 58.12222 56.49577
# Shear Modulus (GPa) = 36.76486 38.97353 37.86920
#
# Velocity S-wave (km/s) = 3.79608 3.90844 3.85267
# Velocity P-wave (km/s) = 6.38122 6.56881 6.47570
#
# Compressibility (1/GPa) = 0.01822512
#
# Stress axis : x y z
#
# Youngs Moduli (GPa) = 69.75468 121.71164 79.10654
#
# Poissons Ratio (x) = 0.32755 0.27794
# Poissons Ratio (y) = 0.18772 0.18032
# Poissons Ratio (z) = 0.24508 0.27743
#
# Static dielectric constant tensor:
#      x y z
#    x 2.333970 0.000000 0.000000 
#    y 0.000000 1.962800 0.000000 
#    z 0.000000 0.000000 2.096740 
# 
# From -- ./inp_files/13960.got.cif
#   From: 2010.05.17/outbox.cif.g08.bks.cpg/sg60_7_cif.got.tgz:13960.got - 2010.06.03 14:59:27.
