data_PCOD9457198
_publ_section_title
;
Structure prediction by ZEFSAII (Michael W. Deem and Ramdas Pophale) SiO2 
 PCOD9457198
Probable space group: P B C N
;
_chemical_formula_sum "Si O2"
_cell_formula_units_Z 64
_cell_length_a 29.863377
_cell_length_b 9.225285
_cell_length_c 10.613941
_cell_angle_alpha 90.000000
_cell_angle_beta 90.000000
_cell_angle_gamma 90.000000
_cell_volume 2924.121257
_symmetry_space_group_name_H-M "P B C N"
_symmetry_group_IT_number 60
_symmetry_cell_setting 'orthorhombic'
loop_
_space_group_symop_operation_xyz
x,y,z
1/2-x,1/2-y,1/2+z
1/2+x,1/2-y,-z
-x,y,1/2-z
-x,-y,-z
1/2+x,1/2+y,1/2-z
1/2-x,1/2+y,z
x,-y,1/2+z
loop_
_atom_site_type_symbol
_atom_site_label
_atom_site_fract_x
_atom_site_fract_y
_atom_site_fract_z
Si Si1 0.601274 0.394570 0.250271
Si Si2 0.326956 0.148191 0.198789
Si Si3 0.306249 0.310597 0.580951
Si Si4 0.972252 0.946850 0.879541
Si Si5 0.907196 0.246201 0.502956
Si Si6 0.140539 0.525887 0.938620
Si Si7 0.274482 0.633798 0.558915
Si Si8 0.153407 0.817294 0.840335
O O1 0.633218 0.265638 0.292778
O O2 0.567559 0.438050 0.358430
O O3 0.628005 0.538607 0.205327
O O4 0.576378 0.331945 0.129083
O O5 0.285976 0.259476 0.176385
O O6 0.331785 0.049701 0.323342
O O7 0.333118 0.057528 0.069427
O O8 0.356108 0.315251 0.519530
O O9 0.280973 0.465084 0.588237
O O10 0.273207 0.195998 0.516387
O O11 0.317958 0.264308 0.721704
O O12 0.943701 0.799375 0.901374
O O13 0.000000 0.938549 0.750000
O O14 0.000000 0.000000 0.000000
O O15 0.898501 0.414707 0.524707
O O16 0.124361 0.681071 0.886096
O O17 0.311873 0.654445 0.452091
#
# Coordination Sequence:
#
# PCOD9457198 Si02
#       8
#     8   8   8   8   8   8   8   8
#     4  11  22  44  76 102 144 187 245 302 375 448
#     4  10  22  45  65 101 143 195 240 292 359 436
#     4  12  25  42  66  97 142 196 251 302 364 422
#     4  12  25  43  78 117 137 180 251 317 377 454
#     4  11  23  45  70 103 148 193 240 301 382 449
#     4  10  24  39  70 103 139 190 242 291 366 442
#     4  11  26  40  62  98 144 190 256 310 348 421
#     4  11  23  42  69  98 138 200 246 298 366 432
#
# _framework density 21.886915999999999
#
# number of rings (size 3 to 8) (size 9 to 14) (size 15 to 20)
#    0.000    1.000    5.000    0.750    7.000    3.000 
#    0.000    0.000    0.000    3.750    0.000    0.000 
#    0.000    0.000    0.000    0.000    0.000    0.000 
#
# Total GULP energy -357262.099237 kJ/mol
# GULP energy per Si atom -5582.220301 kJ/mol
# Density = 2.183710 g / cm^3
# Si number density = 21.886916 Si / 1000 Ang^3
#
#
#
# Elastic Constant Matrix: (Units=GPa)
#
#
# Indices 1 2 3 4 5 6 
#
# 1 79.0115 51.8896 32.9533 0.0000 0.0000 0.0000
# 2 51.8896 155.9813 55.2808 0.0000 0.0000 0.0000
# 3 32.9533 55.2808 107.1031 0.0000 0.0000 0.0000
# 4 0.0000 0.0000 0.0000 36.9654 0.0000 0.0000
# 5 0.0000 0.0000 0.0000 0.0000 34.7780 0.0000
# 6 0.0000 0.0000 0.0000 0.0000 0.0000 21.0696
#
#
#
# Elastic Compliance Matrix: (Units=1/GPa)
#
#
# Indices 1 2 3 4 5 6 
#
# 1 0.016856 -0.004613 -0.002805 0.000000 0.000000 0.000000
# 2 -0.004613 0.009109 -0.003282 0.000000 0.000000 0.000000
# 3 -0.002805 -0.003282 0.011894 0.000000 0.000000 0.000000
# 4 0.000000 0.000000 0.000000 0.027052 0.000000 0.000000
# 5 0.000000 0.000000 0.000000 0.000000 0.028754 0.000000
# 6 0.000000 0.000000 0.000000 0.000000 0.000000 0.047462
#
#
# Mechanical properties :
#
#
# Convention : Reuss Voigt Hill
#
# Bulk Modulus (GPa) = 60.76132 69.14926 64.95529
# Shear Modulus (GPa) = 29.75950 32.02741 30.89346
#
# Velocity S-wave (km/s) = 3.69140 3.82948 3.76107
# Velocity P-wave (km/s) = 6.78162 7.15651 6.97159
#
# Compressibility (1/GPa) = 0.01645784
#
# Stress axis : x y z
#
# Youngs Moduli (GPa) = 59.32608 109.78270 84.07653
#
# Poissons Ratio (x) = 0.50646 0.23584
# Poissons Ratio (y) = 0.27369 0.27595
# Poissons Ratio (z) = 0.16642 0.36032
#
# Static dielectric constant tensor:
#      x y z
#    x 1.841250 0.000000 0.000000 
#    y 0.000000 1.851940 0.000000 
#    z 0.000000 0.000000 1.886740 
# 
# From -- ./inp_files/13399.got.cif
#   From: 2010.05.17/outbox.cif.g08.bks.cpg/sg60_7_cif.got.tgz:13399.got - 2010.06.03 14:59:27.
