data_PCOD9457721
_publ_section_title
;
Structure prediction by ZEFSAII (Michael W. Deem and Ramdas Pophale) SiO2 
 PCOD9457721
Probable space group: P B C N
;
_chemical_formula_sum "Si O2"
_cell_formula_units_Z 64
_cell_length_a 8.910113
_cell_length_b 10.232962
_cell_length_c 28.423100
_cell_angle_alpha 90.000000
_cell_angle_beta 90.000000
_cell_angle_gamma 90.000000
_cell_volume 2591.528661
_symmetry_space_group_name_H-M "P B C N"
_symmetry_group_IT_number 60
_symmetry_cell_setting 'orthorhombic'
loop_
_space_group_symop_operation_xyz
x,y,z
1/2-x,1/2-y,1/2+z
1/2+x,1/2-y,-z
-x,y,1/2-z
-x,-y,-z
1/2+x,1/2+y,1/2-z
1/2-x,1/2+y,z
x,-y,1/2+z
loop_
_atom_site_type_symbol
_atom_site_label
_atom_site_fract_x
_atom_site_fract_y
_atom_site_fract_z
Si Si1 0.430330 0.976482 0.297511
Si Si2 0.324375 0.103873 0.418890
Si Si3 0.815939 0.662920 0.526804
Si Si4 0.451651 0.724307 0.698806
Si Si5 0.619397 0.508293 0.168097
Si Si6 0.144157 0.734458 0.559472
Si Si7 0.344531 0.337623 0.664312
Si Si8 0.112563 0.488945 0.120893
O O1 0.500000 0.924106 0.250000
O O2 0.475191 0.130371 0.302204
O O3 0.252872 0.973951 0.296551
O O4 0.496462 0.909767 0.344728
O O5 0.281851 0.244327 0.438842
O O6 0.308436 0.988165 0.457748
O O7 0.209395 0.062987 0.377231
O O8 0.496689 0.093084 0.401335
O O9 0.756028 0.694541 0.475240
O O10 0.985387 0.713043 0.534072
O O11 0.500000 0.672621 0.750000
O O12 0.527094 0.626092 0.661552
O O13 0.273762 0.742744 0.690078
O O14 0.500297 0.615404 0.185695
O O15 0.128341 0.806574 0.609178
O O16 0.186409 0.591289 0.578916
O O17 0.236448 0.462740 0.656737
#
# Coordination Sequence:
#
# PCOD9457721 Si02
#       8
#     8   8   8   8   8   8   8   8
#     4   9  21  43  69  99 137 178 233 296 361 434
#     4  10  24  44  69  98 137 187 239 293 359 426
#     4  11  26  43  66 100 142 181 242 297 354 437
#     4  10  24  43  65 100 137 178 232 292 364 437
#     4  11  23  41  73  98 139 185 237 293 365 433
#     4  11  25  41  64  99 137 179 239 287 361 419
#     4  11  23  42  67  98 137 182 231 293 355 432
#     4   9  22  40  63  89 136 179 223 284 359 417
#
# _framework density 24.69585
#
# number of rings (size 3 to 8) (size 9 to 14) (size 15 to 20)
#    0.000    1.750    1.250    0.750    8.750    7.500 
#    0.000    0.000    0.000    0.750    0.000    0.000 
#    0.000    0.000    0.000    0.000    0.000    0.000 
#
# Total GULP energy -357636.472944 kJ/mol
# GULP energy per Si atom -5588.069890 kJ/mol
# Density = 2.463964 g / cm^3
# Si number density = 24.695850 Si / 1000 Ang^3
#
#
#
# Elastic Constant Matrix: (Units=GPa)
#
#
# Indices 1 2 3 4 5 6 
#
# 1 127.6138 5.1882 31.7994 0.0000 0.0000 0.0000
# 2 5.1882 50.9411 2.0672 0.0000 0.0000 0.0000
# 3 31.7994 2.0672 82.6490 0.0000 0.0000 0.0000
# 4 0.0000 0.0000 0.0000 21.6330 0.0000 0.0000
# 5 0.0000 0.0000 0.0000 0.0000 26.9645 0.0000
# 6 0.0000 0.0000 0.0000 0.0000 0.0000 22.0902
#
#
#
# Elastic Compliance Matrix: (Units=1/GPa)
#
#
# Indices 1 2 3 4 5 6 
#
# 1 0.008696 -0.000751 -0.003327 0.000000 0.000000 0.000000
# 2 -0.000751 0.019715 -0.000204 0.000000 0.000000 0.000000
# 3 -0.003327 -0.000204 0.013385 0.000000 0.000000 0.000000
# 4 0.000000 0.000000 0.000000 0.046226 0.000000 0.000000
# 5 0.000000 0.000000 0.000000 0.000000 0.037086 0.000000
# 6 0.000000 0.000000 0.000000 0.000000 0.000000 0.045269
#
#
# Mechanical properties :
#
#
# Convention : Reuss Voigt Hill
#
# Bulk Modulus (GPa) = 30.09169 37.70149 33.89659
# Shear Modulus (GPa) = 26.31346 28.94748 27.63047
#
# Velocity S-wave (km/s) = 3.26774 3.42740 3.34852
# Velocity P-wave (km/s) = 5.14285 5.56437 5.35776
#
# Compressibility (1/GPa) = 0.03323177
#
# Stress axis : x y z
#
# Youngs Moduli (GPa) = 114.99967 50.72210 74.71327
#
# Poissons Ratio (x) = 0.03807 0.24856
# Poissons Ratio (y) = 0.08632 0.01527
# Poissons Ratio (z) = 0.38259 0.01036
#
# Static dielectric constant tensor:
#      x y z
#    x 1.947030 0.000000 0.000000 
#    y 0.000000 2.125390 0.000000 
#    z 0.000000 0.000000 1.997470 
# 
# From -- ./inp_files/26019.got.cif
#   From: 2010.05.17/outbox.cif.g08.bks.cpg/sg60_14_cif.got.tgz:26019.got - 2010.06.03 14:59:27.
