data_PCOD9457832
_publ_section_title
;
Structure prediction by ZEFSAII (Michael W. Deem and Ramdas Pophale) SiO2 
 PCOD9457832
Probable space group: P B C N
;
_chemical_formula_sum "Si O2"
_cell_formula_units_Z 60
_cell_length_a 11.485197
_cell_length_b 9.314639
_cell_length_c 23.982663
_cell_angle_alpha 90.000000
_cell_angle_beta 90.000000
_cell_angle_gamma 90.000000
_cell_volume 2565.676413
_symmetry_space_group_name_H-M "P B C N"
_symmetry_group_IT_number 60
_symmetry_cell_setting 'orthorhombic'
loop_
_space_group_symop_operation_xyz
x,y,z
1/2-x,1/2-y,1/2+z
1/2+x,1/2-y,-z
-x,y,1/2-z
-x,-y,-z
1/2+x,1/2+y,1/2-z
1/2-x,1/2+y,z
x,-y,1/2+z
loop_
_atom_site_type_symbol
_atom_site_label
_atom_site_fract_x
_atom_site_fract_y
_atom_site_fract_z
Si Si1 0.966310 0.964650 0.863139
Si Si2 0.741737 0.760433 0.984242
Si Si3 0.188303 0.985598 0.937243
Si Si4 0.828304 0.453074 0.164608
Si Si5 0.079198 0.654678 0.682538
Si Si6 0.000000 0.857291 0.250000
Si Si7 0.714079 0.008283 0.909823
Si Si8 0.244217 0.714440 0.273645
O O1 0.958229 0.794659 0.852436
O O2 0.852026 0.005317 0.898248
O O3 0.080203 0.003009 0.897078
O O4 0.976553 0.044654 0.804060
O O5 0.677750 0.857484 0.937349
O O6 0.815013 0.640363 0.950907
O O7 0.674249 0.661045 0.028041
O O8 0.805801 0.882494 0.019781
O O9 0.303294 0.988528 0.897277
O O10 0.759166 0.548550 0.210212
O O11 0.772840 0.296001 0.168794
O O12 0.959831 0.436049 0.186439
O O13 0.160858 0.545925 0.649401
O O14 0.156328 0.729749 0.731342
O O15 0.115654 0.761047 0.255884
#
# Coordination Sequence:
#
# PCOD9457832 Si02
#       8
#     8   8   8   8   8   4   8   8
#     4  12  25  47  77 107 151 204 239 323 377 467
#     4  10  24  46  73 105 141 191 250 321 363 462
#     4  11  24  48  71 104 145 189 253 305 388 440
#     4  12  27  47  74 106 152 199 245 316 378 452
#     4  12  27  46  74 110 152 197 253 315 375 459
#     4  12  26  44  76 108 154 194 246 300 388 464
#     4  11  24  49  72 106 148 191 255 306 387 443
#     4  12  27  46  73 111 149 195 255 303 377 460
#
# _framework density 23.385646000000001
#
# number of rings (size 3 to 8) (size 9 to 14) (size 15 to 20)
#    0.000    0.533    4.000    3.600    3.733    3.200 
#    4.800    2.000    0.000    0.000    0.000    0.000 
#    0.000    0.000    0.000    0.000    0.000    0.000 
#
# Total GULP energy -335383.507240 kJ/mol
# GULP energy per Si atom -5589.725121 kJ/mol
# Density = 2.333242 g / cm^3
# Si number density = 23.385646 Si / 1000 Ang^3
#
#
#
# Elastic Constant Matrix: (Units=GPa)
#
#
# Indices 1 2 3 4 5 6 
#
# 1 94.2954 20.5509 31.4392 0.0000 0.0000 0.0000
# 2 20.5509 119.8709 27.6975 0.0000 0.0000 0.0000
# 3 31.4392 27.6975 91.8665 0.0000 0.0000 0.0000
# 4 0.0000 0.0000 0.0000 36.7080 0.0000 0.0000
# 5 0.0000 0.0000 0.0000 0.0000 9.7929 0.0000
# 6 0.0000 0.0000 0.0000 0.0000 0.0000 23.7298
#
#
#
# Elastic Compliance Matrix: (Units=1/GPa)
#
#
# Indices 1 2 3 4 5 6 
#
# 1 0.012131 -0.001204 -0.003788 0.000000 0.000000 0.000000
# 2 -0.001204 0.009087 -0.002327 0.000000 0.000000 0.000000
# 3 -0.003788 -0.002327 0.012884 0.000000 0.000000 0.000000
# 4 0.000000 0.000000 0.000000 0.027242 0.000000 0.000000
# 5 0.000000 0.000000 0.000000 0.000000 0.102115 0.000000
# 6 0.000000 0.000000 0.000000 0.000000 0.000000 0.042141
#
#
# Mechanical properties :
#
#
# Convention : Reuss Voigt Hill
#
# Bulk Modulus (GPa) = 51.38613 51.71200 51.54906
# Shear Modulus (GPa) = 22.05313 29.13583 25.59448
#
# Velocity S-wave (km/s) = 3.07419 3.53354 3.31184
# Velocity P-wave (km/s) = 5.88404 6.22965 6.05931
#
# Compressibility (1/GPa) = 0.01946050
#
# Stress axis : x y z
#
# Youngs Moduli (GPa) = 82.43679 110.05264 77.61848
#
# Poissons Ratio (x) = 0.13254 0.29404
# Poissons Ratio (y) = 0.09928 0.18065
# Poissons Ratio (z) = 0.31229 0.25614
#
# Static dielectric constant tensor:
#      x y z
#    x 1.893630 0.000000 0.000000 
#    y 0.000000 1.849320 0.000000 
#    z 0.000000 0.000000 1.948410 
# 
# From -- ./inp_files/25324.got.cif
#   From: 2010.05.17/outbox.cif.g08.bks.cpg/sg60_13_cif.got.tgz:25324.got - 2010.06.03 14:59:27.
