data_PCOD9457839
_publ_section_title
;
Structure prediction by ZEFSAII (Michael W. Deem and Ramdas Pophale) SiO2 
 PCOD9457839
Probable space group: P B C N
;
_chemical_formula_sum "Si O2"
_cell_formula_units_Z 32
_cell_length_a 11.417103
_cell_length_b 8.164814
_cell_length_c 13.930265
_cell_angle_alpha 90.000000
_cell_angle_beta 90.000000
_cell_angle_gamma 90.000000
_cell_volume 1298.558720
_symmetry_space_group_name_H-M "P B C N"
_symmetry_group_IT_number 60
_symmetry_cell_setting 'orthorhombic'
loop_
_space_group_symop_operation_xyz
x,y,z
1/2-x,1/2-y,1/2+z
1/2+x,1/2-y,-z
-x,y,1/2-z
-x,-y,-z
1/2+x,1/2+y,1/2-z
1/2-x,1/2+y,z
x,-y,1/2+z
loop_
_atom_site_type_symbol
_atom_site_label
_atom_site_fract_x
_atom_site_fract_y
_atom_site_fract_z
Si Si1 0.936522 0.545533 0.598563
Si Si2 0.875280 0.931821 0.233333
Si Si3 0.844636 0.728943 0.839745
Si Si4 0.791735 0.230600 0.565353
O O1 0.853582 0.387475 0.615867
O O2 0.845325 0.695028 0.584053
O O3 0.000000 0.500000 0.500000
O O4 0.047732 0.601799 0.660276
O O5 0.767576 0.842536 0.285433
O O6 0.854863 0.920414 0.119338
O O7 0.000000 0.848528 0.250000
O O8 0.879079 0.106612 0.284821
O O9 0.813441 0.763424 0.951479
#
# Coordination Sequence:
#
# PCOD9457839 Si02
#       4
#     8   8   8   8
#     4  10  24  46  80 114 153 209 265 329 402 489
#     4  12  30  47  78 119 153 214 267 332 416 497
#     4  11  27  50  77 115 160 205 270 335 407 502
#     4  11  25  50  80 113 161 212 262 342 412 475
#
# _framework density 24.642707000000001
#
# number of rings (size 3 to 8) (size 9 to 14) (size 15 to 20)
#    0.000    1.000    0.000    4.500   17.500    1.000 
#    0.000    0.000    0.000    0.000    0.000    0.000 
#    0.000    0.000    0.000    0.000    0.000    0.000 
#
# Total GULP energy -178945.754851 kJ/mol
# GULP energy per Si atom -5592.054839 kJ/mol
# Density = 2.458662 g / cm^3
# Si number density = 24.642707 Si / 1000 Ang^3
#
#
#
# Elastic Constant Matrix: (Units=GPa)
#
#
# Indices 1 2 3 4 5 6 
#
# 1 222.5105 68.5028 54.6702 0.0000 0.0000 0.0000
# 2 68.5028 118.3400 39.1930 0.0000 0.0000 0.0000
# 3 54.6702 39.1930 135.4011 0.0000 0.0000 0.0000
# 4 0.0000 0.0000 0.0000 37.2165 0.0000 0.0000
# 5 0.0000 0.0000 0.0000 0.0000 51.1170 0.0000
# 6 0.0000 0.0000 0.0000 0.0000 0.0000 55.9851
#
#
#
# Elastic Compliance Matrix: (Units=1/GPa)
#
#
# Indices 1 2 3 4 5 6 
#
# 1 0.005731 -0.002821 -0.001497 0.000000 0.000000 0.000000
# 2 -0.002821 0.010735 -0.001968 0.000000 0.000000 0.000000
# 3 -0.001497 -0.001968 0.008560 0.000000 0.000000 0.000000
# 4 0.000000 0.000000 0.000000 0.026870 0.000000 0.000000
# 5 0.000000 0.000000 0.000000 0.000000 0.019563 0.000000
# 6 0.000000 0.000000 0.000000 0.000000 0.000000 0.017862
#
#
# Mechanical properties :
#
#
# Convention : Reuss Voigt Hill
#
# Bulk Modulus (GPa) = 80.30824 88.99818 84.65321
# Shear Modulus (GPa) = 47.15001 49.78944 48.46972
#
# Velocity S-wave (km/s) = 4.37893 4.49982 4.43979
# Velocity P-wave (km/s) = 7.63063 7.94932 7.79160
#
# Compressibility (1/GPa) = 0.01245202
#
# Stress axis : x y z
#
# Youngs Moduli (GPa) = 174.50114 93.15058 116.82674
#
# Poissons Ratio (x) = 0.26282 0.17491
# Poissons Ratio (y) = 0.49234 0.22994
# Poissons Ratio (z) = 0.26125 0.18334
#
# Static dielectric constant tensor:
#      x y z
#    x 1.954620 0.000000 0.000000 
#    y 0.000000 2.035720 0.000000 
#    z 0.000000 0.000000 1.958970 
# 
# From -- ./inp_files/15591.got.cif
#   From: 2010.05.17/outbox.cif.g08.bks.cpg/sg60_8_cif.got.tgz:15591.got - 2010.06.03 14:59:27.
