data_PCOD9457051
_publ_section_title
;
Structure prediction by ZEFSAII (Michael W. Deem and Ramdas Pophale) SiO2 
 PCOD9457051
Probable space group: P B C N
;
_chemical_formula_sum "Si O2"
_cell_formula_units_Z 40
_cell_length_a 6.546328
_cell_length_b 18.939765
_cell_length_c 13.385721
_cell_angle_alpha 90.000000
_cell_angle_beta 90.000000
_cell_angle_gamma 90.000000
_cell_volume 1659.640852
_symmetry_space_group_name_H-M "P B C N"
_symmetry_group_IT_number 60
_symmetry_cell_setting 'orthorhombic'
loop_
_space_group_symop_operation_xyz
x,y,z
1/2-x,1/2-y,1/2+z
1/2+x,1/2-y,-z
-x,y,1/2-z
-x,-y,-z
1/2+x,1/2+y,1/2-z
1/2-x,1/2+y,z
x,-y,1/2+z
loop_
_atom_site_type_symbol
_atom_site_label
_atom_site_fract_x
_atom_site_fract_y
_atom_site_fract_z
Si Si1 0.874201 0.174906 0.647770
Si Si2 0.303483 0.578503 0.589065
Si Si3 0.829993 0.322965 0.588346
Si Si4 0.636922 0.943650 0.847562
Si Si5 0.500000 0.868573 0.250000
Si Si6 0.000000 0.134108 0.250000
O O1 0.903036 0.242643 0.576864
O O2 0.633652 0.171197 0.667924
O O3 0.000000 0.192829 0.750000
O O4 0.961532 0.098842 0.612175
O O5 0.253721 0.637379 0.508034
O O6 0.204117 0.501971 0.569382
O O7 0.180152 0.593969 0.690376
O O8 0.657061 0.325968 0.676023
O O9 0.015952 0.374590 0.617300
O O10 0.500000 0.967076 0.750000
O O11 0.855726 0.916966 0.812524
#
# Coordination Sequence:
#
# PCOD9457051 Si02
#       6
#     8   8   8   8   4   4
#     4  10  23  41  64  95 130 173 219 264 328 395
#     4  11  24  40  68  98 130 170 222 272 330 401
#     4  11  24  42  64 101 134 172 222 270 332 405
#     4  10  22  42  68  95 131 172 221 272 337 394
#     4  10  23  42  66  90 135 170 214 282 329 382
#     4  10  23  40  70  88 133 174 214 278 331 396
#
# _framework density 24.101600000000001
#
# number of rings (size 3 to 8) (size 9 to 14) (size 15 to 20)
#    0.000    1.600    1.000    3.000    7.000    4.000 
#    0.000    0.000    0.000    0.000    0.000    0.000 
#    0.000    0.000    0.000    0.000    0.000    0.000 
#
# Total GULP energy -222871.209285 kJ/mol
# GULP energy per Si atom -5571.780232 kJ/mol
# Density = 2.404674 g / cm^3
# Si number density = 24.101600 Si / 1000 Ang^3
#
#
#
# Elastic Constant Matrix: (Units=GPa)
#
#
# Indices 1 2 3 4 5 6 
#
# 1 136.8497 56.0146 -2.1202 0.0000 0.0000 0.0000
# 2 56.0146 80.9365 -11.6614 0.0000 0.0000 0.0000
# 3 -2.1202 -11.6614 16.7116 0.0000 0.0000 0.0000
# 4 0.0000 0.0000 0.0000 3.2501 0.0000 0.0000
# 5 0.0000 0.0000 0.0000 0.0000 28.0278 0.0000
# 6 0.0000 0.0000 0.0000 0.0000 0.0000 37.1260
#
#
#
# Elastic Compliance Matrix: (Units=1/GPa)
#
#
# Indices 1 2 3 4 5 6 
#
# 1 0.010446 -0.007826 -0.004135 0.000000 0.000000 0.000000
# 2 -0.007826 0.019599 0.012683 0.000000 0.000000 0.000000
# 3 -0.004135 0.012683 0.068164 0.000000 0.000000 0.000000
# 4 0.000000 0.000000 0.000000 0.307685 0.000000 0.000000
# 5 0.000000 0.000000 0.000000 0.000000 0.035679 0.000000
# 6 0.000000 0.000000 0.000000 0.000000 0.000000 0.026935
#
#
# Mechanical properties :
#
#
# Convention : Reuss Voigt Hill
#
# Bulk Modulus (GPa) = 10.03474 35.44043 22.73758
# Shear Modulus (GPa) = 9.99438 26.49843 18.24640
#
# Velocity S-wave (km/s) = 2.03857 3.31939 2.75446
# Velocity P-wave (km/s) = 3.11666 5.42472 4.42387
#
# Compressibility (1/GPa) = 0.09965381
#
# Stress axis : x y z
#
# Youngs Moduli (GPa) = 95.72755 51.02394 14.67044
#
# Poissons Ratio (x) = 0.39929 0.06067
# Poissons Ratio (y) = 0.74912 -0.18607
# Poissons Ratio (z) = 0.39587 -0.64714
#
# Static dielectric constant tensor:
#      x y z
#    x 1.932610 0.000000 0.000000 
#    y 0.000000 2.056370 0.000000 
#    z 0.000000 0.000000 2.020750 
# 
# From -- ./inp_files/13837.got.cif
#   From: 2010.05.17/outbox.cif.g08.bks.cpg/sg60_7_cif.got.tgz:13837.got - 2010.06.03 14:59:27.
