data_PCOD9458934
_publ_section_title
;
Structure prediction by ZEFSAII (Michael W. Deem and Ramdas Pophale) SiO2 
 PCOD9458934
Probable space group: P B C N
;
_chemical_formula_sum "Si O2"
_cell_formula_units_Z 60
_cell_length_a 12.000000
_cell_length_b 9.000000
_cell_length_c 27.000000
_cell_angle_alpha 90.000000
_cell_angle_beta 90.000000
_cell_angle_gamma 90.000000
_cell_volume 2916.000000
_symmetry_space_group_name_H-M "P B C N"
_symmetry_group_IT_number 60
_symmetry_cell_setting 'orthorhombic'
loop_
_space_group_symop_operation_xyz
x,y,z
1/2-x,1/2-y,1/2+z
1/2+x,1/2-y,-z
-x,y,1/2-z
-x,-y,-z
1/2+x,1/2+y,1/2-z
1/2-x,1/2+y,z
x,-y,1/2+z
loop_
_atom_site_type_symbol
_atom_site_label
_atom_site_fract_x
_atom_site_fract_y
_atom_site_fract_z
Si Si1 0.922640 0.019432 0.799007
Si Si2 0.124853 0.012873 0.982141
Si Si3 0.696213 0.842466 0.802189
Si Si4 0.385786 0.002053 0.598624
Si Si5 0.500000 0.988525 0.250000
Si Si6 0.256887 0.746777 0.541386
Si Si7 0.887412 0.605270 0.649165
Si Si8 0.357758 0.456614 0.866446
O O1 0.845453 0.169471 0.805712
O O2 0.000000 0.028043 0.750000
O O3 0.828236 0.885851 0.794526
O O4 0.023093 0.004706 0.840148
O O5 0.135096 0.008648 0.923244
O O6 0.175188 0.158372 0.007290
O O7 0.186954 0.874084 0.006608
O O8 0.000000 0.000000 0.000000
O O9 0.664331 0.934192 0.851196
O O10 0.608761 0.911746 0.762842
O O11 0.349231 0.865506 0.561905
O O12 0.317092 0.150524 0.581298
O O13 0.517474 0.039634 0.610221
O O14 0.544994 0.900735 0.201669
O O15 0.765718 0.519560 0.651562
O O16 0.859315 0.776916 0.637213
#
# Coordination Sequence:
#
# PCOD9458934 Si02
#       8
#     8   8   8   8   4   8   8   8
#     4  12  29  47  77 107 145 191 245 298 368 442
#     4  11  25  44  70 103 149 190 247 302 368 441
#     4  11  25  45  73 105 144 185 243 296 364 432
#     4  10  23  43  76 107 143 195 247 303 367 441
#     4  10  24  46  74 104 140 182 236 304 366 438
#     4  10  23  44  72 108 143 190 251 306 372 440
#     4  11  27  47  74 105 151 189 251 304 374 443
#     4  12  29  48  73 107 150 198 245 306 374 436
#
# _framework density 20.576132000000001
#
# number of rings (size 3 to 8) (size 9 to 14) (size 15 to 20)
#    0.000    1.067    0.667    3.200   15.867    3.200 
#    0.000    3.333    0.000    0.000    0.000    0.000 
#    0.000    0.000    0.000    0.000    0.000    0.000 
#
# Total GULP energy -334798.200547 kJ/mol
# GULP energy per Si atom -5579.970009 kJ/mol
# Density = 2.052930 g / cm^3
# Si number density = 20.576132 Si / 1000 Ang^3
#
#
#
# Elastic Constant Matrix: (Units=GPa)
#
#
# Indices 1 2 3 4 5 6 
#
# 1 200.6919 65.4072 49.8652 0.0000 0.0000 0.0000
# 2 65.4072 118.3763 22.4445 0.0000 0.0000 0.0000
# 3 49.8652 22.4445 99.3580 0.0000 0.0000 0.0000
# 4 0.0000 0.0000 0.0000 25.8824 0.0000 0.0000
# 5 0.0000 0.0000 0.0000 0.0000 44.6684 0.0000
# 6 0.0000 0.0000 0.0000 0.0000 0.0000 46.8054
#
#
#
# Elastic Compliance Matrix: (Units=1/GPa)
#
#
# Indices 1 2 3 4 5 6 
#
# 1 0.006676 -0.003190 -0.002630 0.000000 0.000000 0.000000
# 2 -0.003190 0.010350 -0.000737 0.000000 0.000000 0.000000
# 3 -0.002630 -0.000737 0.011551 0.000000 0.000000 0.000000
# 4 0.000000 0.000000 0.000000 0.038636 0.000000 0.000000
# 5 0.000000 0.000000 0.000000 0.000000 0.022387 0.000000
# 6 0.000000 0.000000 0.000000 0.000000 0.000000 0.021365
#
#
# Mechanical properties :
#
#
# Convention : Reuss Voigt Hill
#
# Bulk Modulus (GPa) = 64.67037 77.09557 70.88297
# Shear Modulus (GPa) = 38.68970 42.18518 40.43744
#
# Velocity S-wave (km/s) = 4.34097 4.53283 4.43793
# Velocity P-wave (km/s) = 7.52485 8.05885 7.79643
#
# Compressibility (1/GPa) = 0.01546303
#
# Stress axis : x y z
#
# Youngs Moduli (GPa) = 149.79384 96.61852 86.57296
#
# Poissons Ratio (x) = 0.30822 0.22767
# Poissons Ratio (y) = 0.47785 0.06381
# Poissons Ratio (z) = 0.39393 0.07121
#
# Static dielectric constant tensor:
#      x y z
#    x 1.716700 0.000000 0.000000 
#    y 0.000000 1.746960 0.000000 
#    z 0.000000 0.000000 1.792080 
# 
# From -- ./inp_files/25345.got.cif
#   From: 2010.05.17/outbox.ucp.g08.bks.cvg/sg60_13_cif.got.tgz:25345.got - 2010.06.11 16:26:41.
