data_PCOD9458034
_publ_section_title
;
Structure prediction by ZEFSAII (Michael W. Deem and Ramdas Pophale) SiO2 
 PCOD9458034
Probable space group: P B C N
;
_chemical_formula_sum "Si O2"
_cell_formula_units_Z 52
_cell_length_a 8.174760
_cell_length_b 17.083762
_cell_length_c 18.151649
_cell_angle_alpha 90.000000
_cell_angle_beta 90.000000
_cell_angle_gamma 90.000000
_cell_volume 2534.980417
_symmetry_space_group_name_H-M "P B C N"
_symmetry_group_IT_number 60
_symmetry_cell_setting 'orthorhombic'
loop_
_space_group_symop_operation_xyz
x,y,z
1/2-x,1/2-y,1/2+z
1/2+x,1/2-y,-z
-x,y,1/2-z
-x,-y,-z
1/2+x,1/2+y,1/2-z
1/2-x,1/2+y,z
x,-y,1/2+z
loop_
_atom_site_type_symbol
_atom_site_label
_atom_site_fract_x
_atom_site_fract_y
_atom_site_fract_z
Si Si1 0.669733 0.217471 0.765185
Si Si2 0.339658 0.321231 0.588151
Si Si3 0.913799 0.872132 0.353894
Si Si4 0.355859 0.457041 0.696114
Si Si5 0.871935 0.716436 0.140040
Si Si6 0.827398 0.196846 0.998502
Si Si7 0.000000 0.409529 0.750000
O O1 0.500000 0.176003 0.750000
O O2 0.651469 0.268353 0.838578
O O3 0.811375 0.158152 0.784329
O O4 0.722402 0.270357 0.696862
O O5 0.327627 0.406497 0.622334
O O6 0.501399 0.312755 0.539427
O O7 0.197254 0.282481 0.538815
O O8 0.815231 0.863792 0.430908
O O9 0.048340 0.803373 0.365097
O O10 0.935603 0.961823 0.333193
O O11 0.500000 0.424224 0.750000
O O12 0.174270 0.455168 0.736189
O O13 0.807732 0.688870 0.061666
O O14 0.980090 0.651006 0.181051
#
# Coordination Sequence:
#
# PCOD9458034 Si02
#       7
#     8   8   8   8   8   8   4
#     4  11  20  36  68 100 123 172 239 290 329 413
#     4  11  22  41  66  98 134 174 234 283 339 422
#     4  11  25  43  64 101 143 174 230 291 359 417
#     4  12  26  46  70 106 143 184 230 299 363 417
#     4  12  20  42  70  98 131 185 235 291 340 413
#     4  11  23  40  67  98 133 182 228 284 345 421
#     4  12  24  44  76 102 138 184 248 290 342 422
#
# _framework density 20.512978
#
# number of rings (size 3 to 8) (size 9 to 14) (size 15 to 20)
#    0.000    0.615    6.154    3.231    1.077    0.615 
#    0.000    0.769    0.000    0.000    0.000    0.000 
#    0.000    0.000    0.000    0.000    0.000    0.000 
#
# Total GULP energy -289814.946921 kJ/mol
# GULP energy per Si atom -5573.364364 kJ/mol
# Density = 2.046629 g / cm^3
# Si number density = 20.512978 Si / 1000 Ang^3
#
#
#
# Elastic Constant Matrix: (Units=GPa)
#
#
# Indices 1 2 3 4 5 6 
#
# 1 105.1687 12.3732 24.6285 0.0000 0.0000 0.0000
# 2 12.3732 64.7823 17.2838 0.0000 0.0000 0.0000
# 3 24.6285 17.2838 122.6639 0.0000 0.0000 0.0000
# 4 0.0000 0.0000 0.0000 19.0422 0.0000 0.0000
# 5 0.0000 0.0000 0.0000 0.0000 48.1062 0.0000
# 6 0.0000 0.0000 0.0000 0.0000 0.0000 10.3602
#
#
#
# Elastic Compliance Matrix: (Units=1/GPa)
#
#
# Indices 1 2 3 4 5 6 
#
# 1 0.010106 -0.001443 -0.001826 0.000000 0.000000 0.000000
# 2 -0.001443 0.016245 -0.001999 0.000000 0.000000 0.000000
# 3 -0.001826 -0.001999 0.008801 0.000000 0.000000 0.000000
# 4 0.000000 0.000000 0.000000 0.052515 0.000000 0.000000
# 5 0.000000 0.000000 0.000000 0.000000 0.020787 0.000000
# 6 0.000000 0.000000 0.000000 0.000000 0.000000 0.096523
#
#
# Mechanical properties :
#
#
# Convention : Reuss Voigt Hill
#
# Bulk Modulus (GPa) = 40.62455 44.57622 42.60038
# Shear Modulus (GPa) = 22.34951 31.39035 26.86993
#
# Velocity S-wave (km/s) = 3.30438 3.91611 3.62318
# Velocity P-wave (km/s) = 5.86566 6.49814 6.18998
#
# Compressibility (1/GPa) = 0.02461566
#
# Stress axis : x y z
#
# Youngs Moduli (GPa) = 98.95251 61.55604 113.62815
#
# Poissons Ratio (x) = 0.08883 0.20745
# Poissons Ratio (y) = 0.14280 0.22718
# Poissons Ratio (z) = 0.18066 0.12307
#
# Static dielectric constant tensor:
#      x y z
#    x 1.833530 0.000000 0.000000 
#    y 0.000000 1.784960 0.000000 
#    z 0.000000 0.000000 1.742940 
# 
# From -- ./inp_files/19505.got.cif
#   From: 2010.05.17/outbox.cif.g08.bks.cpg/sg60_10_cif.got.tgz:19505.got - 2010.06.03 14:59:27.
