data_PCOD9458448
_publ_section_title
;
Structure prediction by ZEFSAII (Michael W. Deem and Ramdas Pophale) SiO2 
 PCOD9458448
Probable space group: P B C N
;
_chemical_formula_sum "Si O2"
_cell_formula_units_Z 52
_cell_length_a 14.947174
_cell_length_b 17.694919
_cell_length_c 9.532941
_cell_angle_alpha 90.000000
_cell_angle_beta 90.000000
_cell_angle_gamma 90.000000
_cell_volume 2521.358349
_symmetry_space_group_name_H-M "P B C N"
_symmetry_group_IT_number 60
_symmetry_cell_setting 'orthorhombic'
loop_
_space_group_symop_operation_xyz
x,y,z
1/2-x,1/2-y,1/2+z
1/2+x,1/2-y,-z
-x,y,1/2-z
-x,-y,-z
1/2+x,1/2+y,1/2-z
1/2-x,1/2+y,z
x,-y,1/2+z
loop_
_atom_site_type_symbol
_atom_site_label
_atom_site_fract_x
_atom_site_fract_y
_atom_site_fract_z
Si Si1 0.393386 0.382894 0.979811
Si Si2 0.500000 0.164110 0.750000
Si Si3 0.153412 0.788473 0.255167
Si Si4 0.692372 0.907379 0.227273
Si Si5 0.778790 0.157797 0.286954
Si Si6 0.556091 0.710637 0.456873
Si Si7 0.267428 0.506290 0.033514
O O1 0.382360 0.334078 0.121350
O O2 0.364995 0.469646 0.004020
O O3 0.321561 0.354395 0.865692
O O4 0.492873 0.362007 0.930217
O O5 0.410240 0.116325 0.770142
O O6 0.492290 0.218064 0.613279
O O7 0.241690 0.836350 0.301178
O O8 0.187956 0.705065 0.218904
O O9 0.083117 0.785175 0.381135
O O10 0.716786 0.941833 0.378745
O O11 0.718710 0.968192 0.108349
O O12 0.851261 0.204982 0.374020
O O13 0.771315 0.078895 0.367110
#
# Coordination Sequence:
#
# PCOD9458448 Si02
#       7
#     8   4   8   8   8   8   8
#     4  11  24  43  62 102 143 173 230 283 343 411
#     4  12  26  42  74 102 140 172 238 298 336 408
#     4  11  24  41  70  97 135 179 230 284 338 419
#     4  11  24  46  67  99 137 181 232 280 349 415
#     4  12  22  42  70  96 131 184 230 274 345 413
#     4  12  23  42  70 106 131 178 228 292 344 396
#     4  11  25  43  70  99 137 193 226 277 354 430
#
# _framework density 20.623804
#
# number of rings (size 3 to 8) (size 9 to 14) (size 15 to 20)
#    0.000    0.615    6.154    1.385    4.308    1.231 
#    0.000    1.538    0.000    0.000    0.000    0.000 
#    0.000    0.000    0.000    0.000    0.000    0.000 
#
# Total GULP energy -290659.120953 kJ/mol
# GULP energy per Si atom -5589.598480 kJ/mol
# Density = 2.057686 g / cm^3
# Si number density = 20.623804 Si / 1000 Ang^3
#
#
#
# Elastic Constant Matrix: (Units=GPa)
#
#
# Indices 1 2 3 4 5 6 
#
# 1 82.3743 15.5557 10.3786 0.0000 0.0000 0.0000
# 2 15.5557 63.6627 11.5287 0.0000 0.0000 0.0000
# 3 10.3786 11.5287 114.1184 0.0000 0.0000 0.0000
# 4 0.0000 0.0000 0.0000 26.3809 0.0000 0.0000
# 5 0.0000 0.0000 0.0000 0.0000 22.1582 0.0000
# 6 0.0000 0.0000 0.0000 0.0000 0.0000 35.8654
#
#
#
# Elastic Compliance Matrix: (Units=1/GPa)
#
#
# Indices 1 2 3 4 5 6 
#
# 1 0.012810 -0.002974 -0.000865 0.000000 0.000000 0.000000
# 2 -0.002974 0.016691 -0.001416 0.000000 0.000000 0.000000
# 3 -0.000865 -0.001416 0.008984 0.000000 0.000000 0.000000
# 4 0.000000 0.000000 0.000000 0.037906 0.000000 0.000000
# 5 0.000000 0.000000 0.000000 0.000000 0.045130 0.000000
# 6 0.000000 0.000000 0.000000 0.000000 0.000000 0.027882
#
#
# Mechanical properties :
#
#
# Convention : Reuss Voigt Hill
#
# Bulk Modulus (GPa) = 35.74288 37.23126 36.48707
# Shear Modulus (GPa) = 29.54432 31.72707 30.63569
#
# Velocity S-wave (km/s) = 3.78899 3.92646 3.85834
# Velocity P-wave (km/s) = 6.04239 6.21674 6.13019
#
# Compressibility (1/GPa) = 0.02797760
#
# Stress axis : x y z
#
# Youngs Moduli (GPa) = 78.06299 59.91345 111.30295
#
# Poissons Ratio (x) = 0.17815 0.09624
# Poissons Ratio (y) = 0.23212 0.15757
# Poissons Ratio (z) = 0.06750 0.08482
#
# Static dielectric constant tensor:
#      x y z
#    x 1.709340 0.000000 0.000000 
#    y 0.000000 1.768330 0.000000 
#    z 0.000000 0.000000 1.752080 
# 
# From -- ./inp_files/6103.got.cif
#   From: 2010.05.17/outbox.cif.g08.bks.cpg/sg60_4_cif.got.tgz:6103.got - 2010.06.03 14:59:27.
