data_PCOD9458468
_publ_section_title
;
Structure prediction by ZEFSAII (Michael W. Deem and Ramdas Pophale) SiO2 
 PCOD9458468
Probable space group: P B C N
;
_chemical_formula_sum "Si O2"
_cell_formula_units_Z 36
_cell_length_a 7.350225
_cell_length_b 30.530840
_cell_length_c 6.957694
_cell_angle_alpha 90.000000
_cell_angle_beta 90.000000
_cell_angle_gamma 90.000000
_cell_volume 1561.365976
_symmetry_space_group_name_H-M "P B C N"
_symmetry_group_IT_number 60
_symmetry_cell_setting 'orthorhombic'
loop_
_space_group_symop_operation_xyz
x,y,z
1/2-x,1/2-y,1/2+z
1/2+x,1/2-y,-z
-x,y,1/2-z
-x,-y,-z
1/2+x,1/2+y,1/2-z
1/2-x,1/2+y,z
x,-y,1/2+z
loop_
_atom_site_type_symbol
_atom_site_label
_atom_site_fract_x
_atom_site_fract_y
_atom_site_fract_z
Si Si1 0.272588 0.458321 0.439328
Si Si2 0.369095 0.796236 0.435504
Si Si3 0.000000 0.227664 0.750000
Si Si4 0.489911 0.112050 0.516905
Si Si5 0.174031 0.942713 0.989927
O O1 0.111776 0.430292 0.528034
O O2 0.244948 0.510324 0.428626
O O3 0.459559 0.446516 0.547754
O O4 0.302657 0.443837 0.220807
O O5 0.500000 0.789232 0.250000
O O6 0.162731 0.798208 0.355952
O O7 0.402538 0.757651 0.588055
O O8 0.427089 0.841533 0.537129
O O9 0.500000 0.114688 0.750000
O O10 0.290244 0.100040 0.438504
#
# Coordination Sequence:
#
# PCOD9458468 Si02
#       5
#     8   8   4   8   8
#     4   9  17  31  51  76 110 158 195 246 302 369
#     4  11  24  43  70  98 132 169 222 277 345 411
#     4  12  24  46  72  98 130 176 216 278 346 420
#     4   9  19  34  54  84 113 156 201 255 313 385
#     4   9  17  31  51  75 114 152 203 241 306 367
#
# _framework density 23.056736000000001
#
# number of rings (size 3 to 8) (size 9 to 14) (size 15 to 20)
#    0.000    2.222    2.222    0.667    0.000    5.333 
#    4.000    0.000    0.000    0.000    0.000    0.000 
#    0.000    0.000    0.000    0.000    0.000    0.000 
#
# Total GULP energy -201042.239311 kJ/mol
# GULP energy per Si atom -5584.506648 kJ/mol
# Density = 2.300426 g / cm^3
# Si number density = 23.056736 Si / 1000 Ang^3
#
#
#
# Elastic Constant Matrix: (Units=GPa)
#
#
# Indices 1 2 3 4 5 6 
#
# 1 109.0644 55.0058 5.4805 0.0000 0.0000 0.0000
# 2 55.0058 97.6895 -8.8456 0.0000 0.0000 0.0000
# 3 5.4805 -8.8456 72.9476 0.0000 0.0000 0.0000
# 4 0.0000 0.0000 0.0000 20.1662 0.0000 0.0000
# 5 0.0000 0.0000 0.0000 0.0000 18.5556 0.0000
# 6 0.0000 0.0000 0.0000 0.0000 0.0000 68.1789
#
#
#
# Elastic Compliance Matrix: (Units=1/GPa)
#
#
# Indices 1 2 3 4 5 6 
#
# 1 0.013059 -0.007525 -0.001894 0.000000 0.000000 0.000000
# 2 -0.007525 0.014686 0.002346 0.000000 0.000000 0.000000
# 3 -0.001894 0.002346 0.014135 0.000000 0.000000 0.000000
# 4 0.000000 0.000000 0.000000 0.049588 0.000000 0.000000
# 5 0.000000 0.000000 0.000000 0.000000 0.053892 0.000000
# 6 0.000000 0.000000 0.000000 0.000000 0.000000 0.014667
#
#
# Mechanical properties :
#
#
# Convention : Reuss Voigt Hill
#
# Bulk Modulus (GPa) = 36.05417 42.55364 39.30391
# Shear Modulus (GPa) = 27.26033 36.58419 31.92226
#
# Velocity S-wave (km/s) = 3.44221 3.98767 3.72494
# Velocity P-wave (km/s) = 5.60977 6.30064 5.96522
#
# Compressibility (1/GPa) = 0.02773604
#
# Stress axis : x y z
#
# Youngs Moduli (GPa) = 76.57550 68.09306 70.74523
#
# Poissons Ratio (x) = 0.51237 0.13396
# Poissons Ratio (y) = 0.57620 -0.16598
# Poissons Ratio (z) = 0.14500 -0.15975
#
# Static dielectric constant tensor:
#      x y z
#    x 1.898970 0.000000 0.000000 
#    y 0.000000 1.833400 0.000000 
#    z 0.000000 0.000000 1.938920 
# 
# From -- ./inp_files/3952.got.cif
#   From: 2010.05.17/outbox.cif.g08.bks.cpg/sg60_2_cif.got.tgz:3952.got - 2010.06.03 14:59:27.
