data_PCOD9458153
_publ_section_title
;
Structure prediction by ZEFSAII (Michael W. Deem and Ramdas Pophale) SiO2 
 PCOD9458153
Probable space group: P B C N
;
_chemical_formula_sum "Si O2"
_cell_formula_units_Z 56
_cell_length_a 17.935606
_cell_length_b 13.794046
_cell_length_c 8.942667
_cell_angle_alpha 90.000000
_cell_angle_beta 90.000000
_cell_angle_gamma 90.000000
_cell_volume 2212.456721
_symmetry_space_group_name_H-M "P B C N"
_symmetry_group_IT_number 60
_symmetry_cell_setting 'orthorhombic'
loop_
_space_group_symop_operation_xyz
x,y,z
1/2-x,1/2-y,1/2+z
1/2+x,1/2-y,-z
-x,y,1/2-z
-x,-y,-z
1/2+x,1/2+y,1/2-z
1/2-x,1/2+y,z
x,-y,1/2+z
loop_
_atom_site_type_symbol
_atom_site_label
_atom_site_fract_x
_atom_site_fract_y
_atom_site_fract_z
Si Si1 0.500000 0.942394 0.750000
Si Si2 0.644867 0.752589 0.432432
Si Si3 0.000000 0.102883 0.750000
Si Si4 0.366619 0.450536 0.440123
Si Si5 0.078925 0.723991 0.067512
Si Si6 0.261142 0.469035 0.182972
Si Si7 0.396646 0.116331 0.762416
Si Si8 0.776913 0.690683 0.239576
O O1 0.438305 0.018124 0.807643
O O2 0.463935 0.868963 0.634147
O O3 0.616537 0.645015 0.465420
O O4 0.576804 0.820503 0.380992
O O5 0.701730 0.740996 0.294206
O O6 0.690713 0.790810 0.575218
O O7 0.940772 0.035356 0.660020
O O8 0.961557 0.177483 0.870914
O O9 0.304697 0.420782 0.319085
O O10 0.320281 0.525574 0.544895
O O11 0.158743 0.724761 0.149050
O O12 0.096773 0.691222 0.899122
O O13 0.179794 0.422784 0.184290
O O14 0.242467 0.579064 0.228965
#
# Coordination Sequence:
#
# PCOD9458153 Si02
#       8
#     4   8   4   8   8   8   8   8
#     4  11  26  40  68 105 154 188 240 299 386 456
#     4  11  24  40  69 105 142 185 245 309 376 443
#     4  11  26  48  76 101 156 200 256 309 396 456
#     4  11  25  48  72 104 141 195 251 325 373 457
#     4  11  24  45  70 106 148 199 235 306 380 468
#     4  11  24  44  73 103 143 189 261 312 381 441
#     4  12  25  41  71 106 145 192 245 307 378 466
#     4  11  21  42  69 100 140 184 241 310 371 445
#
# _framework density 25.311228
#
# number of rings (size 3 to 8) (size 9 to 14) (size 15 to 20)
#    0.000    0.857    2.857    4.714    4.000    0.571 
#    5.143    0.000    0.000    0.000    0.000    0.000 
#    0.000    0.000    0.000    0.000    0.000    0.000 
#
# Total GULP energy -312521.777159 kJ/mol
# GULP energy per Si atom -5580.746021 kJ/mol
# Density = 2.525362 g / cm^3
# Si number density = 25.311228 Si / 1000 Ang^3
#
#
#
# Elastic Constant Matrix: (Units=GPa)
#
#
# Indices 1 2 3 4 5 6 
#
# 1 110.1318 13.2160 47.5087 0.0000 0.0000 0.0000
# 2 13.2160 48.7329 -2.9993 0.0000 0.0000 0.0000
# 3 47.5087 -2.9993 104.4243 0.0000 0.0000 0.0000
# 4 0.0000 0.0000 0.0000 35.6241 0.0000 0.0000
# 5 0.0000 0.0000 0.0000 0.0000 41.1449 0.0000
# 6 0.0000 0.0000 0.0000 0.0000 0.0000 23.3298
#
#
#
# Elastic Compliance Matrix: (Units=1/GPa)
#
#
# Indices 1 2 3 4 5 6 
#
# 1 0.011884 -0.003562 -0.005509 0.000000 0.000000 0.000000
# 2 -0.003562 0.021624 0.002242 0.000000 0.000000 0.000000
# 3 -0.005509 0.002242 0.012147 0.000000 0.000000 0.000000
# 4 0.000000 0.000000 0.000000 0.028071 0.000000 0.000000
# 5 0.000000 0.000000 0.000000 0.000000 0.024304 0.000000
# 6 0.000000 0.000000 0.000000 0.000000 0.000000 0.042864
#
#
# Mechanical properties :
#
#
# Convention : Reuss Voigt Hill
#
# Bulk Modulus (GPa) = 31.25356 42.08221 36.66789
# Shear Modulus (GPa) = 30.26305 33.72397 31.99351
#
# Velocity S-wave (km/s) = 3.46155 3.65413 3.55914
# Velocity P-wave (km/s) = 5.32456 5.87073 5.60431
#
# Compressibility (1/GPa) = 0.03199635
#
# Stress axis : x y z
#
# Youngs Moduli (GPa) = 84.14716 46.24502 82.32439
#
# Poissons Ratio (x) = 0.16472 0.45353
# Poissons Ratio (y) = 0.29972 -0.18454
# Poissons Ratio (z) = 0.46357 -0.10366
#
# Static dielectric constant tensor:
#      x y z
#    x 2.058480 0.000000 0.000000 
#    y 0.000000 2.087460 0.000000 
#    z 0.000000 0.000000 2.035410 
# 
# From -- ./inp_files/7461.got.cif
#   From: 2010.05.17/outbox.cif.g08.bks.cpg/sg60_4_cif.got.tgz:7461.got - 2010.06.03 14:59:27.
