data_PCOD9458606
_publ_section_title
;
Structure prediction by ZEFSAII (Michael W. Deem and Ramdas Pophale) SiO2 
 PCOD9458606
Probable space group: P B C N
;
_chemical_formula_sum "Si O2"
_cell_formula_units_Z 40
_cell_length_a 5.399665
_cell_length_b 9.493975
_cell_length_c 28.153031
_cell_angle_alpha 90.000000
_cell_angle_beta 90.000000
_cell_angle_gamma 90.000000
_cell_volume 1443.244991
_symmetry_space_group_name_H-M "P B C N"
_symmetry_group_IT_number 60
_symmetry_cell_setting 'orthorhombic'
loop_
_space_group_symop_operation_xyz
x,y,z
1/2-x,1/2-y,1/2+z
1/2+x,1/2-y,-z
-x,y,1/2-z
-x,-y,-z
1/2+x,1/2+y,1/2-z
1/2-x,1/2+y,z
x,-y,1/2+z
loop_
_atom_site_type_symbol
_atom_site_label
_atom_site_fract_x
_atom_site_fract_y
_atom_site_fract_z
Si Si1 0.780791 0.594629 0.836157
Si Si2 0.500000 0.000000 0.500000
Si Si3 0.272370 0.761867 0.938570
Si Si4 0.500000 0.659921 0.750000
Si Si5 0.550783 0.497209 0.434601
Si Si6 0.450643 0.835312 0.835351
O O1 0.666203 0.566154 0.784322
O O2 0.625408 0.536123 0.880875
O O3 0.728197 0.762431 0.838619
O O4 0.029607 0.503512 0.836888
O O5 0.017826 0.156801 0.444538
O O6 0.525830 0.852476 0.533696
O O7 0.301167 0.595599 0.949114
O O8 0.318008 0.783556 0.882403
O O9 0.271408 0.945659 0.033588
O O10 0.357005 0.763490 0.786972
#
# Coordination Sequence:
#
# PCOD9458606 Si02
#       6
#     8   4   8   4   8   8
#     4   9  19  41  65  99 145 199 255 322 390 480
#     4  12  26  48  76 108 150 210 256 336 400 478
#     4  11  26  45  73 109 152 199 265 334 402 483
#     4   8  20  36  66 100 152 188 258 318 392 472
#     4  11  26  47  75 109 155 206 265 334 408 480
#     4   9  19  41  65  95 145 197 250 318 393 471
#
# _framework density 27.715323000000001
#
# number of rings (size 3 to 8) (size 9 to 14) (size 15 to 20)
#    1.200    0.800    2.000    0.600    2.800    4.800 
#    0.000    1.000    0.000    0.000    0.000    0.000 
#    0.000    0.000    0.000    0.000    0.000    0.000 
#
# Total GULP energy -222842.240308 kJ/mol
# GULP energy per Si atom -5571.056008 kJ/mol
# Density = 2.765224 g / cm^3
# Si number density = 27.715323 Si / 1000 Ang^3
#
#
#
# Elastic Constant Matrix: (Units=GPa)
#
#
# Indices 1 2 3 4 5 6 
#
# 1 85.7997 50.2471 24.4007 0.0000 0.0000 0.0000
# 2 50.2471 123.1800 75.3849 0.0000 0.0000 0.0000
# 3 24.4007 75.3849 165.3177 0.0000 0.0000 0.0000
# 4 0.0000 0.0000 0.0000 42.2461 0.0000 0.0000
# 5 0.0000 0.0000 0.0000 0.0000 25.4865 0.0000
# 6 0.0000 0.0000 0.0000 0.0000 0.0000 35.3374
#
#
#
# Elastic Compliance Matrix: (Units=1/GPa)
#
#
# Indices 1 2 3 4 5 6 
#
# 1 0.015393 -0.006781 0.000820 0.000000 0.000000 0.000000
# 2 -0.006781 0.014248 -0.005496 0.000000 0.000000 0.000000
# 3 0.000820 -0.005496 0.008434 0.000000 0.000000 0.000000
# 4 0.000000 0.000000 0.000000 0.023671 0.000000 0.000000
# 5 0.000000 0.000000 0.000000 0.000000 0.039236 0.000000
# 6 0.000000 0.000000 0.000000 0.000000 0.000000 0.028299
#
#
# Mechanical properties :
#
#
# Convention : Reuss Voigt Hill
#
# Bulk Modulus (GPa) = 65.95867 74.92921 70.44394
# Shear Modulus (GPa) = 31.79680 35.56498 33.68089
#
# Velocity S-wave (km/s) = 3.39080 3.58610 3.48982
# Velocity P-wave (km/s) = 6.25942 6.65138 6.45837
#
# Compressibility (1/GPa) = 0.01516101
#
# Stress axis : x y z
#
# Youngs Moduli (GPa) = 64.96478 70.18606 118.56549
#
# Poissons Ratio (x) = 0.47593 -0.09724
# Poissons Ratio (y) = 0.44052 0.65165
# Poissons Ratio (z) = -0.05328 0.38575
#
# Static dielectric constant tensor:
#      x y z
#    x 2.040100 0.000000 0.000000 
#    y 0.000000 2.018430 0.000000 
#    z 0.000000 0.000000 1.987030 
# 
# From -- ./inp_files/25623.got.cif
#   From: 2010.05.17/outbox.cif.g08.bks.cpg/sg60_13_cif.got.tgz:25623.got - 2010.06.03 14:59:27.
