data_PCOD9458025
_publ_section_title
;
Structure prediction by ZEFSAII (Michael W. Deem and Ramdas Pophale) SiO2 
 PCOD9458025
Probable space group: P B C N
;
_chemical_formula_sum "Si O2"
_cell_formula_units_Z 48
_cell_length_a 19.044363
_cell_length_b 33.781089
_cell_length_c 5.076891
_cell_angle_alpha 90.000000
_cell_angle_beta 90.000000
_cell_angle_gamma 90.000000
_cell_volume 3266.163611
_symmetry_space_group_name_H-M "P B C N"
_symmetry_group_IT_number 60
_symmetry_cell_setting 'orthorhombic'
loop_
_space_group_symop_operation_xyz
x,y,z
1/2-x,1/2-y,1/2+z
1/2+x,1/2-y,-z
-x,y,1/2-z
-x,-y,-z
1/2+x,1/2+y,1/2-z
1/2-x,1/2+y,z
x,-y,1/2+z
loop_
_atom_site_type_symbol
_atom_site_label
_atom_site_fract_x
_atom_site_fract_y
_atom_site_fract_z
Si Si1 0.424734 0.891060 0.391034
Si Si2 0.452122 0.226576 0.494700
Si Si3 0.634163 0.851095 0.582152
Si Si4 0.580369 0.982533 0.173541
Si Si5 0.763574 0.803353 0.742763
Si Si6 0.831701 0.776519 0.237918
O O1 0.500000 0.881570 0.250000
O O2 0.407597 0.867867 0.661323
O O3 0.422392 0.938130 0.434950
O O4 0.369698 0.880753 0.161676
O O5 0.500000 0.214729 0.250000
O O6 0.401431 0.188981 0.535778
O O7 0.405417 0.262875 0.385506
O O8 0.500000 0.234308 0.750000
O O9 0.712066 0.838777 0.667741
O O10 0.500000 0.993940 0.250000
O O11 0.613875 0.988430 0.459883
O O12 0.795113 0.805801 0.032249
O O13 0.714020 0.764076 0.744535
O O14 0.824083 0.794480 0.528199
#
# Coordination Sequence:
#
# PCOD9458025 Si02
#       6
#     8   8   8   8   8   8
#     4  11  20  29  41  58  79 100 124 159 206 248
#     4  11  20  29  41  58  79  99 122 157 204 247
#     4  11  20  29  41  58  79 100 124 159 205 247
#     4   9  17  29  42  54  70  96 128 157 188 231
#     4   9  17  29  42  54  70  96 128 156 186 229
#     4   9  17  29  42  54  70  96 127 155 186 229
#
# _framework density 14.696139000000001
#
# number of rings (size 3 to 8) (size 9 to 14) (size 15 to 20)
#    0.000    2.000    0.000    6.000    0.000    8.000 
#    0.000    0.000    0.000    0.000    0.000    0.000 
#    0.000    0.000    0.000    0.000    0.000    0.000 
#
# Total GULP energy -267315.359607 kJ/mol
# GULP energy per Si atom -5569.069992 kJ/mol
# Density = 1.466269 g / cm^3
# Si number density = 14.696139 Si / 1000 Ang^3
#
#
#
# Elastic Constant Matrix: (Units=GPa)
#
#
# Indices 1 2 3 4 5 6 
#
# 1 12.1401 5.8896 -8.3286 0.0000 0.0000 0.0000
# 2 5.8896 28.7561 1.1538 0.0000 0.0000 0.0000
# 3 -8.3286 1.1538 60.6987 0.0000 0.0000 0.0000
# 4 0.0000 0.0000 0.0000 21.3760 0.0000 0.0000
# 5 0.0000 0.0000 0.0000 0.0000 13.6795 0.0000
# 6 0.0000 0.0000 0.0000 0.0000 0.0000 11.1152
#
#
#
# Elastic Compliance Matrix: (Units=1/GPa)
#
#
# Indices 1 2 3 4 5 6 
#
# 1 0.102835 -0.021644 0.014522 0.000000 0.000000 0.000000
# 2 -0.021644 0.039357 -0.003718 0.000000 0.000000 0.000000
# 3 0.014522 -0.003718 0.018538 0.000000 0.000000 0.000000
# 4 0.000000 0.000000 0.000000 0.046781 0.000000 0.000000
# 5 0.000000 0.000000 0.000000 0.000000 0.073102 0.000000
# 6 0.000000 0.000000 0.000000 0.000000 0.000000 0.089967
#
#
# Mechanical properties :
#
#
# Convention : Reuss Voigt Hill
#
# Bulk Modulus (GPa) = 7.19174 11.00273 9.09723
# Shear Modulus (GPa) = 11.39961 16.09282 13.74622
#
# Velocity S-wave (km/s) = 2.78814 3.31272 3.06169
# Velocity P-wave (km/s) = 3.90758 4.70481 4.32461
#
# Compressibility (1/GPa) = 0.13904841
#
# Stress axis : x y z
#
# Youngs Moduli (GPa) = 9.72435 25.40816 53.94320
#
# Poissons Ratio (x) = 0.54994 -0.78334
# Poissons Ratio (y) = 0.21048 0.20056
# Poissons Ratio (z) = -0.14121 0.09447
#
# Static dielectric constant tensor:
#      x y z
#    x 1.494460 0.000000 0.000000 
#    y 0.000000 1.481480 0.000000 
#    z 0.000000 0.000000 1.549970 
# 
# From -- ./inp_files/1863.got.cif
#   From: 2010.05.17/outbox.cif.g08.bks.cpg/sg60_1_cif.got.tgz:1863.got - 2010.06.03 14:59:27.
