data_PCOD9458104
_publ_section_title
;
Structure prediction by ZEFSAII (Michael W. Deem and Ramdas Pophale) SiO2 
 PCOD9458104
Probable space group: P B C N
;
_chemical_formula_sum "Si O2"
_cell_formula_units_Z 44
_cell_length_a 13.869861
_cell_length_b 18.673956
_cell_length_c 8.220636
_cell_angle_alpha 90.000000
_cell_angle_beta 90.000000
_cell_angle_gamma 90.000000
_cell_volume 2129.187258
_symmetry_space_group_name_H-M "P B C N"
_symmetry_group_IT_number 60
_symmetry_cell_setting 'orthorhombic'
loop_
_space_group_symop_operation_xyz
x,y,z
1/2-x,1/2-y,1/2+z
1/2+x,1/2-y,-z
-x,y,1/2-z
-x,-y,-z
1/2+x,1/2+y,1/2-z
1/2-x,1/2+y,z
x,-y,1/2+z
loop_
_atom_site_type_symbol
_atom_site_label
_atom_site_fract_x
_atom_site_fract_y
_atom_site_fract_z
Si Si1 0.705955 0.062400 0.351506
Si Si2 0.500000 0.284601 0.250000
Si Si3 0.680652 0.905147 0.483959
Si Si4 0.962717 0.655717 0.487295
Si Si5 0.323549 0.787033 0.250488
Si Si6 0.336398 0.675281 0.981627
O O1 0.722228 0.081366 0.163039
O O2 0.604816 0.098159 0.400665
O O3 0.785572 0.101856 0.463589
O O4 0.693304 0.978933 0.386594
O O5 0.542980 0.228254 0.381086
O O6 0.575026 0.329456 0.142372
O O7 0.570014 0.876487 0.502994
O O8 0.725039 0.843406 0.373151
O O9 0.911104 0.674645 0.656384
O O10 0.242410 0.775948 0.386319
O O11 0.358159 0.719607 0.146181
#
# Coordination Sequence:
#
# PCOD9458104 Si02
#       6
#     8   4   8   8   8   8
#     4  11  23  38  60  90 134 173 215 263 343 402
#     4  12  22  40  62  92 132 166 232 270 322 380
#     4  12  22  39  61  94 130 171 215 274 330 415
#     4  11  21  37  60  96 126 171 208 271 335 406
#     4  11  22  39  62  89 131 170 222 266 345 391
#     4  11  23  39  61  91 127 181 220 278 318 393
#
# _framework density 20.665161000000001
#
# number of rings (size 3 to 8) (size 9 to 14) (size 15 to 20)
#    0.000    0.727    3.636    6.545    0.000    1.455 
#    0.000    0.000    0.000    4.364    0.000    0.000 
#    0.000    0.000    0.000    0.000    0.000    0.000 
#
# Total GULP energy -245729.000300 kJ/mol
# GULP energy per Si atom -5584.750007 kJ/mol
# Density = 2.061813 g / cm^3
# Si number density = 20.665161 Si / 1000 Ang^3
#
#
#
# Elastic Constant Matrix: (Units=GPa)
#
#
# Indices 1 2 3 4 5 6 
#
# 1 42.8336 17.9869 26.4287 0.0000 0.0000 0.0000
# 2 17.9869 71.5969 25.9304 0.0000 0.0000 0.0000
# 3 26.4287 25.9304 119.4358 0.0000 0.0000 0.0000
# 4 0.0000 0.0000 0.0000 34.5702 0.0000 0.0000
# 5 0.0000 0.0000 0.0000 0.0000 31.3552 0.0000
# 6 0.0000 0.0000 0.0000 0.0000 0.0000 9.4654
#
#
#
# Elastic Compliance Matrix: (Units=1/GPa)
#
#
# Indices 1 2 3 4 5 6 
#
# 1 0.028809 -0.005349 -0.005214 0.000000 0.000000 0.000000
# 2 -0.005349 0.016152 -0.002323 0.000000 0.000000 0.000000
# 3 -0.005214 -0.002323 0.010031 0.000000 0.000000 0.000000
# 4 0.000000 0.000000 0.000000 0.028927 0.000000 0.000000
# 5 0.000000 0.000000 0.000000 0.000000 0.031893 0.000000
# 6 0.000000 0.000000 0.000000 0.000000 0.000000 0.105648
#
#
# Mechanical properties :
#
#
# Convention : Reuss Voigt Hill
#
# Bulk Modulus (GPa) = 34.22276 41.61760 37.92018
# Shear Modulus (GPa) = 19.45742 25.97951 22.71846
#
# Velocity S-wave (km/s) = 3.07181 3.54950 3.31926
# Velocity P-wave (km/s) = 5.40166 6.08123 5.75149
#
# Compressibility (1/GPa) = 0.02922032
#
# Stress axis : x y z
#
# Youngs Moduli (GPa) = 34.71098 61.91049 99.69394
#
# Poissons Ratio (x) = 0.33119 0.51976
# Poissons Ratio (y) = 0.18568 0.23160
# Poissons Ratio (z) = 0.18097 0.14382
#
# Static dielectric constant tensor:
#      x y z
#    x 1.773480 0.000000 0.000000 
#    y 0.000000 1.707660 0.000000 
#    z 0.000000 0.000000 1.831820 
# 
# From -- ./inp_files/5821.got.cif
#   From: 2010.05.17/outbox.cif.g08.bks.cpg/sg60_3_cif.got.tgz:5821.got - 2010.06.03 14:59:27.
