data_PCOD9458145
_publ_section_title
;
Structure prediction by ZEFSAII (Michael W. Deem and Ramdas Pophale) SiO2 
 PCOD9458145
Probable space group: P B C N
;
_chemical_formula_sum "Si O2"
_cell_formula_units_Z 48
_cell_length_a 13.543210
_cell_length_b 11.413727
_cell_length_c 12.622840
_cell_angle_alpha 90.000000
_cell_angle_beta 90.000000
_cell_angle_gamma 90.000000
_cell_volume 1951.219694
_symmetry_space_group_name_H-M "P B C N"
_symmetry_group_IT_number 60
_symmetry_cell_setting 'orthorhombic'
loop_
_space_group_symop_operation_xyz
x,y,z
1/2-x,1/2-y,1/2+z
1/2+x,1/2-y,-z
-x,y,1/2-z
-x,-y,-z
1/2+x,1/2+y,1/2-z
1/2-x,1/2+y,z
x,-y,1/2+z
loop_
_atom_site_type_symbol
_atom_site_label
_atom_site_fract_x
_atom_site_fract_y
_atom_site_fract_z
Si Si1 0.756029 0.512659 0.880373
Si Si2 0.096692 0.495303 0.929132
Si Si3 0.137419 0.257373 0.371032
Si Si4 0.674713 0.273268 0.846175
Si Si5 0.628891 0.742186 0.593440
Si Si6 0.049837 0.896231 0.063146
O O1 0.759379 0.375553 0.845456
O O2 0.800090 0.634093 0.833694
O O3 0.641197 0.545606 0.877673
O O4 0.805633 0.506622 0.996774
O O5 0.093349 0.613654 0.865541
O O6 0.099912 0.372493 0.871420
O O7 0.000000 0.500000 0.000000
O O8 0.115288 0.195361 0.259976
O O9 0.256705 0.272283 0.377764
O O10 0.098711 0.193677 0.477018
O O11 0.628257 0.274146 0.963989
O O12 0.539266 0.660802 0.628703
O O13 0.000000 0.000000 0.000000
#
# Coordination Sequence:
#
# PCOD9458145 Si02
#       6
#     8   8   8   8   8   8
#     4  11  23  46  66 100 142 184 227 304 340 419
#     4  11  21  41  70  95 133 180 227 277 356 414
#     4  12  25  44  72  99 136 185 229 285 359 421
#     4  11  25  43  71  99 143 179 235 294 348 413
#     4  11  24  44  67 100 135 183 229 291 347 419
#     4  12  22  42  73  96 136 184 231 279 358 417
#
# _framework density 24.599996000000001
#
# number of rings (size 3 to 8) (size 9 to 14) (size 15 to 20)
#    0.000    0.667    8.333    0.000    2.333    0.667 
#    0.000    2.500    0.000    0.000    0.000    0.000 
#    0.000    0.000    0.000    0.000    0.000    0.000 
#
# Total GULP energy -267800.254061 kJ/mol
# GULP energy per Si atom -5579.171960 kJ/mol
# Density = 2.454401 g / cm^3
# Si number density = 24.599996 Si / 1000 Ang^3
#
#
#
# Elastic Constant Matrix: (Units=GPa)
#
#
# Indices 1 2 3 4 5 6 
#
# 1 86.0494 -22.2876 14.0968 0.0000 0.0000 0.0000
# 2 -22.2876 131.9274 9.7594 0.0000 0.0000 0.0000
# 3 14.0968 9.7594 61.9043 0.0000 0.0000 0.0000
# 4 0.0000 0.0000 0.0000 15.6520 0.0000 0.0000
# 5 0.0000 0.0000 0.0000 0.0000 9.7253 0.0000
# 6 0.0000 0.0000 0.0000 0.0000 0.0000 43.5841
#
#
#
# Elastic Compliance Matrix: (Units=1/GPa)
#
#
# Indices 1 2 3 4 5 6 
#
# 1 0.012783 0.002403 -0.003290 0.000000 0.000000 0.000000
# 2 0.002403 0.008121 -0.001827 0.000000 0.000000 0.000000
# 3 -0.003290 -0.001827 0.017191 0.000000 0.000000 0.000000
# 4 0.000000 0.000000 0.000000 0.063889 0.000000 0.000000
# 5 0.000000 0.000000 0.000000 0.000000 0.102824 0.000000
# 6 0.000000 0.000000 0.000000 0.000000 0.000000 0.022944
#
#
# Mechanical properties :
#
#
# Convention : Reuss Voigt Hill
#
# Bulk Modulus (GPa) = 30.61274 31.44647 31.02960
# Shear Modulus (GPa) = 20.48592 32.34645 26.41619
#
# Velocity S-wave (km/s) = 2.88889 3.63008 3.28049
# Velocity P-wave (km/s) = 4.85786 5.51189 5.19518
#
# Compressibility (1/GPa) = 0.03266614
#
# Stress axis : x y z
#
# Youngs Moduli (GPa) = 78.23195 123.13690 58.16933
#
# Poissons Ratio (x) = -0.29587 0.19136
# Poissons Ratio (y) = -0.18798 0.10630
# Poissons Ratio (z) = 0.25735 0.22503
#
# Static dielectric constant tensor:
#      x y z
#    x 2.376100 0.000000 0.000000 
#    y 0.000000 1.974330 0.000000 
#    z 0.000000 0.000000 2.033930 
# 
# From -- ./inp_files/16762.got.cif
#   From: 2010.05.17/outbox.cif.g08.bks.cpg/sg60_9_cif.got.tgz:16762.got - 2010.06.03 14:59:27.
