data_PCOD9458707
_publ_section_title
;
Structure prediction by ZEFSAII (Michael W. Deem and Ramdas Pophale) SiO2 
 PCOD9458707
Probable space group: P B C N
;
_chemical_formula_sum "Si O2"
_cell_formula_units_Z 48
_cell_length_a 9.554366
_cell_length_b 17.784678
_cell_length_c 12.658600
_cell_angle_alpha 90.000000
_cell_angle_beta 90.000000
_cell_angle_gamma 90.000000
_cell_volume 2150.966057
_symmetry_space_group_name_H-M "P B C N"
_symmetry_group_IT_number 60
_symmetry_cell_setting 'orthorhombic'
loop_
_space_group_symop_operation_xyz
x,y,z
1/2-x,1/2-y,1/2+z
1/2+x,1/2-y,-z
-x,y,1/2-z
-x,-y,-z
1/2+x,1/2+y,1/2-z
1/2-x,1/2+y,z
x,-y,1/2+z
loop_
_atom_site_type_symbol
_atom_site_label
_atom_site_fract_x
_atom_site_fract_y
_atom_site_fract_z
Si Si1 0.957939 0.820553 0.523992
Si Si2 0.856600 0.846659 0.287390
Si Si3 0.995737 0.655138 0.008585
Si Si4 0.793742 0.314517 0.687986
Si Si5 0.380000 0.955685 0.167981
Si Si6 0.227235 0.896268 0.594895
O O1 0.883664 0.829966 0.410851
O O2 0.036759 0.740135 0.526682
O O3 0.836961 0.816230 0.609789
O O4 0.072340 0.884310 0.549687
O O5 0.837291 0.769208 0.223554
O O6 0.724625 0.899584 0.271546
O O7 0.000000 0.884605 0.250000
O O8 0.161397 0.645768 0.020413
O O9 0.921638 0.648025 0.123036
O O10 0.944438 0.593612 0.926515
O O11 0.743780 0.356953 0.791935
O O12 0.500000 0.981416 0.250000
O O13 0.287162 0.020650 0.114713
#
# Coordination Sequence:
#
# PCOD9458707 Si02
#       6
#     8   8   8   8   8   8
#     4  12  25  45  77 109 143 193 249 314 371 446
#     4  12  25  46  74 109 151 194 248 321 371 444
#     4  12  23  47  74 108 144 193 256 306 373 445
#     4  12  23  47  73 104 145 190 250 314 377 433
#     4  12  28  48  72 109 151 206 251 306 384 463
#     4  12  27  45  71 107 150 197 244 309 382 450
#
# _framework density 22.315555
#
# number of rings (size 3 to 8) (size 9 to 14) (size 15 to 20)
#    0.000    0.000    5.000    5.500    2.333    2.000 
#    0.000    0.000    0.000    0.000    0.000    0.000 
#    0.000    0.000    0.000    0.000    0.000    0.000 
#
# Total GULP energy -268851.332807 kJ/mol
# GULP energy per Si atom -5601.069433 kJ/mol
# Density = 2.226476 g / cm^3
# Si number density = 22.315555 Si / 1000 Ang^3
#
#
#
# Elastic Constant Matrix: (Units=GPa)
#
#
# Indices 1 2 3 4 5 6 
#
# 1 133.9468 24.4356 45.2920 0.0000 0.0000 0.0000
# 2 24.4356 76.2025 21.2257 0.0000 0.0000 0.0000
# 3 45.2920 21.2257 69.3417 0.0000 0.0000 0.0000
# 4 0.0000 0.0000 0.0000 -64.2810 0.0000 0.0000
# 5 0.0000 0.0000 0.0000 0.0000 51.8691 0.0000
# 6 0.0000 0.0000 0.0000 0.0000 0.0000 48.2876
#
#
#
# Elastic Compliance Matrix: (Units=1/GPa)
#
#
# Indices 1 2 3 4 5 6 
#
# 1 0.009731 -0.001476 -0.005905 0.000000 0.000000 0.000000
# 2 -0.001476 0.014570 -0.003496 0.000000 0.000000 0.000000
# 3 -0.005905 -0.003496 0.019348 0.000000 0.000000 0.000000
# 4 0.000000 0.000000 0.000000 -0.015557 0.000000 0.000000
# 5 0.000000 0.000000 0.000000 0.000000 0.019279 0.000000
# 6 0.000000 0.000000 0.000000 0.000000 0.000000 0.020709
#
#
# Mechanical properties :
#
#
# Convention : Reuss Voigt Hill
#
# Bulk Modulus (GPa) = 45.66861 51.26640 48.46751
# Shear Modulus (GPa) = 51.47591 19.74433 35.61012
#
# Velocity S-wave (km/s) = 4.80805 2.97775 3.99902
# Velocity P-wave (km/s) = 7.16467 5.90304 6.56424
#
# Compressibility (1/GPa) = 0.02189688
#
# Stress axis : x y z
#
# Youngs Moduli (GPa) = 102.76003 68.63444 51.68467
#
# Poissons Ratio (x) = 0.10130 0.30517
# Poissons Ratio (y) = 0.15166 0.18068
# Poissons Ratio (z) = 0.60675 0.23994
#
# Static dielectric constant tensor:
#      x y z
#    x 1.824610 0.000000 0.000000 
#    y 0.000000 1.830490 0.000000 
#    z 0.000000 0.000000 1.818370 
# 
# From -- ./inp_files/11032.got.cif
#   From: 2010.05.17/outbox.cif.g08.bks.cpg/sg60_6_cif.got.tgz:11032.got - 2010.06.03 14:59:27.
