data_PCOD9458290
_publ_section_title
;
Structure prediction by ZEFSAII (Michael W. Deem and Ramdas Pophale) SiO2 
 PCOD9458290
Probable space group: P B C N
;
_chemical_formula_sum "Si O2"
_cell_formula_units_Z 64
_cell_length_a 17.640919
_cell_length_b 11.172892
_cell_length_c 12.510141
_cell_angle_alpha 90.000000
_cell_angle_beta 90.000000
_cell_angle_gamma 90.000000
_cell_volume 2465.749827
_symmetry_space_group_name_H-M "P B C N"
_symmetry_group_IT_number 60
_symmetry_cell_setting 'orthorhombic'
loop_
_space_group_symop_operation_xyz
x,y,z
1/2-x,1/2-y,1/2+z
1/2+x,1/2-y,-z
-x,y,1/2-z
-x,-y,-z
1/2+x,1/2+y,1/2-z
1/2-x,1/2+y,z
x,-y,1/2+z
loop_
_atom_site_type_symbol
_atom_site_label
_atom_site_fract_x
_atom_site_fract_y
_atom_site_fract_z
Si Si1 0.408760 0.134656 0.238586
Si Si2 0.211270 0.513804 0.681857
Si Si3 0.542333 0.268156 0.562334
Si Si4 0.928511 0.880751 0.327166
Si Si5 0.712013 0.425914 0.010687
Si Si6 0.876887 0.523843 0.557080
Si Si7 0.148424 0.064925 0.303357
Si Si8 0.627222 0.208290 0.906137
O O1 0.500000 0.137048 0.250000
O O2 0.382363 0.271317 0.227987
O O3 0.358153 0.073747 0.146202
O O4 0.387009 0.039679 0.328052
O O5 0.266966 0.525743 0.578492
O O6 0.263876 0.437923 0.763945
O O7 0.172421 0.644272 0.691415
O O8 0.550977 0.339225 0.447878
O O9 0.562461 0.129087 0.543613
O O10 0.399218 0.673146 0.353231
O O11 0.456264 0.264599 0.605905
O O12 0.892145 0.007300 0.299375
O O13 0.000000 0.886190 0.250000
O O14 0.681513 0.306947 0.957098
O O15 0.794838 0.411730 0.061529
O O16 0.652760 0.472894 0.096997
O O17 0.883477 0.402350 0.487457
#
# Coordination Sequence:
#
# PCOD9458290 Si02
#       8
#     8   8   8   8   8   8   8   8
#     4  11  22  45  76 112 147 196 260 331 400 491
#     4  11  26  45  75 114 158 203 272 337 415 503
#     4  12  27  49  81 117 165 217 280 347 430 508
#     4  11  25  46  78 111 158 213 268 333 415 500
#     4  11  25  45  74 109 156 213 264 341 424 503
#     4  11  24  44  78 110 153 205 271 338 421 496
#     4  12  27  46  74 114 163 212 270 341 412 507
#     4  11  25  48  75 113 156 209 268 339 417 505
#
# _framework density 25.955594000000001
#
# number of rings (size 3 to 8) (size 9 to 14) (size 15 to 20)
#    0.000    0.750    1.250    6.375    7.000    5.000 
#    0.000    1.875    0.000    0.000    0.000    0.000 
#    0.000    0.000    0.000    0.000    0.000    0.000 
#
# Total GULP energy -356814.219049 kJ/mol
# GULP energy per Si atom -5575.222173 kJ/mol
# Density = 2.589652 g / cm^3
# Si number density = 25.955594 Si / 1000 Ang^3
#
#
#
# Elastic Constant Matrix: (Units=GPa)
#
#
# Indices 1 2 3 4 5 6 
#
# 1 150.6445 85.1686 48.2444 0.0000 0.0000 0.0000
# 2 85.1686 131.2636 58.6808 0.0000 0.0000 0.0000
# 3 48.2444 58.6808 85.3387 0.0000 0.0000 0.0000
# 4 0.0000 0.0000 0.0000 58.7010 0.0000 0.0000
# 5 0.0000 0.0000 0.0000 0.0000 44.3318 0.0000
# 6 0.0000 0.0000 0.0000 0.0000 0.0000 42.6530
#
#
#
# Elastic Compliance Matrix: (Units=1/GPa)
#
#
# Indices 1 2 3 4 5 6 
#
# 1 0.010680 -0.006108 -0.001838 0.000000 0.000000 0.000000
# 2 -0.006108 0.014493 -0.006513 0.000000 0.000000 0.000000
# 3 -0.001838 -0.006513 0.017235 0.000000 0.000000 0.000000
# 4 0.000000 0.000000 0.000000 0.017035 0.000000 0.000000
# 5 0.000000 0.000000 0.000000 0.000000 0.022557 0.000000
# 6 0.000000 0.000000 0.000000 0.000000 0.000000 0.023445
#
#
# Mechanical properties :
#
#
# Convention : Reuss Voigt Hill
#
# Bulk Modulus (GPa) = 74.12155 83.49270 78.80713
# Shear Modulus (GPa) = 36.00783 40.81402 38.41092
#
# Velocity S-wave (km/s) = 3.72867 3.96972 3.85108
# Velocity P-wave (km/s) = 6.86705 7.29719 7.08538
#
# Compressibility (1/GPa) = 0.01349135
#
# Stress axis : x y z
#
# Youngs Moduli (GPa) = 93.63404 69.00017 58.02136
#
# Poissons Ratio (x) = 0.42145 0.10662
# Poissons Ratio (y) = 0.57191 0.37786
# Poissons Ratio (z) = 0.17207 0.44936
#
# Static dielectric constant tensor:
#      x y z
#    x 2.165900 0.000000 0.000000 
#    y 0.000000 2.018800 0.000000 
#    z 0.000000 0.000000 2.577610 
# 
# From -- ./inp_files/17475.got.cif
#   From: 2010.05.17/outbox.cif.g08.bks.cpg/sg60_9_cif.got.tgz:17475.got - 2010.06.03 14:59:27.
