data_PCOD9458572
_publ_section_title
;
Structure prediction by ZEFSAII (Michael W. Deem and Ramdas Pophale) SiO2 
 PCOD9458572
Probable space group: P B C N
;
_chemical_formula_sum "Si O2"
_cell_formula_units_Z 56
_cell_length_a 5.254686
_cell_length_b 32.237605
_cell_length_c 14.591614
_cell_angle_alpha 90.000000
_cell_angle_beta 90.000000
_cell_angle_gamma 90.000000
_cell_volume 2471.797403
_symmetry_space_group_name_H-M "P B C N"
_symmetry_group_IT_number 60
_symmetry_cell_setting 'orthorhombic'
loop_
_space_group_symop_operation_xyz
x,y,z
1/2-x,1/2-y,1/2+z
1/2+x,1/2-y,-z
-x,y,1/2-z
-x,-y,-z
1/2+x,1/2+y,1/2-z
1/2-x,1/2+y,z
x,-y,1/2+z
loop_
_atom_site_type_symbol
_atom_site_label
_atom_site_fract_x
_atom_site_fract_y
_atom_site_fract_z
Si Si1 0.500000 0.576850 0.750000
Si Si2 0.244868 0.271876 0.966080
Si Si3 0.747035 0.221777 0.698160
Si Si4 0.229344 0.981085 0.096905
Si Si5 0.325146 0.131063 0.871464
Si Si6 0.685809 0.631802 0.990178
Si Si7 0.341020 0.446837 0.898992
Si Si8 0.000000 0.518088 0.250000
O O1 0.447607 0.548375 0.660372
O O2 0.733093 0.606165 0.718445
O O3 0.160087 0.259065 0.865121
O O4 0.523737 0.250852 0.975950
O O5 0.265100 0.320275 0.985755
O O6 0.500000 0.237368 0.750000
O O7 0.649564 0.179725 0.650224
O O8 0.000000 0.207562 0.750000
O O9 0.461917 0.987087 0.164613
O O10 0.279573 0.966041 0.994248
O O11 0.103315 0.027111 0.097859
O O12 0.580276 0.117785 0.924363
O O13 0.081055 0.128128 0.937853
O O14 0.660380 0.601477 0.076757
O O15 0.212491 0.454085 0.800164
#
# Coordination Sequence:
#
# PCOD9458572 Si02
#       8
#     4   8   8   8   8   8   8   4
#     4  12  24  42  68 105 144 182 245 312 380 434
#     4  12  23  45  73 100 139 189 239 288 362 437
#     4  12  24  42  68 104 145 180 233 297 365 432
#     4  11  25  46  69 104 140 193 240 311 372 442
#     4  12  26  42  71 107 142 184 235 305 376 431
#     4  12  26  46  71 104 141 192 243 297 359 448
#     4  11  26  45  70 101 147 186 254 289 374 433
#     4  12  24  44  72  99 136 196 239 312 352 440
#
# _framework density 22.655576
#
# number of rings (size 3 to 8) (size 9 to 14) (size 15 to 20)
#    0.000    0.286    6.429    2.143    4.000    0.000 
#    1.286    1.429    0.000    0.000    0.000    0.000 
#    0.000    0.000    0.000    0.000    0.000    0.000 
#
# Total GULP energy -312605.699843 kJ/mol
# GULP energy per Si atom -5582.244640 kJ/mol
# Density = 2.260401 g / cm^3
# Si number density = 22.655576 Si / 1000 Ang^3
#
#
#
# Elastic Constant Matrix: (Units=GPa)
#
#
# Indices 1 2 3 4 5 6 
#
# 1 69.7687 21.7306 13.2459 0.0000 0.0000 0.0000
# 2 21.7306 113.7054 19.7040 0.0000 0.0000 0.0000
# 3 13.2459 19.7040 90.5618 0.0000 0.0000 0.0000
# 4 0.0000 0.0000 0.0000 37.2125 0.0000 0.0000
# 5 0.0000 0.0000 0.0000 0.0000 33.4783 0.0000
# 6 0.0000 0.0000 0.0000 0.0000 0.0000 18.1808
#
#
#
# Elastic Compliance Matrix: (Units=1/GPa)
#
#
# Indices 1 2 3 4 5 6 
#
# 1 0.015484 -0.002667 -0.001684 0.000000 0.000000 0.000000
# 2 -0.002667 0.009599 -0.001698 0.000000 0.000000 0.000000
# 3 -0.001684 -0.001698 0.011658 0.000000 0.000000 0.000000
# 4 0.000000 0.000000 0.000000 0.026873 0.000000 0.000000
# 5 0.000000 0.000000 0.000000 0.000000 0.029870 0.000000
# 6 0.000000 0.000000 0.000000 0.000000 0.000000 0.055003
#
#
# Mechanical properties :
#
#
# Convention : Reuss Voigt Hill
#
# Bulk Modulus (GPa) = 40.58357 42.59968 41.59162
# Shear Modulus (GPa) = 29.62095 32.39803 31.00949
#
# Velocity S-wave (km/s) = 3.61979 3.78567 3.70366
# Velocity P-wave (km/s) = 5.95169 6.16055 6.05702
#
# Compressibility (1/GPa) = 0.02464051
#
# Stress axis : x y z
#
# Youngs Moduli (GPa) = 64.58442 104.18077 85.77761
#
# Poissons Ratio (x) = 0.27788 0.14448
# Poissons Ratio (y) = 0.17226 0.14568
# Poissons Ratio (z) = 0.10878 0.17693
#
# Static dielectric constant tensor:
#      x y z
#    x 2.020480 0.000000 0.000000 
#    y 0.000000 1.880680 0.000000 
#    z 0.000000 0.000000 1.965010 
# 
# From -- ./inp_files/14142.got.cif
#   From: 2010.05.17/outbox.cif.g08.bks.cpg/sg60_8_cif.got.tgz:14142.got - 2010.06.03 14:59:27.
