data_PCOD9458642
_publ_section_title
;
Structure prediction by ZEFSAII (Michael W. Deem and Ramdas Pophale) SiO2 
 PCOD9458642
Probable space group: P B C N
;
_chemical_formula_sum "Si O2"
_cell_formula_units_Z 40
_cell_length_a 18.042532
_cell_length_b 8.700372
_cell_length_c 10.872565
_cell_angle_alpha 90.000000
_cell_angle_beta 90.000000
_cell_angle_gamma 90.000000
_cell_volume 1706.739812
_symmetry_space_group_name_H-M "P B C N"
_symmetry_group_IT_number 60
_symmetry_cell_setting 'orthorhombic'
loop_
_space_group_symop_operation_xyz
x,y,z
1/2-x,1/2-y,1/2+z
1/2+x,1/2-y,-z
-x,y,1/2-z
-x,-y,-z
1/2+x,1/2+y,1/2-z
1/2-x,1/2+y,z
x,-y,1/2+z
loop_
_atom_site_type_symbol
_atom_site_label
_atom_site_fract_x
_atom_site_fract_y
_atom_site_fract_z
Si Si1 0.686983 0.202985 0.345176
Si Si2 0.197374 0.012219 0.807231
Si Si3 0.083584 0.217943 0.258397
Si Si4 0.324016 0.742025 0.011916
Si Si5 0.584737 0.971263 0.042206
O O1 0.658296 0.349634 0.269333
O O2 0.735866 0.079710 0.262279
O O3 0.627904 0.120068 0.432848
O O4 0.749993 0.294719 0.421524
O O5 0.136298 0.887063 0.839298
O O6 0.210991 0.105030 0.931755
O O7 0.120138 0.206269 0.124057
O O8 0.083975 0.380326 0.328723
O O9 0.000000 0.164195 0.250000
O O10 0.369163 0.872254 0.941042
O O11 0.500000 0.000000 0.000000
#
# Coordination Sequence:
#
# PCOD9458642 Si02
#       5
#     8   8   8   8   8
#     4  11  27  49  74 114 154 210 271 330 402 480
#     4  11  28  45  77 107 157 205 265 332 400 483
#     4  11  27  49  73 114 157 200 266 322 401 491
#     4  11  27  48  77 113 153 210 265 328 400 481
#     4  12  27  49  81 115 161 213 264 335 407 483
#
# _framework density 23.436496999999999
#
# number of rings (size 3 to 8) (size 9 to 14) (size 15 to 20)
#    0.000    0.800    4.000    0.000   16.800    2.400 
#    0.000    0.000    0.000    0.000    0.000    0.000 
#    0.000    0.000    0.000    0.000    0.000    0.000 
#
# Total GULP energy -223252.354419 kJ/mol
# GULP energy per Si atom -5581.308860 kJ/mol
# Density = 2.338315 g / cm^3
# Si number density = 23.436497 Si / 1000 Ang^3
#
#
#
# Elastic Constant Matrix: (Units=GPa)
#
#
# Indices 1 2 3 4 5 6 
#
# 1 145.5855 27.3041 25.6177 0.0000 0.0000 0.0000
# 2 27.3041 92.9663 16.5033 0.0000 0.0000 0.0000
# 3 25.6177 16.5033 51.4518 0.0000 0.0000 0.0000
# 4 0.0000 0.0000 0.0000 17.3915 0.0000 0.0000
# 5 0.0000 0.0000 0.0000 0.0000 28.7915 0.0000
# 6 0.0000 0.0000 0.0000 0.0000 0.0000 25.1299
#
#
#
# Elastic Compliance Matrix: (Units=1/GPa)
#
#
# Indices 1 2 3 4 5 6 
#
# 1 0.007772 -0.001692 -0.003327 0.000000 0.000000 0.000000
# 2 -0.001692 0.011774 -0.002934 0.000000 0.000000 0.000000
# 3 -0.003327 -0.002934 0.022033 0.000000 0.000000 0.000000
# 4 0.000000 0.000000 0.000000 0.057499 0.000000 0.000000
# 5 0.000000 0.000000 0.000000 0.000000 0.034733 0.000000
# 6 0.000000 0.000000 0.000000 0.000000 0.000000 0.039793
#
#
# Mechanical properties :
#
#
# Convention : Reuss Voigt Hill
#
# Bulk Modulus (GPa) = 38.95104 47.65046 43.30075
# Shear Modulus (GPa) = 25.24390 28.96781 27.10586
#
# Velocity S-wave (km/s) = 3.28551 3.51951 3.40452
# Velocity P-wave (km/s) = 5.57213 6.07386 5.82840
#
# Compressibility (1/GPa) = 0.02567326
#
# Stress axis : x y z
#
# Youngs Moduli (GPa) = 128.67500 84.93007 45.38607
#
# Poissons Ratio (x) = 0.14370 0.15099
# Poissons Ratio (y) = 0.21771 0.13317
# Poissons Ratio (z) = 0.42807 0.24921
#
# Static dielectric constant tensor:
#      x y z
#    x 1.813850 0.000000 0.000000 
#    y 0.000000 1.927770 0.000000 
#    z 0.000000 0.000000 2.117980 
# 
# From -- ./inp_files/17601.got.cif
#   From: 2010.05.17/outbox.cif.g08.bks.cpg/sg60_9_cif.got.tgz:17601.got - 2010.06.03 14:59:27.
