data_PCOD9458010
_publ_section_title
;
Structure prediction by ZEFSAII (Michael W. Deem and Ramdas Pophale) SiO2 
 PCOD9458010
Probable space group: P B C N
;
_chemical_formula_sum "Si O2"
_cell_formula_units_Z 40
_cell_length_a 8.262507
_cell_length_b 18.731918
_cell_length_c 10.096744
_cell_angle_alpha 90.000000
_cell_angle_beta 90.000000
_cell_angle_gamma 90.000000
_cell_volume 1562.699357
_symmetry_space_group_name_H-M "P B C N"
_symmetry_group_IT_number 60
_symmetry_cell_setting 'orthorhombic'
loop_
_space_group_symop_operation_xyz
x,y,z
1/2-x,1/2-y,1/2+z
1/2+x,1/2-y,-z
-x,y,1/2-z
-x,-y,-z
1/2+x,1/2+y,1/2-z
1/2-x,1/2+y,z
x,-y,1/2+z
loop_
_atom_site_type_symbol
_atom_site_label
_atom_site_fract_x
_atom_site_fract_y
_atom_site_fract_z
Si Si1 0.538992 0.117620 0.903867
Si Si2 0.059721 0.756513 0.402057
Si Si3 0.627089 0.292425 0.633491
Si Si4 0.204536 0.429375 0.757689
Si Si5 0.735520 0.989203 0.993136
O O1 0.500000 0.129009 0.750000
O O2 0.552766 0.187899 0.995677
O O3 0.690747 0.063569 0.918289
O O4 0.408301 0.065400 0.969367
O O5 0.249508 0.773298 0.391894
O O6 0.250993 0.648212 0.308821
O O7 0.000000 0.751062 0.250000
O O8 0.955435 0.809913 0.492916
O O9 0.500000 0.281457 0.750000
O O10 0.306560 0.442777 0.624471
O O11 0.000000 0.437045 0.750000
O O12 0.280532 0.483489 0.863757
#
# Coordination Sequence:
#
# PCOD9458010 Si02
#       5
#     8   8   8   8   8
#     4  11  19  33  63 105 144 189 251 298 348 423
#     4  12  26  46  72 103 148 195 256 315 362 447
#     4  12  27  48  72 104 143 196 247 309 383 442
#     4  12  20  41  74 112 156 191 248 303 363 435
#     4  11  18  34  66 110 146 196 244 295 352 435
#
# _framework density 25.596736
#
# number of rings (size 3 to 8) (size 9 to 14) (size 15 to 20)
#    0.000    0.400    8.000    3.600    0.000    0.000 
#    0.000    3.000    0.000    0.000    0.000    0.000 
#    0.000    0.000    0.000    0.000    0.000    0.000 
#
# Total GULP energy -222673.520958 kJ/mol
# GULP energy per Si atom -5566.838024 kJ/mol
# Density = 2.553848 g / cm^3
# Si number density = 25.596736 Si / 1000 Ang^3
#
#
#
# Elastic Constant Matrix: (Units=GPa)
#
#
# Indices 1 2 3 4 5 6 
#
# 1 106.7709 -1.9174 62.0449 0.0000 0.0000 0.0000
# 2 -1.9174 66.3470 26.0838 0.0000 0.0000 0.0000
# 3 62.0449 26.0838 253.1218 0.0000 0.0000 0.0000
# 4 0.0000 0.0000 0.0000 51.1033 0.0000 0.0000
# 5 0.0000 0.0000 0.0000 0.0000 33.6929 0.0000
# 6 0.0000 0.0000 0.0000 0.0000 0.0000 -282.4403
#
#
#
# Elastic Compliance Matrix: (Units=1/GPa)
#
#
# Indices 1 2 3 4 5 6 
#
# 1 0.011052 0.001443 -0.002858 0.000000 0.000000 0.000000
# 2 0.001443 0.015897 -0.001992 0.000000 0.000000 0.000000
# 3 -0.002858 -0.001992 0.004856 0.000000 0.000000 0.000000
# 4 0.000000 0.000000 0.000000 0.019568 0.000000 0.000000
# 5 0.000000 0.000000 0.000000 0.000000 0.029680 0.000000
# 6 0.000000 0.000000 0.000000 0.000000 0.000000 -0.003541
#
#
# Mechanical properties :
#
#
# Convention : Reuss Voigt Hill
#
# Bulk Modulus (GPa) = 40.01212 66.51804 53.26508
# Shear Modulus (GPa) = 53.96200 -16.86026 18.55087
#
# Velocity S-wave (km/s) = 4.59645 -2.56928 2.69501
# Velocity P-wave (km/s) = 6.62084 4.15232 5.52618
#
# Compressibility (1/GPa) = 0.02499243
#
# Stress axis : x y z
#
# Youngs Moduli (GPa) = 90.47752 62.90470 205.91212
#
# Poissons Ratio (x) = -0.09077 0.58847
# Poissons Ratio (y) = -0.13055 0.41015
# Poissons Ratio (z) = 0.25857 0.12530
#
# Static dielectric constant tensor:
#      x y z
#    x 2.485810 0.000000 0.000000 
#    y 0.000000 2.146680 0.000000 
#    z 0.000000 0.000000 2.138900 
# 
# From -- ./inp_files/9921.got.cif
#   From: 2010.05.17/outbox.cif.g08.bks.cpg/sg60_5_cif.got.tgz:9921.got - 2010.06.03 14:59:27.
