data_PCOD9458574
_publ_section_title
;
Structure prediction by ZEFSAII (Michael W. Deem and Ramdas Pophale) SiO2 
 PCOD9458574
Probable space group: P B C N
;
_chemical_formula_sum "Si O2"
_cell_formula_units_Z 48
_cell_length_a 12.684907
_cell_length_b 9.250175
_cell_length_c 17.114109
_cell_angle_alpha 90.000000
_cell_angle_beta 90.000000
_cell_angle_gamma 90.000000
_cell_volume 2008.128641
_symmetry_space_group_name_H-M "P B C N"
_symmetry_group_IT_number 60
_symmetry_cell_setting 'orthorhombic'
loop_
_space_group_symop_operation_xyz
x,y,z
1/2-x,1/2-y,1/2+z
1/2+x,1/2-y,-z
-x,y,1/2-z
-x,-y,-z
1/2+x,1/2+y,1/2-z
1/2-x,1/2+y,z
x,-y,1/2+z
loop_
_atom_site_type_symbol
_atom_site_label
_atom_site_fract_x
_atom_site_fract_y
_atom_site_fract_z
Si Si1 0.300233 0.817388 0.936418
Si Si2 0.026696 0.908675 0.424236
Si Si3 0.407419 0.670279 0.329264
Si Si4 0.919617 0.492957 0.184744
Si Si5 0.726224 0.535491 0.298345
Si Si6 0.184954 0.774603 0.096062
O O1 0.359480 0.664521 0.927501
O O2 0.193223 0.819597 0.886785
O O3 0.382693 0.928696 0.895419
O O4 0.260728 0.827718 0.025816
O O5 0.937863 0.784328 0.425538
O O6 0.028459 0.029511 0.356746
O O7 0.000000 0.000000 0.500000
O O8 0.457868 0.829542 0.332450
O O9 0.359339 0.634971 0.244665
O O10 0.811905 0.492897 0.233845
O O11 0.000000 0.560591 0.250000
O O12 0.776917 0.623779 0.369781
O O13 0.686852 0.386520 0.332738
#
# Coordination Sequence:
#
# PCOD9458574 Si02
#       6
#     8   8   8   8   8   8
#     4  11  25  48  74 103 156 194 243 316 381 441
#     4  12  26  45  76 111 140 200 255 306 377 459
#     4  11  25  47  74 101 150 195 248 308 373 444
#     4  11  25  46  71 108 143 201 251 303 379 448
#     4  11  25  47  69 107 150 197 243 312 374 443
#     4  12  26  45  76 109 152 193 255 314 380 455
#
# _framework density 23.902853
#
# number of rings (size 3 to 8) (size 9 to 14) (size 15 to 20)
#    0.000    0.667    3.333    4.000    7.000    1.333 
#    0.000    2.500    0.000    0.000    0.000    0.000 
#    0.000    0.000    0.000    0.000    0.000    0.000 
#
# Total GULP energy -268294.471553 kJ/mol
# GULP energy per Si atom -5589.468157 kJ/mol
# Density = 2.384845 g / cm^3
# Si number density = 23.902853 Si / 1000 Ang^3
#
#
#
# Elastic Constant Matrix: (Units=GPa)
#
#
# Indices 1 2 3 4 5 6 
#
# 1 49.6467 14.3610 24.5063 0.0000 0.0000 0.0000
# 2 14.3610 72.4892 15.8391 0.0000 0.0000 0.0000
# 3 24.5063 15.8391 80.6878 0.0000 0.0000 0.0000
# 4 0.0000 0.0000 0.0000 34.1209 0.0000 0.0000
# 5 0.0000 0.0000 0.0000 0.0000 37.4993 0.0000
# 6 0.0000 0.0000 0.0000 0.0000 0.0000 33.4133
#
#
#
# Elastic Compliance Matrix: (Units=1/GPa)
#
#
# Indices 1 2 3 4 5 6 
#
# 1 0.024456 -0.003366 -0.006767 0.000000 0.000000 0.000000
# 2 -0.003366 0.014877 -0.001898 0.000000 0.000000 0.000000
# 3 -0.006767 -0.001898 0.014821 0.000000 0.000000 0.000000
# 4 0.000000 0.000000 0.000000 0.029308 0.000000 0.000000
# 5 0.000000 0.000000 0.000000 0.000000 0.026667 0.000000
# 6 0.000000 0.000000 0.000000 0.000000 0.000000 0.029928
#
#
# Mechanical properties :
#
#
# Convention : Reuss Voigt Hill
#
# Bulk Modulus (GPa) = 33.23170 34.69294 33.96232
# Shear Modulus (GPa) = 28.71076 30.88117 29.79597
#
# Velocity S-wave (km/s) = 3.46951 3.59826 3.53447
# Velocity P-wave (km/s) = 5.47567 5.63994 5.55842
#
# Compressibility (1/GPa) = 0.03009175
#
# Stress axis : x y z
#
# Youngs Moduli (GPa) = 40.88906 67.21876 67.47063
#
# Poissons Ratio (x) = 0.22629 0.45657
# Poissons Ratio (y) = 0.13765 0.12805
# Poissons Ratio (z) = 0.27670 0.12757
#
# Static dielectric constant tensor:
#      x y z
#    x 1.812030 0.000000 0.000000 
#    y 0.000000 1.880450 0.000000 
#    z 0.000000 0.000000 1.903760 
# 
# From -- ./inp_files/20502.got.cif
#   From: 2010.05.17/outbox.cif.g08.bks.cpg/sg60_11_cif.got.tgz:20502.got - 2010.06.03 14:59:27.
