data_PCOD9458689
_publ_section_title
;
Structure prediction by ZEFSAII (Michael W. Deem and Ramdas Pophale) SiO2 
 PCOD9458689
Probable space group: P B C N
;
_chemical_formula_sum "Si O2"
_cell_formula_units_Z 48
_cell_length_a 8.610204
_cell_length_b 30.207542
_cell_length_c 9.663682
_cell_angle_alpha 90.000000
_cell_angle_beta 90.000000
_cell_angle_gamma 90.000000
_cell_volume 2513.456999
_symmetry_space_group_name_H-M "P B C N"
_symmetry_group_IT_number 60
_symmetry_cell_setting 'orthorhombic'
loop_
_space_group_symop_operation_xyz
x,y,z
1/2-x,1/2-y,1/2+z
1/2+x,1/2-y,-z
-x,y,1/2-z
-x,-y,-z
1/2+x,1/2+y,1/2-z
1/2-x,1/2+y,z
x,-y,1/2+z
loop_
_atom_site_type_symbol
_atom_site_label
_atom_site_fract_x
_atom_site_fract_y
_atom_site_fract_z
Si Si1 0.600726 0.026630 0.886379
Si Si2 0.765902 0.715206 0.350862
Si Si3 0.737756 0.114291 0.361790
Si Si4 0.875884 0.612512 0.052415
Si Si5 0.094832 0.970899 0.610248
Si Si6 0.621631 0.786522 0.544516
O O1 0.500000 0.033751 0.750000
O O2 0.747371 0.996480 0.854448
O O3 0.658005 0.072996 0.948793
O O4 0.500000 0.000000 0.000000
O O5 0.708960 0.664994 0.376710
O O6 0.665495 0.751834 0.427418
O O7 0.782979 0.722206 0.186336
O O8 0.941076 0.716784 0.412329
O O9 0.561579 0.110239 0.418179
O O10 0.714728 0.105699 0.197155
O O11 0.849664 0.078420 0.431247
O O12 0.845241 0.662545 0.003383
O O13 0.000000 0.966567 0.750000
O O14 0.000000 0.000000 0.500000
#
# Coordination Sequence:
#
# PCOD9458689 Si02
#       6
#     8   8   8   8   8   8
#     4  12  23  40  66  88 115 163 210 248 300 363
#     4   9  19  38  61  86 117 154 196 240 295 353
#     4   9  18  38  64  83 115 161 200 240 293 361
#     4   9  18  37  65  88 109 155 215 246 276 353
#     4  12  25  40  58  89 127 154 194 256 311 354
#     4   9  19  38  60  87 119 151 194 247 292 351
#
# _framework density 19.097201999999999
#
# number of rings (size 3 to 8) (size 9 to 14) (size 15 to 20)
#    0.000    2.000    1.667    5.000    0.000    0.667 
#   15.000    0.000    0.000    0.000    0.000    0.000 
#    0.000    0.000    0.000    0.000    0.000    0.000 
#
# Total GULP energy -268071.625884 kJ/mol
# GULP energy per Si atom -5584.825539 kJ/mol
# Density = 1.905374 g / cm^3
# Si number density = 19.097202 Si / 1000 Ang^3
#
#
#
# Elastic Constant Matrix: (Units=GPa)
#
#
# Indices 1 2 3 4 5 6 
#
# 1 43.1866 42.6102 11.8289 0.0000 0.0000 0.0000
# 2 42.6102 159.6702 66.7291 0.0000 0.0000 0.0000
# 3 11.8289 66.7291 47.5712 0.0000 0.0000 0.0000
# 4 0.0000 0.0000 0.0000 33.8787 0.0000 0.0000
# 5 0.0000 0.0000 0.0000 0.0000 28.3209 0.0000
# 6 0.0000 0.0000 0.0000 0.0000 0.0000 38.6740
#
#
#
# Elastic Compliance Matrix: (Units=1/GPa)
#
#
# Indices 1 2 3 4 5 6 
#
# 1 0.033334 -0.013127 0.010125 0.000000 0.000000 0.000000
# 2 -0.013127 0.020305 -0.025219 0.000000 0.000000 0.000000
# 3 0.010125 -0.025219 0.053878 0.000000 0.000000 0.000000
# 4 0.000000 0.000000 0.000000 0.029517 0.000000 0.000000
# 5 0.000000 0.000000 0.000000 0.000000 0.035310 0.000000
# 6 0.000000 0.000000 0.000000 0.000000 0.000000 0.025857
#
#
# Mechanical properties :
#
#
# Convention : Reuss Voigt Hill
#
# Bulk Modulus (GPa) = 19.57875 54.75161 37.16518
# Shear Modulus (GPa) = 18.40479 28.79204 23.59842
#
# Velocity S-wave (km/s) = 3.10779 3.88707 3.51907
# Velocity P-wave (km/s) = 4.81167 6.99128 6.00126
#
# Compressibility (1/GPa) = 0.05107577
#
# Stress axis : x y z
#
# Youngs Moduli (GPa) = 29.99956 49.24809 18.56033
#
# Poissons Ratio (x) = 0.64647 -0.18792
# Poissons Ratio (y) = 0.39380 0.46807
# Poissons Ratio (z) = -0.30374 1.24197
#
# Static dielectric constant tensor:
#      x y z
#    x 1.660530 0.000000 0.000000 
#    y 0.000000 1.673970 0.000000 
#    z 0.000000 0.000000 1.645040 
# 
# From -- ./inp_files/4249.got.cif
#   From: 2010.05.17/outbox.cif.g08.bks.cpg/sg60_3_cif.got.tgz:4249.got - 2010.06.03 14:59:27.
