data_PCOD9458430
_publ_section_title
;
Structure prediction by ZEFSAII (Michael W. Deem and Ramdas Pophale) SiO2 
 PCOD9458430
Probable space group: P B C N
;
_chemical_formula_sum "Si O2"
_cell_formula_units_Z 32
_cell_length_a 6.653709
_cell_length_b 13.820295
_cell_length_c 15.626997
_cell_angle_alpha 90.000000
_cell_angle_beta 90.000000
_cell_angle_gamma 90.000000
_cell_volume 1436.999593
_symmetry_space_group_name_H-M "P B C N"
_symmetry_group_IT_number 60
_symmetry_cell_setting 'orthorhombic'
loop_
_space_group_symop_operation_xyz
x,y,z
1/2-x,1/2-y,1/2+z
1/2+x,1/2-y,-z
-x,y,1/2-z
-x,-y,-z
1/2+x,1/2+y,1/2-z
1/2-x,1/2+y,z
x,-y,1/2+z
loop_
_atom_site_type_symbol
_atom_site_label
_atom_site_fract_x
_atom_site_fract_y
_atom_site_fract_z
Si Si1 0.795078 0.477687 0.794908
Si Si2 0.000000 0.858694 0.250000
Si Si3 0.000000 0.823732 0.750000
Si Si4 0.273914 0.243877 0.892399
Si Si5 0.041353 0.606783 0.034680
O O1 0.652663 0.570266 0.800059
O O2 0.685525 0.396708 0.738514
O O3 0.834219 0.418864 0.880728
O O4 0.000000 0.507948 0.750000
O O5 0.878132 0.797908 0.179868
O O6 0.022811 0.764164 0.837113
O O7 0.157519 0.332461 0.938573
O O8 0.333830 0.167439 0.965204
O O9 0.000000 0.500000 0.000000
#
# Coordination Sequence:
#
# PCOD9458430 Si02
#       5
#     8   4   4   8   8
#     4  11  23  48  75 108 150 200 255 318 389 456
#     4  11  28  44  81 108 150 210 255 312 395 480
#     4  11  24  46  77 102 146 202 259 312 375 474
#     4  12  27  48  75 115 154 211 258 323 393 466
#     4  12  28  46  75 111 159 195 259 327 385 462
#
# _framework density 22.268622000000001
#
# number of rings (size 3 to 8) (size 9 to 14) (size 15 to 20)
#    0.000    0.500    2.500    4.500   12.250    1.000 
#    0.000    0.000    0.000    0.000    0.000    0.000 
#    0.000    0.000    0.000    0.000    0.000    0.000 
#
# Total GULP energy -178824.457384 kJ/mol
# GULP energy per Si atom -5588.264293 kJ/mol
# Density = 2.221794 g / cm^3
# Si number density = 22.268622 Si / 1000 Ang^3
#
#
#
# Elastic Constant Matrix: (Units=GPa)
#
#
# Indices 1 2 3 4 5 6 
#
# 1 86.5787 49.6173 22.7378 0.0000 0.0000 0.0000
# 2 49.6173 145.7555 50.0768 0.0000 0.0000 0.0000
# 3 22.7378 50.0768 84.2504 0.0000 0.0000 0.0000
# 4 0.0000 0.0000 0.0000 60.5897 0.0000 0.0000
# 5 0.0000 0.0000 0.0000 0.0000 46.0387 0.0000
# 6 0.0000 0.0000 0.0000 0.0000 0.0000 41.3577
#
#
#
# Elastic Compliance Matrix: (Units=1/GPa)
#
#
# Indices 1 2 3 4 5 6 
#
# 1 0.014450 -0.004498 -0.001227 0.000000 0.000000 0.000000
# 2 -0.004498 0.010021 -0.004743 0.000000 0.000000 0.000000
# 3 -0.001227 -0.004743 0.015019 0.000000 0.000000 0.000000
# 4 0.000000 0.000000 0.000000 0.016504 0.000000 0.000000
# 5 0.000000 0.000000 0.000000 0.000000 0.021721 0.000000
# 6 0.000000 0.000000 0.000000 0.000000 0.000000 0.024179
#
#
# Mechanical properties :
#
#
# Convention : Reuss Voigt Hill
#
# Bulk Modulus (GPa) = 53.88801 62.38316 58.13559
# Shear Modulus (GPa) = 38.75550 42.54072 40.64811
#
# Velocity S-wave (km/s) = 4.17629 4.37549 4.27705
# Velocity P-wave (km/s) = 6.89252 7.32129 7.11014
#
# Compressibility (1/GPa) = 0.01855700
#
# Stress axis : x y z
#
# Youngs Moduli (GPa) = 69.20525 99.78819 66.58090
#
# Poissons Ratio (x) = 0.44880 0.08166
# Poissons Ratio (y) = 0.31125 0.31577
# Poissons Ratio (z) = 0.08488 0.47326
#
# Static dielectric constant tensor:
#      x y z
#    x 1.883070 0.000000 0.000000 
#    y 0.000000 2.107610 0.000000 
#    z 0.000000 0.000000 1.721420 
# 
# From -- ./inp_files/18467.got.cif
#   From: 2010.05.17/outbox.cif.g08.bks.cpg/sg60_10_cif.got.tgz:18467.got - 2010.06.03 14:59:27.
