data_PCOD9458545
_publ_section_title
;
Structure prediction by ZEFSAII (Michael W. Deem and Ramdas Pophale) SiO2 
 PCOD9458545
Probable space group: P B C N
;
_chemical_formula_sum "Si O2"
_cell_formula_units_Z 40
_cell_length_a 6.859497
_cell_length_b 15.111514
_cell_length_c 14.591890
_cell_angle_alpha 90.000000
_cell_angle_beta 90.000000
_cell_angle_gamma 90.000000
_cell_volume 1512.557159
_symmetry_space_group_name_H-M "P B C N"
_symmetry_group_IT_number 60
_symmetry_cell_setting 'orthorhombic'
loop_
_space_group_symop_operation_xyz
x,y,z
1/2-x,1/2-y,1/2+z
1/2+x,1/2-y,-z
-x,y,1/2-z
-x,-y,-z
1/2+x,1/2+y,1/2-z
1/2-x,1/2+y,z
x,-y,1/2+z
loop_
_atom_site_type_symbol
_atom_site_label
_atom_site_fract_x
_atom_site_fract_y
_atom_site_fract_z
Si Si1 0.230462 0.332232 0.169066
Si Si2 0.315192 0.287795 0.363533
Si Si3 0.028549 0.490623 0.608213
Si Si4 0.317969 0.344471 0.567376
Si Si5 0.847748 0.093213 0.164383
O O1 0.209151 0.331438 0.277965
O O2 0.458100 0.314376 0.146024
O O3 0.135305 0.246594 0.120583
O O4 0.153766 0.425011 0.135034
O O5 0.653083 0.099415 0.381229
O O6 0.271745 0.184883 0.344114
O O7 0.820205 0.479689 0.657671
O O8 0.000000 0.500000 0.500000
O O9 0.257570 0.318584 0.465025
O O10 0.011598 0.096021 0.424570
O O11 0.000000 0.087767 0.250000
#
# Coordination Sequence:
#
# PCOD9458545 Si02
#       5
#     8   8   8   8   8
#     4  11  26  52  85 125 175 227 301 365 448 546
#     4  11  24  50  87 124 168 233 291 369 455 536
#     4  12  29  54  85 130 172 234 302 367 447 546
#     4  12  26  53  84 122 178 232 290 369 464 534
#     4  12  27  52  85 127 179 237 291 372 462 539
#
# _framework density 26.445283
#
# number of rings (size 3 to 8) (size 9 to 14) (size 15 to 20)
#    0.000    0.400    4.000    3.600    2.800    4.000 
#   10.800    0.000    0.000    0.000    0.000    0.000 
#    0.000    0.000    0.000    0.000    0.000    0.000 
#
# Total GULP energy -224468.622434 kJ/mol
# GULP energy per Si atom -5611.715561 kJ/mol
# Density = 2.638509 g / cm^3
# Si number density = 26.445283 Si / 1000 Ang^3
#
#
#
# Elastic Constant Matrix: (Units=GPa)
#
#
# Indices 1 2 3 4 5 6 
#
# 1 183.5213 79.1798 48.6568 0.0000 0.0000 0.0000
# 2 79.1798 148.4099 46.8546 0.0000 0.0000 0.0000
# 3 48.6568 46.8546 112.3001 0.0000 0.0000 0.0000
# 4 0.0000 0.0000 0.0000 37.6674 0.0000 0.0000
# 5 0.0000 0.0000 0.0000 0.0000 42.2187 0.0000
# 6 0.0000 0.0000 0.0000 0.0000 0.0000 51.4125
#
#
#
# Elastic Compliance Matrix: (Units=1/GPa)
#
#
# Indices 1 2 3 4 5 6 
#
# 1 0.007378 -0.003371 -0.001790 0.000000 0.000000 0.000000
# 2 -0.003371 0.009301 -0.002420 0.000000 0.000000 0.000000
# 3 -0.001790 -0.002420 0.010690 0.000000 0.000000 0.000000
# 4 0.000000 0.000000 0.000000 0.026548 0.000000 0.000000
# 5 0.000000 0.000000 0.000000 0.000000 0.023686 0.000000
# 6 0.000000 0.000000 0.000000 0.000000 0.000000 0.019451
#
#
# Mechanical properties :
#
#
# Convention : Reuss Voigt Hill
#
# Bulk Modulus (GPa) = 81.92488 88.17930 85.05209
# Shear Modulus (GPa) = 42.99789 44.22905 43.61347
#
# Velocity S-wave (km/s) = 4.03664 4.09403 4.06544
# Velocity P-wave (km/s) = 7.26445 7.46756 7.36671
#
# Compressibility (1/GPa) = 0.01220630
#
# Stress axis : x y z
#
# Youngs Moduli (GPa) = 135.53660 107.51923 93.54557
#
# Poissons Ratio (x) = 0.36247 0.16746
# Poissons Ratio (y) = 0.45692 0.22636
# Poissons Ratio (z) = 0.24264 0.26018
#
# Static dielectric constant tensor:
#      x y z
#    x 2.183960 0.000000 0.000000 
#    y 0.000000 2.046830 0.000000 
#    z 0.000000 0.000000 2.060270 
# 
# From -- ./inp_files/9778.got.cif
#   From: 2010.05.17/outbox.cif.g08.bks.cpg/sg60_5_cif.got.tgz:9778.got - 2010.06.03 14:59:27.
