data_PCOD9458158
_publ_section_title
;
Structure prediction by ZEFSAII (Michael W. Deem and Ramdas Pophale) SiO2 
 PCOD9458158
Probable space group: P B C N
;
_chemical_formula_sum "Si O2"
_cell_formula_units_Z 40
_cell_length_a 15.985707
_cell_length_b 14.074511
_cell_length_c 7.796462
_cell_angle_alpha 90.000000
_cell_angle_beta 90.000000
_cell_angle_gamma 90.000000
_cell_volume 1754.133852
_symmetry_space_group_name_H-M "P B C N"
_symmetry_group_IT_number 60
_symmetry_cell_setting 'orthorhombic'
loop_
_space_group_symop_operation_xyz
x,y,z
1/2-x,1/2-y,1/2+z
1/2+x,1/2-y,-z
-x,y,1/2-z
-x,-y,-z
1/2+x,1/2+y,1/2-z
1/2-x,1/2+y,z
x,-y,1/2+z
loop_
_atom_site_type_symbol
_atom_site_label
_atom_site_fract_x
_atom_site_fract_y
_atom_site_fract_z
Si Si1 0.660665 0.581045 0.494729
Si Si2 0.836653 0.201064 0.822706
Si Si3 0.690447 0.938667 0.416910
Si Si4 0.400940 0.104412 0.262623
Si Si5 0.416936 0.598748 0.359327
O O1 0.648911 0.667032 0.626624
O O2 0.744113 0.514901 0.502686
O O3 0.651123 0.606445 0.294786
O O4 0.590400 0.507348 0.564168
O O5 0.749453 0.146613 0.853744
O O6 0.848901 0.313225 0.832947
O O7 0.897025 0.161479 0.973859
O O8 0.626009 0.889952 0.542686
O O9 0.633208 0.002226 0.294842
O O10 0.500000 0.115922 0.250000
O O11 0.500000 0.617629 0.250000
#
# Coordination Sequence:
#
# PCOD9458158 Si02
#       5
#     8   8   8   8   8
#     4  11  21  42  71 104 145 198 249 294 370 450
#     4  11  26  45  74 110 146 196 259 304 365 453
#     4  11  23  52  72 101 149 199 246 305 373 451
#     4  12  28  48  77 113 148 195 252 318 375 439
#     4  11  22  37  68 106 155 197 237 305 382 439
#
# _framework density 22.803277000000001
#
# number of rings (size 3 to 8) (size 9 to 14) (size 15 to 20)
#    0.000    0.800    6.000    2.400    5.600    0.000 
#    3.600    1.000    0.000    0.000    0.000    0.000 
#    0.000    0.000    0.000    0.000    0.000    0.000 
#
# Total GULP energy -223161.345837 kJ/mol
# GULP energy per Si atom -5579.033646 kJ/mol
# Density = 2.275138 g / cm^3
# Si number density = 22.803277 Si / 1000 Ang^3
#
#
#
# Elastic Constant Matrix: (Units=GPa)
#
#
# Indices 1 2 3 4 5 6 
#
# 1 93.4683 60.8217 9.1113 0.0000 0.0000 0.0000
# 2 60.8217 72.1666 14.8815 0.0000 0.0000 0.0000
# 3 9.1113 14.8815 68.0072 0.0000 0.0000 0.0000
# 4 0.0000 0.0000 0.0000 -7.6005 0.0000 0.0000
# 5 0.0000 0.0000 0.0000 0.0000 21.5257 0.0000
# 6 0.0000 0.0000 0.0000 0.0000 0.0000 22.2821
#
#
#
# Elastic Compliance Matrix: (Units=1/GPa)
#
#
# Indices 1 2 3 4 5 6 
#
# 1 0.023794 -0.020313 0.001257 0.000000 0.000000 0.000000
# 2 -0.020313 0.031853 -0.004249 0.000000 0.000000 0.000000
# 3 0.001257 -0.004249 0.015466 0.000000 0.000000 0.000000
# 4 0.000000 0.000000 0.000000 -0.131570 0.000000 0.000000
# 5 0.000000 0.000000 0.000000 0.000000 0.046456 0.000000
# 6 0.000000 0.000000 0.000000 0.000000 0.000000 0.044879
#
#
# Mechanical properties :
#
#
# Convention : Reuss Voigt Hill
#
# Bulk Modulus (GPa) = 40.81049 44.80789 42.80919
# Shear Modulus (GPa) = 58.37370 17.16329 37.76849
#
# Velocity S-wave (km/s) = 5.06502 2.74646 4.07415
# Velocity P-wave (km/s) = 7.22091 5.45434 6.39888
#
# Compressibility (1/GPa) = 0.02450351
#
# Stress axis : x y z
#
# Youngs Moduli (GPa) = 42.02686 31.39464 64.65963
#
# Poissons Ratio (x) = 0.63772 -0.08128
# Poissons Ratio (y) = 0.85369 0.27471
# Poissons Ratio (z) = -0.05283 0.13338
#
# Static dielectric constant tensor:
#      x y z
#    x 1.901660 0.000000 0.000000 
#    y 0.000000 1.862180 0.000000 
#    z 0.000000 0.000000 1.910840 
# 
# From -- ./inp_files/5685.got.cif
#   From: 2010.05.17/outbox.cif.g08.bks.cpg/sg60_3_cif.got.tgz:5685.got - 2010.06.03 14:59:27.
