data_PCOD9458184
_publ_section_title
;
Structure prediction by ZEFSAII (Michael W. Deem and Ramdas Pophale) SiO2 
 PCOD9458184
Probable space group: P B C N
;
_chemical_formula_sum "Si O2"
_cell_formula_units_Z 64
_cell_length_a 30.833294
_cell_length_b 13.969760
_cell_length_c 7.822341
_cell_angle_alpha 90.000000
_cell_angle_beta 90.000000
_cell_angle_gamma 90.000000
_cell_volume 3369.346016
_symmetry_space_group_name_H-M "P B C N"
_symmetry_group_IT_number 60
_symmetry_cell_setting 'orthorhombic'
loop_
_space_group_symop_operation_xyz
x,y,z
1/2-x,1/2-y,1/2+z
1/2+x,1/2-y,-z
-x,y,1/2-z
-x,-y,-z
1/2+x,1/2+y,1/2-z
1/2-x,1/2+y,z
x,-y,1/2+z
loop_
_atom_site_type_symbol
_atom_site_label
_atom_site_fract_x
_atom_site_fract_y
_atom_site_fract_z
Si Si1 0.952128 0.354514 0.713455
Si Si2 0.288088 0.345175 0.111199
Si Si3 0.691410 0.049149 0.173280
Si Si4 0.361446 0.794924 0.715413
Si Si5 0.239284 0.949353 0.573229
Si Si6 0.047243 0.433261 0.169942
Si Si7 0.295150 0.723573 0.217893
Si Si8 0.634872 0.134520 0.673960
O O1 0.912122 0.283906 0.745268
O O2 0.951171 0.394337 0.521222
O O3 0.946168 0.451718 0.825484
O O4 0.000000 0.315087 0.750000
O O5 0.330131 0.295186 0.192027
O O6 0.286598 0.458959 0.143801
O O7 0.243280 0.300313 0.183954
O O8 0.289005 0.322990 0.907243
O O9 0.658434 0.134895 0.138111
O O10 0.722148 0.096259 0.314393
O O11 0.661433 0.960783 0.225958
O O12 0.728805 0.001442 0.059947
O O13 0.360396 0.848637 0.529843
O O14 0.207911 0.858063 0.571048
O O15 0.085621 0.382842 0.274210
O O16 0.000000 0.415735 0.250000
O O17 0.340562 0.778413 0.233989
#
# Coordination Sequence:
#
# PCOD9458184 Si02
#       8
#     8   8   8   8   8   8   8   8
#     4  11  22  36  55  79 108 142 179 222 273 327
#     4  11  22  36  53  77 106 144 186 227 269 318
#     4  12  21  34  54  74 109 146 185 224 263 318
#     4  11  22  36  54  79 108 145 185 225 271 321
#     4  12  22  37  51  76 108 149 187 225 270 312
#     4  11  22  36  55  79 108 143 178 223 271 328
#     4  11  23  36  53  76 107 145 185 228 270 317
#     4  11  22  35  54  80 108 144 186 224 271 324
#
# _framework density 18.994783999999999
#
# number of rings (size 3 to 8) (size 9 to 14) (size 15 to 20)
#    0.000    0.750    6.250    3.750    1.750    1.000 
#    0.000    0.000    0.000    0.000    0.000    0.875 
#    0.000    6.000    0.000    0.000    0.000    0.000 
#
# Total GULP energy -357029.370896 kJ/mol
# GULP energy per Si atom -5578.583920 kJ/mol
# Density = 1.895155 g / cm^3
# Si number density = 18.994784 Si / 1000 Ang^3
#
#
#
# Elastic Constant Matrix: (Units=GPa)
#
#
# Indices 1 2 3 4 5 6 
#
# 1 159.6515 53.0393 28.5138 0.0000 0.0000 0.0000
# 2 53.0393 83.2146 6.6762 0.0000 0.0000 0.0000
# 3 28.5138 6.6762 52.9825 0.0000 0.0000 0.0000
# 4 0.0000 0.0000 0.0000 17.8938 0.0000 0.0000
# 5 0.0000 0.0000 0.0000 0.0000 27.7772 0.0000
# 6 0.0000 0.0000 0.0000 0.0000 0.0000 26.8230
#
#
#
# Elastic Compliance Matrix: (Units=1/GPa)
#
#
# Indices 1 2 3 4 5 6 
#
# 1 0.008724 -0.005237 -0.004035 0.000000 0.000000 0.000000
# 2 -0.005237 0.015283 0.000892 0.000000 0.000000 0.000000
# 3 -0.004035 0.000892 0.020933 0.000000 0.000000 0.000000
# 4 0.000000 0.000000 0.000000 0.055885 0.000000 0.000000
# 5 0.000000 0.000000 0.000000 0.000000 0.036001 0.000000
# 6 0.000000 0.000000 0.000000 0.000000 0.000000 0.037281
#
#
# Mechanical properties :
#
#
# Convention : Reuss Voigt Hill
#
# Bulk Modulus (GPa) = 35.48396 52.47857 43.98127
# Shear Modulus (GPa) = 24.96738 28.34009 26.65373
#
# Velocity S-wave (km/s) = 3.62944 3.86682 3.75001
# Velocity P-wave (km/s) = 6.02373 6.90104 6.47725
#
# Compressibility (1/GPa) = 0.02818174
#
# Stress axis : x y z
#
# Youngs Moduli (GPa) = 114.62499 65.43062 47.77072
#
# Poissons Ratio (x) = 0.34265 0.19276
# Poissons Ratio (y) = 0.60027 -0.04264
# Poissons Ratio (z) = 0.46253 -0.05840
#
# Static dielectric constant tensor:
#      x y z
#    x 1.669020 0.000000 0.000000 
#    y 0.000000 1.664820 0.000000 
#    z 0.000000 0.000000 1.863550 
# 
# From -- ./inp_files/8549.got.cif
#   From: 2010.05.17/outbox.cif.g08.bks.cpg/sg60_5_cif.got.tgz:8549.got - 2010.06.03 14:59:27.
