data_PCOD9458981
_publ_section_title
;
Structure prediction by ZEFSAII (Michael W. Deem and Ramdas Pophale) SiO2 
 PCOD9458981
Probable space group: P B C A
;
_chemical_formula_sum "Si O2"
_cell_formula_units_Z 40
_cell_length_a 13.583126
_cell_length_b 21.080180
_cell_length_c 5.361883
_cell_angle_alpha 90.000000
_cell_angle_beta 90.000000
_cell_angle_gamma 90.000000
_cell_volume 1535.293380
_symmetry_space_group_name_H-M "P B C A"
_symmetry_group_IT_number 61
_symmetry_cell_setting 'orthorhombic'
loop_
_space_group_symop_operation_xyz
x,y,z
1/2-x,-y,1/2+z
1/2+x,1/2-y,-z
-x,1/2+y,1/2-z
-x,-y,-z
1/2+x,y,1/2-z
1/2-x,1/2+y,z
x,1/2-y,1/2+z
loop_
_atom_site_type_symbol
_atom_site_label
_atom_site_fract_x
_atom_site_fract_y
_atom_site_fract_z
Si Si1 0.385575 0.854533 0.094869
Si Si2 0.205669 0.481882 0.045350
Si Si3 0.964581 0.691598 0.403344
Si Si4 0.923159 0.097293 0.386240
Si Si5 0.839341 0.276604 0.073364
O O1 0.398029 0.819681 0.356088
O O2 0.301731 0.906650 0.077642
O O3 0.396790 0.812677 0.844747
O O4 0.483926 0.898050 0.067912
O O5 0.285850 0.503930 0.250484
O O6 0.118260 0.527951 0.136672
O O7 0.035036 0.629633 0.365292
O O8 0.047285 0.747691 0.404915
O O9 0.847437 0.150554 0.491929
O O10 0.795510 0.236707 0.844120
#
# Coordination Sequence:
#
# PCOD9458981 Si02
#       5
#     8   8   8   8   8
#     4  10  20  37  60  86 117 147 199 249 291 349
#     4  12  27  40  55  86 127 167 197 235 295 362
#     4   9  18  32  62  93 108 138 193 259 298 331
#     4   9  22  35  64  87 116 150 205 248 295 337
#     4  10  16  31  55  98 108 134 183 264 290 339
#
# _framework density 26.053654000000002
#
# number of rings (size 3 to 8) (size 9 to 14) (size 15 to 20)
#    1.200    0.800    2.000    1.800    2.800    0.800 
#    0.000    0.000    0.000    0.000   62.400    0.000 
#    0.000    0.000    0.000    0.000    0.000    0.000 
#
# Total GULP energy -223148.516070 kJ/mol
# GULP energy per Si atom -5578.712902 kJ/mol
# Density = 2.599435 g / cm^3
# Si number density = 26.053654 Si / 1000 Ang^3
#
#
#
# Elastic Constant Matrix: (Units=GPa)
#
#
# Indices 1 2 3 4 5 6 
#
# 1 29.9446 15.8072 15.1400 0.0000 0.0000 0.0000
# 2 15.8072 137.8560 14.5479 0.0000 0.0000 0.0000
# 3 15.1400 14.5479 154.4931 0.0000 0.0000 0.0000
# 4 0.0000 0.0000 0.0000 19.0106 0.0000 0.0000
# 5 0.0000 0.0000 0.0000 0.0000 35.9628 0.0000
# 6 0.0000 0.0000 0.0000 0.0000 0.0000 35.8753
#
#
#
# Elastic Compliance Matrix: (Units=1/GPa)
#
#
# Indices 1 2 3 4 5 6 
#
# 1 0.037112 -0.003910 -0.003269 0.000000 0.000000 0.000000
# 2 -0.003910 0.007739 -0.000346 0.000000 0.000000 0.000000
# 3 -0.003269 -0.000346 0.006826 0.000000 0.000000 0.000000
# 4 0.000000 0.000000 0.000000 0.052602 0.000000 0.000000
# 5 0.000000 0.000000 0.000000 0.000000 0.027807 0.000000
# 6 0.000000 0.000000 0.000000 0.000000 0.000000 0.027874
#
#
# Mechanical properties :
#
#
# Convention : Reuss Voigt Hill
#
# Bulk Modulus (GPa) = 27.30224 45.92044 36.61134
# Shear Modulus (GPa) = 26.70687 36.62298 31.66493
#
# Velocity S-wave (km/s) = 3.20515 3.75330 3.49000
# Velocity P-wave (km/s) = 4.91928 6.03710 5.50663
#
# Compressibility (1/GPa) = 0.03662703
#
# Stress axis : x y z
#
# Youngs Moduli (GPa) = 26.94555 129.21897 146.50647
#
# Poissons Ratio (x) = 0.50531 0.47888
# Poissons Ratio (y) = 0.10537 0.05062
# Poissons Ratio (z) = 0.08808 0.04465
#
# Static dielectric constant tensor:
#      x y z
#    x 2.153720 0.000000 0.000000 
#    y 0.000000 2.087760 0.000000 
#    z 0.000000 0.000000 2.113920 
# 
# From -- ./inp_files/461.got.cif
#   From: 2010.05.17/outbox.cif.g08.bks.cpg/sg61_1_cif.got.tgz:461.got - 2010.06.03 15:17:17.
