data_PCOD9458514
_publ_section_title
;
Structure prediction by ZEFSAII (Michael W. Deem and Ramdas Pophale) SiO2 
 PCOD9458514
Probable space group: P B C N
;
_chemical_formula_sum "Si O2"
_cell_formula_units_Z 64
_cell_length_a 11.790065
_cell_length_b 14.228284
_cell_length_c 16.078516
_cell_angle_alpha 90.000000
_cell_angle_beta 90.000000
_cell_angle_gamma 90.000000
_cell_volume 2697.209538
_symmetry_space_group_name_H-M "P B C N"
_symmetry_group_IT_number 60
_symmetry_cell_setting 'orthorhombic'
loop_
_space_group_symop_operation_xyz
x,y,z
1/2-x,1/2-y,1/2+z
1/2+x,1/2-y,-z
-x,y,1/2-z
-x,-y,-z
1/2+x,1/2+y,1/2-z
1/2-x,1/2+y,z
x,-y,1/2+z
loop_
_atom_site_type_symbol
_atom_site_label
_atom_site_fract_x
_atom_site_fract_y
_atom_site_fract_z
Si Si1 0.459051 0.339008 0.335914
Si Si2 0.416597 0.079931 0.533161
Si Si3 0.381369 0.023406 0.721317
Si Si4 0.199093 0.860546 0.932048
Si Si5 0.719185 0.799062 0.208829
Si Si6 0.986259 0.952342 0.848117
Si Si7 0.425927 0.783166 0.537947
Si Si8 0.254381 0.638496 0.159762
O O1 0.500000 0.294813 0.250000
O O2 0.328671 0.358272 0.319472
O O3 0.526498 0.435107 0.351347
O O4 0.478925 0.262382 0.404505
O O5 0.376348 0.056928 0.625585
O O6 0.314477 0.093243 0.466510
O O7 0.501665 0.168940 0.534233
O O8 0.500000 0.000000 0.500000
O O9 0.500000 0.979128 0.750000
O O10 0.369143 0.117789 0.775815
O O11 0.286084 0.942272 0.724853
O O12 0.207167 0.781189 0.860378
O O13 0.098389 0.927809 0.900135
O O14 0.152372 0.801121 0.009084
O O15 0.734172 0.737980 0.293091
O O16 0.874312 0.896600 0.876776
O O17 0.000000 0.927168 0.750000
O O18 0.343691 0.850908 0.590649
#
# Coordination Sequence:
#
# PCOD9458514 Si02
#       8
#     8   8   8   8   8   8   8   8
#     4  11  24  46  73 106 142 196 255 312 385 464
#     4  12  28  51  74 114 162 200 256 325 403 475
#     4  12  29  49  81 113 154 207 267 323 399 483
#     4  12  29  47  76 112 156 204 256 327 401 465
#     4  12  26  47  78 107 148 196 262 316 385 466
#     4  11  26  47  76 109 152 199 265 320 382 470
#     4  12  27  47  75 107 154 200 248 320 394 464
#     4  12  27  47  79 111 150 204 260 327 385 474
#
# _framework density 23.728228000000001
#
# number of rings (size 3 to 8) (size 9 to 14) (size 15 to 20)
#    0.000    0.250    5.000    3.000   10.500    1.500 
#    0.000    0.000    0.000    0.000    0.000    0.000 
#    0.000    0.000    0.000    0.000    0.000    0.000 
#
# Total GULP energy -357926.830604 kJ/mol
# GULP energy per Si atom -5592.606728 kJ/mol
# Density = 2.367422 g / cm^3
# Si number density = 23.728228 Si / 1000 Ang^3
#
#
#
# Elastic Constant Matrix: (Units=GPa)
#
#
# Indices 1 2 3 4 5 6 
#
# 1 121.5355 29.3192 9.8990 0.0000 0.0000 0.0000
# 2 29.3192 78.4765 14.5607 0.0000 0.0000 0.0000
# 3 9.8990 14.5607 51.6770 0.0000 0.0000 0.0000
# 4 0.0000 0.0000 0.0000 20.1962 0.0000 0.0000
# 5 0.0000 0.0000 0.0000 0.0000 26.8303 0.0000
# 6 0.0000 0.0000 0.0000 0.0000 0.0000 42.7183
#
#
#
# Elastic Compliance Matrix: (Units=1/GPa)
#
#
# Indices 1 2 3 4 5 6 
#
# 1 0.009076 -0.003238 -0.000826 0.000000 0.000000 0.000000
# 2 -0.003238 0.014601 -0.003494 0.000000 0.000000 0.000000
# 3 -0.000826 -0.003494 0.020494 0.000000 0.000000 0.000000
# 4 0.000000 0.000000 0.000000 0.049514 0.000000 0.000000
# 5 0.000000 0.000000 0.000000 0.000000 0.037271 0.000000
# 6 0.000000 0.000000 0.000000 0.000000 0.000000 0.023409
#
#
# Mechanical properties :
#
#
# Convention : Reuss Voigt Hill
#
# Bulk Modulus (GPa) = 34.41736 39.91629 37.16683
# Shear Modulus (GPa) = 27.90713 31.14299 29.52506
#
# Velocity S-wave (km/s) = 3.43317 3.62676 3.53129
# Velocity P-wave (km/s) = 5.50017 5.86486 5.68544
#
# Compressibility (1/GPa) = 0.02905511
#
# Stress axis : x y z
#
# Youngs Moduli (GPa) = 110.17577 68.49078 48.79560
#
# Poissons Ratio (x) = 0.22175 0.04032
# Poissons Ratio (y) = 0.35671 0.17048
# Poissons Ratio (z) = 0.09105 0.23929
#
# Static dielectric constant tensor:
#      x y z
#    x 1.987730 0.000000 0.000000 
#    y 0.000000 1.901140 0.000000 
#    z 0.000000 0.000000 1.934160 
# 
# From -- ./inp_files/20193.got.cif
#   From: 2010.05.17/outbox.cif.g08.bks.cpg/sg60_11_cif.got.tgz:20193.got - 2010.06.03 14:59:27.
