data_PCOD9459895
_publ_section_title
;
Structure prediction by ZEFSAII (Michael W. Deem and Ramdas Pophale) SiO2 
 PCOD9459895
Probable space group: P B C A
;
_chemical_formula_sum "Si O2"
_cell_formula_units_Z 40
_cell_length_a 16.201024
_cell_length_b 5.419449
_cell_length_c 17.683203
_cell_angle_alpha 90.000000
_cell_angle_beta 90.000000
_cell_angle_gamma 90.000000
_cell_volume 1552.596246
_symmetry_space_group_name_H-M "P B C A"
_symmetry_group_IT_number 61
_symmetry_cell_setting 'orthorhombic'
loop_
_space_group_symop_operation_xyz
x,y,z
1/2-x,-y,1/2+z
1/2+x,1/2-y,-z
-x,1/2+y,1/2-z
-x,-y,-z
1/2+x,y,1/2-z
1/2-x,1/2+y,z
x,1/2-y,1/2+z
loop_
_atom_site_type_symbol
_atom_site_label
_atom_site_fract_x
_atom_site_fract_y
_atom_site_fract_z
Si Si1 0.769488 0.287548 0.792141
Si Si2 0.041168 0.721053 0.722227
Si Si3 0.207094 0.207062 0.372691
Si Si4 0.078110 0.959860 0.055474
Si Si5 0.401964 0.960356 0.999482
O O1 0.750181 0.037080 0.834588
O O2 0.790628 0.791391 0.718413
O O3 0.862608 0.277922 0.761009
O O4 0.044640 0.620237 0.636726
O O5 0.004833 0.484694 0.767639
O O6 0.229677 0.486404 0.394372
O O7 0.126775 0.118776 0.416364
O O8 0.118940 0.229408 0.053172
O O9 0.130529 0.726778 0.025710
O O10 0.000000 0.000000 0.000000
O O11 0.500000 0.000000 0.000000
#
# Coordination Sequence:
#
# PCOD9459895 Si02
#       5
#     8   8   8   8   8
#     4  10  23  42  67 100 140 185 239 302 370 446
#     4  12  26  46  74 107 146 196 253 314 381 460
#     4  10  21  38  63  98 133 180 234 290 357 437
#     4  10  23  41  66 102 139 178 233 301 362 427
#     4  10  21  39  64  97 138 181 234 295 358 434
#
# _framework density 25.763300999999998
#
# number of rings (size 3 to 8) (size 9 to 14) (size 15 to 20)
#    0.000    1.600    0.000    3.600    0.000   19.200 
#    0.000    6.000    0.000    0.000    0.000    0.000 
#    0.000    0.000    0.000    0.000    0.000    0.000 
#
# Total GULP energy -223640.401204 kJ/mol
# GULP energy per Si atom -5591.010030 kJ/mol
# Density = 2.570466 g / cm^3
# Si number density = 25.763301 Si / 1000 Ang^3
#
#
#
# Elastic Constant Matrix: (Units=GPa)
#
#
# Indices 1 2 3 4 5 6 
#
# 1 77.4485 44.6217 20.7587 0.0000 0.0000 0.0000
# 2 44.6217 290.5333 19.1320 0.0000 0.0000 0.0000
# 3 20.7587 19.1320 92.9369 0.0000 0.0000 0.0000
# 4 0.0000 0.0000 0.0000 36.9686 0.0000 0.0000
# 5 0.0000 0.0000 0.0000 0.0000 45.1611 0.0000
# 6 0.0000 0.0000 0.0000 0.0000 0.0000 36.9215
#
#
#
# Elastic Compliance Matrix: (Units=1/GPa)
#
#
# Indices 1 2 3 4 5 6 
#
# 1 0.014896 -0.002097 -0.002896 0.000000 0.000000 0.000000
# 2 -0.002097 0.003784 -0.000311 0.000000 0.000000 0.000000
# 3 -0.002896 -0.000311 0.011471 0.000000 0.000000 0.000000
# 4 0.000000 0.000000 0.000000 0.027050 0.000000 0.000000
# 5 0.000000 0.000000 0.000000 0.000000 0.022143 0.000000
# 6 0.000000 0.000000 0.000000 0.000000 0.000000 0.027085
#
#
# Mechanical properties :
#
#
# Convention : Reuss Voigt Hill
#
# Bulk Modulus (GPa) = 51.16486 69.99375 60.57931
# Shear Modulus (GPa) = 40.46931 48.90398 44.68664
#
# Velocity S-wave (km/s) = 3.96765 4.36156 4.16926
# Velocity P-wave (km/s) = 6.39471 7.25199 6.83680
#
# Compressibility (1/GPa) = 0.01954466
#
# Stress axis : x y z
#
# Youngs Moduli (GPa) = 67.13128 264.23584 87.17868
#
# Poissons Ratio (x) = 0.55415 0.25243
# Poissons Ratio (y) = 0.14079 0.02708
# Poissons Ratio (z) = 0.19438 0.08208
#
# Static dielectric constant tensor:
#      x y z
#    x 1.949470 0.000000 0.000000 
#    y 0.000000 2.170620 0.000000 
#    z 0.000000 0.000000 2.011990 
# 
# From -- ./inp_files/9604.got.cif
#   From: 2010.05.17/outbox.cif.g08.bks.cpg/sg61_5_cif.got.tgz:9604.got - 2010.06.03 15:17:17.
