data_PCOD9459363
_publ_section_title
;
Structure prediction by ZEFSAII (Michael W. Deem and Ramdas Pophale) SiO2 
 PCOD9459363
Probable space group: P B C A
;
_chemical_formula_sum "Si O2"
_cell_formula_units_Z 56
_cell_length_a 13.385487
_cell_length_b 13.857882
_cell_length_c 12.002922
_cell_angle_alpha 90.000000
_cell_angle_beta 90.000000
_cell_angle_gamma 90.000000
_cell_volume 2226.476007
_symmetry_space_group_name_H-M "P B C A"
_symmetry_group_IT_number 61
_symmetry_cell_setting 'orthorhombic'
loop_
_space_group_symop_operation_xyz
x,y,z
1/2-x,-y,1/2+z
1/2+x,1/2-y,-z
-x,1/2+y,1/2-z
-x,-y,-z
1/2+x,y,1/2-z
1/2-x,1/2+y,z
x,1/2-y,1/2+z
loop_
_atom_site_type_symbol
_atom_site_label
_atom_site_fract_x
_atom_site_fract_y
_atom_site_fract_z
Si Si1 0.350971 0.079248 0.702639
Si Si2 0.210804 0.061781 0.011766
Si Si3 0.253709 0.277543 0.367901
Si Si4 0.350341 0.077906 0.347843
Si Si5 0.503582 0.854836 0.487907
Si Si6 0.432265 0.656357 0.465996
Si Si7 0.539508 0.491246 0.343713
O O1 0.270005 0.146741 0.765888
O O2 0.413980 0.137112 0.608406
O O3 0.438133 0.051986 0.790732
O O4 0.310252 0.985200 0.632600
O O5 0.276146 0.155662 0.978691
O O6 0.231119 0.973262 0.927489
O O7 0.105085 0.102486 0.964315
O O8 0.324539 0.189180 0.334595
O O9 0.153693 0.213860 0.397017
O O10 0.455033 0.082372 0.412230
O O11 0.374938 0.014877 0.243019
O O12 0.488987 0.745196 0.522831
O O13 0.504263 0.595188 0.387592
O O14 0.413171 0.578094 0.562898
#
# Coordination Sequence:
#
# PCOD9459363 Si02
#       7
#     8   8   8   8   8   8   8
#     4  11  21  44  77 103 142 208 259 305 394 474
#     4  10  22  46  69 104 148 193 258 324 381 474
#     4  11  26  44  67 113 159 195 247 329 411 452
#     4  11  21  44  74 102 143 194 256 315 387 460
#     4  10  19  45  71 105 135 196 258 311 375 473
#     4  10  25  43  67 108 152 188 255 323 375 469
#     4  11  22  45  77 102 142 207 266 309 376 474
#
# _framework density 25.151854
#
# number of rings (size 3 to 8) (size 9 to 14) (size 15 to 20)
#    0.000    1.429    2.857    2.571    2.000    0.000 
#   10.286    0.000    0.000    0.000    0.000    0.000 
#    0.000    0.000    0.000    0.000    0.000    0.000 
#
# Total GULP energy -312363.374459 kJ/mol
# GULP energy per Si atom -5577.917401 kJ/mol
# Density = 2.509461 g / cm^3
# Si number density = 25.151854 Si / 1000 Ang^3
#
#
#
# Elastic Constant Matrix: (Units=GPa)
#
#
# Indices 1 2 3 4 5 6 
#
# 1 92.3294 59.3477 72.8416 0.0000 0.0000 0.0000
# 2 59.3477 136.8778 18.0206 0.0000 0.0000 0.0000
# 3 72.8416 18.0206 75.0232 0.0000 0.0000 0.0000
# 4 0.0000 0.0000 0.0000 -911.5983 0.0000 0.0000
# 5 0.0000 0.0000 0.0000 0.0000 35.6532 0.0000
# 6 0.0000 0.0000 0.0000 0.0000 0.0000 14.9778
#
#
#
# Elastic Compliance Matrix: (Units=1/GPa)
#
#
# Indices 1 2 3 4 5 6 
#
# 1 0.119162 -0.037624 -0.106660 0.000000 0.000000 0.000000
# 2 -0.037624 0.019424 0.031865 0.000000 0.000000 0.000000
# 3 -0.106660 0.031865 0.109234 0.000000 0.000000 0.000000
# 4 0.000000 0.000000 0.000000 -0.001097 0.000000 0.000000
# 5 0.000000 0.000000 0.000000 0.000000 0.028048 0.000000
# 6 0.000000 0.000000 0.000000 0.000000 0.000000 0.066766
#
#
# Mechanical properties :
#
#
# Convention : Reuss Voigt Hill
#
# Bulk Modulus (GPa) = 43.51479 67.18335 55.34907
# Shear Modulus (GPa) = 8.71026 -161.92543 -76.60759
#
# Velocity S-wave (km/s) = 1.86295 -8.03236 -5.52487
# Velocity P-wave (km/s) = 4.68677 7.69780 4.31800
#
# Compressibility (1/GPa) = 0.02298069
#
# Stress axis : x y z
#
# Youngs Moduli (GPa) = 8.39191 51.48307 9.15470
#
# Poissons Ratio (x) = 1.93702 0.97644
# Poissons Ratio (y) = 0.31574 -0.29171
# Poissons Ratio (z) = 0.89508 -1.64049
#
# Static dielectric constant tensor:
#      x y z
#    x 2.080230 0.000000 0.000000 
#    y 0.000000 1.990540 0.000000 
#    z 0.000000 0.000000 2.034390 
# 
# From -- ./inp_files/5805.got.cif
#   From: 2010.05.17/outbox.cif.g08.bks.cpg/sg61_3_cif.got.tgz:5805.got - 2010.06.03 15:17:17.
