data_PCOD9459235
_publ_section_title
;
Structure prediction by ZEFSAII (Michael W. Deem and Ramdas Pophale) SiO2 
 PCOD9459235
Probable space group: P B C A
;
_chemical_formula_sum "Si O2"
_cell_formula_units_Z 56
_cell_length_a 5.348046
_cell_length_b 17.190849
_cell_length_c 29.870085
_cell_angle_alpha 90.000000
_cell_angle_beta 90.000000
_cell_angle_gamma 90.000000
_cell_volume 2746.179483
_symmetry_space_group_name_H-M "P B C A"
_symmetry_group_IT_number 61
_symmetry_cell_setting 'orthorhombic'
loop_
_space_group_symop_operation_xyz
x,y,z
1/2-x,-y,1/2+z
1/2+x,1/2-y,-z
-x,1/2+y,1/2-z
-x,-y,-z
1/2+x,y,1/2-z
1/2-x,1/2+y,z
x,1/2-y,1/2+z
loop_
_atom_site_type_symbol
_atom_site_label
_atom_site_fract_x
_atom_site_fract_y
_atom_site_fract_z
Si Si1 0.749978 0.985621 0.138569
Si Si2 0.750000 0.051734 0.992326
Si Si3 0.749977 0.984255 0.240319
Si Si4 0.749978 0.602197 0.889167
Si Si5 0.750037 0.844295 0.776096
Si Si6 0.750074 0.641450 0.080802
Si Si7 0.249922 0.285748 0.621728
O O1 0.749983 0.013088 0.189652
O O2 0.499877 0.936608 0.130390
O O3 0.000064 0.936602 0.130388
O O4 0.749983 0.058256 0.105574
O O5 0.750010 0.084491 0.942191
O O6 0.749985 0.121126 0.028426
O O7 0.500000 0.000000 0.000000
O O8 0.000000 0.000000 0.000000
O O9 0.499976 0.938054 0.249999
O O10 0.749970 0.061037 0.271559
O O11 0.749994 0.692959 0.878693
O O12 0.500028 0.818222 0.750003
O O13 0.750061 0.818774 0.827559
O O14 0.499388 0.684606 0.096651
O O15 0.000851 0.684567 0.096640
#
# Coordination Sequence:
#
# PCOD9459235 Si02
#       7
#     8   8   8   8   8   8   8
#     4  12  23  42  70  97 128 184 227 273 336 399
#     4  12  23  45  68 102 136 179 229 281 338 395
#     4  10  19  35  60  92 123 158 221 281 309 381
#     4  12  26  45  66 100 147 173 219 291 349 402
#     4  10  20  39  62  90 129 169 215 279 324 391
#     4  12  23  41  73  98 130 185 237 270 322 418
#     4  12  26  43  67 105 137 178 224 281 352 398
#
# _framework density 20.391966
#
# number of rings (size 3 to 8) (size 9 to 14) (size 15 to 20)
#    0.000    0.571    2.857    7.714    0.000    1.143 
#    0.000    4.286    0.000    0.000    0.000    0.000 
#    0.000    0.000    0.000    0.000    0.000    0.000 
#
# Total GULP energy -313292.895557 kJ/mol
# GULP energy per Si atom -5594.515992 kJ/mol
# Density = 2.034555 g / cm^3
# Si number density = 20.391966 Si / 1000 Ang^3
#
#
#
# Elastic Constant Matrix: (Units=GPa)
#
#
# Indices 1 2 3 4 5 6 
#
# 1 209.5818 50.7376 33.5789 0.0000 0.0000 0.0000
# 2 50.7376 104.7216 6.1411 0.0000 0.0000 0.0000
# 3 33.5789 6.1411 107.0191 0.0000 0.0000 0.0000
# 4 0.0000 0.0000 0.0000 17.5827 0.0000 0.0000
# 5 0.0000 0.0000 0.0000 0.0000 46.9865 0.0000
# 6 0.0000 0.0000 0.0000 0.0000 0.0000 38.7190
#
#
#
# Elastic Compliance Matrix: (Units=1/GPa)
#
#
# Indices 1 2 3 4 5 6 
#
# 1 0.005675 -0.002654 -0.001628 0.000000 0.000000 0.000000
# 2 -0.002654 0.010823 0.000212 0.000000 0.000000 0.000000
# 3 -0.001628 0.000212 0.009843 0.000000 0.000000 0.000000
# 4 0.000000 0.000000 0.000000 0.056874 0.000000 0.000000
# 5 0.000000 0.000000 0.000000 0.000000 0.021283 0.000000
# 6 0.000000 0.000000 0.000000 0.000000 0.000000 0.025827
#
#
# Mechanical properties :
#
#
# Convention : Reuss Voigt Hill
#
# Bulk Modulus (GPa) = 54.94759 66.91530 60.93145
# Shear Modulus (GPa) = 34.59451 42.71531 38.65491
#
# Velocity S-wave (km/s) = 4.12330 4.58177 4.35857
# Velocity P-wave (km/s) = 7.04791 7.80230 7.43468
#
# Compressibility (1/GPa) = 0.01819916
#
# Stress axis : x y z
#
# Youngs Moduli (GPa) = 176.21843 92.39961 101.59640
#
# Poissons Ratio (x) = 0.24522 0.16542
# Poissons Ratio (y) = 0.46767 -0.02151
# Poissons Ratio (z) = 0.28693 -0.01956
#
# Static dielectric constant tensor:
#      x y z
#    x 1.807430 0.000000 0.000000 
#    y 0.000000 1.673390 0.000000 
#    z 0.000000 0.000000 1.737940 
# 
# From -- ./inp_files/599.got.cif
#   From: 2010.05.17/outbox.cif.g08.bks.cpg/sg61_1_cif.got.tgz:599.got - 2010.06.03 15:17:17.
