data_PCOD9459590
_publ_section_title
;
Structure prediction by ZEFSAII (Michael W. Deem and Ramdas Pophale) SiO2 
 PCOD9459590
Probable space group: P B C A
;
_chemical_formula_sum "Si O2"
_cell_formula_units_Z 52
_cell_length_a 21.707500
_cell_length_b 7.722554
_cell_length_c 11.352657
_cell_angle_alpha 90.000000
_cell_angle_beta 90.000000
_cell_angle_gamma 90.000000
_cell_volume 1903.129232
_symmetry_space_group_name_H-M "P B C A"
_symmetry_group_IT_number 61
_symmetry_cell_setting 'orthorhombic'
loop_
_space_group_symop_operation_xyz
x,y,z
1/2-x,-y,1/2+z
1/2+x,1/2-y,-z
-x,1/2+y,1/2-z
-x,-y,-z
1/2+x,y,1/2-z
1/2-x,1/2+y,z
x,1/2-y,1/2+z
loop_
_atom_site_type_symbol
_atom_site_label
_atom_site_fract_x
_atom_site_fract_y
_atom_site_fract_z
Si Si1 0.000000 0.500000 0.000000
Si Si2 0.316802 0.671030 0.760047
Si Si3 0.941322 0.103704 0.856669
Si Si4 0.243097 0.061538 0.111883
Si Si5 0.053061 0.506711 0.242362
Si Si6 0.871597 0.518066 0.140047
Si Si7 0.835093 0.293822 0.514374
O O1 0.980270 0.580687 0.870619
O O2 0.072049 0.471039 0.951651
O O3 0.260474 0.539937 0.732686
O O4 0.379193 0.563151 0.762977
O O5 0.304421 0.789156 0.645119
O O6 0.326734 0.815186 0.861926
O O7 0.947299 0.296200 0.801940
O O8 0.903051 0.983638 0.768504
O O9 0.901009 0.137349 0.971953
O O10 0.009968 0.030911 0.854562
O O11 0.212421 0.948759 0.008485
O O12 0.306815 0.147415 0.072307
O O13 0.842891 0.324796 0.127950
#
# Coordination Sequence:
#
# PCOD9459590 Si02
#       7
#     4   8   8   8   8   8   8
#     4  10  20  38  64  96 128 172 212 268 338 400
#     4  11  22  40  67  95 128 182 220 279 340 402
#     4  11  22  41  66  95 132 172 214 278 335 402
#     4  10  23  42  67  88 133 175 228 278 334 392
#     4  11  22  41  68  95 135 173 218 278 343 395
#     4  11  23  39  68  97 132 177 221 272 346 405
#     4  11  22  45  62  95 131 173 219 280 326 406
#
# _framework density 27.323419999999999
#
# number of rings (size 3 to 8) (size 9 to 14) (size 15 to 20)
#    0.000    1.231    4.615    1.846    0.000    1.231 
#    0.000    6.923    0.000    0.000    0.000    0.000 
#    0.000    0.000    0.000    0.000    0.000    0.000 
#
# Total GULP energy -289632.653240 kJ/mol
# GULP energy per Si atom -5569.858716 kJ/mol
# Density = 2.726123 g / cm^3
# Si number density = 27.323420 Si / 1000 Ang^3
#
#
#
# Elastic Constant Matrix: (Units=GPa)
#
#
# Indices 1 2 3 4 5 6 
#
# 1 110.4049 36.5901 32.4302 0.0000 0.0000 0.0000
# 2 36.5901 72.7563 2.1961 0.0000 0.0000 0.0000
# 3 32.4302 2.1961 47.5199 0.0000 0.0000 0.0000
# 4 0.0000 0.0000 0.0000 35.3588 0.0000 0.0000
# 5 0.0000 0.0000 0.0000 0.0000 42.2740 0.0000
# 6 0.0000 0.0000 0.0000 0.0000 0.0000 44.9687
#
#
#
# Elastic Compliance Matrix: (Units=1/GPa)
#
#
# Indices 1 2 3 4 5 6 
#
# 1 0.014021 -0.006772 -0.009255 0.000000 0.000000 0.000000
# 2 -0.006772 0.017034 0.003834 0.000000 0.000000 0.000000
# 3 -0.009255 0.003834 0.027183 0.000000 0.000000 0.000000
# 4 0.000000 0.000000 0.000000 0.028282 0.000000 0.000000
# 5 0.000000 0.000000 0.000000 0.000000 0.023655 0.000000
# 6 0.000000 0.000000 0.000000 0.000000 0.000000 0.022238
#
#
# Mechanical properties :
#
#
# Convention : Reuss Voigt Hill
#
# Bulk Modulus (GPa) = 29.54039 41.45712 35.49875
# Shear Modulus (GPa) = 29.74732 35.15128 32.44930
#
# Velocity S-wave (km/s) = 3.30314 3.59066 3.44990
# Velocity P-wave (km/s) = 5.03811 5.69176 5.37488
#
# Compressibility (1/GPa) = 0.03385196
#
# Stress axis : x y z
#
# Youngs Moduli (GPa) = 71.32404 58.70477 36.78763
#
# Poissons Ratio (x) = 0.39753 0.34049
# Poissons Ratio (y) = 0.48299 -0.14105
# Poissons Ratio (z) = 0.66013 -0.22508
#
# Static dielectric constant tensor:
#      x y z
#    x 2.150270 0.000000 0.000000 
#    y 0.000000 2.138480 0.000000 
#    z 0.000000 0.000000 2.206980 
# 
# From -- ./inp_files/8329.got.cif
#   From: 2010.05.17/outbox.cif.g08.bks.cpg/sg61_5_cif.got.tgz:8329.got - 2010.06.03 15:17:17.
