data_PCOD9459609
_publ_section_title
;
Structure prediction by ZEFSAII (Michael W. Deem and Ramdas Pophale) SiO2 
 PCOD9459609
Probable space group: P B C A
;
_chemical_formula_sum "Si O2"
_cell_formula_units_Z 48
_cell_length_a 8.843842
_cell_length_b 23.757684
_cell_length_c 9.087801
_cell_angle_alpha 90.000000
_cell_angle_beta 90.000000
_cell_angle_gamma 90.000000
_cell_volume 1909.430630
_symmetry_space_group_name_H-M "P B C A"
_symmetry_group_IT_number 61
_symmetry_cell_setting 'orthorhombic'
loop_
_space_group_symop_operation_xyz
x,y,z
1/2-x,-y,1/2+z
1/2+x,1/2-y,-z
-x,1/2+y,1/2-z
-x,-y,-z
1/2+x,y,1/2-z
1/2-x,1/2+y,z
x,1/2-y,1/2+z
loop_
_atom_site_type_symbol
_atom_site_label
_atom_site_fract_x
_atom_site_fract_y
_atom_site_fract_z
Si Si1 0.363208 0.235676 0.038930
Si Si2 0.764250 0.980030 0.928222
Si Si3 0.841758 0.638343 0.339011
Si Si4 0.644568 0.328594 0.519683
Si Si5 0.942303 0.963261 0.220220
Si Si6 0.936265 0.351643 0.390078
O O1 0.255534 0.193237 0.123782
O O2 0.490782 0.198421 0.962418
O O3 0.445474 0.284472 0.135702
O O4 0.254141 0.274971 0.942909
O O5 0.744041 0.916448 0.873114
O O6 0.621785 0.015839 0.874782
O O7 0.810391 0.975965 0.099165
O O8 0.913368 0.003568 0.844445
O O9 0.742755 0.638214 0.912526
O O10 0.982184 0.637912 0.452099
O O11 0.610984 0.139742 0.170102
O O12 0.991746 0.898005 0.214083
#
# Coordination Sequence:
#
# PCOD9459609 Si02
#       6
#     8   8   8   8   8   8
#     4  10  20  39  59  96 130 159 214 274 330 407
#     4  10  25  42  74  96 136 180 230 289 330 404
#     4  11  21  39  66  94 122 175 224 268 336 416
#     4  10  21  35  64  91 127 168 211 266 339 400
#     4  10  23  47  67 100 136 177 235 286 338 398
#     4   9  20  42  60  92 132 166 218 278 334 397
#
# _framework density 25.138383999999999
#
# number of rings (size 3 to 8) (size 9 to 14) (size 15 to 20)
#    1.000    1.000    1.667    1.000    9.333    0.667 
#    3.000    3.333    0.000    0.000    0.000    0.000 
#    0.000    0.000    0.000    0.000    0.000    0.000 
#
# Total GULP energy -268200.893584 kJ/mol
# GULP energy per Si atom -5587.518616 kJ/mol
# Density = 2.508117 g / cm^3
# Si number density = 25.138384 Si / 1000 Ang^3
#
#
#
# Elastic Constant Matrix: (Units=GPa)
#
#
# Indices 1 2 3 4 5 6 
#
# 1 57.9296 0.3111 30.2515 0.0000 0.0000 0.0000
# 2 0.3111 116.3684 29.4793 0.0000 0.0000 0.0000
# 3 30.2515 29.4793 60.3334 0.0000 0.0000 0.0000
# 4 0.0000 0.0000 0.0000 16.2987 0.0000 0.0000
# 5 0.0000 0.0000 0.0000 0.0000 11.4873 0.0000
# 6 0.0000 0.0000 0.0000 0.0000 0.0000 45.0924
#
#
#
# Elastic Compliance Matrix: (Units=1/GPa)
#
#
# Indices 1 2 3 4 5 6 
#
# 1 0.024565 0.003486 -0.014021 0.000000 0.000000 0.000000
# 2 0.003486 0.010302 -0.006782 0.000000 0.000000 0.000000
# 3 -0.014021 -0.006782 0.026918 0.000000 0.000000 0.000000
# 4 0.000000 0.000000 0.000000 0.061355 0.000000 0.000000
# 5 0.000000 0.000000 0.000000 0.000000 0.087052 0.000000
# 6 0.000000 0.000000 0.000000 0.000000 0.000000 0.022177
#
#
# Mechanical properties :
#
#
# Convention : Reuss Voigt Hill
#
# Bulk Modulus (GPa) = 36.82782 39.41280 38.12031
# Shear Modulus (GPa) = 18.11251 26.21498 22.16375
#
# Velocity S-wave (km/s) = 2.68715 3.23279 2.97251
# Velocity P-wave (km/s) = 4.93047 5.44490 5.19406
#
# Compressibility (1/GPa) = 0.02715338
#
# Stress axis : x y z
#
# Youngs Moduli (GPa) = 40.70782 97.06810 37.14972
#
# Poissons Ratio (x) = -0.33839 0.52086
# Poissons Ratio (y) = -0.14191 0.25193
# Poissons Ratio (z) = 0.57075 0.65828
#
# Static dielectric constant tensor:
#      x y z
#    x 1.982740 0.000000 0.000000 
#    y 0.000000 1.999050 0.000000 
#    z 0.000000 0.000000 2.009140 
# 
# From -- ./inp_files/2282.got.cif
#   From: 2010.05.17/outbox.cif.g08.bks.cpg/sg61_2_cif.got.tgz:2282.got - 2010.06.03 15:17:17.
