data_PCOD9459051
_publ_section_title
;
Structure prediction by ZEFSAII (Michael W. Deem and Ramdas Pophale) SiO2 
 PCOD9459051
Probable space group: P B C A
;
_chemical_formula_sum "Si O2"
_cell_formula_units_Z 64
_cell_length_a 18.575655
_cell_length_b 15.269589
_cell_length_c 9.326243
_cell_angle_alpha 90.000000
_cell_angle_beta 90.000000
_cell_angle_gamma 90.000000
_cell_volume 2645.319974
_symmetry_space_group_name_H-M "P B C A"
_symmetry_group_IT_number 61
_symmetry_cell_setting 'orthorhombic'
loop_
_space_group_symop_operation_xyz
x,y,z
1/2-x,-y,1/2+z
1/2+x,1/2-y,-z
-x,1/2+y,1/2-z
-x,-y,-z
1/2+x,y,1/2-z
1/2-x,1/2+y,z
x,1/2-y,1/2+z
loop_
_atom_site_type_symbol
_atom_site_label
_atom_site_fract_x
_atom_site_fract_y
_atom_site_fract_z
Si Si1 0.858000 0.158863 0.009627
Si Si2 0.285912 0.267339 0.249520
Si Si3 0.260366 0.009967 0.372812
Si Si4 0.970159 0.253377 0.179667
Si Si5 0.540786 0.876337 0.937500
Si Si6 0.695089 0.579021 0.401498
Si Si7 0.878289 0.872269 0.629000
Si Si8 0.634385 0.253305 0.360993
O O1 0.812825 0.235889 0.094426
O O2 0.826313 0.066298 0.062817
O O3 0.938219 0.178047 0.070389
O O4 0.839046 0.170975 0.842657
O O5 0.292534 0.171623 0.173595
O O6 0.204141 0.293688 0.215704
O O7 0.272284 0.006676 0.204501
O O8 0.187191 0.064074 0.403968
O O9 0.240441 0.921506 0.452709
O O10 0.952656 0.207654 0.330232
O O11 0.054285 0.276388 0.189680
O O12 0.945628 0.340985 0.097669
O O13 0.609446 0.935393 0.906673
O O14 0.458993 0.906352 0.905968
O O15 0.867774 0.845653 0.796245
O O16 0.866449 0.787118 0.524999
#
# Coordination Sequence:
#
# PCOD9459051 Si02
#       8
#     8   8   8   8   8   8   8   8
#     4  11  19  34  57  84 110 142 183 231 283 330
#     4  11  19  34  57  84 110 142 183 231 283 330
#     4  11  23  40  55  80 113 153 192 230 280 329
#     4  10  18  33  58  87 114 141 178 227 282 336
#     4  10  20  36  59  85 115 145 180 230 286 336
#     4  11  23  40  55  80 113 153 192 230 280 329
#     4  10  20  36  59  85 115 145 180 230 286 336
#     4  10  18  33  58  87 114 141 178 227 282 336
#
# _framework density 24.193670000000001
#
# number of rings (size 3 to 8) (size 9 to 14) (size 15 to 20)
#    0.000    1.500    7.500    0.000    0.000    1.500 
#    4.500    0.000    0.000    3.000    0.000    0.000 
#    0.000    0.000    0.000    0.000    0.000    0.000 
#
# Total GULP energy -356295.925655 kJ/mol
# GULP energy per Si atom -5567.123838 kJ/mol
# Density = 2.413860 g / cm^3
# Si number density = 24.193670 Si / 1000 Ang^3
#
#
#
# Elastic Constant Matrix: (Units=GPa)
#
#
# Indices 1 2 3 4 5 6 
#
# 1 148.2003 5.2477 34.5585 0.0000 0.0000 0.0000
# 2 5.2477 31.6215 0.9409 0.0000 0.0000 0.0000
# 3 34.5585 0.9409 96.6437 0.0000 0.0000 0.0000
# 4 0.0000 0.0000 0.0000 33.5892 0.0000 0.0000
# 5 0.0000 0.0000 0.0000 0.0000 36.4809 0.0000
# 6 0.0000 0.0000 0.0000 0.0000 0.0000 21.1653
#
#
#
# Elastic Compliance Matrix: (Units=1/GPa)
#
#
# Indices 1 2 3 4 5 6 
#
# 1 0.007403 -0.001150 -0.002636 0.000000 0.000000 0.000000
# 2 -0.001150 0.031812 0.000102 0.000000 0.000000 0.000000
# 3 -0.002636 0.000102 0.011289 0.000000 0.000000 0.000000
# 4 0.000000 0.000000 0.000000 0.029771 0.000000 0.000000
# 5 0.000000 0.000000 0.000000 0.000000 0.027412 0.000000
# 6 0.000000 0.000000 0.000000 0.000000 0.000000 0.047247
#
#
# Mechanical properties :
#
#
# Convention : Reuss Voigt Hill
#
# Bulk Modulus (GPa) = 23.18325 39.77331 31.47828
# Shear Modulus (GPa) = 28.29953 33.96164 31.13059
#
# Velocity S-wave (km/s) = 3.42381 3.75072 3.59099
# Velocity P-wave (km/s) = 5.02326 5.93569 5.49843
#
# Compressibility (1/GPa) = 0.04313460
#
# Stress axis : x y z
#
# Youngs Moduli (GPa) = 135.07957 31.43483 88.58249
#
# Poissons Ratio (x) = 0.03615 0.23351
# Poissons Ratio (y) = 0.15536 -0.00900
# Poissons Ratio (z) = 0.35607 -0.00319
#
# Static dielectric constant tensor:
#      x y z
#    x 2.008090 0.000000 0.000000 
#    y 0.000000 1.964370 0.000000 
#    z 0.000000 0.000000 2.142980 
# 
# From -- ./inp_files/4124.got.cif
#   From: 2010.05.17/outbox.cif.g08.bks.cpg/sg61_3_cif.got.tgz:4124.got - 2010.06.03 15:17:17.
