data_PCOD9459194
_publ_section_title
;
Structure prediction by ZEFSAII (Michael W. Deem and Ramdas Pophale) SiO2 
 PCOD9459194
Probable space group: P B C A
;
_chemical_formula_sum "Si O2"
_cell_formula_units_Z 48
_cell_length_a 17.893267
_cell_length_b 13.853727
_cell_length_c 9.801542
_cell_angle_alpha 90.000000
_cell_angle_beta 90.000000
_cell_angle_gamma 90.000000
_cell_volume 2429.688918
_symmetry_space_group_name_H-M "P B C A"
_symmetry_group_IT_number 61
_symmetry_cell_setting 'orthorhombic'
loop_
_space_group_symop_operation_xyz
x,y,z
1/2-x,-y,1/2+z
1/2+x,1/2-y,-z
-x,1/2+y,1/2-z
-x,-y,-z
1/2+x,y,1/2-z
1/2-x,1/2+y,z
x,1/2-y,1/2+z
loop_
_atom_site_type_symbol
_atom_site_label
_atom_site_fract_x
_atom_site_fract_y
_atom_site_fract_z
Si Si1 0.082702 0.927222 0.366781
Si Si2 0.287676 0.297744 0.330127
Si Si3 0.092849 0.443685 0.133528
Si Si4 0.201126 0.000027 0.856505
Si Si5 0.199690 0.262673 0.074108
Si Si6 0.174415 0.449971 0.652681
O O1 0.126917 0.825665 0.357132
O O2 0.993990 0.917051 0.358041
O O3 0.101752 0.979774 0.510251
O O4 0.112449 0.997771 0.245913
O O5 0.246361 0.399537 0.355110
O O6 0.268583 0.268693 0.178457
O O7 0.240693 0.230342 0.429957
O O8 0.123687 0.485932 0.275911
O O9 0.142994 0.350022 0.099263
O O10 0.253156 0.941962 0.750842
O O11 0.190357 0.984069 0.018075
O O12 0.159525 0.159042 0.099834
#
# Coordination Sequence:
#
# PCOD9459194 Si02
#       6
#     8   8   8   8   8   8
#     4  10  21  37  55  78 112 150 183 222 281 340
#     4   9  19  34  53  78 105 140 185 227 270 322
#     4  10  20  36  55  76 110 148 183 227 280 332
#     4   9  18  33  55  81 105 138 184 222 269 336
#     4  10  19  34  56  80 106 140 186 232 270 318
#     4  10  19  34  58  83 108 142 185 228 270 325
#
# _framework density 19.755614999999999
#
# number of rings (size 3 to 8) (size 9 to 14) (size 15 to 20)
#    0.000    2.333    0.000    4.000    0.000    3.333 
#    0.000   10.000    0.000    0.000    0.000    0.000 
#    0.000    0.000    0.000    0.000    0.000    0.000 
#
# Total GULP energy -267444.772034 kJ/mol
# GULP energy per Si atom -5571.766084 kJ/mol
# Density = 1.971065 g / cm^3
# Si number density = 19.755615 Si / 1000 Ang^3
#
#
#
# Elastic Constant Matrix: (Units=GPa)
#
#
# Indices 1 2 3 4 5 6 
#
# 1 110.1440 30.6547 40.5422 0.0000 0.0000 0.0000
# 2 30.6547 49.7767 17.8062 0.0000 0.0000 0.0000
# 3 40.5422 17.8062 123.1060 0.0000 0.0000 0.0000
# 4 0.0000 0.0000 0.0000 9.6355 0.0000 0.0000
# 5 0.0000 0.0000 0.0000 0.0000 23.4638 0.0000
# 6 0.0000 0.0000 0.0000 0.0000 0.0000 18.1268
#
#
#
# Elastic Compliance Matrix: (Units=1/GPa)
#
#
# Indices 1 2 3 4 5 6 
#
# 1 0.011937 -0.006270 -0.003024 0.000000 0.000000 0.000000
# 2 -0.006270 0.024479 -0.001476 0.000000 0.000000 0.000000
# 3 -0.003024 -0.001476 0.009333 0.000000 0.000000 0.000000
# 4 0.000000 0.000000 0.000000 0.103783 0.000000 0.000000
# 5 0.000000 0.000000 0.000000 0.000000 0.042619 0.000000
# 6 0.000000 0.000000 0.000000 0.000000 0.000000 0.055167
#
#
# Mechanical properties :
#
#
# Convention : Reuss Voigt Hill
#
# Bulk Modulus (GPa) = 41.30733 51.22591 46.26662
# Shear Modulus (GPa) = 18.05534 23.18012 20.61773
#
# Velocity S-wave (km/s) = 3.02641 3.42913 3.23404
# Velocity P-wave (km/s) = 5.75906 6.45481 6.11684
#
# Compressibility (1/GPa) = 0.02420878
#
# Stress axis : x y z
#
# Youngs Moduli (GPa) = 83.77199 40.85177 107.15156
#
# Poissons Ratio (x) = 0.25612 0.32407
# Poissons Ratio (y) = 0.52521 0.15815
# Poissons Ratio (z) = 0.25336 0.06029
#
# Static dielectric constant tensor:
#      x y z
#    x 1.678670 0.000000 0.000000 
#    y 0.000000 1.782020 0.000000 
#    z 0.000000 0.000000 1.732200 
# 
# From -- ./inp_files/3440.got.cif
#   From: 2010.05.17/outbox.cif.g08.bks.cpg/sg61_2_cif.got.tgz:3440.got - 2010.06.03 15:17:17.
