data_PCOD9459375
_publ_section_title
;
Structure prediction by ZEFSAII (Michael W. Deem and Ramdas Pophale) SiO2 
 PCOD9459375
Probable space group: P B C A
;
_chemical_formula_sum "Si O2"
_cell_formula_units_Z 48
_cell_length_a 14.052622
_cell_length_b 9.109288
_cell_length_c 18.349484
_cell_angle_alpha 90.000000
_cell_angle_beta 90.000000
_cell_angle_gamma 90.000000
_cell_volume 2348.906088
_symmetry_space_group_name_H-M "P B C A"
_symmetry_group_IT_number 61
_symmetry_cell_setting 'orthorhombic'
loop_
_space_group_symop_operation_xyz
x,y,z
1/2-x,-y,1/2+z
1/2+x,1/2-y,-z
-x,1/2+y,1/2-z
-x,-y,-z
1/2+x,y,1/2-z
1/2-x,1/2+y,z
x,1/2-y,1/2+z
loop_
_atom_site_type_symbol
_atom_site_label
_atom_site_fract_x
_atom_site_fract_y
_atom_site_fract_z
Si Si1 0.115331 0.081519 0.209046
Si Si2 0.859466 0.541480 0.955876
Si Si3 0.831928 0.367042 0.819177
Si Si4 0.460645 0.201790 0.791389
Si Si5 0.145050 0.592416 0.570555
Si Si6 0.465729 0.221651 0.961897
O O1 0.229032 0.091819 0.211739
O O2 0.066828 0.237716 0.223569
O O3 0.069986 0.957044 0.261008
O O4 0.100673 0.027068 0.125355
O O5 0.872524 0.494871 0.871019
O O6 0.746144 0.548786 0.964466
O O7 0.922248 0.684980 0.971269
O O8 0.906676 0.415348 0.004394
O O9 0.897186 0.316779 0.753785
O O10 0.827910 0.228679 0.875286
O O11 0.443338 0.221506 0.876752
O O12 0.071959 0.644010 0.509448
#
# Coordination Sequence:
#
# PCOD9459375 Si02
#       6
#     8   8   8   8   8   8
#     4  10  22  39  59  83 114 154 191 225 283 349
#     4   9  18  36  56  76 110 150 186 224 277 347
#     4   9  19  37  58  78 109 154 192 222 273 344
#     4  11  22  36  58  87 114 142 187 242 282 323
#     4   9  19  37  58  79 108 152 192 224 275 345
#     4  10  20  33  55  84 109 141 186 237 284 324
#
# _framework density 20.435044999999999
#
# number of rings (size 3 to 8) (size 9 to 14) (size 15 to 20)
#    0.000    2.333    0.000    2.000    0.000    6.000 
#    0.000    1.667    0.000    0.000    0.000    0.000 
#    0.000    0.000    0.000    0.000    0.000    0.000 
#
# Total GULP energy -267879.295424 kJ/mol
# GULP energy per Si atom -5580.818655 kJ/mol
# Density = 2.038853 g / cm^3
# Si number density = 20.435045 Si / 1000 Ang^3
#
#
#
# Elastic Constant Matrix: (Units=GPa)
#
#
# Indices 1 2 3 4 5 6 
#
# 1 76.8981 25.1730 45.3059 0.0000 0.0000 0.0000
# 2 25.1730 49.7972 6.1149 0.0000 0.0000 0.0000
# 3 45.3059 6.1149 75.3685 0.0000 0.0000 0.0000
# 4 0.0000 0.0000 0.0000 34.0607 0.0000 0.0000
# 5 0.0000 0.0000 0.0000 0.0000 27.3308 0.0000
# 6 0.0000 0.0000 0.0000 0.0000 0.0000 33.0667
#
#
#
# Elastic Compliance Matrix: (Units=1/GPa)
#
#
# Indices 1 2 3 4 5 6 
#
# 1 0.024820 -0.010823 -0.014042 0.000000 0.000000 0.000000
# 2 -0.010823 0.025003 0.004477 0.000000 0.000000 0.000000
# 3 -0.014042 0.004477 0.021346 0.000000 0.000000 0.000000
# 4 0.000000 0.000000 0.000000 0.029359 0.000000 0.000000
# 5 0.000000 0.000000 0.000000 0.000000 0.036589 0.000000
# 6 0.000000 0.000000 0.000000 0.000000 0.000000 0.030242
#
#
# Mechanical properties :
#
#
# Convention : Reuss Voigt Hill
#
# Bulk Modulus (GPa) = 32.90133 39.47239 36.18686
# Shear Modulus (GPa) = 22.90801 27.25630 25.08215
#
# Velocity S-wave (km/s) = 3.35179 3.65609 3.50724
# Velocity P-wave (km/s) = 5.57806 6.09759 5.84360
#
# Compressibility (1/GPa) = 0.03039390
#
# Stress axis : x y z
#
# Youngs Moduli (GPa) = 40.29003 39.99591 46.84764
#
# Poissons Ratio (x) = 0.43286 0.65783
# Poissons Ratio (y) = 0.43604 -0.20974
# Poissons Ratio (z) = 0.56575 -0.17907
#
# Static dielectric constant tensor:
#      x y z
#    x 1.718850 0.000000 0.000000 
#    y 0.000000 1.807240 0.000000 
#    z 0.000000 0.000000 1.694790 
# 
# From -- ./inp_files/5227.got.cif
#   From: 2010.05.17/outbox.cif.g08.bks.cpg/sg61_3_cif.got.tgz:5227.got - 2010.06.03 15:17:17.
