data_PCOD9459732
_publ_section_title
;
Structure prediction by ZEFSAII (Michael W. Deem and Ramdas Pophale) SiO2 
 PCOD9459732
Probable space group: P B C A
;
_chemical_formula_sum "Si O2"
_cell_formula_units_Z 32
_cell_length_a 5.617800
_cell_length_b 9.268096
_cell_length_c 22.448852
_cell_angle_alpha 90.000000
_cell_angle_beta 90.000000
_cell_angle_gamma 90.000000
_cell_volume 1168.828881
_symmetry_space_group_name_H-M "P B C A"
_symmetry_group_IT_number 61
_symmetry_cell_setting 'orthorhombic'
loop_
_space_group_symop_operation_xyz
x,y,z
1/2-x,-y,1/2+z
1/2+x,1/2-y,-z
-x,1/2+y,1/2-z
-x,-y,-z
1/2+x,y,1/2-z
1/2-x,1/2+y,z
x,1/2-y,1/2+z
loop_
_atom_site_type_symbol
_atom_site_label
_atom_site_fract_x
_atom_site_fract_y
_atom_site_fract_z
Si Si1 0.700921 0.109624 0.424910
Si Si2 0.440546 0.674823 0.942578
Si Si3 0.562380 0.674764 0.652928
Si Si4 0.730861 0.483876 0.259916
O O1 0.964971 0.173230 0.417207
O O2 0.626525 0.180759 0.488479
O O3 0.539779 0.176259 0.372709
O O4 0.647662 0.943729 0.436272
O O5 0.221431 0.622797 0.902377
O O6 0.731408 0.643852 0.710582
O O7 0.333364 0.584975 0.676656
O O8 0.483705 0.562487 0.244082
#
# Coordination Sequence:
#
# PCOD9459732 Si02
#       4
#     8   8   8   8
#     4  11  24  42  68 103 143 188 240 304 372 442
#     4  11  24  42  68 103 143 188 240 304 372 442
#     4  10  20  42  66  96 138 184 242 296 352 434
#     4   8  18  36  68  94 136 184 242 296 358 412
#
# _framework density 27.377828999999998
#
# number of rings (size 3 to 8) (size 9 to 14) (size 15 to 20)
#    1.500    0.500    2.500    1.500    0.000    3.000 
#    0.000    2.500    0.000    0.000    0.000    0.000 
#    0.000    0.000    0.000    0.000    0.000    0.000 
#
# Total GULP energy -178700.340844 kJ/mol
# GULP energy per Si atom -5584.385651 kJ/mol
# Density = 2.731552 g / cm^3
# Si number density = 27.377829 Si / 1000 Ang^3
#
#
#
# Elastic Constant Matrix: (Units=GPa)
#
#
# Indices 1 2 3 4 5 6 
#
# 1 152.8342 38.6322 25.1237 0.0000 0.0000 0.0000
# 2 38.6322 99.2071 9.5683 0.0000 0.0000 0.0000
# 3 25.1237 9.5683 152.5002 0.0000 0.0000 0.0000
# 4 0.0000 0.0000 0.0000 38.1991 0.0000 0.0000
# 5 0.0000 0.0000 0.0000 0.0000 47.8784 0.0000
# 6 0.0000 0.0000 0.0000 0.0000 0.0000 36.2053
#
#
#
# Elastic Compliance Matrix: (Units=1/GPa)
#
#
# Indices 1 2 3 4 5 6 
#
# 1 0.007420 -0.002788 -0.001047 0.000000 0.000000 0.000000
# 2 -0.002788 0.011189 -0.000243 0.000000 0.000000 0.000000
# 3 -0.001047 -0.000243 0.006745 0.000000 0.000000 0.000000
# 4 0.000000 0.000000 0.000000 0.026179 0.000000 0.000000
# 5 0.000000 0.000000 0.000000 0.000000 0.020886 0.000000
# 6 0.000000 0.000000 0.000000 0.000000 0.000000 0.027620
#
#
# Mechanical properties :
#
#
# Convention : Reuss Voigt Hill
#
# Bulk Modulus (GPa) = 58.14868 61.24330 59.69599
# Shear Modulus (GPa) = 43.88699 46.53773 45.21236
#
# Velocity S-wave (km/s) = 4.00811 4.12738 4.06818
# Velocity P-wave (km/s) = 6.53493 6.71803 6.62711
#
# Compressibility (1/GPa) = 0.01719729
#
# Stress axis : x y z
#
# Youngs Moduli (GPa) = 134.76979 89.37223 148.25444
#
# Poissons Ratio (x) = 0.24921 0.15529
# Poissons Ratio (y) = 0.37579 0.03598
# Poissons Ratio (z) = 0.14117 0.02169
#
# Static dielectric constant tensor:
#      x y z
#    x 2.229810 0.000000 0.000000 
#    y 0.000000 2.057410 0.000000 
#    z 0.000000 0.000000 2.069000 
# 
# From -- ./inp_files/10697.got.cif
#   From: 2010.05.17/outbox.cif.g08.bks.cpg/sg61_6_cif.got.tgz:10697.got - 2010.06.03 15:17:17.
