data_PCOD9459806
_publ_section_title
;
Structure prediction by ZEFSAII (Michael W. Deem and Ramdas Pophale) SiO2 
 PCOD9459806
Probable space group: P B C A
;
_chemical_formula_sum "Si O2"
_cell_formula_units_Z 48
_cell_length_a 10.951593
_cell_length_b 15.535022
_cell_length_c 12.385924
_cell_angle_alpha 90.000000
_cell_angle_beta 90.000000
_cell_angle_gamma 90.000000
_cell_volume 2107.257358
_symmetry_space_group_name_H-M "P B C A"
_symmetry_group_IT_number 61
_symmetry_cell_setting 'orthorhombic'
loop_
_space_group_symop_operation_xyz
x,y,z
1/2-x,-y,1/2+z
1/2+x,1/2-y,-z
-x,1/2+y,1/2-z
-x,-y,-z
1/2+x,y,1/2-z
1/2-x,1/2+y,z
x,1/2-y,1/2+z
loop_
_atom_site_type_symbol
_atom_site_label
_atom_site_fract_x
_atom_site_fract_y
_atom_site_fract_z
Si Si1 0.889177 0.992486 0.287339
Si Si2 0.264357 0.240026 0.162958
Si Si3 0.375763 0.817865 0.982116
Si Si4 0.864475 0.911327 0.741576
Si Si5 0.613185 0.896594 0.980544
Si Si6 0.194330 0.156709 0.853149
O O1 0.754006 0.030604 0.263899
O O2 0.902179 0.014905 0.415152
O O3 0.007473 0.041741 0.239719
O O4 0.883961 0.900766 0.228465
O O5 0.150787 0.175387 0.187802
O O6 0.362424 0.174311 0.114973
O O7 0.284378 0.287804 0.275496
O O8 0.229858 0.307093 0.069915
O O9 0.354194 0.882150 0.882867
O O10 0.498286 0.852106 0.036990
O O11 0.381906 0.724278 0.924583
O O12 0.725296 0.897715 0.062622
#
# Coordination Sequence:
#
# PCOD9459806 Si02
#       6
#     8   8   8   8   8   8
#     4  10  21  38  57  84 122 157 195 244 301 361
#     4   9  19  35  55  82 111 150 201 249 294 354
#     4   9  19  36  58  82 110 151 202 249 294 354
#     4   9  20  37  56  80 118 160 193 243 306 355
#     4   9  20  38  56  83 121 155 195 249 306 359
#     4  10  21  36  59  87 113 153 201 244 295 357
#
# _framework density 22.778424000000001
#
# number of rings (size 3 to 8) (size 9 to 14) (size 15 to 20)
#    0.000    2.667    0.000    0.000    0.000   12.000 
#    0.000   10.833    0.000    0.000    0.000    0.000 
#    0.000    0.000    0.000    0.000    0.000    0.000 
#
# Total GULP energy -267630.708737 kJ/mol
# GULP energy per Si atom -5575.639765 kJ/mol
# Density = 2.272658 g / cm^3
# Si number density = 22.778424 Si / 1000 Ang^3
#
#
#
# Elastic Constant Matrix: (Units=GPa)
#
#
# Indices 1 2 3 4 5 6 
#
# 1 67.1557 29.1014 14.2611 0.0000 0.0000 0.0000
# 2 29.1014 67.2958 34.7253 0.0000 0.0000 0.0000
# 3 14.2611 34.7253 82.7040 0.0000 0.0000 0.0000
# 4 0.0000 0.0000 0.0000 36.5569 0.0000 0.0000
# 5 0.0000 0.0000 0.0000 0.0000 28.6653 0.0000
# 6 0.0000 0.0000 0.0000 0.0000 0.0000 13.8856
#
#
#
# Elastic Compliance Matrix: (Units=1/GPa)
#
#
# Indices 1 2 3 4 5 6 
#
# 1 0.018328 -0.008036 0.000214 0.000000 0.000000 0.000000
# 2 -0.008036 0.022493 -0.008059 0.000000 0.000000 0.000000
# 3 0.000214 -0.008059 0.015438 0.000000 0.000000 0.000000
# 4 0.000000 0.000000 0.000000 0.027355 0.000000 0.000000
# 5 0.000000 0.000000 0.000000 0.000000 0.034885 0.000000
# 6 0.000000 0.000000 0.000000 0.000000 0.000000 0.072017
#
#
# Mechanical properties :
#
#
# Convention : Reuss Voigt Hill
#
# Bulk Modulus (GPa) = 40.82084 41.48124 41.15104
# Shear Modulus (GPa) = 21.69731 25.09275 23.39503
#
# Velocity S-wave (km/s) = 3.08967 3.32264 3.20827
# Velocity P-wave (km/s) = 5.53966 5.74197 5.64172
#
# Compressibility (1/GPa) = 0.02449729
#
# Stress axis : x y z
#
# Youngs Moduli (GPa) = 54.56233 44.45802 64.77494
#
# Poissons Ratio (x) = 0.35726 -0.01384
# Poissons Ratio (y) = 0.43846 0.52200
# Poissons Ratio (z) = -0.01166 0.35827
#
# Static dielectric constant tensor:
#      x y z
#    x 1.851000 0.000000 0.000000 
#    y 0.000000 1.917740 0.000000 
#    z 0.000000 0.000000 1.881210 
# 
# From -- ./inp_files/5258.got.cif
#   From: 2010.05.17/outbox.cif.g08.bks.cpg/sg61_3_cif.got.tgz:5258.got - 2010.06.03 15:17:17.
