data_PCOD9459792
_publ_section_title
;
Structure prediction by ZEFSAII (Michael W. Deem and Ramdas Pophale) SiO2 
 PCOD9459792
Probable space group: P B C A
;
_chemical_formula_sum "Si O2"
_cell_formula_units_Z 56
_cell_length_a 16.014931
_cell_length_b 18.619986
_cell_length_c 9.307241
_cell_angle_alpha 90.000000
_cell_angle_beta 90.000000
_cell_angle_gamma 90.000000
_cell_volume 2775.398707
_symmetry_space_group_name_H-M "P B C A"
_symmetry_group_IT_number 61
_symmetry_cell_setting 'orthorhombic'
loop_
_space_group_symop_operation_xyz
x,y,z
1/2-x,-y,1/2+z
1/2+x,1/2-y,-z
-x,1/2+y,1/2-z
-x,-y,-z
1/2+x,y,1/2-z
1/2-x,1/2+y,z
x,1/2-y,1/2+z
loop_
_atom_site_type_symbol
_atom_site_label
_atom_site_fract_x
_atom_site_fract_y
_atom_site_fract_z
Si Si1 0.065990 0.561078 0.144557
Si Si2 0.164587 0.682263 0.637407
Si Si3 0.291440 0.401678 0.868522
Si Si4 0.913230 0.199319 0.557979
Si Si5 0.305884 0.768874 0.723734
Si Si6 0.113189 0.067354 0.441497
Si Si7 0.407366 0.733753 0.483217
O O1 0.130321 0.572671 0.274468
O O2 0.965368 0.563468 0.169781
O O3 0.080844 0.625166 0.029442
O O4 0.089057 0.487258 0.066408
O O5 0.174031 0.616803 0.527628
O O6 0.102679 0.684789 0.773536
O O7 0.150534 0.750006 0.529652
O O8 0.252113 0.697360 0.714329
O O9 0.252521 0.330050 0.791695
O O10 0.206218 0.448286 0.882217
O O11 0.999266 0.242425 0.534531
O O12 0.342285 0.783207 0.567100
O O13 0.388349 0.755790 0.817087
O O14 0.113920 0.148878 0.501361
#
# Coordination Sequence:
#
# PCOD9459792 Si02
#       7
#     8   8   8   8   8   8   8
#     4  10  21  40  63  82 117 163 201 251 298 357
#     4  12  20  34  56  87 120 146 191 251 303 359
#     4  11  22  37  62  89 119 157 199 253 307 361
#     4  11  21  35  56  85 116 156 200 240 306 359
#     4  11  18  35  53  80 116 146 185 241 299 351
#     4   9  21  40  59  85 117 158 205 243 298 359
#     4  10  21  35  57  80 115 155 192 242 295 359
#
# _framework density 20.177281000000001
#
# number of rings (size 3 to 8) (size 9 to 14) (size 15 to 20)
#    0.000    1.429    5.714    0.857    0.000    3.429 
#    0.000    0.000    0.000    8.571    0.000    0.000 
#    0.000    0.000    0.000    0.000    0.000    0.000 
#
# Total GULP energy -311790.212608 kJ/mol
# GULP energy per Si atom -5567.682368 kJ/mol
# Density = 2.013136 g / cm^3
# Si number density = 20.177281 Si / 1000 Ang^3
#
#
#
# Elastic Constant Matrix: (Units=GPa)
#
#
# Indices 1 2 3 4 5 6 
#
# 1 128.1487 14.5597 45.1569 0.0000 0.0000 0.0000
# 2 14.5597 21.3902 17.0187 0.0000 0.0000 0.0000
# 3 45.1569 17.0187 70.7672 0.0000 0.0000 0.0000
# 4 0.0000 0.0000 0.0000 15.8645 0.0000 0.0000
# 5 0.0000 0.0000 0.0000 0.0000 37.3683 0.0000
# 6 0.0000 0.0000 0.0000 0.0000 0.0000 20.7373
#
#
#
# Elastic Compliance Matrix: (Units=1/GPa)
#
#
# Indices 1 2 3 4 5 6 
#
# 1 0.010148 -0.002171 -0.005953 0.000000 0.000000 0.000000
# 2 -0.002171 0.058276 -0.012630 0.000000 0.000000 0.000000
# 3 -0.005953 -0.012630 0.020967 0.000000 0.000000 0.000000
# 4 0.000000 0.000000 0.000000 0.063034 0.000000 0.000000
# 5 0.000000 0.000000 0.000000 0.000000 0.026761 0.000000
# 6 0.000000 0.000000 0.000000 0.000000 0.000000 0.048222
#
#
# Mechanical properties :
#
#
# Convention : Reuss Voigt Hill
#
# Bulk Modulus (GPa) = 20.88389 41.53073 31.20731
# Shear Modulus (GPa) = 17.55146 24.36542 20.95844
#
# Velocity S-wave (km/s) = 2.95254 3.47878 3.22641
# Velocity P-wave (km/s) = 4.68999 6.06329 5.42031
#
# Compressibility (1/GPa) = 0.04788379
#
# Stress axis : x y z
#
# Youngs Moduli (GPa) = 98.54245 17.15964 47.69401
#
# Poissons Ratio (x) = 0.03725 0.28394
# Poissons Ratio (y) = 0.21390 0.60236
# Poissons Ratio (z) = 0.58666 0.21672
#
# Static dielectric constant tensor:
#      x y z
#    x 1.816690 0.000000 0.000000 
#    y 0.000000 1.717690 0.000000 
#    z 0.000000 0.000000 1.726800 
# 
# From -- ./inp_files/3651.got.cif
#   From: 2010.05.17/outbox.cif.g08.bks.cpg/sg61_2_cif.got.tgz:3651.got - 2010.06.03 15:17:17.
