data_PCOD9459587
_publ_section_title
;
Structure prediction by ZEFSAII (Michael W. Deem and Ramdas Pophale) SiO2 
 PCOD9459587
Probable space group: P B C A
;
_chemical_formula_sum "Si O2"
_cell_formula_units_Z 40
_cell_length_a 13.326829
_cell_length_b 9.365243
_cell_length_c 13.354113
_cell_angle_alpha 90.000000
_cell_angle_beta 90.000000
_cell_angle_gamma 90.000000
_cell_volume 1666.713383
_symmetry_space_group_name_H-M "P B C A"
_symmetry_group_IT_number 61
_symmetry_cell_setting 'orthorhombic'
loop_
_space_group_symop_operation_xyz
x,y,z
1/2-x,-y,1/2+z
1/2+x,1/2-y,-z
-x,1/2+y,1/2-z
-x,-y,-z
1/2+x,y,1/2-z
1/2-x,1/2+y,z
x,1/2-y,1/2+z
loop_
_atom_site_type_symbol
_atom_site_label
_atom_site_fract_x
_atom_site_fract_y
_atom_site_fract_z
Si Si1 0.996485 0.898299 0.709415
Si Si2 0.877145 0.216533 0.118667
Si Si3 0.432789 0.748338 0.987850
Si Si4 0.375770 0.830342 0.194315
Si Si5 0.730089 0.442496 0.124353
O O1 0.086179 0.817949 0.768846
O O2 0.979686 0.850138 0.596311
O O3 0.900572 0.829634 0.766443
O O4 0.029831 0.062565 0.716656
O O5 0.835087 0.372780 0.096761
O O6 0.971546 0.184507 0.047684
O O7 0.784927 0.108008 0.104434
O O8 0.368809 0.824087 0.075473
O O9 0.362187 0.633579 0.933612
O O10 0.287628 0.897378 0.259713
#
# Coordination Sequence:
#
# PCOD9459587 Si02
#       5
#     8   8   8   8   8
#     4   9  19  35  56  82 112 147 189 237 290 345
#     4  10  22  39  58  85 120 157 197 244 298 354
#     4  10  20  38  64  88 114 154 202 250 292 348
#     4   9  19  35  56  82 112 147 189 237 290 345
#     4  10  22  39  58  85 120 157 197 244 298 354
#
# _framework density 23.999327999999998
#
# number of rings (size 3 to 8) (size 9 to 14) (size 15 to 20)
#    0.000    2.400    0.000    1.200    0.000   11.200 
#    0.000    4.000    0.000    0.000    0.000    0.000 
#    0.000    0.000    0.000    0.000    0.000    0.000 
#
# Total GULP energy -223310.010652 kJ/mol
# GULP energy per Si atom -5582.750266 kJ/mol
# Density = 2.394470 g / cm^3
# Si number density = 23.999328 Si / 1000 Ang^3
#
#
#
# Elastic Constant Matrix: (Units=GPa)
#
#
# Indices 1 2 3 4 5 6 
#
# 1 65.2790 7.4428 23.8280 0.0000 0.0000 0.0000
# 2 7.4428 66.8688 24.3179 0.0000 0.0000 0.0000
# 3 23.8280 24.3179 141.5566 0.0000 0.0000 0.0000
# 4 0.0000 0.0000 0.0000 12.2414 0.0000 0.0000
# 5 0.0000 0.0000 0.0000 0.0000 29.7580 0.0000
# 6 0.0000 0.0000 0.0000 0.0000 0.0000 31.8246
#
#
#
# Elastic Compliance Matrix: (Units=1/GPa)
#
#
# Indices 1 2 3 4 5 6 
#
# 1 0.016370 -0.000875 -0.002605 0.000000 0.000000 0.000000
# 2 -0.000875 0.015998 -0.002601 0.000000 0.000000 0.000000
# 3 -0.002605 -0.002601 0.007950 0.000000 0.000000 0.000000
# 4 0.000000 0.000000 0.000000 0.081690 0.000000 0.000000
# 5 0.000000 0.000000 0.000000 0.000000 0.033604 0.000000
# 6 0.000000 0.000000 0.000000 0.000000 0.000000 0.031422
#
#
# Mechanical properties :
#
#
# Convention : Reuss Voigt Hill
#
# Bulk Modulus (GPa) = 35.51711 42.76463 39.14087
# Shear Modulus (GPa) = 23.97159 29.30587 26.63873
#
# Velocity S-wave (km/s) = 3.16388 3.49823 3.33525
# Velocity P-wave (km/s) = 5.30831 5.84591 5.58358
#
# Compressibility (1/GPa) = 0.02815544
#
# Stress axis : x y z
#
# Youngs Moduli (GPa) = 61.08911 62.50818 125.79134
#
# Poissons Ratio (x) = 0.05467 0.32771
# Poissons Ratio (y) = 0.05343 0.32719
# Poissons Ratio (z) = 0.15915 0.16259
#
# Static dielectric constant tensor:
#      x y z
#    x 1.951350 0.000000 0.000000 
#    y 0.000000 1.910420 0.000000 
#    z 0.000000 0.000000 1.915230 
# 
# From -- ./inp_files/2678.got.cif
#   From: 2010.05.17/outbox.cif.g08.bks.cpg/sg61_2_cif.got.tgz:2678.got - 2010.06.03 15:17:17.
