data_PCOD9459025
_publ_section_title
;
Structure prediction by ZEFSAII (Michael W. Deem and Ramdas Pophale) SiO2 
 PCOD9459025
Probable space group: P B C A
;
_chemical_formula_sum "Si O2"
_cell_formula_units_Z 56
_cell_length_a 24.507728
_cell_length_b 5.572235
_cell_length_c 17.826581
_cell_angle_alpha 90.000000
_cell_angle_beta 90.000000
_cell_angle_gamma 90.000000
_cell_volume 2434.448168
_symmetry_space_group_name_H-M "P B C A"
_symmetry_group_IT_number 61
_symmetry_cell_setting 'orthorhombic'
loop_
_space_group_symop_operation_xyz
x,y,z
1/2-x,-y,1/2+z
1/2+x,1/2-y,-z
-x,1/2+y,1/2-z
-x,-y,-z
1/2+x,y,1/2-z
1/2-x,1/2+y,z
x,1/2-y,1/2+z
loop_
_atom_site_type_symbol
_atom_site_label
_atom_site_fract_x
_atom_site_fract_y
_atom_site_fract_z
Si Si1 0.441094 0.959332 0.413035
Si Si2 0.877664 0.849188 0.499755
Si Si3 0.996212 0.714137 0.292963
Si Si4 0.949675 0.216231 0.438772
Si Si5 0.275843 0.381623 0.537787
Si Si6 0.618298 0.443981 0.855643
Si Si7 0.734457 0.404984 0.789335
O O1 0.387716 0.795361 0.423944
O O2 0.454341 0.155557 0.350495
O O3 0.491737 0.775097 0.404987
O O4 0.444420 0.097777 0.492197
O O5 0.859722 0.675061 0.432474
O O6 0.935618 0.959824 0.472523
O O7 0.835788 0.067138 0.495034
O O8 0.935600 0.696755 0.329019
O O9 0.002514 0.978729 0.260036
O O10 0.905052 0.294436 0.376818
O O11 0.244034 0.621531 0.512345
O O12 0.267136 0.385742 0.629277
O O13 0.669952 0.437041 0.802554
O O14 0.755426 0.648338 0.752007
#
# Coordination Sequence:
#
# PCOD9459025 Si02
#       7
#     8   8   8   8   8   8   8
#     4   9  21  35  53  84 110 151 194 231 291 347
#     4  11  19  30  61  84 122 153 179 234 299 367
#     4  11  27  44  59  79 114 159 210 255 285 341
#     4   9  18  32  53  84 117 147 182 229 289 364
#     4  10  19  31  47  82 126 147 177 214 282 364
#     4  10  21  34  56  86 117 158 186 238 304 349
#     4  10  18  30  50  83 122 142 180 225 286 364
#
# _framework density 23.003159
#
# number of rings (size 3 to 8) (size 9 to 14) (size 15 to 20)
#    0.000    2.000    2.857    3.000    8.000    0.000 
#    0.000    0.000    0.000    0.000    0.000    6.000 
#    0.000    0.000    0.000    0.000    0.000    0.000 
#
# Total GULP energy -312306.390204 kJ/mol
# GULP energy per Si atom -5576.899825 kJ/mol
# Density = 2.295080 g / cm^3
# Si number density = 23.003159 Si / 1000 Ang^3
#
#
#
# Elastic Constant Matrix: (Units=GPa)
#
#
# Indices 1 2 3 4 5 6 
#
# 1 66.7337 23.5254 8.7935 0.0000 0.0000 0.0000
# 2 23.5254 130.8814 16.9259 0.0000 0.0000 0.0000
# 3 8.7935 16.9259 23.0608 0.0000 0.0000 0.0000
# 4 0.0000 0.0000 0.0000 32.8322 0.0000 0.0000
# 5 0.0000 0.0000 0.0000 0.0000 7.5479 0.0000
# 6 0.0000 0.0000 0.0000 0.0000 0.0000 34.5339
#
#
#
# Elastic Compliance Matrix: (Units=1/GPa)
#
#
# Indices 1 2 3 4 5 6 
#
# 1 0.016415 -0.002366 -0.004523 0.000000 0.000000 0.000000
# 2 -0.002366 0.008783 -0.005544 0.000000 0.000000 0.000000
# 3 -0.004523 -0.005544 0.049158 0.000000 0.000000 0.000000
# 4 0.000000 0.000000 0.000000 0.030458 0.000000 0.000000
# 5 0.000000 0.000000 0.000000 0.000000 0.132488 0.000000
# 6 0.000000 0.000000 0.000000 0.000000 0.000000 0.028957
#
#
# Mechanical properties :
#
#
# Convention : Reuss Voigt Hill
#
# Bulk Modulus (GPa) = 20.20627 35.46284 27.83455
# Shear Modulus (GPa) = 16.25382 26.41153 21.33267
#
# Velocity S-wave (km/s) = 2.66106 3.39214 3.04860
# Velocity P-wave (km/s) = 4.27140 5.54907 4.95162
#
# Compressibility (1/GPa) = 0.04948959
#
# Stress axis : x y z
#
# Youngs Moduli (GPa) = 60.92038 113.86019 20.34275
#
# Poissons Ratio (x) = 0.26935 0.09201
# Poissons Ratio (y) = 0.14411 0.11278
# Poissons Ratio (z) = 0.27554 0.63126
#
# Static dielectric constant tensor:
#      x y z
#    x 1.950040 0.000000 0.000000 
#    y 0.000000 1.894280 0.000000 
#    z 0.000000 0.000000 1.893850 
# 
# From -- ./inp_files/10661.got.cif
#   From: 2010.05.17/outbox.cif.g08.bks.cpg/sg61_6_cif.got.tgz:10661.got - 2010.06.03 15:17:17.
