data_PCOD9459887
_publ_section_title
;
Structure prediction by ZEFSAII (Michael W. Deem and Ramdas Pophale) SiO2 
 PCOD9459887
Probable space group: P B C A
;
_chemical_formula_sum "Si O2"
_cell_formula_units_Z 48
_cell_length_a 20.230897
_cell_length_b 4.796094
_cell_length_c 18.583127
_cell_angle_alpha 90.000000
_cell_angle_beta 90.000000
_cell_angle_gamma 90.000000
_cell_volume 1803.107502
_symmetry_space_group_name_H-M "P B C A"
_symmetry_group_IT_number 61
_symmetry_cell_setting 'orthorhombic'
loop_
_space_group_symop_operation_xyz
x,y,z
1/2-x,-y,1/2+z
1/2+x,1/2-y,-z
-x,1/2+y,1/2-z
-x,-y,-z
1/2+x,y,1/2-z
1/2-x,1/2+y,z
x,1/2-y,1/2+z
loop_
_atom_site_type_symbol
_atom_site_label
_atom_site_fract_x
_atom_site_fract_y
_atom_site_fract_z
Si Si1 0.099588 0.649633 0.737648
Si Si2 0.075013 0.123025 0.826909
Si Si3 0.957398 0.513824 0.406768
Si Si4 0.797005 0.914123 0.495099
Si Si5 0.588146 0.756467 0.550239
Si Si6 0.707055 0.050499 0.825346
O O1 0.048211 0.881287 0.771278
O O2 0.086886 0.478812 0.663953
O O3 0.154628 0.884308 0.721539
O O4 0.105496 0.400469 0.794776
O O5 0.116515 0.936935 0.883183
O O6 0.012357 0.202613 0.876583
O O7 0.914980 0.420097 0.474309
O O8 0.008794 0.753211 0.431921
O O9 0.734611 0.116408 0.509622
O O10 0.863255 0.000456 0.536586
O O11 0.811172 0.960245 0.409795
O O12 0.773202 0.867471 0.811891
#
# Coordination Sequence:
#
# PCOD9459887 Si02
#       6
#     8   8   8   8   8   8
#     4  12  21  42  63  93 125 165 204 256 308 371
#     4  10  24  38  64  94 126 160 199 253 317 365
#     4   9  20  41  67  90 129 161 210 250 309 369
#     4  10  21  40  64  88 120 162 208 252 300 364
#     4   9  20  43  62  98 123 163 206 259 306 366
#     4  10  21  38  62  89 118 163 211 253 296 365
#
# _framework density 26.620709000000002
#
# number of rings (size 3 to 8) (size 9 to 14) (size 15 to 20)
#    1.000    1.000    1.667    2.000    0.000    1.333 
#    0.000   11.667    0.000    0.000    0.000    0.000 
#    0.000    0.000    0.000    0.000    0.000    0.000 
#
# Total GULP energy -267766.361379 kJ/mol
# GULP energy per Si atom -5578.465862 kJ/mol
# Density = 2.656012 g / cm^3
# Si number density = 26.620709 Si / 1000 Ang^3
#
#
#
# Elastic Constant Matrix: (Units=GPa)
#
#
# Indices 1 2 3 4 5 6 
#
# 1 72.0876 7.1432 11.2691 0.0000 0.0000 0.0000
# 2 7.1432 134.6591 45.9157 0.0000 0.0000 0.0000
# 3 11.2691 45.9157 119.7727 0.0000 0.0000 0.0000
# 4 0.0000 0.0000 0.0000 29.4463 0.0000 0.0000
# 5 0.0000 0.0000 0.0000 0.0000 36.3804 0.0000
# 6 0.0000 0.0000 0.0000 0.0000 0.0000 9.1475
#
#
#
# Elastic Compliance Matrix: (Units=1/GPa)
#
#
# Indices 1 2 3 4 5 6 
#
# 1 0.014093 -0.000340 -0.001196 0.000000 0.000000 0.000000
# 2 -0.000340 0.008551 -0.003246 0.000000 0.000000 0.000000
# 3 -0.001196 -0.003246 0.009706 0.000000 0.000000 0.000000
# 4 0.000000 0.000000 0.000000 0.033960 0.000000 0.000000
# 5 0.000000 0.000000 0.000000 0.000000 0.027487 0.000000
# 6 0.000000 0.000000 0.000000 0.000000 0.000000 0.109319
#
#
# Mechanical properties :
#
#
# Convention : Reuss Voigt Hill
#
# Bulk Modulus (GPa) = 43.88576 50.57503 47.23040
# Shear Modulus (GPa) = 22.69886 32.47425 27.58656
#
# Velocity S-wave (km/s) = 2.92323 3.49648 3.22263
# Velocity P-wave (km/s) = 5.28347 5.94475 5.62384
#
# Compressibility (1/GPa) = 0.02278643
#
# Stress axis : x y z
#
# Youngs Moduli (GPa) = 70.95920 116.94474 103.02832
#
# Poissons Ratio (x) = 0.03975 0.12318
# Poissons Ratio (y) = 0.02412 0.33444
# Poissons Ratio (z) = 0.08484 0.37962
#
# Static dielectric constant tensor:
#      x y z
#    x 2.280920 0.000000 0.000000 
#    y 0.000000 2.061950 0.000000 
#    z 0.000000 0.000000 2.140590 
# 
# From -- ./inp_files/10581.got.cif
#   From: 2010.05.17/outbox.cif.g08.bks.cpg/sg61_6_cif.got.tgz:10581.got - 2010.06.03 15:17:17.
