data_PCOD9459765
_publ_section_title
;
Structure prediction by ZEFSAII (Michael W. Deem and Ramdas Pophale) SiO2 
 PCOD9459765
Probable space group: P B C A
;
_chemical_formula_sum "Si O2"
_cell_formula_units_Z 56
_cell_length_a 13.726407
_cell_length_b 15.484351
_cell_length_c 10.639730
_cell_angle_alpha 90.000000
_cell_angle_beta 90.000000
_cell_angle_gamma 90.000000
_cell_volume 2261.416135
_symmetry_space_group_name_H-M "P B C A"
_symmetry_group_IT_number 61
_symmetry_cell_setting 'orthorhombic'
loop_
_space_group_symop_operation_xyz
x,y,z
1/2-x,-y,1/2+z
1/2+x,1/2-y,-z
-x,1/2+y,1/2-z
-x,-y,-z
1/2+x,y,1/2-z
1/2-x,1/2+y,z
x,1/2-y,1/2+z
loop_
_atom_site_type_symbol
_atom_site_label
_atom_site_fract_x
_atom_site_fract_y
_atom_site_fract_z
Si Si1 0.507962 0.943771 0.664802
Si Si2 0.786399 0.560679 0.984125
Si Si3 0.283994 0.519562 0.775774
Si Si4 0.709283 0.274350 0.202184
Si Si5 0.069631 0.735594 0.285919
Si Si6 0.905196 0.720103 0.953822
Si Si7 0.921737 0.109093 0.903817
O O1 0.521436 0.857200 0.746520
O O2 0.506808 0.906612 0.521878
O O3 0.607883 0.996007 0.679946
O O4 0.428488 0.018985 0.674062
O O5 0.780034 0.492858 0.870188
O O6 0.879988 0.618869 0.961100
O O7 0.686744 0.615482 0.961113
O O8 0.784107 0.524995 0.122838
O O9 0.271564 0.622818 0.786686
O O10 0.653404 0.247295 0.329473
O O11 0.814273 0.228470 0.196773
O O12 0.644007 0.257403 0.079268
O O13 0.016868 0.766899 0.414109
O O14 0.054289 0.810343 0.183241
#
# Coordination Sequence:
#
# PCOD9459765 Si02
#       7
#     8   8   8   8   8   8   8
#     4  10  24  40  72 101 137 199 248 297 370 458
#     4  10  21  43  65  97 141 182 235 302 363 440
#     4  10  21  42  68  95 139 189 236 303 365 436
#     4  11  25  46  70 107 150 189 249 317 363 458
#     4  12  25  44  76 104 148 194 248 311 374 440
#     4  11  26  43  69 105 141 191 242 304 374 443
#     4  10  20  44  69 100 142 187 252 295 365 447
#
# _framework density 24.763245999999999
#
# number of rings (size 3 to 8) (size 9 to 14) (size 15 to 20)
#    0.000    1.429    2.857    3.429    8.000    2.286 
#    0.000    0.714    0.000    0.000    0.000    0.000 
#    0.000    0.000    0.000    0.000    0.000    0.000 
#
# Total GULP energy -313074.594223 kJ/mol
# GULP energy per Si atom -5590.617754 kJ/mol
# Density = 2.470688 g / cm^3
# Si number density = 24.763246 Si / 1000 Ang^3
#
#
#
# Elastic Constant Matrix: (Units=GPa)
#
#
# Indices 1 2 3 4 5 6 
#
# 1 71.0103 -1.2180 26.0643 0.0000 0.0000 0.0000
# 2 -1.2180 108.5683 34.2793 0.0000 0.0000 0.0000
# 3 26.0643 34.2793 162.0730 0.0000 0.0000 0.0000
# 4 0.0000 0.0000 0.0000 49.1047 0.0000 0.0000
# 5 0.0000 0.0000 0.0000 0.0000 32.7985 0.0000
# 6 0.0000 0.0000 0.0000 0.0000 0.0000 29.0178
#
#
#
# Elastic Compliance Matrix: (Units=1/GPa)
#
#
# Indices 1 2 3 4 5 6 
#
# 1 0.015067 0.001001 -0.002635 0.000000 0.000000 0.000000
# 2 0.001001 0.009936 -0.002263 0.000000 0.000000 0.000000
# 3 -0.002635 -0.002263 0.007072 0.000000 0.000000 0.000000
# 4 0.000000 0.000000 0.000000 0.020365 0.000000 0.000000
# 5 0.000000 0.000000 0.000000 0.000000 0.030489 0.000000
# 6 0.000000 0.000000 0.000000 0.000000 0.000000 0.034462
#
#
# Mechanical properties :
#
#
# Convention : Reuss Voigt Hill
#
# Bulk Modulus (GPa) = 41.18157 51.10030 46.14094
# Shear Modulus (GPa) = 37.51563 41.01926 39.26744
#
# Velocity S-wave (km/s) = 3.89649 4.07438 3.98642
# Velocity P-wave (km/s) = 6.07534 6.54327 6.31364
#
# Compressibility (1/GPa) = 0.02428271
#
# Stress axis : x y z
#
# Youngs Moduli (GPa) = 66.37151 100.64007 141.39651
#
# Poissons Ratio (x) = -0.10073 0.37254
# Poissons Ratio (y) = -0.06643 0.31992
# Poissons Ratio (z) = 0.17487 0.22770
#
# Static dielectric constant tensor:
#      x y z
#    x 1.996460 0.000000 0.000000 
#    y 0.000000 2.008800 0.000000 
#    z 0.000000 0.000000 2.019150 
# 
# From -- ./inp_files/5798.got.cif
#   From: 2010.05.17/outbox.cif.g08.bks.cpg/sg61_3_cif.got.tgz:5798.got - 2010.06.03 15:17:17.
