data_PCOD9459973
_publ_section_title
;
Structure prediction by ZEFSAII (Michael W. Deem and Ramdas Pophale) SiO2 
 PCOD9459973
Probable space group: P B C A
;
_chemical_formula_sum "Si O2"
_cell_formula_units_Z 48
_cell_length_a 9.313251
_cell_length_b 9.522566
_cell_length_c 26.859343
_cell_angle_alpha 90.000000
_cell_angle_beta 90.000000
_cell_angle_gamma 90.000000
_cell_volume 2382.048964
_symmetry_space_group_name_H-M "P B C A"
_symmetry_group_IT_number 61
_symmetry_cell_setting 'orthorhombic'
loop_
_space_group_symop_operation_xyz
x,y,z
1/2-x,-y,1/2+z
1/2+x,1/2-y,-z
-x,1/2+y,1/2-z
-x,-y,-z
1/2+x,y,1/2-z
1/2-x,1/2+y,z
x,1/2-y,1/2+z
loop_
_atom_site_type_symbol
_atom_site_label
_atom_site_fract_x
_atom_site_fract_y
_atom_site_fract_z
Si Si1 0.827976 0.341456 0.256313
Si Si2 0.549393 0.544518 0.377378
Si Si3 0.270981 0.315140 0.125429
Si Si4 0.917949 0.650504 0.225987
Si Si5 0.401977 0.887655 0.972722
Si Si6 0.594867 0.615046 0.973608
O O1 0.799132 0.329346 0.315686
O O2 0.855000 0.506932 0.248842
O O3 0.701773 0.272520 0.223633
O O4 0.959742 0.236559 0.244773
O O5 0.682195 0.654501 0.387486
O O6 0.614907 0.387908 0.381130
O O7 0.489924 0.592038 0.324161
O O8 0.417955 0.568709 0.415141
O O9 0.368730 0.398784 0.085180
O O10 0.493014 0.748025 0.978224
O O11 0.246269 0.874483 0.997196
O O12 0.500000 0.000000 0.000000
O O13 0.500000 0.500000 0.000000
#
# Coordination Sequence:
#
# PCOD9459973 Si02
#       6
#     8   8   8   8   8   8
#     4  11  22  42  65  93 128 170 214 271 325 398
#     4  10  22  40  64  96 125 170 215 264 327 391
#     4  10  21  39  67  89 127 170 214 254 332 397
#     4  11  23  42  64  94 130 165 220 268 328 391
#     4  11  22  42  64  91 131 165 212 271 324 388
#     4  11  24  42  64  96 127 169 217 267 326 397
#
# _framework density 20.150721000000001
#
# number of rings (size 3 to 8) (size 9 to 14) (size 15 to 20)
#    0.000    1.333    1.667    5.000    2.333    0.000 
#   15.000    0.000    0.000    0.000    0.000    0.000 
#    0.000    0.000    0.000    0.000    0.000    0.000 
#
# Total GULP energy -267224.814272 kJ/mol
# GULP energy per Si atom -5567.183631 kJ/mol
# Density = 2.010486 g / cm^3
# Si number density = 20.150721 Si / 1000 Ang^3
#
#
#
# Elastic Constant Matrix: (Units=GPa)
#
#
# Indices 1 2 3 4 5 6 
#
# 1 105.7794 12.2293 6.4954 0.0000 0.0000 0.0000
# 2 12.2293 57.6171 15.9965 0.0000 0.0000 0.0000
# 3 6.4954 15.9965 41.8555 0.0000 0.0000 0.0000
# 4 0.0000 0.0000 0.0000 15.0263 0.0000 0.0000
# 5 0.0000 0.0000 0.0000 0.0000 23.6495 0.0000
# 6 0.0000 0.0000 0.0000 0.0000 0.0000 42.6254
#
#
#
# Elastic Compliance Matrix: (Units=1/GPa)
#
#
# Indices 1 2 3 4 5 6 
#
# 1 0.009716 -0.001839 -0.000805 0.000000 0.000000 0.000000
# 2 -0.001839 0.019764 -0.007268 0.000000 0.000000 0.000000
# 3 -0.000805 -0.007268 0.026794 0.000000 0.000000 0.000000
# 4 0.000000 0.000000 0.000000 0.066550 0.000000 0.000000
# 5 0.000000 0.000000 0.000000 0.000000 0.042284 0.000000
# 6 0.000000 0.000000 0.000000 0.000000 0.000000 0.023460
#
#
# Mechanical properties :
#
#
# Convention : Reuss Voigt Hill
#
# Bulk Modulus (GPa) = 27.43450 30.52160 28.97805
# Shear Modulus (GPa) = 22.67137 27.62895 25.15016
#
# Velocity S-wave (km/s) = 3.35788 3.70687 3.53668
# Velocity P-wave (km/s) = 5.35518 5.78798 5.57578
#
# Compressibility (1/GPa) = 0.03645045
#
# Stress axis : x y z
#
# Youngs Moduli (GPa) = 102.92684 50.59681 37.32121
#
# Poissons Ratio (x) = 0.09303 0.03004
# Poissons Ratio (y) = 0.18925 0.27126
# Poissons Ratio (z) = 0.08286 0.36775
#
# Static dielectric constant tensor:
#      x y z
#    x 1.760910 0.000000 0.000000 
#    y 0.000000 1.123880 0.000000 
#    z 0.000000 0.000000 1.684990 
# 
# From -- ./inp_files/11681.got.cif
#   From: 2010.05.17/outbox.cif.g08.bks.cpg/sg61_6_cif.got.tgz:11681.got - 2010.06.03 15:17:17.
