data_PCOD9459059
_publ_section_title
;
Structure prediction by ZEFSAII (Michael W. Deem and Ramdas Pophale) SiO2 
 PCOD9459059
Probable space group: P B C A
;
_chemical_formula_sum "Si O2"
_cell_formula_units_Z 56
_cell_length_a 19.525108
_cell_length_b 7.808457
_cell_length_c 20.024798
_cell_angle_alpha 90.000000
_cell_angle_beta 90.000000
_cell_angle_gamma 90.000000
_cell_volume 3053.000052
_symmetry_space_group_name_H-M "P B C A"
_symmetry_group_IT_number 61
_symmetry_cell_setting 'orthorhombic'
loop_
_space_group_symop_operation_xyz
x,y,z
1/2-x,-y,1/2+z
1/2+x,1/2-y,-z
-x,1/2+y,1/2-z
-x,-y,-z
1/2+x,y,1/2-z
1/2-x,1/2+y,z
x,1/2-y,1/2+z
loop_
_atom_site_type_symbol
_atom_site_label
_atom_site_fract_x
_atom_site_fract_y
_atom_site_fract_z
Si Si1 0.902422 0.767168 0.729991
Si Si2 0.445363 0.160515 0.760254
Si Si3 0.909442 0.040556 0.138323
Si Si4 0.563222 0.935160 0.388264
Si Si5 0.673547 0.223629 0.360179
Si Si6 0.847008 0.175751 0.004620
Si Si7 0.780295 0.026247 0.440369
O O1 0.886449 0.642484 0.668319
O O2 0.840247 0.754319 0.782172
O O3 0.972026 0.685327 0.762310
O O4 0.921638 0.968092 0.718122
O O5 0.414311 0.313108 0.804424
O O6 0.427984 0.170685 0.680975
O O7 0.865516 0.111773 0.077493
O O8 0.986062 0.001900 0.111766
O O9 0.588450 0.841590 0.454515
O O10 0.613643 0.095820 0.381544
O O11 0.746092 0.142993 0.382259
O O12 0.670709 0.395148 0.402906
O O13 0.819978 0.367252 0.995845
O O14 0.784134 0.064852 0.975162
#
# Coordination Sequence:
#
# PCOD9459059 Si02
#       7
#     8   8   8   8   8   8   8
#     4  10  19  34  58  85 116 144 185 230 284 354
#     4  10  18  34  57  87 119 146 176 225 299 342
#     4  11  21  36  58  89 122 150 177 241 310 337
#     4   9  19  35  60  86 115 142 192 234 285 362
#     4   9  17  35  57  81 102 142 200 233 273 338
#     4  10  21  39  58  81 114 155 196 240 287 341
#     4   9  20  37  59  73 109 157 195 238 280 327
#
# _framework density 18.342613
#
# number of rings (size 3 to 8) (size 9 to 14) (size 15 to 20)
#    0.000    2.286    4.286    0.429    2.000    0.000 
#    7.714    2.143    0.000    0.000    0.000    0.000 
#    0.000    0.000    0.000    0.000    0.000    0.000 
#
# Total GULP energy -311884.767111 kJ/mol
# GULP energy per Si atom -5569.370841 kJ/mol
# Density = 1.830086 g / cm^3
# Si number density = 18.342613 Si / 1000 Ang^3
#
#
#
# Elastic Constant Matrix: (Units=GPa)
#
#
# Indices 1 2 3 4 5 6 
#
# 1 22.9112 1.3723 11.6031 0.0000 0.0000 0.0000
# 2 1.3723 58.4689 20.8408 0.0000 0.0000 0.0000
# 3 11.6031 20.8408 54.8856 0.0000 0.0000 0.0000
# 4 0.0000 0.0000 0.0000 25.6047 0.0000 0.0000
# 5 0.0000 0.0000 0.0000 0.0000 22.5133 0.0000
# 6 0.0000 0.0000 0.0000 0.0000 0.0000 6.0819
#
#
#
# Elastic Compliance Matrix: (Units=1/GPa)
#
#
# Indices 1 2 3 4 5 6 
#
# 1 0.049319 0.002959 -0.011550 0.000000 0.000000 0.000000
# 2 0.002959 0.019958 -0.008204 0.000000 0.000000 0.000000
# 3 -0.011550 -0.008204 0.023777 0.000000 0.000000 0.000000
# 4 0.000000 0.000000 0.000000 0.039055 0.000000 0.000000
# 5 0.000000 0.000000 0.000000 0.000000 0.044418 0.000000
# 6 0.000000 0.000000 0.000000 0.000000 0.000000 0.164421
#
#
# Mechanical properties :
#
#
# Convention : Reuss Voigt Hill
#
# Bulk Modulus (GPa) = 16.81682 22.65535 19.73609
# Shear Modulus (GPa) = 12.67883 17.66997 15.17440
#
# Velocity S-wave (km/s) = 2.63196 3.10712 2.87936
# Velocity P-wave (km/s) = 4.29236 5.02497 4.67304
#
# Compressibility (1/GPa) = 0.05946427
#
# Stress axis : x y z
#
# Youngs Moduli (GPa) = 20.27623 50.10551 42.05821
#
# Poissons Ratio (x) = -0.14828 0.48577
# Poissons Ratio (y) = -0.06000 0.34504
# Poissons Ratio (z) = 0.23419 0.41106
#
# Static dielectric constant tensor:
#      x y z
#    x 1.622100 0.000000 0.000000 
#    y 0.000000 1.671780 0.000000 
#    z 0.000000 0.000000 1.647760 
# 
# From -- ./inp_files/9756.got.cif
#   From: 2010.05.17/outbox.cif.g08.bks.cpg/sg61_5_cif.got.tgz:9756.got - 2010.06.03 15:17:17.
