data_PCOD9459161
_publ_section_title
;
Structure prediction by ZEFSAII (Michael W. Deem and Ramdas Pophale) SiO2 
 PCOD9459161
Probable space group: P B C A
;
_chemical_formula_sum "Si O2"
_cell_formula_units_Z 48
_cell_length_a 20.341422
_cell_length_b 11.614525
_cell_length_c 9.198050
_cell_angle_alpha 90.000000
_cell_angle_beta 90.000000
_cell_angle_gamma 90.000000
_cell_volume 2173.094081
_symmetry_space_group_name_H-M "P B C A"
_symmetry_group_IT_number 61
_symmetry_cell_setting 'orthorhombic'
loop_
_space_group_symop_operation_xyz
x,y,z
1/2-x,-y,1/2+z
1/2+x,1/2-y,-z
-x,1/2+y,1/2-z
-x,-y,-z
1/2+x,y,1/2-z
1/2-x,1/2+y,z
x,1/2-y,1/2+z
loop_
_atom_site_type_symbol
_atom_site_label
_atom_site_fract_x
_atom_site_fract_y
_atom_site_fract_z
Si Si1 0.268125 0.861696 0.958023
Si Si2 0.415879 0.599704 0.086769
Si Si3 0.551694 0.643004 0.584534
Si Si4 0.538635 0.842446 0.414128
Si Si5 0.583143 0.394998 0.583307
Si Si6 0.760198 0.883497 0.891127
O O1 0.347471 0.841248 0.956046
O O2 0.247510 0.876239 0.785663
O O3 0.240451 0.741460 0.032431
O O4 0.258609 0.987310 0.042063
O O5 0.431752 0.466581 0.058377
O O6 0.437698 0.630230 0.250920
O O7 0.338892 0.615583 0.086484
O O8 0.463661 0.660629 0.972334
O O9 0.579875 0.746700 0.494325
O O10 0.541281 0.680405 0.746709
O O11 0.596556 0.532100 0.582329
O O12 0.479516 0.615529 0.520495
#
# Coordination Sequence:
#
# PCOD9459161 Si02
#       6
#     8   8   8   8   8   8
#     4  11  24  43  65  90 121 159 205 255 307 362
#     4   9  20  37  56  81 113 150 192 237 289 350
#     4  10  19  32  53  82 115 150 188 233 287 347
#     4  10  19  32  53  82 115 150 188 233 287 347
#     4   9  20  37  56  81 113 150 192 237 289 350
#     4  11  24  43  65  90 121 159 205 255 307 362
#
# _framework density 22.088321000000001
#
# number of rings (size 3 to 8) (size 9 to 14) (size 15 to 20)
#    0.000    2.000    0.000    3.000    0.000    8.000 
#    0.000    3.333    0.000    0.000    0.000    0.000 
#    0.000    0.000    0.000    0.000    0.000    0.000 
#
# Total GULP energy -267271.880742 kJ/mol
# GULP energy per Si atom -5568.164182 kJ/mol
# Density = 2.203805 g / cm^3
# Si number density = 22.088321 Si / 1000 Ang^3
#
#
#
# Elastic Constant Matrix: (Units=GPa)
#
#
# Indices 1 2 3 4 5 6 
#
# 1 29.7291 10.0695 18.7001 0.0000 0.0000 0.0000
# 2 10.0695 130.9725 47.9044 0.0000 0.0000 0.0000
# 3 18.7001 47.9044 123.9311 0.0000 0.0000 0.0000
# 4 0.0000 0.0000 0.0000 41.1013 0.0000 0.0000
# 5 0.0000 0.0000 0.0000 0.0000 15.0469 0.0000
# 6 0.0000 0.0000 0.0000 0.0000 0.0000 14.2601
#
#
#
# Elastic Compliance Matrix: (Units=1/GPa)
#
#
# Indices 1 2 3 4 5 6 
#
# 1 0.037264 -0.000941 -0.005259 0.000000 0.000000 0.000000
# 2 -0.000941 0.008916 -0.003304 0.000000 0.000000 0.000000
# 3 -0.005259 -0.003304 0.010140 0.000000 0.000000 0.000000
# 4 0.000000 0.000000 0.000000 0.024330 0.000000 0.000000
# 5 0.000000 0.000000 0.000000 0.000000 0.066459 0.000000
# 6 0.000000 0.000000 0.000000 0.000000 0.000000 0.070126
#
#
# Mechanical properties :
#
#
# Convention : Reuss Voigt Hill
#
# Bulk Modulus (GPa) = 26.80215 48.66450 37.73333
# Shear Modulus (GPa) = 20.10605 27.94555 24.02580
#
# Velocity S-wave (km/s) = 3.02032 3.56079 3.30163
# Velocity P-wave (km/s) = 4.93189 6.24381 5.62622
#
# Compressibility (1/GPa) = 0.03731043
#
# Stress axis : x y z
#
# Youngs Moduli (GPa) = 26.83561 112.15547 98.62125
#
# Poissons Ratio (x) = 0.10559 0.51864
# Poissons Ratio (y) = 0.02526 0.32589
# Poissons Ratio (z) = 0.14112 0.37061
#
# Static dielectric constant tensor:
#      x y z
#    x 1.846960 0.000000 0.000000 
#    y 0.000000 1.919880 0.000000 
#    z 0.000000 0.000000 1.840390 
# 
# From -- ./inp_files/4216.got.cif
#   From: 2010.05.17/outbox.cif.g08.bks.cpg/sg61_3_cif.got.tgz:4216.got - 2010.06.03 15:17:17.
