data_PCOD9459576
_publ_section_title
;
Structure prediction by ZEFSAII (Michael W. Deem and Ramdas Pophale) SiO2 
 PCOD9459576
Probable space group: P B C A
;
_chemical_formula_sum "Si O2"
_cell_formula_units_Z 64
_cell_length_a 16.357958
_cell_length_b 9.344732
_cell_length_c 17.798275
_cell_angle_alpha 90.000000
_cell_angle_beta 90.000000
_cell_angle_gamma 90.000000
_cell_volume 2720.657373
_symmetry_space_group_name_H-M "P B C A"
_symmetry_group_IT_number 61
_symmetry_cell_setting 'orthorhombic'
loop_
_space_group_symop_operation_xyz
x,y,z
1/2-x,-y,1/2+z
1/2+x,1/2-y,-z
-x,1/2+y,1/2-z
-x,-y,-z
1/2+x,y,1/2-z
1/2-x,1/2+y,z
x,1/2-y,1/2+z
loop_
_atom_site_type_symbol
_atom_site_label
_atom_site_fract_x
_atom_site_fract_y
_atom_site_fract_z
Si Si1 0.491817 0.339855 0.335037
Si Si2 0.400475 0.185866 0.696243
Si Si3 0.516272 0.358801 0.588811
Si Si4 0.723433 0.869321 0.425123
Si Si5 0.603815 0.775232 0.043483
Si Si6 0.712101 0.924991 0.718812
Si Si7 0.803830 0.548642 0.069828
Si Si8 0.330452 0.729180 0.705833
O O1 0.438623 0.394668 0.265696
O O2 0.507506 0.482786 0.382731
O O3 0.447281 0.218640 0.385774
O O4 0.574243 0.274349 0.305098
O O5 0.474793 0.250616 0.647601
O O6 0.341724 0.096944 0.640707
O O7 0.350382 0.316929 0.737276
O O8 0.466830 0.331985 0.512329
O O9 0.615089 0.350663 0.578320
O O10 0.665341 0.800068 0.487648
O O11 0.777272 0.964082 0.481876
O O12 0.787499 0.777240 0.376390
O O13 0.658288 0.894094 0.085656
O O14 0.730296 0.922506 0.628785
O O15 0.797317 0.863062 0.749262
O O16 0.694042 0.084079 0.748600
#
# Coordination Sequence:
#
# PCOD9459576 Si02
#       8
#     8   8   8   8   8   8   8   8
#     4  11  20  39  67  90 125 176 216 265 330 390
#     4  10  22  40  60  90 131 167 214 278 324 391
#     4  10  20  38  62  91 121 166 224 261 319 403
#     4  10  23  38  63  90 132 164 217 276 330 380
#     4  10  22  39  64  93 125 172 222 275 317 403
#     4  11  25  41  66  98 134 168 226 276 332 400
#     4  11  22  36  64  92 124 169 219 269 330 387
#     4  11  24  43  68  97 133 174 220 275 336 396
#
# _framework density 23.523726
#
# number of rings (size 3 to 8) (size 9 to 14) (size 15 to 20)
#    0.000    1.500    1.250    4.500   12.250    0.000 
#    0.000    0.000    0.000    1.500    0.000    0.000 
#    0.000    0.000    0.000    0.000    0.000    0.000 
#
# Total GULP energy -356759.720440 kJ/mol
# GULP energy per Si atom -5574.370632 kJ/mol
# Density = 2.347018 g / cm^3
# Si number density = 23.523726 Si / 1000 Ang^3
#
#
#
# Elastic Constant Matrix: (Units=GPa)
#
#
# Indices 1 2 3 4 5 6 
#
# 1 104.7007 9.1442 38.2532 0.0000 0.0000 0.0000
# 2 9.1442 17.2880 9.0592 0.0000 0.0000 0.0000
# 3 38.2532 9.0592 152.7621 0.0000 0.0000 0.0000
# 4 0.0000 0.0000 0.0000 19.5471 0.0000 0.0000
# 5 0.0000 0.0000 0.0000 0.0000 34.2400 0.0000
# 6 0.0000 0.0000 0.0000 0.0000 0.0000 20.3811
#
#
#
# Elastic Compliance Matrix: (Units=1/GPa)
#
#
# Indices 1 2 3 4 5 6 
#
# 1 0.010834 -0.004447 -0.002449 0.000000 0.000000 0.000000
# 2 -0.004447 0.061524 -0.002535 0.000000 0.000000 0.000000
# 3 -0.002449 -0.002535 0.007310 0.000000 0.000000 0.000000
# 4 0.000000 0.000000 0.000000 0.051158 0.000000 0.000000
# 5 0.000000 0.000000 0.000000 0.000000 0.029206 0.000000
# 6 0.000000 0.000000 0.000000 0.000000 0.000000 0.049065
#
#
# Mechanical properties :
#
#
# Convention : Reuss Voigt Hill
#
# Bulk Modulus (GPa) = 16.44587 43.07378 29.75982
# Shear Modulus (GPa) = 20.14272 29.38660 24.76466
#
# Velocity S-wave (km/s) = 2.92939 3.53828 3.24813
# Velocity P-wave (km/s) = 4.29513 5.91972 5.17162
#
# Compressibility (1/GPa) = 0.06080553
#
# Stress axis : x y z
#
# Youngs Moduli (GPa) = 92.29948 16.25377 136.80307
#
# Poissons Ratio (x) = 0.07228 0.33507
# Poissons Ratio (y) = 0.41047 0.34678
# Poissons Ratio (z) = 0.22607 0.04120
#
# Static dielectric constant tensor:
#      x y z
#    x 1.952640 0.000000 0.000000 
#    y 0.000000 1.909510 0.000000 
#    z 0.000000 0.000000 1.909800 
# 
# From -- ./inp_files/9713.got.cif
#   From: 2010.05.17/outbox.cif.g08.bks.cpg/sg61_5_cif.got.tgz:9713.got - 2010.06.03 15:17:17.
