data_PCOD9459513
_publ_section_title
;
Structure prediction by ZEFSAII (Michael W. Deem and Ramdas Pophale) SiO2 
 PCOD9459513
Probable space group: P B C A
;
_chemical_formula_sum "Si O2"
_cell_formula_units_Z 48
_cell_length_a 7.730663
_cell_length_b 13.465248
_cell_length_c 21.879167
_cell_angle_alpha 90.000000
_cell_angle_beta 90.000000
_cell_angle_gamma 90.000000
_cell_volume 2277.518332
_symmetry_space_group_name_H-M "P B C A"
_symmetry_group_IT_number 61
_symmetry_cell_setting 'orthorhombic'
loop_
_space_group_symop_operation_xyz
x,y,z
1/2-x,-y,1/2+z
1/2+x,1/2-y,-z
-x,1/2+y,1/2-z
-x,-y,-z
1/2+x,y,1/2-z
1/2-x,1/2+y,z
x,1/2-y,1/2+z
loop_
_atom_site_type_symbol
_atom_site_label
_atom_site_fract_x
_atom_site_fract_y
_atom_site_fract_z
Si Si1 0.116953 0.678797 0.487626
Si Si2 0.315090 0.774391 0.681405
Si Si3 0.593910 0.442279 0.576786
Si Si4 0.419104 0.779445 0.815505
Si Si5 0.119339 0.663347 0.876395
Si Si6 0.742222 0.353918 0.943765
O O1 0.259421 0.599516 0.468282
O O2 0.112849 0.762631 0.434476
O O3 0.177781 0.743187 0.545310
O O4 0.922817 0.636180 0.488041
O O5 0.370261 0.813940 0.747472
O O6 0.447855 0.688125 0.662459
O O7 0.323780 0.854591 0.626184
O O8 0.115997 0.743004 0.685373
O O9 0.595571 0.368165 0.635417
O O10 0.624615 0.552325 0.599839
O O11 0.402516 0.427286 0.548558
O O12 0.285205 0.695596 0.837126
#
# Coordination Sequence:
#
# PCOD9459513 Si02
#       6
#     8   8   8   8   8   8
#     4  10  20  39  62  83 123 158 194 247 299 347
#     4  10  20  38  60  82 115 158 194 241 298 350
#     4  10  22  39  61  89 115 158 202 242 295 356
#     4  10  20  40  61  81 121 155 193 245 302 349
#     4  10  22  39  59  88 119 156 198 249 293 353
#     4  10  20  37  61  85 116 158 200 241 299 353
#
# _framework density 21.075569999999999
#
# number of rings (size 3 to 8) (size 9 to 14) (size 15 to 20)
#    0.000    2.000    3.333    0.000    0.000    2.000 
#    6.000    0.833    0.000    0.000    0.000    0.000 
#    0.000    0.000    0.000    0.000    0.000    0.000 
#
# Total GULP energy -268256.965268 kJ/mol
# GULP energy per Si atom -5588.686776 kJ/mol
# Density = 2.102760 g / cm^3
# Si number density = 21.075570 Si / 1000 Ang^3
#
#
#
# Elastic Constant Matrix: (Units=GPa)
#
#
# Indices 1 2 3 4 5 6 
#
# 1 155.6458 52.3482 34.2312 0.0000 0.0000 0.0000
# 2 52.3482 99.6187 6.0451 0.0000 0.0000 0.0000
# 3 34.2312 6.0451 77.0079 0.0000 0.0000 0.0000
# 4 0.0000 0.0000 0.0000 16.5104 0.0000 0.0000
# 5 0.0000 0.0000 0.0000 0.0000 36.4208 0.0000
# 6 0.0000 0.0000 0.0000 0.0000 0.0000 16.2270
#
#
#
# Elastic Compliance Matrix: (Units=1/GPa)
#
#
# Indices 1 2 3 4 5 6 
#
# 1 0.008654 -0.004335 -0.003507 0.000000 0.000000 0.000000
# 2 -0.004335 0.012258 0.000965 0.000000 0.000000 0.000000
# 3 -0.003507 0.000965 0.014469 0.000000 0.000000 0.000000
# 4 0.000000 0.000000 0.000000 0.060568 0.000000 0.000000
# 5 0.000000 0.000000 0.000000 0.000000 0.027457 0.000000
# 6 0.000000 0.000000 0.000000 0.000000 0.000000 0.061626
#
#
# Mechanical properties :
#
#
# Convention : Reuss Voigt Hill
#
# Bulk Modulus (GPa) = 46.23867 57.50239 51.87053
# Shear Modulus (GPa) = 24.27267 29.80815 27.04041
#
# Velocity S-wave (km/s) = 3.39735 3.76486 3.58581
# Velocity P-wave (km/s) = 6.11362 6.80015 6.46600
#
# Compressibility (1/GPa) = 0.02162692
#
# Stress axis : x y z
#
# Youngs Moduli (GPa) = 115.55443 81.58219 69.11484
#
# Poissons Ratio (x) = 0.35364 0.24235
# Poissons Ratio (y) = 0.50090 -0.06667
# Poissons Ratio (z) = 0.40520 -0.07870
#
# Static dielectric constant tensor:
#      x y z
#    x 1.794420 0.000000 0.000000 
#    y 0.000000 1.705360 0.000000 
#    z 0.000000 0.000000 1.802570 
# 
# From -- ./inp_files/2269.got.cif
#   From: 2010.05.17/outbox.cif.g08.bks.cpg/sg61_2_cif.got.tgz:2269.got - 2010.06.03 15:17:17.
