data_PCOD9460982
_publ_section_title
;
Structure prediction by ZEFSAII (Michael W. Deem and Ramdas Pophale) SiO2 
 PCOD9460982
Probable space group: P B C A
;
_chemical_formula_sum "Si O2"
_cell_formula_units_Z 48
_cell_length_a 14.563481
_cell_length_b 17.767369
_cell_length_c 8.783820
_cell_angle_alpha 90.000000
_cell_angle_beta 90.000000
_cell_angle_gamma 90.000000
_cell_volume 2272.855068
_symmetry_space_group_name_H-M "P B C A"
_symmetry_group_IT_number 61
_symmetry_cell_setting 'orthorhombic'
loop_
_space_group_symop_operation_xyz
x,y,z
1/2-x,-y,1/2+z
1/2+x,1/2-y,-z
-x,1/2+y,1/2-z
-x,-y,-z
1/2+x,y,1/2-z
1/2-x,1/2+y,z
x,1/2-y,1/2+z
loop_
_atom_site_type_symbol
_atom_site_label
_atom_site_fract_x
_atom_site_fract_y
_atom_site_fract_z
Si Si1 0.711109 0.321726 0.437539
Si Si2 0.833915 0.329368 0.934768
Si Si3 0.469724 0.717537 0.372021
Si Si4 0.023388 0.360050 0.545720
Si Si5 0.305788 0.905488 0.365208
Si Si6 0.832599 0.076048 0.132370
O O1 0.780690 0.250656 0.437122
O O2 0.625273 0.301296 0.544404
O O3 0.677286 0.346694 0.271107
O O4 0.765812 0.393539 0.501801
O O5 0.817423 0.366933 0.771484
O O6 0.943116 0.323314 0.948703
O O7 0.790705 0.381241 0.063884
O O8 0.465447 0.690933 0.197476
O O9 0.495159 0.804101 0.404728
O O10 0.118861 0.397693 0.499530
O O11 0.937858 0.414208 0.577392
O O12 0.310653 0.991842 0.316946
#
# Coordination Sequence:
#
# PCOD9460982 Si02
#       6
#     8   8   8   8   8   8
#     4  12  24  42  71  98 130 177 221 273 326 390
#     4  11  24  44  67  97 131 175 224 275 319 395
#     4  11  24  41  70  99 128 168 229 275 317 392
#     4  11  23  42  67  95 133 169 220 273 327 386
#     4  12  25  42  68  98 138 174 217 272 336 389
#     4  11  25  45  65  99 135 177 219 271 332 391
#
# _framework density 21.118811000000001
#
# number of rings (size 3 to 8) (size 9 to 14) (size 15 to 20)
#    0.000    0.667    3.333    4.500    2.333    1.333 
#    0.000    9.167    0.000    0.000    0.000    0.000 
#    0.000    0.000    0.000    0.000    0.000    0.000 
#
# Total GULP energy -268390.805028 kJ/mol
# GULP energy per Si atom -5591.475105 kJ/mol
# Density = 2.107074 g / cm^3
# Si number density = 21.118811 Si / 1000 Ang^3
#
#
#
# Elastic Constant Matrix: (Units=GPa)
#
#
# Indices 1 2 3 4 5 6 
#
# 1 83.7498 17.2308 17.1641 0.0000 0.0000 0.0000
# 2 17.2308 61.7605 -0.3150 0.0000 0.0000 0.0000
# 3 17.1641 -0.3150 52.1931 0.0000 0.0000 0.0000
# 4 0.0000 0.0000 0.0000 24.9260 0.0000 0.0000
# 5 0.0000 0.0000 0.0000 0.0000 32.0529 0.0000
# 6 0.0000 0.0000 0.0000 0.0000 0.0000 19.0557
#
#
#
# Elastic Compliance Matrix: (Units=1/GPa)
#
#
# Indices 1 2 3 4 5 6 
#
# 1 0.013654 -0.003832 -0.004513 0.000000 0.000000 0.000000
# 2 -0.003832 0.017268 0.001364 0.000000 0.000000 0.000000
# 3 -0.004513 0.001364 0.020652 0.000000 0.000000 0.000000
# 4 0.000000 0.000000 0.000000 0.040119 0.000000 0.000000
# 5 0.000000 0.000000 0.000000 0.000000 0.031198 0.000000
# 6 0.000000 0.000000 0.000000 0.000000 0.000000 0.052478
#
#
# Mechanical properties :
#
#
# Convention : Reuss Voigt Hill
#
# Bulk Modulus (GPa) = 26.58771 29.54035 28.06403
# Shear Modulus (GPa) = 24.76867 26.11515 25.44191
#
# Velocity S-wave (km/s) = 3.42837 3.52032 3.47465
# Velocity P-wave (km/s) = 5.31870 5.52645 5.42357
#
# Compressibility (1/GPa) = 0.03761137
#
# Stress axis : x y z
#
# Youngs Moduli (GPa) = 73.23990 57.91147 48.42132
#
# Poissons Ratio (x) = 0.22194 0.21854
# Poissons Ratio (y) = 0.28068 -0.06607
# Poissons Ratio (z) = 0.33055 -0.07902
#
# Static dielectric constant tensor:
#      x y z
#    x 1.768860 0.000000 0.000000 
#    y 0.000000 1.749820 0.000000 
#    z 0.000000 0.000000 1.769420 
# 
# From -- ./inp_files/2835.got.cif
#   From: 2010.05.17/outbox.cif.g08.bks.cpg/sg61_2_cif.got.tgz:2835.got - 2010.06.03 15:17:17.
