data_PCOD9460529
_publ_section_title
;
Structure prediction by ZEFSAII (Michael W. Deem and Ramdas Pophale) SiO2 
 PCOD9460529
Probable space group: P B C A
;
_chemical_formula_sum "Si O2"
_cell_formula_units_Z 64
_cell_length_a 8.509507
_cell_length_b 15.471274
_cell_length_c 22.327774
_cell_angle_alpha 90.000000
_cell_angle_beta 90.000000
_cell_angle_gamma 90.000000
_cell_volume 2939.516519
_symmetry_space_group_name_H-M "P B C A"
_symmetry_group_IT_number 61
_symmetry_cell_setting 'orthorhombic'
loop_
_space_group_symop_operation_xyz
x,y,z
1/2-x,-y,1/2+z
1/2+x,1/2-y,-z
-x,1/2+y,1/2-z
-x,-y,-z
1/2+x,y,1/2-z
1/2-x,1/2+y,z
x,1/2-y,1/2+z
loop_
_atom_site_type_symbol
_atom_site_label
_atom_site_fract_x
_atom_site_fract_y
_atom_site_fract_z
Si Si1 0.497155 0.187863 0.753400
Si Si2 0.927967 0.760325 0.639978
Si Si3 0.833413 0.315780 0.066414
Si Si4 0.039548 0.469790 0.113413
Si Si5 0.824240 0.140188 0.432808
Si Si6 0.491537 0.820836 0.634098
Si Si7 0.253210 0.571570 0.323173
Si Si8 0.252035 0.566318 0.728026
O O1 0.452408 0.229832 0.690528
O O2 0.491162 0.252208 0.810104
O O3 0.677636 0.157285 0.747104
O O4 0.424836 0.091275 0.746928
O O5 0.814679 0.687894 0.611742
O O6 0.828173 0.833107 0.675217
O O7 0.023690 0.805081 0.587083
O O8 0.965730 0.386282 0.082228
O O9 0.916371 0.224151 0.079052
O O10 0.778432 0.332370 0.999389
O O11 0.883968 0.515498 0.141842
O O12 0.122994 0.540391 0.071570
O O13 0.170600 0.442467 0.162660
O O14 0.684552 0.159917 0.386303
O O15 0.582798 0.909607 0.648591
O O16 0.223193 0.524605 0.260762
#
# Coordination Sequence:
#
# PCOD9460529 Si02
#       8
#     8   8   8   8   8   8   8   8
#     4  12  24  40  65  98 133 169 215 274 337 408
#     4  10  24  41  67  96 131 173 221 279 335 399
#     4  11  22  49  64  91 138 180 226 281 333 398
#     4  11  24  42  64  96 131 182 225 270 335 405
#     4  11  25  41  71  98 128 179 232 278 333 400
#     4  11  24  42  69 102 133 172 224 285 340 399
#     4  10  23  41  62  95 138 170 208 272 339 398
#     4  12  23  40  63  97 135 179 206 265 344 406
#
# _framework density 21.772289000000001
#
# number of rings (size 3 to 8) (size 9 to 14) (size 15 to 20)
#    0.000    1.000    2.500    4.125    7.000    0.000 
#    0.000    0.625    0.000    0.000    0.000    0.000 
#    0.000    0.000    0.000    0.000    0.000    0.000 
#
# Total GULP energy -356626.946632 kJ/mol
# GULP energy per Si atom -5572.296041 kJ/mol
# Density = 2.172273 g / cm^3
# Si number density = 21.772289 Si / 1000 Ang^3
#
#
#
# Elastic Constant Matrix: (Units=GPa)
#
#
# Indices 1 2 3 4 5 6 
#
# 1 68.7630 12.2842 20.7132 0.0000 0.0000 0.0000
# 2 12.2842 52.6732 27.7296 0.0000 0.0000 0.0000
# 3 20.7132 27.7296 81.8346 0.0000 0.0000 0.0000
# 4 0.0000 0.0000 0.0000 24.5145 0.0000 0.0000
# 5 0.0000 0.0000 0.0000 0.0000 29.4796 0.0000
# 6 0.0000 0.0000 0.0000 0.0000 0.0000 29.9546
#
#
#
# Elastic Compliance Matrix: (Units=1/GPa)
#
#
# Indices 1 2 3 4 5 6 
#
# 1 0.015903 -0.001935 -0.003370 0.000000 0.000000 0.000000
# 2 -0.001935 0.023342 -0.007420 0.000000 0.000000 0.000000
# 3 -0.003370 -0.007420 0.015587 0.000000 0.000000 0.000000
# 4 0.000000 0.000000 0.000000 0.040792 0.000000 0.000000
# 5 0.000000 0.000000 0.000000 0.000000 0.033922 0.000000
# 6 0.000000 0.000000 0.000000 0.000000 0.000000 0.033384
#
#
# Mechanical properties :
#
#
# Convention : Reuss Voigt Hill
#
# Bulk Modulus (GPa) = 34.03238 36.08056 35.05647
# Shear Modulus (GPa) = 25.23037 26.29266 25.76151
#
# Velocity S-wave (km/s) = 3.40785 3.47885 3.44354
# Velocity P-wave (km/s) = 5.58118 5.72226 5.65216
#
# Compressibility (1/GPa) = 0.02938378
#
# Stress axis : x y z
#
# Youngs Moduli (GPa) = 62.87963 42.84058 64.15667
#
# Poissons Ratio (x) = 0.08290 0.21619
# Poissons Ratio (y) = 0.12167 0.47603
# Poissons Ratio (z) = 0.21188 0.31787
#
# Static dielectric constant tensor:
#      x y z
#    x 1.817960 0.000000 0.000000 
#    y 0.000000 1.825030 0.000000 
#    z 0.000000 0.000000 1.793110 
# 
# From -- ./inp_files/10916.got.cif
#   From: 2010.05.17/outbox.cif.g08.bks.cpg/sg61_6_cif.got.tgz:10916.got - 2010.06.03 15:17:17.
