data_PCOD9460722
_publ_section_title
;
Structure prediction by ZEFSAII (Michael W. Deem and Ramdas Pophale) SiO2 
 PCOD9460722
Probable space group: P B C A
;
_chemical_formula_sum "Si O2"
_cell_formula_units_Z 40
_cell_length_a 9.621618
_cell_length_b 8.776513
_cell_length_c 19.523551
_cell_angle_alpha 90.000000
_cell_angle_beta 90.000000
_cell_angle_gamma 90.000000
_cell_volume 1648.651728
_symmetry_space_group_name_H-M "P B C A"
_symmetry_group_IT_number 61
_symmetry_cell_setting 'orthorhombic'
loop_
_space_group_symop_operation_xyz
x,y,z
1/2-x,-y,1/2+z
1/2+x,1/2-y,-z
-x,1/2+y,1/2-z
-x,-y,-z
1/2+x,y,1/2-z
1/2-x,1/2+y,z
x,1/2-y,1/2+z
loop_
_atom_site_type_symbol
_atom_site_label
_atom_site_fract_x
_atom_site_fract_y
_atom_site_fract_z
Si Si1 0.652345 0.608732 0.718882
Si Si2 0.558196 0.224491 0.885741
Si Si3 0.048744 0.742761 0.036773
Si Si4 0.566917 0.237681 0.187114
Si Si5 0.727065 0.491316 0.914666
O O1 0.581491 0.689422 0.652838
O O2 0.814390 0.644914 0.711238
O O3 0.576221 0.698612 0.780617
O O4 0.611330 0.430842 0.712500
O O5 0.627557 0.385414 0.870015
O O6 0.671794 0.095955 0.870106
O O7 0.533970 0.222635 0.967198
O O8 0.130398 0.902427 0.039295
O O9 0.169049 0.616149 0.043258
O O10 0.955561 0.732442 0.105123
#
# Coordination Sequence:
#
# PCOD9460722 Si02
#       5
#     8   8   8   8   8
#     4  12  30  49  75 105 146 191 242 297 360 431
#     4  11  25  44  74 105 144 188 242 297 359 423
#     4  11  25  44  74 105 144 188 242 297 359 423
#     4  12  30  49  75 105 146 191 242 297 360 431
#     4  10  24  42  72 104 146 186 238 296 364 418
#
# _framework density 24.262250999999999
#
# number of rings (size 3 to 8) (size 9 to 14) (size 15 to 20)
#    0.000    0.800    2.000    2.400   16.800    0.000 
#    0.000    0.000    0.000    0.000    0.000    0.000 
#    0.000    0.000    0.000    0.000    0.000    0.000 
#
# Total GULP energy -224233.328018 kJ/mol
# GULP energy per Si atom -5605.833200 kJ/mol
# Density = 2.420703 g / cm^3
# Si number density = 24.262251 Si / 1000 Ang^3
#
#
#
# Elastic Constant Matrix: (Units=GPa)
#
#
# Indices 1 2 3 4 5 6 
#
# 1 108.3518 31.0471 25.9173 0.0000 0.0000 0.0000
# 2 31.0471 125.2491 9.8469 0.0000 0.0000 0.0000
# 3 25.9173 9.8469 153.4469 0.0000 0.0000 0.0000
# 4 0.0000 0.0000 0.0000 10.1310 0.0000 0.0000
# 5 0.0000 0.0000 0.0000 0.0000 13.5454 0.0000
# 6 0.0000 0.0000 0.0000 0.0000 0.0000 45.3710
#
#
#
# Elastic Compliance Matrix: (Units=1/GPa)
#
#
# Indices 1 2 3 4 5 6 
#
# 1 0.010304 -0.002430 -0.001585 0.000000 0.000000 0.000000
# 2 -0.002430 0.008597 -0.000141 0.000000 0.000000 0.000000
# 3 -0.001585 -0.000141 0.006794 0.000000 0.000000 0.000000
# 4 0.000000 0.000000 0.000000 0.098707 0.000000 0.000000
# 5 0.000000 0.000000 0.000000 0.000000 0.073826 0.000000
# 6 0.000000 0.000000 0.000000 0.000000 0.000000 0.022041
#
#
# Mechanical properties :
#
#
# Convention : Reuss Voigt Hill
#
# Bulk Modulus (GPa) = 57.52284 57.85227 57.68756
# Shear Modulus (GPa) = 21.33337 35.15858 28.24597
#
# Velocity S-wave (km/s) = 2.96849 3.81084 3.41573
# Velocity P-wave (km/s) = 5.95898 6.57721 6.27571
#
# Compressibility (1/GPa) = 0.01738440
#
# Stress axis : x y z
#
# Youngs Moduli (GPa) = 97.04583 116.31305 147.19725
#
# Poissons Ratio (x) = 0.28261 0.23323
# Poissons Ratio (y) = 0.23579 0.02080
# Poissons Ratio (z) = 0.15377 0.01644
#
# Static dielectric constant tensor:
#      x y z
#    x 1.855690 0.000000 0.000000 
#    y 0.000000 1.944100 0.000000 
#    z 0.000000 0.000000 1.946690 
# 
# From -- ./inp_files/9116.got.cif
#   From: 2010.05.17/outbox.cif.g08.bks.cpg/sg61_5_cif.got.tgz:9116.got - 2010.06.03 15:17:17.
