data_PCOD9460695
_publ_section_title
;
Structure prediction by ZEFSAII (Michael W. Deem and Ramdas Pophale) SiO2 
 PCOD9460695
Probable space group: P B C A
;
_chemical_formula_sum "Si O2"
_cell_formula_units_Z 44
_cell_length_a 20.885304
_cell_length_b 4.717844
_cell_length_c 16.669352
_cell_angle_alpha 90.000000
_cell_angle_beta 90.000000
_cell_angle_gamma 90.000000
_cell_volume 1642.491365
_symmetry_space_group_name_H-M "P B C A"
_symmetry_group_IT_number 61
_symmetry_cell_setting 'orthorhombic'
loop_
_space_group_symop_operation_xyz
x,y,z
1/2-x,-y,1/2+z
1/2+x,1/2-y,-z
-x,1/2+y,1/2-z
-x,-y,-z
1/2+x,y,1/2-z
1/2-x,1/2+y,z
x,1/2-y,1/2+z
loop_
_atom_site_type_symbol
_atom_site_label
_atom_site_fract_x
_atom_site_fract_y
_atom_site_fract_z
Si Si1 0.096281 0.124861 0.270976
Si Si2 0.521148 0.389102 0.355197
Si Si3 0.500000 0.000000 0.000000
Si Si4 0.292636 0.274356 0.209869
Si Si5 0.915632 0.514063 0.569987
Si Si6 0.294811 0.395664 0.024304
O O1 0.153127 0.903323 0.265788
O O2 0.098836 0.347693 0.343340
O O3 0.083153 0.270691 0.185730
O O4 0.029455 0.959443 0.286452
O O5 0.533657 0.641981 0.415836
O O6 0.472608 0.226517 0.420073
O O7 0.436572 0.774267 0.985767
O O8 0.273082 0.951707 0.223425
O O9 0.310658 0.333128 0.117391
O O10 0.854256 0.358591 0.534131
O O11 0.231407 0.210287 0.010248
#
# Coordination Sequence:
#
# PCOD9460695 Si02
#       6
#     8   8   4   8   8   8
#     4  11  24  41  67  96 141 176 226 286 349 424
#     4  11  23  44  63 103 134 185 223 289 352 413
#     4  10  24  40  68  96 130 176 232 282 340 416
#     4  10  24  45  68  97 132 183 234 283 350 414
#     4  11  24  43  66 100 133 179 230 282 355 413
#     4  10  24  46  69  97 136 182 235 295 342 414
#
# _framework density 26.788573
#
# number of rings (size 3 to 8) (size 9 to 14) (size 15 to 20)
#    0.000    1.455    1.818    1.636    7.636    1.455 
#    9.818    0.000    0.000    0.000    0.000    0.000 
#    0.000    0.000    0.000    0.000    0.000    0.000 
#
# Total GULP energy -245784.301163 kJ/mol
# GULP energy per Si atom -5586.006845 kJ/mol
# Density = 2.672760 g / cm^3
# Si number density = 26.788573 Si / 1000 Ang^3
#
#
#
# Elastic Constant Matrix: (Units=GPa)
#
#
# Indices 1 2 3 4 5 6 
#
# 1 91.6548 22.5890 40.0726 0.0000 0.0000 0.0000
# 2 22.5890 74.4916 6.6629 0.0000 0.0000 0.0000
# 3 40.0726 6.6629 92.9740 0.0000 0.0000 0.0000
# 4 0.0000 0.0000 0.0000 38.1558 0.0000 0.0000
# 5 0.0000 0.0000 0.0000 0.0000 31.6248 0.0000
# 6 0.0000 0.0000 0.0000 0.0000 0.0000 49.3228
#
#
#
# Elastic Compliance Matrix: (Units=1/GPa)
#
#
# Indices 1 2 3 4 5 6 
#
# 1 0.014465 -0.003854 -0.005959 0.000000 0.000000 0.000000
# 2 -0.003854 0.014538 0.000619 0.000000 0.000000 0.000000
# 3 -0.005959 0.000619 0.013280 0.000000 0.000000 0.000000
# 4 0.000000 0.000000 0.000000 0.026208 0.000000 0.000000
# 5 0.000000 0.000000 0.000000 0.000000 0.031621 0.000000
# 6 0.000000 0.000000 0.000000 0.000000 0.000000 0.020275
#
#
# Mechanical properties :
#
#
# Convention : Reuss Voigt Hill
#
# Bulk Modulus (GPa) = 41.84730 44.19661 43.02195
# Shear Modulus (GPa) = 34.07443 36.47374 35.27409
#
# Velocity S-wave (km/s) = 3.57035 3.69391 3.63265
# Velocity P-wave (km/s) = 5.71417 5.89300 5.80427
#
# Compressibility (1/GPa) = 0.02389641
#
# Stress axis : x y z
#
# Youngs Moduli (GPa) = 69.13056 68.78750 75.30401
#
# Poissons Ratio (x) = 0.26508 0.44870
# Poissons Ratio (y) = 0.26640 -0.04662
# Poissons Ratio (z) = 0.41192 -0.04259
#
# Static dielectric constant tensor:
#      x y z
#    x 2.069400 0.000000 0.000000 
#    y 0.000000 2.264860 0.000000 
#    z 0.000000 0.000000 2.238030 
# 
# From -- ./inp_files/10574.got.cif
#   From: 2010.05.17/outbox.cif.g08.bks.cpg/sg61_6_cif.got.tgz:10574.got - 2010.06.03 15:17:17.
