data_PCOD9460037
_publ_section_title
;
Structure prediction by ZEFSAII (Michael W. Deem and Ramdas Pophale) SiO2 
 PCOD9460037
Probable space group: P B C A
;
_chemical_formula_sum "Si O2"
_cell_formula_units_Z 48
_cell_length_a 16.639714
_cell_length_b 13.796520
_cell_length_c 9.867658
_cell_angle_alpha 90.000000
_cell_angle_beta 90.000000
_cell_angle_gamma 90.000000
_cell_volume 2265.319698
_symmetry_space_group_name_H-M "P B C A"
_symmetry_group_IT_number 61
_symmetry_cell_setting 'orthorhombic'
loop_
_space_group_symop_operation_xyz
x,y,z
1/2-x,-y,1/2+z
1/2+x,1/2-y,-z
-x,1/2+y,1/2-z
-x,-y,-z
1/2+x,y,1/2-z
1/2-x,1/2+y,z
x,1/2-y,1/2+z
loop_
_atom_site_type_symbol
_atom_site_label
_atom_site_fract_x
_atom_site_fract_y
_atom_site_fract_z
Si Si1 0.509245 0.428453 0.124838
Si Si2 0.169827 0.154137 0.793414
Si Si3 0.684329 0.165152 0.026337
Si Si4 0.550661 0.460668 0.626516
Si Si5 0.438983 0.218938 0.135269
Si Si6 0.669801 0.777483 0.112525
O O1 0.602538 0.424512 0.172309
O O2 0.455807 0.465546 0.250193
O O3 0.479953 0.320084 0.092298
O O4 0.500000 0.500000 0.000000
O O5 0.167767 0.175013 0.633281
O O6 0.263130 0.144996 0.837366
O O7 0.147611 0.247052 0.885317
O O8 0.639666 0.070177 0.080259
O O9 0.778175 0.185430 0.055574
O O10 0.500000 0.500000 0.500000
O O11 0.502868 0.363497 0.670622
O O12 0.383052 0.241904 0.263056
O O13 0.384497 0.184964 0.009318
#
# Coordination Sequence:
#
# PCOD9460037 Si02
#       6
#     8   8   8   8   8   8
#     4  12  27  42  67 102 134 180 228 269 336 402
#     4  10  21  43  67  93 133 175 218 262 345 389
#     4  10  21  42  68  92 132 178 214 263 349 386
#     4  12  25  42  69  98 133 178 224 276 333 395
#     4  12  23  44  67 101 133 165 230 284 318 401
#     4  10  21  40  72  93 129 182 206 276 349 382
#
# _framework density 21.189063000000001
#
# number of rings (size 3 to 8) (size 9 to 14) (size 15 to 20)
#    1.000    0.000    5.000    2.000    2.333    0.000 
#    0.000   10.000    0.000    0.000    0.000    0.000 
#    0.000    0.000    0.000    0.000    0.000    0.000 
#
# Total GULP energy -267829.027785 kJ/mol
# GULP energy per Si atom -5579.771412 kJ/mol
# Density = 2.114084 g / cm^3
# Si number density = 21.189063 Si / 1000 Ang^3
#
#
#
# Elastic Constant Matrix: (Units=GPa)
#
#
# Indices 1 2 3 4 5 6 
#
# 1 82.4332 15.0638 15.9881 0.0000 0.0000 0.0000
# 2 15.0638 65.4144 6.5473 0.0000 0.0000 0.0000
# 3 15.9881 6.5473 110.8231 0.0000 0.0000 0.0000
# 4 0.0000 0.0000 0.0000 29.9529 0.0000 0.0000
# 5 0.0000 0.0000 0.0000 0.0000 24.1701 0.0000
# 6 0.0000 0.0000 0.0000 0.0000 0.0000 37.2371
#
#
#
# Elastic Compliance Matrix: (Units=1/GPa)
#
#
# Indices 1 2 3 4 5 6 
#
# 1 0.012977 -0.002818 -0.001706 0.000000 0.000000 0.000000
# 2 -0.002818 0.015990 -0.000538 0.000000 0.000000 0.000000
# 3 -0.001706 -0.000538 0.009301 0.000000 0.000000 0.000000
# 4 0.000000 0.000000 0.000000 0.033386 0.000000 0.000000
# 5 0.000000 0.000000 0.000000 0.000000 0.041373 0.000000
# 6 0.000000 0.000000 0.000000 0.000000 0.000000 0.026855
#
#
# Mechanical properties :
#
#
# Convention : Reuss Voigt Hill
#
# Bulk Modulus (GPa) = 35.53028 37.09655 36.31341
# Shear Modulus (GPa) = 31.37028 33.01012 32.19020
#
# Velocity S-wave (km/s) = 3.85189 3.95129 3.90191
# Velocity P-wave (km/s) = 6.04875 6.19373 6.12167
#
# Compressibility (1/GPa) = 0.02814501
#
# Stress axis : x y z
#
# Youngs Moduli (GPa) = 77.06099 62.53960 107.51240
#
# Poissons Ratio (x) = 0.17621 0.18338
# Poissons Ratio (y) = 0.21713 0.05786
# Poissons Ratio (z) = 0.13144 0.03366
#
# Static dielectric constant tensor:
#      x y z
#    x 1.803940 0.000000 0.000000 
#    y 0.000000 1.785160 0.000000 
#    z 0.000000 0.000000 1.710710 
# 
# From -- ./inp_files/3449.got.cif
#   From: 2010.05.17/outbox.cif.g08.bks.cpg/sg61_2_cif.got.tgz:3449.got - 2010.06.03 15:17:17.
