data_PCOD9460490
_publ_section_title
;
Structure prediction by ZEFSAII (Michael W. Deem and Ramdas Pophale) SiO2 
 PCOD9460490
Probable space group: P B C A
;
_chemical_formula_sum "Si O2"
_cell_formula_units_Z 48
_cell_length_a 9.681896
_cell_length_b 14.889269
_cell_length_c 15.797407
_cell_angle_alpha 90.000000
_cell_angle_beta 90.000000
_cell_angle_gamma 90.000000
_cell_volume 2277.296595
_symmetry_space_group_name_H-M "P B C A"
_symmetry_group_IT_number 61
_symmetry_cell_setting 'orthorhombic'
loop_
_space_group_symop_operation_xyz
x,y,z
1/2-x,-y,1/2+z
1/2+x,1/2-y,-z
-x,1/2+y,1/2-z
-x,-y,-z
1/2+x,y,1/2-z
1/2-x,1/2+y,z
x,1/2-y,1/2+z
loop_
_atom_site_type_symbol
_atom_site_label
_atom_site_fract_x
_atom_site_fract_y
_atom_site_fract_z
Si Si1 0.419995 0.824202 0.816966
Si Si2 0.829750 0.301773 0.346973
Si Si3 0.439497 0.782006 0.627786
Si Si4 0.086247 0.588956 0.505494
Si Si5 0.704199 0.832682 0.159842
Si Si6 0.632708 0.487236 0.561854
O O1 0.571710 0.782137 0.827423
O O2 0.398633 0.831053 0.715748
O O3 0.312082 0.749797 0.854824
O O4 0.408141 0.919083 0.862806
O O5 0.701335 0.264796 0.401093
O O6 0.917922 0.369751 0.401689
O O7 0.777120 0.348312 0.260776
O O8 0.515965 0.843339 0.560466
O O9 0.550324 0.706426 0.650906
O O10 0.243576 0.563404 0.485687
O O11 0.000000 0.500000 0.500000
O O12 0.698578 0.920833 0.101105
O O13 0.500000 0.500000 0.500000
#
# Coordination Sequence:
#
# PCOD9460490 Si02
#       6
#     8   8   8   8   8   8
#     4  10  23  45  71  97 134 185 226 281 343 403
#     4  10  24  43  70  95 133 183 224 279 344 405
#     4  10  23  46  69  94 134 183 227 278 343 402
#     4  12  27  41  66 107 137 175 227 288 344 403
#     4  10  22  48  69  95 135 179 228 278 341 406
#     4  12  27  43  71 106 137 179 226 283 349 413
#
# _framework density 21.077622000000002
#
# number of rings (size 3 to 8) (size 9 to 14) (size 15 to 20)
#    0.000    1.333    1.667    2.000    9.333    0.000 
#    3.000    0.000    0.000    0.000    0.000    0.000 
#    0.000    0.000    0.000    0.000    0.000    0.000 
#
# Total GULP energy -267998.950185 kJ/mol
# GULP energy per Si atom -5583.311462 kJ/mol
# Density = 2.102965 g / cm^3
# Si number density = 21.077622 Si / 1000 Ang^3
#
#
#
# Elastic Constant Matrix: (Units=GPa)
#
#
# Indices 1 2 3 4 5 6 
#
# 1 93.7752 5.1872 -1.4053 0.0000 0.0000 0.0000
# 2 5.1872 74.3562 39.6890 0.0000 0.0000 0.0000
# 3 -1.4053 39.6890 61.5571 0.0000 0.0000 0.0000
# 4 0.0000 0.0000 0.0000 33.0755 0.0000 0.0000
# 5 0.0000 0.0000 0.0000 0.0000 31.3745 0.0000
# 6 0.0000 0.0000 0.0000 0.0000 0.0000 38.0046
#
#
#
# Elastic Compliance Matrix: (Units=1/GPa)
#
#
# Indices 1 2 3 4 5 6 
#
# 1 0.010755 -0.001344 0.001112 0.000000 0.000000 0.000000
# 2 -0.001344 0.020674 -0.013360 0.000000 0.000000 0.000000
# 3 0.001112 -0.013360 0.024884 0.000000 0.000000 0.000000
# 4 0.000000 0.000000 0.000000 0.030234 0.000000 0.000000
# 5 0.000000 0.000000 0.000000 0.000000 0.031873 0.000000
# 6 0.000000 0.000000 0.000000 0.000000 0.000000 0.026313
#
#
# Mechanical properties :
#
#
# Convention : Reuss Voigt Hill
#
# Bulk Modulus (GPa) = 34.32999 35.18113 34.75556
# Shear Modulus (GPa) = 27.52911 32.90541 30.21726
#
# Velocity S-wave (km/s) = 3.61790 3.95543 3.79042
# Velocity P-wave (km/s) = 5.81163 6.13091 5.97340
#
# Compressibility (1/GPa) = 0.02912905
#
# Stress axis : x y z
#
# Youngs Moduli (GPa) = 92.98172 48.37063 40.18587
#
# Poissons Ratio (x) = 0.06500 -0.04468
# Poissons Ratio (y) = 0.12495 0.53689
# Poissons Ratio (z) = -0.10339 0.64623
#
# Static dielectric constant tensor:
#      x y z
#    x 1.776500 0.000000 0.000000 
#    y 0.000000 1.728370 0.000000 
#    z 0.000000 0.000000 1.807830 
# 
# From -- ./inp_files/8898.got.cif
#   From: 2010.05.17/outbox.cif.g08.bks.cpg/sg61_5_cif.got.tgz:8898.got - 2010.06.03 15:17:17.
