data_PCOD9460807
_publ_section_title
;
Structure prediction by ZEFSAII (Michael W. Deem and Ramdas Pophale) SiO2 
 PCOD9460807
Probable space group: P B C A
;
_chemical_formula_sum "Si O2"
_cell_formula_units_Z 40
_cell_length_a 9.238107
_cell_length_b 7.658975
_cell_length_c 22.275090
_cell_angle_alpha 90.000000
_cell_angle_beta 90.000000
_cell_angle_gamma 90.000000
_cell_volume 1576.061309
_symmetry_space_group_name_H-M "P B C A"
_symmetry_group_IT_number 61
_symmetry_cell_setting 'orthorhombic'
loop_
_space_group_symop_operation_xyz
x,y,z
1/2-x,-y,1/2+z
1/2+x,1/2-y,-z
-x,1/2+y,1/2-z
-x,-y,-z
1/2+x,y,1/2-z
1/2-x,1/2+y,z
x,1/2-y,1/2+z
loop_
_atom_site_type_symbol
_atom_site_label
_atom_site_fract_x
_atom_site_fract_y
_atom_site_fract_z
Si Si1 0.391655 0.418734 0.110739
Si Si2 0.975864 0.917689 0.239139
Si Si3 0.887773 0.886177 0.571347
Si Si4 0.201509 0.086675 0.301291
Si Si5 0.601208 0.202519 0.940176
O O1 0.429330 0.447852 0.179840
O O2 0.489027 0.256094 0.088644
O O3 0.224338 0.368327 0.104270
O O4 0.424523 0.595319 0.074092
O O5 0.845105 0.054933 0.235896
O O6 0.084155 0.930159 0.294463
O O7 0.888619 0.741492 0.228118
O O8 0.778403 0.888960 0.627589
O O9 0.831783 0.825039 0.506841
O O10 0.963184 0.075023 0.563514
#
# Coordination Sequence:
#
# PCOD9460807 Si02
#       5
#     8   8   8   8   8
#     4  11  24  44  70 104 139 187 234 292 352 426
#     4  11  27  45  74 102 141 186 235 294 354 419
#     4  10  25  44  66 103 135 188 233 288 347 422
#     4  11  26  47  69 103 138 182 237 289 350 421
#     4  11  23  42  72  97 145 182 232 288 353 413
#
# _framework density 25.379726000000002
#
# number of rings (size 3 to 8) (size 9 to 14) (size 15 to 20)
#    0.000    1.200    2.000    1.800    8.400    4.800 
#    0.000    0.000    0.000    0.000    0.000    0.000 
#    0.000    0.000    0.000    0.000    0.000    0.000 
#
# Total GULP energy -224211.193538 kJ/mol
# GULP energy per Si atom -5605.279838 kJ/mol
# Density = 2.532196 g / cm^3
# Si number density = 25.379726 Si / 1000 Ang^3
#
#
#
# Elastic Constant Matrix: (Units=GPa)
#
#
# Indices 1 2 3 4 5 6 
#
# 1 79.4684 -9.8002 21.1624 0.0000 0.0000 0.0000
# 2 -9.8002 107.4443 -5.9598 0.0000 0.0000 0.0000
# 3 21.1624 -5.9598 95.2994 0.0000 0.0000 0.0000
# 4 0.0000 0.0000 0.0000 29.5283 0.0000 0.0000
# 5 0.0000 0.0000 0.0000 0.0000 25.1126 0.0000
# 6 0.0000 0.0000 0.0000 0.0000 0.0000 22.7289
#
#
#
# Elastic Compliance Matrix: (Units=1/GPa)
#
#
# Indices 1 2 3 4 5 6 
#
# 1 0.013496 0.001068 -0.002930 0.000000 0.000000 0.000000
# 2 0.001068 0.009424 0.000352 0.000000 0.000000 0.000000
# 3 -0.002930 0.000352 0.011166 0.000000 0.000000 0.000000
# 4 0.000000 0.000000 0.000000 0.033866 0.000000 0.000000
# 5 0.000000 0.000000 0.000000 0.000000 0.039821 0.000000
# 6 0.000000 0.000000 0.000000 0.000000 0.000000 0.043997
#
#
# Mechanical properties :
#
#
# Convention : Reuss Voigt Hill
#
# Bulk Modulus (GPa) = 32.18883 32.55743 32.37313
# Shear Modulus (GPa) = 30.27667 33.92794 32.10230
#
# Velocity S-wave (km/s) = 3.45765 3.66021 3.56037
# Velocity P-wave (km/s) = 5.35266 5.54246 5.44838
#
# Compressibility (1/GPa) = 0.03106668
#
# Stress axis : x y z
#
# Youngs Moduli (GPa) = 74.09792 106.11052 89.55823
#
# Poissons Ratio (x) = -0.11337 0.26241
# Poissons Ratio (y) = -0.07917 -0.03153
# Poissons Ratio (z) = 0.21711 -0.03736
#
# Static dielectric constant tensor:
#      x y z
#    x 1.932340 0.000000 0.000000 
#    y 0.000000 2.192660 0.000000 
#    z 0.000000 0.000000 1.973770 
# 
# From -- ./inp_files/1736.got.cif
#   From: 2010.05.17/outbox.cif.g08.bks.cpg/sg61_1_cif.got.tgz:1736.got - 2010.06.03 15:17:17.
