data_PCOD9460531
_publ_section_title
;
Structure prediction by ZEFSAII (Michael W. Deem and Ramdas Pophale) SiO2 
 PCOD9460531
Probable space group: P B C A
;
_chemical_formula_sum "Si O2"
_cell_formula_units_Z 48
_cell_length_a 9.342566
_cell_length_b 28.403285
_cell_length_c 8.463342
_cell_angle_alpha 90.000000
_cell_angle_beta 90.000000
_cell_angle_gamma 90.000000
_cell_volume 2245.828749
_symmetry_space_group_name_H-M "P B C A"
_symmetry_group_IT_number 61
_symmetry_cell_setting 'orthorhombic'
loop_
_space_group_symop_operation_xyz
x,y,z
1/2-x,-y,1/2+z
1/2+x,1/2-y,-z
-x,1/2+y,1/2-z
-x,-y,-z
1/2+x,y,1/2-z
1/2-x,1/2+y,z
x,1/2-y,1/2+z
loop_
_atom_site_type_symbol
_atom_site_label
_atom_site_fract_x
_atom_site_fract_y
_atom_site_fract_z
Si Si1 0.962510 0.277684 0.960210
Si Si2 0.892231 0.039082 0.563781
Si Si3 0.650881 0.511395 0.924965
Si Si4 0.985481 0.865765 0.318161
Si Si5 0.716580 0.704370 0.151809
Si Si6 0.191643 0.884456 0.046951
O O1 0.122471 0.275619 0.882205
O O2 0.845697 0.290762 0.827011
O O3 0.972879 0.316981 0.098503
O O4 0.898545 0.231103 0.040492
O O5 0.855833 0.023525 0.741523
O O6 0.954139 0.091153 0.575880
O O7 0.752728 0.032216 0.459189
O O8 0.000000 0.000000 0.500000
O O9 0.702862 0.561015 0.998767
O O10 0.500000 0.500000 0.000000
O O11 0.046633 0.873592 0.143097
O O12 0.815298 0.871755 0.326473
O O13 0.716330 0.650261 0.097664
#
# Coordination Sequence:
#
# PCOD9460531 Si02
#       6
#     8   8   8   8   8   8
#     4  11  24  43  65  96 127 164 209 259 319 376
#     4  11  22  42  63  90 130 164 214 263 315 380
#     4  11  24  40  63  94 124 172 213 263 323 375
#     4  10  23  41  64  90 124 166 206 258 311 373
#     4  11  24  43  66  95 128 164 208 261 315 382
#     4  10  23  42  63  90 125 164 210 253 315 373
#
# _framework density 21.372954
#
# number of rings (size 3 to 8) (size 9 to 14) (size 15 to 20)
#    0.000    1.333    1.667    3.000    7.000    8.000 
#    0.000    0.000    0.000    0.000    0.000    0.000 
#    0.000    0.000    0.000    0.000    0.000    0.000 
#
# Total GULP energy -268235.286230 kJ/mol
# GULP energy per Si atom -5588.235130 kJ/mol
# Density = 2.132431 g / cm^3
# Si number density = 21.372954 Si / 1000 Ang^3
#
#
#
# Elastic Constant Matrix: (Units=GPa)
#
#
# Indices 1 2 3 4 5 6 
#
# 1 60.6727 -3.3454 -10.8330 0.0000 0.0000 0.0000
# 2 -3.3454 68.7492 0.4815 0.0000 0.0000 0.0000
# 3 -10.8330 0.4815 26.6262 0.0000 0.0000 0.0000
# 4 0.0000 0.0000 0.0000 21.8669 0.0000 0.0000
# 5 0.0000 0.0000 0.0000 0.0000 30.7984 0.0000
# 6 0.0000 0.0000 0.0000 0.0000 0.0000 22.6299
#
#
#
# Elastic Compliance Matrix: (Units=1/GPa)
#
#
# Indices 1 2 3 4 5 6 
#
# 1 0.017819 0.000816 0.007235 0.000000 0.000000 0.000000
# 2 0.000816 0.014585 0.000068 0.000000 0.000000 0.000000
# 3 0.007235 0.000068 0.040499 0.000000 0.000000 0.000000
# 4 0.000000 0.000000 0.000000 0.045731 0.000000 0.000000
# 5 0.000000 0.000000 0.000000 0.000000 0.032469 0.000000
# 6 0.000000 0.000000 0.000000 0.000000 0.000000 0.044189
#
#
# Mechanical properties :
#
#
# Convention : Reuss Voigt Hill
#
# Bulk Modulus (GPa) = 11.21805 14.29493 12.75649
# Shear Modulus (GPa) = 23.95011 26.37537 25.16274
#
# Velocity S-wave (km/s) = 3.35114 3.51672 3.43493
# Velocity P-wave (km/s) = 4.49818 4.81587 4.65973
#
# Compressibility (1/GPa) = 0.08914201
#
# Stress axis : x y z
#
# Youngs Moduli (GPa) = 56.12101 68.56415 24.69180
#
# Poissons Ratio (x) = -0.05598 -0.17864
# Poissons Ratio (y) = -0.04582 -0.00169
# Poissons Ratio (z) = -0.40603 -0.00469
#
# Static dielectric constant tensor:
#      x y z
#    x 1.837420 0.000000 0.000000 
#    y 0.000000 1.766460 0.000000 
#    z 0.000000 0.000000 1.736780 
# 
# From -- ./inp_files/1895.got.cif
#   From: 2010.05.17/outbox.cif.g08.bks.cpg/sg61_1_cif.got.tgz:1895.got - 2010.06.03 15:17:17.
