data_PCOD9460409
_publ_section_title
;
Structure prediction by ZEFSAII (Michael W. Deem and Ramdas Pophale) SiO2 
 PCOD9460409
Probable space group: P B C A
;
_chemical_formula_sum "Si O2"
_cell_formula_units_Z 56
_cell_length_a 14.621210
_cell_length_b 9.030096
_cell_length_c 18.638148
_cell_angle_alpha 90.000000
_cell_angle_beta 90.000000
_cell_angle_gamma 90.000000
_cell_volume 2460.812013
_symmetry_space_group_name_H-M "P B C A"
_symmetry_group_IT_number 61
_symmetry_cell_setting 'orthorhombic'
loop_
_space_group_symop_operation_xyz
x,y,z
1/2-x,-y,1/2+z
1/2+x,1/2-y,-z
-x,1/2+y,1/2-z
-x,-y,-z
1/2+x,y,1/2-z
1/2-x,1/2+y,z
x,1/2-y,1/2+z
loop_
_atom_site_type_symbol
_atom_site_label
_atom_site_fract_x
_atom_site_fract_y
_atom_site_fract_z
Si Si1 0.249706 0.725139 0.221897
Si Si2 0.528254 0.813343 0.579862
Si Si3 0.464542 0.341031 0.559213
Si Si4 0.628229 0.538352 0.961680
Si Si5 0.087245 0.321978 0.819481
Si Si6 0.809698 0.534077 0.877529
Si Si7 0.942518 0.346151 0.229514
O O1 0.311022 0.707103 0.292523
O O2 0.308472 0.806605 0.159783
O O3 0.220286 0.570577 0.188012
O O4 0.156974 0.811194 0.238851
O O5 0.530837 0.672085 0.526171
O O6 0.604922 0.924288 0.545030
O O7 0.544383 0.756628 0.659138
O O8 0.434737 0.903254 0.564929
O O9 0.409575 0.187806 0.576284
O O10 0.562597 0.328284 0.596826
O O11 0.403211 0.470291 0.591715
O O12 0.732599 0.522749 0.939048
O O13 0.055767 0.481108 0.788967
O O14 0.022227 0.198883 0.783914
#
# Coordination Sequence:
#
# PCOD9460409 Si02
#       7
#     8   8   8   8   8   8   8
#     4  12  25  41  67 101 138 175 238 283 345 411
#     4   9  22  45  67  97 137 178 229 276 348 420
#     4  10  22  43  67  98 132 178 229 275 341 421
#     4   9  20  42  68  94 134 181 226 268 347 418
#     4  12  26  43  71  98 141 181 227 294 348 410
#     4  12  20  43  68 101 130 181 232 281 332 430
#     4  12  26  45  67 104 137 181 228 289 348 405
#
# _framework density 22.756716000000001
#
# number of rings (size 3 to 8) (size 9 to 14) (size 15 to 20)
#    0.857    0.286    4.286    1.714    2.000    0.571 
#    5.143    0.000    0.000    0.000    0.000    0.000 
#    0.000    0.000    0.000    0.000    0.000    0.000 
#
# Total GULP energy -313037.333941 kJ/mol
# GULP energy per Si atom -5589.952392 kJ/mol
# Density = 2.270492 g / cm^3
# Si number density = 22.756716 Si / 1000 Ang^3
#
#
#
# Elastic Constant Matrix: (Units=GPa)
#
#
# Indices 1 2 3 4 5 6 
#
# 1 79.5296 -4.5568 7.9290 0.0000 0.0000 0.0000
# 2 -4.5568 18.6848 -22.7205 0.0000 0.0000 0.0000
# 3 7.9290 -22.7205 62.1790 0.0000 0.0000 0.0000
# 4 0.0000 0.0000 0.0000 27.5614 0.0000 0.0000
# 5 0.0000 0.0000 0.0000 0.0000 44.1782 0.0000
# 6 0.0000 0.0000 0.0000 0.0000 0.0000 29.4002
#
#
#
# Elastic Compliance Matrix: (Units=1/GPa)
#
#
# Indices 1 2 3 4 5 6 
#
# 1 0.012779 0.002043 -0.000883 0.000000 0.000000 0.000000
# 2 0.002043 0.096641 0.035053 0.000000 0.000000 0.000000
# 3 -0.000883 0.035053 0.029004 0.000000 0.000000 0.000000
# 4 0.000000 0.000000 0.000000 0.036283 0.000000 0.000000
# 5 0.000000 0.000000 0.000000 0.000000 0.022636 0.000000
# 6 0.000000 0.000000 0.000000 0.000000 0.000000 0.034013
#
#
# Mechanical properties :
#
#
# Convention : Reuss Voigt Hill
#
# Bulk Modulus (GPa) = 4.74275 13.52186 9.13231
# Shear Modulus (GPa) = 21.81367 32.21075 27.01221
#
# Velocity S-wave (km/s) = 3.09942 3.76631 3.44902
# Velocity P-wave (km/s) = 3.85969 4.98681 4.45901
#
# Compressibility (1/GPa) = 0.21084820
#
# Stress axis : x y z
#
# Youngs Moduli (GPa) = 78.25326 10.34754 34.47839
#
# Poissons Ratio (x) = -0.02114 0.03045
# Poissons Ratio (y) = -0.15984 -1.20856
# Poissons Ratio (z) = 0.06911 -0.36271
#
# Static dielectric constant tensor:
#      x y z
#    x 1.814440 0.000000 0.000000 
#    y 0.000000 1.855920 0.000000 
#    z 0.000000 0.000000 1.840000 
# 
# From -- ./inp_files/10461.got.cif
#   From: 2010.05.17/outbox.cif.g08.bks.cpg/sg61_6_cif.got.tgz:10461.got - 2010.06.03 15:17:17.
