data_PCOD9460104
_publ_section_title
;
Structure prediction by ZEFSAII (Michael W. Deem and Ramdas Pophale) SiO2 
 PCOD9460104
Probable space group: P B C A
;
_chemical_formula_sum "Si O2"
_cell_formula_units_Z 64
_cell_length_a 17.075484
_cell_length_b 14.910222
_cell_length_c 11.105740
_cell_angle_alpha 90.000000
_cell_angle_beta 90.000000
_cell_angle_gamma 90.000000
_cell_volume 2827.513155
_symmetry_space_group_name_H-M "P B C A"
_symmetry_group_IT_number 61
_symmetry_cell_setting 'orthorhombic'
loop_
_space_group_symop_operation_xyz
x,y,z
1/2-x,-y,1/2+z
1/2+x,1/2-y,-z
-x,1/2+y,1/2-z
-x,-y,-z
1/2+x,y,1/2-z
1/2-x,1/2+y,z
x,1/2-y,1/2+z
loop_
_atom_site_type_symbol
_atom_site_label
_atom_site_fract_x
_atom_site_fract_y
_atom_site_fract_z
Si Si1 0.358299 0.843577 0.837757
Si Si2 0.924681 0.426755 0.644482
Si Si3 0.990207 0.892931 0.095353
Si Si4 0.767213 0.308226 0.200898
Si Si5 0.837519 0.893275 0.928047
Si Si6 0.473816 0.201893 0.154606
Si Si7 0.186395 0.733405 0.048582
Si Si8 0.739719 0.509572 0.101894
O O1 0.314638 0.748451 0.810267
O O2 0.366317 0.889674 0.707118
O O3 0.442970 0.831294 0.896060
O O4 0.304543 0.914181 0.908066
O O5 0.973278 0.517728 0.669094
O O6 0.834411 0.447999 0.671203
O O7 0.942515 0.407882 0.504222
O O8 0.957683 0.347042 0.721652
O O9 0.012593 0.807347 0.171015
O O10 0.910500 0.878071 0.017330
O O11 0.801893 0.299021 0.335724
O O12 0.761568 0.413346 0.162754
O O13 0.815769 0.254083 0.096488
O O14 0.767329 0.822066 0.939717
O O15 0.795099 0.983243 0.971998
O O16 0.396385 0.186534 0.076153
#
# Coordination Sequence:
#
# PCOD9460104 Si02
#       8
#     8   8   8   8   8   8   8   8
#     4  11  22  39  68  98 134 179 232 292 349 418
#     4  10  21  42  67 100 129 182 237 276 350 428
#     4  10  22  41  70  95 134 184 231 285 345 429
#     4  10  23  46  65 100 133 188 236 291 346 435
#     4   9  19  43  64  90 131 181 234 277 339 434
#     4  12  24  38  68 105 137 175 230 300 348 417
#     4  10  23  39  69  95 138 178 233 284 358 417
#     4  10  22  40  68  94 132 177 235 286 346 421
#
# _framework density 22.634732
#
# number of rings (size 3 to 8) (size 9 to 14) (size 15 to 20)
#    0.000    1.750    1.250    3.750    3.500    2.000 
#    0.000    2.500    5.500    0.000    0.000    0.000 
#    0.000    0.000    0.000    0.000    0.000    0.000 
#
# Total GULP energy -357002.926585 kJ/mol
# GULP energy per Si atom -5578.170728 kJ/mol
# Density = 2.258321 g / cm^3
# Si number density = 22.634732 Si / 1000 Ang^3
#
#
#
# Elastic Constant Matrix: (Units=GPa)
#
#
# Indices 1 2 3 4 5 6 
#
# 1 118.3203 43.9607 13.8460 0.0000 0.0000 0.0000
# 2 43.9607 118.4976 39.6443 0.0000 0.0000 0.0000
# 3 13.8460 39.6443 43.9656 0.0000 0.0000 0.0000
# 4 0.0000 0.0000 0.0000 26.1231 0.0000 0.0000
# 5 0.0000 0.0000 0.0000 0.0000 21.5984 0.0000
# 6 0.0000 0.0000 0.0000 0.0000 0.0000 29.5719
#
#
#
# Elastic Compliance Matrix: (Units=1/GPa)
#
#
# Indices 1 2 3 4 5 6 
#
# 1 0.009805 -0.003730 0.000275 0.000000 0.000000 0.000000
# 2 -0.003730 0.013503 -0.011001 0.000000 0.000000 0.000000
# 3 0.000275 -0.011001 0.032579 0.000000 0.000000 0.000000
# 4 0.000000 0.000000 0.000000 0.038280 0.000000 0.000000
# 5 0.000000 0.000000 0.000000 0.000000 0.046300 0.000000
# 6 0.000000 0.000000 0.000000 0.000000 0.000000 0.033816
#
#
# Mechanical properties :
#
#
# Convention : Reuss Voigt Hill
#
# Bulk Modulus (GPa) = 37.07133 52.85396 44.96264
# Shear Modulus (GPa) = 23.56417 27.68084 25.62250
#
# Velocity S-wave (km/s) = 3.23005 3.50084 3.36817
# Velocity P-wave (km/s) = 5.50678 6.30418 5.91892
#
# Compressibility (1/GPa) = 0.02697503
#
# Stress axis : x y z
#
# Youngs Moduli (GPa) = 101.98741 74.05626 30.69499
#
# Poissons Ratio (x) = 0.27620 -0.00844
# Poissons Ratio (y) = 0.38037 0.33769
# Poissons Ratio (z) = -0.02806 0.81473
#
# Static dielectric constant tensor:
#      x y z
#    x 1.902150 0.000000 0.000000 
#    y 0.000000 1.893560 0.000000 
#    z 0.000000 0.000000 1.872270 
# 
# From -- ./inp_files/6303.got.cif
#   From: 2010.05.17/outbox.cif.g08.bks.cpg/sg61_4_cif.got.tgz:6303.got - 2010.06.03 15:17:17.
