data_PCOD9460845
_publ_section_title
;
Structure prediction by ZEFSAII (Michael W. Deem and Ramdas Pophale) SiO2 
 PCOD9460845
Probable space group: P B C A
;
_chemical_formula_sum "Si O2"
_cell_formula_units_Z 36
_cell_length_a 9.396090
_cell_length_b 17.567243
_cell_length_c 8.493331
_cell_angle_alpha 90.000000
_cell_angle_beta 90.000000
_cell_angle_gamma 90.000000
_cell_volume 1401.938061
_symmetry_space_group_name_H-M "P B C A"
_symmetry_group_IT_number 61
_symmetry_cell_setting 'orthorhombic'
loop_
_space_group_symop_operation_xyz
x,y,z
1/2-x,-y,1/2+z
1/2+x,1/2-y,-z
-x,1/2+y,1/2-z
-x,-y,-z
1/2+x,y,1/2-z
1/2-x,1/2+y,z
x,1/2-y,1/2+z
loop_
_atom_site_type_symbol
_atom_site_label
_atom_site_fract_x
_atom_site_fract_y
_atom_site_fract_z
Si Si1 0.066287 0.153131 0.670196
Si Si2 0.773738 0.941708 0.814053
Si Si3 0.500000 0.000000 0.000000
Si Si4 0.449548 0.680553 0.042006
Si Si5 0.690588 0.578427 0.994859
O O1 0.033019 0.232280 0.584540
O O2 0.056007 0.165035 0.856030
O O3 0.229262 0.131469 0.628028
O O4 0.980575 0.083483 0.595969
O O5 0.806662 0.949798 0.626527
O O6 0.618519 0.971306 0.861224
O O7 0.816571 0.858523 0.871442
O O8 0.865863 0.003743 0.910793
O O9 0.585339 0.630552 0.092900
#
# Coordination Sequence:
#
# PCOD9460845 Si02
#       5
#     8   8   4   8   8
#     4  11  28  47  73 111 149 201 252 310 378 446
#     4  11  25  46  75 109 150 195 253 306 382 452
#     4  10  26  46  76 102 154 192 246 308 374 446
#     4  12  28  47  77 109 154 195 258 312 379 451
#     4  11  27  46  76 110 151 200 250 313 382 451
#
# _framework density 25.678739
#
# number of rings (size 3 to 8) (size 9 to 14) (size 15 to 20)
#    0.000    0.889    0.000    4.667   21.778    0.000 
#    0.000    0.000    0.000    0.000    0.000    0.000 
#    0.000    0.000    0.000    0.000    0.000    0.000 
#
# Total GULP energy -200865.283199 kJ/mol
# GULP energy per Si atom -5579.591200 kJ/mol
# Density = 2.562029 g / cm^3
# Si number density = 25.678739 Si / 1000 Ang^3
#
#
#
# Elastic Constant Matrix: (Units=GPa)
#
#
# Indices 1 2 3 4 5 6 
#
# 1 50.6216 14.0991 -11.2496 0.0000 0.0000 0.0000
# 2 14.0991 225.3196 63.6676 0.0000 0.0000 0.0000
# 3 -11.2496 63.6676 178.7901 0.0000 0.0000 0.0000
# 4 0.0000 0.0000 0.0000 50.8669 0.0000 0.0000
# 5 0.0000 0.0000 0.0000 0.0000 29.9685 0.0000
# 6 0.0000 0.0000 0.0000 0.0000 0.0000 36.6430
#
#
#
# Elastic Compliance Matrix: (Units=1/GPa)
#
#
# Indices 1 2 3 4 5 6 
#
# 1 0.020706 -0.001850 0.001962 0.000000 0.000000 0.000000
# 2 -0.001850 0.005100 -0.001933 0.000000 0.000000 0.000000
# 3 0.001962 -0.001933 0.006405 0.000000 0.000000 0.000000
# 4 0.000000 0.000000 0.000000 0.019659 0.000000 0.000000
# 5 0.000000 0.000000 0.000000 0.000000 0.033368 0.000000
# 6 0.000000 0.000000 0.000000 0.000000 0.000000 0.027290
#
#
# Mechanical properties :
#
#
# Convention : Reuss Voigt Hill
#
# Bulk Modulus (GPa) = 35.00349 65.30728 50.15539
# Shear Modulus (GPa) = 39.77959 49.37664 44.57811
#
# Velocity S-wave (km/s) = 3.94016 4.38980 4.17105
# Velocity P-wave (km/s) = 5.86180 7.15412 6.53996
#
# Compressibility (1/GPa) = 0.02856858
#
# Stress axis : x y z
#
# Youngs Moduli (GPa) = 48.29621 196.08014 156.13426
#
# Poissons Ratio (x) = 0.36273 -0.30627
# Poissons Ratio (y) = 0.08934 0.30173
# Poissons Ratio (z) = -0.09474 0.37893
#
# Static dielectric constant tensor:
#      x y z
#    x 1.771360 0.000000 0.000000 
#    y 0.000000 1.864630 0.000000 
#    z 0.000000 0.000000 1.960360 
# 
# From -- ./inp_files/2057.got.cif
#   From: 2010.05.17/outbox.cif.g08.bks.cpg/sg61_2_cif.got.tgz:2057.got - 2010.06.03 15:17:17.
