data_PCOD9460847
_publ_section_title
;
Structure prediction by ZEFSAII (Michael W. Deem and Ramdas Pophale) SiO2 
 PCOD9460847
Probable space group: P B C A
;
_chemical_formula_sum "Si O2"
_cell_formula_units_Z 32
_cell_length_a 4.920859
_cell_length_b 10.320604
_cell_length_c 24.691530
_cell_angle_alpha 90.000000
_cell_angle_beta 90.000000
_cell_angle_gamma 90.000000
_cell_volume 1253.989896
_symmetry_space_group_name_H-M "P B C A"
_symmetry_group_IT_number 61
_symmetry_cell_setting 'orthorhombic'
loop_
_space_group_symop_operation_xyz
x,y,z
1/2-x,-y,1/2+z
1/2+x,1/2-y,-z
-x,1/2+y,1/2-z
-x,-y,-z
1/2+x,y,1/2-z
1/2-x,1/2+y,z
x,1/2-y,1/2+z
loop_
_atom_site_type_symbol
_atom_site_label
_atom_site_fract_x
_atom_site_fract_y
_atom_site_fract_z
Si Si1 0.130020 0.781500 0.534833
Si Si2 0.114250 0.452277 0.882073
Si Si3 0.223069 0.031460 0.714318
Si Si4 0.020538 0.221979 0.635416
O O1 0.382996 0.792127 0.494095
O O2 0.258615 0.714935 0.587779
O O3 0.008906 0.913551 0.559955
O O4 0.350222 0.351844 0.869397
O O5 0.882592 0.443459 0.835281
O O6 0.186774 0.602673 0.877475
O O7 0.525346 0.011774 0.734595
O O8 0.157045 0.175499 0.691358
#
# Coordination Sequence:
#
# PCOD9460847 Si02
#       4
#     8   8   8   8
#     4  12  26  48  74 112 148 200 242 308 378 428
#     4  10  26  48  77 109 155 189 253 306 359 455
#     4  10  26  46  76 111 144 201 238 304 376 430
#     4  10  26  48  77 109 155 189 253 306 359 455
#
# _framework density 25.518549
#
# number of rings (size 3 to 8) (size 9 to 14) (size 15 to 20)
#    1.500    0.000    2.500    0.000    7.000    6.000 
#    0.000    0.000    0.000    0.000    0.000    0.000 
#    0.000    0.000    0.000    0.000    0.000    0.000 
#
# Total GULP energy -178982.582527 kJ/mol
# GULP energy per Si atom -5593.205704 kJ/mol
# Density = 2.546047 g / cm^3
# Si number density = 25.518549 Si / 1000 Ang^3
#
#
#
# Elastic Constant Matrix: (Units=GPa)
#
#
# Indices 1 2 3 4 5 6 
#
# 1 119.6576 56.0069 38.2953 0.0000 0.0000 0.0000
# 2 56.0069 41.3924 7.3588 0.0000 0.0000 0.0000
# 3 38.2953 7.3588 130.7664 0.0000 0.0000 0.0000
# 4 0.0000 0.0000 0.0000 38.3953 0.0000 0.0000
# 5 0.0000 0.0000 0.0000 0.0000 89.1523 0.0000
# 6 0.0000 0.0000 0.0000 0.0000 0.0000 19.0130
#
#
#
# Elastic Compliance Matrix: (Units=1/GPa)
#
#
# Indices 1 2 3 4 5 6 
#
# 1 0.026544 -0.034883 -0.005811 0.000000 0.000000 0.000000
# 2 -0.034883 0.070245 0.006263 0.000000 0.000000 0.000000
# 3 -0.005811 0.006263 0.008996 0.000000 0.000000 0.000000
# 4 0.000000 0.000000 0.000000 0.026045 0.000000 0.000000
# 5 0.000000 0.000000 0.000000 0.000000 0.011217 0.000000
# 6 0.000000 0.000000 0.000000 0.000000 0.000000 0.052596
#
#
# Mechanical properties :
#
#
# Convention : Reuss Voigt Hill
#
# Bulk Modulus (GPa) = 27.08293 55.01538 41.04916
# Shear Modulus (GPa) = 18.06270 41.98914 30.02592
#
# Velocity S-wave (km/s) = 2.66339 4.06080 3.43393
# Velocity P-wave (km/s) = 4.48266 6.60247 5.64300
#
# Compressibility (1/GPa) = 0.03692363
#
# Stress axis : x y z
#
# Youngs Moduli (GPa) = 37.67289 14.23583 111.15522
#
# Poissons Ratio (x) = 0.49659 0.64587
# Poissons Ratio (y) = 1.31416 -0.69613
# Poissons Ratio (z) = 0.21890 -0.08915
#
# Static dielectric constant tensor:
#      x y z
#    x 1.991740 0.000000 0.000000 
#    y 0.000000 2.128170 0.000000 
#    z 0.000000 0.000000 2.010750 
# 
# From -- ./inp_files/211.got.cif
#   From: 2010.05.17/outbox.cif.g08.bks.cpg/sg61_1_cif.got.tgz:211.got - 2010.06.03 15:17:17.
