data_PCOD9460267
_publ_section_title
;
Structure prediction by ZEFSAII (Michael W. Deem and Ramdas Pophale) SiO2 
 PCOD9460267
Probable space group: P B C A
;
_chemical_formula_sum "Si O2"
_cell_formula_units_Z 56
_cell_length_a 13.246856
_cell_length_b 18.786501
_cell_length_c 9.863401
_cell_angle_alpha 90.000000
_cell_angle_beta 90.000000
_cell_angle_gamma 90.000000
_cell_volume 2454.626425
_symmetry_space_group_name_H-M "P B C A"
_symmetry_group_IT_number 61
_symmetry_cell_setting 'orthorhombic'
loop_
_space_group_symop_operation_xyz
x,y,z
1/2-x,-y,1/2+z
1/2+x,1/2-y,-z
-x,1/2+y,1/2-z
-x,-y,-z
1/2+x,y,1/2-z
1/2-x,1/2+y,z
x,1/2-y,1/2+z
loop_
_atom_site_type_symbol
_atom_site_label
_atom_site_fract_x
_atom_site_fract_y
_atom_site_fract_z
Si Si1 0.690811 0.911089 0.125958
Si Si2 0.394593 0.057944 0.164264
Si Si3 0.559044 0.728772 0.633784
Si Si4 0.367846 0.054560 0.597995
Si Si5 0.548688 0.183529 0.133085
Si Si6 0.221504 0.849938 0.886827
Si Si7 0.410490 0.935110 0.376300
O O1 0.621117 0.843491 0.156442
O O2 0.670335 0.963054 0.252386
O O3 0.808794 0.889404 0.128447
O O4 0.655991 0.944693 0.983712
O O5 0.494713 0.106575 0.151995
O O6 0.322131 0.102615 0.264231
O O7 0.415663 0.983982 0.240666
O O8 0.481706 0.712163 0.514008
O O9 0.499976 0.762802 0.758793
O O10 0.644125 0.785530 0.592285
O O11 0.286128 0.102575 0.521860
O O12 0.477343 0.093910 0.601750
O O13 0.388526 0.986732 0.504201
O O14 0.667464 0.175815 0.145937
#
# Coordination Sequence:
#
# PCOD9460267 Si02
#       7
#     8   8   8   8   8   8   8
#     4  11  22  37  61  92 124 161 210 257 304 366
#     4   9  22  40  60  92 122 160 207 246 312 371
#     4  10  23  39  59  93 120 156 209 248 303 373
#     4  10  23  39  61  92 118 158 215 250 301 375
#     4  10  22  40  63  87 126 162 198 260 307 364
#     4  10  22  42  64  86 123 163 197 247 312 366
#     4  10  22  41  62  86 127 166 200 261 309 359
#
# _framework density 22.814060999999999
#
# number of rings (size 3 to 8) (size 9 to 14) (size 15 to 20)
#    0.000    2.000    0.000    1.714    0.000   16.571 
#    0.000    0.000    0.000    0.000    0.000    0.000 
#    0.000    0.000    0.000    0.000    0.000    0.000 
#
# Total GULP energy -313360.422175 kJ/mol
# GULP energy per Si atom -5595.721825 kJ/mol
# Density = 2.276214 g / cm^3
# Si number density = 22.814061 Si / 1000 Ang^3
#
#
#
# Elastic Constant Matrix: (Units=GPa)
#
#
# Indices 1 2 3 4 5 6 
#
# 1 103.7274 2.0934 -11.7832 0.0000 0.0000 0.0000
# 2 2.0934 44.8772 16.0097 0.0000 0.0000 0.0000
# 3 -11.7832 16.0097 96.6638 0.0000 0.0000 0.0000
# 4 0.0000 0.0000 0.0000 10.8805 0.0000 0.0000
# 5 0.0000 0.0000 0.0000 0.0000 14.8331 0.0000
# 6 0.0000 0.0000 0.0000 0.0000 0.0000 17.9382
#
#
#
# Elastic Compliance Matrix: (Units=1/GPa)
#
#
# Indices 1 2 3 4 5 6 
#
# 1 0.009813 -0.000940 0.001352 0.000000 0.000000 0.000000
# 2 -0.000940 0.023772 -0.004052 0.000000 0.000000 0.000000
# 3 0.001352 -0.004052 0.011181 0.000000 0.000000 0.000000
# 4 0.000000 0.000000 0.000000 0.091908 0.000000 0.000000
# 5 0.000000 0.000000 0.000000 0.000000 0.067417 0.000000
# 6 0.000000 0.000000 0.000000 0.000000 0.000000 0.055747
#
#
# Mechanical properties :
#
#
# Convention : Reuss Voigt Hill
#
# Bulk Modulus (GPa) = 26.67621 28.65648 27.66634
# Shear Modulus (GPa) = 17.88184 24.66027 21.27106
#
# Velocity S-wave (km/s) = 2.80269 3.29131 3.05678
# Velocity P-wave (km/s) = 4.71081 5.19921 4.96102
#
# Compressibility (1/GPa) = 0.03748659
#
# Stress axis : x y z
#
# Youngs Moduli (GPa) = 101.90358 42.06571 89.43737
#
# Poissons Ratio (x) = 0.03954 -0.12091
# Poissons Ratio (y) = 0.09580 0.36239
# Poissons Ratio (z) = -0.13777 0.17044
#
# Static dielectric constant tensor:
#      x y z
#    x 1.841500 0.000000 0.000000 
#    y 0.000000 1.859480 0.000000 
#    z 0.000000 0.000000 1.838630 
# 
# From -- ./inp_files/3033.got.cif
#   From: 2010.05.17/outbox.cif.g08.bks.cpg/sg61_2_cif.got.tgz:3033.got - 2010.06.03 15:17:17.
