data_PCOD9460210
_publ_section_title
;
Structure prediction by ZEFSAII (Michael W. Deem and Ramdas Pophale) SiO2 
 PCOD9460210
Probable space group: P B C A
;
_chemical_formula_sum "Si O2"
_cell_formula_units_Z 48
_cell_length_a 9.386796
_cell_length_b 16.088821
_cell_length_c 13.972207
_cell_angle_alpha 90.000000
_cell_angle_beta 90.000000
_cell_angle_gamma 90.000000
_cell_volume 2110.117361
_symmetry_space_group_name_H-M "P B C A"
_symmetry_group_IT_number 61
_symmetry_cell_setting 'orthorhombic'
loop_
_space_group_symop_operation_xyz
x,y,z
1/2-x,-y,1/2+z
1/2+x,1/2-y,-z
-x,1/2+y,1/2-z
-x,-y,-z
1/2+x,y,1/2-z
1/2-x,1/2+y,z
x,1/2-y,1/2+z
loop_
_atom_site_type_symbol
_atom_site_label
_atom_site_fract_x
_atom_site_fract_y
_atom_site_fract_z
Si Si1 0.973311 0.763420 0.922973
Si Si2 0.376821 0.437698 0.963016
Si Si3 0.613217 0.012632 0.914301
Si Si4 0.686640 0.085035 0.647847
Si Si5 0.678159 0.661816 0.455095
Si Si6 0.456986 0.134196 0.767537
O O1 0.018699 0.719195 0.824327
O O2 0.054900 0.850305 0.937119
O O3 0.033425 0.705758 0.009622
O O4 0.803711 0.777403 0.921704
O O5 0.321559 0.487038 0.869051
O O6 0.500000 0.500000 0.000000
O O7 0.248285 0.439956 0.039359
O O8 0.534522 0.063342 0.831980
O O9 0.656506 0.918082 0.887709
O O10 0.500000 0.000000 0.000000
O O11 0.755914 0.122484 0.552492
O O12 0.535193 0.127030 0.667177
O O13 0.792300 0.111521 0.732160
#
# Coordination Sequence:
#
# PCOD9460210 Si02
#       6
#     8   8   8   8   8   8
#     4  11  21  38  62  96 116 162 208 264 295 378
#     4  11  21  39  68  91 125 160 221 251 308 375
#     4  11  19  41  62  92 124 170 206 260 306 383
#     4  10  23  41  58  91 122 170 198 259 315 377
#     4  10  22  38  63  92 123 158 219 247 320 363
#     4  11  24  40  65  88 133 161 212 256 328 362
#
# _framework density 22.74755
#
# number of rings (size 3 to 8) (size 9 to 14) (size 15 to 20)
#    0.000    1.333    8.333    1.000    2.333    1.333 
#    0.000    8.333    0.000    0.000    0.000    0.000 
#    0.000    0.000    0.000    0.000    0.000    0.000 
#
# Total GULP energy -268307.393461 kJ/mol
# GULP energy per Si atom -5589.737364 kJ/mol
# Density = 2.269578 g / cm^3
# Si number density = 22.747550 Si / 1000 Ang^3
#
#
#
# Elastic Constant Matrix: (Units=GPa)
#
#
# Indices 1 2 3 4 5 6 
#
# 1 76.2758 1.1817 -3.0442 0.0000 0.0000 0.0000
# 2 1.1817 121.9999 14.5950 0.0000 0.0000 0.0000
# 3 -3.0442 14.5950 29.8526 0.0000 0.0000 0.0000
# 4 0.0000 0.0000 0.0000 19.1017 0.0000 0.0000
# 5 0.0000 0.0000 0.0000 0.0000 29.6950 0.0000
# 6 0.0000 0.0000 0.0000 0.0000 0.0000 44.4123
#
#
#
# Elastic Compliance Matrix: (Units=1/GPa)
#
#
# Indices 1 2 3 4 5 6 
#
# 1 0.013175 -0.000306 0.001493 0.000000 0.000000 0.000000
# 2 -0.000306 0.008713 -0.004291 0.000000 0.000000 0.000000
# 3 0.001493 -0.004291 0.035748 0.000000 0.000000 0.000000
# 4 0.000000 0.000000 0.000000 0.052351 0.000000 0.000000
# 5 0.000000 0.000000 0.000000 0.000000 0.033676 0.000000
# 6 0.000000 0.000000 0.000000 0.000000 0.000000 0.022516
#
#
# Mechanical properties :
#
#
# Convention : Reuss Voigt Hill
#
# Bulk Modulus (GPa) = 19.44482 28.17705 23.81094
# Shear Modulus (GPa) = 26.38105 33.00150 29.69128
#
# Velocity S-wave (km/s) = 3.40918 3.81303 3.61675
# Velocity P-wave (km/s) = 4.90544 5.63909 5.28501
#
# Compressibility (1/GPa) = 0.05142757
#
# Stress axis : x y z
#
# Youngs Moduli (GPa) = 75.90334 114.77048 27.97350
#
# Poissons Ratio (x) = 0.03515 -0.04177
# Poissons Ratio (y) = 0.02325 0.12004
# Poissons Ratio (z) = -0.11334 0.49249
#
# Static dielectric constant tensor:
#      x y z
#    x 1.893740 0.000000 0.000000 
#    y 0.000000 1.883250 0.000000 
#    z 0.000000 0.000000 1.904150 
# 
# From -- ./inp_files/8901.got.cif
#   From: 2010.05.17/outbox.cif.g08.bks.cpg/sg61_5_cif.got.tgz:8901.got - 2010.06.03 15:17:17.
