data_PCOD9460639
_publ_section_title
;
Structure prediction by ZEFSAII (Michael W. Deem and Ramdas Pophale) SiO2 
 PCOD9460639
Probable space group: P B C A
;
_chemical_formula_sum "Si O2"
_cell_formula_units_Z 40
_cell_length_a 8.981694
_cell_length_b 8.996270
_cell_length_c 20.945485
_cell_angle_alpha 90.000000
_cell_angle_beta 90.000000
_cell_angle_gamma 90.000000
_cell_volume 1692.431723
_symmetry_space_group_name_H-M "P B C A"
_symmetry_group_IT_number 61
_symmetry_cell_setting 'orthorhombic'
loop_
_space_group_symop_operation_xyz
x,y,z
1/2-x,-y,1/2+z
1/2+x,1/2-y,-z
-x,1/2+y,1/2-z
-x,-y,-z
1/2+x,y,1/2-z
1/2-x,1/2+y,z
x,1/2-y,1/2+z
loop_
_atom_site_type_symbol
_atom_site_label
_atom_site_fract_x
_atom_site_fract_y
_atom_site_fract_z
Si Si1 0.412503 0.558242 0.796566
Si Si2 0.405690 0.860822 0.619043
Si Si3 0.125748 0.600593 0.532151
Si Si4 0.303418 0.237630 0.233398
Si Si5 0.066333 0.160738 0.496100
O O1 0.452499 0.456202 0.857343
O O2 0.284030 0.682365 0.792010
O O3 0.563725 0.649030 0.782662
O O4 0.367301 0.426677 0.747354
O O5 0.317834 0.785436 0.677088
O O6 0.444435 0.741052 0.565256
O O7 0.308180 0.991269 0.585399
O O8 0.257341 0.652345 0.486050
O O9 0.000000 0.500000 0.500000
O O10 0.032025 0.743716 0.553103
O O11 0.000000 0.000000 0.500000
#
# Coordination Sequence:
#
# PCOD9460639 Si02
#       5
#     8   8   8   8   8
#     4  12  24  46  69 104 146 189 249 300 357 441
#     4  11  24  45  73 102 141 199 230 287 387 428
#     4  10  23  45  71 102 140 183 237 291 367 441
#     4  12  24  45  72 103 147 189 248 301 358 443
#     4  11  23  45  72 105 141 183 241 304 356 450
#
# _framework density 23.634630000000001
#
# number of rings (size 3 to 8) (size 9 to 14) (size 15 to 20)
#    0.000    0.800    4.000    3.600    0.000    0.000 
#   14.400    0.000    0.000    0.000    0.000    0.000 
#    0.000    0.000    0.000    0.000    0.000    0.000 
#
# Total GULP energy -223239.183927 kJ/mol
# GULP energy per Si atom -5580.979598 kJ/mol
# Density = 2.358084 g / cm^3
# Si number density = 23.634630 Si / 1000 Ang^3
#
#
#
# Elastic Constant Matrix: (Units=GPa)
#
#
# Indices 1 2 3 4 5 6 
#
# 1 112.5589 48.9896 15.4446 0.0000 0.0000 0.0000
# 2 48.9896 170.7310 31.1268 0.0000 0.0000 0.0000
# 3 15.4446 31.1268 54.1246 0.0000 0.0000 0.0000
# 4 0.0000 0.0000 0.0000 50.8889 0.0000 0.0000
# 5 0.0000 0.0000 0.0000 0.0000 24.6839 0.0000
# 6 0.0000 0.0000 0.0000 0.0000 0.0000 52.1424
#
#
#
# Elastic Compliance Matrix: (Units=1/GPa)
#
#
# Indices 1 2 3 4 5 6 
#
# 1 0.010243 -0.002688 -0.001377 0.000000 0.000000 0.000000
# 2 -0.002688 0.007249 -0.003402 0.000000 0.000000 0.000000
# 3 -0.001377 -0.003402 0.020825 0.000000 0.000000 0.000000
# 4 0.000000 0.000000 0.000000 0.019651 0.000000 0.000000
# 5 0.000000 0.000000 0.000000 0.000000 0.040512 0.000000
# 6 0.000000 0.000000 0.000000 0.000000 0.000000 0.019178
#
#
# Mechanical properties :
#
#
# Convention : Reuss Voigt Hill
#
# Bulk Modulus (GPa) = 42.76533 58.72627 50.74580
# Shear Modulus (GPa) = 35.61611 41.66661 38.64136
#
# Velocity S-wave (km/s) = 3.88615 4.20330 4.04783
# Velocity P-wave (km/s) = 6.18626 6.96121 6.58515
#
# Compressibility (1/GPa) = 0.02338343
#
# Stress axis : x y z
#
# Youngs Moduli (GPa) = 97.62630 137.95657 48.01909
#
# Poissons Ratio (x) = 0.37084 0.06612
# Poissons Ratio (y) = 0.26243 0.16334
# Poissons Ratio (z) = 0.13443 0.46927
#
# Static dielectric constant tensor:
#      x y z
#    x 1.967810 0.000000 0.000000 
#    y 0.000000 1.931470 0.000000 
#    z 0.000000 0.000000 2.036730 
# 
# From -- ./inp_files/1772.got.cif
#   From: 2010.05.17/outbox.cif.g08.bks.cpg/sg61_1_cif.got.tgz:1772.got - 2010.06.03 15:17:17.
