data_PCOD9460716
_publ_section_title
;
Structure prediction by ZEFSAII (Michael W. Deem and Ramdas Pophale) SiO2 
 PCOD9460716
Probable space group: P B C A
;
_chemical_formula_sum "Si O2"
_cell_formula_units_Z 36
_cell_length_a 4.841575
_cell_length_b 11.569269
_cell_length_c 25.493484
_cell_angle_alpha 90.000000
_cell_angle_beta 90.000000
_cell_angle_gamma 90.000000
_cell_volume 1427.978847
_symmetry_space_group_name_H-M "P B C A"
_symmetry_group_IT_number 61
_symmetry_cell_setting 'orthorhombic'
loop_
_space_group_symop_operation_xyz
x,y,z
1/2-x,-y,1/2+z
1/2+x,1/2-y,-z
-x,1/2+y,1/2-z
-x,-y,-z
1/2+x,y,1/2-z
1/2-x,1/2+y,z
x,1/2-y,1/2+z
loop_
_atom_site_type_symbol
_atom_site_label
_atom_site_fract_x
_atom_site_fract_y
_atom_site_fract_z
Si Si1 0.370623 0.505297 0.876388
Si Si2 0.435880 0.701196 0.526097
Si Si3 0.500000 0.500000 0.000000
Si Si4 0.869987 0.852963 0.360020
Si Si5 0.422114 0.659058 0.215119
O O1 0.424747 0.479554 0.936991
O O2 0.546003 0.621828 0.864139
O O3 0.482925 0.417222 0.833650
O O4 0.049835 0.531820 0.867037
O O5 0.742984 0.699216 0.500993
O O6 0.451802 0.718986 0.587891
O O7 0.265614 0.585432 0.516387
O O8 0.940796 0.789112 0.306678
O O9 0.615825 0.637620 0.264729
#
# Coordination Sequence:
#
# PCOD9460716 Si02
#       5
#     8   8   4   8   8
#     4  11  25  44  69 101 136 174 221 276 338 402
#     4  11  23  40  66  98 135 176 217 268 330 401
#     4  10  24  42  68 102 138 176 220 274 340 410
#     4  11  25  44  66  97 132 173 220 273 331 393
#     4  12  27  45  69  97 130 177 228 280 335 397
#
# _framework density 25.210457999999999
#
# number of rings (size 3 to 8) (size 9 to 14) (size 15 to 20)
#    0.000    0.889    0.000    6.667    0.000   16.889 
#    0.000    0.000    0.000    0.000    0.000    0.000 
#    0.000    0.000    0.000    0.000    0.000    0.000 
#
# Total GULP energy -200839.501518 kJ/mol
# GULP energy per Si atom -5578.875042 kJ/mol
# Density = 2.515308 g / cm^3
# Si number density = 25.210458 Si / 1000 Ang^3
#
#
#
# Elastic Constant Matrix: (Units=GPa)
#
#
# Indices 1 2 3 4 5 6 
#
# 1 113.4154 1.6245 16.8956 0.0000 0.0000 0.0000
# 2 1.6245 29.9277 38.2305 0.0000 0.0000 0.0000
# 3 16.8956 38.2305 146.4102 0.0000 0.0000 0.0000
# 4 0.0000 0.0000 0.0000 35.7486 0.0000 0.0000
# 5 0.0000 0.0000 0.0000 0.0000 46.4193 0.0000
# 6 0.0000 0.0000 0.0000 0.0000 0.0000 35.1796
#
#
#
# Elastic Compliance Matrix: (Units=1/GPa)
#
#
# Indices 1 2 3 4 5 6 
#
# 1 0.009003 0.001258 -0.001367 0.000000 0.000000 0.000000
# 2 0.001258 0.050314 -0.013283 0.000000 0.000000 0.000000
# 3 -0.001367 -0.013283 0.010456 0.000000 0.000000 0.000000
# 4 0.000000 0.000000 0.000000 0.027973 0.000000 0.000000
# 5 0.000000 0.000000 0.000000 0.000000 0.021543 0.000000
# 6 0.000000 0.000000 0.000000 0.000000 0.000000 0.028426
#
#
# Mechanical properties :
#
#
# Convention : Reuss Voigt Hill
#
# Bulk Modulus (GPa) = 23.26214 44.80605 34.03410
# Shear Modulus (GPa) = 26.47902 39.00301 32.74102
#
# Velocity S-wave (km/s) = 3.24438 3.93758 3.60767
# Velocity P-wave (km/s) = 4.82513 6.20356 5.55725
#
# Compressibility (1/GPa) = 0.04298830
#
# Stress axis : x y z
#
# Youngs Moduli (GPa) = 111.07611 19.87524 95.63524
#
# Poissons Ratio (x) = -0.02501 0.13078
# Poissons Ratio (y) = -0.13975 1.27033
# Poissons Ratio (z) = 0.15189 0.26400
#
# Static dielectric constant tensor:
#      x y z
#    x 2.003850 0.000000 0.000000 
#    y 0.000000 1.946820 0.000000 
#    z 0.000000 0.000000 1.871840 
# 
# From -- ./inp_files/9932.got.cif
#   From: 2010.05.17/outbox.cif.g08.bks.cpg/sg61_5_cif.got.tgz:9932.got - 2010.06.03 15:17:17.
