data_PCOD9460116
_publ_section_title
;
Structure prediction by ZEFSAII (Michael W. Deem and Ramdas Pophale) SiO2 
 PCOD9460116
Probable space group: P B C A
;
_chemical_formula_sum "Si O2"
_cell_formula_units_Z 48
_cell_length_a 12.621406
_cell_length_b 11.524203
_cell_length_c 13.391976
_cell_angle_alpha 90.000000
_cell_angle_beta 90.000000
_cell_angle_gamma 90.000000
_cell_volume 1947.884938
_symmetry_space_group_name_H-M "P B C A"
_symmetry_group_IT_number 61
_symmetry_cell_setting 'orthorhombic'
loop_
_space_group_symop_operation_xyz
x,y,z
1/2-x,-y,1/2+z
1/2+x,1/2-y,-z
-x,1/2+y,1/2-z
-x,-y,-z
1/2+x,y,1/2-z
1/2-x,1/2+y,z
x,1/2-y,1/2+z
loop_
_atom_site_type_symbol
_atom_site_label
_atom_site_fract_x
_atom_site_fract_y
_atom_site_fract_z
Si Si1 0.079129 0.038813 0.124188
Si Si2 0.569687 0.071835 0.153635
Si Si3 0.742145 0.214679 0.452066
Si Si4 0.586842 0.094006 0.933437
Si Si5 0.592788 0.732924 0.109750
Si Si6 0.065974 0.778516 0.164030
O O1 0.163244 0.105734 0.054303
O O2 0.120495 0.048040 0.239350
O O3 0.967565 0.109143 0.118906
O O4 0.064212 0.902086 0.109067
O O5 0.542872 0.208107 0.157216
O O6 0.461312 0.995278 0.145354
O O7 0.615573 0.044247 0.043420
O O8 0.682423 0.324727 0.402760
O O9 0.793905 0.254734 0.556886
O O10 0.843481 0.199216 0.383460
O O11 0.490883 0.185882 0.948949
O O12 0.594199 0.786813 0.219837
#
# Coordination Sequence:
#
# PCOD9460116 Si02
#       6
#     8   8   8   8   8   8
#     4  10  24  43  67  98 138 182 230 289 354 411
#     4  10  21  42  69  90 130 185 223 283 350 413
#     4  11  25  41  66 102 133 179 235 282 344 424
#     4  10  21  42  69  92 134 181 222 284 357 410
#     4  10  22  46  66  98 137 180 231 290 351 417
#     4  11  23  42  68  96 139 174 234 287 341 422
#
# _framework density 24.642112000000001
#
# number of rings (size 3 to 8) (size 9 to 14) (size 15 to 20)
#    0.000    1.667    3.333    0.000    4.667    0.667 
#    0.000    0.000    0.000    0.000    0.000    0.000 
#    0.000    0.000    0.000    0.000    0.000    0.000 
#
# Total GULP energy -267871.255433 kJ/mol
# GULP energy per Si atom -5580.651155 kJ/mol
# Density = 2.458603 g / cm^3
# Si number density = 24.642112 Si / 1000 Ang^3
#
#
#
# Elastic Constant Matrix: (Units=GPa)
#
#
# Indices 1 2 3 4 5 6 
#
# 1 72.3912 35.6480 2.4027 0.0000 0.0000 0.0000
# 2 35.6480 126.1455 -25.5007 0.0000 0.0000 0.0000
# 3 2.4027 -25.5007 103.6105 0.0000 0.0000 0.0000
# 4 0.0000 0.0000 0.0000 22.1742 0.0000 0.0000
# 5 0.0000 0.0000 0.0000 0.0000 29.8890 0.0000
# 6 0.0000 0.0000 0.0000 0.0000 0.0000 27.2920
#
#
#
# Elastic Compliance Matrix: (Units=1/GPa)
#
#
# Indices 1 2 3 4 5 6 
#
# 1 0.016292 -0.004925 -0.001590 0.000000 0.000000 0.000000
# 2 -0.004925 0.009832 0.002534 0.000000 0.000000 0.000000
# 3 -0.001590 0.002534 0.010312 0.000000 0.000000 0.000000
# 4 0.000000 0.000000 0.000000 0.045097 0.000000 0.000000
# 5 0.000000 0.000000 0.000000 0.000000 0.033457 0.000000
# 6 0.000000 0.000000 0.000000 0.000000 0.000000 0.036641
#
#
# Mechanical properties :
#
#
# Convention : Reuss Voigt Hill
#
# Bulk Modulus (GPa) = 35.12165 36.36080 35.74122
# Shear Modulus (GPa) = 29.57091 35.17752 32.37422
#
# Velocity S-wave (km/s) = 3.46788 3.78237 3.62854
# Velocity P-wave (km/s) = 5.50623 5.81917 5.66486
#
# Compressibility (1/GPa) = 0.02847247
#
# Stress axis : x y z
#
# Youngs Moduli (GPa) = 61.37948 101.71370 96.97378
#
# Poissons Ratio (x) = 0.50099 0.15420
# Poissons Ratio (y) = 0.30232 -0.24573
# Poissons Ratio (z) = 0.09760 -0.25774
#
# Static dielectric constant tensor:
#      x y z
#    x 1.967960 0.000000 0.000000 
#    y 0.000000 2.011260 0.000000 
#    z 0.000000 0.000000 2.008450 
# 
# From -- ./inp_files/7805.got.cif
#   From: 2010.05.17/outbox.cif.g08.bks.cpg/sg61_4_cif.got.tgz:7805.got - 2010.06.03 15:17:17.
