data_PCOD9460702
_publ_section_title
;
Structure prediction by ZEFSAII (Michael W. Deem and Ramdas Pophale) SiO2 
 PCOD9460702
Probable space group: P B C A
;
_chemical_formula_sum "Si O2"
_cell_formula_units_Z 64
_cell_length_a 13.083525
_cell_length_b 13.062517
_cell_length_c 16.133345
_cell_angle_alpha 90.000000
_cell_angle_beta 90.000000
_cell_angle_gamma 90.000000
_cell_volume 2757.249447
_symmetry_space_group_name_H-M "P B C A"
_symmetry_group_IT_number 61
_symmetry_cell_setting 'orthorhombic'
loop_
_space_group_symop_operation_xyz
x,y,z
1/2-x,-y,1/2+z
1/2+x,1/2-y,-z
-x,1/2+y,1/2-z
-x,-y,-z
1/2+x,y,1/2-z
1/2-x,1/2+y,z
x,1/2-y,1/2+z
loop_
_atom_site_type_symbol
_atom_site_label
_atom_site_fract_x
_atom_site_fract_y
_atom_site_fract_z
Si Si1 0.502892 0.887231 0.344936
Si Si2 0.644068 0.703569 0.731753
Si Si3 0.166792 0.453103 0.011412
Si Si4 0.675623 0.442005 0.879816
Si Si5 0.195980 0.465556 0.261696
Si Si6 0.188778 0.619376 0.397287
Si Si7 0.478058 0.102082 0.913272
Si Si8 0.480058 0.678815 0.025928
O O1 0.566283 0.789672 0.308659
O O2 0.420916 0.934688 0.281168
O O3 0.454814 0.855878 0.433023
O O4 0.589150 0.973221 0.360609
O O5 0.743769 0.639424 0.755089
O O6 0.673304 0.799842 0.676328
O O7 0.578058 0.633788 0.669387
O O8 0.221952 0.360086 0.963766
O O9 0.087597 0.512002 0.953345
O O10 0.258190 0.524436 0.041274
O O11 0.097609 0.425726 0.090763
O O12 0.756556 0.452422 0.804180
O O13 0.610629 0.343052 0.908001
O O14 0.221725 0.516063 0.351092
O O15 0.079895 0.615410 0.443309
O O16 0.482874 0.203917 0.970356
#
# Coordination Sequence:
#
# PCOD9460702 Si02
#       8
#     8   8   8   8   8   8   8   8
#     4  11  22  42  67  99 136 178 228 294 347 419
#     4  10  24  42  62  97 134 175 227 284 346 417
#     4  11  22  42  65  95 136 184 226 284 357 418
#     4  11  23  41  68  98 132 182 230 283 349 422
#     4  11  23  42  67  94 137 182 223 285 356 414
#     4  11  22  43  66  96 136 180 233 284 349 418
#     4  10  24  41  64  96 139 177 227 291 348 421
#     4  11  23  42  71 101 130 180 240 289 342 426
#
# _framework density 23.211538000000001
#
# number of rings (size 3 to 8) (size 9 to 14) (size 15 to 20)
#    0.000    1.250    3.750    1.875    1.750    2.000 
#    9.000    0.000    0.000    0.000    0.000    0.000 
#    0.000    0.000    0.000    0.000    0.000    0.000 
#
# Total GULP energy -356920.780007 kJ/mol
# GULP energy per Si atom -5576.887188 kJ/mol
# Density = 2.315871 g / cm^3
# Si number density = 23.211538 Si / 1000 Ang^3
#
#
#
# Elastic Constant Matrix: (Units=GPa)
#
#
# Indices 1 2 3 4 5 6 
#
# 1 131.3777 28.6245 34.9742 0.0000 0.0000 0.0000
# 2 28.6245 24.2791 13.0048 0.0000 0.0000 0.0000
# 3 34.9742 13.0048 83.0974 0.0000 0.0000 0.0000
# 4 0.0000 0.0000 0.0000 27.2599 0.0000 0.0000
# 5 0.0000 0.0000 0.0000 0.0000 43.5434 0.0000
# 6 0.0000 0.0000 0.0000 0.0000 0.0000 24.8184
#
#
#
# Elastic Compliance Matrix: (Units=1/GPa)
#
#
# Indices 1 2 3 4 5 6 
#
# 1 0.010804 -0.011244 -0.002787 0.000000 0.000000 0.000000
# 2 -0.011244 0.056659 -0.004135 0.000000 0.000000 0.000000
# 3 -0.002787 -0.004135 0.013854 0.000000 0.000000 0.000000
# 4 0.000000 0.000000 0.000000 0.036684 0.000000 0.000000
# 5 0.000000 0.000000 0.000000 0.000000 0.022966 0.000000
# 6 0.000000 0.000000 0.000000 0.000000 0.000000 0.040293
#
#
# Mechanical properties :
#
#
# Convention : Reuss Voigt Hill
#
# Bulk Modulus (GPa) = 22.22990 43.55127 32.89059
# Shear Modulus (GPa) = 21.49742 29.93438 25.71590
#
# Velocity S-wave (km/s) = 3.04658 3.59504 3.33211
# Velocity P-wave (km/s) = 4.68758 6.00299 5.38560
#
# Compressibility (1/GPa) = 0.04498446
#
# Stress axis : x y z
#
# Youngs Moduli (GPa) = 92.56248 17.64946 72.17985
#
# Poissons Ratio (x) = 0.19845 0.20119
# Poissons Ratio (y) = 1.04078 0.29844
# Poissons Ratio (z) = 0.25800 0.07298
#
# Static dielectric constant tensor:
#      x y z
#    x 1.863010 0.000000 0.000000 
#    y 0.000000 1.899860 0.000000 
#    z 0.000000 0.000000 1.913380 
# 
# From -- ./inp_files/9305.got.cif
#   From: 2010.05.17/outbox.cif.g08.bks.cpg/sg61_5_cif.got.tgz:9305.got - 2010.06.03 15:17:17.
