data_PCOD9460182
_publ_section_title
;
Structure prediction by ZEFSAII (Michael W. Deem and Ramdas Pophale) SiO2 
 PCOD9460182
Probable space group: P B C A
;
_chemical_formula_sum "Si O2"
_cell_formula_units_Z 40
_cell_length_a 16.910654
_cell_length_b 5.451068
_cell_length_c 18.559296
_cell_angle_alpha 90.000000
_cell_angle_beta 90.000000
_cell_angle_gamma 90.000000
_cell_volume 1710.816782
_symmetry_space_group_name_H-M "P B C A"
_symmetry_group_IT_number 61
_symmetry_cell_setting 'orthorhombic'
loop_
_space_group_symop_operation_xyz
x,y,z
1/2-x,-y,1/2+z
1/2+x,1/2-y,-z
-x,1/2+y,1/2-z
-x,-y,-z
1/2+x,y,1/2-z
1/2-x,1/2+y,z
x,1/2-y,1/2+z
loop_
_atom_site_type_symbol
_atom_site_label
_atom_site_fract_x
_atom_site_fract_y
_atom_site_fract_z
Si Si1 0.116756 0.031927 0.034958
Si Si2 0.702068 0.785827 0.590719
Si Si3 0.031104 0.299480 0.916485
Si Si4 0.426775 0.685239 0.654912
Si Si5 0.576955 0.537185 0.202391
O O1 0.138733 0.170285 0.108929
O O2 0.038008 0.889971 0.060805
O O3 0.167181 0.836081 0.989761
O O4 0.096733 0.245144 0.976609
O O5 0.757274 0.024500 0.599857
O O6 0.634374 0.806248 0.651498
O O7 0.984755 0.549266 0.902533
O O8 0.070144 0.216258 0.841892
O O9 0.396329 0.499106 0.715676
O O10 0.488477 0.854610 0.698631
#
# Coordination Sequence:
#
# PCOD9460182 Si02
#       5
#     8   8   8   8   8
#     4   9  21  36  60  92 117 164 213 262 325 367
#     4  11  27  46  65  86 129 184 226 259 308 400
#     4   9  18  35  59  94 124 151 198 271 325 386
#     4  11  19  35  65  97 130 153 204 286 337 386
#     4  10  22  36  62 100 127 169 210 261 344 389
#
# _framework density 23.380645000000001
#
# number of rings (size 3 to 8) (size 9 to 14) (size 15 to 20)
#    0.000    2.000    2.000    1.800    8.400    0.000 
#    0.000    2.000    0.000    0.000    0.000    0.000 
#    0.000    0.000    0.000    0.000    0.000    0.000 
#
# Total GULP energy -223088.678768 kJ/mol
# GULP energy per Si atom -5577.216969 kJ/mol
# Density = 2.332743 g / cm^3
# Si number density = 23.380645 Si / 1000 Ang^3
#
#
#
# Elastic Constant Matrix: (Units=GPa)
#
#
# Indices 1 2 3 4 5 6 
#
# 1 40.4088 13.5912 20.2971 0.0000 0.0000 0.0000
# 2 13.5912 73.3011 23.4992 0.0000 0.0000 0.0000
# 3 20.2971 23.4992 106.8067 0.0000 0.0000 0.0000
# 4 0.0000 0.0000 0.0000 18.2364 0.0000 0.0000
# 5 0.0000 0.0000 0.0000 0.0000 18.8103 0.0000
# 6 0.0000 0.0000 0.0000 0.0000 0.0000 39.5088
#
#
#
# Elastic Compliance Matrix: (Units=1/GPa)
#
#
# Indices 1 2 3 4 5 6 
#
# 1 0.028305 -0.003791 -0.004545 0.000000 0.000000 0.000000
# 2 -0.003791 0.015185 -0.002621 0.000000 0.000000 0.000000
# 3 -0.004545 -0.002621 0.010803 0.000000 0.000000 0.000000
# 4 0.000000 0.000000 0.000000 0.054835 0.000000 0.000000
# 5 0.000000 0.000000 0.000000 0.000000 0.053162 0.000000
# 6 0.000000 0.000000 0.000000 0.000000 0.000000 0.025311
#
#
# Mechanical properties :
#
#
# Convention : Reuss Voigt Hill
#
# Bulk Modulus (GPa) = 30.88308 37.25462 34.06885
# Shear Modulus (GPa) = 22.69544 26.18639 24.44092
#
# Velocity S-wave (km/s) = 3.11898 3.35028 3.23669
# Velocity P-wave (km/s) = 5.11939 5.56186 5.34521
#
# Compressibility (1/GPa) = 0.03238019
#
# Stress axis : x y z
#
# Youngs Moduli (GPa) = 35.32935 65.85264 92.56721
#
# Poissons Ratio (x) = 0.24966 0.42070
# Poissons Ratio (y) = 0.13394 0.24258
# Poissons Ratio (z) = 0.16057 0.17257
#
# Static dielectric constant tensor:
#      x y z
#    x 1.908970 0.000000 0.000000 
#    y 0.000000 1.943330 0.000000 
#    z 0.000000 0.000000 1.938310 
# 
# From -- ./inp_files/696.got.cif
#   From: 2010.05.17/outbox.cif.g08.bks.cpg/sg61_1_cif.got.tgz:696.got - 2010.06.03 15:17:17.
