data_PCOD9460787
_publ_section_title
;
Structure prediction by ZEFSAII (Michael W. Deem and Ramdas Pophale) SiO2 
 PCOD9460787
Probable space group: P B C A
;
_chemical_formula_sum "Si O2"
_cell_formula_units_Z 64
_cell_length_a 16.665361
_cell_length_b 11.164926
_cell_length_c 14.661541
_cell_angle_alpha 90.000000
_cell_angle_beta 90.000000
_cell_angle_gamma 90.000000
_cell_volume 2728.036607
_symmetry_space_group_name_H-M "P B C A"
_symmetry_group_IT_number 61
_symmetry_cell_setting 'orthorhombic'
loop_
_space_group_symop_operation_xyz
x,y,z
1/2-x,-y,1/2+z
1/2+x,1/2-y,-z
-x,1/2+y,1/2-z
-x,-y,-z
1/2+x,y,1/2-z
1/2-x,1/2+y,z
x,1/2-y,1/2+z
loop_
_atom_site_type_symbol
_atom_site_label
_atom_site_fract_x
_atom_site_fract_y
_atom_site_fract_z
Si Si1 0.056825 0.687180 0.170009
Si Si2 0.153991 0.827498 0.500783
Si Si3 0.100514 0.455693 0.876482
Si Si4 0.840054 0.738556 0.498898
Si Si5 0.824191 0.677696 0.799837
Si Si6 0.241820 0.437798 0.752719
Si Si7 0.442917 0.610433 0.869045
Si Si8 0.892028 0.134676 0.136821
O O1 0.082713 0.706581 0.273323
O O2 0.988132 0.586355 0.152862
O O3 0.020350 0.809495 0.134159
O O4 0.130275 0.654754 0.105257
O O5 0.112473 0.933400 0.443680
O O6 0.249486 0.810603 0.494119
O O7 0.117986 0.709703 0.453251
O O8 0.141266 0.344650 0.929978
O O9 0.155606 0.478985 0.789414
O O10 0.859026 0.790084 0.399067
O O11 0.896401 0.634938 0.537010
O O12 0.774102 0.799362 0.777363
O O13 0.774601 0.552279 0.804810
O O14 0.888926 0.654412 0.718786
O O15 0.306988 0.425542 0.834573
O O16 0.456053 0.470662 0.865507
#
# Coordination Sequence:
#
# PCOD9460787 Si02
#       8
#     8   8   8   8   8   8   8   8
#     4  11  26  44  66 104 139 179 237 282 362 427
#     4  12  25  42  71 102 139 177 231 298 354 420
#     4  11  24  45  67  98 139 182 226 291 360 418
#     4  11  24  42  71 104 136 180 233 289 347 418
#     4  11  23  39  72 101 137 180 239 284 350 419
#     4  11  21  45  67 102 132 181 235 289 344 423
#     4  10  24  48  66  97 142 186 231 289 355 426
#     4  11  24  43  72  95 137 184 230 294 348 418
#
# _framework density 23.460094000000002
#
# number of rings (size 3 to 8) (size 9 to 14) (size 15 to 20)
#    0.000    1.000    3.750    3.375    7.000    2.500 
#    0.000    0.000    0.000    0.000    0.000    0.000 
#    0.000    0.000    0.000    0.000    0.000    0.000 
#
# Total GULP energy -357669.657564 kJ/mol
# GULP energy per Si atom -5588.588399 kJ/mol
# Density = 2.340670 g / cm^3
# Si number density = 23.460094 Si / 1000 Ang^3
#
#
#
# Elastic Constant Matrix: (Units=GPa)
#
#
# Indices 1 2 3 4 5 6 
#
# 1 25.5559 -10.7302 21.1762 0.0000 0.0000 0.0000
# 2 -10.7302 35.6762 -11.7732 0.0000 0.0000 0.0000
# 3 21.1762 -11.7732 66.8661 0.0000 0.0000 0.0000
# 4 0.0000 0.0000 0.0000 -30.5109 0.0000 0.0000
# 5 0.0000 0.0000 0.0000 0.0000 28.0001 0.0000
# 6 0.0000 0.0000 0.0000 0.0000 0.0000 -2.0779
#
#
#
# Elastic Compliance Matrix: (Units=1/GPa)
#
#
# Indices 1 2 3 4 5 6 
#
# 1 0.057502 0.011981 -0.016101 0.000000 0.000000 0.000000
# 2 0.011981 0.032256 0.001885 0.000000 0.000000 0.000000
# 3 -0.016101 0.001885 0.020386 0.000000 0.000000 0.000000
# 4 0.000000 0.000000 0.000000 -0.032775 0.000000 0.000000
# 5 0.000000 0.000000 0.000000 0.000000 0.035714 0.000000
# 6 0.000000 0.000000 0.000000 0.000000 0.000000 -0.481252
#
#
# Mechanical properties :
#
#
# Convention : Reuss Voigt Hill
#
# Bulk Modulus (GPa) = 9.46305 13.93820 11.70062
# Shear Modulus (GPa) = -15.22188 7.71061 -3.75564
#
# Velocity S-wave (km/s) = -2.55000 1.81489 -1.26662
# Velocity P-wave (km/s) = 2.15118 3.21650 1.69091
#
# Compressibility (1/GPa) = 0.10567418
#
# Stress axis : x y z
#
# Youngs Moduli (GPa) = 17.39064 31.00245 49.05266
#
# Poissons Ratio (x) = -0.37145 0.78980
# Poissons Ratio (y) = -0.20836 -0.09246
# Poissons Ratio (z) = 0.28001 -0.05843
#
# Static dielectric constant tensor:
#      x y z
#    x 1.902070 0.000000 0.000000 
#    y 0.000000 1.914690 0.000000 
#    z 0.000000 0.000000 1.886350 
# 
# From -- ./inp_files/8226.got.cif
#   From: 2010.05.17/outbox.cif.g08.bks.cpg/sg61_5_cif.got.tgz:8226.got - 2010.06.03 15:17:17.
