data_PCOD9460944
_publ_section_title
;
Structure prediction by ZEFSAII (Michael W. Deem and Ramdas Pophale) SiO2 
 PCOD9460944
Probable space group: P B C A
;
_chemical_formula_sum "Si O2"
_cell_formula_units_Z 64
_cell_length_a 10.774729
_cell_length_b 15.722642
_cell_length_c 17.151411
_cell_angle_alpha 90.000000
_cell_angle_beta 90.000000
_cell_angle_gamma 90.000000
_cell_volume 2905.572629
_symmetry_space_group_name_H-M "P B C A"
_symmetry_group_IT_number 61
_symmetry_cell_setting 'orthorhombic'
loop_
_space_group_symop_operation_xyz
x,y,z
1/2-x,-y,1/2+z
1/2+x,1/2-y,-z
-x,1/2+y,1/2-z
-x,-y,-z
1/2+x,y,1/2-z
1/2-x,1/2+y,z
x,1/2-y,1/2+z
loop_
_atom_site_type_symbol
_atom_site_label
_atom_site_fract_x
_atom_site_fract_y
_atom_site_fract_z
Si Si1 0.253276 0.443144 0.982958
Si Si2 0.453017 0.296321 0.974129
Si Si3 0.892202 0.526750 0.654924
Si Si4 0.958981 0.846633 0.586997
Si Si5 0.640504 0.209022 0.698834
Si Si6 0.908076 0.253741 0.197879
Si Si7 0.135802 0.426407 0.600271
Si Si8 0.353535 0.414356 0.708713
O O1 0.351062 0.366740 0.995957
O O2 0.288797 0.485641 0.900363
O O3 0.119558 0.401851 0.973354
O O4 0.277037 0.514580 0.047118
O O5 0.412696 0.248655 0.894986
O O6 0.576607 0.349014 0.948808
O O7 0.470044 0.227423 0.040973
O O8 0.893025 0.627464 0.646904
O O9 0.864148 0.501574 0.744117
O O10 0.020940 0.484395 0.628134
O O11 0.870859 0.794809 0.647311
O O12 0.050191 0.903317 0.638505
O O13 0.535656 0.213460 0.765157
O O14 0.782776 0.199507 0.725531
O O15 0.890854 0.157789 0.229132
O O16 0.217396 0.397865 0.673772
#
# Coordination Sequence:
#
# PCOD9460944 Si02
#       8
#     8   8   8   8   8   8   8   8
#     4  11  23  43  70  96 138 181 227 279 351 418
#     4  11  22  43  69  95 132 182 224 284 344 423
#     4  11  24  43  70  94 139 184 226 278 349 422
#     4  11  25  41  68 100 138 173 233 287 355 411
#     4  11  24  42  67 103 133 179 231 289 342 419
#     4  11  23  44  70  99 137 181 233 284 354 414
#     4  11  24  42  69  99 134 180 237 275 351 421
#     4  11  25  42  69 100 137 183 225 294 346 418
#
# _framework density 22.026638999999999
#
# number of rings (size 3 to 8) (size 9 to 14) (size 15 to 20)
#    0.000    1.000    3.750    3.750    7.000    2.500 
#    0.000    0.000    0.000    0.000    0.000    0.000 
#    0.000    0.000    0.000    0.000    0.000    0.000 
#
# Total GULP energy -358073.123371 kJ/mol
# GULP energy per Si atom -5594.892553 kJ/mol
# Density = 2.197651 g / cm^3
# Si number density = 22.026639 Si / 1000 Ang^3
#
#
#
# Elastic Constant Matrix: (Units=GPa)
#
#
# Indices 1 2 3 4 5 6 
#
# 1 60.8856 15.8266 19.5071 0.0000 0.0000 0.0000
# 2 15.8266 52.9376 6.4360 0.0000 0.0000 0.0000
# 3 19.5071 6.4360 64.7953 0.0000 0.0000 0.0000
# 4 0.0000 0.0000 0.0000 29.7103 0.0000 0.0000
# 5 0.0000 0.0000 0.0000 0.0000 28.0186 0.0000
# 6 0.0000 0.0000 0.0000 0.0000 0.0000 14.2099
#
#
#
# Elastic Compliance Matrix: (Units=1/GPa)
#
#
# Indices 1 2 3 4 5 6 
#
# 1 0.019484 -0.005174 -0.005352 0.000000 0.000000 0.000000
# 2 -0.005174 0.020495 -0.000478 0.000000 0.000000 0.000000
# 3 -0.005352 -0.000478 0.017092 0.000000 0.000000 0.000000
# 4 0.000000 0.000000 0.000000 0.033658 0.000000 0.000000
# 5 0.000000 0.000000 0.000000 0.000000 0.035691 0.000000
# 6 0.000000 0.000000 0.000000 0.000000 0.000000 0.070373
#
#
# Mechanical properties :
#
#
# Convention : Reuss Voigt Hill
#
# Bulk Modulus (GPa) = 28.52034 29.12867 28.82450
# Shear Modulus (GPa) = 21.69298 23.51101 22.60200
#
# Velocity S-wave (km/s) = 3.14164 3.27064 3.20679
# Velocity P-wave (km/s) = 5.11235 5.24555 5.17937
#
# Compressibility (1/GPa) = 0.03506270
#
# Stress axis : x y z
#
# Youngs Moduli (GPa) = 51.32433 48.79182 58.50727
#
# Poissons Ratio (x) = 0.25247 0.31312
# Poissons Ratio (y) = 0.26557 0.02797
# Poissons Ratio (z) = 0.27468 0.02332
#
# Static dielectric constant tensor:
#      x y z
#    x 1.824250 0.000000 0.000000 
#    y 0.000000 1.788490 0.000000 
#    z 0.000000 0.000000 1.789870 
# 
# From -- ./inp_files/9299.got.cif
#   From: 2010.05.17/outbox.cif.g08.bks.cpg/sg61_5_cif.got.tgz:9299.got - 2010.06.03 15:17:17.
