data_PCOD9460890
_publ_section_title
;
Structure prediction by ZEFSAII (Michael W. Deem and Ramdas Pophale) SiO2 
 PCOD9460890
Probable space group: P B C A
;
_chemical_formula_sum "Si O2"
_cell_formula_units_Z 40
_cell_length_a 18.941355
_cell_length_b 4.931838
_cell_length_c 17.696988
_cell_angle_alpha 90.000000
_cell_angle_beta 90.000000
_cell_angle_gamma 90.000000
_cell_volume 1653.176422
_symmetry_space_group_name_H-M "P B C A"
_symmetry_group_IT_number 61
_symmetry_cell_setting 'orthorhombic'
loop_
_space_group_symop_operation_xyz
x,y,z
1/2-x,-y,1/2+z
1/2+x,1/2-y,-z
-x,1/2+y,1/2-z
-x,-y,-z
1/2+x,y,1/2-z
1/2-x,1/2+y,z
x,1/2-y,1/2+z
loop_
_atom_site_type_symbol
_atom_site_label
_atom_site_fract_x
_atom_site_fract_y
_atom_site_fract_z
Si Si1 0.454257 0.432970 0.147879
Si Si2 0.875329 0.559389 0.913008
Si Si3 0.590307 0.749840 0.685650
Si Si4 0.707307 0.418360 0.266398
Si Si5 0.302910 0.527882 0.424585
O O1 0.439566 0.145952 0.107457
O O2 0.439202 0.393375 0.237859
O O3 0.529121 0.582068 0.143796
O O4 0.400661 0.638843 0.107243
O O5 0.815266 0.506770 0.850889
O O6 0.840749 0.524223 0.993884
O O7 0.644663 0.974145 0.715704
O O8 0.633379 0.550822 0.631487
O O9 0.725151 0.107712 0.253107
O O10 0.259836 0.806751 0.416561
#
# Coordination Sequence:
#
# PCOD9460890 Si02
#       5
#     8   8   8   8   8
#     4  11  25  44  70  98 134 183 227 276 332 407
#     4  11  24  44  68  96 134 181 228 273 336 408
#     4  11  25  44  69 101 137 173 229 283 337 394
#     4  11  21  36  61  90 125 171 216 266 329 397
#     4  12  27  46  70 103 140 176 222 286 342 399
#
# _framework density 24.195844999999998
#
# number of rings (size 3 to 8) (size 9 to 14) (size 15 to 20)
#    0.000    0.800    0.000    8.400    0.000    9.600 
#    0.000    0.000    0.000    0.000    0.000    0.000 
#    0.000    0.000    0.000    0.000    0.000    0.000 
#
# Total GULP energy -224208.428237 kJ/mol
# GULP energy per Si atom -5605.210706 kJ/mol
# Density = 2.414077 g / cm^3
# Si number density = 24.195845 Si / 1000 Ang^3
#
#
#
# Elastic Constant Matrix: (Units=GPa)
#
#
# Indices 1 2 3 4 5 6 
#
# 1 92.3562 14.0646 26.6296 0.0000 0.0000 0.0000
# 2 14.0646 118.1570 16.3512 0.0000 0.0000 0.0000
# 3 26.6296 16.3512 96.0037 0.0000 0.0000 0.0000
# 4 0.0000 0.0000 0.0000 24.1363 0.0000 0.0000
# 5 0.0000 0.0000 0.0000 0.0000 26.0941 0.0000
# 6 0.0000 0.0000 0.0000 0.0000 0.0000 -5.5585
#
#
#
# Elastic Compliance Matrix: (Units=1/GPa)
#
#
# Indices 1 2 3 4 5 6 
#
# 1 0.011879 -0.000981 -0.003128 0.000000 0.000000 0.000000
# 2 -0.000981 0.008749 -0.001218 0.000000 0.000000 0.000000
# 3 -0.003128 -0.001218 0.011491 0.000000 0.000000 0.000000
# 4 0.000000 0.000000 0.000000 0.041431 0.000000 0.000000
# 5 0.000000 0.000000 0.000000 0.000000 0.038323 0.000000
# 6 0.000000 0.000000 0.000000 0.000000 0.000000 -0.179905
#
#
# Mechanical properties :
#
#
# Convention : Reuss Voigt Hill
#
# Bulk Modulus (GPa) = 46.58738 46.73419 46.66078
# Shear Modulus (GPa) = -99.55615 25.56580 -36.99518
#
# Velocity S-wave (km/s) = -6.42147 3.25409 -3.91447
# Velocity P-wave (km/s) = 5.97363 5.78582 1.05085
#
# Compressibility (1/GPa) = 0.02146504
#
# Stress axis : x y z
#
# Youngs Moduli (GPa) = 84.18257 114.30346 87.02219
#
# Poissons Ratio (x) = 0.11215 0.27220
# Poissons Ratio (y) = 0.08259 0.10599
# Poissons Ratio (z) = 0.26331 0.13921
#
# Static dielectric constant tensor:
#      x y z
#    x 1.940380 0.000000 0.000000 
#    y 0.000000 1.914390 0.000000 
#    z 0.000000 0.000000 1.929400 
# 
# From -- ./inp_files/9737.got.cif
#   From: 2010.05.17/outbox.cif.g08.bks.cpg/sg61_5_cif.got.tgz:9737.got - 2010.06.03 15:17:17.
