data_PCOD9460938
_publ_section_title
;
Structure prediction by ZEFSAII (Michael W. Deem and Ramdas Pophale) SiO2 
 PCOD9460938
Probable space group: P B C A
;
_chemical_formula_sum "Si O2"
_cell_formula_units_Z 56
_cell_length_a 9.266297
_cell_length_b 18.580152
_cell_length_c 13.695264
_cell_angle_alpha 90.000000
_cell_angle_beta 90.000000
_cell_angle_gamma 90.000000
_cell_volume 2357.902739
_symmetry_space_group_name_H-M "P B C A"
_symmetry_group_IT_number 61
_symmetry_cell_setting 'orthorhombic'
loop_
_space_group_symop_operation_xyz
x,y,z
1/2-x,-y,1/2+z
1/2+x,1/2-y,-z
-x,1/2+y,1/2-z
-x,-y,-z
1/2+x,y,1/2-z
1/2-x,1/2+y,z
x,1/2-y,1/2+z
loop_
_atom_site_type_symbol
_atom_site_label
_atom_site_fract_x
_atom_site_fract_y
_atom_site_fract_z
Si Si1 0.840063 0.311624 0.136045
Si Si2 0.758057 0.421892 0.976874
Si Si3 0.266046 0.556281 0.378970
Si Si4 0.929117 0.032746 0.282298
Si Si5 0.023506 0.193277 0.037475
Si Si6 0.231320 0.174478 0.539993
Si Si7 0.905397 0.867228 0.255220
O O1 0.849667 0.364011 0.041345
O O2 0.677308 0.320317 0.174714
O O3 0.918847 0.236046 0.114406
O O4 0.931129 0.346033 0.224021
O O5 0.733428 0.488840 0.049674
O O6 0.842679 0.448974 0.881626
O O7 0.611415 0.380427 0.946335
O O8 0.136303 0.578170 0.306785
O O9 0.404015 0.539978 0.310733
O O10 0.302142 0.620333 0.452503
O O11 0.898248 0.952487 0.242703
O O12 0.903800 0.180899 0.954957
O O13 0.150587 0.250715 0.019323
O O14 0.168758 0.147122 0.640694
#
# Coordination Sequence:
#
# PCOD9460938 Si02
#       7
#     8   8   8   8   8   8   8
#     4  11  24  46  70 109 142 199 250 310 369 457
#     4  12  24  46  79 102 154 199 253 313 384 447
#     4  12  27  46  76 108 156 191 255 321 381 452
#     4  12  24  45  72 113 145 198 251 315 382 455
#     4  11  26  48  72 104 145 199 255 303 385 451
#     4  11  26  48  73 104 147 199 245 313 380 461
#     4  11  22  42  74 103 142 191 251 297 375 453
#
# _framework density 23.749919999999999
#
# number of rings (size 3 to 8) (size 9 to 14) (size 15 to 20)
#    0.000    0.571    5.714    2.143    4.000    1.714 
#    7.714    0.000    0.000    0.000    0.000    0.000 
#    0.000    0.000    0.000    0.000    0.000    0.000 
#
# Total GULP energy -313098.386791 kJ/mol
# GULP energy per Si atom -5591.042621 kJ/mol
# Density = 2.369586 g / cm^3
# Si number density = 23.749920 Si / 1000 Ang^3
#
#
#
# Elastic Constant Matrix: (Units=GPa)
#
#
# Indices 1 2 3 4 5 6 
#
# 1 135.8083 25.7351 21.0511 0.0000 0.0000 0.0000
# 2 25.7351 73.7476 19.7047 0.0000 0.0000 0.0000
# 3 21.0511 19.7047 98.8755 0.0000 0.0000 0.0000
# 4 0.0000 0.0000 0.0000 27.5594 0.0000 0.0000
# 5 0.0000 0.0000 0.0000 0.0000 50.8229 0.0000
# 6 0.0000 0.0000 0.0000 0.0000 0.0000 28.8237
#
#
#
# Elastic Compliance Matrix: (Units=1/GPa)
#
#
# Indices 1 2 3 4 5 6 
#
# 1 0.008020 -0.002474 -0.001214 0.000000 0.000000 0.000000
# 2 -0.002474 0.015086 -0.002480 0.000000 0.000000 0.000000
# 3 -0.001214 -0.002480 0.010866 0.000000 0.000000 0.000000
# 4 0.000000 0.000000 0.000000 0.036285 0.000000 0.000000
# 5 0.000000 0.000000 0.000000 0.000000 0.019676 0.000000
# 6 0.000000 0.000000 0.000000 0.000000 0.000000 0.034694
#
#
# Mechanical properties :
#
#
# Convention : Reuss Voigt Hill
#
# Bulk Modulus (GPa) = 46.21972 49.04590 47.63281
# Shear Modulus (GPa) = 34.67973 37.57058 36.12516
#
# Velocity S-wave (km/s) = 3.82541 3.98166 3.90431
# Velocity P-wave (km/s) = 6.24619 6.46792 6.35802
#
# Compressibility (1/GPa) = 0.02163579
#
# Stress axis : x y z
#
# Youngs Moduli (GPa) = 124.68130 66.28778 92.02634
#
# Poissons Ratio (x) = 0.16402 0.11176
# Poissons Ratio (y) = 0.30850 0.22819
# Poissons Ratio (z) = 0.15142 0.16437
#
# Static dielectric constant tensor:
#      x y z
#    x 1.941650 0.000000 0.000000 
#    y 0.000000 1.939080 0.000000 
#    z 0.000000 0.000000 1.922700 
# 
# From -- ./inp_files/7163.got.cif
#   From: 2010.05.17/outbox.cif.g08.bks.cpg/sg61_4_cif.got.tgz:7163.got - 2010.06.03 15:17:17.
