data_PCOD9460435
_publ_section_title
;
Structure prediction by ZEFSAII (Michael W. Deem and Ramdas Pophale) SiO2 
 PCOD9460435
Probable space group: P B C A
;
_chemical_formula_sum "Si O2"
_cell_formula_units_Z 56
_cell_length_a 19.931804
_cell_length_b 8.270937
_cell_length_c 14.027279
_cell_angle_alpha 90.000000
_cell_angle_beta 90.000000
_cell_angle_gamma 90.000000
_cell_volume 2312.462804
_symmetry_space_group_name_H-M "P B C A"
_symmetry_group_IT_number 61
_symmetry_cell_setting 'orthorhombic'
loop_
_space_group_symop_operation_xyz
x,y,z
1/2-x,-y,1/2+z
1/2+x,1/2-y,-z
-x,1/2+y,1/2-z
-x,-y,-z
1/2+x,y,1/2-z
1/2-x,1/2+y,z
x,1/2-y,1/2+z
loop_
_atom_site_type_symbol
_atom_site_label
_atom_site_fract_x
_atom_site_fract_y
_atom_site_fract_z
Si Si1 0.913288 0.403814 0.907192
Si Si2 0.208422 0.889437 0.854690
Si Si3 0.317220 0.787026 0.242804
Si Si4 0.287949 0.328805 0.075820
Si Si5 0.521416 0.233683 0.959188
Si Si6 0.901761 0.949449 0.849199
Si Si7 0.576804 0.756393 0.219219
O O1 0.838883 0.327245 0.921203
O O2 0.929284 0.578027 0.952390
O O3 0.927099 0.390150 0.794736
O O4 0.969672 0.290187 0.955626
O O5 0.275736 0.847866 0.799135
O O6 0.151546 0.758554 0.825184
O O7 0.183123 0.059992 0.812988
O O8 0.223074 0.875245 0.966377
O O9 0.276261 0.815576 0.144121
O O10 0.387545 0.710922 0.212411
O O11 0.331891 0.470734 0.121489
O O12 0.563581 0.396410 0.947546
O O13 0.474487 0.242673 0.866189
O O14 0.933609 0.083118 0.781569
#
# Coordination Sequence:
#
# PCOD9460435 Si02
#       7
#     8   8   8   8   8   8   8
#     4  10  22  44  66  97 137 176 224 288 335 407
#     4  12  24  45  70 100 135 182 229 284 356 406
#     4  12  25  47  68 100 140 175 234 288 345 426
#     4  11  25  45  68  97 141 184 229 290 349 414
#     4  11  23  43  69 102 135 181 230 278 351 406
#     4  11  25  44  66 103 137 180 228 286 347 411
#     4  11  22  45  68  99 137 178 226 283 338 412
#
# _framework density 24.216605999999999
#
# number of rings (size 3 to 8) (size 9 to 14) (size 15 to 20)
#    0.000    0.857    5.714    1.714    2.000    2.286 
#   10.286    0.000    0.000    0.000    0.000    0.000 
#    0.000    0.000    0.000    0.000    0.000    0.000 
#
# Total GULP energy -313297.157251 kJ/mol
# GULP energy per Si atom -5594.592094 kJ/mol
# Density = 2.416149 g / cm^3
# Si number density = 24.216606 Si / 1000 Ang^3
#
#
#
# Elastic Constant Matrix: (Units=GPa)
#
#
# Indices 1 2 3 4 5 6 
#
# 1 23.7627 -15.0614 11.4654 0.0000 0.0000 0.0000
# 2 -15.0614 61.1189 3.5846 0.0000 0.0000 0.0000
# 3 11.4654 3.5846 131.0189 0.0000 0.0000 0.0000
# 4 0.0000 0.0000 0.0000 17.9974 0.0000 0.0000
# 5 0.0000 0.0000 0.0000 0.0000 29.7340 0.0000
# 6 0.0000 0.0000 0.0000 0.0000 0.0000 36.7082
#
#
#
# Elastic Compliance Matrix: (Units=1/GPa)
#
#
# Indices 1 2 3 4 5 6 
#
# 1 0.052951 0.013342 -0.004999 0.000000 0.000000 0.000000
# 2 0.013342 0.019750 -0.001708 0.000000 0.000000 0.000000
# 3 -0.004999 -0.001708 0.008117 0.000000 0.000000 0.000000
# 4 0.000000 0.000000 0.000000 0.055564 0.000000 0.000000
# 5 0.000000 0.000000 0.000000 0.000000 0.033632 0.000000
# 6 0.000000 0.000000 0.000000 0.000000 0.000000 0.027242
#
#
# Mechanical properties :
#
#
# Convention : Reuss Voigt Hill
#
# Bulk Modulus (GPa) = 10.62838 23.98641 17.30740
# Shear Modulus (GPa) = 23.21840 31.28204 27.25022
#
# Velocity S-wave (km/s) = 3.09978 3.59801 3.35814
# Velocity P-wave (km/s) = 4.14848 5.21414 4.71154
#
# Compressibility (1/GPa) = 0.09408768
#
# Stress axis : x y z
#
# Youngs Moduli (GPa) = 18.88534 50.63418 123.20350
#
# Poissons Ratio (x) = -0.67555 0.61586
# Poissons Ratio (y) = -0.25196 0.21042
# Poissons Ratio (z) = 0.09440 0.08648
#
# Static dielectric constant tensor:
#      x y z
#    x 1.794860 0.000000 0.000000 
#    y 0.000000 2.021310 0.000000 
#    z 0.000000 0.000000 1.873070 
# 
# From -- ./inp_files/8385.got.cif
#   From: 2010.05.17/outbox.cif.g08.bks.cpg/sg61_5_cif.got.tgz:8385.got - 2010.06.03 15:17:17.
