data_PCOD9460320
_publ_section_title
;
Structure prediction by ZEFSAII (Michael W. Deem and Ramdas Pophale) SiO2 
 PCOD9460320
Probable space group: P B C A
;
_chemical_formula_sum "Si O2"
_cell_formula_units_Z 40
_cell_length_a 26.266687
_cell_length_b 12.485882
_cell_length_c 4.899997
_cell_angle_alpha 90.000000
_cell_angle_beta 90.000000
_cell_angle_gamma 90.000000
_cell_volume 1607.016513
_symmetry_space_group_name_H-M "P B C A"
_symmetry_group_IT_number 61
_symmetry_cell_setting 'orthorhombic'
loop_
_space_group_symop_operation_xyz
x,y,z
1/2-x,-y,1/2+z
1/2+x,1/2-y,-z
-x,1/2+y,1/2-z
-x,-y,-z
1/2+x,y,1/2-z
1/2-x,1/2+y,z
x,1/2-y,1/2+z
loop_
_atom_site_type_symbol
_atom_site_label
_atom_site_fract_x
_atom_site_fract_y
_atom_site_fract_z
Si Si1 0.625896 0.994019 0.990156
Si Si2 0.066411 0.320732 0.708088
Si Si3 0.682622 0.812594 0.332773
Si Si4 0.946358 0.175159 0.218148
Si Si5 0.728208 0.056355 0.716976
O O1 0.599367 0.083181 0.175794
O O2 0.670068 0.045350 0.801989
O O3 0.584711 0.928137 0.813223
O O4 0.653191 0.909461 0.192920
O O5 0.075760 0.216937 0.900269
O O6 0.006582 0.348535 0.736110
O O7 0.671078 0.790406 0.646026
O O8 0.742508 0.836147 0.297235
O O9 0.935974 0.275399 0.421384
O O10 0.741360 0.030479 0.405088
#
# Coordination Sequence:
#
# PCOD9460320 Si02
#       5
#     8   8   8   8   8
#     4  11  23  41  68  94 125 170 217 260 315 380
#     4  10  24  42  62  92 130 168 212 261 318 377
#     4  11  23  40  62  92 126 162 205 258 312 369
#     4  10  22  41  64  96 130 163 207 264 321 381
#     4  10  23  40  58  86 124 163 205 255 308 365
#
# _framework density 24.890846
#
# number of rings (size 3 to 8) (size 9 to 14) (size 15 to 20)
#    0.000    1.600    0.000    4.200    0.000   11.200 
#    0.000    6.000    0.000    0.000    0.000    0.000 
#    0.000    0.000    0.000    0.000    0.000    0.000 
#
# Total GULP energy -224294.579053 kJ/mol
# GULP energy per Si atom -5607.364476 kJ/mol
# Density = 2.483419 g / cm^3
# Si number density = 24.890846 Si / 1000 Ang^3
#
#
#
# Elastic Constant Matrix: (Units=GPa)
#
#
# Indices 1 2 3 4 5 6 
#
# 1 110.6806 46.8975 16.1330 0.0000 0.0000 0.0000
# 2 46.8975 62.5570 10.2690 0.0000 0.0000 0.0000
# 3 16.1330 10.2690 97.3855 0.0000 0.0000 0.0000
# 4 0.0000 0.0000 0.0000 28.4442 0.0000 0.0000
# 5 0.0000 0.0000 0.0000 0.0000 34.5057 0.0000
# 6 0.0000 0.0000 0.0000 0.0000 0.0000 55.0177
#
#
#
# Elastic Compliance Matrix: (Units=1/GPa)
#
#
# Indices 1 2 3 4 5 6 
#
# 1 0.013373 -0.009832 -0.001179 0.000000 0.000000 0.000000
# 2 -0.009832 0.023495 -0.000849 0.000000 0.000000 0.000000
# 3 -0.001179 -0.000849 0.010553 0.000000 0.000000 0.000000
# 4 0.000000 0.000000 0.000000 0.035157 0.000000 0.000000
# 5 0.000000 0.000000 0.000000 0.000000 0.028981 0.000000
# 6 0.000000 0.000000 0.000000 0.000000 0.000000 0.018176
#
#
# Mechanical properties :
#
#
# Convention : Reuss Voigt Hill
#
# Bulk Modulus (GPa) = 42.18865 46.35801 44.27333
# Shear Modulus (GPa) = 30.98780 36.74841 33.86811
#
# Velocity S-wave (km/s) = 3.53221 3.84654 3.69272
# Velocity P-wave (km/s) = 5.79841 6.19619 6.00060
#
# Compressibility (1/GPa) = 0.02370306
#
# Stress axis : x y z
#
# Youngs Moduli (GPa) = 74.77928 42.56159 94.75784
#
# Poissons Ratio (x) = 0.41845 0.11168
# Poissons Ratio (y) = 0.73521 0.08043
# Poissons Ratio (z) = 0.08814 0.03613
#
# Static dielectric constant tensor:
#      x y z
#    x 2.010860 0.000000 0.000000 
#    y 0.000000 1.968800 0.000000 
#    z 0.000000 0.000000 1.917970 
# 
# From -- ./inp_files/1433.got.cif
#   From: 2010.05.17/outbox.cif.g08.bks.cpg/sg61_1_cif.got.tgz:1433.got - 2010.06.03 15:17:17.
