data_PCOD9461099
_publ_section_title
;
Structure prediction by ZEFSAII (Michael W. Deem and Ramdas Pophale) SiO2 
 PCOD9461099
Probable space group: P B C A
;
_chemical_formula_sum "Si O2"
_cell_formula_units_Z 48
_cell_length_a 20.668516
_cell_length_b 12.078299
_cell_length_c 7.793214
_cell_angle_alpha 90.000000
_cell_angle_beta 90.000000
_cell_angle_gamma 90.000000
_cell_volume 1945.501965
_symmetry_space_group_name_H-M "P B C A"
_symmetry_group_IT_number 61
_symmetry_cell_setting 'orthorhombic'
loop_
_space_group_symop_operation_xyz
x,y,z
1/2-x,-y,1/2+z
1/2+x,1/2-y,-z
-x,1/2+y,1/2-z
-x,-y,-z
1/2+x,y,1/2-z
1/2-x,1/2+y,z
x,1/2-y,1/2+z
loop_
_atom_site_type_symbol
_atom_site_label
_atom_site_fract_x
_atom_site_fract_y
_atom_site_fract_z
Si Si1 0.412903 0.115350 0.805830
Si Si2 0.163533 0.502088 0.227351
Si Si3 0.054677 0.356284 0.338628
Si Si4 0.736460 0.122295 0.481644
Si Si5 0.341256 0.203146 0.488711
Si Si6 0.395046 0.622854 0.218745
O O1 0.481461 0.144937 0.723570
O O2 0.358793 0.139946 0.661383
O O3 0.410451 0.984424 0.831712
O O4 0.393596 0.198869 0.956807
O O5 0.094166 0.444186 0.223152
O O6 0.204053 0.417347 0.344293
O O7 0.207999 0.534141 0.068203
O O8 0.156367 0.615941 0.334800
O O9 0.064904 0.387505 0.538675
O O10 0.085249 0.235409 0.310965
O O11 0.772087 0.238799 0.499708
O O12 0.679769 0.125300 0.340532
#
# Coordination Sequence:
#
# PCOD9461099 Si02
#       6
#     8   8   8   8   8   8
#     4  12  25  48  70 102 138 184 235 285 346 412
#     4  11  26  44  69 102 135 186 219 292 340 411
#     4  11  26  44  72  97 143 180 235 280 349 406
#     4  11  25  42  71 101 143 169 239 272 357 409
#     4  12  25  44  71 103 134 186 226 292 343 410
#     4  11  26  44  69 104 136 188 222 294 343 412
#
# _framework density 24.672297
#
# number of rings (size 3 to 8) (size 9 to 14) (size 15 to 20)
#    0.000    0.667    5.000    2.500    9.333    1.333 
#    0.000    2.500    0.000    0.000    0.000    0.000 
#    0.000    0.000    0.000    0.000    0.000    0.000 
#
# Total GULP energy -269239.910130 kJ/mol
# GULP energy per Si atom -5609.164794 kJ/mol
# Density = 2.461614 g / cm^3
# Si number density = 24.672297 Si / 1000 Ang^3
#
#
#
# Elastic Constant Matrix: (Units=GPa)
#
#
# Indices 1 2 3 4 5 6 
#
# 1 84.1229 35.3310 -5.3737 0.0000 0.0000 0.0000
# 2 35.3310 151.3707 4.5870 0.0000 0.0000 0.0000
# 3 -5.3737 4.5870 61.3873 0.0000 0.0000 0.0000
# 4 0.0000 0.0000 0.0000 35.8819 0.0000 0.0000
# 5 0.0000 0.0000 0.0000 0.0000 19.8377 0.0000
# 6 0.0000 0.0000 0.0000 0.0000 0.0000 32.8358
#
#
#
# Elastic Compliance Matrix: (Units=1/GPa)
#
#
# Indices 1 2 3 4 5 6 
#
# 1 0.013298 -0.003146 0.001399 0.000000 0.000000 0.000000
# 2 -0.003146 0.007366 -0.000826 0.000000 0.000000 0.000000
# 3 0.001399 -0.000826 0.016474 0.000000 0.000000 0.000000
# 4 0.000000 0.000000 0.000000 0.027869 0.000000 0.000000
# 5 0.000000 0.000000 0.000000 0.000000 0.050409 0.000000
# 6 0.000000 0.000000 0.000000 0.000000 0.000000 0.030455
#
#
# Mechanical properties :
#
#
# Convention : Reuss Voigt Hill
#
# Bulk Modulus (GPa) = 31.25755 40.66327 35.96041
# Shear Modulus (GPa) = 30.92515 35.20020 33.06268
#
# Velocity S-wave (km/s) = 3.54423 3.78128 3.66467
# Velocity P-wave (km/s) = 5.42636 5.96500 5.70204
#
# Compressibility (1/GPa) = 0.03199227
#
# Stress axis : x y z
#
# Youngs Moduli (GPa) = 75.19831 135.76469 60.70097
#
# Poissons Ratio (x) = 0.42715 -0.08493
# Poissons Ratio (y) = 0.23660 0.05013
# Poissons Ratio (z) = -0.10522 0.11211
#
# Static dielectric constant tensor:
#      x y z
#    x 1.933290 0.000000 0.000000 
#    y 0.000000 1.932950 0.000000 
#    z 0.000000 0.000000 1.999650 
# 
# From -- ./inp_files/4222.got.cif
#   From: 2010.05.17/outbox.cif.g08.bks.cpg/sg61_3_cif.got.tgz:4222.got - 2010.06.03 15:17:17.
