data_PCOD9461254
_publ_section_title
;
Structure prediction by ZEFSAII (Michael W. Deem and Ramdas Pophale) SiO2 
 PCOD9461254
Probable space group: P B C A
;
_chemical_formula_sum "Si O2"
_cell_formula_units_Z 64
_cell_length_a 18.000000
_cell_length_b 21.000000
_cell_length_c 9.000000
_cell_angle_alpha 90.000000
_cell_angle_beta 90.000000
_cell_angle_gamma 90.000000
_cell_volume 3402.000000
_symmetry_space_group_name_H-M "P B C A"
_symmetry_group_IT_number 61
_symmetry_cell_setting 'orthorhombic'
loop_
_space_group_symop_operation_xyz
x,y,z
1/2-x,-y,1/2+z
1/2+x,1/2-y,-z
-x,1/2+y,1/2-z
-x,-y,-z
1/2+x,y,1/2-z
1/2-x,1/2+y,z
x,1/2-y,1/2+z
loop_
_atom_site_type_symbol
_atom_site_label
_atom_site_fract_x
_atom_site_fract_y
_atom_site_fract_z
Si Si1 0.968143 0.422026 0.413383
Si Si2 0.543219 0.451800 0.782829
Si Si3 0.499170 0.681165 0.281583
Si Si4 0.572109 0.787225 0.467815
Si Si5 0.786504 0.932192 0.807464
Si Si6 0.676325 0.204963 0.259445
Si Si7 0.201660 0.948737 0.994605
Si Si8 0.746252 0.812235 0.441443
O O1 0.981787 0.474492 0.285523
O O2 0.960264 0.347837 0.374633
O O3 0.887156 0.440179 0.483697
O O4 0.028517 0.431072 0.544211
O O5 0.502199 0.395389 0.694623
O O6 0.630380 0.448115 0.746499
O O7 0.533684 0.722974 0.412476
O O8 0.413221 0.700666 0.249292
O O9 0.548394 0.696977 0.136265
O O10 0.661178 0.786997 0.451751
O O11 0.793202 0.857430 0.848730
O O12 0.727406 0.941688 0.675535
O O13 0.774684 0.983565 0.937111
O O14 0.707557 0.270305 0.325763
O O15 0.711161 0.196616 0.096723
O O16 0.238119 0.888420 0.081046
#
# Coordination Sequence:
#
# PCOD9461254 Si02
#       8
#     8   8   8   8   8   8   8   8
#     4   8  15  30  52  72  92 127 169 198 233 297
#     4   8  15  30  52  70  91 124 164 201 235 280
#     4  10  19  32  52  75  99 130 167 208 248 294
#     4  10  19  32  52  75 100 132 169 204 246 297
#     4   9  18  32  51  74  98 128 164 203 247 294
#     4  10  20  34  52  75 104 134 169 209 254 299
#     4   9  18  32  50  72  98 128 164 204 246 292
#     4  10  20  34  51  74 104 135 166 208 253 302
#
# _framework density 18.812463000000001
#
# number of rings (size 3 to 8) (size 9 to 14) (size 15 to 20)
#    0.000    2.750    0.000    1.500    0.000    2.000 
#    0.000    5.000    0.000    1.500    0.000    0.000 
#    0.000    0.000    0.000    0.000    0.000    0.000 
#
# Total GULP energy -356597.984317 kJ/mol
# GULP energy per Si atom -5571.843505 kJ/mol
# Density = 1.876965 g / cm^3
# Si number density = 18.812463 Si / 1000 Ang^3
#
#
#
# Elastic Constant Matrix: (Units=GPa)
#
#
# Indices 1 2 3 4 5 6 
#
# 1 50.0600 -1.5337 -1.1493 0.0000 0.0000 0.0000
# 2 -1.5337 50.5840 -3.4625 0.0000 0.0000 0.0000
# 3 -1.1493 -3.4625 7.8086 0.0000 0.0000 0.0000
# 4 0.0000 0.0000 0.0000 24.5067 0.0000 0.0000
# 5 0.0000 0.0000 0.0000 0.0000 21.4002 0.0000
# 6 0.0000 0.0000 0.0000 0.0000 0.0000 28.6263
#
#
#
# Elastic Compliance Matrix: (Units=1/GPa)
#
#
# Indices 1 2 3 4 5 6 
#
# 1 0.020078 0.000836 0.003326 0.000000 0.000000 0.000000
# 2 0.000836 0.020423 0.009179 0.000000 0.000000 0.000000
# 3 0.003326 0.009179 0.132624 0.000000 0.000000 0.000000
# 4 0.000000 0.000000 0.000000 0.040805 0.000000 0.000000
# 5 0.000000 0.000000 0.000000 0.000000 0.046728 0.000000
# 6 0.000000 0.000000 0.000000 0.000000 0.000000 0.034933
#
#
# Mechanical properties :
#
#
# Convention : Reuss Voigt Hill
#
# Bulk Modulus (GPa) = 5.00479 10.68461 7.84470
# Shear Modulus (GPa) = 14.90263 22.54653 18.72458
#
# Velocity S-wave (km/s) = 2.81760 3.46568 3.15831
# Velocity P-wave (km/s) = 3.64023 4.65901 4.18077
#
# Compressibility (1/GPa) = 0.19980846
#
# Stress axis : x y z
#
# Youngs Moduli (GPa) = 49.80573 48.96498 7.54009
#
# Poissons Ratio (x) = -0.04096 -0.02508
# Poissons Ratio (y) = -0.04166 -0.06921
# Poissons Ratio (z) = -0.16566 -0.44945
#
# Static dielectric constant tensor:
#      x y z
#    x 1.640850 0.000000 0.000000 
#    y 0.000000 1.718210 0.000000 
#    z 0.000000 0.000000 1.636430 
# 
# From -- ./inp_files/3734.got.cif
#   From: 2010.05.17/outbox.ucp.g08.bks.cvg/sg61_2_cif.got.tgz:3734.got - 2010.06.11 16:28:26.
