data_PCOD9461922
_publ_section_title
;
Structure prediction by ZEFSAII (Michael W. Deem and Ramdas Pophale) SiO2 
 PCOD9461922
Probable space group: P N M A
;
_chemical_formula_sum "Si O2"
_cell_formula_units_Z 56
_cell_length_a 17.500316
_cell_length_b 20.934145
_cell_length_c 8.597842
_cell_angle_alpha 90.000000
_cell_angle_beta 90.000000
_cell_angle_gamma 90.000000
_cell_volume 3149.855121
_symmetry_space_group_name_H-M "P N M A"
_symmetry_group_IT_number 62
_symmetry_cell_setting 'orthorhombic'
loop_
_space_group_symop_operation_xyz
x,y,z
1/2-x,-y,1/2+z
1/2+x,1/2-y,1/2-z
-x,1/2+y,-z
-x,-y,-z
1/2+x,y,1/2-z
1/2-x,1/2+y,1/2+z
x,1/2-y,z
loop_
_atom_site_type_symbol
_atom_site_label
_atom_site_fract_x
_atom_site_fract_y
_atom_site_fract_z
Si Si1 0.896825 0.908503 0.266279
Si Si2 0.478459 0.425001 0.998334
Si Si3 0.661523 0.325163 0.496201
Si Si4 0.042970 0.415022 0.168717
Si Si5 0.251215 0.043123 0.631406
Si Si6 0.702390 0.584009 0.019134
Si Si7 0.400648 0.472891 0.480694
O O1 0.871077 0.849491 0.161938
O O2 0.829886 0.922116 0.390698
O O3 0.976692 0.898440 0.349917
O O4 0.898197 0.972445 0.155175
O O5 0.500000 0.500000 0.000000
O O6 0.514057 0.401670 0.159750
O O7 0.388478 0.412309 0.994728
O O8 0.658915 0.250000 0.476733
O O9 0.604882 0.363191 0.381250
O O10 0.747406 0.353148 0.488457
O O11 0.080233 0.485138 0.135137
O O12 0.967109 0.423257 0.060897
O O13 0.319469 0.058948 0.513058
O O14 0.233594 0.969022 0.600483
O O15 0.276743 0.059548 0.806765
#
# Coordination Sequence:
#
# PCOD9461922 Si02
#       7
#     8   8   8   8   8   8   8
#     4  10  21  35  57  88 121 156 185 246 305 360
#     4  12  21  33  57 100 128 142 180 252 325 363
#     4  10  23  45  61  76 113 172 217 235 282 369
#     4  10  20  33  57  84 114 154 191 243 296 353
#     4  11  18  32  51  87 119 154 189 233 309 360
#     4  11  23  33  58  88 124 157 190 251 302 359
#     4  10  18  31  52  85 125 148 185 235 308 360
#
# _framework density 17.778593999999998
#
# number of rings (size 3 to 8) (size 9 to 14) (size 15 to 20)
#    0.000    1.429    7.143    0.857    4.000    0.000 
#    0.000    2.143    0.000    0.000    0.000    0.000 
#    0.000    0.000    0.000    0.000    0.000    0.000 
#
# Total GULP energy -312264.398848 kJ/mol
# GULP energy per Si atom -5576.149979 kJ/mol
# Density = 1.773813 g / cm^3
# Si number density = 17.778594 Si / 1000 Ang^3
#
#
#
# Elastic Constant Matrix: (Units=GPa)
#
#
# Indices 1 2 3 4 5 6 
#
# 1 164.6453 46.4972 42.5500 0.0000 0.0000 0.0000
# 2 46.4972 78.0470 24.2286 0.0000 0.0000 0.0000
# 3 42.5500 24.2286 58.0656 0.0000 0.0000 0.0000
# 4 0.0000 0.0000 0.0000 8.3254 0.0000 0.0000
# 5 0.0000 0.0000 0.0000 0.0000 36.2039 0.0000
# 6 0.0000 0.0000 0.0000 0.0000 0.0000 15.1253
#
#
#
# Elastic Compliance Matrix: (Units=1/GPa)
#
#
# Indices 1 2 3 4 5 6 
#
# 1 0.008244 -0.003488 -0.004586 0.000000 0.000000 0.000000
# 2 -0.003488 0.016195 -0.004202 0.000000 0.000000 0.000000
# 3 -0.004586 -0.004202 0.022335 0.000000 0.000000 0.000000
# 4 0.000000 0.000000 0.000000 0.120115 0.000000 0.000000
# 5 0.000000 0.000000 0.000000 0.000000 0.027621 0.000000
# 6 0.000000 0.000000 0.000000 0.000000 0.000000 0.066114
#
#
# Mechanical properties :
#
#
# Convention : Reuss Voigt Hill
#
# Bulk Modulus (GPa) = 44.99659 58.58995 51.79327
# Shear Modulus (GPa) = 17.08918 24.42972 20.75945
#
# Velocity S-wave (km/s) = 3.10372 3.71092 3.42082
# Velocity P-wave (km/s) = 6.18130 7.16855 6.69315
#
# Compressibility (1/GPa) = 0.02222391
#
# Stress axis : x y z
#
# Youngs Moduli (GPa) = 121.30464 61.74739 44.77180
#
# Poissons Ratio (x) = 0.21536 0.20531
# Poissons Ratio (y) = 0.42308 0.18812
# Poissons Ratio (z) = 0.55626 0.25945
#
# Static dielectric constant tensor:
#      x y z
#    x 1.677040 0.000000 0.000000 
#    y 0.000000 1.564880 0.000000 
#    z 0.000000 0.000000 1.677370 
# 
# From -- ./inp_files/8021.got.cif
#   From: 2010.05.17/outbox.cif.g08.bks.cpg/sg62_5_cif.got.tgz:8021.got - 2010.06.03 15:25:27.
