data_PCOD9461172
_publ_section_title
;
Structure prediction by ZEFSAII (Michael W. Deem and Ramdas Pophale) SiO2 
 PCOD9461172
Probable space group: P B C A
;
_chemical_formula_sum "Si O2"
_cell_formula_units_Z 48
_cell_length_a 16.287158
_cell_length_b 11.811022
_cell_length_c 11.868129
_cell_angle_alpha 90.000000
_cell_angle_beta 90.000000
_cell_angle_gamma 90.000000
_cell_volume 2283.048019
_symmetry_space_group_name_H-M "P B C A"
_symmetry_group_IT_number 61
_symmetry_cell_setting 'orthorhombic'
loop_
_space_group_symop_operation_xyz
x,y,z
1/2-x,-y,1/2+z
1/2+x,1/2-y,-z
-x,1/2+y,1/2-z
-x,-y,-z
1/2+x,y,1/2-z
1/2-x,1/2+y,z
x,1/2-y,1/2+z
loop_
_atom_site_type_symbol
_atom_site_label
_atom_site_fract_x
_atom_site_fract_y
_atom_site_fract_z
Si Si1 0.655956 0.425935 0.238986
Si Si2 0.655999 0.954092 0.292739
Si Si3 0.926312 0.802382 0.764162
Si Si4 0.407473 0.042422 0.466777
Si Si5 0.952824 0.080351 0.409551
Si Si6 0.578315 0.718324 0.614542
O O1 0.748962 0.459045 0.262757
O O2 0.642649 0.291877 0.250229
O O3 0.630908 0.446281 0.109745
O O4 0.597150 0.500265 0.322702
O O5 0.639739 0.923841 0.421267
O O6 0.612172 0.863966 0.210727
O O7 0.613840 0.076818 0.286150
O O8 0.987554 0.835119 0.660752
O O9 0.982324 0.743958 0.860702
O O10 0.394170 0.152229 0.387790
O O11 0.500000 0.000000 0.500000
O O12 0.902753 0.160224 0.494993
O O13 0.000000 0.000000 0.500000
#
# Coordination Sequence:
#
# PCOD9461172 Si02
#       6
#     8   8   8   8   8   8
#     4  12  29  46  74 116 149 192 249 321 385 437
#     4  12  29  47  71 116 150 192 248 317 387 433
#     4  12  24  47  76 105 147 198 257 296 371 464
#     4  12  25  50  77 105 150 201 253 299 374 469
#     4  12  23  45  74 106 141 194 253 298 362 449
#     4  12  24  46  78 104 145 198 253 302 361 459
#
# _framework density 21.024525000000001
#
# number of rings (size 3 to 8) (size 9 to 14) (size 15 to 20)
#    0.000    0.000    6.667    3.000    4.667    0.000 
#    0.000    0.000    0.000    0.000    0.000    0.000 
#    0.000    0.000    0.000    0.000    0.000    0.000 
#
# Total GULP energy -267754.291353 kJ/mol
# GULP energy per Si atom -5578.214403 kJ/mol
# Density = 2.097667 g / cm^3
# Si number density = 21.024525 Si / 1000 Ang^3
#
#
#
# Elastic Constant Matrix: (Units=GPa)
#
#
# Indices 1 2 3 4 5 6 
#
# 1 98.4265 20.2711 36.8668 0.0000 0.0000 0.0000
# 2 20.2711 95.8281 43.2099 0.0000 0.0000 0.0000
# 3 36.8668 43.2099 97.2254 0.0000 0.0000 0.0000
# 4 0.0000 0.0000 0.0000 109.3668 0.0000 0.0000
# 5 0.0000 0.0000 0.0000 0.0000 23.0091 0.0000
# 6 0.0000 0.0000 0.0000 0.0000 0.0000 26.9943
#
#
#
# Elastic Compliance Matrix: (Units=1/GPa)
#
#
# Indices 1 2 3 4 5 6 
#
# 1 0.011869 -0.000602 -0.004233 0.000000 0.000000 0.000000
# 2 -0.000602 0.013081 -0.005585 0.000000 0.000000 0.000000
# 3 -0.004233 -0.005585 0.014373 0.000000 0.000000 0.000000
# 4 0.000000 0.000000 0.000000 0.009144 0.000000 0.000000
# 5 0.000000 0.000000 0.000000 0.000000 0.043461 0.000000
# 6 0.000000 0.000000 0.000000 0.000000 0.000000 0.037045
#
#
# Mechanical properties :
#
#
# Convention : Reuss Voigt Hill
#
# Bulk Modulus (GPa) = 54.10589 54.68620 54.39605
# Shear Modulus (GPa) = 32.05641 44.61619 38.33630
#
# Velocity S-wave (km/s) = 3.90900 4.61163 4.27477
# Velocity P-wave (km/s) = 6.79442 7.37721 7.09181
#
# Compressibility (1/GPa) = 0.01848228
#
# Stress axis : x y z
#
# Youngs Moduli (GPa) = 84.24991 76.44541 69.57538
#
# Poissons Ratio (x) = 0.04602 0.29453
# Poissons Ratio (y) = 0.05072 0.38861
# Poissons Ratio (z) = 0.35665 0.42698
#
# Static dielectric constant tensor:
#      x y z
#    x 1.810330 0.000000 0.000000 
#    y 0.000000 1.829820 0.000000 
#    z 0.000000 0.000000 1.787380 
# 
# From -- ./inp_files/6162.got.cif
#   From: 2010.05.17/outbox.cif.g08.bks.cpg/sg61_4_cif.got.tgz:6162.got - 2010.06.03 15:17:17.
