data_PCOD9461901
_publ_section_title
;
Structure prediction by ZEFSAII (Michael W. Deem and Ramdas Pophale) SiO2 
 PCOD9461901
Probable space group: P N M A
;
_chemical_formula_sum "Si O2"
_cell_formula_units_Z 56
_cell_length_a 21.985878
_cell_length_b 7.544032
_cell_length_c 14.746480
_cell_angle_alpha 90.000000
_cell_angle_beta 90.000000
_cell_angle_gamma 90.000000
_cell_volume 2445.883131
_symmetry_space_group_name_H-M "P N M A"
_symmetry_group_IT_number 62
_symmetry_cell_setting 'orthorhombic'
loop_
_space_group_symop_operation_xyz
x,y,z
1/2-x,-y,1/2+z
1/2+x,1/2-y,1/2-z
-x,1/2+y,-z
-x,-y,-z
1/2+x,y,1/2-z
1/2-x,1/2+y,1/2+z
x,1/2-y,z
loop_
_atom_site_type_symbol
_atom_site_label
_atom_site_fract_x
_atom_site_fract_y
_atom_site_fract_z
Si Si1 0.862526 0.464495 0.572201
Si Si2 0.747656 0.464663 0.298826
Si Si3 0.647015 0.458744 0.651257
Si Si4 0.763121 0.965939 0.006137
Si Si5 0.982132 0.040185 0.228211
Si Si6 0.449616 0.461409 0.075369
Si Si7 0.888584 0.549091 0.765243
O O1 0.868034 0.250000 0.579362
O O2 0.792457 0.516155 0.571467
O O3 0.888918 0.521120 0.475277
O O4 0.897505 0.547583 0.656344
O O5 0.747838 0.250000 0.295268
O O6 0.803844 0.515548 0.233331
O O7 0.751740 0.521061 0.404092
O O8 0.679133 0.530581 0.274057
O O9 0.640533 0.250000 0.640664
O O10 0.676815 0.529017 0.557911
O O11 0.579430 0.525918 0.671175
O O12 0.764578 0.750000 0.003606
O O13 0.994070 0.250000 0.238770
O O14 0.964710 0.962600 0.326879
O O15 0.048375 0.969062 0.196894
O O16 0.443900 0.250000 0.086975
O O17 0.500000 0.500000 0.000000
O O18 0.882475 0.750000 0.801017
#
# Coordination Sequence:
#
# PCOD9461901 Si02
#       7
#     8   8   8   8   8   8   8
#     4  10  18  31  52  75 105 144 177 217 274 330
#     4  10  20  38  62  84 111 149 188 228 284 340
#     4  11  22  37  58  85 113 146 189 234 278 330
#     4   9  19  36  57  80 110 146 183 226 282 340
#     4  10  21  37  53  76 115 152 185 228 282 335
#     4  10  19  30  49  75 107 144 178 217 273 334
#     4  10  20  34  56  82 107 142 185 227 270 325
#
# _framework density 22.895613999999998
#
# number of rings (size 3 to 8) (size 9 to 14) (size 15 to 20)
#    0.000    2.000    2.857    1.286    0.000    3.429 
#    0.000    4.286    0.000    0.000    0.000    0.000 
#    0.000    0.000    0.000    0.000    0.000    0.000 
#
# Total GULP energy -312262.628373 kJ/mol
# GULP energy per Si atom -5576.118364 kJ/mol
# Density = 2.284350 g / cm^3
# Si number density = 22.895614 Si / 1000 Ang^3
#
#
#
# Elastic Constant Matrix: (Units=GPa)
#
#
# Indices 1 2 3 4 5 6 
#
# 1 133.5194 -0.0792 -0.6929 0.0000 0.0000 0.0000
# 2 -0.0792 56.8736 -8.9045 0.0000 0.0000 0.0000
# 3 -0.6929 -8.9045 30.1992 0.0000 0.0000 0.0000
# 4 0.0000 0.0000 0.0000 7.1770 0.0000 0.0000
# 5 0.0000 0.0000 0.0000 0.0000 33.8301 0.0000
# 6 0.0000 0.0000 0.0000 0.0000 0.0000 25.9885
#
#
#
# Elastic Compliance Matrix: (Units=1/GPa)
#
#
# Indices 1 2 3 4 5 6 
#
# 1 0.007491 0.000039 0.000183 0.000000 0.000000 0.000000
# 2 0.000039 0.018434 0.005436 0.000000 0.000000 0.000000
# 3 0.000183 0.005436 0.034721 0.000000 0.000000 0.000000
# 4 0.000000 0.000000 0.000000 0.139335 0.000000 0.000000
# 5 0.000000 0.000000 0.000000 0.000000 0.029559 0.000000
# 6 0.000000 0.000000 0.000000 0.000000 0.000000 0.038478
#
#
# Mechanical properties :
#
#
# Convention : Reuss Voigt Hill
#
# Bulk Modulus (GPa) = 13.89602 22.35988 18.12795
# Shear Modulus (GPa) = 17.81338 28.75036 23.28187
#
# Velocity S-wave (km/s) = 2.79234 3.54745 3.19230
# Velocity P-wave (km/s) = 4.05939 5.15426 4.63924
#
# Compressibility (1/GPa) = 0.07196304
#
# Stress axis : x y z
#
# Youngs Moduli (GPa) = 133.50199 54.24740 28.80129
#
# Poissons Ratio (x) = -0.00212 -0.00528
# Poissons Ratio (y) = -0.00523 -0.15657
# Poissons Ratio (z) = -0.02449 -0.29491
#
# Static dielectric constant tensor:
#      x y z
#    x 1.945440 0.000000 0.000000 
#    y 0.000000 1.843510 0.000000 
#    z 0.000000 0.000000 1.861630 
# 
# From -- ./inp_files/20238.got.cif
#   From: 2010.05.17/outbox.cif.g08.bks.cpg/sg62_11_cif.got.tgz:20238.got - 2010.06.03 15:25:27.
