data_PCOD9461199
_publ_section_title
;
Structure prediction by ZEFSAII (Michael W. Deem and Ramdas Pophale) SiO2 
 PCOD9461199
Probable space group: P B C A
;
_chemical_formula_sum "Si O2"
_cell_formula_units_Z 64
_cell_length_a 10.572384
_cell_length_b 8.924392
_cell_length_c 30.157748
_cell_angle_alpha 90.000000
_cell_angle_beta 90.000000
_cell_angle_gamma 90.000000
_cell_volume 2845.446831
_symmetry_space_group_name_H-M "P B C A"
_symmetry_group_IT_number 61
_symmetry_cell_setting 'orthorhombic'
loop_
_space_group_symop_operation_xyz
x,y,z
1/2-x,-y,1/2+z
1/2+x,1/2-y,-z
-x,1/2+y,1/2-z
-x,-y,-z
1/2+x,y,1/2-z
1/2-x,1/2+y,z
x,1/2-y,1/2+z
loop_
_atom_site_type_symbol
_atom_site_label
_atom_site_fract_x
_atom_site_fract_y
_atom_site_fract_z
Si Si1 0.860179 0.962645 0.110133
Si Si2 0.248935 0.650488 0.688123
Si Si3 0.810927 0.238784 0.168768
Si Si4 0.060605 0.722948 0.114493
Si Si5 0.879776 0.092462 0.480764
Si Si6 0.862859 0.071028 0.012711
Si Si7 0.855279 0.896726 0.749808
Si Si8 0.004466 0.999856 0.679562
O O1 0.770998 0.843334 0.135386
O O2 0.989070 0.874007 0.101834
O O3 0.875082 0.103995 0.142188
O O4 0.821207 0.024209 0.062372
O O5 0.161804 0.724832 0.651263
O O6 0.177662 0.550628 0.724940
O O7 0.332345 0.772113 0.713812
O O8 0.354546 0.544289 0.667091
O O9 0.733399 0.159056 0.208748
O O10 0.914751 0.358115 0.184717
O O11 0.103260 0.641364 0.070223
O O12 0.965307 0.610525 0.140208
O O13 0.868912 0.249729 0.507318
O O14 0.751353 0.996707 0.483839
O O15 0.000000 0.000000 0.500000
O O16 0.000000 0.000000 0.000000
O O17 0.991784 0.913444 0.726415
#
# Coordination Sequence:
#
# PCOD9461199 Si02
#       8
#     8   8   8   8   8   8   8   8
#     4  12  25  47  78 109 153 191 258 309 389 459
#     4  12  29  47  71 105 150 199 251 318 386 453
#     4  12  25  45  76 110 146 195 253 319 365 457
#     4  12  29  52  72 112 158 200 253 323 396 469
#     4  12  30  52  83 118 161 203 267 332 408 499
#     4  12  27  50  81 116 152 208 255 328 399 487
#     4  12  25  47  68 106 145 199 258 305 375 448
#     4  12  28  45  75 103 147 204 253 315 380 456
#
# _framework density 22.492072
#
# number of rings (size 3 to 8) (size 9 to 14) (size 15 to 20)
#    0.000    0.000    6.250    1.500   12.250    1.000 
#    0.000    0.000    0.000    0.000    0.000    0.000 
#    0.000    0.000    0.000    0.000    0.000    0.000 
#
# Total GULP energy -357801.695043 kJ/mol
# GULP energy per Si atom -5590.651485 kJ/mol
# Density = 2.244088 g / cm^3
# Si number density = 22.492072 Si / 1000 Ang^3
#
#
#
# Elastic Constant Matrix: (Units=GPa)
#
#
# Indices 1 2 3 4 5 6 
#
# 1 85.8003 47.5847 39.2899 0.0000 0.0000 0.0000
# 2 47.5847 158.3153 58.5413 0.0000 0.0000 0.0000
# 3 39.2899 58.5413 143.0678 0.0000 0.0000 0.0000
# 4 0.0000 0.0000 0.0000 33.8575 0.0000 0.0000
# 5 0.0000 0.0000 0.0000 0.0000 20.4232 0.0000
# 6 0.0000 0.0000 0.0000 0.0000 0.0000 36.1036
#
#
#
# Elastic Compliance Matrix: (Units=1/GPa)
#
#
# Indices 1 2 3 4 5 6 
#
# 1 0.014788 -0.003468 -0.002642 0.000000 0.000000 0.000000
# 2 -0.003468 0.008256 -0.002426 0.000000 0.000000 0.000000
# 3 -0.002642 -0.002426 0.008708 0.000000 0.000000 0.000000
# 4 0.000000 0.000000 0.000000 0.029536 0.000000 0.000000
# 5 0.000000 0.000000 0.000000 0.000000 0.048964 0.000000
# 6 0.000000 0.000000 0.000000 0.000000 0.000000 0.027698
#
#
# Mechanical properties :
#
#
# Convention : Reuss Voigt Hill
#
# Bulk Modulus (GPa) = 68.11899 75.33505 71.72702
# Shear Modulus (GPa) = 31.26671 34.19470 32.73070
#
# Velocity S-wave (km/s) = 3.73248 3.90333 3.81886
# Velocity P-wave (km/s) = 6.99476 7.34040 7.16966
#
# Compressibility (1/GPa) = 0.01468019
#
# Stress axis : x y z
#
# Youngs Moduli (GPa) = 67.62173 121.12625 114.83809
#
# Poissons Ratio (x) = 0.42005 0.30342
# Poissons Ratio (y) = 0.23450 0.27858
# Poissons Ratio (z) = 0.17867 0.29383
#
# Static dielectric constant tensor:
#      x y z
#    x 1.852320 0.000000 0.000000 
#    y 0.000000 1.873690 0.000000 
#    z 0.000000 0.000000 1.944810 
# 
# From -- ./inp_files/11789.got.cif
#   From: 2010.05.17/outbox.cif.g08.bks.cpg/sg61_6_cif.got.tgz:11789.got - 2010.06.03 15:17:17.
