data_PCOD9461896
_publ_section_title
;
Structure prediction by ZEFSAII (Michael W. Deem and Ramdas Pophale) SiO2 
 PCOD9461896
Probable space group: P N M A
;
_chemical_formula_sum "Si O2"
_cell_formula_units_Z 64
_cell_length_a 17.881087
_cell_length_b 15.080143
_cell_length_c 12.159794
_cell_angle_alpha 90.000000
_cell_angle_beta 90.000000
_cell_angle_gamma 90.000000
_cell_volume 3278.880536
_symmetry_space_group_name_H-M "P N M A"
_symmetry_group_IT_number 62
_symmetry_cell_setting 'orthorhombic'
loop_
_space_group_symop_operation_xyz
x,y,z
1/2-x,-y,1/2+z
1/2+x,1/2-y,1/2-z
-x,1/2+y,-z
-x,-y,-z
1/2+x,y,1/2-z
1/2-x,1/2+y,1/2+z
x,1/2-y,z
loop_
_atom_site_type_symbol
_atom_site_label
_atom_site_fract_x
_atom_site_fract_y
_atom_site_fract_z
Si Si1 0.764463 0.151409 0.167315
Si Si2 0.920594 0.407188 0.199602
Si Si3 0.865405 0.645393 0.332203
Si Si4 0.353898 0.991392 0.745665
Si Si5 0.502080 0.524639 0.127320
Si Si6 0.350901 0.579681 0.406970
Si Si7 0.436034 0.845121 0.602402
Si Si8 0.765264 0.056358 0.952724
O O1 0.734277 0.250000 0.182540
O O2 0.842927 0.139412 0.229889
O O3 0.708329 0.072481 0.199939
O O4 0.784248 0.132674 0.040112
O O5 0.963925 0.443236 0.305765
O O6 0.897746 0.493802 0.130162
O O7 0.975767 0.351416 0.122931
O O8 0.859227 0.750000 0.358476
O O9 0.950262 0.609332 0.343172
O O10 0.834338 0.627705 0.208285
O O11 0.817784 0.580803 0.412415
O O12 0.402218 0.925148 0.670925
O O13 0.412702 0.033613 0.829767
O O14 0.314348 0.055304 0.657955
O O15 0.500000 0.500000 0.000000
O O16 0.404295 0.640173 0.480977
O O17 0.284456 0.536526 0.482513
O O18 0.409487 0.750000 0.643428
#
# Coordination Sequence:
#
# PCOD9461896 Si02
#       8
#     8   8   8   8   8   8   8   8
#     4  11  21  35  56  84 111 143 189 245 288 327
#     4   9  19  34  53  79 109 143 188 233 282 345
#     4  11  22  38  59  88 116 146 193 247 285 327
#     4  10  21  36  55  79 110 147 190 228 277 349
#     4  10  21  38  60  80 110 155 192 227 283 354
#     4   9  19  34  55  79 111 152 188 223 280 348
#     4  10  18  31  51  79 109 140 178 232 286 330
#     4  10  20  36  57  80 111 150 190 229 282 348
#
# _framework density 19.518856
#
# number of rings (size 3 to 8) (size 9 to 14) (size 15 to 20)
#    0.000    2.000    0.000    4.875    0.000    3.000 
#    0.000    5.625    0.000    0.000    0.000    0.000 
#    0.000    0.000    0.000    0.000    0.000    0.000 
#
# Total GULP energy -356498.662512 kJ/mol
# GULP energy per Si atom -5570.291602 kJ/mol
# Density = 1.947443 g / cm^3
# Si number density = 19.518856 Si / 1000 Ang^3
#
#
#
# Elastic Constant Matrix: (Units=GPa)
#
#
# Indices 1 2 3 4 5 6 
#
# 1 98.4253 24.1897 36.5528 0.0000 0.0000 0.0000
# 2 24.1897 53.8677 18.1601 0.0000 0.0000 0.0000
# 3 36.5528 18.1601 86.7620 0.0000 0.0000 0.0000
# 4 0.0000 0.0000 0.0000 -8.3458 0.0000 0.0000
# 5 0.0000 0.0000 0.0000 0.0000 28.3333 0.0000
# 6 0.0000 0.0000 0.0000 0.0000 0.0000 -0.9363
#
#
#
# Elastic Compliance Matrix: (Units=1/GPa)
#
#
# Indices 1 2 3 4 5 6 
#
# 1 0.012893 -0.004259 -0.004540 0.000000 0.000000 0.000000
# 2 -0.004259 0.021380 -0.002681 0.000000 0.000000 0.000000
# 3 -0.004540 -0.002681 0.014000 0.000000 0.000000 0.000000
# 4 0.000000 0.000000 0.000000 -0.119820 0.000000 0.000000
# 5 0.000000 0.000000 0.000000 0.000000 0.035294 0.000000
# 6 0.000000 0.000000 0.000000 0.000000 0.000000 -1.068063
#
#
# Mechanical properties :
#
#
# Convention : Reuss Voigt Hill
#
# Bulk Modulus (GPa) = 39.50586 44.09559 41.80072
# Shear Modulus (GPa) = -4.66019 14.48706 4.91344
#
# Velocity S-wave (km/s) = -1.54684 2.72731 1.58831
# Velocity P-wave (km/s) = 4.13443 5.70595 4.98254
#
# Compressibility (1/GPa) = 0.02531270
#
# Stress axis : x y z
#
# Youngs Moduli (GPa) = 77.56226 46.77204 71.42996
#
# Poissons Ratio (x) = 0.19920 0.32431
# Poissons Ratio (y) = 0.33034 0.19149
# Poissons Ratio (z) = 0.35216 0.12539
#
# Static dielectric constant tensor:
#      x y z
#    x 1.754300 0.000000 0.000000 
#    y 0.000000 1.670030 0.000000 
#    z 0.000000 0.000000 1.721260 
# 
# From -- ./inp_files/14350.got.cif
#   From: 2010.05.17/outbox.cif.g08.bks.cpg/sg62_8_cif.got.tgz:14350.got - 2010.06.03 15:25:27.
