data_PCOD9461674
_publ_section_title
;
Structure prediction by ZEFSAII (Michael W. Deem and Ramdas Pophale) SiO2 
 PCOD9461674
Probable space group: P N M A
;
_chemical_formula_sum "Si O2"
_cell_formula_units_Z 56
_cell_length_a 14.012750
_cell_length_b 8.701532
_cell_length_c 30.222568
_cell_angle_alpha 90.000000
_cell_angle_beta 90.000000
_cell_angle_gamma 90.000000
_cell_volume 3685.110025
_symmetry_space_group_name_H-M "P N M A"
_symmetry_group_IT_number 62
_symmetry_cell_setting 'orthorhombic'
loop_
_space_group_symop_operation_xyz
x,y,z
1/2-x,-y,1/2+z
1/2+x,1/2-y,1/2-z
-x,1/2+y,-z
-x,-y,-z
1/2+x,y,1/2-z
1/2-x,1/2+y,1/2+z
x,1/2-y,z
loop_
_atom_site_type_symbol
_atom_site_label
_atom_site_fract_x
_atom_site_fract_y
_atom_site_fract_z
Si Si1 0.209624 0.565924 0.819005
Si Si2 0.111413 0.563452 0.094952
Si Si3 0.611282 0.434315 0.594476
Si Si4 0.399795 0.066166 0.229324
Si Si5 0.219483 0.564558 0.182278
Si Si6 0.109589 0.933717 0.272088
Si Si7 0.392528 0.434623 0.497765
O O1 0.210819 0.750000 0.821733
O O2 0.170219 0.495995 0.864169
O O3 0.140599 0.520904 0.777928
O O4 0.314005 0.505254 0.805787
O O5 0.110397 0.750000 0.096609
O O6 0.174427 0.510143 0.136107
O O7 0.148855 0.521391 0.045947
O O8 0.000267 0.515625 0.099332
O O9 0.612674 0.250000 0.593617
O O10 0.648789 0.497265 0.547417
O O11 0.404715 0.250000 0.227714
O O12 0.321140 0.006637 0.194699
O O13 0.503494 0.995919 0.221910
O O14 0.228549 0.750000 0.181153
O O15 0.148176 0.526246 0.222824
O O16 0.110747 0.750000 0.276135
O O17 0.500000 0.500000 0.500000
O O18 0.394817 0.250000 0.494874
#
# Coordination Sequence:
#
# PCOD9461674 Si02
#       7
#     8   8   8   8   8   8   8
#     4  10  20  32  46  66  92 121 152 187 227 268
#     4   8  15  27  44  65  90 119 150 185 220 260
#     4  10  18  29  45  66  92 121 154 189 225 269
#     4  10  20  32  45  65  93 120 147 184 227 266
#     4   9  17  30  47  66  87 116 154 186 216 258
#     4  10  19  31  48  67  89 120 154 187 221 261
#     4   9  16  27  42  63  91 121 151 184 226 270
#
# _framework density 15.196289999999999
#
# number of rings (size 3 to 8) (size 9 to 14) (size 15 to 20)
#    0.000    2.571    0.000    3.857    0.000    3.429 
#    0.000    4.286    0.000    0.000    0.000    1.000 
#    0.000    0.000    0.000    0.000    0.000    0.000 
#
# Total GULP energy -312103.100797 kJ/mol
# GULP energy per Si atom -5573.269657 kJ/mol
# Density = 1.516170 g / cm^3
# Si number density = 15.196290 Si / 1000 Ang^3
#
#
#
# Elastic Constant Matrix: (Units=GPa)
#
#
# Indices 1 2 3 4 5 6 
#
# 1 102.9557 33.0459 69.8129 0.0000 0.0000 0.0000
# 2 33.0459 41.3454 42.4979 0.0000 0.0000 0.0000
# 3 69.8129 42.4979 156.5205 0.0000 0.0000 0.0000
# 4 0.0000 0.0000 0.0000 22.6132 0.0000 0.0000
# 5 0.0000 0.0000 0.0000 0.0000 24.3218 0.0000
# 6 0.0000 0.0000 0.0000 0.0000 0.0000 19.9453
#
#
#
# Elastic Compliance Matrix: (Units=1/GPa)
#
#
# Indices 1 2 3 4 5 6 
#
# 1 0.015348 -0.007255 -0.004876 0.000000 0.000000 0.000000
# 2 -0.007255 0.036980 -0.006804 0.000000 0.000000 0.000000
# 3 -0.004876 -0.006804 0.010411 0.000000 0.000000 0.000000
# 4 0.000000 0.000000 0.000000 0.044222 0.000000 0.000000
# 5 0.000000 0.000000 0.000000 0.000000 0.041115 0.000000
# 6 0.000000 0.000000 0.000000 0.000000 0.000000 0.050137
#
#
# Mechanical properties :
#
#
# Convention : Reuss Voigt Hill
#
# Bulk Modulus (GPa) = 40.21303 65.72611 52.96957
# Shear Modulus (GPa) = 20.46052 23.74038 22.10045
#
# Velocity S-wave (km/s) = 3.67333 3.95682 3.81771
# Velocity P-wave (km/s) = 6.67166 8.01377 7.37331
#
# Compressibility (1/GPa) = 0.02486756
#
# Stress axis : x y z
#
# Youngs Moduli (GPa) = 65.15592 27.04199 96.05106
#
# Poissons Ratio (x) = 0.19620 0.46831
# Poissons Ratio (y) = 0.47273 0.65357
# Poissons Ratio (z) = 0.31768 0.18400
#
# Static dielectric constant tensor:
#      x y z
#    x 1.479130 0.000000 0.000000 
#    y 0.000000 1.506480 0.000000 
#    z 0.000000 0.000000 1.526740 
# 
# From -- ./inp_files/32646.got.cif
#   From: 2010.05.17/outbox.cif.g08.bks.cpg/sg62_17_cif.got.tgz:32646.got - 2010.06.03 15:25:27.
