data_PCOD9461997
_publ_section_title
;
Structure prediction by ZEFSAII (Michael W. Deem and Ramdas Pophale) SiO2 
 PCOD9461997
Probable space group: P N M A
;
_chemical_formula_sum "Si O2"
_cell_formula_units_Z 64
_cell_length_a 17.381699
_cell_length_b 7.593685
_cell_length_c 20.733570
_cell_angle_alpha 90.000000
_cell_angle_beta 90.000000
_cell_angle_gamma 90.000000
_cell_volume 2736.647685
_symmetry_space_group_name_H-M "P N M A"
_symmetry_group_IT_number 62
_symmetry_cell_setting 'orthorhombic'
loop_
_space_group_symop_operation_xyz
x,y,z
1/2-x,-y,1/2+z
1/2+x,1/2-y,1/2-z
-x,1/2+y,-z
-x,-y,-z
1/2+x,y,1/2-z
1/2-x,1/2+y,1/2+z
x,1/2-y,z
loop_
_atom_site_type_symbol
_atom_site_label
_atom_site_fract_x
_atom_site_fract_y
_atom_site_fract_z
Si Si1 0.848079 0.960061 0.723808
Si Si2 0.614918 0.960240 0.808105
Si Si3 0.570686 0.460583 0.661065
Si Si4 0.644457 0.452156 0.014017
Si Si5 0.902634 0.452265 0.863796
Si Si6 0.767944 0.543088 0.118745
Si Si7 0.473096 0.963116 0.887497
Si Si8 0.742626 0.039927 0.898857
O O1 0.844210 0.750000 0.734046
O O2 0.914519 0.997126 0.671333
O O3 0.872690 0.047157 0.790115
O O4 0.770322 0.020887 0.689169
O O5 0.612375 0.750000 0.809277
O O6 0.554724 0.029395 0.862199
O O7 0.586691 0.012152 0.737118
O O8 0.699584 0.014597 0.830891
O O9 0.568671 0.250000 0.652186
O O10 0.487938 0.532619 0.638761
O O11 0.645384 0.526845 0.622718
O O12 0.625215 0.250000 0.997891
O O13 0.710852 0.451598 0.068759
O O14 0.569334 0.532780 0.048421
O O15 0.685433 0.536862 0.952671
O O16 0.910929 0.250000 0.885736
O O17 0.829341 0.532642 0.900755
O O18 0.768502 0.750000 0.102813
O O19 0.477795 0.750000 0.894277
O O20 0.748804 0.250000 0.909794
#
# Coordination Sequence:
#
# PCOD9461997 Si02
#       8
#     8   8   8   8   8   8   8   8
#     4  10  18  32  53  78 108 139 173 215 269 322
#     4  11  21  34  54  82 113 140 175 222 271 323
#     4  10  21  36  54  79 111 142 174 219 272 325
#     4   9  19  38  58  75 104 145 187 224 264 316
#     4  10  20  35  54  76 106 143 181 219 267 323
#     4  10  20  34  54  79 105 136 178 224 267 315
#     4   8  16  31  51  76 105 136 170 213 259 309
#     4  10  22  38  55  77 107 145 184 224 269 320
#
# _framework density 23.386278999999998
#
# number of rings (size 3 to 8) (size 9 to 14) (size 15 to 20)
#    0.000    2.250    1.250    2.625    0.000    5.500 
#    0.000    1.250    0.000    0.000    0.000    0.000 
#    0.000    0.000    0.000    0.000    0.000    0.000 
#
# Total GULP energy -357420.804185 kJ/mol
# GULP energy per Si atom -5584.700065 kJ/mol
# Density = 2.333305 g / cm^3
# Si number density = 23.386279 Si / 1000 Ang^3
#
#
#
# Elastic Constant Matrix: (Units=GPa)
#
#
# Indices 1 2 3 4 5 6 
#
# 1 112.3860 0.9340 -1.9517 0.0000 0.0000 0.0000
# 2 0.9340 60.5159 -8.0771 0.0000 0.0000 0.0000
# 3 -1.9517 -8.0771 41.2855 0.0000 0.0000 0.0000
# 4 0.0000 0.0000 0.0000 9.3605 0.0000 0.0000
# 5 0.0000 0.0000 0.0000 0.0000 33.8385 0.0000
# 6 0.0000 0.0000 0.0000 0.0000 0.0000 -0.5471
#
#
#
# Elastic Compliance Matrix: (Units=1/GPa)
#
#
# Indices 1 2 3 4 5 6 
#
# 1 0.008906 -0.000083 0.000405 0.000000 0.000000 0.000000
# 2 -0.000083 0.016968 0.003316 0.000000 0.000000 0.000000
# 3 0.000405 0.003316 0.024889 0.000000 0.000000 0.000000
# 4 0.000000 0.000000 0.000000 0.106832 0.000000 0.000000
# 5 0.000000 0.000000 0.000000 0.000000 0.029552 0.000000
# 6 0.000000 0.000000 0.000000 0.000000 0.000000 -1.827842
#
#
# Mechanical properties :
#
#
# Convention : Reuss Voigt Hill
#
# Bulk Modulus (GPa) = 17.23022 21.77752 19.50387
# Shear Modulus (GPa) = -3.07008 23.41586 10.17289
#
# Velocity S-wave (km/s) = -1.14700 3.16771 2.08791
# Velocity P-wave (km/s) = 2.37266 4.76566 3.76437
#
# Compressibility (1/GPa) = 0.05803755
#
# Stress axis : x y z
#
# Youngs Moduli (GPa) = 112.28857 58.93295 40.17768
#
# Poissons Ratio (x) = 0.00492 -0.01626
# Poissons Ratio (y) = 0.00937 -0.13322
# Poissons Ratio (z) = -0.04544 -0.19541
#
# Static dielectric constant tensor:
#      x y z
#    x 1.932040 0.000000 0.000000 
#    y 0.000000 1.864440 0.000000 
#    z 0.000000 0.000000 1.888710 
# 
# From -- ./inp_files/29720.got.cif
#   From: 2010.05.17/outbox.cif.g08.bks.cpg/sg62_15_cif.got.tgz:29720.got - 2010.06.03 15:25:27.
