data_PCOD9461593
_publ_section_title
;
Structure prediction by ZEFSAII (Michael W. Deem and Ramdas Pophale) SiO2 
 PCOD9461593
Probable space group: P N M A
;
_chemical_formula_sum "Si O2"
_cell_formula_units_Z 64
_cell_length_a 19.046262
_cell_length_b 8.577034
_cell_length_c 27.145523
_cell_angle_alpha 90.000000
_cell_angle_beta 90.000000
_cell_angle_gamma 90.000000
_cell_volume 4434.504493
_symmetry_space_group_name_H-M "P N M A"
_symmetry_group_IT_number 62
_symmetry_cell_setting 'orthorhombic'
loop_
_space_group_symop_operation_xyz
x,y,z
1/2-x,-y,1/2+z
1/2+x,1/2-y,1/2-z
-x,1/2+y,-z
-x,-y,-z
1/2+x,y,1/2-z
1/2-x,1/2+y,1/2+z
x,1/2-y,z
loop_
_atom_site_type_symbol
_atom_site_label
_atom_site_fract_x
_atom_site_fract_y
_atom_site_fract_z
Si Si1 0.918271 0.064170 0.556075
Si Si2 0.074049 0.562715 0.741262
Si Si3 0.071653 0.935627 0.557128
Si Si4 0.280313 0.435968 0.711476
Si Si5 0.198260 0.566726 0.803571
Si Si6 0.167782 0.437340 0.354925
Si Si7 0.344060 0.564881 0.145918
Si Si8 0.918980 0.435255 0.738385
O O1 0.911955 0.250000 0.559708
O O2 0.909446 0.017300 0.498822
O O3 0.863688 0.986401 0.593013
O O4 0.997434 0.014782 0.570319
O O5 0.080358 0.750000 0.737663
O O6 0.121589 0.506226 0.787764
O O7 0.107692 0.490209 0.691779
O O8 0.993376 0.516139 0.745446
O O9 0.061126 0.750000 0.557520
O O10 0.129438 0.982525 0.596844
O O11 0.270123 0.250000 0.722388
O O12 0.242675 0.536435 0.753747
O O13 0.236430 0.467977 0.662150
O O14 0.362758 0.466459 0.717843
O O15 0.189899 0.750000 0.813062
O O16 0.252047 0.505690 0.844980
O O17 0.166413 0.250000 0.350196
O O18 0.118537 0.507426 0.311849
O O19 0.352081 0.750000 0.140135
O O20 0.929572 0.250000 0.734886
#
# Coordination Sequence:
#
# PCOD9461593 Si02
#       8
#     8   8   8   8   8   8   8   8
#     4  10  20  32  44  59  80 106 136 169 202 235
#     4  10  18  28  41  59  83 109 137 166 197 234
#     4  10  20  32  44  59  80 106 136 169 202 235
#     4   8  16  28  41  57  78 104 133 165 197 233
#     4   8  16  28  41  57  78 104 133 165 197 233
#     4  10  18  29  44  60  79 106 138 168 201 237
#     4  10  18  29  44  60  79 106 138 168 201 237
#     4  10  18  28  41  59  83 109 137 166 197 234
#
# _framework density 14.432278
#
# number of rings (size 3 to 8) (size 9 to 14) (size 15 to 20)
#    0.000    2.500    0.000    3.000    0.000    3.500 
#    0.000    0.000    0.000    0.000    0.000    0.000 
#    0.000    1.000    0.000    2.250    0.000    4.000 
#
# Total GULP energy -356369.095617 kJ/mol
# GULP energy per Si atom -5568.267119 kJ/mol
# Density = 1.439943 g / cm^3
# Si number density = 14.432278 Si / 1000 Ang^3
#
#
#
# Elastic Constant Matrix: (Units=GPa)
#
#
# Indices 1 2 3 4 5 6 
#
# 1 78.1256 4.4674 29.5241 0.0000 0.0000 0.0000
# 2 4.4674 14.8126 4.7046 0.0000 0.0000 0.0000
# 3 29.5241 4.7046 54.7801 0.0000 0.0000 0.0000
# 4 0.0000 0.0000 0.0000 17.7680 0.0000 0.0000
# 5 0.0000 0.0000 0.0000 0.0000 25.8634 0.0000
# 6 0.0000 0.0000 0.0000 0.0000 0.0000 12.6291
#
#
#
# Elastic Compliance Matrix: (Units=1/GPa)
#
#
# Indices 1 2 3 4 5 6 
#
# 1 0.016141 -0.002164 -0.008513 0.000000 0.000000 0.000000
# 2 -0.002164 0.069693 -0.004819 0.000000 0.000000 0.000000
# 3 -0.008513 -0.004819 0.023257 0.000000 0.000000 0.000000
# 4 0.000000 0.000000 0.000000 0.056281 0.000000 0.000000
# 5 0.000000 0.000000 0.000000 0.000000 0.038665 0.000000
# 6 0.000000 0.000000 0.000000 0.000000 0.000000 0.079182
#
#
# Mechanical properties :
#
#
# Convention : Reuss Voigt Hill
#
# Bulk Modulus (GPa) = 12.80440 25.01228 18.90834
# Shear Modulus (GPa) = 14.69531 18.52026 16.60779
#
# Velocity S-wave (km/s) = 3.19443 3.58614 3.39593
# Velocity P-wave (km/s) = 4.74311 5.87500 5.33914
#
# Compressibility (1/GPa) = 0.07809818
#
# Stress axis : x y z
#
# Youngs Moduli (GPa) = 61.95438 14.34861 42.99777
#
# Poissons Ratio (x) = 0.03105 0.36606
# Poissons Ratio (y) = 0.13407 0.20721
# Poissons Ratio (z) = 0.52744 0.06915
#
# Static dielectric constant tensor:
#      x y z
#    x 1.496880 0.000000 0.000000 
#    y 0.000000 1.495150 0.000000 
#    z 0.000000 0.000000 1.468300 
# 
# From -- ./inp_files/22660.got.cif
#   From: 2010.05.17/outbox.cif.g08.bks.cpg/sg62_12_cif.got.tgz:22660.got - 2010.06.03 15:25:27.
