data_PCOD9461334
_publ_section_title
;
Structure prediction by ZEFSAII (Michael W. Deem and Ramdas Pophale) SiO2 
 PCOD9461334
Probable space group: P N M A
;
_chemical_formula_sum "Si O2"
_cell_formula_units_Z 56
_cell_length_a 9.527739
_cell_length_b 20.782078
_cell_length_c 14.927787
_cell_angle_alpha 90.000000
_cell_angle_beta 90.000000
_cell_angle_gamma 90.000000
_cell_volume 2955.794603
_symmetry_space_group_name_H-M "P N M A"
_symmetry_group_IT_number 62
_symmetry_cell_setting 'orthorhombic'
loop_
_space_group_symop_operation_xyz
x,y,z
1/2-x,-y,1/2+z
1/2+x,1/2-y,1/2-z
-x,1/2+y,-z
-x,-y,-z
1/2+x,y,1/2-z
1/2-x,1/2+y,1/2+z
x,1/2-y,z
loop_
_atom_site_type_symbol
_atom_site_label
_atom_site_fract_x
_atom_site_fract_y
_atom_site_fract_z
Si Si1 0.692385 0.547973 0.073425
Si Si2 0.474845 0.946260 0.636564
Si Si3 0.597589 0.083811 0.887230
Si Si4 0.275906 0.477248 0.245276
Si Si5 0.367079 0.061469 0.533310
Si Si6 0.066545 0.675482 0.254557
Si Si7 0.830332 0.825294 0.133193
O O1 0.529444 0.559033 0.050409
O O2 0.700253 0.517867 0.174763
O O3 0.768530 0.617580 0.073011
O O4 0.774532 0.497129 0.012137
O O5 0.601376 0.939359 0.705434
O O6 0.331110 0.933570 0.688651
O O7 0.528668 0.914869 0.544279
O O8 0.452904 0.022242 0.609095
O O9 0.741248 0.106643 0.933907
O O10 0.516062 0.135273 0.828080
O O11 0.651773 0.027381 0.822026
O O12 0.034176 0.750000 0.267771
O O13 0.991066 0.660090 0.160581
O O14 0.230583 0.668453 0.277461
O O15 0.817982 0.750000 0.103998
#
# Coordination Sequence:
#
# PCOD9461334 Si02
#       7
#     8   8   8   8   8   8   8
#     4  10  17  27  42  61  83 117 148 181 211 254
#     4   9  18  30  40  61  82 110 148 179 212 257
#     4  10  17  27  42  61  83 117 148 181 211 254
#     4  10  16  26  43  60  78 112 153 176 202 248
#     4   9  19  28  40  59  88 113 146 179 222 253
#     4   9  17  27  40  60  83 111 150 183 204 236
#     4   9  17  27  40  60  83 111 150 183 204 236
#
# _framework density 18.945837000000001
#
# number of rings (size 3 to 8) (size 9 to 14) (size 15 to 20)
#    0.000    2.571    2.857    0.429    0.000    0.000 
#    2.571    0.000    0.000    0.000    0.000    0.000 
#    0.000    0.000    0.000   32.143    0.000    2.286 
#
# Total GULP energy -311784.322508 kJ/mol
# GULP energy per Si atom -5567.577188 kJ/mol
# Density = 1.890272 g / cm^3
# Si number density = 18.945837 Si / 1000 Ang^3
#
#
#
# Elastic Constant Matrix: (Units=GPa)
#
#
# Indices 1 2 3 4 5 6 
#
# 1 116.1774 -3.3730 17.3158 0.0000 0.0000 0.0000
# 2 -3.3730 25.7440 -4.3566 0.0000 0.0000 0.0000
# 3 17.3158 -4.3566 42.5800 0.0000 0.0000 0.0000
# 4 0.0000 0.0000 0.0000 12.9383 0.0000 0.0000
# 5 0.0000 0.0000 0.0000 0.0000 43.0695 0.0000
# 6 0.0000 0.0000 0.0000 0.0000 0.0000 19.5846
#
#
#
# Elastic Compliance Matrix: (Units=1/GPa)
#
#
# Indices 1 2 3 4 5 6 
#
# 1 0.009171 0.000581 -0.003670 0.000000 0.000000 0.000000
# 2 0.000581 0.039565 0.003812 0.000000 0.000000 0.000000
# 3 -0.003670 0.003812 0.025368 0.000000 0.000000 0.000000
# 4 0.000000 0.000000 0.000000 0.077290 0.000000 0.000000
# 5 0.000000 0.000000 0.000000 0.000000 0.023218 0.000000
# 6 0.000000 0.000000 0.000000 0.000000 0.000000 0.051061
#
#
# Mechanical properties :
#
#
# Convention : Reuss Voigt Hill
#
# Bulk Modulus (GPa) = 13.23645 22.63042 17.93344
# Shear Modulus (GPa) = 20.04719 26.77949 23.41334
#
# Velocity S-wave (km/s) = 3.25642 3.76370 3.51921
# Velocity P-wave (km/s) = 4.59790 5.55500 5.09895
#
# Compressibility (1/GPa) = 0.07554893
#
# Stress axis : x y z
#
# Youngs Moduli (GPa) = 109.03437 25.27479 39.42001
#
# Poissons Ratio (x) = -0.01467 0.14468
# Poissons Ratio (y) = -0.06330 -0.15027
# Poissons Ratio (z) = 0.40019 -0.09635
#
# Static dielectric constant tensor:
#      x y z
#    x 1.772620 0.000000 0.000000 
#    y 0.000000 1.677250 0.000000 
#    z 0.000000 0.000000 1.762340 
# 
# From -- ./inp_files/17417.got.cif
#   From: 2010.05.17/outbox.cif.g08.bks.cpg/sg62_9_cif.got.tgz:17417.got - 2010.06.03 15:25:27.
