data_PCOD9461668
_publ_section_title
;
Structure prediction by ZEFSAII (Michael W. Deem and Ramdas Pophale) SiO2 
 PCOD9461668
Probable space group: P N M A
;
_chemical_formula_sum "Si O2"
_cell_formula_units_Z 56
_cell_length_a 30.016945
_cell_length_b 8.620519
_cell_length_c 14.076735
_cell_angle_alpha 90.000000
_cell_angle_beta 90.000000
_cell_angle_gamma 90.000000
_cell_volume 3642.519101
_symmetry_space_group_name_H-M "P N M A"
_symmetry_group_IT_number 62
_symmetry_cell_setting 'orthorhombic'
loop_
_space_group_symop_operation_xyz
x,y,z
1/2-x,-y,1/2+z
1/2+x,1/2-y,1/2-z
-x,1/2+y,-z
-x,-y,-z
1/2+x,y,1/2-z
1/2-x,1/2+y,1/2+z
x,1/2-y,z
loop_
_atom_site_type_symbol
_atom_site_label
_atom_site_fract_x
_atom_site_fract_y
_atom_site_fract_z
Si Si1 0.906526 0.434714 0.395497
Si Si2 0.681432 0.063490 0.217729
Si Si3 0.772114 0.063221 0.897825
Si Si4 0.999317 0.935248 0.392172
Si Si5 0.772897 0.437745 0.114660
Si Si6 0.907585 0.563175 0.610156
Si Si7 0.180283 0.064169 0.704453
O O1 0.909726 0.250000 0.402105
O O2 0.952700 0.501308 0.352757
O O3 0.901628 0.503205 0.502176
O O4 0.864137 0.486263 0.334794
O O5 0.680897 0.250000 0.222078
O O6 0.723159 0.019186 0.150405
O O7 0.634809 0.013326 0.172333
O O8 0.692779 0.999495 0.321588
O O9 0.773412 0.250000 0.896042
O O10 0.722904 0.017373 0.860381
O O11 0.779395 0.012705 0.005996
O O12 0.999130 0.750000 0.393447
O O13 0.000000 0.000000 0.500000
O O14 0.045653 0.997889 0.350590
O O15 0.776285 0.250000 0.119470
O O16 0.806838 0.511492 0.189575
O O17 0.909620 0.750000 0.607193
O O18 0.175855 0.250000 0.699604
#
# Coordination Sequence:
#
# PCOD9461668 Si02
#       7
#     8   8   8   8   8   8   8
#     4  11  20  30  45  66  91 121 152 185 223 269
#     4   9  18  30  46  66  91 120 152 185 222 264
#     4   9  18  31  47  65  91 121 152 188 225 262
#     4  10  18  29  44  64  90 119 149 184 222 267
#     4   9  17  31  46  64  90 121 152 186 223 261
#     4  10  18  30  46  66  93 123 151 185 224 266
#     4  10  19  31  46  67  91 119 152 187 224 265
#
# _framework density 15.373975
#
# number of rings (size 3 to 8) (size 9 to 14) (size 15 to 20)
#    0.000    2.286    0.000    6.000    0.000    4.571 
#    0.000    2.857    0.000    0.000    0.000    1.000 
#    0.000    0.000    0.000    0.000    0.000    0.000 
#
# Total GULP energy -312270.055428 kJ/mol
# GULP energy per Si atom -5576.250990 kJ/mol
# Density = 1.533898 g / cm^3
# Si number density = 15.373975 Si / 1000 Ang^3
#
#
#
# Elastic Constant Matrix: (Units=GPa)
#
#
# Indices 1 2 3 4 5 6 
#
# 1 146.4876 44.9993 62.1948 0.0000 0.0000 0.0000
# 2 44.9993 68.8441 27.1272 0.0000 0.0000 0.0000
# 3 62.1948 27.1272 100.0203 0.0000 0.0000 0.0000
# 4 0.0000 0.0000 0.0000 22.9942 0.0000 0.0000
# 5 0.0000 0.0000 0.0000 0.0000 23.8818 0.0000
# 6 0.0000 0.0000 0.0000 0.0000 0.0000 25.1655
#
#
#
# Elastic Compliance Matrix: (Units=1/GPa)
#
#
# Indices 1 2 3 4 5 6 
#
# 1 0.010533 -0.004819 -0.005242 0.000000 0.000000 0.000000
# 2 -0.004819 0.018468 -0.002012 0.000000 0.000000 0.000000
# 3 -0.005242 -0.002012 0.013804 0.000000 0.000000 0.000000
# 4 0.000000 0.000000 0.000000 0.043489 0.000000 0.000000
# 5 0.000000 0.000000 0.000000 0.000000 0.041873 0.000000
# 6 0.000000 0.000000 0.000000 0.000000 0.000000 0.039737
#
#
# Mechanical properties :
#
#
# Convention : Reuss Voigt Hill
#
# Bulk Modulus (GPa) = 53.59890 64.88828 59.24359
# Shear Modulus (GPa) = 25.21813 26.47703 25.84758
#
# Velocity S-wave (km/s) = 4.05447 4.15444 4.10476
# Velocity P-wave (km/s) = 7.54038 8.08150 7.81563
#
# Compressibility (1/GPa) = 0.01865710
#
# Stress axis : x y z
#
# Youngs Moduli (GPa) = 94.94322 54.14669 72.44452
#
# Poissons Ratio (x) = 0.26092 0.37979
# Poissons Ratio (y) = 0.45751 0.14579
# Poissons Ratio (z) = 0.49774 0.10897
#
# Static dielectric constant tensor:
#      x y z
#    x 1.529750 0.000000 0.000000 
#    y 0.000000 1.518640 0.000000 
#    z 0.000000 0.000000 1.494680 
# 
# From -- ./inp_files/21183.got.cif
#   From: 2010.05.17/outbox.cif.g08.bks.cpg/sg62_11_cif.got.tgz:21183.got - 2010.06.03 15:25:27.
