data_PCOD9461930
_publ_section_title
;
Structure prediction by ZEFSAII (Michael W. Deem and Ramdas Pophale) SiO2 
 PCOD9461930
Probable space group: P N M A
;
_chemical_formula_sum "Si O2"
_cell_formula_units_Z 48
_cell_length_a 13.552725
_cell_length_b 18.097431
_cell_length_c 8.087673
_cell_angle_alpha 90.000000
_cell_angle_beta 90.000000
_cell_angle_gamma 90.000000
_cell_volume 1983.659558
_symmetry_space_group_name_H-M "P N M A"
_symmetry_group_IT_number 62
_symmetry_cell_setting 'orthorhombic'
loop_
_space_group_symop_operation_xyz
x,y,z
1/2-x,-y,1/2+z
1/2+x,1/2-y,1/2-z
-x,1/2+y,-z
-x,-y,-z
1/2+x,y,1/2-z
1/2-x,1/2+y,1/2+z
x,1/2-y,z
loop_
_atom_site_type_symbol
_atom_site_label
_atom_site_fract_x
_atom_site_fract_y
_atom_site_fract_z
Si Si1 0.253659 0.426444 0.667362
Si Si2 0.729027 0.337853 0.524474
Si Si3 0.262082 0.589491 0.798546
Si Si4 0.517569 0.074617 0.892160
Si Si5 0.510062 0.412880 0.523329
Si Si6 0.477466 0.836446 0.805610
O O1 0.272816 0.362897 0.800585
O O2 0.283791 0.505155 0.744625
O O3 0.288218 0.414088 0.478878
O O4 0.134651 0.430509 0.643981
O O5 0.719379 0.250000 0.510894
O O6 0.783163 0.371476 0.363342
O O7 0.621078 0.377950 0.526642
O O8 0.363851 0.635018 0.816620
O O9 0.472053 0.092182 0.712119
O O10 0.486801 0.139753 0.014519
O O11 0.500000 0.000000 0.000000
O O12 0.500000 0.500000 0.500000
O O13 0.474207 0.375961 0.352272
O O14 0.481556 0.750000 0.780019
#
# Coordination Sequence:
#
# PCOD9461930 Si02
#       6
#     8   8   8   8   8   8
#     4  10  20  32  56  81 110 145 188 223 283 335
#     4  10  21  35  54  85 113 137 183 241 280 318
#     4  10  18  33  52  81 109 142 176 229 278 336
#     4  10  20  34  53  82 112 148 187 225 271 335
#     4  10  18  31  53  79 109 145 181 222 273 327
#     4  10  21  35  56  84 109 137 186 239 280 322
#
# _framework density 24.197702
#
# number of rings (size 3 to 8) (size 9 to 14) (size 15 to 20)
#    0.000    2.000    3.333    2.000    0.000    7.333 
#    0.000    0.000    0.000    2.000    0.000   11.667 
#    0.000    0.000    0.000    0.000    0.000    0.000 
#
# Total GULP energy -268033.197257 kJ/mol
# GULP energy per Si atom -5584.024943 kJ/mol
# Density = 2.414263 g / cm^3
# Si number density = 24.197702 Si / 1000 Ang^3
#
#
#
# Elastic Constant Matrix: (Units=GPa)
#
#
# Indices 1 2 3 4 5 6 
#
# 1 44.9212 6.4965 19.2888 0.0000 0.0000 0.0000
# 2 6.4965 195.9625 97.7982 0.0000 0.0000 0.0000
# 3 19.2888 97.7982 298.6631 0.0000 0.0000 0.0000
# 4 0.0000 0.0000 0.0000 43.1769 0.0000 0.0000
# 5 0.0000 0.0000 0.0000 0.0000 18.9491 0.0000
# 6 0.0000 0.0000 0.0000 0.0000 0.0000 -481.6985
#
#
#
# Elastic Compliance Matrix: (Units=1/GPa)
#
#
# Indices 1 2 3 4 5 6 
#
# 1 0.022896 -0.000025 -0.001470 0.000000 0.000000 0.000000
# 2 -0.000025 0.006100 -0.001996 0.000000 0.000000 0.000000
# 3 -0.001470 -0.001996 0.004097 0.000000 0.000000 0.000000
# 4 0.000000 0.000000 0.000000 0.023161 0.000000 0.000000
# 5 0.000000 0.000000 0.000000 0.000000 0.052773 0.000000
# 6 0.000000 0.000000 0.000000 0.000000 0.000000 -0.002076
#
#
# Mechanical properties :
#
#
# Convention : Reuss Voigt Hill
#
# Bulk Modulus (GPa) = 38.29956 87.41264 62.85610
# Shear Modulus (GPa) = 40.77084 -56.18360 -7.70638
#
# Velocity S-wave (km/s) = 4.10921 -4.82379 -1.78653
# Velocity P-wave (km/s) = 6.19486 2.27541 4.66657
#
# Compressibility (1/GPa) = 0.02610996
#
# Stress axis : x y z
#
# Youngs Moduli (GPa) = 43.67530 163.93739 244.09565
#
# Poissons Ratio (x) = 0.00413 0.35894
# Poissons Ratio (y) = 0.00110 0.48717
# Poissons Ratio (z) = 0.06422 0.32719
#
# Static dielectric constant tensor:
#      x y z
#    x 2.126510 0.000000 0.000000 
#    y 0.000000 1.833790 0.000000 
#    z 0.000000 0.000000 2.009490 
# 
# From -- ./inp_files/8601.got.cif
#   From: 2010.05.17/outbox.cif.g08.bks.cpg/sg62_5_cif.got.tgz:8601.got - 2010.06.03 15:25:27.
