data_PCOD9461427
_publ_section_title
;
Structure prediction by ZEFSAII (Michael W. Deem and Ramdas Pophale) SiO2 
 PCOD9461427
Probable space group: P N M A
;
_chemical_formula_sum "Si O2"
_cell_formula_units_Z 64
_cell_length_a 8.704816
_cell_length_b 13.683867
_cell_length_c 28.148094
_cell_angle_alpha 90.000000
_cell_angle_beta 90.000000
_cell_angle_gamma 90.000000
_cell_volume 3352.875541
_symmetry_space_group_name_H-M "P N M A"
_symmetry_group_IT_number 62
_symmetry_cell_setting 'orthorhombic'
loop_
_space_group_symop_operation_xyz
x,y,z
1/2-x,-y,1/2+z
1/2+x,1/2-y,1/2-z
-x,1/2+y,-z
-x,-y,-z
1/2+x,y,1/2-z
1/2-x,1/2+y,1/2+z
x,1/2-y,z
loop_
_atom_site_type_symbol
_atom_site_label
_atom_site_fract_x
_atom_site_fract_y
_atom_site_fract_z
Si Si1 0.700603 0.866253 0.769602
Si Si2 0.316980 0.135849 0.576058
Si Si3 0.962761 0.132514 0.411014
Si Si4 0.953524 0.139489 0.075613
Si Si5 0.176760 0.054963 0.480946
Si Si6 0.860127 0.861145 0.021633
Si Si7 0.828644 0.540454 0.861011
Si Si8 0.371094 0.635450 0.818092
O O1 0.741731 0.750000 0.773610
O O2 0.798578 0.928737 0.807237
O O3 0.735248 0.899498 0.715948
O O4 0.524504 0.873323 0.785790
O O5 0.283314 0.250000 0.582323
O O6 0.211756 0.090751 0.534164
O O7 0.492173 0.127706 0.556120
O O8 0.300497 0.070643 0.623013
O O9 0.969373 0.250000 0.416158
O O10 0.010907 0.079882 0.459613
O O11 0.078892 0.095869 0.369224
O O12 0.796362 0.104081 0.390927
O O13 0.964434 0.250000 0.092565
O O14 0.006593 0.070981 0.118118
O O15 0.790027 0.121188 0.051854
O O16 0.068767 0.125428 0.031014
O O17 0.238673 0.946353 0.471161
O O18 0.801716 0.750000 0.025516
O O19 0.342093 0.750000 0.827028
#
# Coordination Sequence:
#
# PCOD9461427 Si02
#       8
#     8   8   8   8   8   8   8   8
#     4   9  17  30  49  70  97 125 153 191 239 296
#     4  10  19  33  50  70  99 130 167 213 247 277
#     4  10  21  33  47  70 107 136 153 196 250 293
#     4  10  17  28  48  69  91 122 170 206 228 276
#     4  11  18  33  48  71  96 135 173 199 242 287
#     4   9  17  31  49  68  95 129 163 211 251 269
#     4  11  19  32  48  71  99 131 164 194 243 294
#     4   8  16  31  46  67  97 126 152 189 241 288
#
# _framework density 19.088093000000001
#
# number of rings (size 3 to 8) (size 9 to 14) (size 15 to 20)
#    0.000    2.250    2.500    4.500    0.000    1.500 
#    0.000    3.125    0.000    0.000    0.000    4.375 
#    0.000    0.000    0.000    0.000    0.000    0.000 
#
# Total GULP energy -357200.888439 kJ/mol
# GULP energy per Si atom -5581.263882 kJ/mol
# Density = 1.904465 g / cm^3
# Si number density = 19.088093 Si / 1000 Ang^3
#
#
#
# Elastic Constant Matrix: (Units=GPa)
#
#
# Indices 1 2 3 4 5 6 
#
# 1 17.4606 9.4422 13.5782 0.0000 0.0000 0.0000
# 2 9.4422 93.6617 16.6040 0.0000 0.0000 0.0000
# 3 13.5782 16.6040 55.9724 0.0000 0.0000 0.0000
# 4 0.0000 0.0000 0.0000 18.1048 0.0000 0.0000
# 5 0.0000 0.0000 0.0000 0.0000 33.1364 0.0000
# 6 0.0000 0.0000 0.0000 0.0000 0.0000 19.6640
#
#
#
# Elastic Compliance Matrix: (Units=1/GPa)
#
#
# Indices 1 2 3 4 5 6 
#
# 1 0.072273 -0.004410 -0.016224 0.000000 0.000000 0.000000
# 2 -0.004410 0.011538 -0.002353 0.000000 0.000000 0.000000
# 3 -0.016224 -0.002353 0.022500 0.000000 0.000000 0.000000
# 4 0.000000 0.000000 0.000000 0.055234 0.000000 0.000000
# 5 0.000000 0.000000 0.000000 0.000000 0.030178 0.000000
# 6 0.000000 0.000000 0.000000 0.000000 0.000000 0.050854
#
#
# Mechanical properties :
#
#
# Convention : Reuss Voigt Hill
#
# Bulk Modulus (GPa) = 16.57361 27.37150 21.97255
# Shear Modulus (GPa) = 16.19881 22.67907 19.43894
#
# Velocity S-wave (km/s) = 2.91629 3.45066 3.19467
# Velocity P-wave (km/s) = 4.47674 5.49971 5.01438
#
# Compressibility (1/GPa) = 0.06033689
#
# Stress axis : x y z
#
# Youngs Moduli (GPa) = 13.83641 86.66699 44.44489
#
# Poissons Ratio (x) = 0.38218 0.72109
# Poissons Ratio (y) = 0.06102 0.10458
# Poissons Ratio (z) = 0.22449 0.20393
#
# Static dielectric constant tensor:
#      x y z
#    x 1.752610 0.000000 0.000000 
#    y 0.000000 1.645520 0.000000 
#    z 0.000000 0.000000 1.668950 
# 
# From -- ./inp_files/32323.got.cif
#   From: 2010.05.17/outbox.cif.g08.bks.cpg/sg62_17_cif.got.tgz:32323.got - 2010.06.03 15:25:27.
