data_PCOD9461365
_publ_section_title
;
Structure prediction by ZEFSAII (Michael W. Deem and Ramdas Pophale) SiO2 
 PCOD9461365
Probable space group: P N M A
;
_chemical_formula_sum "Si O2"
_cell_formula_units_Z 40
_cell_length_a 14.862948
_cell_length_b 10.218669
_cell_length_c 10.688117
_cell_angle_alpha 90.000000
_cell_angle_beta 90.000000
_cell_angle_gamma 90.000000
_cell_volume 1623.306357
_symmetry_space_group_name_H-M "P N M A"
_symmetry_group_IT_number 62
_symmetry_cell_setting 'orthorhombic'
loop_
_space_group_symop_operation_xyz
x,y,z
1/2-x,-y,1/2+z
1/2+x,1/2-y,1/2-z
-x,1/2+y,-z
-x,-y,-z
1/2+x,y,1/2-z
1/2-x,1/2+y,1/2+z
x,1/2-y,z
loop_
_atom_site_type_symbol
_atom_site_label
_atom_site_fract_x
_atom_site_fract_y
_atom_site_fract_z
Si Si1 0.053171 0.972327 0.291357
Si Si2 0.817940 0.750000 0.172494
Si Si3 0.997996 0.250000 0.904798
Si Si4 0.610314 0.961537 0.949164
Si Si5 0.671270 0.750000 0.567327
Si Si6 0.248014 0.032811 0.254561
Si Si7 0.350011 0.750000 0.058138
O O1 0.027145 0.877182 0.178275
O O2 0.965340 0.049274 0.341777
O O3 0.083731 0.897076 0.420365
O O4 0.141411 0.050908 0.247997
O O5 0.765213 0.614741 0.193038
O O6 0.878753 0.750000 0.298654
O O7 0.894942 0.750000 0.067546
O O8 0.930383 0.250000 0.022031
O O9 0.704183 0.940893 0.878902
O O10 0.615083 0.114149 0.992434
O O11 0.701850 0.626674 0.648753
O O12 0.741449 0.750000 0.450930
#
# Coordination Sequence:
#
# PCOD9461365 Si02
#       7
#     8   4   4   8   4   8   4
#     4  11  21  38  70  95 124 176 225 281 322 389
#     4  10  22  43  70  90 131 168 238 271 308 420
#     4  12  22  41  68  95 127 187 224 267 348 406
#     4  10  21  39  66  98 128 169 234 274 323 397
#     4  12  26  39  66  95 144 180 204 275 362 391
#     4  11  23  43  65 101 135 175 218 277 334 403
#     4  10  16  41  58  88 128 167 210 265 332 385
#
# _framework density 24.641069000000002
#
# number of rings (size 3 to 8) (size 9 to 14) (size 15 to 20)
#    0.000    1.200    6.000    3.000    0.000    1.600 
#    0.000    2.000    0.000    1.200    0.000    0.000 
#    0.000    0.000    0.000    0.000    0.000    0.000 
#
# Total GULP energy -223303.352336 kJ/mol
# GULP energy per Si atom -5582.583808 kJ/mol
# Density = 2.458498 g / cm^3
# Si number density = 24.641069 Si / 1000 Ang^3
#
#
#
# Elastic Constant Matrix: (Units=GPa)
#
#
# Indices 1 2 3 4 5 6 
#
# 1 83.3210 -24.9995 1.4671 0.0000 0.0000 0.0000
# 2 -24.9995 79.3622 -0.5252 0.0000 0.0000 0.0000
# 3 1.4671 -0.5252 41.6361 0.0000 0.0000 0.0000
# 4 0.0000 0.0000 0.0000 21.4399 0.0000 0.0000
# 5 0.0000 0.0000 0.0000 0.0000 52.1169 0.0000
# 6 0.0000 0.0000 0.0000 0.0000 0.0000 945.0455
#
#
#
# Elastic Compliance Matrix: (Units=1/GPa)
#
#
# Indices 1 2 3 4 5 6 
#
# 1 0.013262 0.004175 -0.000415 0.000000 0.000000 0.000000
# 2 0.004175 0.013916 0.000028 0.000000 0.000000 0.000000
# 3 -0.000415 0.000028 0.024033 0.000000 0.000000 0.000000
# 4 0.000000 0.000000 0.000000 0.046642 0.000000 0.000000
# 5 0.000000 0.000000 0.000000 0.000000 0.019188 0.000000
# 6 0.000000 0.000000 0.000000 0.000000 0.000000 0.001058
#
#
# Mechanical properties :
#
#
# Convention : Reuss Voigt Hill
#
# Bulk Modulus (GPa) = 17.01054 17.35600 17.18327
# Shear Modulus (GPa) = 38.42713 218.94558 128.68636
#
# Velocity S-wave (km/s) = 3.95330 9.43646 7.23448
# Velocity P-wave (km/s) = 5.26844 11.21552 8.76197
#
# Compressibility (1/GPa) = 0.05878708
#
# Stress axis : x y z
#
# Youngs Moduli (GPa) = 75.40528 71.86119 41.61012
#
# Poissons Ratio (x) = -0.30000 0.01725
# Poissons Ratio (y) = -0.31480 -0.00118
# Poissons Ratio (z) = 0.03127 -0.00204
#
# Static dielectric constant tensor:
#      x y z
#    x 2.011310 0.000000 0.000000 
#    y 0.000000 2.146220 0.000000 
#    z 0.000000 0.000000 1.985940 
# 
# From -- ./inp_files/8514.got.cif
#   From: 2010.05.17/outbox.cif.g08.bks.cpg/sg62_5_cif.got.tgz:8514.got - 2010.06.03 15:25:27.
