data_PCOD9461403
_publ_section_title
;
Structure prediction by ZEFSAII (Michael W. Deem and Ramdas Pophale) SiO2 
 PCOD9461403
Probable space group: P N M A
;
_chemical_formula_sum "Si O2"
_cell_formula_units_Z 64
_cell_length_a 17.760878
_cell_length_b 15.390100
_cell_length_c 9.710411
_cell_angle_alpha 90.000000
_cell_angle_beta 90.000000
_cell_angle_gamma 90.000000
_cell_volume 2654.260139
_symmetry_space_group_name_H-M "P N M A"
_symmetry_group_IT_number 62
_symmetry_cell_setting 'orthorhombic'
loop_
_space_group_symop_operation_xyz
x,y,z
1/2-x,-y,1/2+z
1/2+x,1/2-y,1/2-z
-x,1/2+y,-z
-x,-y,-z
1/2+x,y,1/2-z
1/2-x,1/2+y,1/2+z
x,1/2-y,z
loop_
_atom_site_type_symbol
_atom_site_label
_atom_site_fract_x
_atom_site_fract_y
_atom_site_fract_z
Si Si1 0.838218 0.151138 0.196611
Si Si2 0.834976 0.156008 0.801805
Si Si3 0.494068 0.655582 0.240034
Si Si4 0.179944 0.096181 0.404835
Si Si5 0.356303 0.533180 0.602690
Si Si6 0.977741 0.654029 0.569206
Si Si7 0.789202 0.404439 0.504923
Si Si8 0.024489 0.968263 0.819024
O O1 0.863396 0.250000 0.183603
O O2 0.761488 0.137779 0.111808
O O3 0.819265 0.131395 0.358360
O O4 0.901897 0.085922 0.139925
O O5 0.805782 0.250000 0.851497
O O6 0.819698 0.061794 0.867520
O O7 0.812185 0.147354 0.641028
O O8 0.925413 0.158749 0.813737
O O9 0.456665 0.750000 0.258558
O O10 0.454745 0.567760 0.287207
O O11 0.515203 0.644864 0.079048
O O12 0.111061 0.149516 0.465550
O O13 0.156223 0.081955 0.246787
O O14 0.180053 0.002153 0.475397
O O15 0.301626 0.583216 0.498831
O O16 0.447124 0.534181 0.590819
O O17 0.994529 0.750000 0.626689
O O18 0.001575 0.579510 0.674617
#
# Coordination Sequence:
#
# PCOD9461403 Si02
#       8
#     8   8   8   8   8   8   8   8
#     4  11  21  33  52  79 106 137 175 215 256 307
#     4   9  16  29  49  76 103 127 166 217 255 299
#     4   9  17  28  48  75 100 127 163 208 263 317
#     4   9  19  33  49  71 103 134 167 213 255 295
#     4   8  18  32  49  72  99 134 169 206 257 304
#     4  10  17  27  44  70 101 131 159 199 259 316
#     4  10  18  33  53  72  98 138 177 209 253 310
#     4  10  18  31  48  71 102 134 167 209 256 306
#
# _framework density 24.112182000000001
#
# number of rings (size 3 to 8) (size 9 to 14) (size 15 to 20)
#    0.000    2.500    0.000    3.750    0.000    1.000 
#    0.000    3.750    0.000    9.000    0.000    0.000 
#    0.000    0.000    0.000    0.000    0.000    0.000 
#
# Total GULP energy -357508.935985 kJ/mol
# GULP energy per Si atom -5586.077125 kJ/mol
# Density = 2.405730 g / cm^3
# Si number density = 24.112182 Si / 1000 Ang^3
#
#
#
# Elastic Constant Matrix: (Units=GPa)
#
#
# Indices 1 2 3 4 5 6 
#
# 1 113.1115 38.6757 19.4517 0.0000 0.0000 0.0000
# 2 38.6757 158.1851 19.3000 0.0000 0.0000 0.0000
# 3 19.4517 19.3000 68.7189 0.0000 0.0000 0.0000
# 4 0.0000 0.0000 0.0000 8.6272 0.0000 0.0000
# 5 0.0000 0.0000 0.0000 0.0000 26.8340 0.0000
# 6 0.0000 0.0000 0.0000 0.0000 0.0000 10.2264
#
#
#
# Elastic Compliance Matrix: (Units=1/GPa)
#
#
# Indices 1 2 3 4 5 6 
#
# 1 0.009962 -0.002166 -0.002212 0.000000 0.000000 0.000000
# 2 -0.002166 0.007017 -0.001358 0.000000 0.000000 0.000000
# 3 -0.002212 -0.001358 0.015559 0.000000 0.000000 0.000000
# 4 0.000000 0.000000 0.000000 0.115912 0.000000 0.000000
# 5 0.000000 0.000000 0.000000 0.000000 0.037266 0.000000
# 6 0.000000 0.000000 0.000000 0.000000 0.000000 0.097786
#
#
# Mechanical properties :
#
#
# Convention : Reuss Voigt Hill
#
# Bulk Modulus (GPa) = 47.46535 54.98558 51.22547
# Shear Modulus (GPa) = 16.55660 26.64342 21.60001
#
# Velocity S-wave (km/s) = 2.62324 3.32773 2.99626
# Velocity P-wave (km/s) = 5.37616 6.13340 5.76722
#
# Compressibility (1/GPa) = 0.02106800
#
# Stress axis : x y z
#
# Youngs Moduli (GPa) = 100.38474 142.51351 64.27010
#
# Poissons Ratio (x) = 0.30865 0.14213
# Poissons Ratio (y) = 0.21741 0.08726
# Poissons Ratio (z) = 0.22200 0.19349
#
# Static dielectric constant tensor:
#      x y z
#    x 2.009720 0.000000 0.000000 
#    y 0.000000 1.920770 0.000000 
#    z 0.000000 0.000000 1.970150 
# 
# From -- ./inp_files/14361.got.cif
#   From: 2010.05.17/outbox.cif.g08.bks.cpg/sg62_8_cif.got.tgz:14361.got - 2010.06.03 15:25:27.
