data_PCOD9461343
_publ_section_title
;
Structure prediction by ZEFSAII (Michael W. Deem and Ramdas Pophale) SiO2 
 PCOD9461343
Probable space group: P N M A
;
_chemical_formula_sum "Si O2"
_cell_formula_units_Z 64
_cell_length_a 15.183485
_cell_length_b 7.914969
_cell_length_c 30.841192
_cell_angle_alpha 90.000000
_cell_angle_beta 90.000000
_cell_angle_gamma 90.000000
_cell_volume 3706.396166
_symmetry_space_group_name_H-M "P N M A"
_symmetry_group_IT_number 62
_symmetry_cell_setting 'orthorhombic'
loop_
_space_group_symop_operation_xyz
x,y,z
1/2-x,-y,1/2+z
1/2+x,1/2-y,1/2-z
-x,1/2+y,-z
-x,-y,-z
1/2+x,y,1/2-z
1/2-x,1/2+y,1/2+z
x,1/2-y,z
loop_
_atom_site_type_symbol
_atom_site_label
_atom_site_fract_x
_atom_site_fract_y
_atom_site_fract_z
Si Si1 0.668064 0.561803 0.359668
Si Si2 0.604988 0.954279 0.545424
Si Si3 0.693282 0.955621 0.631595
Si Si4 0.012863 0.946814 0.822912
Si Si5 0.474058 0.052167 0.219525
Si Si6 0.220470 0.554422 0.717334
Si Si7 0.903005 0.950100 0.947863
Si Si8 0.834704 0.958126 0.700045
O O1 0.701799 0.750000 0.353974
O O2 0.568505 0.546198 0.342243
O O3 0.726881 0.450703 0.327626
O O4 0.659204 0.519696 0.410247
O O5 0.602906 0.750000 0.546015
O O6 0.672290 0.011626 0.582670
O O7 0.504731 0.013435 0.555960
O O8 0.626008 0.009528 0.496722
O O9 0.696346 0.750000 0.631174
O O10 0.606946 0.003234 0.659285
O O11 0.778992 0.010620 0.657960
O O12 0.001042 0.750000 0.836314
O O13 0.012307 0.952728 0.771280
O O14 0.470831 0.250000 0.205785
O O15 0.376947 0.977339 0.211802
O O16 0.564526 0.980661 0.200061
O O17 0.204901 0.750000 0.730150
O O18 0.281472 0.486200 0.756529
O O19 0.906263 0.750000 0.942083
O O20 0.837569 0.750000 0.701611
#
# Coordination Sequence:
#
# PCOD9461343 Si02
#       8
#     8   8   8   8   8   8   8   8
#     4  12  23  32  44  67  97 129 163 197 239 283
#     4   9  17  29  46  70  98 124 152 189 236 286
#     4   9  15  25  44  71  99 127 156 189 231 277
#     4  10  16  28  48  69  94 127 164 197 230 270
#     4   9  16  26  46  73  95 121 162 205 231 261
#     4  10  18  30  49  69  93 125 163 200 233 271
#     4  10  19  32  49  67  91 124 160 196 236 284
#     4   9  15  24  45  73  96 121 160 198 227 269
#
# _framework density 17.267446
#
# number of rings (size 3 to 8) (size 9 to 14) (size 15 to 20)
#    0.000    2.250    3.750    1.500    0.000    0.500 
#    0.000    0.625    0.000    0.750    0.000    0.875 
#    0.000    0.000    0.000    0.000    0.000    0.000 
#
# Total GULP energy -356730.101286 kJ/mol
# GULP energy per Si atom -5573.907833 kJ/mol
# Density = 1.722814 g / cm^3
# Si number density = 17.267446 Si / 1000 Ang^3
#
#
#
# Elastic Constant Matrix: (Units=GPa)
#
#
# Indices 1 2 3 4 5 6 
#
# 1 85.2739 -1.2268 24.2627 0.0000 0.0000 0.0000
# 2 -1.2268 17.0504 -4.5142 0.0000 0.0000 0.0000
# 3 24.2627 -4.5142 67.3310 0.0000 0.0000 0.0000
# 4 0.0000 0.0000 0.0000 13.1211 0.0000 0.0000
# 5 0.0000 0.0000 0.0000 0.0000 22.1018 0.0000
# 6 0.0000 0.0000 0.0000 0.0000 0.0000 12.9002
#
#
#
# Elastic Compliance Matrix: (Units=1/GPa)
#
#
# Indices 1 2 3 4 5 6 
#
# 1 0.013068 -0.000312 -0.004730 0.000000 0.000000 0.000000
# 2 -0.000312 0.059717 0.004116 0.000000 0.000000 0.000000
# 3 -0.004730 0.004116 0.016832 0.000000 0.000000 0.000000
# 4 0.000000 0.000000 0.000000 0.076213 0.000000 0.000000
# 5 0.000000 0.000000 0.000000 0.000000 0.045245 0.000000
# 6 0.000000 0.000000 0.000000 0.000000 0.000000 0.077518
#
#
# Mechanical properties :
#
#
# Convention : Reuss Voigt Hill
#
# Bulk Modulus (GPa) = 11.39398 22.96652 17.18025
# Shear Modulus (GPa) = 15.63960 19.70019 17.66990
#
# Velocity S-wave (km/s) = 3.01280 3.38137 3.20239
# Velocity P-wave (km/s) = 4.32613 5.34548 4.86259
#
# Compressibility (1/GPa) = 0.08776566
#
# Stress axis : x y z
#
# Youngs Moduli (GPa) = 76.52135 16.74570 59.40909
#
# Poissons Ratio (x) = 0.00523 0.28101
# Poissons Ratio (y) = 0.02388 -0.24454
# Poissons Ratio (z) = 0.36195 -0.06893
#
# Static dielectric constant tensor:
#      x y z
#    x 1.593460 0.000000 0.000000 
#    y 0.000000 1.636350 0.000000 
#    z 0.000000 0.000000 1.583090 
# 
# From -- ./inp_files/32718.got.cif
#   From: 2010.05.17/outbox.cif.g08.bks.cpg/sg62_17_cif.got.tgz:32718.got - 2010.06.03 15:25:27.
