data_PCOD9461228
_publ_section_title
;
Structure prediction by ZEFSAII (Michael W. Deem and Ramdas Pophale) SiO2 
 PCOD9461228
Probable space group: P B C A
;
_chemical_formula_sum "Si O2"
_cell_formula_units_Z 32
_cell_length_a 7.607331
_cell_length_b 10.599236
_cell_length_c 14.443361
_cell_angle_alpha 90.000000
_cell_angle_beta 90.000000
_cell_angle_gamma 90.000000
_cell_volume 1164.595591
_symmetry_space_group_name_H-M "P B C A"
_symmetry_group_IT_number 61
_symmetry_cell_setting 'orthorhombic'
loop_
_space_group_symop_operation_xyz
x,y,z
1/2-x,-y,1/2+z
1/2+x,1/2-y,-z
-x,1/2+y,1/2-z
-x,-y,-z
1/2+x,y,1/2-z
1/2-x,1/2+y,z
x,1/2-y,1/2+z
loop_
_atom_site_type_symbol
_atom_site_label
_atom_site_fract_x
_atom_site_fract_y
_atom_site_fract_z
Si Si1 0.969921 0.929450 0.095923
Si Si2 0.584124 0.903565 0.074418
Si Si3 0.991747 0.405812 0.774562
Si Si4 0.205662 0.250759 0.151726
O O1 0.144311 0.853455 0.127378
O O2 0.785414 0.859874 0.071783
O O3 0.942583 0.033980 0.176316
O O4 0.000000 0.000000 0.000000
O O5 0.580220 0.982483 0.169637
O O6 0.452634 0.786754 0.084576
O O7 0.500000 0.000000 0.000000
O O8 0.827506 0.371863 0.840399
O O9 0.101069 0.278199 0.749279
#
# Coordination Sequence:
#
# PCOD9461228 Si02
#       4
#     8   8   8   8
#     4  12  28  55  79 119 169 210 267 340 405 484
#     4  12  28  55  79 119 169 210 267 340 405 484
#     4  12  28  52  78 118 162 214 274 330 404 484
#     4  12  28  48  82 112 158 218 262 336 400 472
#
# _framework density 27.477350999999999
#
# number of rings (size 3 to 8) (size 9 to 14) (size 15 to 20)
#    0.000    0.000    5.000    3.000   10.500    2.000 
#    0.000    0.000    0.000    0.000    0.000    0.000 
#    0.000    0.000    0.000    0.000    0.000    0.000 
#
# Total GULP energy -178671.838988 kJ/mol
# GULP energy per Si atom -5583.494968 kJ/mol
# Density = 2.741481 g / cm^3
# Si number density = 27.477351 Si / 1000 Ang^3
#
#
#
# Elastic Constant Matrix: (Units=GPa)
#
#
# Indices 1 2 3 4 5 6 
#
# 1 237.0261 82.7544 40.0391 0.0000 0.0000 0.0000
# 2 82.7544 95.4733 65.1000 0.0000 0.0000 0.0000
# 3 40.0391 65.1000 158.6741 0.0000 0.0000 0.0000
# 4 0.0000 0.0000 0.0000 63.3367 0.0000 0.0000
# 5 0.0000 0.0000 0.0000 0.0000 36.6043 0.0000
# 6 0.0000 0.0000 0.0000 0.0000 0.0000 61.0085
#
#
#
# Elastic Compliance Matrix: (Units=1/GPa)
#
#
# Indices 1 2 3 4 5 6 
#
# 1 0.006137 -0.005920 0.000880 0.000000 0.000000 0.000000
# 2 -0.005920 0.020252 -0.006815 0.000000 0.000000 0.000000
# 3 0.000880 -0.006815 0.008876 0.000000 0.000000 0.000000
# 4 0.000000 0.000000 0.000000 0.015789 0.000000 0.000000
# 5 0.000000 0.000000 0.000000 0.000000 0.027319 0.000000
# 6 0.000000 0.000000 0.000000 0.000000 0.000000 0.016391
#
#
# Mechanical properties :
#
#
# Convention : Reuss Voigt Hill
#
# Bulk Modulus (GPa) = 86.53509 96.32893 91.43201
# Shear Modulus (GPa) = 40.87445 52.40856 46.64151
#
# Velocity S-wave (km/s) = 3.86109 4.37204 4.12449
# Velocity P-wave (km/s) = 7.17209 7.78589 7.48528
#
# Compressibility (1/GPa) = 0.01155601
#
# Stress axis : x y z
#
# Youngs Moduli (GPa) = 162.94608 49.37754 112.65979
#
# Poissons Ratio (x) = 0.29229 -0.09915
# Poissons Ratio (y) = 0.96456 0.76780
# Poissons Ratio (z) = -0.14340 0.33652
#
# Static dielectric constant tensor:
#      x y z
#    x 2.262870 0.000000 0.000000 
#    y 0.000000 2.164390 0.000000 
#    z 0.000000 0.000000 2.151670 
# 
# From -- ./inp_files/6904.got.cif
#   From: 2010.05.17/outbox.cif.g08.bks.cpg/sg61_4_cif.got.tgz:6904.got - 2010.06.03 15:17:17.
