data_PCOD9461565
_publ_section_title
;
Structure prediction by ZEFSAII (Michael W. Deem and Ramdas Pophale) SiO2 
 PCOD9461565
Probable space group: P N M A
;
_chemical_formula_sum "Si O2"
_cell_formula_units_Z 56
_cell_length_a 15.454111
_cell_length_b 7.313884
_cell_length_c 22.325711
_cell_angle_alpha 90.000000
_cell_angle_beta 90.000000
_cell_angle_gamma 90.000000
_cell_volume 2523.465630
_symmetry_space_group_name_H-M "P N M A"
_symmetry_group_IT_number 62
_symmetry_cell_setting 'orthorhombic'
loop_
_space_group_symop_operation_xyz
x,y,z
1/2-x,-y,1/2+z
1/2+x,1/2-y,1/2-z
-x,1/2+y,-z
-x,-y,-z
1/2+x,y,1/2-z
1/2-x,1/2+y,1/2+z
x,1/2-y,z
loop_
_atom_site_type_symbol
_atom_site_label
_atom_site_fract_x
_atom_site_fract_y
_atom_site_fract_z
Si Si1 0.515495 0.031554 0.929275
Si Si2 0.150967 0.973505 0.355310
Si Si3 0.639201 0.970614 0.471649
Si Si4 0.335035 0.542993 0.392578
Si Si5 0.671610 0.527792 0.281998
Si Si6 0.296903 0.972356 0.115037
Si Si7 0.016411 0.973281 0.132073
O O1 0.518171 0.250000 0.921950
O O2 0.434350 0.963140 0.890182
O O3 0.608098 0.963517 0.904455
O O4 0.500000 0.000000 0.000000
O O5 0.146633 0.750000 0.356951
O O6 0.239704 0.035952 0.386518
O O7 0.161552 0.029597 0.286309
O O8 0.638186 0.750000 0.475619
O O9 0.725609 0.022560 0.434965
O O10 0.557975 0.028382 0.431366
O O11 0.640949 0.046341 0.537805
O O12 0.327652 0.750000 0.368934
O O13 0.418761 0.460203 0.360461
O O14 0.673689 0.750000 0.281963
O O15 0.755297 0.470078 0.321126
O O16 0.585897 0.472434 0.318368
O O17 0.299034 0.750000 0.116284
O O18 0.014082 0.750000 0.132114
#
# Coordination Sequence:
#
# PCOD9461565 Si02
#       7
#     8   8   8   8   8   8   8
#     4  10  19  31  46  68  93 119 150 184 220 264
#     4   9  18  28  41  64  92 113 139 181 223 257
#     4   9  16  28  44  63  84 111 144 172 199 248
#     4  10  18  27  40  64  91 111 132 169 216 254
#     4   8  14  27  43  63  88 112 140 181 222 254
#     4   8  15  27  45  64  85 114 148 179 212 256
#     4   8  15  26  42  62  86 112 139 170 209 253
#
# _framework density 22.191704999999999
#
# number of rings (size 3 to 8) (size 9 to 14) (size 15 to 20)
#    0.000    3.143    0.000    3.000    0.000    1.143 
#    0.000    5.714    0.000    0.000    0.000   14.000 
#    0.000    0.000    0.000    0.000    0.000    0.000 
#
# Total GULP energy -312527.034530 kJ/mol
# GULP energy per Si atom -5580.839902 kJ/mol
# Density = 2.214120 g / cm^3
# Si number density = 22.191705 Si / 1000 Ang^3
#
#
#
# Elastic Constant Matrix: (Units=GPa)
#
#
# Indices 1 2 3 4 5 6 
#
# 1 215.6901 8.0080 66.4840 0.0000 0.0000 0.0000
# 2 8.0080 89.5658 -6.5606 0.0000 0.0000 0.0000
# 3 66.4840 -6.5606 109.4895 0.0000 0.0000 0.0000
# 4 0.0000 0.0000 0.0000 10.9228 0.0000 0.0000
# 5 0.0000 0.0000 0.0000 0.0000 18.3102 0.0000
# 6 0.0000 0.0000 0.0000 0.0000 0.0000 -11.2172
#
#
#
# Elastic Compliance Matrix: (Units=1/GPa)
#
#
# Indices 1 2 3 4 5 6 
#
# 1 0.005757 -0.000774 -0.003542 0.000000 0.000000 0.000000
# 2 -0.000774 0.011318 0.001148 0.000000 0.000000 0.000000
# 3 -0.003542 0.001148 0.011353 0.000000 0.000000 0.000000
# 4 0.000000 0.000000 0.000000 0.091551 0.000000 0.000000
# 5 0.000000 0.000000 0.000000 0.000000 0.054614 0.000000
# 6 0.000000 0.000000 0.000000 0.000000 0.000000 -0.089149
#
#
# Mechanical properties :
#
#
# Convention : Reuss Voigt Hill
#
# Bulk Modulus (GPa) = 45.26488 61.17867 53.22178
# Shear Modulus (GPa) = 50.43133 26.72410 38.57771
#
# Velocity S-wave (km/s) = 4.77228 3.47398 4.17392
# Velocity P-wave (km/s) = 7.12795 6.61207 6.87485
#
# Compressibility (1/GPa) = 0.02209218
#
# Stress axis : x y z
#
# Youngs Moduli (GPa) = 173.70712 88.35246 88.08330
#
# Poissons Ratio (x) = 0.06840 0.31199
# Poissons Ratio (y) = 0.13448 -0.10114
# Poissons Ratio (z) = 0.61528 -0.10145
#
# Static dielectric constant tensor:
#      x y z
#    x 1.816570 0.000000 0.000000 
#    y 0.000000 1.873740 0.000000 
#    z 0.000000 0.000000 1.762280 
# 
# From -- ./inp_files/27292.got.cif
#   From: 2010.05.17/outbox.cif.g08.bks.cpg/sg62_14_cif.got.tgz:27292.got - 2010.06.03 15:25:27.
