data_PCOD9462913
_publ_section_title
;
Structure prediction by ZEFSAII (Michael W. Deem and Ramdas Pophale) SiO2 
 PCOD9462913
Probable space group: P N M A
;
_chemical_formula_sum "Si O2"
_cell_formula_units_Z 48
_cell_length_a 16.728538
_cell_length_b 9.161046
_cell_length_c 17.085384
_cell_angle_alpha 90.000000
_cell_angle_beta 90.000000
_cell_angle_gamma 90.000000
_cell_volume 2618.350580
_symmetry_space_group_name_H-M "P N M A"
_symmetry_group_IT_number 62
_symmetry_cell_setting 'orthorhombic'
loop_
_space_group_symop_operation_xyz
x,y,z
1/2-x,-y,1/2+z
1/2+x,1/2-y,1/2-z
-x,1/2+y,-z
-x,-y,-z
1/2+x,y,1/2-z
1/2-x,1/2+y,1/2+z
x,1/2-y,z
loop_
_atom_site_type_symbol
_atom_site_label
_atom_site_fract_x
_atom_site_fract_y
_atom_site_fract_z
Si Si1 0.875414 0.916338 0.492936
Si Si2 0.273792 0.422883 0.883308
Si Si3 0.019644 0.916655 0.620889
Si Si4 0.887579 0.925352 0.740286
Si Si5 0.578263 0.922713 0.398856
Si Si6 0.103233 0.078093 0.940179
O O1 0.847551 0.750000 0.483707
O O2 0.949646 0.914175 0.554635
O O3 0.810259 0.016919 0.535131
O O4 0.910987 0.982088 0.413186
O O5 0.289500 0.250000 0.877215
O O6 0.318974 0.507209 0.814411
O O7 0.179134 0.448762 0.885391
O O8 0.047924 0.750000 0.630148
O O9 0.972340 0.964848 0.698386
O O10 0.882312 0.750000 0.739858
O O11 0.885104 0.991238 0.826292
O O12 0.591938 0.750000 0.391496
O O13 0.482451 0.950069 0.401091
O O14 0.609121 0.982319 0.481694
O O15 0.104637 0.250000 0.962299
#
# Coordination Sequence:
#
# PCOD9462913 Si02
#       6
#     8   8   8   8   8   8
#     4   9  16  26  43  69 100 134 172 212 254 305
#     4  10  19  33  54  78 107 141 175 215 264 314
#     4   8  15  27  43  65  96 136 175 208 248 303
#     4  10  20  34  53  79 110 140 174 217 264 313
#     4  10  20  36  59  82 104 135 176 218 261 310
#     4   9  20  38  58  80 105 136 176 218 259 309
#
# _framework density 18.332152000000001
#
# number of rings (size 3 to 8) (size 9 to 14) (size 15 to 20)
#    0.000    2.667    0.000    3.000    0.000    6.667 
#    0.000    1.667    0.000    4.000    0.000    0.000 
#    0.000    0.000    0.000    0.000    0.000    0.000 
#
# Total GULP energy -267657.993499 kJ/mol
# GULP energy per Si atom -5576.208198 kJ/mol
# Density = 1.829043 g / cm^3
# Si number density = 18.332152 Si / 1000 Ang^3
#
#
#
# Elastic Constant Matrix: (Units=GPa)
#
#
# Indices 1 2 3 4 5 6 
#
# 1 56.3928 38.3824 26.8505 0.0000 0.0000 0.0000
# 2 38.3824 75.2892 42.3639 0.0000 0.0000 0.0000
# 3 26.8505 42.3639 62.9716 0.0000 0.0000 0.0000
# 4 0.0000 0.0000 0.0000 26.0438 0.0000 0.0000
# 5 0.0000 0.0000 0.0000 0.0000 7.2688 0.0000
# 6 0.0000 0.0000 0.0000 0.0000 0.0000 20.5779
#
#
#
# Elastic Compliance Matrix: (Units=1/GPa)
#
#
# Indices 1 2 3 4 5 6 
#
# 1 0.027685 -0.012023 -0.003717 0.000000 0.000000 0.000000
# 2 -0.012023 0.026594 -0.012764 0.000000 0.000000 0.000000
# 3 -0.003717 -0.012764 0.026052 0.000000 0.000000 0.000000
# 4 0.000000 0.000000 0.000000 0.038397 0.000000 0.000000
# 5 0.000000 0.000000 0.000000 0.000000 0.137574 0.000000
# 6 0.000000 0.000000 0.000000 0.000000 0.000000 0.048596
#
#
# Mechanical properties :
#
#
# Convention : Reuss Voigt Hill
#
# Bulk Modulus (GPa) = 42.87482 45.53858 44.20670
# Shear Modulus (GPa) = 13.52526 16.58190 15.05358
#
# Velocity S-wave (km/s) = 2.71917 3.01080 2.86869
# Velocity P-wave (km/s) = 5.77036 6.08122 5.92783
#
# Compressibility (1/GPa) = 0.02332372
#
# Stress axis : x y z
#
# Youngs Moduli (GPa) = 36.12029 37.60315 38.38479
#
# Poissons Ratio (x) = 0.45209 0.14266
# Poissons Ratio (y) = 0.43426 0.48995
# Poissons Ratio (z) = 0.13424 0.47998
#
# Static dielectric constant tensor:
#      x y z
#    x 1.641800 0.000000 0.000000 
#    y 0.000000 1.614230 0.000000 
#    z 0.000000 0.000000 1.617130 
# 
# From -- ./inp_files/24217.got.cif
#   From: 2010.05.17/outbox.cif.g08.bks.cpg/sg62_13_cif.got.tgz:24217.got - 2010.06.03 15:25:27.
