data_PCOD9462810
_publ_section_title
;
Structure prediction by ZEFSAII (Michael W. Deem and Ramdas Pophale) SiO2 
 PCOD9462810
Probable space group: P N M A
;
_chemical_formula_sum "Si O2"
_cell_formula_units_Z 44
_cell_length_a 9.824385
_cell_length_b 7.412642
_cell_length_c 22.202538
_cell_angle_alpha 90.000000
_cell_angle_beta 90.000000
_cell_angle_gamma 90.000000
_cell_volume 1616.892034
_symmetry_space_group_name_H-M "P N M A"
_symmetry_group_IT_number 62
_symmetry_cell_setting 'orthorhombic'
loop_
_space_group_symop_operation_xyz
x,y,z
1/2-x,-y,1/2+z
1/2+x,1/2-y,1/2-z
-x,1/2+y,-z
-x,-y,-z
1/2+x,y,1/2-z
1/2-x,1/2+y,1/2+z
x,1/2-y,z
loop_
_atom_site_type_symbol
_atom_site_label
_atom_site_fract_x
_atom_site_fract_y
_atom_site_fract_z
Si Si1 0.561821 0.452851 0.750768
Si Si2 0.171654 0.463071 0.956333
Si Si3 0.381838 0.033302 0.049192
Si Si4 0.269693 0.250000 0.175689
Si Si5 0.903178 0.967474 0.641879
Si Si6 0.568922 0.966049 0.377755
O O1 0.614934 0.250000 0.752695
O O2 0.661846 0.595181 0.780437
O O3 0.422552 0.463523 0.790811
O O4 0.520743 0.497976 0.682791
O O5 0.159179 0.250000 0.965676
O O6 0.276027 0.485245 0.899728
O O7 0.026325 0.528356 0.933124
O O8 0.247901 0.539827 0.015222
O O9 0.375361 0.250000 0.055550
O O10 0.460266 0.963650 0.107978
O O11 0.500000 0.000000 0.000000
O O12 0.197805 0.409170 0.133651
O O13 0.910504 0.750000 0.644891
O O14 0.594299 0.750000 0.380333
#
# Coordination Sequence:
#
# PCOD9462810 Si02
#       6
#     8   8   8   4   8   8
#     4  11  24  40  60  88 117 157 195 237 291 346
#     4   9  18  34  56  85 118 148 186 241 301 351
#     4   8  15  29  51  82 115 144 180 233 295 350
#     4  12  24  42  60  82 120 156 204 236 282 336
#     4  10  19  32  56  89 119 150 191 237 295 355
#     4  10  24  40  60  87 115 155 195 238 291 345
#
# _framework density 27.212700999999999
#
# number of rings (size 3 to 8) (size 9 to 14) (size 15 to 20)
#    0.000    2.182    0.909    1.636    3.818    0.727 
#    0.000    0.000    0.000    1.091    0.000    0.000 
#    0.000    0.000    0.000    0.000    0.000    0.000 
#
# Total GULP energy -245496.082298 kJ/mol
# GULP energy per Si atom -5579.456416 kJ/mol
# Density = 2.715076 g / cm^3
# Si number density = 27.212701 Si / 1000 Ang^3
#
#
#
# Elastic Constant Matrix: (Units=GPa)
#
#
# Indices 1 2 3 4 5 6 
#
# 1 133.6611 30.0440 32.0729 0.0000 0.0000 0.0000
# 2 30.0440 131.7915 27.5456 0.0000 0.0000 0.0000
# 3 32.0729 27.5456 123.2655 0.0000 0.0000 0.0000
# 4 0.0000 0.0000 0.0000 28.1445 0.0000 0.0000
# 5 0.0000 0.0000 0.0000 0.0000 67.4125 0.0000
# 6 0.0000 0.0000 0.0000 0.0000 0.0000 38.9420
#
#
#
# Elastic Compliance Matrix: (Units=1/GPa)
#
#
# Indices 1 2 3 4 5 6 
#
# 1 0.008254 -0.001503 -0.001812 0.000000 0.000000 0.000000
# 2 -0.001503 0.008233 -0.001449 0.000000 0.000000 0.000000
# 3 -0.001812 -0.001449 0.008908 0.000000 0.000000 0.000000
# 4 0.000000 0.000000 0.000000 0.035531 0.000000 0.000000
# 5 0.000000 0.000000 0.000000 0.000000 0.014834 0.000000
# 6 0.000000 0.000000 0.000000 0.000000 0.000000 0.025679
#
#
# Mechanical properties :
#
#
# Convention : Reuss Voigt Hill
#
# Bulk Modulus (GPa) = 63.02005 63.11591 63.06798
# Shear Modulus (GPa) = 43.00860 46.83684 44.92272
#
# Velocity S-wave (km/s) = 3.97981 4.15316 4.06741
# Velocity P-wave (km/s) = 6.65786 6.80016 6.72939
#
# Compressibility (1/GPa) = 0.01586797
#
# Stress axis : x y z
#
# Youngs Moduli (GPa) = 121.15037 121.45980 112.26187
#
# Poissons Ratio (x) = 0.18255 0.20340
# Poissons Ratio (y) = 0.18209 0.16264
# Poissons Ratio (z) = 0.21950 0.17597
#
# Static dielectric constant tensor:
#      x y z
#    x 2.400250 0.000000 0.000000 
#    y 0.000000 1.991870 0.000000 
#    z 0.000000 0.000000 4.205990 
# 
# From -- ./inp_files/29185.got.cif
#   From: 2010.05.17/outbox.cif.g08.bks.cpg/sg62_15_cif.got.tgz:29185.got - 2010.06.03 15:25:27.
