data_PCOD9462005
_publ_section_title
;
Structure prediction by ZEFSAII (Michael W. Deem and Ramdas Pophale) SiO2 
 PCOD9462005
Probable space group: P N M A
;
_chemical_formula_sum "Si O2"
_cell_formula_units_Z 56
_cell_length_a 18.027152
_cell_length_b 7.451300
_cell_length_c 19.462681
_cell_angle_alpha 90.000000
_cell_angle_beta 90.000000
_cell_angle_gamma 90.000000
_cell_volume 2614.338594
_symmetry_space_group_name_H-M "P N M A"
_symmetry_group_IT_number 62
_symmetry_cell_setting 'orthorhombic'
loop_
_space_group_symop_operation_xyz
x,y,z
1/2-x,-y,1/2+z
1/2+x,1/2-y,1/2-z
-x,1/2+y,-z
-x,-y,-z
1/2+x,y,1/2-z
1/2-x,1/2+y,1/2+z
x,1/2-y,z
loop_
_atom_site_type_symbol
_atom_site_label
_atom_site_fract_x
_atom_site_fract_y
_atom_site_fract_z
Si Si1 0.976276 0.534334 0.078797
Si Si2 0.743237 0.033151 0.453821
Si Si3 0.118906 0.958371 0.154351
Si Si4 0.816915 0.030041 0.703376
Si Si5 0.594472 0.533464 0.939679
Si Si6 0.808800 0.531234 0.103480
Si Si7 0.062983 0.960327 0.406360
O O1 0.974320 0.750000 0.085519
O O2 0.040678 0.463486 0.129103
O O3 0.893655 0.469035 0.096544
O O4 0.000000 0.500000 0.000000
O O5 0.741334 0.250000 0.452450
O O6 0.822285 0.974477 0.423209
O O7 0.733846 0.979752 0.533294
O O8 0.674611 0.967462 0.409597
O O9 0.104124 0.750000 0.170697
O O10 0.160925 0.033600 0.220865
O O11 0.814507 0.250000 0.704715
O O12 0.739272 0.973019 0.669094
O O13 0.882627 0.970863 0.651935
O O14 0.594077 0.750000 0.940418
O O15 0.524734 0.478782 0.893629
O O16 0.578282 0.465458 0.017370
O O17 0.810172 0.750000 0.104295
O O18 0.080406 0.750000 0.411396
#
# Coordination Sequence:
#
# PCOD9462005 Si02
#       7
#     8   8   8   8   8   8   8
#     4  10  19  32  53  78 101 129 170 213 255 302
#     4  10  18  32  54  74  96 134 175 205 243 308
#     4  10  21  34  50  78 108 128 161 222 270 293
#     4   9  17  33  52  73 104 137 170 210 256 309
#     4   9  17  29  48  74  99 124 164 209 243 288
#     4   9  16  30  54  75  95 135 178 203 241 310
#     4   9  16  29  50  72  96 129 166 202 246 296
#
# _framework density 21.420332999999999
#
# number of rings (size 3 to 8) (size 9 to 14) (size 15 to 20)
#    0.000    2.571    2.857    0.000    0.000    0.571 
#    2.571    0.714    0.000    2.571    0.000    0.000 
#    0.000    0.000    0.000    0.000    0.000    0.000 
#
# Total GULP energy -312421.594399 kJ/mol
# GULP energy per Si atom -5578.957043 kJ/mol
# Density = 2.137158 g / cm^3
# Si number density = 21.420333 Si / 1000 Ang^3
#
#
#
# Elastic Constant Matrix: (Units=GPa)
#
#
# Indices 1 2 3 4 5 6 
#
# 1 169.1215 -5.4422 55.1957 0.0000 0.0000 0.0000
# 2 -5.4422 61.1167 0.9379 0.0000 0.0000 0.0000
# 3 55.1957 0.9379 98.1324 0.0000 0.0000 0.0000
# 4 0.0000 0.0000 0.0000 7.2119 0.0000 0.0000
# 5 0.0000 0.0000 0.0000 0.0000 29.8400 0.0000
# 6 0.0000 0.0000 0.0000 0.0000 0.0000 9.1805
#
#
#
# Elastic Compliance Matrix: (Units=1/GPa)
#
#
# Indices 1 2 3 4 5 6 
#
# 1 0.007273 0.000711 -0.004098 0.000000 0.000000 0.000000
# 2 0.000711 0.016434 -0.000557 0.000000 0.000000 0.000000
# 3 -0.004098 -0.000557 0.012500 0.000000 0.000000 0.000000
# 4 0.000000 0.000000 0.000000 0.138660 0.000000 0.000000
# 5 0.000000 0.000000 0.000000 0.000000 0.033512 0.000000
# 6 0.000000 0.000000 0.000000 0.000000 0.000000 0.108927
#
#
# Mechanical properties :
#
#
# Convention : Reuss Voigt Hill
#
# Bulk Modulus (GPa) = 35.31097 47.75039 41.53068
# Shear Modulus (GPa) = 14.94170 27.75843 21.35006
#
# Velocity S-wave (km/s) = 2.64398 3.60375 3.16051
# Velocity P-wave (km/s) = 5.08344 6.29734 5.72267
#
# Compressibility (1/GPa) = 0.02831981
#
# Stress axis : x y z
#
# Youngs Moduli (GPa) = 137.49287 60.84964 79.99750
#
# Poissons Ratio (x) = -0.04324 0.32780
# Poissons Ratio (y) = -0.09769 0.04454
# Poissons Ratio (z) = 0.56340 0.03388
#
# Static dielectric constant tensor:
#      x y z
#    x 1.789480 0.000000 0.000000 
#    y 0.000000 1.846090 0.000000 
#    z 0.000000 0.000000 1.739140 
# 
# From -- ./inp_files/24443.got.cif
#   From: 2010.05.17/outbox.cif.g08.bks.cpg/sg62_13_cif.got.tgz:24443.got - 2010.06.03 15:25:27.
