data_PCOD9462326
_publ_section_title
;
Structure prediction by ZEFSAII (Michael W. Deem and Ramdas Pophale) SiO2 
 PCOD9462326
Probable space group: P N M A
;
_chemical_formula_sum "Si O2"
_cell_formula_units_Z 64
_cell_length_a 8.267133
_cell_length_b 16.632525
_cell_length_c 25.779816
_cell_angle_alpha 90.000000
_cell_angle_beta 90.000000
_cell_angle_gamma 90.000000
_cell_volume 3544.809678
_symmetry_space_group_name_H-M "P N M A"
_symmetry_group_IT_number 62
_symmetry_cell_setting 'orthorhombic'
loop_
_space_group_symop_operation_xyz
x,y,z
1/2-x,-y,1/2+z
1/2+x,1/2-y,1/2-z
-x,1/2+y,-z
-x,-y,-z
1/2+x,y,1/2-z
1/2-x,1/2+y,1/2+z
x,1/2-y,z
loop_
_atom_site_type_symbol
_atom_site_label
_atom_site_fract_x
_atom_site_fract_y
_atom_site_fract_z
Si Si1 0.015909 0.343073 0.547123
Si Si2 0.893502 0.659653 0.171171
Si Si3 0.697652 0.493236 0.609607
Si Si4 0.476824 0.961168 0.147190
Si Si5 0.699501 0.418482 0.501941
Si Si6 0.651527 0.500372 0.391799
Si Si7 0.421229 0.342846 0.763935
Si Si8 0.875161 0.156419 0.956813
O O1 0.998119 0.250000 0.562980
O O2 0.020119 0.400407 0.597526
O O3 0.192794 0.351783 0.520464
O O4 0.862580 0.368522 0.512712
O O5 0.899180 0.750000 0.150869
O O6 0.822400 0.598780 0.129903
O O7 0.054558 0.638897 0.203168
O O8 0.763978 0.656850 0.218135
O O9 0.700929 0.486543 0.547346
O O10 0.525178 0.530622 0.625609
O O11 0.866661 0.517653 0.635561
O O12 0.304470 0.004792 0.145461
O O13 0.498343 0.908278 0.198523
O O14 0.697373 0.457252 0.445657
O O15 0.532365 0.369559 0.510466
O O16 0.626900 0.594160 0.408728
O O17 0.476296 0.250000 0.772682
O O18 0.890179 0.250000 0.942638
#
# Coordination Sequence:
#
# PCOD9462326 Si02
#       8
#     8   8   8   8   8   8   8   8
#     4   9  17  28  43  62  83 112 148 184 223 263
#     4   9  18  29  42  61  82 111 147 187 234 267
#     4   9  18  29  41  57  80 106 140 184 223 262
#     4   9  18  29  43  60  82 110 145 190 228 260
#     4  10  19  30  44  61  85 114 147 191 225 265
#     4  10  20  30  44  64  83 113 152 188 225 268
#     4   9  17  29  42  59  83 110 144 188 233 266
#     4   9  17  28  41  60  82 107 143 182 219 258
#
# _framework density 18.054566000000001
#
# number of rings (size 3 to 8) (size 9 to 14) (size 15 to 20)
#    0.000    2.750    0.000    2.250    1.750   11.000 
#    0.000    0.000    0.000    0.000    0.000    0.000 
#    0.000    0.000    0.000    0.000    0.000   12.500 
#
# Total GULP energy -356379.368665 kJ/mol
# GULP energy per Si atom -5568.427635 kJ/mol
# Density = 1.801347 g / cm^3
# Si number density = 18.054566 Si / 1000 Ang^3
#
#
#
# Elastic Constant Matrix: (Units=GPa)
#
#
# Indices 1 2 3 4 5 6 
#
# 1 138.6292 8.9734 12.5049 0.0000 0.0000 0.0000
# 2 8.9734 18.4245 10.3269 0.0000 0.0000 0.0000
# 3 12.5049 10.3269 39.5238 0.0000 0.0000 0.0000
# 4 0.0000 0.0000 0.0000 10.6455 0.0000 0.0000
# 5 0.0000 0.0000 0.0000 0.0000 22.3819 0.0000
# 6 0.0000 0.0000 0.0000 0.0000 0.0000 17.0429
#
#
#
# Elastic Compliance Matrix: (Units=1/GPa)
#
#
# Indices 1 2 3 4 5 6 
#
# 1 0.007541 -0.002736 -0.001671 0.000000 0.000000 0.000000
# 2 -0.002736 0.064581 -0.016008 0.000000 0.000000 0.000000
# 3 -0.001671 -0.016008 0.030013 0.000000 0.000000 0.000000
# 4 0.000000 0.000000 0.000000 0.093936 0.000000 0.000000
# 5 0.000000 0.000000 0.000000 0.000000 0.044679 0.000000
# 6 0.000000 0.000000 0.000000 0.000000 0.000000 0.058675
#
#
# Mechanical properties :
#
#
# Convention : Reuss Voigt Hill
#
# Bulk Modulus (GPa) = 16.31219 28.90975 22.61097
# Shear Modulus (GPa) = 13.86226 20.99889 17.43058
#
# Velocity S-wave (km/s) = 2.77392 3.41409 3.11052
# Velocity P-wave (km/s) = 4.39478 5.62037 5.04493
#
# Compressibility (1/GPa) = 0.06130383
#
# Stress axis : x y z
#
# Youngs Moduli (GPa) = 132.60245 15.48444 33.31934
#
# Poissons Ratio (x) = 0.04237 0.05568
# Poissons Ratio (y) = 0.36284 0.53338
# Poissons Ratio (z) = 0.22158 0.24788
#
# Static dielectric constant tensor:
#      x y z
#    x 1.781590 0.000000 0.000000 
#    y 0.000000 1.606850 0.000000 
#    z 0.000000 0.000000 1.624890 
# 
# From -- ./inp_files/30950.got.cif
#   From: 2010.05.17/outbox.cif.g08.bks.cpg/sg62_16_cif.got.tgz:30950.got - 2010.06.03 15:25:27.
