data_PCOD9462667
_publ_section_title
;
Structure prediction by ZEFSAII (Michael W. Deem and Ramdas Pophale) SiO2 
 PCOD9462667
Probable space group: P N M A
;
_chemical_formula_sum "Si O2"
_cell_formula_units_Z 64
_cell_length_a 23.078383
_cell_length_b 9.368843
_cell_length_c 14.640677
_cell_angle_alpha 90.000000
_cell_angle_beta 90.000000
_cell_angle_gamma 90.000000
_cell_volume 3165.574196
_symmetry_space_group_name_H-M "P N M A"
_symmetry_group_IT_number 62
_symmetry_cell_setting 'orthorhombic'
loop_
_space_group_symop_operation_xyz
x,y,z
1/2-x,-y,1/2+z
1/2+x,1/2-y,1/2-z
-x,1/2+y,-z
-x,-y,-z
1/2+x,y,1/2-z
1/2-x,1/2+y,1/2+z
x,1/2-y,z
loop_
_atom_site_type_symbol
_atom_site_label
_atom_site_fract_x
_atom_site_fract_y
_atom_site_fract_z
Si Si1 0.051707 0.079705 0.812202
Si Si2 0.280498 0.081911 0.175615
Si Si3 0.681029 0.420358 0.646644
Si Si4 0.637258 0.583430 0.992632
Si Si5 0.923424 0.421662 0.847648
Si Si6 0.603132 0.085348 0.161005
Si Si7 0.328771 0.917583 0.552491
Si Si8 0.032201 0.591762 0.634122
O O1 0.050858 0.250000 0.812369
O O2 0.112971 0.036385 0.853848
O O3 0.990962 0.033603 0.857076
O O4 0.049773 0.023532 0.708835
O O5 0.291069 0.250000 0.191289
O O6 0.324351 0.036970 0.094251
O O7 0.216984 0.064146 0.133567
O O8 0.289449 0.998723 0.269185
O O9 0.685150 0.250000 0.661565
O O10 0.701824 0.451094 0.544059
O O11 0.651300 0.750000 0.012337
O O12 0.571107 0.577511 0.955396
O O13 0.641434 0.488719 0.082986
O O14 0.919743 0.250000 0.842664
O O15 0.900750 0.492998 0.753318
O O16 0.883771 0.485516 0.926722
O O17 0.619877 0.250000 0.179444
O O18 0.536738 0.086905 0.123798
O O19 0.345838 0.750000 0.548245
O O20 0.046279 0.750000 0.672354
#
# Coordination Sequence:
#
# PCOD9462667 Si02
#       8
#     8   8   8   8   8   8   8   8
#     4   9  18  33  56  85 116 150 191 240 292 343
#     4  10  22  40  61  85 117 153 194 243 288 340
#     4  10  21  39  63  89 118 152 192 239 291 344
#     4  10  19  32  51  78 113 154 196 238 286 338
#     4  10  21  38  58  83 116 153 194 242 293 348
#     4  10  20  32  51  81 116 154 192 233 285 345
#     4  10  23  42  61  85 117 152 190 237 292 346
#     4   9  17  30  49  77 114 153 191 232 285 342
#
# _framework density 20.217502
#
# number of rings (size 3 to 8) (size 9 to 14) (size 15 to 20)
#    0.000    2.250    1.250    1.125    0.000    4.500 
#    0.000    1.250    0.000    0.000    0.000    0.000 
#    0.000    0.000    0.000    0.000    0.000    0.000 
#
# Total GULP energy -357148.187728 kJ/mol
# GULP energy per Si atom -5580.440433 kJ/mol
# Density = 2.017149 g / cm^3
# Si number density = 20.217502 Si / 1000 Ang^3
#
#
#
# Elastic Constant Matrix: (Units=GPa)
#
#
# Indices 1 2 3 4 5 6 
#
# 1 30.3159 27.0082 23.3745 0.0000 0.0000 0.0000
# 2 27.0082 37.8924 35.8017 0.0000 0.0000 0.0000
# 3 23.3745 35.8017 75.7142 0.0000 0.0000 0.0000
# 4 0.0000 0.0000 0.0000 31.5208 0.0000 0.0000
# 5 0.0000 0.0000 0.0000 0.0000 20.5743 0.0000
# 6 0.0000 0.0000 0.0000 0.0000 0.0000 17.4145
#
#
#
# Elastic Compliance Matrix: (Units=1/GPa)
#
#
# Indices 1 2 3 4 5 6 
#
# 1 0.091275 -0.069471 0.004671 0.000000 0.000000 0.000000
# 2 -0.069471 0.100577 -0.026111 0.000000 0.000000 0.000000
# 3 0.004671 -0.026111 0.024112 0.000000 0.000000 0.000000
# 4 0.000000 0.000000 0.000000 0.031725 0.000000 0.000000
# 5 0.000000 0.000000 0.000000 0.000000 0.048604 0.000000
# 6 0.000000 0.000000 0.000000 0.000000 0.000000 0.057424
#
#
# Mechanical properties :
#
#
# Convention : Reuss Voigt Hill
#
# Bulk Modulus (GPa) = 29.28875 35.14346 32.21611
# Shear Modulus (GPa) = 9.14208 17.75114 13.44661
#
# Velocity S-wave (km/s) = 2.12877 2.96634 2.58175
# Velocity P-wave (km/s) = 4.53437 5.39932 4.98564
#
# Compressibility (1/GPa) = 0.03414281
#
# Stress axis : x y z
#
# Youngs Moduli (GPa) = 10.95585 9.94259 41.47246
#
# Poissons Ratio (x) = 0.69072 -0.19372
# Poissons Ratio (y) = 0.76111 1.08290
# Poissons Ratio (z) = -0.05118 0.25961
#
# Static dielectric constant tensor:
#      x y z
#    x 1.769450 0.000000 0.000000 
#    y 0.000000 1.688290 0.000000 
#    z 0.000000 0.000000 1.695870 
# 
# From -- ./inp_files/20950.got.cif
#   From: 2010.05.17/outbox.cif.g08.bks.cpg/sg62_11_cif.got.tgz:20950.got - 2010.06.03 15:25:27.
