data_PCOD9462287
_publ_section_title
;
Structure prediction by ZEFSAII (Michael W. Deem and Ramdas Pophale) SiO2 
 PCOD9462287
Probable space group: P N M A
;
_chemical_formula_sum "Si O2"
_cell_formula_units_Z 36
_cell_length_a 9.097027
_cell_length_b 14.415958
_cell_length_c 14.925349
_cell_angle_alpha 90.000000
_cell_angle_beta 90.000000
_cell_angle_gamma 90.000000
_cell_volume 1957.345479
_symmetry_space_group_name_H-M "P N M A"
_symmetry_group_IT_number 62
_symmetry_cell_setting 'orthorhombic'
loop_
_space_group_symop_operation_xyz
x,y,z
1/2-x,-y,1/2+z
1/2+x,1/2-y,1/2-z
-x,1/2+y,-z
-x,-y,-z
1/2+x,y,1/2-z
1/2-x,1/2+y,1/2+z
x,1/2-y,z
loop_
_atom_site_type_symbol
_atom_site_label
_atom_site_fract_x
_atom_site_fract_y
_atom_site_fract_z
Si Si1 0.841917 0.750000 0.653514
Si Si2 0.291868 0.750000 0.646033
Si Si3 0.077805 0.750000 0.962023
Si Si4 0.138433 0.045897 0.366613
Si Si5 0.813640 0.454629 0.317032
Si Si6 0.346185 0.046680 0.524874
O O1 0.876050 0.750000 0.758189
O O2 0.667532 0.750000 0.632141
O O3 0.893302 0.654247 0.612983
O O4 0.407374 0.750000 0.564995
O O5 0.206396 0.847436 0.650846
O O6 0.126969 0.843464 0.011953
O O7 0.255766 0.042011 0.285099
O O8 0.220129 0.011097 0.455388
O O9 0.980273 0.010839 0.333240
O O10 0.706082 0.516243 0.377692
O O11 0.500000 0.000000 0.500000
#
# Coordination Sequence:
#
# PCOD9462287 Si02
#       6
#     4   4   4   8   8   8
#     4   8  19  28  52  78 116 132 170 223 291 329
#     4  10  19  28  54  81 112 138 175 217 283 332
#     4  10  20  36  50  81 110 146 179 224 278 339
#     4  10  21  34  54  85 111 147 184 227 279 333
#     4  11  21  34  56  81 115 145 183 227 277 330
#     4  11  21  37  57  80 113 148 182 230 277 327
#
# _framework density 18.392257000000001
#
# number of rings (size 3 to 8) (size 9 to 14) (size 15 to 20)
#    0.000    1.778    2.222    2.667   15.556    0.000 
#    0.000    0.000    0.000    6.667    0.000    0.000 
#    0.000    0.000    0.000    0.000    0.000    0.000 
#
# Total GULP energy -200537.185428 kJ/mol
# GULP energy per Si atom -5570.477373 kJ/mol
# Density = 1.835040 g / cm^3
# Si number density = 18.392257 Si / 1000 Ang^3
#
#
#
# Elastic Constant Matrix: (Units=GPa)
#
#
# Indices 1 2 3 4 5 6 
#
# 1 50.6376 -4.1416 -23.2457 0.0000 0.0000 0.0000
# 2 -4.1416 60.3571 10.6568 0.0000 0.0000 0.0000
# 3 -23.2457 10.6568 38.9527 0.0000 0.0000 0.0000
# 4 0.0000 0.0000 0.0000 20.7585 0.0000 0.0000
# 5 0.0000 0.0000 0.0000 0.0000 30.2988 0.0000
# 6 0.0000 0.0000 0.0000 0.0000 0.0000 13.1269
#
#
#
# Elastic Compliance Matrix: (Units=1/GPa)
#
#
# Indices 1 2 3 4 5 6 
#
# 1 0.027263 -0.001053 0.016558 0.000000 0.000000 0.000000
# 2 -0.001053 0.017450 -0.005402 0.000000 0.000000 0.000000
# 3 0.016558 -0.005402 0.037031 0.000000 0.000000 0.000000
# 4 0.000000 0.000000 0.000000 0.048173 0.000000 0.000000
# 5 0.000000 0.000000 0.000000 0.000000 0.033005 0.000000
# 6 0.000000 0.000000 0.000000 0.000000 0.000000 0.076179
#
#
# Mechanical properties :
#
#
# Convention : Reuss Voigt Hill
#
# Bulk Modulus (GPa) = 9.80880 12.94295 11.37587
# Shear Modulus (GPa) = 19.77236 23.94870 21.86053
#
# Velocity S-wave (km/s) = 3.28233 3.61239 3.45131
# Velocity P-wave (km/s) = 4.43955 4.94485 4.69900
#
# Compressibility (1/GPa) = 0.10194930
#
# Stress axis : x y z
#
# Youngs Moduli (GPa) = 36.67974 57.30773 27.00431
#
# Poissons Ratio (x) = 0.06033 -0.44713
# Poissons Ratio (y) = 0.03861 0.14588
# Poissons Ratio (z) = -0.60733 0.30959
#
# Static dielectric constant tensor:
#      x y z
#    x 1.696980 0.000000 0.000000 
#    y 0.000000 1.646580 0.000000 
#    z 0.000000 0.000000 1.614490 
# 
# From -- ./inp_files/16617.got.cif
#   From: 2010.05.17/outbox.cif.g08.bks.cpg/sg62_9_cif.got.tgz:16617.got - 2010.06.03 15:25:27.
