data_PCOD9462236
_publ_section_title
;
Structure prediction by ZEFSAII (Michael W. Deem and Ramdas Pophale) SiO2 
 PCOD9462236
Probable space group: P N M A
;
_chemical_formula_sum "Si O2"
_cell_formula_units_Z 48
_cell_length_a 19.570242
_cell_length_b 14.354395
_cell_length_c 9.145023
_cell_angle_alpha 90.000000
_cell_angle_beta 90.000000
_cell_angle_gamma 90.000000
_cell_volume 2569.010569
_symmetry_space_group_name_H-M "P N M A"
_symmetry_group_IT_number 62
_symmetry_cell_setting 'orthorhombic'
loop_
_space_group_symop_operation_xyz
x,y,z
1/2-x,-y,1/2+z
1/2+x,1/2-y,1/2-z
-x,1/2+y,-z
-x,-y,-z
1/2+x,y,1/2-z
1/2-x,1/2+y,1/2+z
x,1/2-y,z
loop_
_atom_site_type_symbol
_atom_site_label
_atom_site_fract_x
_atom_site_fract_y
_atom_site_fract_z
Si Si1 0.099055 0.015061 0.714584
Si Si2 0.030230 0.646643 0.253629
Si Si3 0.347700 0.463204 0.896700
Si Si4 0.980242 0.401637 0.071696
Si Si5 0.796991 0.640363 0.102478
Si Si6 0.874426 0.854424 0.792316
O O1 0.151974 0.084982 0.791221
O O2 0.029218 0.074678 0.700751
O O3 0.126573 0.980494 0.560742
O O4 0.081047 0.927133 0.819170
O O5 0.015833 0.750000 0.311129
O O6 0.100065 0.605247 0.314598
O O7 0.034424 0.652900 0.076966
O O8 0.274041 0.414891 0.896867
O O9 0.351874 0.562374 0.813395
O O10 0.046006 0.365776 0.160250
O O11 0.000000 0.500000 0.000000
O O12 0.789530 0.750000 0.141598
O O13 0.831356 0.637534 0.942021
O O14 0.864635 0.750000 0.731800
#
# Coordination Sequence:
#
# PCOD9462236 Si02
#       6
#     8   8   8   8   8   8
#     4  11  22  39  64  92 125 158 208 254 313 364
#     4  11  21  38  63  91 124 162 208 256 304 366
#     4  12  24  40  59  96 132 161 196 261 320 361
#     4  10  18  37  64  89 115 157 211 252 301 361
#     4  11  23  42  64  86 121 173 213 246 303 375
#     4  11  22  40  64  89 121 165 212 252 303 374
#
# _framework density 18.684235999999999
#
# number of rings (size 3 to 8) (size 9 to 14) (size 15 to 20)
#    0.000    1.000    6.667    3.000    0.000    1.333 
#    0.000    2.500    0.000    6.000    0.000    0.000 
#    0.000    0.000    0.000    0.000    0.000    0.000 
#
# Total GULP energy -267932.728116 kJ/mol
# GULP energy per Si atom -5581.931836 kJ/mol
# Density = 1.864171 g / cm^3
# Si number density = 18.684236 Si / 1000 Ang^3
#
#
#
# Elastic Constant Matrix: (Units=GPa)
#
#
# Indices 1 2 3 4 5 6 
#
# 1 109.2382 43.0243 46.4806 0.0000 0.0000 0.0000
# 2 43.0243 46.2276 6.5192 0.0000 0.0000 0.0000
# 3 46.4806 6.5192 61.9162 0.0000 0.0000 0.0000
# 4 0.0000 0.0000 0.0000 -16.8325 0.0000 0.0000
# 5 0.0000 0.0000 0.0000 0.0000 8.0692 0.0000
# 6 0.0000 0.0000 0.0000 0.0000 0.0000 1.4023
#
#
#
# Elastic Compliance Matrix: (Units=1/GPa)
#
#
# Indices 1 2 3 4 5 6 
#
# 1 0.023574 -0.019738 -0.015619 0.000000 0.000000 0.000000
# 2 -0.019738 0.038484 0.010765 0.000000 0.000000 0.000000
# 3 -0.015619 0.010765 0.026743 0.000000 0.000000 0.000000
# 4 0.000000 0.000000 0.000000 -0.059409 0.000000 0.000000
# 5 0.000000 0.000000 0.000000 0.000000 0.123929 0.000000
# 6 0.000000 0.000000 0.000000 0.000000 0.000000 0.713128
#
#
# Mechanical properties :
#
#
# Convention : Reuss Voigt Hill
#
# Bulk Modulus (GPa) = 25.24127 45.49227 35.36677
# Shear Modulus (GPa) = 5.38308 6.61832 6.00070
#
# Velocity S-wave (km/s) = 1.69922 1.88411 1.79405
# Velocity P-wave (km/s) = 4.16995 5.39759 4.82299
#
# Compressibility (1/GPa) = 0.03961765
#
# Stress axis : x y z
#
# Youngs Moduli (GPa) = 42.41956 25.98476 37.39366
#
# Poissons Ratio (x) = 0.51288 0.58405
# Poissons Ratio (y) = 0.83727 -0.40255
# Poissons Ratio (z) = 0.66255 -0.27973
#
# Static dielectric constant tensor:
#      x y z
#    x 1.642340 0.000000 0.000000 
#    y 0.000000 1.661160 0.000000 
#    z 0.000000 0.000000 1.648750 
# 
# From -- ./inp_files/7616.got.cif
#   From: 2010.05.17/outbox.cif.g08.bks.cpg/sg62_4_cif.got.tgz:7616.got - 2010.06.03 15:25:27.
