data_PCOD9462528
_publ_section_title
;
Structure prediction by ZEFSAII (Michael W. Deem and Ramdas Pophale) SiO2 
 PCOD9462528
Probable space group: P N M A
;
_chemical_formula_sum "Si O2"
_cell_formula_units_Z 64
_cell_length_a 8.625487
_cell_length_b 17.315578
_cell_length_c 21.480060
_cell_angle_alpha 90.000000
_cell_angle_beta 90.000000
_cell_angle_gamma 90.000000
_cell_volume 3208.160654
_symmetry_space_group_name_H-M "P N M A"
_symmetry_group_IT_number 62
_symmetry_cell_setting 'orthorhombic'
loop_
_space_group_symop_operation_xyz
x,y,z
1/2-x,-y,1/2+z
1/2+x,1/2-y,1/2-z
-x,1/2+y,-z
-x,-y,-z
1/2+x,y,1/2-z
1/2-x,1/2+y,1/2+z
x,1/2-y,z
loop_
_atom_site_type_symbol
_atom_site_label
_atom_site_fract_x
_atom_site_fract_y
_atom_site_fract_z
Si Si1 0.979146 0.074939 0.543259
Si Si2 0.155050 0.334914 0.179941
Si Si3 0.197885 0.988382 0.720432
Si Si4 0.298930 0.046023 0.593662
Si Si5 0.242057 0.870281 0.549105
Si Si6 0.855051 0.508181 0.660504
Si Si7 0.947096 0.165360 0.983530
Si Si8 0.687302 0.660456 0.619572
O O1 0.905633 0.134724 0.495278
O O2 0.144951 0.092397 0.572728
O O3 0.872410 0.047354 0.600835
O O4 0.000000 0.000000 0.500000
O O5 0.156540 0.250000 0.208969
O O6 0.227946 0.402333 0.220790
O O7 0.260647 0.335020 0.117588
O O8 0.979310 0.351273 0.155369
O O9 0.228608 0.019341 0.789155
O O10 0.022439 0.987946 0.695133
O O11 0.294241 0.033140 0.667187
O O12 0.434463 0.095773 0.564721
O O13 0.284689 0.960603 0.563498
O O14 0.381871 0.834374 0.511422
O O15 0.805432 0.593524 0.638208
O O16 0.908912 0.250000 0.957570
O O17 0.844942 0.151479 0.045713
O O18 0.732407 0.750000 0.630768
#
# Coordination Sequence:
#
# PCOD9462528 Si02
#       8
#     8   8   8   8   8   8   8   8
#     4   9  18  32  52  76 102 130 166 217 267 308
#     4   9  18  33  49  71 105 142 175 208 244 296
#     4  10  22  34  50  71  97 133 174 212 253 305
#     4   9  18  33  49  71 100 133 168 206 254 303
#     4   9  16  29  51  76 102 132 168 211 253 297
#     4  11  21  35  51  74 102 132 176 220 257 311
#     4  10  19  31  50  79 107 134 168 208 255 310
#     4   9  18  31  48  70 102 138 171 206 249 296
#
# _framework density 19.949124999999999
#
# number of rings (size 3 to 8) (size 9 to 14) (size 15 to 20)
#    0.000    2.500    0.000    4.500    0.000    4.000 
#    0.000    2.500    0.000    0.000    0.000    8.750 
#    0.000    0.000    0.000    0.000    0.000    0.000 
#
# Total GULP energy -356958.493511 kJ/mol
# GULP energy per Si atom -5577.476461 kJ/mol
# Density = 1.990372 g / cm^3
# Si number density = 19.949125 Si / 1000 Ang^3
#
#
#
# Elastic Constant Matrix: (Units=GPa)
#
#
# Indices 1 2 3 4 5 6 
#
# 1 22.2611 -2.0719 11.6597 0.0000 0.0000 0.0000
# 2 -2.0719 24.9899 -1.5649 0.0000 0.0000 0.0000
# 3 11.6597 -1.5649 56.4658 0.0000 0.0000 0.0000
# 4 0.0000 0.0000 0.0000 3.2597 0.0000 0.0000
# 5 0.0000 0.0000 0.0000 0.0000 34.7748 0.0000
# 6 0.0000 0.0000 0.0000 0.0000 0.0000 2.5998
#
#
#
# Elastic Compliance Matrix: (Units=1/GPa)
#
#
# Indices 1 2 3 4 5 6 
#
# 1 0.050682 0.003553 -0.010367 0.000000 0.000000 0.000000
# 2 0.003553 0.040335 0.000384 0.000000 0.000000 0.000000
# 3 -0.010367 0.000384 0.019861 0.000000 0.000000 0.000000
# 4 0.000000 0.000000 0.000000 0.306780 0.000000 0.000000
# 5 0.000000 0.000000 0.000000 0.000000 0.028756 0.000000
# 6 0.000000 0.000000 0.000000 0.000000 0.000000 0.384650
#
#
# Mechanical properties :
#
#
# Convention : Reuss Voigt Hill
#
# Bulk Modulus (GPa) = 10.20219 13.30695 11.75457
# Shear Modulus (GPa) = 5.70387 14.50644 10.10516
#
# Velocity S-wave (km/s) = 1.69275 2.69954 2.25310
# Velocity P-wave (km/s) = 2.99095 4.04989 3.56001
#
# Compressibility (1/GPa) = 0.09801813
#
# Stress axis : x y z
#
# Youngs Moduli (GPa) = 19.73090 24.79245 50.34948
#
# Poissons Ratio (x) = -0.08808 0.52197
# Poissons Ratio (y) = -0.07010 -0.01935
# Poissons Ratio (z) = 0.20455 -0.00953
#
# Static dielectric constant tensor:
#      x y z
#    x 1.771930 0.000000 0.000000 
#    y 0.000000 1.713710 0.000000 
#    z 0.000000 0.000000 1.729510 
# 
# From -- ./inp_files/30953.got.cif
#   From: 2010.05.17/outbox.cif.g08.bks.cpg/sg62_16_cif.got.tgz:30953.got - 2010.06.03 15:25:27.
