data_PCOD9462248
_publ_section_title
;
Structure prediction by ZEFSAII (Michael W. Deem and Ramdas Pophale) SiO2 
 PCOD9462248
Probable space group: P N M A
;
_chemical_formula_sum "Si O2"
_cell_formula_units_Z 32
_cell_length_a 10.731048
_cell_length_b 11.263328
_cell_length_c 9.741197
_cell_angle_alpha 90.000000
_cell_angle_beta 90.000000
_cell_angle_gamma 90.000000
_cell_volume 1177.392311
_symmetry_space_group_name_H-M "P N M A"
_symmetry_group_IT_number 62
_symmetry_cell_setting 'orthorhombic'
loop_
_space_group_symop_operation_xyz
x,y,z
1/2-x,-y,1/2+z
1/2+x,1/2-y,1/2-z
-x,1/2+y,-z
-x,-y,-z
1/2+x,y,1/2-z
1/2-x,1/2+y,1/2+z
x,1/2-y,z
loop_
_atom_site_type_symbol
_atom_site_label
_atom_site_fract_x
_atom_site_fract_y
_atom_site_fract_z
Si Si1 0.164342 0.250000 0.012968
Si Si2 0.932785 0.750000 0.697321
Si Si3 0.026373 0.008575 0.659989
Si Si4 0.139218 0.002635 0.922298
Si Si5 0.751990 0.250000 0.990867
Si Si6 0.935978 0.250000 0.786538
O O1 0.211517 0.117460 0.980818
O O2 0.033350 0.250000 0.919788
O O3 0.163758 0.250000 0.177837
O O4 0.993633 0.622683 0.716159
O O5 0.887984 0.750000 0.540033
O O6 0.956624 0.127335 0.709524
O O7 0.146732 0.023403 0.757538
O O8 0.000000 0.000000 0.500000
O O9 0.196385 0.874317 0.951694
O O10 0.000000 0.000000 0.000000
O O11 0.794090 0.250000 0.836492
#
# Coordination Sequence:
#
# PCOD9462248 Si02
#       6
#     4   4   8   8   4   4
#     4  10  18  38  72  92 106 169 224 263 293 388
#     4  12  23  38  59  98 137 152 208 280 324 371
#     4  11  22  40  67  94 123 165 220 269 309 381
#     4  11  18  40  72  86 115 169 227 253 308 395
#     4  12  22  37  63  96 125 166 209 267 331 375
#     4  10  19  41  72  90 120 175 223 256 322 398
#
# _framework density 27.178705000000001
#
# number of rings (size 3 to 8) (size 9 to 14) (size 15 to 20)
#    0.000    1.000    7.500    1.500    0.000    0.000 
#    9.000    1.250    0.000    0.000    0.000    0.000 
#    0.000    0.000    0.000    0.000    0.000    0.000 
#
# Total GULP energy -178292.108929 kJ/mol
# GULP energy per Si atom -5571.628404 kJ/mol
# Density = 2.711685 g / cm^3
# Si number density = 27.178705 Si / 1000 Ang^3
#
#
#
# Elastic Constant Matrix: (Units=GPa)
#
#
# Indices 1 2 3 4 5 6 
#
# 1 29.0481 30.1445 -10.2235 0.0000 0.0000 0.0000
# 2 30.1445 286.6132 54.7025 0.0000 0.0000 0.0000
# 3 -10.2235 54.7025 125.3663 0.0000 0.0000 0.0000
# 4 0.0000 0.0000 0.0000 49.3058 0.0000 0.0000
# 5 0.0000 0.0000 0.0000 0.0000 23.8181 0.0000
# 6 0.0000 0.0000 0.0000 0.0000 0.0000 30.9248
#
#
#
# Elastic Compliance Matrix: (Units=1/GPa)
#
#
# Indices 1 2 3 4 5 6 
#
# 1 0.042272 -0.005567 0.005877 0.000000 0.000000 0.000000
# 2 -0.005567 0.004539 -0.002435 0.000000 0.000000 0.000000
# 3 0.005877 -0.002435 0.009518 0.000000 0.000000 0.000000
# 4 0.000000 0.000000 0.000000 0.020282 0.000000 0.000000
# 5 0.000000 0.000000 0.000000 0.000000 0.041985 0.000000
# 6 0.000000 0.000000 0.000000 0.000000 0.000000 0.032337
#
#
# Mechanical properties :
#
#
# Convention : Reuss Voigt Hill
#
# Bulk Modulus (GPa) = 19.20207 65.58607 42.39407
# Shear Modulus (GPa) = 28.97835 45.23667 37.10751
#
# Velocity S-wave (km/s) = 3.26884 4.08415 3.69903
# Velocity P-wave (km/s) = 4.61817 6.81353 5.82030
#
# Compressibility (1/GPa) = 0.05207772
#
# Stress axis : x y z
#
# Youngs Moduli (GPa) = 23.65657 220.29996 105.06179
#
# Poissons Ratio (x) = 1.22652 -0.61740
# Poissons Ratio (y) = 0.13171 0.25579
# Poissons Ratio (z) = -0.13902 0.53636
#
# Static dielectric constant tensor:
#      x y z
#    x 2.242240 0.000000 0.000000 
#    y 0.000000 2.061890 0.000000 
#    z 0.000000 0.000000 2.169650 
# 
# From -- ./inp_files/5895.got.cif
#   From: 2010.05.17/outbox.cif.g08.bks.cpg/sg62_3_cif.got.tgz:5895.got - 2010.06.03 15:25:27.
