data_PCOD9462937
_publ_section_title
;
Structure prediction by ZEFSAII (Michael W. Deem and Ramdas Pophale) SiO2 
 PCOD9462937
Probable space group: P N M A
;
_chemical_formula_sum "Si O2"
_cell_formula_units_Z 56
_cell_length_a 15.473933
_cell_length_b 8.770146
_cell_length_c 21.930266
_cell_angle_alpha 90.000000
_cell_angle_beta 90.000000
_cell_angle_gamma 90.000000
_cell_volume 2976.126828
_symmetry_space_group_name_H-M "P N M A"
_symmetry_group_IT_number 62
_symmetry_cell_setting 'orthorhombic'
loop_
_space_group_symop_operation_xyz
x,y,z
1/2-x,-y,1/2+z
1/2+x,1/2-y,1/2-z
-x,1/2+y,-z
-x,-y,-z
1/2+x,y,1/2-z
1/2-x,1/2+y,1/2+z
x,1/2-y,z
loop_
_atom_site_type_symbol
_atom_site_label
_atom_site_fract_x
_atom_site_fract_y
_atom_site_fract_z
Si Si1 0.188324 0.934525 0.659895
Si Si2 0.437504 0.068705 0.948792
Si Si3 0.624681 0.435646 0.293146
Si Si4 0.373835 0.919316 0.482882
Si Si5 0.291793 0.572417 0.024653
Si Si6 0.000798 0.577713 0.901985
Si Si7 0.493829 0.934360 0.819662
O O1 0.191225 0.750000 0.655354
O O2 0.276012 0.984585 0.695062
O O3 0.095422 0.975785 0.689384
O O4 0.191252 0.000354 0.591206
O O5 0.443453 0.250000 0.947979
O O6 0.463810 0.001619 0.883867
O O7 0.500000 0.000000 0.000000
O O8 0.345167 0.012949 0.972361
O O9 0.627064 0.250000 0.292811
O O10 0.563393 0.479992 0.349755
O O11 0.573371 0.484384 0.232637
O O12 0.334546 0.750000 0.477685
O O13 0.444119 0.909643 0.536747
O O14 0.306626 0.043626 0.506110
O O15 0.420010 0.971241 0.420841
O O16 0.314386 0.750000 0.026199
O O17 0.029807 0.750000 0.885413
O O18 0.490841 0.750000 0.822435
#
# Coordination Sequence:
#
# PCOD9462937 Si02
#       7
#     8   8   8   8   8   8   8
#     4  10  19  36  61  85 115 157 200 244 294 349
#     4  12  24  40  62  88 120 152 189 243 306 358
#     4   9  18  36  59  86 119 160 206 246 291 358
#     4  10  19  33  54  82 118 154 193 245 299 347
#     4  12  23  36  59  88 116 150 197 245 296 359
#     4   9  17  32  54  81 116 155 198 242 290 349
#     4  10  21  38  62  88 118 157 201 246 298 355
#
# _framework density 18.816402
#
# number of rings (size 3 to 8) (size 9 to 14) (size 15 to 20)
#    0.000    1.714    2.857    3.000    0.000    0.571 
#    2.571    1.429    0.000    0.000    0.000    0.000 
#    0.000    0.000    0.000    0.000    0.000    0.000 
#
# Total GULP energy -312299.890373 kJ/mol
# GULP energy per Si atom -5576.783757 kJ/mol
# Density = 1.877358 g / cm^3
# Si number density = 18.816402 Si / 1000 Ang^3
#
#
#
# Elastic Constant Matrix: (Units=GPa)
#
#
# Indices 1 2 3 4 5 6 
#
# 1 87.7808 25.5955 61.1468 0.0000 0.0000 0.0000
# 2 25.5955 40.6387 28.9071 0.0000 0.0000 0.0000
# 3 61.1468 28.9071 113.0455 0.0000 0.0000 0.0000
# 4 0.0000 0.0000 0.0000 24.0060 0.0000 0.0000
# 5 0.0000 0.0000 0.0000 0.0000 28.3607 0.0000
# 6 0.0000 0.0000 0.0000 0.0000 0.0000 21.4492
#
#
#
# Elastic Compliance Matrix: (Units=1/GPa)
#
#
# Indices 1 2 3 4 5 6 
#
# 1 0.019334 -0.005792 -0.008977 0.000000 0.000000 0.000000
# 2 -0.005792 0.031813 -0.005002 0.000000 0.000000 0.000000
# 3 -0.008977 -0.005002 0.014981 0.000000 0.000000 0.000000
# 4 0.000000 0.000000 0.000000 0.041656 0.000000 0.000000
# 5 0.000000 0.000000 0.000000 0.000000 0.035260 0.000000
# 6 0.000000 0.000000 0.000000 0.000000 0.000000 0.046622
#
#
# Mechanical properties :
#
#
# Convention : Reuss Voigt Hill
#
# Bulk Modulus (GPa) = 37.61347 52.52932 45.07139
# Shear Modulus (GPa) = 21.00232 23.15090 22.07661
#
# Velocity S-wave (km/s) = 3.34454 3.51145 3.42901
# Velocity P-wave (km/s) = 5.91166 6.66466 6.29942
#
# Compressibility (1/GPa) = 0.02658622
#
# Stress axis : x y z
#
# Youngs Moduli (GPa) = 51.72281 31.43367 66.75256
#
# Poissons Ratio (x) = 0.18205 0.59922
# Poissons Ratio (y) = 0.29956 0.33391
# Poissons Ratio (z) = 0.46430 0.15724
#
# Static dielectric constant tensor:
#      x y z
#    x 1.960170 0.000000 0.000000 
#    y 0.000000 1.672250 0.000000 
#    z 0.000000 0.000000 1.605030 
# 
# From -- ./inp_files/27078.got.cif
#   From: 2010.05.17/outbox.cif.g08.bks.cpg/sg62_14_cif.got.tgz:27078.got - 2010.06.03 15:25:27.
