data_PCOD9462831
_publ_section_title
;
Structure prediction by ZEFSAII (Michael W. Deem and Ramdas Pophale) SiO2 
 PCOD9462831
Probable space group: P N M A
;
_chemical_formula_sum "Si O2"
_cell_formula_units_Z 56
_cell_length_a 19.685494
_cell_length_b 8.553336
_cell_length_c 19.929872
_cell_angle_alpha 90.000000
_cell_angle_beta 90.000000
_cell_angle_gamma 90.000000
_cell_volume 3355.724973
_symmetry_space_group_name_H-M "P N M A"
_symmetry_group_IT_number 62
_symmetry_cell_setting 'orthorhombic'
loop_
_space_group_symop_operation_xyz
x,y,z
1/2-x,-y,1/2+z
1/2+x,1/2-y,1/2-z
-x,1/2+y,-z
-x,-y,-z
1/2+x,y,1/2-z
1/2-x,1/2+y,1/2+z
x,1/2-y,z
loop_
_atom_site_type_symbol
_atom_site_label
_atom_site_fract_x
_atom_site_fract_y
_atom_site_fract_z
Si Si1 0.850045 0.563018 0.767124
Si Si2 0.766563 0.438353 0.160821
Si Si3 0.132594 0.438234 0.733834
Si Si4 0.248018 0.439166 0.627895
Si Si5 0.480731 0.437424 0.800340
Si Si6 0.555194 0.062297 0.052301
Si Si7 0.290641 0.940760 0.979529
O O1 0.855095 0.750000 0.766656
O O2 0.798174 0.516082 0.706965
O O3 0.813894 0.505915 0.834854
O O4 0.922792 0.490599 0.751207
O O5 0.769500 0.250000 0.161260
O O6 0.832723 0.502258 0.198118
O O7 0.752770 0.491495 0.085026
O O8 0.132421 0.250000 0.735011
O O9 0.182799 0.486574 0.673038
O O10 0.055909 0.491712 0.721144
O O11 0.251419 0.250000 0.629076
O O12 0.237451 0.491394 0.551520
O O13 0.481543 0.250000 0.804670
O O14 0.461929 0.504285 0.873243
O O15 0.554294 0.250000 0.051832
O O16 0.631123 0.011215 0.031325
O O17 0.500000 0.000000 0.000000
O O18 0.290476 0.750000 0.979694
#
# Coordination Sequence:
#
# PCOD9462831 Si02
#       7
#     8   8   8   8   8   8   8
#     4  10  19  33  51  74 103 132 169 215 258 302
#     4   9  17  32  52  73  97 132 172 210 257 308
#     4   9  19  33  49  73 102 132 169 213 253 300
#     4   9  17  32  53  73  98 134 170 204 250 306
#     4  11  21  34  52  75 103 138 176 211 256 310
#     4  11  21  34  50  75 111 143 172 207 254 310
#     4   9  17  32  52  73 102 136 168 208 256 305
#
# _framework density 16.687899000000002
#
# number of rings (size 3 to 8) (size 9 to 14) (size 15 to 20)
#    0.000    2.286    1.429    2.143    0.000    4.000 
#    0.000    5.000    0.000    0.857    0.000    0.000 
#    0.000    0.000    0.000    0.000    0.000    0.000 
#
# Total GULP energy -312434.971493 kJ/mol
# GULP energy per Si atom -5579.195920 kJ/mol
# Density = 1.664992 g / cm^3
# Si number density = 16.687899 Si / 1000 Ang^3
#
#
#
# Elastic Constant Matrix: (Units=GPa)
#
#
# Indices 1 2 3 4 5 6 
#
# 1 77.3859 15.8386 73.7221 0.0000 0.0000 0.0000
# 2 15.8386 19.8864 20.9884 0.0000 0.0000 0.0000
# 3 73.7221 20.9884 154.9459 0.0000 0.0000 0.0000
# 4 0.0000 0.0000 0.0000 25.5126 0.0000 0.0000
# 5 0.0000 0.0000 0.0000 0.0000 25.7852 0.0000
# 6 0.0000 0.0000 0.0000 0.0000 0.0000 21.5788
#
#
#
# Elastic Compliance Matrix: (Units=1/GPa)
#
#
# Indices 1 2 3 4 5 6 
#
# 1 0.024814 -0.008521 -0.010652 0.000000 0.000000 0.000000
# 2 -0.008521 0.061600 -0.004290 0.000000 0.000000 0.000000
# 3 -0.010652 -0.004290 0.012103 0.000000 0.000000 0.000000
# 4 0.000000 0.000000 0.000000 0.039196 0.000000 0.000000
# 5 0.000000 0.000000 0.000000 0.000000 0.038782 0.000000
# 6 0.000000 0.000000 0.000000 0.000000 0.000000 0.046342
#
#
# Mechanical properties :
#
#
# Convention : Reuss Voigt Hill
#
# Bulk Modulus (GPa) = 19.38312 52.59070 35.98691
# Shear Modulus (GPa) = 17.42403 24.01991 20.72197
#
# Velocity S-wave (km/s) = 3.23478 3.79801 3.52765
# Velocity P-wave (km/s) = 5.05885 7.12852 6.18093
#
# Compressibility (1/GPa) = 0.05159127
#
# Stress axis : x y z
#
# Youngs Moduli (GPa) = 40.29987 16.23380 82.62306
#
# Poissons Ratio (x) = 0.13832 0.88011
# Poissons Ratio (y) = 0.34339 0.35445
# Poissons Ratio (z) = 0.42928 0.06964
#
# Static dielectric constant tensor:
#      x y z
#    x 1.549060 0.000000 0.000000 
#    y 0.000000 1.570690 0.000000 
#    z 0.000000 0.000000 1.552740 
# 
# From -- ./inp_files/27524.got.cif
#   From: 2010.05.17/outbox.cif.g08.bks.cpg/sg62_14_cif.got.tgz:27524.got - 2010.06.03 15:25:27.
