data_PCOD9462995
_publ_section_title
;
Structure prediction by ZEFSAII (Michael W. Deem and Ramdas Pophale) SiO2 
 PCOD9462995
Probable space group: P N M A
;
_chemical_formula_sum "Si O2"
_cell_formula_units_Z 56
_cell_length_a 15.723064
_cell_length_b 7.394599
_cell_length_c 19.098997
_cell_angle_alpha 90.000000
_cell_angle_beta 90.000000
_cell_angle_gamma 90.000000
_cell_volume 2220.559274
_symmetry_space_group_name_H-M "P N M A"
_symmetry_group_IT_number 62
_symmetry_cell_setting 'orthorhombic'
loop_
_space_group_symop_operation_xyz
x,y,z
1/2-x,-y,1/2+z
1/2+x,1/2-y,1/2-z
-x,1/2+y,-z
-x,-y,-z
1/2+x,y,1/2-z
1/2-x,1/2+y,1/2+z
x,1/2-y,z
loop_
_atom_site_type_symbol
_atom_site_label
_atom_site_fract_x
_atom_site_fract_y
_atom_site_fract_z
Si Si1 0.010620 0.960365 0.740127
Si Si2 0.498506 0.031334 0.603069
Si Si3 0.204915 0.528227 0.749992
Si Si4 0.147032 0.471439 0.352858
Si Si5 0.762570 0.456484 0.400906
Si Si6 0.859181 0.546035 0.011962
Si Si7 0.400953 0.963355 0.005274
O O1 0.020412 0.750000 0.721514
O O2 0.106826 0.035243 0.746891
O O3 0.938662 0.033020 0.687741
O O4 0.975743 0.975427 0.819118
O O5 0.496572 0.250000 0.597768
O O6 0.593208 0.967741 0.579611
O O7 0.433361 0.953010 0.546878
O O8 0.203190 0.750000 0.750440
O O9 0.267276 0.472291 0.812551
O O10 0.246116 0.467839 0.676153
O O11 0.146266 0.250000 0.352141
O O12 0.141642 0.530163 0.433230
O O13 0.731278 0.250000 0.397225
O O14 0.715111 0.544275 0.467164
O O15 0.860011 0.454570 0.425193
O O16 0.833567 0.750000 0.030891
O O17 0.388955 0.750000 0.010329
O O18 0.500000 0.000000 0.000000
#
# Coordination Sequence:
#
# PCOD9462995 Si02
#       7
#     8   8   8   8   8   8   8
#     4  10  19  33  56  78 104 144 189 236 287 337
#     4  10  20  33  51  80 115 146 180 226 282 341
#     4   9  18  33  56  83 109 146 197 242 285 344
#     4   9  19  36  57  84 113 149 201 246 281 341
#     4  10  20  37  61  84 111 147 191 241 292 344
#     4   9  19  35  55  79 109 149 188 224 275 342
#     4  11  23  39  61  87 118 154 198 248 295 348
#
# _framework density 25.218872000000001
#
# number of rings (size 3 to 8) (size 9 to 14) (size 15 to 20)
#    0.000    2.286    0.000    2.571    2.000    5.714 
#    0.000    3.571    0.000    2.571    0.000    0.000 
#    0.000    0.000    0.000    0.000    0.000    0.000 
#
# Total GULP energy -312955.374166 kJ/mol
# GULP energy per Si atom -5588.488824 kJ/mol
# Density = 2.516147 g / cm^3
# Si number density = 25.218872 Si / 1000 Ang^3
#
#
#
# Elastic Constant Matrix: (Units=GPa)
#
#
# Indices 1 2 3 4 5 6 
#
# 1 110.8084 6.9619 21.1809 0.0000 0.0000 0.0000
# 2 6.9619 104.2442 -3.6782 0.0000 0.0000 0.0000
# 3 21.1809 -3.6782 112.6327 0.0000 0.0000 0.0000
# 4 0.0000 0.0000 0.0000 3.3179 0.0000 0.0000
# 5 0.0000 0.0000 0.0000 0.0000 45.0485 0.0000
# 6 0.0000 0.0000 0.0000 0.0000 0.0000 2.4529
#
#
#
# Elastic Compliance Matrix: (Units=1/GPa)
#
#
# Indices 1 2 3 4 5 6 
#
# 1 0.009411 -0.000692 -0.001792 0.000000 0.000000 0.000000
# 2 -0.000692 0.009655 0.000445 0.000000 0.000000 0.000000
# 3 -0.001792 0.000445 0.009230 0.000000 0.000000 0.000000
# 4 0.000000 0.000000 0.000000 0.301395 0.000000 0.000000
# 5 0.000000 0.000000 0.000000 0.000000 0.022198 0.000000
# 6 0.000000 0.000000 0.000000 0.000000 0.000000 0.407682
#
#
# Mechanical properties :
#
#
# Convention : Reuss Voigt Hill
#
# Bulk Modulus (GPa) = 41.29135 41.84604 41.56870
# Shear Modulus (GPa) = 6.47903 30.37858 18.42880
#
# Velocity S-wave (km/s) = 1.60459 3.47450 2.70618
# Velocity P-wave (km/s) = 4.45440 5.72061 5.12674
#
# Compressibility (1/GPa) = 0.02421814
#
# Stress axis : x y z
#
# Youngs Moduli (GPa) = 106.26267 103.57574 108.34227
#
# Poissons Ratio (x) = 0.07165 0.19418
# Poissons Ratio (y) = 0.07350 -0.04825
# Poissons Ratio (z) = 0.19045 -0.04613
#
# Static dielectric constant tensor:
#      x y z
#    x 2.072670 0.000000 0.000000 
#    y 0.000000 2.018480 0.000000 
#    z 0.000000 0.000000 1.940060 
# 
# From -- ./inp_files/27218.got.cif
#   From: 2010.05.17/outbox.cif.g08.bks.cpg/sg62_14_cif.got.tgz:27218.got - 2010.06.03 15:25:27.
