data_PCOD9462986
_publ_section_title
;
Structure prediction by ZEFSAII (Michael W. Deem and Ramdas Pophale) SiO2 
 PCOD9462986
Probable space group: P N M A
;
_chemical_formula_sum "Si O2"
_cell_formula_units_Z 56
_cell_length_a 21.721637
_cell_length_b 9.010445
_cell_length_c 14.859633
_cell_angle_alpha 90.000000
_cell_angle_beta 90.000000
_cell_angle_gamma 90.000000
_cell_volume 2908.351376
_symmetry_space_group_name_H-M "P N M A"
_symmetry_group_IT_number 62
_symmetry_cell_setting 'orthorhombic'
loop_
_space_group_symop_operation_xyz
x,y,z
1/2-x,-y,1/2+z
1/2+x,1/2-y,1/2-z
-x,1/2+y,-z
-x,-y,-z
1/2+x,y,1/2-z
1/2-x,1/2+y,1/2+z
x,1/2-y,z
loop_
_atom_site_type_symbol
_atom_site_label
_atom_site_fract_x
_atom_site_fract_y
_atom_site_fract_z
Si Si1 0.464639 0.079046 0.643333
Si Si2 0.588025 0.572695 0.647111
Si Si3 0.567534 0.071358 0.005748
Si Si4 0.769581 0.926315 0.821905
Si Si5 0.612419 0.071656 0.203304
Si Si6 0.862831 0.572348 0.323147
Si Si7 0.657978 0.921689 0.476297
O O1 0.482876 0.250000 0.656438
O O2 0.407888 0.075487 0.574218
O O3 0.522730 0.985061 0.611677
O O4 0.437923 0.009580 0.735116
O O5 0.587265 0.750000 0.653889
O O6 0.597846 0.498099 0.743056
O O7 0.642787 0.532695 0.577996
O O8 0.560714 0.250000 0.004610
O O9 0.608221 0.028768 0.919318
O O10 0.601308 0.032161 0.099483
O O11 0.500000 0.000000 0.000000
O O12 0.759758 0.750000 0.818328
O O13 0.820844 0.965443 0.746057
O O14 0.705867 0.011014 0.811346
O O15 0.798175 0.975271 0.917725
O O16 0.605063 0.250000 0.212988
O O17 0.863243 0.750000 0.317226
O O18 0.680155 0.750000 0.474693
#
# Coordination Sequence:
#
# PCOD9462986 Si02
#       7
#     8   8   8   8   8   8   8
#     4  10  19  33  55  85 116 143 177 223 276 332
#     4  11  22  36  55  80 111 148 186 225 275 330
#     4  10  22  39  59  83 112 148 188 233 285 338
#     4  10  21  38  60  85 111 144 188 232 279 339
#     4   9  19  37  59  81 109 147 187 227 275 335
#     4  11  24  40  57  81 114 149 187 236 288 335
#     4   9  20  37  57  81 112 149 184 224 275 331
#
# _framework density 19.254895000000001
#
# number of rings (size 3 to 8) (size 9 to 14) (size 15 to 20)
#    0.000    2.000    0.000    3.000    0.000    7.429 
#    0.000    2.857    0.000    0.000    0.000    0.000 
#    0.000    0.000    0.000    0.000    0.000    0.000 
#
# Total GULP energy -312767.359729 kJ/mol
# GULP energy per Si atom -5585.131424 kJ/mol
# Density = 1.921107 g / cm^3
# Si number density = 19.254895 Si / 1000 Ang^3
#
#
#
# Elastic Constant Matrix: (Units=GPa)
#
#
# Indices 1 2 3 4 5 6 
#
# 1 64.8817 23.8450 7.3197 0.0000 0.0000 0.0000
# 2 23.8450 42.0311 25.1034 0.0000 0.0000 0.0000
# 3 7.3197 25.1034 103.9267 0.0000 0.0000 0.0000
# 4 0.0000 0.0000 0.0000 24.0969 0.0000 0.0000
# 5 0.0000 0.0000 0.0000 0.0000 14.9202 0.0000
# 6 0.0000 0.0000 0.0000 0.0000 0.0000 37.2705
#
#
#
# Elastic Compliance Matrix: (Units=1/GPa)
#
#
# Indices 1 2 3 4 5 6 
#
# 1 0.019679 -0.012079 0.001532 0.000000 0.000000 0.000000
# 2 -0.012079 0.035217 -0.007656 0.000000 0.000000 0.000000
# 3 0.001532 -0.007656 0.011364 0.000000 0.000000 0.000000
# 4 0.000000 0.000000 0.000000 0.041499 0.000000 0.000000
# 5 0.000000 0.000000 0.000000 0.000000 0.067023 0.000000
# 6 0.000000 0.000000 0.000000 0.000000 0.000000 0.026831
#
#
# Mechanical properties :
#
#
# Convention : Reuss Voigt Hill
#
# Bulk Modulus (GPa) = 33.49736 35.93066 34.71401
# Shear Modulus (GPa) = 20.16366 25.56229 22.86298
#
# Velocity S-wave (km/s) = 3.23955 3.64754 3.44958
# Velocity P-wave (km/s) = 5.60602 6.03659 5.82529
#
# Compressibility (1/GPa) = 0.02985310
#
# Stress axis : x y z
#
# Youngs Moduli (GPa) = 50.81519 28.39516 88.00044
#
# Poissons Ratio (x) = 0.34299 -0.13479
# Poissons Ratio (y) = 0.61381 0.67373
# Poissons Ratio (z) = -0.07783 0.21739
#
# Static dielectric constant tensor:
#      x y z
#    x 1.681610 0.000000 0.000000 
#    y 0.000000 1.645200 0.000000 
#    z 0.000000 0.000000 1.688660 
# 
# From -- ./inp_files/20422.got.cif
#   From: 2010.05.17/outbox.cif.g08.bks.cpg/sg62_11_cif.got.tgz:20422.got - 2010.06.03 15:25:27.
