data_PCOD9462209
_publ_section_title
;
Structure prediction by ZEFSAII (Michael W. Deem and Ramdas Pophale) SiO2 
 PCOD9462209
Probable space group: P N M A
;
_chemical_formula_sum "Si O2"
_cell_formula_units_Z 44
_cell_length_a 5.020883
_cell_length_b 14.813127
_cell_length_c 29.874270
_cell_angle_alpha 90.000000
_cell_angle_beta 90.000000
_cell_angle_gamma 90.000000
_cell_volume 2221.898160
_symmetry_space_group_name_H-M "P N M A"
_symmetry_group_IT_number 62
_symmetry_cell_setting 'orthorhombic'
loop_
_space_group_symop_operation_xyz
x,y,z
1/2-x,-y,1/2+z
1/2+x,1/2-y,1/2-z
-x,1/2+y,-z
-x,-y,-z
1/2+x,y,1/2-z
1/2-x,1/2+y,1/2+z
x,1/2-y,z
loop_
_atom_site_type_symbol
_atom_site_label
_atom_site_fract_x
_atom_site_fract_y
_atom_site_fract_z
Si Si1 0.292143 0.650726 0.598047
Si Si2 0.649046 0.143400 0.779511
Si Si3 0.993459 0.250000 0.974501
Si Si4 0.281140 0.081725 0.930181
Si Si5 0.702770 0.114329 0.038633
Si Si6 0.277109 0.043525 0.629347
O O1 0.255836 0.750000 0.618012
O O2 0.586482 0.642700 0.577398
O O3 0.239039 0.564670 0.628889
O O4 0.088445 0.641040 0.556335
O O5 0.355384 0.125620 0.760752
O O6 0.670868 0.250000 0.790662
O O7 0.725085 0.086679 0.822799
O O8 0.189325 0.171110 0.954291
O O9 0.798819 0.170478 0.996445
O O10 0.566218 0.084002 0.906048
O O11 0.067532 0.063538 0.890509
O O12 0.277985 0.994205 0.962729
#
# Coordination Sequence:
#
# PCOD9462209 Si02
#       6
#     8   8   4   8   8   8
#     4  10  18  36  58  78 101 149 183 223 270 315
#     4  10  21  37  61  85 109 143 173 210 268 330
#     4  12  22  36  56  74 112 148 186 244 262 324
#     4  10  24  35  53  82 106 154 178 229 279 307
#     4  10  21  36  52  74 109 140 196 228 266 320
#     4  10  22  39  56  81 117 133 185 225 264 335
#
# _framework density 19.802889
#
# number of rings (size 3 to 8) (size 9 to 14) (size 15 to 20)
#    0.000    1.818    1.818    1.636    2.545    2.909 
#    0.000    5.455    0.000    1.091    0.000    0.000 
#    0.000    0.000    0.000    0.000    0.000    0.000 
#
# Total GULP energy -245004.519889 kJ/mol
# GULP energy per Si atom -5568.284543 kJ/mol
# Density = 1.975782 g / cm^3
# Si number density = 19.802889 Si / 1000 Ang^3
#
#
#
# Elastic Constant Matrix: (Units=GPa)
#
#
# Indices 1 2 3 4 5 6 
#
# 1 28.4864 -19.1602 0.3035 0.0000 0.0000 0.0000
# 2 -19.1602 131.1968 48.6906 0.0000 0.0000 0.0000
# 3 0.3035 48.6906 59.8802 0.0000 0.0000 0.0000
# 4 0.0000 0.0000 0.0000 17.9525 0.0000 0.0000
# 5 0.0000 0.0000 0.0000 0.0000 15.9470 0.0000
# 6 0.0000 0.0000 0.0000 0.0000 0.0000 0.9110
#
#
#
# Elastic Compliance Matrix: (Units=1/GPa)
#
#
# Indices 1 2 3 4 5 6 
#
# 1 0.041028 0.008692 -0.007276 0.000000 0.000000 0.000000
# 2 0.008692 0.012758 -0.010418 0.000000 0.000000 0.000000
# 3 -0.007276 -0.010418 0.025208 0.000000 0.000000 0.000000
# 4 0.000000 0.000000 0.000000 0.055703 0.000000 0.000000
# 5 0.000000 0.000000 0.000000 0.000000 0.062708 0.000000
# 6 0.000000 0.000000 0.000000 0.000000 0.000000 1.097733
#
#
# Mechanical properties :
#
#
# Convention : Reuss Voigt Hill
#
# Bulk Modulus (GPa) = 16.39587 31.02570 23.71079
# Shear Modulus (GPa) = 3.74961 19.61071 11.68016
#
# Velocity S-wave (km/s) = 1.37753 3.15031 2.43126
# Velocity P-wave (km/s) = 3.29053 5.37902 4.45878
#
# Compressibility (1/GPa) = 0.06099097
#
# Stress axis : x y z
#
# Youngs Moduli (GPa) = 24.37341 78.38267 39.66982
#
# Poissons Ratio (x) = -0.68131 0.28863
# Poissons Ratio (y) = -0.21186 0.41328
# Poissons Ratio (z) = 0.17734 0.81659
#
# Static dielectric constant tensor:
#      x y z
#    x 1.712540 0.000000 0.000000 
#    y 0.000000 1.706420 0.000000 
#    z 0.000000 0.000000 1.664690 
# 
# From -- ./inp_files/30348.got.cif
#   From: 2010.05.17/outbox.cif.g08.bks.cpg/sg62_16_cif.got.tgz:30348.got - 2010.06.03 15:25:27.
