data_PCOD9462157
_publ_section_title
;
Structure prediction by ZEFSAII (Michael W. Deem and Ramdas Pophale) SiO2 
 PCOD9462157
Probable space group: P N M A
;
_chemical_formula_sum "Si O2"
_cell_formula_units_Z 64
_cell_length_a 17.422419
_cell_length_b 7.775771
_cell_length_c 20.901771
_cell_angle_alpha 90.000000
_cell_angle_beta 90.000000
_cell_angle_gamma 90.000000
_cell_volume 2831.620197
_symmetry_space_group_name_H-M "P N M A"
_symmetry_group_IT_number 62
_symmetry_cell_setting 'orthorhombic'
loop_
_space_group_symop_operation_xyz
x,y,z
1/2-x,-y,1/2+z
1/2+x,1/2-y,1/2-z
-x,1/2+y,-z
-x,-y,-z
1/2+x,y,1/2-z
1/2-x,1/2+y,1/2+z
x,1/2-y,z
loop_
_atom_site_type_symbol
_atom_site_label
_atom_site_fract_x
_atom_site_fract_y
_atom_site_fract_z
Si Si1 0.085429 0.450098 0.295731
Si Si2 0.050802 0.952965 0.151052
Si Si3 0.218561 0.948473 0.378235
Si Si4 0.881362 0.958261 0.146794
Si Si5 0.787385 0.458919 0.885702
Si Si6 0.839607 0.542887 0.292503
Si Si7 0.464293 0.444563 0.106470
Si Si8 0.338844 0.952035 0.011484
O O1 0.064325 0.250000 0.289371
O O2 0.066389 0.531698 0.227404
O O3 0.171896 0.463357 0.321274
O O4 0.034561 0.526296 0.354259
O O5 0.048630 0.750000 0.136417
O O6 0.126008 0.026018 0.115806
O O7 0.966920 0.026233 0.134101
O O8 0.225552 0.750000 0.358405
O O9 0.305126 0.015646 0.390626
O O10 0.171525 0.961915 0.443481
O O11 0.886708 0.750000 0.140665
O O12 0.859306 0.997769 0.220134
O O13 0.790171 0.250000 0.889788
O O14 0.744722 0.499261 0.818830
O O15 0.729027 0.516264 0.941154
O O16 0.849960 0.750000 0.301100
O O17 0.898507 0.449892 0.339257
O O18 0.486194 0.250000 0.089017
O O19 0.420817 0.523415 0.045789
O O20 0.327720 0.750000 0.001874
#
# Coordination Sequence:
#
# PCOD9462157 Si02
#       8
#     8   8   8   8   8   8   8   8
#     4  11  23  37  54  84 120 147 179 223 280 337
#     4  10  18  34  60  86 112 144 183 225 271 327
#     4  11  23  39  57  79 108 147 192 232 272 324
#     4   9  18  32  55  83 110 142 183 227 272 326
#     4   8  16  30  54  81 106 139 181 225 268 321
#     4   9  15  29  51  78 108 140 177 215 265 322
#     4  10  20  34  54  81 111 143 178 220 270 328
#     4  10  21  39  58  78 108 145 189 231 272 324
#
# _framework density 22.601901000000002
#
# number of rings (size 3 to 8) (size 9 to 14) (size 15 to 20)
#    0.000    2.250    1.250    3.000    0.000    4.000 
#    0.000    8.750    0.000    0.000    0.000    0.000 
#    0.000    0.000    0.000    0.000    0.000    0.000 
#
# Total GULP energy -357171.115515 kJ/mol
# GULP energy per Si atom -5580.798680 kJ/mol
# Density = 2.255046 g / cm^3
# Si number density = 22.601901 Si / 1000 Ang^3
#
#
#
# Elastic Constant Matrix: (Units=GPa)
#
#
# Indices 1 2 3 4 5 6 
#
# 1 64.5416 -10.1692 -4.9287 0.0000 0.0000 0.0000
# 2 -10.1692 29.5360 -8.3422 0.0000 0.0000 0.0000
# 3 -4.9287 -8.3422 35.9831 0.0000 0.0000 0.0000
# 4 0.0000 0.0000 0.0000 16.2500 0.0000 0.0000
# 5 0.0000 0.0000 0.0000 0.0000 30.2821 0.0000
# 6 0.0000 0.0000 0.0000 0.0000 0.0000 -14.2632
#
#
#
# Elastic Compliance Matrix: (Units=1/GPa)
#
#
# Indices 1 2 3 4 5 6 
#
# 1 0.016883 0.006919 0.003917 0.000000 0.000000 0.000000
# 2 0.006919 0.039065 0.010004 0.000000 0.000000 0.000000
# 3 0.003917 0.010004 0.030647 0.000000 0.000000 0.000000
# 4 0.000000 0.000000 0.000000 0.061539 0.000000 0.000000
# 5 0.000000 0.000000 0.000000 0.000000 0.033023 0.000000
# 6 0.000000 0.000000 0.000000 0.000000 0.000000 -0.070110
#
#
# Mechanical properties :
#
#
# Convention : Reuss Voigt Hill
#
# Bulk Modulus (GPa) = 7.79576 9.24227 8.51901
# Shear Modulus (GPa) = 44.59357 16.68717 30.64037
#
# Velocity S-wave (km/s) = 4.44667 2.72013 3.68592
# Velocity P-wave (km/s) = 5.46081 3.73678 4.67889
#
# Compressibility (1/GPa) = 0.12827492
#
# Stress axis : x y z
#
# Youngs Moduli (GPa) = 59.23064 25.59844 32.62997
#
# Poissons Ratio (x) = -0.17712 -0.12780
# Poissons Ratio (y) = -0.40982 -0.32644
# Poissons Ratio (z) = -0.23198 -0.25610
#
# Static dielectric constant tensor:
#      x y z
#    x 1.909890 0.000000 0.000000 
#    y 0.000000 1.804420 0.000000 
#    z 0.000000 0.000000 1.807350 
# 
# From -- ./inp_files/27729.got.cif
#   From: 2010.05.17/outbox.cif.g08.bks.cpg/sg62_14_cif.got.tgz:27729.got - 2010.06.03 15:25:27.
