data_PCOD9462659
_publ_section_title
;
Structure prediction by ZEFSAII (Michael W. Deem and Ramdas Pophale) SiO2 
 PCOD9462659
Probable space group: P N M A
;
_chemical_formula_sum "Si O2"
_cell_formula_units_Z 40
_cell_length_a 16.371354
_cell_length_b 7.773615
_cell_length_c 15.930642
_cell_angle_alpha 90.000000
_cell_angle_beta 90.000000
_cell_angle_gamma 90.000000
_cell_volume 2027.406830
_symmetry_space_group_name_H-M "P N M A"
_symmetry_group_IT_number 62
_symmetry_cell_setting 'orthorhombic'
loop_
_space_group_symop_operation_xyz
x,y,z
1/2-x,-y,1/2+z
1/2+x,1/2-y,1/2-z
-x,1/2+y,-z
-x,-y,-z
1/2+x,y,1/2-z
1/2-x,1/2+y,1/2+z
x,1/2-y,z
loop_
_atom_site_type_symbol
_atom_site_label
_atom_site_fract_x
_atom_site_fract_y
_atom_site_fract_z
Si Si1 0.193833 0.541846 0.558236
Si Si2 0.067294 0.543456 0.429308
Si Si3 0.125567 0.449538 0.054504
Si Si4 0.439871 0.955581 0.198642
Si Si5 0.547715 0.952142 0.612910
O O1 0.197742 0.750000 0.552741
O O2 0.151173 0.479805 0.471291
O O3 0.285278 0.473894 0.570695
O O4 0.133376 0.498950 0.634753
O O5 0.073573 0.750000 0.422002
O O6 0.000000 0.500000 0.500000
O O7 0.024932 0.479512 0.343903
O O8 0.129742 0.250000 0.080480
O O9 0.044612 0.522577 0.099101
O O10 0.105799 0.460403 0.955392
O O11 0.444623 0.750000 0.204644
O O12 0.427355 0.026366 0.291241
O O13 0.546993 0.750000 0.591304
#
# Coordination Sequence:
#
# PCOD9462659 Si02
#       5
#     8   8   8   8   8
#     4   9  17  33  55  77 105 134 168 213 261 307
#     4   8  15  28  48  72  99 132 163 198 248 301
#     4   9  19  36  56  75 101 136 174 215 260 308
#     4  10  19  32  51  77 107 136 172 212 254 305
#     4  10  20  35  54  74 101 139 176 211 257 307
#
# _framework density 19.729637
#
# number of rings (size 3 to 8) (size 9 to 14) (size 15 to 20)
#    0.000    2.800    0.000    1.200    0.000    2.400 
#    3.600    0.000    0.000    0.000    0.000    0.000 
#    0.000    0.000    0.000    0.000    0.000    0.000 
#
# Total GULP energy -222792.361685 kJ/mol
# GULP energy per Si atom -5569.809042 kJ/mol
# Density = 1.968473 g / cm^3
# Si number density = 19.729637 Si / 1000 Ang^3
#
#
#
# Elastic Constant Matrix: (Units=GPa)
#
#
# Indices 1 2 3 4 5 6 
#
# 1 101.0740 2.3271 27.6605 0.0000 0.0000 0.0000
# 2 2.3271 31.3236 -15.2533 0.0000 0.0000 0.0000
# 3 27.6605 -15.2533 76.0049 0.0000 0.0000 0.0000
# 4 0.0000 0.0000 0.0000 10.7386 0.0000 0.0000
# 5 0.0000 0.0000 0.0000 0.0000 10.9049 0.0000
# 6 0.0000 0.0000 0.0000 0.0000 0.0000 8.5035
#
#
#
# Elastic Compliance Matrix: (Units=1/GPa)
#
#
# Indices 1 2 3 4 5 6 
#
# 1 0.011260 -0.003139 -0.004728 0.000000 0.000000 0.000000
# 2 -0.003139 0.036258 0.008419 0.000000 0.000000 0.000000
# 3 -0.004728 0.008419 0.016567 0.000000 0.000000 0.000000
# 4 0.000000 0.000000 0.000000 0.093122 0.000000 0.000000
# 5 0.000000 0.000000 0.000000 0.000000 0.091702 0.000000
# 6 0.000000 0.000000 0.000000 0.000000 0.000000 0.117598
#
#
# Mechanical properties :
#
#
# Convention : Reuss Voigt Hill
#
# Bulk Modulus (GPa) = 15.33998 26.43014 20.88506
# Shear Modulus (GPa) = 12.91551 18.94062 15.92806
#
# Velocity S-wave (km/s) = 2.56134 3.10176 2.84441
# Velocity P-wave (km/s) = 4.06685 5.12378 4.62560
#
# Compressibility (1/GPa) = 0.06518911
#
# Stress axis : x y z
#
# Youngs Moduli (GPa) = 88.81149 27.58047 60.36054
#
# Poissons Ratio (x) = 0.08657 0.28537
# Poissons Ratio (y) = 0.27875 -0.50816
# Poissons Ratio (z) = 0.41987 -0.23219
#
# Static dielectric constant tensor:
#      x y z
#    x 1.731980 0.000000 0.000000 
#    y 0.000000 1.723250 0.000000 
#    z 0.000000 0.000000 1.674950 
# 
# From -- ./inp_files/18605.got.cif
#   From: 2010.05.17/outbox.cif.g08.bks.cpg/sg62_10_cif.got.tgz:18605.got - 2010.06.03 15:25:27.
