data_PCOD9462951
_publ_section_title
;
Structure prediction by ZEFSAII (Michael W. Deem and Ramdas Pophale) SiO2 
 PCOD9462951
Probable space group: P N M A
;
_chemical_formula_sum "Si O2"
_cell_formula_units_Z 32
_cell_length_a 9.358250
_cell_length_b 10.241637
_cell_length_c 11.805871
_cell_angle_alpha 90.000000
_cell_angle_beta 90.000000
_cell_angle_gamma 90.000000
_cell_volume 1131.519533
_symmetry_space_group_name_H-M "P N M A"
_symmetry_group_IT_number 62
_symmetry_cell_setting 'orthorhombic'
loop_
_space_group_symop_operation_xyz
x,y,z
1/2-x,-y,1/2+z
1/2+x,1/2-y,1/2-z
-x,1/2+y,-z
-x,-y,-z
1/2+x,y,1/2-z
1/2-x,1/2+y,1/2+z
x,1/2-y,z
loop_
_atom_site_type_symbol
_atom_site_label
_atom_site_fract_x
_atom_site_fract_y
_atom_site_fract_z
Si Si1 0.000452 0.250000 0.267769
Si Si2 0.329026 0.750000 0.563131
Si Si3 0.655342 0.250000 0.029154
Si Si4 0.430672 0.953107 0.247299
Si Si5 0.319136 0.046863 0.903668
Si Si6 0.414754 0.250000 0.598082
O O1 0.005240 0.250000 0.405235
O O2 0.941183 0.391735 0.240610
O O3 0.152362 0.250000 0.198102
O O4 0.250875 0.873910 0.506640
O O5 0.494459 0.750000 0.519166
O O6 0.701387 0.394073 0.074108
O O7 0.744941 0.250000 0.914242
O O8 0.273791 0.917785 0.292229
O O9 0.514245 0.922825 0.128192
O O10 0.526295 0.876054 0.337777
#
# Coordination Sequence:
#
# PCOD9462951 Si02
#       6
#     4   4   4   8   8   4
#     4  10  20  33  53  79 106 134 175 221 260 302
#     4  10  19  33  55  79 102 136 180 217 252 306
#     4  10  20  33  53  79 106 134 175 221 260 302
#     4  10  20  34  55  80 106 137 173 215 261 308
#     4  10  20  34  55  80 106 137 173 215 261 308
#     4  10  19  33  55  79 102 136 180 217 252 306
#
# _framework density 28.280553000000001
#
# number of rings (size 3 to 8) (size 9 to 14) (size 15 to 20)
#    0.000    2.000    0.000    4.500    0.000    4.000 
#    0.000    0.000    0.000   39.000    0.000    0.000 
#    0.000    0.000    0.000    0.000    0.000    0.000 
#
# Total GULP energy -178678.308598 kJ/mol
# GULP energy per Si atom -5583.697144 kJ/mol
# Density = 2.821618 g / cm^3
# Si number density = 28.280553 Si / 1000 Ang^3
#
#
#
# Elastic Constant Matrix: (Units=GPa)
#
#
# Indices 1 2 3 4 5 6 
#
# 1 143.3887 47.2676 35.1123 0.0000 0.0000 0.0000
# 2 47.2676 101.1085 34.8228 0.0000 0.0000 0.0000
# 3 35.1123 34.8228 113.0346 0.0000 0.0000 0.0000
# 4 0.0000 0.0000 0.0000 29.2157 0.0000 0.0000
# 5 0.0000 0.0000 0.0000 0.0000 65.3533 0.0000
# 6 0.0000 0.0000 0.0000 0.0000 0.0000 12.2461
#
#
#
# Elastic Compliance Matrix: (Units=1/GPa)
#
#
# Indices 1 2 3 4 5 6 
#
# 1 0.008490 -0.003424 -0.001582 0.000000 0.000000 0.000000
# 2 -0.003424 0.012445 -0.002770 0.000000 0.000000 0.000000
# 3 -0.001582 -0.002770 0.010192 0.000000 0.000000 0.000000
# 4 0.000000 0.000000 0.000000 0.034228 0.000000 0.000000
# 5 0.000000 0.000000 0.000000 0.000000 0.015301 0.000000
# 6 0.000000 0.000000 0.000000 0.000000 0.000000 0.081658
#
#
# Mechanical properties :
#
#
# Convention : Reuss Voigt Hill
#
# Bulk Modulus (GPa) = 64.21185 65.77080 64.99132
# Shear Modulus (GPa) = 27.31336 37.38498 32.34917
#
# Velocity S-wave (km/s) = 3.11110 3.63978 3.38578
# Velocity P-wave (km/s) = 5.97159 6.40086 6.18995
#
# Compressibility (1/GPa) = 0.01557345
#
# Stress axis : x y z
#
# Youngs Moduli (GPa) = 117.78110 80.35176 98.11707
#
# Poissons Ratio (x) = 0.27514 0.15527
# Poissons Ratio (y) = 0.40330 0.27182
# Poissons Ratio (z) = 0.18639 0.22261
#
# Static dielectric constant tensor:
#      x y z
#    x 2.246090 0.000000 0.000000 
#    y 0.000000 2.061430 0.000000 
#    z 0.000000 0.000000 2.216320 
# 
# From -- ./inp_files/11809.got.cif
#   From: 2010.05.17/outbox.cif.g08.bks.cpg/sg62_6_cif.got.tgz:11809.got - 2010.06.03 15:25:27.
