data_PCOD9462909
_publ_section_title
;
Structure prediction by ZEFSAII (Michael W. Deem and Ramdas Pophale) SiO2 
 PCOD9462909
Probable space group: P N M A
;
_chemical_formula_sum "Si O2"
_cell_formula_units_Z 48
_cell_length_a 10.528587
_cell_length_b 12.999590
_cell_length_c 18.818789
_cell_angle_alpha 90.000000
_cell_angle_beta 90.000000
_cell_angle_gamma 90.000000
_cell_volume 2575.677108
_symmetry_space_group_name_H-M "P N M A"
_symmetry_group_IT_number 62
_symmetry_cell_setting 'orthorhombic'
loop_
_space_group_symop_operation_xyz
x,y,z
1/2-x,-y,1/2+z
1/2+x,1/2-y,1/2-z
-x,1/2+y,-z
-x,-y,-z
1/2+x,y,1/2-z
1/2-x,1/2+y,1/2+z
x,1/2-y,z
loop_
_atom_site_type_symbol
_atom_site_label
_atom_site_fract_x
_atom_site_fract_y
_atom_site_fract_z
Si Si1 0.232249 0.135638 0.949848
Si Si2 0.992646 0.869705 0.155321
Si Si3 0.743599 0.631711 0.796349
Si Si4 0.781853 0.472187 0.925340
Si Si5 0.019569 0.039215 0.276579
Si Si6 0.494803 0.935045 0.072211
O O1 0.197671 0.250000 0.978494
O O2 0.146148 0.119507 0.880092
O O3 0.382257 0.136578 0.932689
O O4 0.206885 0.040926 0.003542
O O5 0.013388 0.750000 0.172509
O O6 0.095192 0.907552 0.096793
O O7 0.008918 0.941088 0.224238
O O8 0.753069 0.750000 0.817277
O O9 0.761835 0.557014 0.863591
O O10 0.854128 0.601000 0.742118
O O11 0.605360 0.607721 0.764890
O O12 0.653474 0.402771 0.924842
O O13 0.018530 0.002756 0.357727
O O14 0.500000 0.000000 0.000000
#
# Coordination Sequence:
#
# PCOD9462909 Si02
#       6
#     8   8   8   8   8   8
#     4  10  19  33  54  79 105 138 177 218 265 318
#     4  10  21  35  54  78 107 143 179 217 266 317
#     4  10  19  33  54  78 104 137 172 216 271 319
#     4   9  19  35  54  76 106 138 177 221 262 314
#     4  10  20  35  53  78 108 137 176 222 262 316
#     4   9  19  35  53  73 102 139 173 214 263 310
#
# _framework density 18.635874999999999
#
# number of rings (size 3 to 8) (size 9 to 14) (size 15 to 20)
#    0.000    2.333    0.000    2.500    0.000    1.333 
#    0.000   10.833    0.000   13.000    0.000    0.000 
#    0.000    0.000    0.000    0.000    0.000    0.000 
#
# Total GULP energy -267466.816665 kJ/mol
# GULP energy per Si atom -5572.225347 kJ/mol
# Density = 1.859346 g / cm^3
# Si number density = 18.635875 Si / 1000 Ang^3
#
#
#
# Elastic Constant Matrix: (Units=GPa)
#
#
# Indices 1 2 3 4 5 6 
#
# 1 94.0753 28.8035 33.2539 0.0000 0.0000 0.0000
# 2 28.8035 66.5220 13.1669 0.0000 0.0000 0.0000
# 3 33.2539 13.1669 65.5107 0.0000 0.0000 0.0000
# 4 0.0000 0.0000 0.0000 13.6446 0.0000 0.0000
# 5 0.0000 0.0000 0.0000 0.0000 23.2744 0.0000
# 6 0.0000 0.0000 0.0000 0.0000 0.0000 3.4489
#
#
#
# Elastic Compliance Matrix: (Units=1/GPa)
#
#
# Indices 1 2 3 4 5 6 
#
# 1 0.014381 -0.004980 -0.006299 0.000000 0.000000 0.000000
# 2 -0.004980 0.017380 -0.000965 0.000000 0.000000 0.000000
# 3 -0.006299 -0.000965 0.018656 0.000000 0.000000 0.000000
# 4 0.000000 0.000000 0.000000 0.073289 0.000000 0.000000
# 5 0.000000 0.000000 0.000000 0.000000 0.042966 0.000000
# 6 0.000000 0.000000 0.000000 0.000000 0.000000 0.289946
#
#
# Mechanical properties :
#
#
# Convention : Reuss Voigt Hill
#
# Bulk Modulus (GPa) = 38.56760 41.83962 40.20361
# Shear Modulus (GPa) = 10.20928 18.13249 14.17089
#
# Velocity S-wave (km/s) = 2.34312 3.12266 2.76054
# Velocity P-wave (km/s) = 5.29722 5.95829 5.63745
#
# Compressibility (1/GPa) = 0.02592850
#
# Stress axis : x y z
#
# Youngs Moduli (GPa) = 69.53531 57.53727 53.60157
#
# Poissons Ratio (x) = 0.28654 0.33764
# Poissons Ratio (y) = 0.34630 0.05174
# Poissons Ratio (z) = 0.43801 0.05554
#
# Static dielectric constant tensor:
#      x y z
#    x 1.674160 0.000000 0.000000 
#    y 0.000000 1.628870 0.000000 
#    z 0.000000 0.000000 1.625650 
# 
# From -- ./inp_files/23015.got.cif
#   From: 2010.05.17/outbox.cif.g08.bks.cpg/sg62_12_cif.got.tgz:23015.got - 2010.06.03 15:25:27.
