data_PCOD9462110
_publ_section_title
;
Structure prediction by ZEFSAII (Michael W. Deem and Ramdas Pophale) SiO2 
 PCOD9462110
Probable space group: P N M A
;
_chemical_formula_sum "Si O2"
_cell_formula_units_Z 48
_cell_length_a 13.869145
_cell_length_b 13.981503
_cell_length_c 11.625132
_cell_angle_alpha 90.000000
_cell_angle_beta 90.000000
_cell_angle_gamma 90.000000
_cell_volume 2254.246696
_symmetry_space_group_name_H-M "P N M A"
_symmetry_group_IT_number 62
_symmetry_cell_setting 'orthorhombic'
loop_
_space_group_symop_operation_xyz
x,y,z
1/2-x,-y,1/2+z
1/2+x,1/2-y,1/2-z
-x,1/2+y,-z
-x,-y,-z
1/2+x,y,1/2-z
1/2-x,1/2+y,1/2+z
x,1/2-y,z
loop_
_atom_site_type_symbol
_atom_site_label
_atom_site_fract_x
_atom_site_fract_y
_atom_site_fract_z
Si Si1 0.400737 0.048331 0.729453
Si Si2 0.715392 0.007544 0.478351
Si Si3 0.388418 0.359936 0.972253
Si Si4 0.862922 0.356305 0.135665
Si Si5 0.961690 0.639881 0.048299
Si Si6 0.984518 0.859197 0.673075
O O1 0.391504 0.118249 0.837152
O O2 0.492724 0.082813 0.654983
O O3 0.312261 0.046080 0.639711
O O4 0.418037 0.942067 0.777987
O O5 0.813614 0.064396 0.477115
O O6 0.629829 0.083956 0.500392
O O7 0.708853 0.934753 0.585782
O O8 0.358544 0.250000 0.992421
O O9 0.489525 0.371983 0.039211
O O10 0.820246 0.250000 0.130675
O O11 0.913444 0.369248 0.258454
O O12 0.954349 0.359891 0.047966
O O13 0.939809 0.750000 0.076835
O O14 0.951176 0.750000 0.694479
#
# Coordination Sequence:
#
# PCOD9462110 Si02
#       6
#     8   8   8   8   8   8
#     4  11  21  39  62  84 113 159 201 238 284 352
#     4  11  21  36  60  88 115 149 195 244 291 340
#     4  11  26  40  55  86 126 155 183 236 308 352
#     4   9  17  33  58  86 112 145 193 242 284 333
#     4  10  18  33  60  88 113 145 198 245 280 334
#     4  10  20  38  61  84 115 155 195 242 288 345
#
# _framework density 21.293144000000002
#
# number of rings (size 3 to 8) (size 9 to 14) (size 15 to 20)
#    0.000    1.667    3.333    2.500    2.333    1.333 
#    0.000    0.833    0.000    2.000    0.000    0.000 
#    0.000    0.000    0.000    0.000    0.000    0.000 
#
# Total GULP energy -268231.496805 kJ/mol
# GULP energy per Si atom -5588.156183 kJ/mol
# Density = 2.124468 g / cm^3
# Si number density = 21.293144 Si / 1000 Ang^3
#
#
#
# Elastic Constant Matrix: (Units=GPa)
#
#
# Indices 1 2 3 4 5 6 
#
# 1 13.8556 1.3111 1.4067 0.0000 0.0000 0.0000
# 2 1.3111 89.1134 0.6757 0.0000 0.0000 0.0000
# 3 1.4067 0.6757 78.3670 0.0000 0.0000 0.0000
# 4 0.0000 0.0000 0.0000 36.5932 0.0000 0.0000
# 5 0.0000 0.0000 0.0000 0.0000 15.4628 0.0000
# 6 0.0000 0.0000 0.0000 0.0000 0.0000 23.6841
#
#
#
# Elastic Compliance Matrix: (Units=1/GPa)
#
#
# Indices 1 2 3 4 5 6 
#
# 1 0.072404 -0.001055 -0.001291 0.000000 0.000000 0.000000
# 2 -0.001055 0.011238 -0.000078 0.000000 0.000000 0.000000
# 3 -0.001291 -0.000078 0.012784 0.000000 0.000000 0.000000
# 4 0.000000 0.000000 0.000000 0.027327 0.000000 0.000000
# 5 0.000000 0.000000 0.000000 0.000000 0.064671 0.000000
# 6 0.000000 0.000000 0.000000 0.000000 0.000000 0.042222
#
#
# Mechanical properties :
#
#
# Convention : Reuss Voigt Hill
#
# Bulk Modulus (GPa) = 10.91966 20.90255 15.91110
# Shear Modulus (GPa) = 18.79553 27.01088 22.90321
#
# Velocity S-wave (km/s) = 2.97426 3.56550 3.28321
# Velocity P-wave (km/s) = 4.11513 5.17574 4.67561
#
# Compressibility (1/GPa) = 0.09157794
#
# Stress axis : x y z
#
# Youngs Moduli (GPa) = 13.81145 88.98562 78.22087
#
# Poissons Ratio (x) = 0.09392 0.10095
# Poissons Ratio (y) = 0.01458 0.00610
# Poissons Ratio (z) = 0.01782 0.00694
#
# Static dielectric constant tensor:
#      x y z
#    x 1.747550 0.000000 0.000000 
#    y 0.000000 1.772290 0.000000 
#    z 0.000000 0.000000 1.804110 
# 
# From -- ./inp_files/14188.got.cif
#   From: 2010.05.17/outbox.cif.g08.bks.cpg/sg62_8_cif.got.tgz:14188.got - 2010.06.03 15:25:27.
