data_PCOD9463324
_publ_section_title
;
Structure prediction by ZEFSAII (Michael W. Deem and Ramdas Pophale) SiO2 
 PCOD9463324
Probable space group: P N M A
;
_chemical_formula_sum "Si O2"
_cell_formula_units_Z 64
_cell_length_a 12.353600
_cell_length_b 7.523542
_cell_length_c 31.350952
_cell_angle_alpha 90.000000
_cell_angle_beta 90.000000
_cell_angle_gamma 90.000000
_cell_volume 2913.846154
_symmetry_space_group_name_H-M "P N M A"
_symmetry_group_IT_number 62
_symmetry_cell_setting 'orthorhombic'
loop_
_space_group_symop_operation_xyz
x,y,z
1/2-x,-y,1/2+z
1/2+x,1/2-y,1/2-z
-x,1/2+y,-z
-x,-y,-z
1/2+x,y,1/2-z
1/2-x,1/2+y,1/2+z
x,1/2-y,z
loop_
_atom_site_type_symbol
_atom_site_label
_atom_site_fract_x
_atom_site_fract_y
_atom_site_fract_z
Si Si1 0.256829 0.461882 0.454929
Si Si2 0.515341 0.533560 0.161098
Si Si3 0.018064 0.456168 0.437683
Si Si4 0.247813 0.535676 0.303902
Si Si5 0.154960 0.035289 0.130291
Si Si6 0.803332 0.961075 0.290056
Si Si7 0.410782 0.038504 0.380372
Si Si8 0.784065 0.036058 0.452863
O O1 0.250589 0.250000 0.447329
O O2 0.135679 0.536747 0.447183
O O3 0.343313 0.532700 0.420941
O O4 0.281494 0.491893 0.504475
O O5 0.513886 0.750000 0.159381
O O6 0.502464 0.466105 0.113147
O O7 0.630729 0.474907 0.179557
O O8 0.415342 0.471124 0.189886
O O9 0.022365 0.250000 0.450904
O O10 0.907463 0.533816 0.456961
O O11 0.242014 0.750000 0.302043
O O12 0.274649 0.467778 0.256617
O O13 0.338902 0.489281 0.338338
O O14 0.153776 0.250000 0.128448
O O15 0.227763 0.971832 0.090462
O O16 0.032208 0.968757 0.125482
O O17 0.209917 0.987542 0.175018
O O18 0.818235 0.750000 0.284893
O O19 0.422172 0.250000 0.386852
O O20 0.790714 0.250000 0.449830
#
# Coordination Sequence:
#
# PCOD9463324 Si02
#       8
#     8   8   8   8   8   8   8   8
#     4  10  21  36  56  82 112 145 185 230 280 334
#     4  10  20  35  57  86 115 146 185 231 278 329
#     4  10  19  35  57  82 112 148 184 227 281 335
#     4  10  22  38  59  86 116 149 187 232 281 333
#     4  10  22  40  59  82 114 150 190 235 279 330
#     4  10  22  38  59  86 116 149 187 232 281 333
#     4  10  22  40  59  82 114 150 190 235 279 330
#     4  10  21  36  56  82 112 145 185 230 280 334
#
# _framework density 21.964096000000001
#
# number of rings (size 3 to 8) (size 9 to 14) (size 15 to 20)
#    0.000    2.000    2.500    0.375    1.750    3.500 
#    0.000    0.000    0.000    0.000    0.000    0.000 
#    0.000    0.000    0.000    0.000    0.000    0.000 
#
# Total GULP energy -357663.385299 kJ/mol
# GULP energy per Si atom -5588.490395 kJ/mol
# Density = 2.191410 g / cm^3
# Si number density = 21.964096 Si / 1000 Ang^3
#
#
#
# Elastic Constant Matrix: (Units=GPa)
#
#
# Indices 1 2 3 4 5 6 
#
# 1 90.4170 1.1430 -10.9516 0.0000 0.0000 0.0000
# 2 1.1430 56.6358 -11.0459 0.0000 0.0000 0.0000
# 3 -10.9516 -11.0459 62.6224 0.0000 0.0000 0.0000
# 4 0.0000 0.0000 0.0000 25.9420 0.0000 0.0000
# 5 0.0000 0.0000 0.0000 0.0000 -11.4437 0.0000
# 6 0.0000 0.0000 0.0000 0.0000 0.0000 5.5079
#
#
#
# Elastic Compliance Matrix: (Units=1/GPa)
#
#
# Indices 1 2 3 4 5 6 
#
# 1 0.011301 0.000163 0.002005 0.000000 0.000000 0.000000
# 2 0.000163 0.018288 0.003254 0.000000 0.000000 0.000000
# 3 0.002005 0.003254 0.016893 0.000000 0.000000 0.000000
# 4 0.000000 0.000000 0.000000 0.038548 0.000000 0.000000
# 5 0.000000 0.000000 0.000000 0.000000 -0.087384 0.000000
# 6 0.000000 0.000000 0.000000 0.000000 0.000000 0.181557
#
#
# Mechanical properties :
#
#
# Convention : Reuss Voigt Hill
#
# Bulk Modulus (GPa) = 17.44383 18.66291 18.05337
# Shear Modulus (GPa) = 26.67137 19.36988 23.02062
#
# Velocity S-wave (km/s) = 3.48849 2.97288 3.24095
# Velocity P-wave (km/s) = 4.91785 4.50550 4.71618
#
# Compressibility (1/GPa) = 0.05732685
#
# Stress axis : x y z
#
# Youngs Moduli (GPa) = 88.49041 54.68038 59.19474
#
# Poissons Ratio (x) = -0.00891 -0.11869
# Poissons Ratio (y) = -0.01442 -0.19264
# Poissons Ratio (z) = -0.17743 -0.17795
#
# Static dielectric constant tensor:
#      x y z
#    x 1.800010 0.000000 0.000000 
#    y 0.000000 1.826060 0.000000 
#    z 0.000000 0.000000 1.769090 
# 
# From -- ./inp_files/32466.got.cif
#   From: 2010.05.17/outbox.cif.g08.bks.cpg/sg62_17_cif.got.tgz:32466.got - 2010.06.03 15:25:27.
