data_PCOD9463588
_publ_section_title
;
Structure prediction by ZEFSAII (Michael W. Deem and Ramdas Pophale) SiO2 
 PCOD9463588
Probable space group: P N M A
;
_chemical_formula_sum "Si O2"
_cell_formula_units_Z 48
_cell_length_a 12.513538
_cell_length_b 13.366522
_cell_length_c 13.138587
_cell_angle_alpha 90.000000
_cell_angle_beta 90.000000
_cell_angle_gamma 90.000000
_cell_volume 2197.592658
_symmetry_space_group_name_H-M "P N M A"
_symmetry_group_IT_number 62
_symmetry_cell_setting 'orthorhombic'
loop_
_space_group_symop_operation_xyz
x,y,z
1/2-x,-y,1/2+z
1/2+x,1/2-y,1/2-z
-x,1/2+y,-z
-x,-y,-z
1/2+x,y,1/2-z
1/2-x,1/2+y,1/2+z
x,1/2-y,z
loop_
_atom_site_type_symbol
_atom_site_label
_atom_site_fract_x
_atom_site_fract_y
_atom_site_fract_z
Si Si1 0.747217 0.010227 0.379292
Si Si2 0.464409 0.061111 0.728905
Si Si3 0.529710 0.362659 0.155896
Si Si4 0.283022 0.137376 0.315836
Si Si5 0.446570 0.867036 0.068862
Si Si6 0.606067 0.033786 0.558439
O O1 0.651612 0.946248 0.323870
O O2 0.842727 0.936090 0.410730
O O3 0.691404 0.066975 0.474185
O O4 0.785901 0.091481 0.297474
O O5 0.473407 0.116827 0.836237
O O6 0.492806 0.946265 0.760105
O O7 0.556962 0.097870 0.651456
O O8 0.494050 0.250000 0.178119
O O9 0.658449 0.361259 0.154329
O O10 0.499502 0.390635 0.040275
O O11 0.322662 0.250000 0.323871
O O12 0.339516 0.062717 0.392296
O O13 0.415720 0.750000 0.063993
O O14 0.500000 0.000000 0.500000
#
# Coordination Sequence:
#
# PCOD9463588 Si02
#       6
#     8   8   8   8   8   8
#     4  10  21  38  60  84 122 153 198 253 303 359
#     4  10  21  37  57  86 119 155 191 249 304 357
#     4   9  19  35  58  86 113 148 200 249 293 360
#     4  10  19  36  62  88 118 161 205 245 302 367
#     4  11  21  36  58  84 113 159 206 239 298 367
#     4  10  20  36  60  88 118 153 198 246 310 358
#
# _framework density 21.842082999999999
#
# number of rings (size 3 to 8) (size 9 to 14) (size 15 to 20)
#    0.000    2.000    3.333    0.500    0.000    1.333 
#    0.000    5.833    0.000    0.000    0.000    0.000 
#    0.000    0.000    0.000    0.000    0.000    0.000 
#
# Total GULP energy -267916.870935 kJ/mol
# GULP energy per Si atom -5581.601478 kJ/mol
# Density = 2.179237 g / cm^3
# Si number density = 21.842083 Si / 1000 Ang^3
#
#
#
# Elastic Constant Matrix: (Units=GPa)
#
#
# Indices 1 2 3 4 5 6 
#
# 1 63.9453 -6.8337 11.4167 0.0000 0.0000 0.0000
# 2 -6.8337 40.9317 -1.5300 0.0000 0.0000 0.0000
# 3 11.4167 -1.5300 96.0292 0.0000 0.0000 0.0000
# 4 0.0000 0.0000 0.0000 12.1912 0.0000 0.0000
# 5 0.0000 0.0000 0.0000 0.0000 50.3785 0.0000
# 6 0.0000 0.0000 0.0000 0.0000 0.0000 18.6286
#
#
#
# Elastic Compliance Matrix: (Units=1/GPa)
#
#
# Indices 1 2 3 4 5 6 
#
# 1 0.016258 0.002644 -0.001891 0.000000 0.000000 0.000000
# 2 0.002644 0.024875 0.000082 0.000000 0.000000 0.000000
# 3 -0.001891 0.000082 0.010640 0.000000 0.000000 0.000000
# 4 0.000000 0.000000 0.000000 0.082026 0.000000 0.000000
# 5 0.000000 0.000000 0.000000 0.000000 0.019850 0.000000
# 6 0.000000 0.000000 0.000000 0.000000 0.000000 0.053681
#
#
# Mechanical properties :
#
#
# Convention : Reuss Voigt Hill
#
# Bulk Modulus (GPa) = 18.71138 23.00133 20.85636
# Shear Modulus (GPa) = 22.37384 29.42986 25.90185
#
# Velocity S-wave (km/s) = 3.20401 3.67467 3.44738
# Velocity P-wave (km/s) = 4.71941 5.34395 5.04136
#
# Compressibility (1/GPa) = 0.05344341
#
# Stress axis : x y z
#
# Youngs Moduli (GPa) = 61.50635 40.20036 93.98847
#
# Poissons Ratio (x) = -0.10628 0.17771
# Poissons Ratio (y) = -0.16261 -0.00771
# Poissons Ratio (z) = 0.11630 -0.00330
#
# Static dielectric constant tensor:
#      x y z
#    x 1.832720 0.000000 0.000000 
#    y 0.000000 1.851100 0.000000 
#    z 0.000000 0.000000 1.878430 
# 
# From -- ./inp_files/13248.got.cif
#   From: 2010.05.17/outbox.cif.g08.bks.cpg/sg62_7_cif.got.tgz:13248.got - 2010.06.03 15:25:27.
