data_PCOD9463110
_publ_section_title
;
Structure prediction by ZEFSAII (Michael W. Deem and Ramdas Pophale) SiO2 
 PCOD9463110
Probable space group: P N M A
;
_chemical_formula_sum "Si O2"
_cell_formula_units_Z 56
_cell_length_a 22.091810
_cell_length_b 7.438061
_cell_length_c 15.035959
_cell_angle_alpha 90.000000
_cell_angle_beta 90.000000
_cell_angle_gamma 90.000000
_cell_volume 2470.712247
_symmetry_space_group_name_H-M "P N M A"
_symmetry_group_IT_number 62
_symmetry_cell_setting 'orthorhombic'
loop_
_space_group_symop_operation_xyz
x,y,z
1/2-x,-y,1/2+z
1/2+x,1/2-y,1/2-z
-x,1/2+y,-z
-x,-y,-z
1/2+x,y,1/2-z
1/2-x,1/2+y,1/2+z
x,1/2-y,z
loop_
_atom_site_type_symbol
_atom_site_label
_atom_site_fract_x
_atom_site_fract_y
_atom_site_fract_z
Si Si1 0.225305 0.455149 0.979784
Si Si2 0.953842 0.963332 0.419962
Si Si3 0.602462 0.030507 0.243276
Si Si4 0.140772 0.467572 0.446336
Si Si5 0.343260 0.456967 0.307156
Si Si6 0.525321 0.952255 0.721381
Si Si7 0.766305 0.529911 0.818168
O O1 0.204773 0.250000 0.989713
O O2 0.291904 0.462916 0.937931
O O3 0.181835 0.541912 0.907332
O O4 0.233902 0.529668 0.079121
O O5 0.951779 0.750000 0.403574
O O6 0.889879 0.023745 0.461568
O O7 0.970056 0.055785 0.328590
O O8 0.000000 0.000000 0.500000
O O9 0.600325 0.250000 0.245648
O O10 0.602823 0.975114 0.139769
O O11 0.541646 0.966649 0.292719
O O12 0.667908 0.977275 0.280398
O O13 0.142591 0.250000 0.445452
O O14 0.351518 0.250000 0.278184
O O15 0.410608 0.539076 0.305025
O O16 0.290886 0.532356 0.241535
O O17 0.523951 0.750000 0.683000
O O18 0.764317 0.750000 0.815488
#
# Coordination Sequence:
#
# PCOD9463110 Si02
#       7
#     8   8   8   8   8   8   8
#     4  11  22  35  56  85 110 137 185 240 282 323
#     4  11  21  32  50  79 114 147 181 225 281 342
#     4   9  16  32  56  77 102 140 186 221 261 324
#     4  10  19  34  55  76 105 146 183 220 273 336
#     4  10  20  37  59  81 111 148 184 226 282 344
#     4  10  20  35  56  81 108 145 192 232 271 333
#     4   9  18  34  56  78 105 146 185 221 271 332
#
# _framework density 22.665527999999998
#
# number of rings (size 3 to 8) (size 9 to 14) (size 15 to 20)
#    0.000    2.000    2.857    1.714    0.000    2.857 
#    0.000    2.143    0.000    0.000    0.000    0.000 
#    0.000    0.000    0.000    0.000    0.000    0.000 
#
# Total GULP energy -312588.500016 kJ/mol
# GULP energy per Si atom -5581.937500 kJ/mol
# Density = 2.261394 g / cm^3
# Si number density = 22.665528 Si / 1000 Ang^3
#
#
#
# Elastic Constant Matrix: (Units=GPa)
#
#
# Indices 1 2 3 4 5 6 
#
# 1 145.6990 0.8331 17.6245 0.0000 0.0000 0.0000
# 2 0.8331 74.7392 -1.9756 0.0000 0.0000 0.0000
# 3 17.6245 -1.9756 60.1420 0.0000 0.0000 0.0000
# 4 0.0000 0.0000 0.0000 15.0147 0.0000 0.0000
# 5 0.0000 0.0000 0.0000 0.0000 39.0654 0.0000
# 6 0.0000 0.0000 0.0000 0.0000 0.0000 -3.3681
#
#
#
# Elastic Compliance Matrix: (Units=1/GPa)
#
#
# Indices 1 2 3 4 5 6 
#
# 1 0.007117 -0.000135 -0.002090 0.000000 0.000000 0.000000
# 2 -0.000135 0.013394 0.000479 0.000000 0.000000 0.000000
# 3 -0.002090 0.000479 0.017256 0.000000 0.000000 0.000000
# 4 0.000000 0.000000 0.000000 0.066602 0.000000 0.000000
# 5 0.000000 0.000000 0.000000 0.000000 0.025598 0.000000
# 6 0.000000 0.000000 0.000000 0.000000 0.000000 -0.296900
#
#
# Mechanical properties :
#
#
# Convention : Reuss Voigt Hill
#
# Bulk Modulus (GPa) = 29.17477 34.83824 32.00651
# Shear Modulus (GPa) = -32.89080 27.74893 -2.57094
#
# Velocity S-wave (km/s) = -3.81351 3.50277 -1.06619
# Velocity P-wave (km/s) = 2.54768 5.63588 3.55474
#
# Compressibility (1/GPa) = 0.03427619
#
# Stress axis : x y z
#
# Youngs Moduli (GPa) = 140.50748 74.66009 57.95239
#
# Poissons Ratio (x) = 0.01005 0.12112
# Poissons Ratio (y) = 0.01891 -0.02778
# Poissons Ratio (z) = 0.29367 -0.03579
#
# Static dielectric constant tensor:
#      x y z
#    x 1.891270 0.000000 0.000000 
#    y 0.000000 1.863690 0.000000 
#    z 0.000000 0.000000 1.811640 
# 
# From -- ./inp_files/20333.got.cif
#   From: 2010.05.17/outbox.cif.g08.bks.cpg/sg62_11_cif.got.tgz:20333.got - 2010.06.03 15:25:27.
