data_PCOD9463600
_publ_section_title
;
Structure prediction by ZEFSAII (Michael W. Deem and Ramdas Pophale) SiO2 
 PCOD9463600
Probable space group: P N M A
;
_chemical_formula_sum "Si O2"
_cell_formula_units_Z 56
_cell_length_a 13.525034
_cell_length_b 23.467524
_cell_length_c 9.423617
_cell_angle_alpha 90.000000
_cell_angle_beta 90.000000
_cell_angle_gamma 90.000000
_cell_volume 2991.047178
_symmetry_space_group_name_H-M "P N M A"
_symmetry_group_IT_number 62
_symmetry_cell_setting 'orthorhombic'
loop_
_space_group_symop_operation_xyz
x,y,z
1/2-x,-y,1/2+z
1/2+x,1/2-y,1/2-z
-x,1/2+y,-z
-x,-y,-z
1/2+x,y,1/2-z
1/2-x,1/2+y,1/2+z
x,1/2-y,z
loop_
_atom_site_type_symbol
_atom_site_label
_atom_site_fract_x
_atom_site_fract_y
_atom_site_fract_z
Si Si1 0.548080 0.317811 0.453988
Si Si2 0.651121 0.881166 0.640552
Si Si3 0.530249 0.314013 0.795577
Si Si4 0.269282 0.901765 0.578292
Si Si5 0.367274 0.103919 0.807684
Si Si6 0.394463 0.016381 0.565634
Si Si7 0.252125 0.185074 0.591524
O O1 0.549906 0.250000 0.420162
O O2 0.455936 0.350565 0.379692
O O3 0.533786 0.322678 0.625070
O O4 0.650672 0.350334 0.421502
O O5 0.689407 0.893226 0.797422
O O6 0.650383 0.939409 0.548929
O O7 0.729263 0.839570 0.563736
O O8 0.492239 0.250000 0.822696
O O9 0.462341 0.362210 0.862737
O O10 0.639815 0.317519 0.857726
O O11 0.210482 0.906463 0.430875
O O12 0.330479 0.960188 0.591210
O O13 0.400164 0.050002 0.714591
O O14 0.315994 0.147189 0.697574
O O15 0.500000 0.000000 0.500000
O O16 0.286707 0.250000 0.597521
#
# Coordination Sequence:
#
# PCOD9463600 Si02
#       7
#     8   8   8   8   8   8   8
#     4  11  22  40  66  91 125 173 212 255 321 387
#     4  11  24  42  65  91 132 169 206 265 324 389
#     4  10  19  36  63  95 123 158 213 262 305 373
#     4  12  25  42  62  98 128 160 215 263 324 379
#     4  11  22  37  65  93 121 163 214 266 310 375
#     4  11  22  45  69  86 120 169 212 261 317 380
#     4  10  20  37  63  92 123 166 213 253 307 376
#
# _framework density 18.722539999999999
#
# number of rings (size 3 to 8) (size 9 to 14) (size 15 to 20)
#    0.000    1.143    5.714    1.714    0.000    2.857 
#    0.000    2.143    0.000    0.000    0.000    0.000 
#    0.000    0.000    0.000    0.000    0.000    0.000 
#
# Total GULP energy -312700.292980 kJ/mol
# GULP energy per Si atom -5583.933803 kJ/mol
# Density = 1.867993 g / cm^3
# Si number density = 18.722540 Si / 1000 Ang^3
#
#
#
# Elastic Constant Matrix: (Units=GPa)
#
#
# Indices 1 2 3 4 5 6 
#
# 1 87.9237 56.1776 38.3940 0.0000 0.0000 0.0000
# 2 56.1776 114.6524 41.4039 0.0000 0.0000 0.0000
# 3 38.3940 41.4039 81.6799 0.0000 0.0000 0.0000
# 4 0.0000 0.0000 0.0000 17.8990 0.0000 0.0000
# 5 0.0000 0.0000 0.0000 0.0000 28.4173 0.0000
# 6 0.0000 0.0000 0.0000 0.0000 0.0000 33.8257
#
#
#
# Elastic Compliance Matrix: (Units=1/GPa)
#
#
# Indices 1 2 3 4 5 6 
#
# 1 0.018023 -0.007065 -0.004891 0.000000 0.000000 0.000000
# 2 -0.007065 0.013446 -0.003495 0.000000 0.000000 0.000000
# 3 -0.004891 -0.003495 0.016313 0.000000 0.000000 0.000000
# 4 0.000000 0.000000 0.000000 0.055869 0.000000 0.000000
# 5 0.000000 0.000000 0.000000 0.000000 0.035190 0.000000
# 6 0.000000 0.000000 0.000000 0.000000 0.000000 0.029563
#
#
# Mechanical properties :
#
#
# Convention : Reuss Voigt Hill
#
# Bulk Modulus (GPa) = 59.23641 61.80080 60.51860
# Shear Modulus (GPa) = 24.39830 25.91376 25.15603
#
# Velocity S-wave (km/s) = 3.61383 3.72438 3.66952
# Velocity P-wave (km/s) = 7.00863 7.18158 7.09563
#
# Compressibility (1/GPa) = 0.01688151
#
# Stress axis : x y z
#
# Youngs Moduli (GPa) = 55.48430 74.37302 61.29954
#
# Poissons Ratio (x) = 0.52543 0.29979
# Poissons Ratio (y) = 0.39199 0.21423
# Poissons Ratio (z) = 0.27135 0.25992
#
# Static dielectric constant tensor:
#      x y z
#    x 1.685210 0.000000 0.000000 
#    y 0.000000 1.657800 0.000000 
#    z 0.000000 0.000000 1.618850 
# 
# From -- ./inp_files/6747.got.cif
#   From: 2010.05.17/outbox.cif.g08.bks.cpg/sg62_4_cif.got.tgz:6747.got - 2010.06.03 15:25:27.
