data_PCOD9463617
_publ_section_title
;
Structure prediction by ZEFSAII (Michael W. Deem and Ramdas Pophale) SiO2 
 PCOD9463617
Probable space group: P N M A
;
_chemical_formula_sum "Si O2"
_cell_formula_units_Z 64
_cell_length_a 8.916432
_cell_length_b 19.457766
_cell_length_c 18.233692
_cell_angle_alpha 90.000000
_cell_angle_beta 90.000000
_cell_angle_gamma 90.000000
_cell_volume 3163.433378
_symmetry_space_group_name_H-M "P N M A"
_symmetry_group_IT_number 62
_symmetry_cell_setting 'orthorhombic'
loop_
_space_group_symop_operation_xyz
x,y,z
1/2-x,-y,1/2+z
1/2+x,1/2-y,1/2-z
-x,1/2+y,-z
-x,-y,-z
1/2+x,y,1/2-z
1/2-x,1/2+y,1/2+z
x,1/2-y,z
loop_
_atom_site_type_symbol
_atom_site_label
_atom_site_fract_x
_atom_site_fract_y
_atom_site_fract_z
Si Si1 0.480487 0.481536 0.777840
Si Si2 0.221543 0.113700 0.784588
Si Si3 0.978648 0.898597 0.086407
Si Si4 0.586713 0.170223 0.012361
Si Si5 0.424683 0.042387 0.068282
Si Si6 0.770521 0.672919 0.363639
Si Si7 0.932165 0.168934 0.062355
Si Si8 0.417141 0.541387 0.624117
O O1 0.635953 0.454073 0.744993
O O2 0.389851 0.411199 0.791512
O O3 0.500704 0.519220 0.854840
O O4 0.408773 0.523469 0.710479
O O5 0.152114 0.129667 0.862653
O O6 0.192548 0.169053 0.721651
O O7 0.135490 0.879968 0.125874
O O8 0.986542 0.858672 0.010979
O O9 0.980586 0.981454 0.086118
O O10 0.547880 0.250000 0.020648
O O11 0.469645 0.120116 0.049509
O O12 0.753798 0.159516 0.046798
O O13 0.607031 0.155121 0.925156
O O14 0.245164 0.037488 0.083386
O O15 0.500000 0.000000 0.000000
O O16 0.719489 0.750000 0.383306
O O17 0.957704 0.250000 0.075610
O O18 0.000150 0.114809 0.119395
#
# Coordination Sequence:
#
# PCOD9463617 Si02
#       8
#     8   8   8   8   8   8   8   8
#     4  11  23  40  59  90 123 157 201 263 300 367
#     4  11  20  37  57  84 123 155 205 244 304 363
#     4  10  20  36  61  85 121 160 206 250 308 370
#     4   9  21  39  61  85 119 162 203 250 312 375
#     4  12  24  38  66  94 126 158 209 256 316 364
#     4  10  19  37  58  83 123 166 202 243 301 376
#     4  10  22  40  61  88 121 159 209 259 310 373
#     4  11  23  39  62  92 121 161 204 256 313 366
#
# _framework density 20.231183000000001
#
# number of rings (size 3 to 8) (size 9 to 14) (size 15 to 20)
#    0.000    1.500    3.750    3.750    5.250    1.500 
#    0.000    0.625    0.000    0.000    0.000    0.000 
#    0.000    0.000    0.000    0.000    0.000    0.000 
#
# Total GULP energy -356938.851745 kJ/mol
# GULP energy per Si atom -5577.169559 kJ/mol
# Density = 2.018514 g / cm^3
# Si number density = 20.231183 Si / 1000 Ang^3
#
#
#
# Elastic Constant Matrix: (Units=GPa)
#
#
# Indices 1 2 3 4 5 6 
#
# 1 38.0406 17.1088 11.7937 0.0000 0.0000 0.0000
# 2 17.1088 86.5363 13.5838 0.0000 0.0000 0.0000
# 3 11.7937 13.5838 60.9446 0.0000 0.0000 0.0000
# 4 0.0000 0.0000 0.0000 28.7633 0.0000 0.0000
# 5 0.0000 0.0000 0.0000 0.0000 28.0287 0.0000
# 6 0.0000 0.0000 0.0000 0.0000 0.0000 24.9800
#
#
#
# Elastic Compliance Matrix: (Units=1/GPa)
#
#
# Indices 1 2 3 4 5 6 
#
# 1 0.030077 -0.005215 -0.004658 0.000000 0.000000 0.000000
# 2 -0.005215 0.012879 -0.001861 0.000000 0.000000 0.000000
# 3 -0.004658 -0.001861 0.017725 0.000000 0.000000 0.000000
# 4 0.000000 0.000000 0.000000 0.034766 0.000000 0.000000
# 5 0.000000 0.000000 0.000000 0.000000 0.035678 0.000000
# 6 0.000000 0.000000 0.000000 0.000000 0.000000 0.040032
#
#
# Mechanical properties :
#
#
# Convention : Reuss Voigt Hill
#
# Bulk Modulus (GPa) = 26.87322 30.05490 28.46406
# Shear Modulus (GPa) = 24.15101 25.89009 25.02055
#
# Velocity S-wave (km/s) = 3.45882 3.58119 3.52054
# Velocity P-wave (km/s) = 5.40954 5.65578 5.53403
#
# Compressibility (1/GPa) = 0.03721176
#
# Stress axis : x y z
#
# Youngs Moduli (GPa) = 33.24757 77.64503 56.41875
#
# Poissons Ratio (x) = 0.40494 0.26280
# Poissons Ratio (y) = 0.17340 0.10501
# Poissons Ratio (z) = 0.15487 0.14452
#
# Static dielectric constant tensor:
#      x y z
#    x 1.740880 0.000000 0.000000 
#    y 0.000000 1.713880 0.000000 
#    z 0.000000 0.000000 1.771790 
# 
# From -- ./inp_files/22546.got.cif
#   From: 2010.05.17/outbox.cif.g08.bks.cpg/sg62_12_cif.got.tgz:22546.got - 2010.06.03 15:25:27.
