data_PCOD9463621
_publ_section_title
;
Structure prediction by ZEFSAII (Michael W. Deem and Ramdas Pophale) SiO2 
 PCOD9463621
Probable space group: P N M A
;
_chemical_formula_sum "Si O2"
_cell_formula_units_Z 56
_cell_length_a 10.594067
_cell_length_b 16.718059
_cell_length_c 16.272264
_cell_angle_alpha 90.000000
_cell_angle_beta 90.000000
_cell_angle_gamma 90.000000
_cell_volume 2882.017081
_symmetry_space_group_name_H-M "P N M A"
_symmetry_group_IT_number 62
_symmetry_cell_setting 'orthorhombic'
loop_
_space_group_symop_operation_xyz
x,y,z
1/2-x,-y,1/2+z
1/2+x,1/2-y,1/2-z
-x,1/2+y,-z
-x,-y,-z
1/2+x,y,1/2-z
1/2-x,1/2+y,1/2+z
x,1/2-y,z
loop_
_atom_site_type_symbol
_atom_site_label
_atom_site_fract_x
_atom_site_fract_y
_atom_site_fract_z
Si Si1 0.612242 0.076101 0.173388
Si Si2 0.589150 0.488142 0.422966
Si Si3 0.070187 0.661791 0.558313
Si Si4 0.271575 0.654761 0.319195
Si Si5 0.703249 0.544293 0.041501
Si Si6 0.828131 0.658942 0.836170
Si Si7 0.977085 0.076007 0.759629
O O1 0.537983 0.142566 0.123099
O O2 0.687966 0.115577 0.248263
O O3 0.690930 0.024991 0.108150
O O4 0.518274 0.008470 0.210937
O O5 0.500000 0.500000 0.500000
O O6 0.727986 0.490753 0.462119
O O7 0.576776 0.399391 0.384528
O O8 0.565165 0.551066 0.351371
O O9 0.056146 0.750000 0.521009
O O10 0.080020 0.591005 0.491396
O O11 0.200251 0.660910 0.610524
O O12 0.278014 0.750000 0.323674
O O13 0.278397 0.614277 0.409831
O O14 0.136889 0.626268 0.281560
O O15 0.388927 0.619907 0.266734
O O16 0.871848 0.750000 0.825544
#
# Coordination Sequence:
#
# PCOD9463621 Si02
#       7
#     8   8   8   8   8   8   8
#     4  10  21  34  58  81 113 150 194 238 289 344
#     4  10  19  37  59  85 113 147 196 238 287 349
#     4  10  20  35  55  81 113 147 187 236 290 345
#     4  11  22  40  60  86 118 155 197 242 294 348
#     4  10  21  35  58  83 110 150 193 237 288 350
#     4   9  20  35  55  82 112 146 190 238 284 342
#     4  10  23  37  62  88 116 154 198 244 287 352
#
# _framework density 19.430835999999999
#
# number of rings (size 3 to 8) (size 9 to 14) (size 15 to 20)
#    0.000    2.000    1.429    1.714    8.000    0.571 
#    0.000    0.000    0.000    3.429    0.000    0.000 
#    0.000    0.000    0.000    0.000    0.000    0.000 
#
# Total GULP energy -312174.450048 kJ/mol
# GULP energy per Si atom -5574.543751 kJ/mol
# Density = 1.938661 g / cm^3
# Si number density = 19.430836 Si / 1000 Ang^3
#
#
#
# Elastic Constant Matrix: (Units=GPa)
#
#
# Indices 1 2 3 4 5 6 
#
# 1 28.1583 7.8116 -5.4215 0.0000 0.0000 0.0000
# 2 7.8116 94.8548 20.3146 0.0000 0.0000 0.0000
# 3 -5.4215 20.3146 69.5630 0.0000 0.0000 0.0000
# 4 0.0000 0.0000 0.0000 25.6270 0.0000 0.0000
# 5 0.0000 0.0000 0.0000 0.0000 26.7186 0.0000
# 6 0.0000 0.0000 0.0000 0.0000 0.0000 19.6903
#
#
#
# Elastic Compliance Matrix: (Units=1/GPa)
#
#
# Indices 1 2 3 4 5 6 
#
# 1 0.037393 -0.003951 0.004068 0.000000 0.000000 0.000000
# 2 -0.003951 0.011663 -0.003714 0.000000 0.000000 0.000000
# 3 0.004068 -0.003714 0.015777 0.000000 0.000000 0.000000
# 4 0.000000 0.000000 0.000000 0.039021 0.000000 0.000000
# 5 0.000000 0.000000 0.000000 0.000000 0.037427 0.000000
# 6 0.000000 0.000000 0.000000 0.000000 0.000000 0.050786
#
#
# Mechanical properties :
#
#
# Convention : Reuss Voigt Hill
#
# Bulk Modulus (GPa) = 17.34909 26.44284 21.89596
# Shear Modulus (GPa) = 22.88598 25.73193 24.30895
#
# Velocity S-wave (km/s) = 3.43566 3.64302 3.54086
# Velocity P-wave (km/s) = 4.96854 5.59765 5.29245
#
# Compressibility (1/GPa) = 0.05763990
#
# Stress axis : x y z
#
# Youngs Moduli (GPa) = 26.74313 85.73996 63.38303
#
# Poissons Ratio (x) = 0.33873 -0.25784
# Poissons Ratio (y) = 0.10565 0.23540
# Poissons Ratio (z) = -0.10879 0.31843
#
# Static dielectric constant tensor:
#      x y z
#    x 1.723490 0.000000 0.000000 
#    y 0.000000 1.683710 0.000000 
#    z 0.000000 0.000000 1.704070 
# 
# From -- ./inp_files/18055.got.cif
#   From: 2010.05.17/outbox.cif.g08.bks.cpg/sg62_10_cif.got.tgz:18055.got - 2010.06.03 15:25:27.
