data_PCOD9463299
_publ_section_title
;
Structure prediction by ZEFSAII (Michael W. Deem and Ramdas Pophale) SiO2 
 PCOD9463299
Probable space group: P N M A
;
_chemical_formula_sum "Si O2"
_cell_formula_units_Z 40
_cell_length_a 23.319689
_cell_length_b 7.592624
_cell_length_c 10.757782
_cell_angle_alpha 90.000000
_cell_angle_beta 90.000000
_cell_angle_gamma 90.000000
_cell_volume 1904.747389
_symmetry_space_group_name_H-M "P N M A"
_symmetry_group_IT_number 62
_symmetry_cell_setting 'orthorhombic'
loop_
_space_group_symop_operation_xyz
x,y,z
1/2-x,-y,1/2+z
1/2+x,1/2-y,1/2-z
-x,1/2+y,-z
-x,-y,-z
1/2+x,y,1/2-z
1/2-x,1/2+y,1/2+z
x,1/2-y,z
loop_
_atom_site_type_symbol
_atom_site_label
_atom_site_fract_x
_atom_site_fract_y
_atom_site_fract_z
Si Si1 0.304350 0.036834 0.505879
Si Si2 0.379068 0.466036 0.741863
Si Si3 0.829936 0.459167 0.496651
Si Si4 0.502298 0.040360 0.646532
Si Si5 0.627650 0.956177 0.734538
O O1 0.307349 0.250000 0.505977
O O2 0.337047 0.977354 0.630322
O O3 0.337162 0.970088 0.382890
O O4 0.238215 0.985051 0.504056
O O5 0.378708 0.250000 0.741255
O O6 0.356987 0.528541 0.875497
O O7 0.443639 0.522979 0.710008
O O8 0.841809 0.250000 0.498186
O O9 0.855805 0.532907 0.368400
O O10 0.504338 0.250000 0.660631
O O11 0.500000 0.000000 0.500000
O O12 0.560520 0.968224 0.705019
O O13 0.643465 0.750000 0.739713
#
# Coordination Sequence:
#
# PCOD9463299 Si02
#       5
#     8   8   8   8   8
#     4  10  19  35  56  77 111 149 181 223 270 317
#     4   9  19  36  56  78 110 146 176 220 277 321
#     4  10  21  36  55  81 112 145 182 222 270 326
#     4  11  21  37  60  82 107 143 187 227 274 331
#     4  10  21  37  56  82 114 144 178 229 277 316
#
# _framework density 21.000160000000001
#
# number of rings (size 3 to 8) (size 9 to 14) (size 15 to 20)
#    0.000    2.000    2.000    1.800    0.000    2.400 
#    0.000    2.000    0.000    0.000    0.000    0.000 
#    0.000    0.000    0.000    0.000    0.000    0.000 
#
# Total GULP energy -223509.692258 kJ/mol
# GULP energy per Si atom -5587.742306 kJ/mol
# Density = 2.095236 g / cm^3
# Si number density = 21.000160 Si / 1000 Ang^3
#
#
#
# Elastic Constant Matrix: (Units=GPa)
#
#
# Indices 1 2 3 4 5 6 
#
# 1 161.9279 -26.7025 124.6447 0.0000 0.0000 0.0000
# 2 -26.7025 41.6367 3.5003 0.0000 0.0000 0.0000
# 3 124.6447 3.5003 248.2987 0.0000 0.0000 0.0000
# 4 0.0000 0.0000 0.0000 -11.7326 0.0000 0.0000
# 5 0.0000 0.0000 0.0000 0.0000 -26.7020 0.0000
# 6 0.0000 0.0000 0.0000 0.0000 0.0000 29.8555
#
#
#
# Elastic Compliance Matrix: (Units=1/GPa)
#
#
# Indices 1 2 3 4 5 6 
#
# 1 0.012519 0.008567 -0.006405 0.000000 0.000000 0.000000
# 2 0.008567 0.029908 -0.004722 0.000000 0.000000 0.000000
# 3 -0.006405 -0.004722 0.007309 0.000000 0.000000 0.000000
# 4 0.000000 0.000000 0.000000 -0.085232 0.000000 0.000000
# 5 0.000000 0.000000 0.000000 0.000000 -0.037450 0.000000
# 6 0.000000 0.000000 0.000000 0.000000 0.000000 0.033495
#
#
# Mechanical properties :
#
#
# Convention : Reuss Voigt Hill
#
# Bulk Modulus (GPa) = 22.41365 72.74980 47.58173
# Shear Modulus (GPa) = -256.94586 21.64557 -117.65014
#
# Velocity S-wave (km/s) = -11.07339 3.21399 -7.49300
# Velocity P-wave (km/s) = 12.36110 6.96352 7.22171
#
# Compressibility (1/GPa) = 0.04461567
#
# Stress axis : x y z
#
# Youngs Moduli (GPa) = 79.88104 33.43543 136.81240
#
# Poissons Ratio (x) = -0.28644 0.87629
# Poissons Ratio (y) = -0.68433 0.64605
# Poissons Ratio (z) = 0.51164 0.15789
#
# Static dielectric constant tensor:
#      x y z
#    x 1.688320 0.000000 0.000000 
#    y 0.000000 1.774630 0.000000 
#    z 0.000000 0.000000 1.747740 
# 
# From -- ./inp_files/19351.got.cif
#   From: 2010.05.17/outbox.cif.g08.bks.cpg/sg62_10_cif.got.tgz:19351.got - 2010.06.03 15:25:27.
