data_PCOD9463577
_publ_section_title
;
Structure prediction by ZEFSAII (Michael W. Deem and Ramdas Pophale) SiO2 
 PCOD9463577
Probable space group: P N M A
;
_chemical_formula_sum "Si O2"
_cell_formula_units_Z 40
_cell_length_a 10.499631
_cell_length_b 7.615624
_cell_length_c 23.924317
_cell_angle_alpha 90.000000
_cell_angle_beta 90.000000
_cell_angle_gamma 90.000000
_cell_volume 1913.018097
_symmetry_space_group_name_H-M "P N M A"
_symmetry_group_IT_number 62
_symmetry_cell_setting 'orthorhombic'
loop_
_space_group_symop_operation_xyz
x,y,z
1/2-x,-y,1/2+z
1/2+x,1/2-y,1/2-z
-x,1/2+y,-z
-x,-y,-z
1/2+x,y,1/2-z
1/2-x,1/2+y,1/2+z
x,1/2-y,z
loop_
_atom_site_type_symbol
_atom_site_label
_atom_site_fract_x
_atom_site_fract_y
_atom_site_fract_z
Si Si1 0.261228 0.034177 0.117695
Si Si2 0.505387 0.040297 0.322015
Si Si3 0.508761 0.957177 0.803831
Si Si4 0.850013 0.460696 0.502664
Si Si5 0.235871 0.539991 0.376579
O O1 0.262776 0.250000 0.116699
O O2 0.378379 0.973866 0.156697
O O3 0.128313 0.974960 0.144303
O O4 0.284445 0.974687 0.054196
O O5 0.523665 0.250000 0.317252
O O6 0.496269 0.968703 0.258813
O O7 0.374350 0.009056 0.354272
O O8 0.535530 0.750000 0.798073
O O9 0.374504 0.977025 0.834874
O O10 0.835856 0.250000 0.503149
O O11 0.792832 0.528157 0.560940
O O12 0.000000 0.500000 0.500000
O O13 0.227274 0.750000 0.377912
#
# Coordination Sequence:
#
# PCOD9463577 Si02
#       5
#     8   8   8   8   8
#     4   9  18  34  57  82 108 141 186 237 273 313
#     4  10  21  37  58  84 111 145 189 231 275 328
#     4  10  19  36  62  84 106 144 192 233 272 327
#     4  10  20  36  57  80 109 147 189 230 278 333
#     4  11  23  36  54  84 118 149 182 226 284 341
#
# _framework density 20.909369999999999
#
# number of rings (size 3 to 8) (size 9 to 14) (size 15 to 20)
#    0.000    2.000    2.000    1.800    0.000    5.600 
#    0.000    2.000    0.000    0.000    0.000    0.000 
#    0.000    0.000    0.000    0.000    0.000    0.000 
#
# Total GULP energy -223498.292684 kJ/mol
# GULP energy per Si atom -5587.457317 kJ/mol
# Density = 2.086178 g / cm^3
# Si number density = 20.909370 Si / 1000 Ang^3
#
#
#
# Elastic Constant Matrix: (Units=GPa)
#
#
# Indices 1 2 3 4 5 6 
#
# 1 167.2986 -22.5441 112.6345 0.0000 0.0000 0.0000
# 2 -22.5441 35.2452 -0.3326 0.0000 0.0000 0.0000
# 3 112.6345 -0.3326 237.3450 0.0000 0.0000 0.0000
# 4 0.0000 0.0000 0.0000 -6.5354 0.0000 0.0000
# 5 0.0000 0.0000 0.0000 0.0000 8.0530 0.0000
# 6 0.0000 0.0000 0.0000 0.0000 0.0000 -15.8322
#
#
#
# Elastic Compliance Matrix: (Units=1/GPa)
#
#
# Indices 1 2 3 4 5 6 
#
# 1 0.010037 0.006375 -0.004754 0.000000 0.000000 0.000000
# 2 0.006375 0.032422 -0.002980 0.000000 0.000000 0.000000
# 3 -0.004754 -0.002980 0.006465 0.000000 0.000000 0.000000
# 4 0.000000 0.000000 0.000000 -0.153012 0.000000 0.000000
# 5 0.000000 0.000000 0.000000 0.000000 0.124177 0.000000
# 6 0.000000 0.000000 0.000000 0.000000 0.000000 -0.063162
#
#
# Mechanical properties :
#
#
# Convention : Reuss Voigt Hill
#
# Bulk Modulus (GPa) = 21.64172 68.82271 45.23222
# Shear Modulus (GPa) = -200.38153 20.47916 -89.95119
#
# Velocity S-wave (km/s) = -9.80007 3.13297 -6.56605
# Velocity P-wave (km/s) = 10.84816 6.78775 5.98368
#
# Compressibility (1/GPa) = 0.04620704
#
# Stress axis : x y z
#
# Youngs Moduli (GPa) = 99.62771 30.84280 154.67068
#
# Poissons Ratio (x) = -0.19664 0.73537
# Poissons Ratio (y) = -0.63517 0.46093
# Poissons Ratio (z) = 0.47367 0.09191
#
# Static dielectric constant tensor:
#      x y z
#    x 1.764550 0.000000 0.000000 
#    y 0.000000 1.781330 0.000000 
#    z 0.000000 0.000000 1.752200 
# 
# From -- ./inp_files/26449.got.cif
#   From: 2010.05.17/outbox.cif.g08.bks.cpg/sg62_14_cif.got.tgz:26449.got - 2010.06.03 15:25:27.
