data_PCOD9463317
_publ_section_title
;
Structure prediction by ZEFSAII (Michael W. Deem and Ramdas Pophale) SiO2 
 PCOD9463317
Probable space group: P N M A
;
_chemical_formula_sum "Si O2"
_cell_formula_units_Z 56
_cell_length_a 20.103898
_cell_length_b 9.683570
_cell_length_c 15.542570
_cell_angle_alpha 90.000000
_cell_angle_beta 90.000000
_cell_angle_gamma 90.000000
_cell_volume 3025.788726
_symmetry_space_group_name_H-M "P N M A"
_symmetry_group_IT_number 62
_symmetry_cell_setting 'orthorhombic'
loop_
_space_group_symop_operation_xyz
x,y,z
1/2-x,-y,1/2+z
1/2+x,1/2-y,1/2-z
-x,1/2+y,-z
-x,-y,-z
1/2+x,y,1/2-z
1/2-x,1/2+y,1/2+z
x,1/2-y,z
loop_
_atom_site_type_symbol
_atom_site_label
_atom_site_fract_x
_atom_site_fract_y
_atom_site_fract_z
Si Si1 0.780432 0.916835 0.500484
Si Si2 0.373024 0.415517 0.505569
Si Si3 0.134044 0.407823 0.664427
Si Si4 0.079707 0.586590 0.812535
Si Si5 0.372936 0.586308 0.840671
Si Si6 0.073735 0.411690 0.162293
Si Si7 0.511503 0.906495 0.082231
O O1 0.781814 0.750000 0.496713
O O2 0.704169 0.960203 0.494816
O O3 0.822384 0.962289 0.416386
O O4 0.813774 0.949797 0.592996
O O5 0.376088 0.250000 0.519373
O O6 0.402987 0.443662 0.411606
O O7 0.410724 0.493905 0.581220
O O8 0.155555 0.250000 0.684611
O O9 0.127274 0.502371 0.748384
O O10 0.058482 0.400934 0.630588
O O11 0.089534 0.750000 0.797336
O O12 0.000703 0.557915 0.802061
O O13 0.389132 0.750000 0.855669
O O14 0.370838 0.571032 0.737458
O O15 0.431843 0.484656 0.866388
O O16 0.072951 0.250000 0.137436
O O17 0.531047 0.750000 0.060195
O O18 0.500000 0.000000 0.000000
#
# Coordination Sequence:
#
# PCOD9463317 Si02
#       7
#     8   8   8   8   8   8   8
#     4   9  19  37  56  79 112 152 185 215 275 343
#     4  10  22  39  58  77 108 151 192 229 270 333
#     4  10  20  34  56  83 111 147 183 222 277 334
#     4  10  21  37  58  86 111 140 186 237 282 323
#     4  10  19  35  57  80 112 147 180 226 282 337
#     4  10  21  36  58  85 112 141 182 237 287 323
#     4  11  20  31  52  83 114 145 182 226 280 333
#
# _framework density 18.507570000000001
#
# number of rings (size 3 to 8) (size 9 to 14) (size 15 to 20)
#    0.000    2.000    2.857    0.857    0.000    3.429 
#    0.000    2.857    0.000    0.000    0.000    0.000 
#    0.000    0.000    0.000    0.000    0.000    0.000 
#
# Total GULP energy -312083.679852 kJ/mol
# GULP energy per Si atom -5572.922855 kJ/mol
# Density = 1.846545 g / cm^3
# Si number density = 18.507570 Si / 1000 Ang^3
#
#
#
# Elastic Constant Matrix: (Units=GPa)
#
#
# Indices 1 2 3 4 5 6 
#
# 1 43.2895 12.4178 19.7869 0.0000 0.0000 0.0000
# 2 12.4178 53.0011 53.5482 0.0000 0.0000 0.0000
# 3 19.7869 53.5482 112.5090 0.0000 0.0000 0.0000
# 4 0.0000 0.0000 0.0000 27.4027 0.0000 0.0000
# 5 0.0000 0.0000 0.0000 0.0000 53.1736 0.0000
# 6 0.0000 0.0000 0.0000 0.0000 0.0000 14.8636
#
#
#
# Elastic Compliance Matrix: (Units=1/GPa)
#
#
# Indices 1 2 3 4 5 6 
#
# 1 0.025328 -0.002762 -0.003140 0.000000 0.000000 0.000000
# 2 -0.002762 0.036645 -0.016955 0.000000 0.000000 0.000000
# 3 -0.003140 -0.016955 0.017510 0.000000 0.000000 0.000000
# 4 0.000000 0.000000 0.000000 0.036493 0.000000 0.000000
# 5 0.000000 0.000000 0.000000 0.000000 0.018806 0.000000
# 6 0.000000 0.000000 0.000000 0.000000 0.000000 0.067279
#
#
# Mechanical properties :
#
#
# Convention : Reuss Voigt Hill
#
# Bulk Modulus (GPa) = 29.61307 42.25615 35.93461
# Shear Modulus (GPa) = 19.30274 27.29109 23.29692
#
# Velocity S-wave (km/s) = 3.23300 3.84421 3.55177
# Velocity P-wave (km/s) = 5.47464 6.52574 6.02316
#
# Compressibility (1/GPa) = 0.03376888
#
# Stress axis : x y z
#
# Youngs Moduli (GPa) = 39.48241 27.28900 57.10966
#
# Poissons Ratio (x) = 0.07537 0.17932
# Poissons Ratio (y) = 0.10904 0.96831
# Poissons Ratio (z) = 0.12397 0.46269
#
# Static dielectric constant tensor:
#      x y z
#    x 1.893380 0.000000 0.000000 
#    y 0.000000 1.697840 0.000000 
#    z 0.000000 0.000000 1.617040 
# 
# From -- ./inp_files/20219.got.cif
#   From: 2010.05.17/outbox.cif.g08.bks.cpg/sg62_11_cif.got.tgz:20219.got - 2010.06.03 15:25:27.
