data_PCOD9463814
_publ_section_title
;
Structure prediction by ZEFSAII (Michael W. Deem and Ramdas Pophale) SiO2 
 PCOD9463814
Probable space group: P N M A
;
_chemical_formula_sum "Si O2"
_cell_formula_units_Z 48
_cell_length_a 7.875942
_cell_length_b 14.305958
_cell_length_c 22.351817
_cell_angle_alpha 90.000000
_cell_angle_beta 90.000000
_cell_angle_gamma 90.000000
_cell_volume 2518.443940
_symmetry_space_group_name_H-M "P N M A"
_symmetry_group_IT_number 62
_symmetry_cell_setting 'orthorhombic'
loop_
_space_group_symop_operation_xyz
x,y,z
1/2-x,-y,1/2+z
1/2+x,1/2-y,1/2-z
-x,1/2+y,-z
-x,-y,-z
1/2+x,y,1/2-z
1/2-x,1/2+y,1/2+z
x,1/2-y,z
loop_
_atom_site_type_symbol
_atom_site_label
_atom_site_fract_x
_atom_site_fract_y
_atom_site_fract_z
Si Si1 0.719488 0.644900 0.990514
Si Si2 0.807513 0.036513 0.052256
Si Si3 0.540216 0.857186 0.655269
Si Si4 0.349757 0.645206 0.055060
Si Si5 0.181615 0.857609 0.722163
Si Si6 0.058680 0.535559 0.616679
O O1 0.788574 0.750000 0.988281
O O2 0.830468 0.566163 0.023825
O O3 0.539278 0.647324 0.026021
O O4 0.665269 0.607180 0.925395
O O5 0.943129 0.074720 0.099133
O O6 0.629978 0.034456 0.089337
O O7 0.770962 0.106628 0.997458
O O8 0.563398 0.750000 0.634551
O O9 0.365646 0.863496 0.691894
O O10 0.677366 0.876948 0.707371
O O11 0.305353 0.750000 0.073749
O O12 0.360857 0.566519 0.105981
O O13 0.120491 0.750000 0.715171
O O14 0.069145 0.928024 0.683606
#
# Coordination Sequence:
#
# PCOD9463814 Si02
#       6
#     8   8   8   8   8   8
#     4   8  14  25  43  68  95 121 148 177 213 259
#     4   9  16  27  46  69  91 118 150 182 215 254
#     4  10  20  32  46  65  89 116 145 180 223 267
#     4   8  14  25  43  68  95 121 148 177 213 259
#     4  10  20  32  46  65  89 116 145 180 223 267
#     4   9  16  27  46  69  91 118 150 182 215 254
#
# _framework density 19.059387000000001
#
# number of rings (size 3 to 8) (size 9 to 14) (size 15 to 20)
#    0.000    3.000    0.000    4.000    0.000    3.333 
#    0.000    3.333    0.000    4.000    0.000    0.000 
#    0.000    0.000    0.000    0.000    0.000    0.000 
#
# Total GULP energy -267877.688366 kJ/mol
# GULP energy per Si atom -5580.785174 kJ/mol
# Density = 1.901601 g / cm^3
# Si number density = 19.059387 Si / 1000 Ang^3
#
#
#
# Elastic Constant Matrix: (Units=GPa)
#
#
# Indices 1 2 3 4 5 6 
#
# 1 50.4199 13.3210 12.2760 0.0000 0.0000 0.0000
# 2 13.3210 123.6951 38.9885 0.0000 0.0000 0.0000
# 3 12.2760 38.9885 63.3232 0.0000 0.0000 0.0000
# 4 0.0000 0.0000 0.0000 18.7069 0.0000 0.0000
# 5 0.0000 0.0000 0.0000 0.0000 28.6673 0.0000
# 6 0.0000 0.0000 0.0000 0.0000 0.0000 15.1073
#
#
#
# Elastic Compliance Matrix: (Units=1/GPa)
#
#
# Indices 1 2 3 4 5 6 
#
# 1 0.020961 -0.001212 -0.003318 0.000000 0.000000 0.000000
# 2 -0.001212 0.010101 -0.005984 0.000000 0.000000 0.000000
# 3 -0.003318 -0.005984 0.020120 0.000000 0.000000 0.000000
# 4 0.000000 0.000000 0.000000 0.053456 0.000000 0.000000
# 5 0.000000 0.000000 0.000000 0.000000 0.034883 0.000000
# 6 0.000000 0.000000 0.000000 0.000000 0.000000 0.066193
#
#
# Mechanical properties :
#
#
# Convention : Reuss Voigt Hill
#
# Bulk Modulus (GPa) = 33.16212 40.73436 36.94824
# Shear Modulus (GPa) = 21.11543 24.01983 22.56763
#
# Velocity S-wave (km/s) = 3.33209 3.55387 3.44476
# Velocity P-wave (km/s) = 5.67811 6.18536 5.93715
#
# Compressibility (1/GPa) = 0.03015489
#
# Stress axis : x y z
#
# Youngs Moduli (GPa) = 47.70697 98.99841 49.70226
#
# Poissons Ratio (x) = 0.11995 0.16489
# Poissons Ratio (y) = 0.05781 0.29744
# Poissons Ratio (z) = 0.15827 0.59245
#
# Static dielectric constant tensor:
#      x y z
#    x 1.755400 0.000000 0.000000 
#    y 0.000000 1.658870 0.000000 
#    z 0.000000 0.000000 1.635670 
# 
# From -- ./inp_files/25847.got.cif
#   From: 2010.05.17/outbox.cif.g08.bks.cpg/sg62_13_cif.got.tgz:25847.got - 2010.06.03 15:25:27.
