data_PCOD9463332
_publ_section_title
;
Structure prediction by ZEFSAII (Michael W. Deem and Ramdas Pophale) SiO2 
 PCOD9463332
Probable space group: P N M A
;
_chemical_formula_sum "Si O2"
_cell_formula_units_Z 64
_cell_length_a 14.664560
_cell_length_b 8.145570
_cell_length_c 25.205537
_cell_angle_alpha 90.000000
_cell_angle_beta 90.000000
_cell_angle_gamma 90.000000
_cell_volume 3010.831641
_symmetry_space_group_name_H-M "P N M A"
_symmetry_group_IT_number 62
_symmetry_cell_setting 'orthorhombic'
loop_
_space_group_symop_operation_xyz
x,y,z
1/2-x,-y,1/2+z
1/2+x,1/2-y,1/2-z
-x,1/2+y,-z
-x,-y,-z
1/2+x,y,1/2-z
1/2-x,1/2+y,1/2+z
x,1/2-y,z
loop_
_atom_site_type_symbol
_atom_site_label
_atom_site_fract_x
_atom_site_fract_y
_atom_site_fract_z
Si Si1 0.278661 0.439580 0.459360
Si Si2 0.129497 0.448910 0.380508
Si Si3 0.760409 0.948633 0.834712
Si Si4 0.443858 0.934809 0.399495
Si Si5 0.448938 0.060103 0.285977
Si Si6 0.875086 0.942077 0.937104
Si Si7 0.050846 0.549764 0.668877
Si Si8 0.755426 0.442699 0.720732
O O1 0.265059 0.250000 0.474069
O O2 0.187494 0.505489 0.431207
O O3 0.359853 0.451377 0.416024
O O4 0.315533 0.532718 0.510572
O O5 0.132641 0.250000 0.381225
O O6 0.180779 0.507423 0.327606
O O7 0.024590 0.500908 0.373727
O O8 0.761824 0.750000 0.831563
O O9 0.818094 0.997414 0.885742
O O10 0.654661 0.002500 0.840882
O O11 0.795323 0.017378 0.778733
O O12 0.409762 0.750000 0.403582
O O13 0.476155 0.969893 0.339642
O O14 0.529724 0.962454 0.437536
O O15 0.476374 0.250000 0.290925
O O16 0.478694 0.995918 0.228256
O O17 0.338843 0.043758 0.283365
O O18 0.897231 0.750000 0.930869
O O19 0.052021 0.750000 0.670517
O O20 0.733374 0.250000 0.717340
#
# Coordination Sequence:
#
# PCOD9463332 Si02
#       8
#     8   8   8   8   8   8   8   8
#     4  11  23  40  61  85 118 156 198 245 294 355
#     4  10  20  36  60  86 115 155 197 239 290 350
#     4   9  20  40  62  83 113 155 200 244 294 353
#     4  12  24  38  58  86 121 155 193 244 297 355
#     4  10  19  35  57  84 118 156 195 233 283 350
#     4  11  24  41  62  84 113 156 203 249 299 356
#     4   8  17  35  60  86 113 150 197 241 280 343
#     4  11  21  33  54  85 120 154 189 240 295 344
#
# _framework density 21.256584
#
# number of rings (size 3 to 8) (size 9 to 14) (size 15 to 20)
#    0.000    1.750    1.250    4.500    1.750    1.500 
#    0.000    3.125    0.000    0.000    0.000    0.000 
#    0.000    0.000    0.000    0.000    0.000    0.000 
#
# Total GULP energy -357664.100356 kJ/mol
# GULP energy per Si atom -5588.501568 kJ/mol
# Density = 2.120820 g / cm^3
# Si number density = 21.256584 Si / 1000 Ang^3
#
#
#
# Elastic Constant Matrix: (Units=GPa)
#
#
# Indices 1 2 3 4 5 6 
#
# 1 38.5298 -6.5242 0.4276 0.0000 0.0000 0.0000
# 2 -6.5242 29.9764 0.0670 0.0000 0.0000 0.0000
# 3 0.4276 0.0670 58.7749 0.0000 0.0000 0.0000
# 4 0.0000 0.0000 0.0000 21.5112 0.0000 0.0000
# 5 0.0000 0.0000 0.0000 0.0000 33.5796 0.0000
# 6 0.0000 0.0000 0.0000 0.0000 0.0000 5.0913
#
#
#
# Elastic Compliance Matrix: (Units=1/GPa)
#
#
# Indices 1 2 3 4 5 6 
#
# 1 0.026949 0.005866 -0.000203 0.000000 0.000000 0.000000
# 2 0.005866 0.034636 -0.000082 0.000000 0.000000 0.000000
# 3 -0.000203 -0.000082 0.017016 0.000000 0.000000 0.000000
# 4 0.000000 0.000000 0.000000 0.046487 0.000000 0.000000
# 5 0.000000 0.000000 0.000000 0.000000 0.029780 0.000000
# 6 0.000000 0.000000 0.000000 0.000000 0.000000 0.196413
#
#
# Mechanical properties :
#
#
# Convention : Reuss Voigt Hill
#
# Bulk Modulus (GPa) = 11.14038 12.80242 11.97140
# Shear Modulus (GPa) = 13.51201 20.92381 17.21791
#
# Velocity S-wave (km/s) = 2.52397 3.14083 2.84914
# Velocity P-wave (km/s) = 3.70758 4.38052 4.05803
#
# Compressibility (1/GPa) = 0.08976353
#
# Stress axis : x y z
#
# Youngs Moduli (GPa) = 37.10652 28.87128 58.76952
#
# Poissons Ratio (x) = -0.16936 0.01191
# Poissons Ratio (y) = -0.21766 0.00483
# Poissons Ratio (z) = 0.00752 0.00237
#
# Static dielectric constant tensor:
#      x y z
#    x 1.773220 0.000000 0.000000 
#    y 0.000000 1.740620 0.000000 
#    z 0.000000 0.000000 1.773120 
# 
# From -- ./inp_files/29734.got.cif
#   From: 2010.05.17/outbox.cif.g08.bks.cpg/sg62_15_cif.got.tgz:29734.got - 2010.06.03 15:25:27.
