data_PCOD9463217
_publ_section_title
;
Structure prediction by ZEFSAII (Michael W. Deem and Ramdas Pophale) SiO2 
 PCOD9463217
Probable space group: P N M A
;
_chemical_formula_sum "Si O2"
_cell_formula_units_Z 64
_cell_length_a 10.379100
_cell_length_b 9.608059
_cell_length_c 33.213206
_cell_angle_alpha 90.000000
_cell_angle_beta 90.000000
_cell_angle_gamma 90.000000
_cell_volume 3312.120714
_symmetry_space_group_name_H-M "P N M A"
_symmetry_group_IT_number 62
_symmetry_cell_setting 'orthorhombic'
loop_
_space_group_symop_operation_xyz
x,y,z
1/2-x,-y,1/2+z
1/2+x,1/2-y,1/2-z
-x,1/2+y,-z
-x,-y,-z
1/2+x,y,1/2-z
1/2-x,1/2+y,1/2+z
x,1/2-y,z
loop_
_atom_site_type_symbol
_atom_site_label
_atom_site_fract_x
_atom_site_fract_y
_atom_site_fract_z
Si Si1 0.678060 0.585361 0.364049
Si Si2 0.171919 0.908719 0.984651
Si Si3 0.340592 0.912054 0.059266
Si Si4 0.285341 0.408885 0.863811
Si Si5 0.821084 0.084259 0.211221
Si Si6 0.958658 0.592933 0.077431
Si Si7 0.923255 0.910626 0.573003
Si Si8 0.125136 0.414764 0.214789
O O1 0.656415 0.750000 0.355881
O O2 0.798034 0.574174 0.394276
O O3 0.561230 0.530104 0.391769
O O4 0.677290 0.501820 0.322963
O O5 0.124931 0.750000 0.983360
O O6 0.301030 0.913609 0.956851
O O7 0.073411 0.009912 0.962569
O O8 0.222214 0.943414 0.029244
O O9 0.375303 0.750000 0.051821
O O10 0.457609 0.014527 0.051770
O O11 0.326980 0.250000 0.854472
O O12 0.227441 0.489568 0.825607
O O13 0.171184 0.398809 0.896485
O O14 0.390835 0.501816 0.886776
O O15 0.815145 0.250000 0.201062
O O16 0.720347 0.060145 0.247599
O O17 0.972071 0.052898 0.221368
O O18 0.001768 0.750000 0.068115
O O19 0.950641 0.750000 0.582573
O O20 0.131441 0.250000 0.205896
#
# Coordination Sequence:
#
# PCOD9463217 Si02
#       8
#     8   8   8   8   8   8   8   8
#     4  10  21  38  57  79 111 148 186 232 284 336
#     4   9  19  34  53  79 109 146 189 236 286 334
#     4  10  21  36  53  77 113 150 188 238 289 336
#     4  10  19  34  58  84 109 143 185 225 273 332
#     4  10  21  38  59  85 115 148 186 234 284 338
#     4   9  18  33  54  79 108 142 183 229 275 328
#     4  10  20  34  54  80 112 149 190 234 280 338
#     4  10  22  39  60  85 116 151 189 234 288 344
#
# _framework density 19.322967999999999
#
# number of rings (size 3 to 8) (size 9 to 14) (size 15 to 20)
#    0.000    2.250    1.250    1.125    0.000    4.500 
#    0.000    1.250    0.000    0.000    0.000    0.000 
#    0.000    0.000    0.000    0.000    0.000    0.000 
#
# Total GULP energy -357079.851834 kJ/mol
# GULP energy per Si atom -5579.372685 kJ/mol
# Density = 1.927899 g / cm^3
# Si number density = 19.322968 Si / 1000 Ang^3
#
#
#
# Elastic Constant Matrix: (Units=GPa)
#
#
# Indices 1 2 3 4 5 6 
#
# 1 36.9986 31.0694 25.6255 0.0000 0.0000 0.0000
# 2 31.0694 78.6389 68.1308 0.0000 0.0000 0.0000
# 3 25.6255 68.1308 128.3981 0.0000 0.0000 0.0000
# 4 0.0000 0.0000 0.0000 31.2350 0.0000 0.0000
# 5 0.0000 0.0000 0.0000 0.0000 23.1857 0.0000
# 6 0.0000 0.0000 0.0000 0.0000 0.0000 19.4814
#
#
#
# Elastic Compliance Matrix: (Units=1/GPa)
#
#
# Indices 1 2 3 4 5 6 
#
# 1 0.040487 -0.016649 0.000754 0.000000 0.000000 0.000000
# 2 -0.016649 0.030383 -0.012799 0.000000 0.000000 0.000000
# 3 0.000754 -0.012799 0.014429 0.000000 0.000000 0.000000
# 4 0.000000 0.000000 0.000000 0.032015 0.000000 0.000000
# 5 0.000000 0.000000 0.000000 0.000000 0.043130 0.000000
# 6 0.000000 0.000000 0.000000 0.000000 0.000000 0.051331
#
#
# Mechanical properties :
#
#
# Convention : Reuss Voigt Hill
#
# Bulk Modulus (GPa) = 35.82845 54.85412 45.34128
# Shear Modulus (GPa) = 17.95538 22.72774 20.34156
#
# Velocity S-wave (km/s) = 3.05163 3.43330 3.24808
# Velocity P-wave (km/s) = 5.56765 6.64578 6.13046
#
# Compressibility (1/GPa) = 0.02791078
#
# Stress axis : x y z
#
# Youngs Moduli (GPa) = 24.69931 32.91294 69.30370
#
# Poissons Ratio (x) = 0.54798 -0.05227
# Poissons Ratio (y) = 0.41123 0.88703
# Poissons Ratio (z) = -0.01863 0.42126
#
# Static dielectric constant tensor:
#      x y z
#    x 1.707050 0.000000 0.000000 
#    y 0.000000 1.657270 0.000000 
#    z 0.000000 0.000000 1.665630 
# 
# From -- ./inp_files/32486.got.cif
#   From: 2010.05.17/outbox.cif.g08.bks.cpg/sg62_17_cif.got.tgz:32486.got - 2010.06.03 15:25:27.
