data_PCOD9463837
_publ_section_title
;
Structure prediction by ZEFSAII (Michael W. Deem and Ramdas Pophale) SiO2 
 PCOD9463837
Probable space group: P N M A
;
_chemical_formula_sum "Si O2"
_cell_formula_units_Z 40
_cell_length_a 7.369842
_cell_length_b 11.279370
_cell_length_c 17.022809
_cell_angle_alpha 90.000000
_cell_angle_beta 90.000000
_cell_angle_gamma 90.000000
_cell_volume 1415.058019
_symmetry_space_group_name_H-M "P N M A"
_symmetry_group_IT_number 62
_symmetry_cell_setting 'orthorhombic'
loop_
_space_group_symop_operation_xyz
x,y,z
1/2-x,-y,1/2+z
1/2+x,1/2-y,1/2-z
-x,1/2+y,-z
-x,-y,-z
1/2+x,y,1/2-z
1/2-x,1/2+y,1/2+z
x,1/2-y,z
loop_
_atom_site_type_symbol
_atom_site_label
_atom_site_fract_x
_atom_site_fract_y
_atom_site_fract_z
Si Si1 0.270513 0.877013 0.773974
Si Si2 0.453927 0.617688 0.450317
Si Si3 0.374108 0.120363 0.116784
Si Si4 0.560994 0.380247 0.717281
Si Si5 0.527241 0.619592 0.099343
O O1 0.178240 0.750000 0.789698
O O2 0.289987 0.882382 0.679255
O O3 0.447591 0.874705 0.827311
O O4 0.162989 0.995746 0.790119
O O5 0.500000 0.500000 0.500000
O O6 0.489202 0.750000 0.485718
O O7 0.550728 0.619947 0.364273
O O8 0.236976 0.612143 0.429319
O O9 0.366579 0.250000 0.077129
O O10 0.408865 0.995404 0.074445
O O11 0.653174 0.250000 0.714744
O O12 0.482434 0.382175 0.805069
O O13 0.455847 0.750000 0.075802
#
# Coordination Sequence:
#
# PCOD9463837 Si02
#       5
#     8   8   8   8   8
#     4   9  16  25  39  61  91 124 159 200 250 302
#     4  10  20  32  48  74 105 136 168 210 267 320
#     4   9  16  25  39  61  91 124 159 200 250 302
#     4   9  17  30  47  68  97 130 169 213 256 304
#     4   9  17  30  47  68  97 130 169 213 256 304
#
# _framework density 28.267392000000001
#
# number of rings (size 3 to 8) (size 9 to 14) (size 15 to 20)
#    0.000    2.800    2.000    0.000    0.000    1.600 
#    0.000    0.000    0.000    0.000    0.000    1.400 
#    0.000    0.000    0.000    0.000    0.000    0.000 
#
# Total GULP energy -223188.724708 kJ/mol
# GULP energy per Si atom -5579.718118 kJ/mol
# Density = 2.820305 g / cm^3
# Si number density = 28.267392 Si / 1000 Ang^3
#
#
#
# Elastic Constant Matrix: (Units=GPa)
#
#
# Indices 1 2 3 4 5 6 
#
# 1 86.5348 51.0917 23.5930 0.0000 0.0000 0.0000
# 2 51.0917 349.7931 51.5317 0.0000 0.0000 0.0000
# 3 23.5930 51.5317 153.7693 0.0000 0.0000 0.0000
# 4 0.0000 0.0000 0.0000 20.8485 0.0000 0.0000
# 5 0.0000 0.0000 0.0000 0.0000 38.5266 0.0000
# 6 0.0000 0.0000 0.0000 0.0000 0.0000 30.1628
#
#
#
# Elastic Compliance Matrix: (Units=1/GPa)
#
#
# Indices 1 2 3 4 5 6 
#
# 1 0.012936 -0.001680 -0.001422 0.000000 0.000000 0.000000
# 2 -0.001680 0.003225 -0.000823 0.000000 0.000000 0.000000
# 3 -0.001422 -0.000823 0.006997 0.000000 0.000000 0.000000
# 4 0.000000 0.000000 0.000000 0.047965 0.000000 0.000000
# 5 0.000000 0.000000 0.000000 0.000000 0.025956 0.000000
# 6 0.000000 0.000000 0.000000 0.000000 0.000000 0.033153
#
#
# Mechanical properties :
#
#
# Convention : Reuss Voigt Hill
#
# Bulk Modulus (GPa) = 65.32290 93.61445 79.46867
# Shear Modulus (GPa) = 34.91977 48.83297 41.87637
#
# Velocity S-wave (km/s) = 3.51855 4.16087 3.85312
# Velocity P-wave (km/s) = 6.29810 7.50155 6.92601
#
# Compressibility (1/GPa) = 0.01530857
#
# Stress axis : x y z
#
# Youngs Moduli (GPa) = 77.30641 310.03121 142.91328
#
# Poissons Ratio (x) = 0.52084 0.20318
# Poissons Ratio (y) = 0.12987 0.11764
# Poissons Ratio (z) = 0.10991 0.25521
#
# Static dielectric constant tensor:
#      x y z
#    x 2.381420 0.000000 0.000000 
#    y 0.000000 2.222610 0.000000 
#    z 0.000000 0.000000 2.254760 
# 
# From -- ./inp_files/17811.got.cif
#   From: 2010.05.17/outbox.cif.g08.bks.cpg/sg62_9_cif.got.tgz:17811.got - 2010.06.03 15:25:27.
