data_PCOD9463211
_publ_section_title
;
Structure prediction by ZEFSAII (Michael W. Deem and Ramdas Pophale) SiO2 
 PCOD9463211
Probable space group: P N M A
;
_chemical_formula_sum "Si O2"
_cell_formula_units_Z 56
_cell_length_a 18.835534
_cell_length_b 15.121029
_cell_length_c 9.433709
_cell_angle_alpha 90.000000
_cell_angle_beta 90.000000
_cell_angle_gamma 90.000000
_cell_volume 2686.839715
_symmetry_space_group_name_H-M "P N M A"
_symmetry_group_IT_number 62
_symmetry_cell_setting 'orthorhombic'
loop_
_space_group_symop_operation_xyz
x,y,z
1/2-x,-y,1/2+z
1/2+x,1/2-y,1/2-z
-x,1/2+y,-z
-x,-y,-z
1/2+x,y,1/2-z
1/2-x,1/2+y,1/2+z
x,1/2-y,z
loop_
_atom_site_type_symbol
_atom_site_label
_atom_site_fract_x
_atom_site_fract_y
_atom_site_fract_z
Si Si1 0.384008 0.487693 0.537869
Si Si2 0.479929 0.348539 0.052695
Si Si3 0.621196 0.641348 0.191722
Si Si4 0.281319 0.027836 0.006935
Si Si5 0.921660 0.648433 0.798707
Si Si6 0.712501 0.157894 0.124503
Si Si7 0.359612 0.395598 0.264183
O O1 0.303328 0.522801 0.515998
O O2 0.428947 0.573073 0.584137
O O3 0.402345 0.443876 0.388043
O O4 0.382878 0.412671 0.661181
O O5 0.504570 0.250000 0.018027
O O6 0.447114 0.384282 0.906998
O O7 0.541302 0.385756 0.153175
O O8 0.413111 0.346243 0.160516
O O9 0.624463 0.750000 0.204084
O O10 0.687648 0.601560 0.101156
O O11 0.316023 0.040737 0.159846
O O12 0.303670 0.931274 0.955645
O O13 0.946448 0.750000 0.829236
O O14 0.838230 0.655762 0.761076
O O15 0.696193 0.250000 0.047349
O O16 0.795464 0.156934 0.163269
#
# Coordination Sequence:
#
# PCOD9463211 Si02
#       7
#     8   8   8   8   8   8   8
#     4  11  20  35  55  85 115 141 182 230 278 326
#     4   9  20  37  56  80 108 145 192 229 266 328
#     4  10  21  37  57  81 108 144 187 227 269 319
#     4  10  19  37  53  82 110 144 180 228 264 327
#     4  10  20  36  58  81 110 146 186 229 275 328
#     4  10  19  34  58  82 106 145 187 227 274 318
#     4  10  20  34  56  80 115 146 180 227 277 327
#
# _framework density 20.84233
#
# number of rings (size 3 to 8) (size 9 to 14) (size 15 to 20)
#    0.000    2.000    2.857    1.286    0.000    5.143 
#    0.000    0.714    0.000    0.000    0.000    0.000 
#    0.000    0.000    0.000    0.000    0.000    0.000 
#
# Total GULP energy -311843.626521 kJ/mol
# GULP energy per Si atom -5568.636188 kJ/mol
# Density = 2.079489 g / cm^3
# Si number density = 20.842330 Si / 1000 Ang^3
#
#
#
# Elastic Constant Matrix: (Units=GPa)
#
#
# Indices 1 2 3 4 5 6 
#
# 1 45.3090 -5.9861 -16.7704 0.0000 0.0000 0.0000
# 2 -5.9861 129.4467 34.0389 0.0000 0.0000 0.0000
# 3 -16.7704 34.0389 67.2114 0.0000 0.0000 0.0000
# 4 0.0000 0.0000 0.0000 3.9200 0.0000 0.0000
# 5 0.0000 0.0000 0.0000 0.0000 9.6020 0.0000
# 6 0.0000 0.0000 0.0000 0.0000 0.0000 11.7714
#
#
#
# Elastic Compliance Matrix: (Units=1/GPa)
#
#
# Indices 1 2 3 4 5 6 
#
# 1 0.024350 -0.000544 0.006351 0.000000 0.000000 0.000000
# 2 -0.000544 0.008924 -0.004655 0.000000 0.000000 0.000000
# 3 0.006351 -0.004655 0.018821 0.000000 0.000000 0.000000
# 4 0.000000 0.000000 0.000000 0.255103 0.000000 0.000000
# 5 0.000000 0.000000 0.000000 0.000000 0.104145 0.000000
# 6 0.000000 0.000000 0.000000 0.000000 0.000000 0.084952
#
#
# Mechanical properties :
#
#
# Convention : Reuss Voigt Hill
#
# Bulk Modulus (GPa) = 18.38299 29.39242 23.88771
# Shear Modulus (GPa) = 9.76326 20.43766 15.10046
#
# Velocity S-wave (km/s) = 2.16668 3.13483 2.69459
# Velocity P-wave (km/s) = 3.88568 5.21879 4.60077
#
# Compressibility (1/GPa) = 0.05439810
#
# Stress axis : x y z
#
# Youngs Moduli (GPa) = 41.06850 112.05506 53.13259
#
# Poissons Ratio (x) = 0.06097 -0.33746
# Poissons Ratio (y) = 0.02234 0.24735
# Poissons Ratio (z) = -0.26083 0.52166
#
# Static dielectric constant tensor:
#      x y z
#    x 1.801350 0.000000 0.000000 
#    y 0.000000 1.712410 0.000000 
#    z 0.000000 0.000000 1.757800 
# 
# From -- ./inp_files/8702.got.cif
#   From: 2010.05.17/outbox.cif.g08.bks.cpg/sg62_5_cif.got.tgz:8702.got - 2010.06.03 15:25:27.
