data_PCOD9463031
_publ_section_title
;
Structure prediction by ZEFSAII (Michael W. Deem and Ramdas Pophale) SiO2 
 PCOD9463031
Probable space group: P N M A
;
_chemical_formula_sum "Si O2"
_cell_formula_units_Z 40
_cell_length_a 19.053602
_cell_length_b 19.357896
_cell_length_c 6.406773
_cell_angle_alpha 90.000000
_cell_angle_beta 90.000000
_cell_angle_gamma 90.000000
_cell_volume 2363.059071
_symmetry_space_group_name_H-M "P N M A"
_symmetry_group_IT_number 62
_symmetry_cell_setting 'orthorhombic'
loop_
_space_group_symop_operation_xyz
x,y,z
1/2-x,-y,1/2+z
1/2+x,1/2-y,1/2-z
-x,1/2+y,-z
-x,-y,-z
1/2+x,y,1/2-z
1/2-x,1/2+y,1/2+z
x,1/2-y,z
loop_
_atom_site_type_symbol
_atom_site_label
_atom_site_fract_x
_atom_site_fract_y
_atom_site_fract_z
Si Si1 0.991831 0.575136 0.107105
Si Si2 0.205196 0.575831 0.088570
Si Si3 0.100426 0.668504 0.852643
Si Si4 0.652433 0.458685 0.721735
Si Si5 0.098580 0.575805 0.469779
O O1 0.908996 0.588328 0.126962
O O2 0.028524 0.571525 0.332998
O O3 0.000000 0.500000 0.000000
O O4 0.036858 0.629579 0.973036
O O5 0.286473 0.578238 0.148741
O O6 0.160981 0.575282 0.301810
O O7 0.171911 0.637344 0.952262
O O8 0.188113 0.505949 0.958184
O O9 0.096227 0.750000 0.875533
O O10 0.098188 0.643397 0.613866
O O11 0.612519 0.512494 0.873969
#
# Coordination Sequence:
#
# PCOD9463031 Si02
#       5
#     8   8   8   8   8
#     4  11  20  34  59  91 113 144 195 249 287 337
#     4  10  20  33  58  85 117 146 185 237 286 348
#     4  10  23  40  55  80 118 161 197 230 286 356
#     4  11  19  32  55  92 115 139 186 240 294 330
#     4  10  19  33  57  82 114 149 184 236 290 334
#
# _framework density 16.927211
#
# number of rings (size 3 to 8) (size 9 to 14) (size 15 to 20)
#    0.000    1.600    8.000    0.600    0.000    3.200 
#    0.000    1.000    0.000    2.400    0.000    0.000 
#    0.000    0.000    0.000    0.000    0.000    0.000 
#
# Total GULP energy -223060.104137 kJ/mol
# GULP energy per Si atom -5576.502603 kJ/mol
# Density = 1.688868 g / cm^3
# Si number density = 16.927211 Si / 1000 Ang^3
#
#
#
# Elastic Constant Matrix: (Units=GPa)
#
#
# Indices 1 2 3 4 5 6 
#
# 1 132.4121 46.0090 37.7010 0.0000 0.0000 0.0000
# 2 46.0090 102.9376 33.1137 0.0000 0.0000 0.0000
# 3 37.7010 33.1137 93.2697 0.0000 0.0000 0.0000
# 4 0.0000 0.0000 0.0000 12.7483 0.0000 0.0000
# 5 0.0000 0.0000 0.0000 0.0000 26.0470 0.0000
# 6 0.0000 0.0000 0.0000 0.0000 0.0000 15.2013
#
#
#
# Elastic Compliance Matrix: (Units=1/GPa)
#
#
# Indices 1 2 3 4 5 6 
#
# 1 0.009479 -0.003391 -0.002627 0.000000 0.000000 0.000000
# 2 -0.003391 0.012181 -0.002954 0.000000 0.000000 0.000000
# 3 -0.002627 -0.002954 0.012832 0.000000 0.000000 0.000000
# 4 0.000000 0.000000 0.000000 0.078442 0.000000 0.000000
# 5 0.000000 0.000000 0.000000 0.000000 0.038392 0.000000
# 6 0.000000 0.000000 0.000000 0.000000 0.000000 0.065784
#
#
# Mechanical properties :
#
#
# Convention : Reuss Voigt Hill
#
# Bulk Modulus (GPa) = 60.43500 62.47408 61.45454
# Shear Modulus (GPa) = 20.78402 24.91905 22.85153
#
# Velocity S-wave (km/s) = 3.50787 3.84100 3.67820
# Velocity P-wave (km/s) = 7.22407 7.52719 7.37719
#
# Compressibility (1/GPa) = 0.01654670
#
# Stress axis : x y z
#
# Youngs Moduli (GPa) = 105.50020 82.09780 77.92869
#
# Poissons Ratio (x) = 0.27843 0.20475
# Poissons Ratio (y) = 0.35779 0.23017
# Poissons Ratio (z) = 0.27719 0.24249
#
# Static dielectric constant tensor:
#      x y z
#    x 1.603250 0.000000 0.000000 
#    y 0.000000 1.545190 0.000000 
#    z 0.000000 0.000000 1.594440 
# 
# From -- ./inp_files/1554.got.cif
#   From: 2010.05.17/outbox.cif.g08.bks.cpg/sg62_1_cif.got.tgz:1554.got - 2010.06.03 15:25:27.
