data_PCOD9463724
_publ_section_title
;
Structure prediction by ZEFSAII (Michael W. Deem and Ramdas Pophale) SiO2 
 PCOD9463724
Probable space group: P N M A
;
_chemical_formula_sum "Si O2"
_cell_formula_units_Z 56
_cell_length_a 27.435878
_cell_length_b 16.508437
_cell_length_c 5.232292
_cell_angle_alpha 90.000000
_cell_angle_beta 90.000000
_cell_angle_gamma 90.000000
_cell_volume 2369.827815
_symmetry_space_group_name_H-M "P N M A"
_symmetry_group_IT_number 62
_symmetry_cell_setting 'orthorhombic'
loop_
_space_group_symop_operation_xyz
x,y,z
1/2-x,-y,1/2+z
1/2+x,1/2-y,1/2-z
-x,1/2+y,-z
-x,-y,-z
1/2+x,y,1/2-z
1/2-x,1/2+y,1/2+z
x,1/2-y,z
loop_
_atom_site_type_symbol
_atom_site_label
_atom_site_fract_x
_atom_site_fract_y
_atom_site_fract_z
Si Si1 0.746974 0.552219 0.082005
Si Si2 0.592735 0.841851 0.783052
Si Si3 0.041616 0.501071 0.712094
Si Si4 0.356086 0.101391 0.700557
Si Si5 0.828979 0.659174 0.272320
Si Si6 0.063047 0.340879 0.982410
Si Si7 0.118927 0.066506 0.353419
O O1 0.740743 0.514845 0.800775
O O2 0.698258 0.595414 0.187899
O O3 0.791648 0.614360 0.090312
O O4 0.575000 0.750000 0.770165
O O5 0.551199 0.906802 0.704199
O O6 0.611677 0.858945 0.071942
O O7 0.634581 0.854957 0.567947
O O8 0.035013 0.421998 0.889634
O O9 0.093020 0.481611 0.579141
O O10 0.000000 0.500000 0.500000
O O11 0.371056 0.006263 0.658360
O O12 0.813151 0.750000 0.322426
O O13 0.883790 0.661553 0.157621
O O14 0.834096 0.609073 0.533474
O O15 0.042043 0.250000 0.960917
O O16 0.080835 0.365353 0.265067
#
# Coordination Sequence:
#
# PCOD9463724 Si02
#       7
#     8   8   8   8   8   8   8
#     4  12  24  39  64  93 127 170 219 264 315 374
#     4  11  24  44  67  93 130 175 218 264 320 386
#     4  10  23  40  64  92 125 163 209 267 325 389
#     4  11  22  41  67  92 125 173 221 259 315 383
#     4  10  22  37  58  91 124 161 205 263 316 370
#     4  10  20  38  64  91 123 162 209 258 323 390
#     4  10  19  39  63  85 123 162 207 255 322 387
#
# _framework density 23.630407999999999
#
# number of rings (size 3 to 8) (size 9 to 14) (size 15 to 20)
#    0.000    1.429    2.857    2.571    2.000    2.857 
#    0.000    0.000    0.000    0.000    0.000    0.000 
#    0.000    0.000    0.000    0.000    0.000    0.000 
#
# Total GULP energy -312668.298930 kJ/mol
# GULP energy per Si atom -5583.362481 kJ/mol
# Density = 2.357662 g / cm^3
# Si number density = 23.630408 Si / 1000 Ang^3
#
#
#
# Elastic Constant Matrix: (Units=GPa)
#
#
# Indices 1 2 3 4 5 6 
#
# 1 59.5739 32.9636 10.9502 0.0000 0.0000 0.0000
# 2 32.9636 188.7108 21.5160 0.0000 0.0000 0.0000
# 3 10.9502 21.5160 74.5549 0.0000 0.0000 0.0000
# 4 0.0000 0.0000 0.0000 31.9066 0.0000 0.0000
# 5 0.0000 0.0000 0.0000 0.0000 36.1342 0.0000
# 6 0.0000 0.0000 0.0000 0.0000 0.0000 -19.8853
#
#
#
# Elastic Compliance Matrix: (Units=1/GPa)
#
#
# Indices 1 2 3 4 5 6 
#
# 1 0.018833 -0.003076 -0.001878 0.000000 0.000000 0.000000
# 2 -0.003076 0.005982 -0.001275 0.000000 0.000000 0.000000
# 3 -0.001878 -0.001275 0.014057 0.000000 0.000000 0.000000
# 4 0.000000 0.000000 0.000000 0.031341 0.000000 0.000000
# 5 0.000000 0.000000 0.000000 0.000000 0.027675 0.000000
# 6 0.000000 0.000000 0.000000 0.000000 0.000000 -0.050289
#
#
# Mechanical properties :
#
#
# Convention : Reuss Voigt Hill
#
# Bulk Modulus (GPa) = 37.85855 50.41103 44.13479
# Shear Modulus (GPa) = 72.61042 26.79176 49.70109
#
# Velocity S-wave (km/s) = 5.54926 3.37082 4.59112
# Velocity P-wave (km/s) = 7.55744 6.04395 6.84267
#
# Compressibility (1/GPa) = 0.02641411
#
# Stress axis : x y z
#
# Youngs Moduli (GPa) = 53.09853 167.17773 71.14062
#
# Poissons Ratio (x) = 0.51416 0.13364
# Poissons Ratio (y) = 0.16331 0.09067
# Poissons Ratio (z) = 0.09975 0.21308
#
# Static dielectric constant tensor:
#      x y z
#    x 1.954570 0.000000 0.000000 
#    y 0.000000 1.924510 0.000000 
#    z 0.000000 0.000000 1.973050 
# 
# From -- ./inp_files/3596.got.cif
#   From: 2010.05.17/outbox.cif.g08.bks.cpg/sg62_2_cif.got.tgz:3596.got - 2010.06.03 15:25:27.
