data_PCOD9463079
_publ_section_title
;
Structure prediction by ZEFSAII (Michael W. Deem and Ramdas Pophale) SiO2 
 PCOD9463079
Probable space group: P N M A
;
_chemical_formula_sum "Si O2"
_cell_formula_units_Z 56
_cell_length_a 19.822152
_cell_length_b 8.836229
_cell_length_c 19.666929
_cell_angle_alpha 90.000000
_cell_angle_beta 90.000000
_cell_angle_gamma 90.000000
_cell_volume 3444.723077
_symmetry_space_group_name_H-M "P N M A"
_symmetry_group_IT_number 62
_symmetry_cell_setting 'orthorhombic'
loop_
_space_group_symop_operation_xyz
x,y,z
1/2-x,-y,1/2+z
1/2+x,1/2-y,1/2-z
-x,1/2+y,-z
-x,-y,-z
1/2+x,y,1/2-z
1/2-x,1/2+y,1/2+z
x,1/2-y,z
loop_
_atom_site_type_symbol
_atom_site_label
_atom_site_fract_x
_atom_site_fract_y
_atom_site_fract_z
Si Si1 0.735798 0.931369 0.847586
Si Si2 0.836599 0.431694 0.736872
Si Si3 0.551464 0.567256 0.445478
Si Si4 0.622669 0.931447 0.743536
Si Si5 0.794255 0.067458 0.979033
Si Si6 0.480058 0.067834 0.709333
Si Si7 0.735618 0.932455 0.634003
O O1 0.742027 0.750000 0.846005
O O2 0.665320 0.971973 0.810879
O O3 0.793901 0.002669 0.800063
O O4 0.746430 0.993475 0.922831
O O5 0.832436 0.250000 0.738633
O O6 0.914268 0.476994 0.747327
O O7 0.800368 0.494281 0.669746
O O8 0.500000 0.500000 0.500000
O O9 0.548324 0.750000 0.448435
O O10 0.628388 0.523232 0.462717
O O11 0.532129 0.519486 0.368984
O O12 0.615789 0.750000 0.741730
O O13 0.670695 0.975566 0.679899
O O14 0.549841 0.004074 0.737006
O O15 0.790377 0.250000 0.973338
O O16 0.775434 0.024950 0.055929
O O17 0.483080 0.250000 0.709339
O O18 0.741541 0.750000 0.638260
#
# Coordination Sequence:
#
# PCOD9463079 Si02
#       7
#     8   8   8   8   8   8   8
#     4  10  20  34  52  75 101 132 176 216 252 306
#     4  10  19  34  53  73 101 135 172 214 257 300
#     4  10  20  33  47  71 106 138 167 199 245 304
#     4   9  19  34  51  73 102 133 166 210 256 299
#     4  10  19  34  53  73 105 139 167 210 260 304
#     4  10  20  33  50  73 101 133 170 208 249 302
#     4   9  19  34  52  76 104 134 170 210 256 307
#
# _framework density 16.256748999999999
#
# number of rings (size 3 to 8) (size 9 to 14) (size 15 to 20)
#    0.000    2.286    1.429    2.571    0.000    6.857 
#    0.000    0.000    0.000    0.857    0.000    0.000 
#    0.000    0.000    0.000    0.000    0.000    0.000 
#
# Total GULP energy -312424.212964 kJ/mol
# GULP energy per Si atom -5579.003803 kJ/mol
# Density = 1.621975 g / cm^3
# Si number density = 16.256749 Si / 1000 Ang^3
#
#
#
# Elastic Constant Matrix: (Units=GPa)
#
#
# Indices 1 2 3 4 5 6 
#
# 1 160.1110 39.9808 85.1701 0.0000 0.0000 0.0000
# 2 39.9808 19.3144 29.7145 0.0000 0.0000 0.0000
# 3 85.1701 29.7145 96.5178 0.0000 0.0000 0.0000
# 4 0.0000 0.0000 0.0000 28.5575 0.0000 0.0000
# 5 0.0000 0.0000 0.0000 0.0000 22.7451 0.0000
# 6 0.0000 0.0000 0.0000 0.0000 0.0000 29.9095
#
#
#
# Elastic Compliance Matrix: (Units=1/GPa)
#
#
# Indices 1 2 3 4 5 6 
#
# 1 0.015076 -0.020405 -0.007022 0.000000 0.000000 0.000000
# 2 -0.020405 0.125981 -0.020779 0.000000 0.000000 0.000000
# 3 -0.007022 -0.020779 0.022954 0.000000 0.000000 0.000000
# 4 0.000000 0.000000 0.000000 0.035017 0.000000 0.000000
# 5 0.000000 0.000000 0.000000 0.000000 0.043965 0.000000
# 6 0.000000 0.000000 0.000000 0.000000 0.000000 0.033434
#
#
# Mechanical properties :
#
#
# Convention : Reuss Voigt Hill
#
# Bulk Modulus (GPa) = 14.79299 65.07489 39.93394
# Shear Modulus (GPa) = 12.64630 24.31427 18.48028
#
# Velocity S-wave (km/s) = 2.79213 3.87155 3.37527
# Velocity P-wave (km/s) = 4.41747 7.75252 6.30934
#
# Compressibility (1/GPa) = 0.06759957
#
# Stress axis : x y z
#
# Youngs Moduli (GPa) = 66.33085 7.93770 43.56530
#
# Poissons Ratio (x) = 0.16197 0.30589
# Poissons Ratio (y) = 1.35347 0.90526
# Poissons Ratio (z) = 0.46574 0.16494
#
# Static dielectric constant tensor:
#      x y z
#    x 1.527320 0.000000 0.000000 
#    y 0.000000 1.548400 0.000000 
#    z 0.000000 0.000000 1.538590 
# 
# From -- ./inp_files/27511.got.cif
#   From: 2010.05.17/outbox.cif.g08.bks.cpg/sg62_14_cif.got.tgz:27511.got - 2010.06.03 15:25:27.
