data_PCOD9463590
_publ_section_title
;
Structure prediction by ZEFSAII (Michael W. Deem and Ramdas Pophale) SiO2 
 PCOD9463590
Probable space group: P N M A
;
_chemical_formula_sum "Si O2"
_cell_formula_units_Z 48
_cell_length_a 13.617764
_cell_length_b 13.889265
_cell_length_c 11.989753
_cell_angle_alpha 90.000000
_cell_angle_beta 90.000000
_cell_angle_gamma 90.000000
_cell_volume 2267.750670
_symmetry_space_group_name_H-M "P N M A"
_symmetry_group_IT_number 62
_symmetry_cell_setting 'orthorhombic'
loop_
_space_group_symop_operation_xyz
x,y,z
1/2-x,-y,1/2+z
1/2+x,1/2-y,1/2-z
-x,1/2+y,-z
-x,-y,-z
1/2+x,y,1/2-z
1/2-x,1/2+y,1/2+z
x,1/2-y,z
loop_
_atom_site_type_symbol
_atom_site_label
_atom_site_fract_x
_atom_site_fract_y
_atom_site_fract_z
Si Si1 0.909826 0.861338 0.949335
Si Si2 0.908278 0.993418 0.330878
Si Si3 0.212072 0.548135 0.063039
Si Si4 0.709099 0.860902 0.671256
Si Si5 0.536281 0.636887 0.328000
Si Si6 0.556972 0.140432 0.195397
O O1 0.875913 0.750000 0.951843
O O2 0.961067 0.875114 0.828782
O O3 0.823354 0.938932 0.958453
O O4 0.982813 0.877350 0.052241
O O5 0.843269 0.062576 0.250454
O O6 0.992792 0.065410 0.373681
O O7 0.827257 0.949472 0.412076
O O8 0.966452 0.912904 0.261999
O O9 0.142914 0.587555 0.162324
O O10 0.188159 0.612965 0.956298
O O11 0.682022 0.750000 0.696078
O O12 0.826439 0.870342 0.684793
O O13 0.546406 0.750000 0.308093
O O14 0.531539 0.250000 0.166905
#
# Coordination Sequence:
#
# PCOD9463590 Si02
#       6
#     8   8   8   8   8   8
#     4  10  19  36  62  89 117 148 194 253 296 349
#     4  12  22  38  64  88 119 162 199 252 300 356
#     4  12  23  39  62  89 124 154 203 249 305 354
#     4  11  23  39  62  92 123 159 202 248 302 359
#     4  11  23  39  59  86 119 157 203 249 300 359
#     4  10  21  38  60  91 122 151 199 253 301 354
#
# _framework density 21.166347999999999
#
# number of rings (size 3 to 8) (size 9 to 14) (size 15 to 20)
#    0.000    1.000    5.000    2.500    0.000    4.000 
#    0.000    0.000    0.000    0.000    0.000    0.000 
#    0.000    0.000    0.000    0.000    0.000    0.000 
#
# Total GULP energy -268438.909602 kJ/mol
# GULP energy per Si atom -5592.477283 kJ/mol
# Density = 2.111817 g / cm^3
# Si number density = 21.166348 Si / 1000 Ang^3
#
#
#
# Elastic Constant Matrix: (Units=GPa)
#
#
# Indices 1 2 3 4 5 6 
#
# 1 88.3583 31.6790 -3.5400 0.0000 0.0000 0.0000
# 2 31.6790 92.2897 -0.2588 0.0000 0.0000 0.0000
# 3 -3.5400 -0.2588 10.4167 0.0000 0.0000 0.0000
# 4 0.0000 0.0000 0.0000 19.6855 0.0000 0.0000
# 5 0.0000 0.0000 0.0000 0.0000 25.6681 0.0000
# 6 0.0000 0.0000 0.0000 0.0000 0.0000 30.3372
#
#
#
# Elastic Compliance Matrix: (Units=1/GPa)
#
#
# Indices 1 2 3 4 5 6 
#
# 1 0.013099 -0.004484 0.004340 0.000000 0.000000 0.000000
# 2 -0.004484 0.012371 -0.001216 0.000000 0.000000 0.000000
# 3 0.004340 -0.001216 0.097444 0.000000 0.000000 0.000000
# 4 0.000000 0.000000 0.000000 0.050799 0.000000 0.000000
# 5 0.000000 0.000000 0.000000 0.000000 0.038959 0.000000
# 6 0.000000 0.000000 0.000000 0.000000 0.000000 0.032963
#
#
# Mechanical properties :
#
#
# Convention : Reuss Voigt Hill
#
# Bulk Modulus (GPa) = 8.31992 27.42500 17.87246
# Shear Modulus (GPa) = 17.33580 26.01713 21.67647
#
# Velocity S-wave (km/s) = 2.86497 3.50976 3.20363
# Velocity P-wave (km/s) = 3.85789 5.42306 4.70600
#
# Compressibility (1/GPa) = 0.12019349
#
# Stress axis : x y z
#
# Youngs Moduli (GPa) = 76.34086 80.83253 10.26230
#
# Poissons Ratio (x) = 0.36247 -0.04454
# Poissons Ratio (y) = 0.34233 0.01248
# Poissons Ratio (z) = -0.33133 0.09833
#
# Static dielectric constant tensor:
#      x y z
#    x 1.799060 0.000000 0.000000 
#    y 0.000000 1.748990 0.000000 
#    z 0.000000 0.000000 1.778650 
# 
# From -- ./inp_files/13309.got.cif
#   From: 2010.05.17/outbox.cif.g08.bks.cpg/sg62_7_cif.got.tgz:13309.got - 2010.06.03 15:25:27.
