data_PCOD9463361
_publ_section_title
;
Structure prediction by ZEFSAII (Michael W. Deem and Ramdas Pophale) SiO2 
 PCOD9463361
Probable space group: P N M A
;
_chemical_formula_sum "Si O2"
_cell_formula_units_Z 44
_cell_length_a 5.000155
_cell_length_b 27.619415
_cell_length_c 15.633401
_cell_angle_alpha 90.000000
_cell_angle_beta 90.000000
_cell_angle_gamma 90.000000
_cell_volume 2158.993877
_symmetry_space_group_name_H-M "P N M A"
_symmetry_group_IT_number 62
_symmetry_cell_setting 'orthorhombic'
loop_
_space_group_symop_operation_xyz
x,y,z
1/2-x,-y,1/2+z
1/2+x,1/2-y,1/2-z
-x,1/2+y,-z
-x,-y,-z
1/2+x,y,1/2-z
1/2-x,1/2+y,1/2+z
x,1/2-y,z
loop_
_atom_site_type_symbol
_atom_site_label
_atom_site_fract_x
_atom_site_fract_y
_atom_site_fract_z
Si Si1 0.870401 0.640859 0.691080
Si Si2 0.246105 0.750000 0.306948
Si Si3 0.744209 0.035998 0.192349
Si Si4 0.673560 0.692933 0.528885
Si Si5 0.133540 0.930980 0.311730
Si Si6 0.806935 0.338755 0.570877
O O1 0.666406 0.644332 0.771047
O O2 0.824145 0.587294 0.650310
O O3 0.788601 0.679964 0.621651
O O4 0.445021 0.750000 0.227332
O O5 0.291095 0.797864 0.362558
O O6 0.550128 0.035993 0.276286
O O7 0.675380 0.984880 0.149798
O O8 0.619537 0.750000 0.522449
O O9 0.405046 0.663747 0.506186
O O10 0.904044 0.677404 0.462756
O O11 0.347933 0.926571 0.234517
O O12 0.177651 0.889509 0.380849
#
# Coordination Sequence:
#
# PCOD9463361 Si02
#       6
#     8   4   8   8   8   8
#     4  10  21  39  63  87 107 141 193 234 278 350
#     4  12  22  36  58  80 106 148 198 230 252 314
#     4   8  16  32  56  83 111 139 177 234 284 321
#     4  12  24  41  57  79 118 155 179 236 299 325
#     4  10  19  35  58  84 113 149 190 231 271 326
#     4  12  23  39  55  83 116 153 188 228 286 331
#
# _framework density 20.379863
#
# number of rings (size 3 to 8) (size 9 to 14) (size 15 to 20)
#    0.000    1.455    1.818    4.364    0.000    0.727 
#    0.000    1.818    0.000    0.000    0.000    0.000 
#    0.000    0.000    0.000    0.000    0.000    0.000 
#
# Total GULP energy -245793.600685 kJ/mol
# GULP energy per Si atom -5586.218197 kJ/mol
# Density = 2.033348 g / cm^3
# Si number density = 20.379863 Si / 1000 Ang^3
#
#
#
# Elastic Constant Matrix: (Units=GPa)
#
#
# Indices 1 2 3 4 5 6 
#
# 1 53.0805 1.1852 -1.4480 0.0000 0.0000 0.0000
# 2 1.1852 58.4260 12.0019 0.0000 0.0000 0.0000
# 3 -1.4480 12.0019 27.2482 0.0000 0.0000 0.0000
# 4 0.0000 0.0000 0.0000 -29.1296 0.0000 0.0000
# 5 0.0000 0.0000 0.0000 0.0000 22.9320 0.0000
# 6 0.0000 0.0000 0.0000 0.0000 0.0000 19.6316
#
#
#
# Elastic Compliance Matrix: (Units=1/GPa)
#
#
# Indices 1 2 3 4 5 6 
#
# 1 0.018889 -0.000648 0.001289 0.000000 0.000000 0.000000
# 2 -0.000648 0.018841 -0.008333 0.000000 0.000000 0.000000
# 3 0.001289 -0.008333 0.040439 0.000000 0.000000 0.000000
# 4 0.000000 0.000000 0.000000 -0.034329 0.000000 0.000000
# 5 0.000000 0.000000 0.000000 0.000000 0.043607 0.000000
# 6 0.000000 0.000000 0.000000 0.000000 0.000000 0.050938
#
#
# Mechanical properties :
#
#
# Convention : Reuss Voigt Hill
#
# Bulk Modulus (GPa) = 15.92751 18.02589 16.97670
# Shear Modulus (GPa) = 28.62110 11.15450 19.88780
#
# Velocity S-wave (km/s) = 3.75157 2.34205 3.12726
# Velocity P-wave (km/s) = 5.15733 4.02215 4.62470
#
# Compressibility (1/GPa) = 0.06278444
#
# Stress axis : x y z
#
# Youngs Moduli (GPa) = 52.94103 53.07689 24.72881
#
# Poissons Ratio (x) = 0.03439 -0.03188
# Poissons Ratio (y) = 0.03431 0.20607
# Poissons Ratio (z) = -0.06825 0.44229
#
# Static dielectric constant tensor:
#      x y z
#    x 1.711930 0.000000 0.000000 
#    y 0.000000 1.739020 0.000000 
#    z 0.000000 0.000000 1.696650 
# 
# From -- ./inp_files/16214.got.cif
#   From: 2010.05.17/outbox.cif.g08.bks.cpg/sg62_9_cif.got.tgz:16214.got - 2010.06.03 15:25:27.
