data_PCOD9463223
_publ_section_title
;
Structure prediction by ZEFSAII (Michael W. Deem and Ramdas Pophale) SiO2 
 PCOD9463223
Probable space group: P N M A
;
_chemical_formula_sum "Si O2"
_cell_formula_units_Z 48
_cell_length_a 16.645574
_cell_length_b 9.970092
_cell_length_c 15.064411
_cell_angle_alpha 90.000000
_cell_angle_beta 90.000000
_cell_angle_gamma 90.000000
_cell_volume 2500.058077
_symmetry_space_group_name_H-M "P N M A"
_symmetry_group_IT_number 62
_symmetry_cell_setting 'orthorhombic'
loop_
_space_group_symop_operation_xyz
x,y,z
1/2-x,-y,1/2+z
1/2+x,1/2-y,1/2-z
-x,1/2+y,-z
-x,-y,-z
1/2+x,y,1/2-z
1/2-x,1/2+y,1/2+z
x,1/2-y,z
loop_
_atom_site_type_symbol
_atom_site_label
_atom_site_fract_x
_atom_site_fract_y
_atom_site_fract_z
Si Si1 0.778906 0.595219 0.139686
Si Si2 0.357668 0.602586 0.798388
Si Si3 0.915931 0.603251 0.286042
Si Si4 0.982792 0.402706 0.418233
Si Si5 0.960338 0.496112 0.855064
Si Si6 0.609283 0.898324 0.536531
O O1 0.763627 0.750000 0.114708
O O2 0.700603 0.513238 0.167541
O O3 0.837419 0.596072 0.225268
O O4 0.828416 0.513219 0.065286
O O5 0.318695 0.750000 0.800996
O O6 0.435172 0.605132 0.861930
O O7 0.393355 0.574317 0.700698
O O8 0.919742 0.750000 0.330257
O O9 0.921060 0.481125 0.354301
O O10 0.990692 0.590361 0.217494
O O11 0.958775 0.250000 0.441103
O O12 0.000000 0.500000 0.500000
O O13 0.029914 0.584757 0.901799
O O14 0.919804 0.416691 0.935624
O O15 0.643400 0.750000 0.549953
#
# Coordination Sequence:
#
# PCOD9463223 Si02
#       6
#     8   8   8   8   8   8
#     4  10  22  37  54  80 115 150 184 226 277 329
#     4  10  21  38  58  81 111 147 186 229 276 330
#     4   9  18  35  57  81 110 144 182 227 274 327
#     4  10  21  37  59  84 107 141 187 233 276 325
#     4   9  19  33  58  88 111 141 184 230 275 330
#     4  10  19  34  58  86 115 147 182 226 277 331
#
# _framework density 19.199553000000002
#
# number of rings (size 3 to 8) (size 9 to 14) (size 15 to 20)
#    0.000    2.333    0.000    2.000    0.000   13.333 
#    3.000    0.000    0.000    0.000    0.000    0.000 
#    0.000    0.000    0.000    0.000    0.000    0.000 
#
# Total GULP energy -267681.270821 kJ/mol
# GULP energy per Si atom -5576.693142 kJ/mol
# Density = 1.915585 g / cm^3
# Si number density = 19.199553 Si / 1000 Ang^3
#
#
#
# Elastic Constant Matrix: (Units=GPa)
#
#
# Indices 1 2 3 4 5 6 
#
# 1 28.9736 14.8556 -12.7348 0.0000 0.0000 0.0000
# 2 14.8556 161.3429 25.2549 0.0000 0.0000 0.0000
# 3 -12.7348 25.2549 60.7516 0.0000 0.0000 0.0000
# 4 0.0000 0.0000 0.0000 12.8361 0.0000 0.0000
# 5 0.0000 0.0000 0.0000 0.0000 8.8666 0.0000
# 6 0.0000 0.0000 0.0000 0.0000 0.0000 8.8759
#
#
#
# Elastic Compliance Matrix: (Units=1/GPa)
#
#
# Indices 1 2 3 4 5 6 
#
# 1 0.042350 -0.005657 0.011229 0.000000 0.000000 0.000000
# 2 -0.005657 0.007385 -0.004256 0.000000 0.000000 0.000000
# 3 0.011229 -0.004256 0.020584 0.000000 0.000000 0.000000
# 4 0.000000 0.000000 0.000000 0.077905 0.000000 0.000000
# 5 0.000000 0.000000 0.000000 0.000000 0.112783 0.000000
# 6 0.000000 0.000000 0.000000 0.000000 0.000000 0.112664
#
#
# Mechanical properties :
#
#
# Convention : Reuss Voigt Hill
#
# Bulk Modulus (GPa) = 13.70777 33.97997 23.84387
# Shear Modulus (GPa) = 12.64680 21.02853 16.83767
#
# Velocity S-wave (km/s) = 2.56931 3.31306 2.96460
# Velocity P-wave (km/s) = 3.99461 5.68963 4.91573
#
# Compressibility (1/GPa) = 0.07295132
#
# Stress axis : x y z
#
# Youngs Moduli (GPa) = 23.61258 135.40915 48.58252
#
# Poissons Ratio (x) = 0.76602 -0.54554
# Poissons Ratio (y) = 0.13358 0.20676
# Poissons Ratio (z) = -0.26515 0.57628
#
# Static dielectric constant tensor:
#      x y z
#    x 1.649240 0.000000 0.000000 
#    y 0.000000 1.697980 0.000000 
#    z 0.000000 0.000000 1.664170 
# 
# From -- ./inp_files/19642.got.cif
#   From: 2010.05.17/outbox.cif.g08.bks.cpg/sg62_10_cif.got.tgz:19642.got - 2010.06.03 15:25:27.
