data_PCOD9463828
_publ_section_title
;
Structure prediction by ZEFSAII (Michael W. Deem and Ramdas Pophale) SiO2 
 PCOD9463828
Probable space group: P N M A
;
_chemical_formula_sum "Si O2"
_cell_formula_units_Z 48
_cell_length_a 32.031944
_cell_length_b 9.207564
_cell_length_c 6.909905
_cell_angle_alpha 90.000000
_cell_angle_beta 90.000000
_cell_angle_gamma 90.000000
_cell_volume 2037.980946
_symmetry_space_group_name_H-M "P N M A"
_symmetry_group_IT_number 62
_symmetry_cell_setting 'orthorhombic'
loop_
_space_group_symop_operation_xyz
x,y,z
1/2-x,-y,1/2+z
1/2+x,1/2-y,1/2-z
-x,1/2+y,-z
-x,-y,-z
1/2+x,y,1/2-z
1/2-x,1/2+y,1/2+z
x,1/2-y,z
loop_
_atom_site_type_symbol
_atom_site_label
_atom_site_fract_x
_atom_site_fract_y
_atom_site_fract_z
Si Si1 0.026616 0.915920 0.725856
Si Si2 0.632982 0.424736 0.428939
Si Si3 0.304592 0.587028 0.039265
Si Si4 0.946696 0.416235 0.816936
Si Si5 0.882031 0.423622 0.343509
Si Si6 0.222196 0.411875 0.986017
O O1 0.014442 0.750000 0.680360
O O2 0.069329 0.954164 0.614291
O O3 0.039970 0.916492 0.954330
O O4 0.987595 0.022417 0.710812
O O5 0.629773 0.250000 0.445913
O O6 0.594789 0.486261 0.303438
O O7 0.625219 0.503253 0.634424
O O8 0.682003 0.457394 0.385508
O O9 0.312090 0.750000 0.966819
O O10 0.345905 0.489902 0.023367
O O11 0.295895 0.598239 0.270152
O O12 0.261258 0.517642 0.971762
O O13 0.937172 0.250000 0.764268
O O14 0.877433 0.250000 0.329941
O O15 0.236240 0.250000 0.046220
#
# Coordination Sequence:
#
# PCOD9463828 Si02
#       6
#     8   8   8   8   8   8
#     4   8  14  22  32  49  74 106 140 172 211 258
#     4   9  16  26  39  56  81 111 144 181 219 263
#     4  10  20  32  48  69  91 119 153 188 228 270
#     4   9  15  21  32  51  75 106 141 175 214 259
#     4   9  16  26  40  57  80 111 144 179 220 264
#     4   9  19  33  47  66  91 119 152 188 226 268
#
# _framework density 23.552724000000001
#
# number of rings (size 3 to 8) (size 9 to 14) (size 15 to 20)
#    0.000    3.000    0.000    4.000    0.000    8.667 
#    0.000    0.000    0.000    0.000    0.000    0.000 
#    0.000    1.333    0.000    4.333    0.000   11.667 
#
# Total GULP energy -268216.842788 kJ/mol
# GULP energy per Si atom -5587.850891 kJ/mol
# Density = 2.349912 g / cm^3
# Si number density = 23.552724 Si / 1000 Ang^3
#
#
#
# Elastic Constant Matrix: (Units=GPa)
#
#
# Indices 1 2 3 4 5 6 
#
# 1 205.0126 124.3051 27.4562 0.0000 0.0000 0.0000
# 2 124.3051 144.1093 18.1147 0.0000 0.0000 0.0000
# 3 27.4562 18.1147 67.7317 0.0000 0.0000 0.0000
# 4 0.0000 0.0000 0.0000 5.8452 0.0000 0.0000
# 5 0.0000 0.0000 0.0000 0.0000 49.3902 0.0000
# 6 0.0000 0.0000 0.0000 0.0000 0.0000 49.0270
#
#
#
# Elastic Compliance Matrix: (Units=1/GPa)
#
#
# Indices 1 2 3 4 5 6 
#
# 1 0.010455 -0.008780 -0.001890 0.000000 0.000000 0.000000
# 2 -0.008780 0.014555 -0.000333 0.000000 0.000000 0.000000
# 3 -0.001890 -0.000333 0.015619 0.000000 0.000000 0.000000
# 4 0.000000 0.000000 0.000000 0.171080 0.000000 0.000000
# 5 0.000000 0.000000 0.000000 0.000000 0.020247 0.000000
# 6 0.000000 0.000000 0.000000 0.000000 0.000000 0.020397
#
#
# Mechanical properties :
#
#
# Convention : Reuss Voigt Hill
#
# Bulk Modulus (GPa) = 53.70019 84.06729 68.88374
# Shear Modulus (GPa) = 17.82108 37.31765 27.56937
#
# Velocity S-wave (km/s) = 2.75370 3.98481 3.42502
# Velocity P-wave (km/s) = 5.74108 7.54601 6.70456
#
# Compressibility (1/GPa) = 0.01862191
#
# Stress axis : x y z
#
# Youngs Moduli (GPa) = 95.65165 68.70588 64.02327
#
# Poissons Ratio (x) = 0.60326 0.12098
# Poissons Ratio (y) = 0.83985 0.02134
# Poissons Ratio (z) = 0.18075 0.02291
#
# Static dielectric constant tensor:
#      x y z
#    x 1.874060 0.000000 0.000000 
#    y 0.000000 2.129330 0.000000 
#    z 0.000000 0.000000 2.039440 
# 
# From -- ./inp_files/15398.got.cif
#   From: 2010.05.17/outbox.cif.g08.bks.cpg/sg62_8_cif.got.tgz:15398.got - 2010.06.03 15:25:27.
