data_PCOD9463497
_publ_section_title
;
Structure prediction by ZEFSAII (Michael W. Deem and Ramdas Pophale) SiO2 
 PCOD9463497
Probable space group: P N M A
;
_chemical_formula_sum "Si O2"
_cell_formula_units_Z 56
_cell_length_a 10.420145
_cell_length_b 22.273612
_cell_length_c 14.148827
_cell_angle_alpha 90.000000
_cell_angle_beta 90.000000
_cell_angle_gamma 90.000000
_cell_volume 3283.861627
_symmetry_space_group_name_H-M "P N M A"
_symmetry_group_IT_number 62
_symmetry_cell_setting 'orthorhombic'
loop_
_space_group_symop_operation_xyz
x,y,z
1/2-x,-y,1/2+z
1/2+x,1/2-y,1/2-z
-x,1/2+y,-z
-x,-y,-z
1/2+x,y,1/2-z
1/2-x,1/2+y,1/2+z
x,1/2-y,z
loop_
_atom_site_type_symbol
_atom_site_label
_atom_site_fract_x
_atom_site_fract_y
_atom_site_fract_z
Si Si1 0.182779 0.533889 0.570351
Si Si2 0.330060 0.594495 0.413432
Si Si3 0.095503 0.681378 0.361768
Si Si4 0.097335 0.627211 0.161072
Si Si5 0.101646 0.069614 0.427665
Si Si6 0.287137 0.010646 0.762014
Si Si7 0.674367 0.178657 0.967930
O O1 0.298485 0.564420 0.513435
O O2 0.151927 0.471821 0.514813
O O3 0.216808 0.523550 0.678290
O O4 0.051845 0.571526 0.563149
O O5 0.213791 0.640532 0.394252
O O6 0.470066 0.621536 0.401516
O O7 0.311135 0.545033 0.331105
O O8 0.130222 0.750000 0.378451
O O9 0.073178 0.669467 0.251044
O O10 0.961664 0.669266 0.414528
O O11 0.131950 0.562716 0.208545
O O12 0.213885 0.653649 0.099980
O O13 0.164327 0.134821 0.441364
O O14 0.135288 0.033354 0.332029
O O15 0.690168 0.250000 0.985761
#
# Coordination Sequence:
#
# PCOD9463497 Si02
#       7
#     8   8   8   8   8   8   8
#     4  10  19  36  58  82 113 149 186 236 288 334
#     4  10  21  34  55  83 117 145 183 233 281 341
#     4  10  20  35  55  78 109 154 194 224 277 344
#     4  11  21  33  52  88 120 143 180 236 293 343
#     4  10  20  36  58  83 113 153 192 232 285 345
#     4  10  20  34  56  85 116 145 185 237 290 338
#     4  11  22  38  58  80 115 158 195 232 283 351
#
# _framework density 17.053094000000002
#
# number of rings (size 3 to 8) (size 9 to 14) (size 15 to 20)
#    0.000    1.714    2.857    3.000    2.000    2.857 
#    2.571    0.000    0.000    1.714    0.000    0.000 
#    0.000    0.000    0.000    0.000    0.000    0.000 
#
# Total GULP energy -312368.344922 kJ/mol
# GULP energy per Si atom -5578.006159 kJ/mol
# Density = 1.701428 g / cm^3
# Si number density = 17.053094 Si / 1000 Ang^3
#
#
#
# Elastic Constant Matrix: (Units=GPa)
#
#
# Indices 1 2 3 4 5 6 
#
# 1 54.8629 49.0034 25.3407 0.0000 0.0000 0.0000
# 2 49.0034 85.0939 45.0354 0.0000 0.0000 0.0000
# 3 25.3407 45.0354 75.4497 0.0000 0.0000 0.0000
# 4 0.0000 0.0000 0.0000 22.1305 0.0000 0.0000
# 5 0.0000 0.0000 0.0000 0.0000 18.1002 0.0000
# 6 0.0000 0.0000 0.0000 0.0000 0.0000 12.6191
#
#
#
# Elastic Compliance Matrix: (Units=1/GPa)
#
#
# Indices 1 2 3 4 5 6 
#
# 1 0.037543 -0.021849 0.000432 0.000000 0.000000 0.000000
# 2 -0.021849 0.029894 -0.010505 0.000000 0.000000 0.000000
# 3 0.000432 -0.010505 0.019379 0.000000 0.000000 0.000000
# 4 0.000000 0.000000 0.000000 0.045186 0.000000 0.000000
# 5 0.000000 0.000000 0.000000 0.000000 0.055248 0.000000
# 6 0.000000 0.000000 0.000000 0.000000 0.000000 0.079245
#
#
# Mechanical properties :
#
#
# Convention : Reuss Voigt Hill
#
# Bulk Modulus (GPa) = 43.53084 50.46283 46.99684
# Shear Modulus (GPa) = 14.79308 16.97177 15.88243
#
# Velocity S-wave (km/s) = 2.94848 3.15815 3.05512
# Velocity P-wave (km/s) = 6.09701 6.55396 6.32961
#
# Compressibility (1/GPa) = 0.02297222
#
# Stress axis : x y z
#
# Youngs Moduli (GPa) = 26.63623 33.45196 51.60176
#
# Poissons Ratio (x) = 0.73088 -0.02230
# Poissons Ratio (y) = 0.58197 0.54208
# Poissons Ratio (z) = -0.01151 0.35142
#
# Static dielectric constant tensor:
#      x y z
#    x 1.580460 0.000000 0.000000 
#    y 0.000000 1.612500 0.000000 
#    z 0.000000 0.000000 1.572260 
# 
# From -- ./inp_files/17193.got.cif
#   From: 2010.05.17/outbox.cif.g08.bks.cpg/sg62_9_cif.got.tgz:17193.got - 2010.06.03 15:25:27.
