data_PCOD9463959
_publ_section_title
;
Structure prediction by ZEFSAII (Michael W. Deem and Ramdas Pophale) SiO2 
 PCOD9463959
Probable space group: P N M A
;
_chemical_formula_sum "Si O2"
_cell_formula_units_Z 48
_cell_length_a 16.696358
_cell_length_b 9.022381
_cell_length_c 18.778738
_cell_angle_alpha 90.000000
_cell_angle_beta 90.000000
_cell_angle_gamma 90.000000
_cell_volume 2828.846053
_symmetry_space_group_name_H-M "P N M A"
_symmetry_group_IT_number 62
_symmetry_cell_setting 'orthorhombic'
loop_
_space_group_symop_operation_xyz
x,y,z
1/2-x,-y,1/2+z
1/2+x,1/2-y,1/2-z
-x,1/2+y,-z
-x,-y,-z
1/2+x,y,1/2-z
1/2-x,1/2+y,1/2+z
x,1/2-y,z
loop_
_atom_site_type_symbol
_atom_site_label
_atom_site_fract_x
_atom_site_fract_y
_atom_site_fract_z
Si Si1 0.077146 0.427341 0.537505
Si Si2 0.503354 0.573073 0.670775
Si Si3 0.009537 0.926957 0.323517
Si Si4 0.167088 0.926389 0.417214
Si Si5 0.427173 0.073008 0.543612
Si Si6 0.669809 0.926351 0.590804
O O1 0.075710 0.250000 0.528799
O O2 0.062623 0.459180 0.620821
O O3 0.149812 0.495909 0.493267
O O4 0.000000 0.500000 0.500000
O O5 0.494924 0.750000 0.666948
O O6 0.498179 0.514706 0.750677
O O7 0.435615 0.497354 0.621307
O O8 0.590659 0.535723 0.636797
O O9 0.009463 0.750000 0.309956
O O10 0.092879 0.962486 0.364509
O O11 0.167482 0.750000 0.426381
O O12 0.251354 0.984861 0.388524
O O13 0.437466 0.250000 0.547446
O O14 0.351826 0.043592 0.492312
O O15 0.500000 0.000000 0.500000
O O16 0.683198 0.750000 0.598149
#
# Coordination Sequence:
#
# PCOD9463959 Si02
#       6
#     8   8   8   8   8   8
#     4   9  17  31  51  73  98 129 165 203 244 293
#     4  10  20  33  52  77 102 133 171 208 251 301
#     4   9  19  34  51  74 102 133 168 204 248 302
#     4  10  20  33  52  77 101 130 169 210 255 303
#     4   9  17  31  51  73  98 128 164 204 244 293
#     4   9  19  34  51  74 101 129 165 209 254 298
#
# _framework density 16.968050000000002
#
# number of rings (size 3 to 8) (size 9 to 14) (size 15 to 20)
#    0.000    2.667    0.000    4.000    0.000    8.000 
#    0.000    1.667    0.000    2.000    0.000    0.000 
#    0.000    0.000    0.000    0.000    0.000    0.000 
#
# Total GULP energy -267321.156784 kJ/mol
# GULP energy per Si atom -5569.190766 kJ/mol
# Density = 1.692943 g / cm^3
# Si number density = 16.968050 Si / 1000 Ang^3
#
#
#
# Elastic Constant Matrix: (Units=GPa)
#
#
# Indices 1 2 3 4 5 6 
#
# 1 67.1161 36.2951 32.8866 0.0000 0.0000 0.0000
# 2 36.2951 56.9109 54.3908 0.0000 0.0000 0.0000
# 3 32.8866 54.3908 120.4185 0.0000 0.0000 0.0000
# 4 0.0000 0.0000 0.0000 32.9235 0.0000 0.0000
# 5 0.0000 0.0000 0.0000 0.0000 15.6345 0.0000
# 6 0.0000 0.0000 0.0000 0.0000 0.0000 27.9078
#
#
#
# Elastic Compliance Matrix: (Units=1/GPa)
#
#
# Indices 1 2 3 4 5 6 
#
# 1 0.022768 -0.015093 0.000599 0.000000 0.000000 0.000000
# 2 -0.015093 0.040923 -0.014362 0.000000 0.000000 0.000000
# 3 0.000599 -0.014362 0.014628 0.000000 0.000000 0.000000
# 4 0.000000 0.000000 0.000000 0.030373 0.000000 0.000000
# 5 0.000000 0.000000 0.000000 0.000000 0.063961 0.000000
# 6 0.000000 0.000000 0.000000 0.000000 0.000000 0.035832
#
#
# Mechanical properties :
#
#
# Convention : Reuss Voigt Hill
#
# Bulk Modulus (GPa) = 48.52742 54.62116 51.57429
# Shear Modulus (GPa) = 18.31049 23.35137 20.83093
#
# Velocity S-wave (km/s) = 3.28855 3.71374 3.50759
# Velocity P-wave (km/s) = 6.56360 7.11685 6.84582
#
# Compressibility (1/GPa) = 0.02060691
#
# Stress axis : x y z
#
# Youngs Moduli (GPa) = 43.92131 24.43586 68.36238
#
# Poissons Ratio (x) = 0.36881 -0.04097
# Poissons Ratio (y) = 0.66291 0.98185
# Poissons Ratio (z) = -0.02632 0.35096
#
# Static dielectric constant tensor:
#      x y z
#    x 1.611680 0.000000 0.000000 
#    y 0.000000 1.560210 0.000000 
#    z 0.000000 0.000000 1.599300 
# 
# From -- ./inp_files/23754.got.cif
#   From: 2010.05.17/outbox.cif.g08.bks.cpg/sg62_12_cif.got.tgz:23754.got - 2010.06.03 15:25:27.
