data_PCOD9463333
_publ_section_title
;
Structure prediction by ZEFSAII (Michael W. Deem and Ramdas Pophale) SiO2 
 PCOD9463333
Probable space group: P N M A
;
_chemical_formula_sum "Si O2"
_cell_formula_units_Z 48
_cell_length_a 9.280947
_cell_length_b 12.920255
_cell_length_c 22.301258
_cell_angle_alpha 90.000000
_cell_angle_beta 90.000000
_cell_angle_gamma 90.000000
_cell_volume 2674.192952
_symmetry_space_group_name_H-M "P N M A"
_symmetry_group_IT_number 62
_symmetry_cell_setting 'orthorhombic'
loop_
_space_group_symop_operation_xyz
x,y,z
1/2-x,-y,1/2+z
1/2+x,1/2-y,1/2-z
-x,1/2+y,-z
-x,-y,-z
1/2+x,y,1/2-z
1/2-x,1/2+y,1/2+z
x,1/2-y,z
loop_
_atom_site_type_symbol
_atom_site_label
_atom_site_fract_x
_atom_site_fract_y
_atom_site_fract_z
Si Si1 0.598945 0.038555 0.672278
Si Si2 0.200443 0.866879 0.417352
Si Si3 0.966466 0.373928 0.074563
Si Si4 0.225497 0.508324 0.019941
Si Si5 0.309824 0.372025 0.733391
Si Si6 0.608881 0.134120 0.882122
O O1 0.650288 0.110007 0.616528
O O2 0.732093 0.054425 0.717954
O O3 0.457677 0.082114 0.705894
O O4 0.575310 0.928940 0.638302
O O5 0.202113 0.750000 0.438177
O O6 0.061443 0.882666 0.375350
O O7 0.184495 0.941260 0.473258
O O8 0.979708 0.250000 0.079187
O O9 0.853513 0.406623 0.022230
O O10 0.109901 0.432575 0.051558
O O11 0.321482 0.557541 0.070916
O O12 0.328482 0.250000 0.752994
O O13 0.194899 0.370284 0.679355
O O14 0.626368 0.250000 0.906699
#
# Coordination Sequence:
#
# PCOD9463333 Si02
#       6
#     8   8   8   8   8   8
#     4  11  22  38  57  83 114 147 191 238 288 341
#     4  10  20  33  54  84 118 150 183 229 285 341
#     4  10  21  37  58  84 117 154 195 237 286 342
#     4  10  19  35  57  85 114 154 190 234 279 339
#     4  11  21  35  57  82 112 146 186 236 289 341
#     4  10  20  34  54  85 119 148 183 232 287 336
#
# _framework density 17.949341
#
# number of rings (size 3 to 8) (size 9 to 14) (size 15 to 20)
#    0.000    1.667    1.667    4.000    0.000    1.333 
#    0.000    0.833    0.000    1.000    0.000    0.000 
#    0.000    0.000    0.000    0.000    0.000    0.000 
#
# Total GULP energy -267564.730762 kJ/mol
# GULP energy per Si atom -5574.265224 kJ/mol
# Density = 1.790849 g / cm^3
# Si number density = 17.949341 Si / 1000 Ang^3
#
#
#
# Elastic Constant Matrix: (Units=GPa)
#
#
# Indices 1 2 3 4 5 6 
#
# 1 67.5966 49.5673 27.5031 0.0000 0.0000 0.0000
# 2 49.5673 121.7713 49.8030 0.0000 0.0000 0.0000
# 3 27.5031 49.8030 73.2018 0.0000 0.0000 0.0000
# 4 0.0000 0.0000 0.0000 19.6841 0.0000 0.0000
# 5 0.0000 0.0000 0.0000 0.0000 39.0888 0.0000
# 6 0.0000 0.0000 0.0000 0.0000 0.0000 17.9168
#
#
#
# Elastic Compliance Matrix: (Units=1/GPa)
#
#
# Indices 1 2 3 4 5 6 
#
# 1 0.021538 -0.007561 -0.002948 0.000000 0.000000 0.000000
# 2 -0.007561 0.014033 -0.006706 0.000000 0.000000 0.000000
# 3 -0.002948 -0.006706 0.019331 0.000000 0.000000 0.000000
# 4 0.000000 0.000000 0.000000 0.050802 0.000000 0.000000
# 5 0.000000 0.000000 0.000000 0.000000 0.025583 0.000000
# 6 0.000000 0.000000 0.000000 0.000000 0.000000 0.055814
#
#
# Mechanical properties :
#
#
# Convention : Reuss Voigt Hill
#
# Bulk Modulus (GPa) = 48.85022 57.36851 53.10936
# Shear Modulus (GPa) = 21.89580 24.38436 23.14008
#
# Velocity S-wave (km/s) = 3.49645 3.68980 3.59442
# Velocity P-wave (km/s) = 6.60113 7.08403 6.84684
#
# Compressibility (1/GPa) = 0.02047074
#
# Stress axis : x y z
#
# Youngs Moduli (GPa) = 46.43055 71.26164 51.73040
#
# Poissons Ratio (x) = 0.53884 0.15248
# Poissons Ratio (y) = 0.35108 0.34692
# Poissons Ratio (z) = 0.13686 0.47790
#
# Static dielectric constant tensor:
#      x y z
#    x 1.639290 0.000000 0.000000 
#    y 0.000000 1.590080 0.000000 
#    z 0.000000 0.000000 1.635600 
# 
# From -- ./inp_files/28814.got.cif
#   From: 2010.05.17/outbox.cif.g08.bks.cpg/sg62_15_cif.got.tgz:28814.got - 2010.06.03 15:25:27.
