data_PCOD9464535
_publ_section_title
;
Structure prediction by ZEFSAII (Michael W. Deem and Ramdas Pophale) SiO2 
 PCOD9464535
Probable space group: P N M A
;
_chemical_formula_sum "Si O2"
_cell_formula_units_Z 56
_cell_length_a 22.113511
_cell_length_b 8.520456
_cell_length_c 15.069805
_cell_angle_alpha 90.000000
_cell_angle_beta 90.000000
_cell_angle_gamma 90.000000
_cell_volume 2839.410425
_symmetry_space_group_name_H-M "P N M A"
_symmetry_group_IT_number 62
_symmetry_cell_setting 'orthorhombic'
loop_
_space_group_symop_operation_xyz
x,y,z
1/2-x,-y,1/2+z
1/2+x,1/2-y,1/2-z
-x,1/2+y,-z
-x,-y,-z
1/2+x,y,1/2-z
1/2-x,1/2+y,1/2+z
x,1/2-y,z
loop_
_atom_site_type_symbol
_atom_site_label
_atom_site_fract_x
_atom_site_fract_y
_atom_site_fract_z
Si Si1 0.810428 0.439684 0.197686
Si Si2 0.936033 0.562124 0.892839
Si Si3 0.163657 0.941506 0.608290
Si Si4 0.976020 0.437990 0.405973
Si Si5 0.075179 0.939239 0.915736
Si Si6 0.084698 0.937514 0.294325
Si Si7 0.801773 0.060352 0.585681
O O1 0.809109 0.250000 0.197413
O O2 0.806395 0.493424 0.299746
O O3 0.874626 0.488360 0.155111
O O4 0.756572 0.500576 0.137014
O O5 0.933974 0.750000 0.889925
O O6 0.904797 0.494265 0.805669
O O7 0.006849 0.510525 0.892084
O O8 0.910237 0.503547 0.986437
O O9 0.164561 0.750000 0.607819
O O10 0.093130 0.988782 0.608220
O O11 0.193678 0.993918 0.516328
O O12 0.976429 0.250000 0.407576
O O13 0.000000 0.500000 0.500000
O O14 0.021602 0.495219 0.330426
O O15 0.074780 0.750000 0.919289
O O16 0.081908 0.750000 0.296764
O O17 0.138132 0.989273 0.360586
O O18 0.801085 0.250000 0.585276
#
# Coordination Sequence:
#
# PCOD9464535 Si02
#       7
#     8   8   8   8   8   8   8
#     4  10  21  38  61  83 108 149 198 239 282 341
#     4  10  20  35  59  87 114 150 191 233 284 348
#     4   9  19  39  61  81 113 153 187 230 293 351
#     4  11  20  35  60  88 117 151 190 236 296 359
#     4   9  19  37  57  83 117 149 184 236 293 340
#     4  11  22  37  56  84 120 154 188 238 298 346
#     4  10  22  40  57  78 113 152 189 233 288 341
#
# _framework density 19.722404000000001
#
# number of rings (size 3 to 8) (size 9 to 14) (size 15 to 20)
#    0.000    2.000    1.429    2.143    0.000    5.714 
#    0.000    6.429    0.000    0.000    0.000    0.000 
#    0.000    0.000    0.000    0.000    0.000    0.000 
#
# Total GULP energy -312809.484201 kJ/mol
# GULP energy per Si atom -5585.883646 kJ/mol
# Density = 1.967752 g / cm^3
# Si number density = 19.722404 Si / 1000 Ang^3
#
#
#
# Elastic Constant Matrix: (Units=GPa)
#
#
# Indices 1 2 3 4 5 6 
#
# 1 67.7400 9.1597 55.1268 0.0000 0.0000 0.0000
# 2 9.1597 12.3337 20.3096 0.0000 0.0000 0.0000
# 3 55.1268 20.3096 179.3778 0.0000 0.0000 0.0000
# 4 0.0000 0.0000 0.0000 30.0697 0.0000 0.0000
# 5 0.0000 0.0000 0.0000 0.0000 26.2618 0.0000
# 6 0.0000 0.0000 0.0000 0.0000 0.0000 27.8415
#
#
#
# Elastic Compliance Matrix: (Units=1/GPa)
#
#
# Indices 1 2 3 4 5 6 
#
# 1 0.020020 -0.005822 -0.005493 0.000000 0.000000 0.000000
# 2 -0.005822 0.101353 -0.009686 0.000000 0.000000 0.000000
# 3 -0.005493 -0.009686 0.008360 0.000000 0.000000 0.000000
# 4 0.000000 0.000000 0.000000 0.033256 0.000000 0.000000
# 5 0.000000 0.000000 0.000000 0.000000 0.038078 0.000000
# 6 0.000000 0.000000 0.000000 0.000000 0.000000 0.035918
#
#
# Mechanical properties :
#
#
# Convention : Reuss Voigt Hill
#
# Bulk Modulus (GPa) = 11.39871 47.62707 29.51289
# Shear Modulus (GPa) = 16.22160 28.49162 22.35661
#
# Velocity S-wave (km/s) = 2.87103 3.80495 3.37050
# Velocity P-wave (km/s) = 4.09665 6.59581 5.49032
#
# Compressibility (1/GPa) = 0.08772925
#
# Stress axis : x y z
#
# Youngs Moduli (GPa) = 49.94972 9.86653 119.62048
#
# Poissons Ratio (x) = 0.05744 0.65713
# Poissons Ratio (y) = 0.29081 1.15866
# Poissons Ratio (z) = 0.27440 0.09557
#
# Static dielectric constant tensor:
#      x y z
#    x 1.676260 0.000000 0.000000 
#    y 0.000000 1.667220 0.000000 
#    z 0.000000 0.000000 1.690750 
# 
# From -- ./inp_files/20278.got.cif
#   From: 2010.05.17/outbox.cif.g08.bks.cpg/sg62_11_cif.got.tgz:20278.got - 2010.06.03 15:25:27.
