data_PCOD9464127
_publ_section_title
;
Structure prediction by ZEFSAII (Michael W. Deem and Ramdas Pophale) SiO2 
 PCOD9464127
Probable space group: P N M A
;
_chemical_formula_sum "Si O2"
_cell_formula_units_Z 64
_cell_length_a 14.314757
_cell_length_b 7.596591
_cell_length_c 26.018678
_cell_angle_alpha 90.000000
_cell_angle_beta 90.000000
_cell_angle_gamma 90.000000
_cell_volume 2829.358317
_symmetry_space_group_name_H-M "P N M A"
_symmetry_group_IT_number 62
_symmetry_cell_setting 'orthorhombic'
loop_
_space_group_symop_operation_xyz
x,y,z
1/2-x,-y,1/2+z
1/2+x,1/2-y,1/2-z
-x,1/2+y,-z
-x,-y,-z
1/2+x,y,1/2-z
1/2-x,1/2+y,1/2+z
x,1/2-y,z
loop_
_atom_site_type_symbol
_atom_site_label
_atom_site_fract_x
_atom_site_fract_y
_atom_site_fract_z
Si Si1 0.035467 0.537019 0.103443
Si Si2 0.655190 0.959081 0.561611
Si Si3 0.270254 0.047678 0.332324
Si Si4 0.757035 0.465202 0.280078
Si Si5 0.441516 0.044098 0.825519
Si Si6 0.538415 0.953330 0.284604
Si Si7 0.878419 0.041728 0.376573
Si Si8 0.779327 0.461395 0.952352
O O1 0.038556 0.750000 0.106351
O O2 0.009110 0.468610 0.160516
O O3 0.136937 0.474253 0.084803
O O4 0.955883 0.484991 0.063346
O O5 0.675151 0.750000 0.562489
O O6 0.691610 0.036482 0.615572
O O7 0.701547 0.029350 0.509726
O O8 0.301871 0.250000 0.331265
O O9 0.294050 0.974533 0.275841
O O10 0.157533 0.044219 0.335486
O O11 0.752494 0.250000 0.279825
O O12 0.651584 0.534161 0.285919
O O13 0.818151 0.526410 0.328016
O O14 0.421322 0.250000 0.817043
O O15 0.484753 0.971083 0.771677
O O16 0.517169 0.027447 0.870084
O O17 0.508391 0.750000 0.284722
O O18 0.884356 0.250000 0.371194
O O19 0.820073 0.002343 0.427502
O O20 0.788017 0.250000 0.953915
#
# Coordination Sequence:
#
# PCOD9464127 Si02
#       8
#     8   8   8   8   8   8   8   8
#     4  10  20  34  54  81 115 150 182 224 274 327
#     4  10  22  37  58  83 109 148 191 231 280 332
#     4   9  19  38  57  79 112 144 182 233 279 326
#     4   9  18  32  52  78 108 142 177 220 274 326
#     4  10  21  36  56  82 113 148 185 227 278 336
#     4   9  18  33  52  79 112 146 180 217 268 326
#     4  11  22  35  56  85 112 146 188 231 282 333
#     4  10  21  39  58  80 113 150 189 233 277 327
#
# _framework density 22.619969999999999
#
# number of rings (size 3 to 8) (size 9 to 14) (size 15 to 20)
#    0.000    2.250    1.250    1.125    1.750    3.000 
#    0.000    0.625    0.000    0.000    0.000    0.000 
#    0.000    0.000    0.000    0.000    0.000    0.000 
#
# Total GULP energy -357484.528020 kJ/mol
# GULP energy per Si atom -5585.695750 kJ/mol
# Density = 2.256849 g / cm^3
# Si number density = 22.619970 Si / 1000 Ang^3
#
#
#
# Elastic Constant Matrix: (Units=GPa)
#
#
# Indices 1 2 3 4 5 6 
#
# 1 41.9134 -4.2043 7.4768 0.0000 0.0000 0.0000
# 2 -4.2043 60.2870 10.9931 0.0000 0.0000 0.0000
# 3 7.4768 10.9931 80.4026 0.0000 0.0000 0.0000
# 4 0.0000 0.0000 0.0000 5.8808 0.0000 0.0000
# 5 0.0000 0.0000 0.0000 0.0000 35.4441 0.0000
# 6 0.0000 0.0000 0.0000 0.0000 0.0000 -2.7631
#
#
#
# Elastic Compliance Matrix: (Units=1/GPa)
#
#
# Indices 1 2 3 4 5 6 
#
# 1 0.024538 0.002182 -0.002580 0.000000 0.000000 0.000000
# 2 0.002182 0.017205 -0.002555 0.000000 0.000000 0.000000
# 3 -0.002580 -0.002555 0.013027 0.000000 0.000000 0.000000
# 4 0.000000 0.000000 0.000000 0.170045 0.000000 0.000000
# 5 0.000000 0.000000 0.000000 0.000000 0.028213 0.000000
# 6 0.000000 0.000000 0.000000 0.000000 0.000000 -0.361914
#
#
# Mechanical properties :
#
#
# Convention : Reuss Voigt Hill
#
# Bulk Modulus (GPa) = 20.46560 23.45936 21.96248
# Shear Modulus (GPa) = -57.67668 18.93485 -19.37091
#
# Velocity S-wave (km/s) = -5.05504 2.89638 -2.92954
# Velocity P-wave (km/s) = 5.00041 4.64532 1.30865
#
# Compressibility (1/GPa) = 0.04886248
#
# Stress axis : x y z
#
# Youngs Moduli (GPa) = 40.75344 58.12125 76.76533
#
# Poissons Ratio (x) = -0.12680 0.19806
# Poissons Ratio (y) = -0.08891 0.19616
# Poissons Ratio (z) = 0.10515 0.14852
#
# Static dielectric constant tensor:
#      x y z
#    x 1.824150 0.000000 0.000000 
#    y 0.000000 1.833560 0.000000 
#    z 0.000000 0.000000 1.886480 
# 
# From -- ./inp_files/29729.got.cif
#   From: 2010.05.17/outbox.cif.g08.bks.cpg/sg62_15_cif.got.tgz:29729.got - 2010.06.03 15:25:27.
