data_PCOD9464840
_publ_section_title
;
Structure prediction by ZEFSAII (Michael W. Deem and Ramdas Pophale) SiO2 
 PCOD9464840
Probable space group: P N M A
;
_chemical_formula_sum "Si O2"
_cell_formula_units_Z 48
_cell_length_a 16.625017
_cell_length_b 11.075714
_cell_length_c 15.717890
_cell_angle_alpha 90.000000
_cell_angle_beta 90.000000
_cell_angle_gamma 90.000000
_cell_volume 2894.196913
_symmetry_space_group_name_H-M "P N M A"
_symmetry_group_IT_number 62
_symmetry_cell_setting 'orthorhombic'
loop_
_space_group_symop_operation_xyz
x,y,z
1/2-x,-y,1/2+z
1/2+x,1/2-y,1/2-z
-x,1/2+y,-z
-x,-y,-z
1/2+x,y,1/2-z
1/2-x,1/2+y,1/2+z
x,1/2-y,z
loop_
_atom_site_type_symbol
_atom_site_label
_atom_site_fract_x
_atom_site_fract_y
_atom_site_fract_z
Si Si1 0.998773 0.750000 0.823208
Si Si2 0.118337 0.509544 0.555408
Si Si3 0.213269 0.613062 0.097061
Si Si4 0.623381 0.750000 0.831678
Si Si5 0.143983 0.750000 0.951391
Si Si6 0.117056 0.043917 0.232874
Si Si7 0.454796 0.393527 0.884419
Si Si8 0.730161 0.250000 0.201802
O O1 0.052397 0.750000 0.737529
O O2 0.060798 0.750000 0.901139
O O3 0.942705 0.632277 0.818409
O O4 0.203460 0.445443 0.567614
O O5 0.117047 0.631516 0.610885
O O6 0.099408 0.547589 0.458859
O O7 0.046073 0.425162 0.588822
O O8 0.228458 0.750000 0.129556
O O9 0.170489 0.533089 0.167908
O O10 0.156966 0.636560 0.014522
O O11 0.706854 0.750000 0.779985
O O12 0.216651 0.750000 0.883212
O O13 0.173972 0.132924 0.288006
O O14 0.068352 0.957122 0.296153
O O15 0.443152 0.250000 0.880907
#
# Coordination Sequence:
#
# PCOD9464840 Si02
#       8
#     4   8   8   4   4   8   8   4
#     4  10  22  38  60  86 110 151 201 243 284 346
#     4  11  21  38  57  85 118 150 193 238 295 359
#     4  10  22  39  59  83 117 154 193 241 296 342
#     4  11  18  38  59  84 110 148 196 240 287 337
#     4   9  22  40  57  84 114 154 194 236 292 344
#     4  11  21  36  60  88 116 150 198 243 290 351
#     4  11  23  35  57  87 121 152 186 240 303 356
#     4  10  20  36  64  84 112 155 199 241 283 343
#
# _framework density 16.584911999999999
#
# number of rings (size 3 to 8) (size 9 to 14) (size 15 to 20)
#    0.500    1.000    4.167    2.000    0.000    0.667 
#    1.500    0.000    0.000    0.000    0.000    0.000 
#    0.000    0.000    0.000    0.000    0.000    0.000 
#
# Total GULP energy -267779.776047 kJ/mol
# GULP energy per Si atom -5578.745334 kJ/mol
# Density = 1.654716 g / cm^3
# Si number density = 16.584912 Si / 1000 Ang^3
#
#
#
# Elastic Constant Matrix: (Units=GPa)
#
#
# Indices 1 2 3 4 5 6 
#
# 1 83.4337 59.9565 31.1311 0.0000 0.0000 0.0000
# 2 59.9565 125.2423 49.9150 0.0000 0.0000 0.0000
# 3 31.1311 49.9150 79.9194 0.0000 0.0000 0.0000
# 4 0.0000 0.0000 0.0000 14.2852 0.0000 0.0000
# 5 0.0000 0.0000 0.0000 0.0000 21.7215 0.0000
# 6 0.0000 0.0000 0.0000 0.0000 0.0000 19.4453
#
#
#
# Elastic Compliance Matrix: (Units=1/GPa)
#
#
# Indices 1 2 3 4 5 6 
#
# 1 0.018567 -0.007997 -0.002238 0.000000 0.000000 0.000000
# 2 -0.007997 0.014075 -0.005676 0.000000 0.000000 0.000000
# 3 -0.002238 -0.005676 0.016929 0.000000 0.000000 0.000000
# 4 0.000000 0.000000 0.000000 0.070003 0.000000 0.000000
# 5 0.000000 0.000000 0.000000 0.000000 0.046037 0.000000
# 6 0.000000 0.000000 0.000000 0.000000 0.000000 0.051426
#
#
# Mechanical properties :
#
#
# Convention : Reuss Voigt Hill
#
# Bulk Modulus (GPa) = 56.33672 63.40008 59.86840
# Shear Modulus (GPa) = 19.62518 20.92991 20.27755
#
# Velocity S-wave (km/s) = 3.44367 3.55630 3.50044
# Velocity P-wave (km/s) = 7.06075 7.42789 7.24665
#
# Compressibility (1/GPa) = 0.01775041
#
# Stress axis : x y z
#
# Youngs Moduli (GPa) = 53.85887 71.04952 59.06931
#
# Poissons Ratio (x) = 0.56815 0.13220
# Poissons Ratio (y) = 0.43068 0.33526
# Poissons Ratio (z) = 0.12054 0.40326
#
# Static dielectric constant tensor:
#      x y z
#    x 1.539500 0.000000 0.000000 
#    y 0.000000 1.537890 0.000000 
#    z 0.000000 0.000000 1.532990 
# 
# From -- ./inp_files/19769.got.cif
#   From: 2010.05.17/outbox.cif.g08.bks.cpg/sg62_10_cif.got.tgz:19769.got - 2010.06.03 15:25:27.
