data_PCOD9464332
_publ_section_title
;
Structure prediction by ZEFSAII (Michael W. Deem and Ramdas Pophale) SiO2 
 PCOD9464332
Probable space group: P N M A
;
_chemical_formula_sum "Si O2"
_cell_formula_units_Z 48
_cell_length_a 28.927154
_cell_length_b 7.854428
_cell_length_c 8.096358
_cell_angle_alpha 90.000000
_cell_angle_beta 90.000000
_cell_angle_gamma 90.000000
_cell_volume 1839.543126
_symmetry_space_group_name_H-M "P N M A"
_symmetry_group_IT_number 62
_symmetry_cell_setting 'orthorhombic'
loop_
_space_group_symop_operation_xyz
x,y,z
1/2-x,-y,1/2+z
1/2+x,1/2-y,1/2-z
-x,1/2+y,-z
-x,-y,-z
1/2+x,y,1/2-z
1/2-x,1/2+y,1/2+z
x,1/2-y,z
loop_
_atom_site_type_symbol
_atom_site_label
_atom_site_fract_x
_atom_site_fract_y
_atom_site_fract_z
Si Si1 0.600181 0.950690 0.951120
Si Si2 0.347378 0.555305 0.726196
Si Si3 0.014320 0.055485 0.726396
Si Si4 0.265615 0.540666 0.947429
Si Si5 0.179114 0.552068 0.773543
Si Si6 0.434025 0.049281 0.550979
O O1 0.609926 0.750000 0.975574
O O2 0.630440 0.015096 0.793817
O O3 0.546371 0.968536 0.909881
O O4 0.620929 0.044585 0.108048
O O5 0.158808 0.250000 0.179228
O O6 0.298858 0.485104 0.794665
O O7 0.379963 0.470396 0.589421
O O8 0.008568 0.250000 0.677224
O O9 0.965047 0.989969 0.792246
O O10 0.045232 0.043976 0.893607
O O11 0.267158 0.750000 0.954670
O O12 0.213174 0.482089 0.913982
O O13 0.288785 0.465204 0.109756
O O14 0.171885 0.750000 0.812034
O O15 0.443322 0.250000 0.526958
#
# Coordination Sequence:
#
# PCOD9464332 Si02
#       6
#     8   8   8   8   8   8
#     4  10  20  35  55  78 106 139 175 216 259 306
#     4  10  20  35  55  78 106 139 175 216 259 306
#     4  10  21  37  56  78 105 137 173 214 260 310
#     4   9  19  35  53  76 105 136 172 212 255 304
#     4   9  19  35  53  76 105 136 172 212 255 304
#     4  10  21  37  56  78 105 137 173 214 260 310
#
# _framework density 26.093437999999999
#
# number of rings (size 3 to 8) (size 9 to 14) (size 15 to 20)
#    0.000    2.333    0.000    2.000    0.000    6.000 
#    0.000    3.333    0.000    0.000    0.000    0.000 
#    0.000    0.000    0.000    0.000    0.000    0.000 
#
# Total GULP energy -268474.304488 kJ/mol
# GULP energy per Si atom -5593.214677 kJ/mol
# Density = 2.603405 g / cm^3
# Si number density = 26.093438 Si / 1000 Ang^3
#
#
#
# Elastic Constant Matrix: (Units=GPa)
#
#
# Indices 1 2 3 4 5 6 
#
# 1 163.8955 10.0817 10.0428 0.0000 0.0000 0.0000
# 2 10.0817 52.0295 7.8325 0.0000 0.0000 0.0000
# 3 10.0428 7.8325 67.9339 0.0000 0.0000 0.0000
# 4 0.0000 0.0000 0.0000 30.0472 0.0000 0.0000
# 5 0.0000 0.0000 0.0000 0.0000 59.0510 0.0000
# 6 0.0000 0.0000 0.0000 0.0000 0.0000 22.8920
#
#
#
# Elastic Compliance Matrix: (Units=1/GPa)
#
#
# Indices 1 2 3 4 5 6 
#
# 1 0.006217 -0.001085 -0.000794 0.000000 0.000000 0.000000
# 2 -0.001085 0.019749 -0.002117 0.000000 0.000000 0.000000
# 3 -0.000794 -0.002117 0.015082 0.000000 0.000000 0.000000
# 4 0.000000 0.000000 0.000000 0.033281 0.000000 0.000000
# 5 0.000000 0.000000 0.000000 0.000000 0.016935 0.000000
# 6 0.000000 0.000000 0.000000 0.000000 0.000000 0.043683
#
#
# Mechanical properties :
#
#
# Convention : Reuss Voigt Hill
#
# Bulk Modulus (GPa) = 30.25169 37.75254 34.00211
# Shear Modulus (GPa) = 32.47681 39.45815 35.96748
#
# Velocity S-wave (km/s) = 3.53177 3.89290 3.71672
# Velocity P-wave (km/s) = 5.31507 5.89117 5.61052
#
# Compressibility (1/GPa) = 0.03305601
#
# Stress axis : x y z
#
# Youngs Moduli (GPa) = 160.85325 50.63609 66.30598
#
# Poissons Ratio (x) = 0.05495 0.05264
# Poissons Ratio (y) = 0.17454 0.14034
# Poissons Ratio (z) = 0.12771 0.10717
#
# Static dielectric constant tensor:
#      x y z
#    x 2.046340 0.000000 0.000000 
#    y 0.000000 1.900270 0.000000 
#    z 0.000000 0.000000 2.141870 
# 
# From -- ./inp_files/10281.got.cif
#   From: 2010.05.17/outbox.cif.g08.bks.cpg/sg62_6_cif.got.tgz:10281.got - 2010.06.03 15:25:27.
