data_PCOD9464837
_publ_section_title
;
Structure prediction by ZEFSAII (Michael W. Deem and Ramdas Pophale) SiO2 
 PCOD9464837
Probable space group: P N M A
;
_chemical_formula_sum "Si O2"
_cell_formula_units_Z 64
_cell_length_a 11.805477
_cell_length_b 14.234673
_cell_length_c 18.482139
_cell_angle_alpha 90.000000
_cell_angle_beta 90.000000
_cell_angle_gamma 90.000000
_cell_volume 3105.869948
_symmetry_space_group_name_H-M "P N M A"
_symmetry_group_IT_number 62
_symmetry_cell_setting 'orthorhombic'
loop_
_space_group_symop_operation_xyz
x,y,z
1/2-x,-y,1/2+z
1/2+x,1/2-y,1/2-z
-x,1/2+y,-z
-x,-y,-z
1/2+x,y,1/2-z
1/2-x,1/2+y,1/2+z
x,1/2-y,z
loop_
_atom_site_type_symbol
_atom_site_label
_atom_site_fract_x
_atom_site_fract_y
_atom_site_fract_z
Si Si1 0.974942 0.947195 0.074346
Si Si2 0.425167 0.862600 0.075889
Si Si3 0.355467 0.356656 0.837461
Si Si4 0.711054 0.151802 0.517042
Si Si5 0.562781 0.362686 0.093092
Si Si6 0.841789 0.361356 0.307381
Si Si7 0.275578 0.464968 0.331366
Si Si8 0.283608 0.004549 0.602408
O O1 0.914717 0.851725 0.050545
O O2 0.094791 0.947893 0.113438
O O3 0.877122 0.000026 0.117911
O O4 0.000000 0.000000 0.000000
O O5 0.410912 0.750000 0.076637
O O6 0.518360 0.884409 0.137661
O O7 0.312324 0.917541 0.096287
O O8 0.457688 0.887128 0.991973
O O9 0.352756 0.250000 0.806161
O O10 0.295543 0.349933 0.916032
O O11 0.285938 0.440439 0.799327
O O12 0.730512 0.250000 0.476206
O O13 0.724545 0.059247 0.470031
O O14 0.579828 0.250000 0.096125
O O15 0.453819 0.383192 0.144194
O O16 0.674769 0.413295 0.124466
O O17 0.824555 0.250000 0.309910
O O18 0.837830 0.397332 0.225387
O O19 0.741262 0.424189 0.339630
#
# Coordination Sequence:
#
# PCOD9464837 Si02
#       8
#     8   8   8   8   8   8   8   8
#     4   9  20  36  56  83 115 155 207 252 299 351
#     4  10  20  36  63  96 125 154 201 266 321 360
#     4   9  18  34  59  87 112 145 197 256 309 357
#     4   9  17  32  56  84 115 152 197 249 303 353
#     4  10  21  38  61  91 126 162 205 256 307 366
#     4  11  25  40  58  87 123 166 207 244 302 377
#     4  11  22  39  60  82 120 167 205 248 303 371
#     4  11  21  36  57  89 126 162 200 252 305 367
#
# _framework density 20.606142999999999
#
# number of rings (size 3 to 8) (size 9 to 14) (size 15 to 20)
#    0.000    2.000    0.000    4.500    1.750    4.000 
#    0.000    7.500    0.000    0.750    0.000    0.000 
#    0.000    0.000    0.000    0.000    0.000    0.000 
#
# Total GULP energy -356721.852093 kJ/mol
# GULP energy per Si atom -5573.778939 kJ/mol
# Density = 2.055924 g / cm^3
# Si number density = 20.606143 Si / 1000 Ang^3
#
#
#
# Elastic Constant Matrix: (Units=GPa)
#
#
# Indices 1 2 3 4 5 6 
#
# 1 119.4599 44.9463 4.9255 0.0000 0.0000 0.0000
# 2 44.9463 91.2718 18.7547 0.0000 0.0000 0.0000
# 3 4.9255 18.7547 34.5170 0.0000 0.0000 0.0000
# 4 0.0000 0.0000 0.0000 30.1365 0.0000 0.0000
# 5 0.0000 0.0000 0.0000 0.0000 4.1453 0.0000
# 6 0.0000 0.0000 0.0000 0.0000 0.0000 -1.0938
#
#
#
# Elastic Compliance Matrix: (Units=1/GPa)
#
#
# Indices 1 2 3 4 5 6 
#
# 1 0.010339 -0.005390 0.001453 0.000000 0.000000 0.000000
# 2 -0.005390 0.015143 -0.007459 0.000000 0.000000 0.000000
# 3 0.001453 -0.007459 0.032817 0.000000 0.000000 0.000000
# 4 0.000000 0.000000 0.000000 0.033182 0.000000 0.000000
# 5 0.000000 0.000000 0.000000 0.000000 0.241236 0.000000
# 6 0.000000 0.000000 0.000000 0.000000 0.000000 -0.914260
#
#
# Mechanical properties :
#
#
# Convention : Reuss Voigt Hill
#
# Bulk Modulus (GPa) = 28.16296 42.50020 35.33158
# Shear Modulus (GPa) = -9.14219 18.41241 4.63511
#
# Velocity S-wave (km/s) = -2.10862 2.99246 1.50142
# Velocity P-wave (km/s) = 2.78722 5.71047 4.49322
#
# Compressibility (1/GPa) = 0.03550764
#
# Stress axis : x y z
#
# Youngs Moduli (GPa) = 96.72039 66.03590 30.47240
#
# Poissons Ratio (x) = 0.35594 -0.04429
# Poissons Ratio (y) = 0.52133 0.22729
# Poissons Ratio (z) = -0.14057 0.49256
#
# Static dielectric constant tensor:
#      x y z
#    x 1.780900 0.000000 0.000000 
#    y 0.000000 1.741260 0.000000 
#    z 0.000000 0.000000 1.820480 
# 
# From -- ./inp_files/23220.got.cif
#   From: 2010.05.17/outbox.cif.g08.bks.cpg/sg62_12_cif.got.tgz:23220.got - 2010.06.03 15:25:27.
