data_PCOD9464824
_publ_section_title
;
Structure prediction by ZEFSAII (Michael W. Deem and Ramdas Pophale) SiO2 
 PCOD9464824
Probable space group: P N M A
;
_chemical_formula_sum "Si O2"
_cell_formula_units_Z 48
_cell_length_a 23.711758
_cell_length_b 12.874117
_cell_length_c 6.842189
_cell_angle_alpha 90.000000
_cell_angle_beta 90.000000
_cell_angle_gamma 90.000000
_cell_volume 2088.700987
_symmetry_space_group_name_H-M "P N M A"
_symmetry_group_IT_number 62
_symmetry_cell_setting 'orthorhombic'
loop_
_space_group_symop_operation_xyz
x,y,z
1/2-x,-y,1/2+z
1/2+x,1/2-y,1/2-z
-x,1/2+y,-z
-x,-y,-z
1/2+x,y,1/2-z
1/2-x,1/2+y,1/2+z
x,1/2-y,z
loop_
_atom_site_type_symbol
_atom_site_label
_atom_site_fract_x
_atom_site_fract_y
_atom_site_fract_z
Si Si1 0.984989 0.633613 0.606272
Si Si2 0.091838 0.130835 0.045959
Si Si3 0.179208 0.554656 0.609163
Si Si4 0.787303 0.632933 0.121117
Si Si5 0.419374 0.127572 0.842709
Si Si6 0.414605 0.414433 0.390624
O O1 0.968651 0.750000 0.543037
O O2 0.019206 0.590627 0.419607
O O3 0.932557 0.601535 0.741836
O O4 0.035871 0.634214 0.764699
O O5 0.073767 0.250000 0.001617
O O6 0.159206 0.127900 0.025291
O O7 0.074057 0.039214 0.898906
O O8 0.232280 0.605988 0.504126
O O9 0.129203 0.562172 0.450269
O O10 0.200225 0.445913 0.701137
O O11 0.146202 0.605973 0.793113
O O12 0.783224 0.750000 0.196983
O O13 0.412565 0.250000 0.898283
O O14 0.415339 0.121484 0.611750
#
# Coordination Sequence:
#
# PCOD9464824 Si02
#       6
#     8   8   8   8   8   8
#     4   9  18  35  58  86 121 155 196 249 303 365
#     4   9  19  36  57  83 119 159 198 248 305 365
#     4  10  23  40  62  90 123 152 204 258 299 361
#     4  10  22  42  65  88 121 162 203 251 307 364
#     4  10  21  37  60  92 122 155 202 253 304 360
#     4  10  20  36  62  89 117 160 200 252 309 359
#
# _framework density 22.980789000000001
#
# number of rings (size 3 to 8) (size 9 to 14) (size 15 to 20)
#    0.000    2.333    0.000    1.500    4.667    2.667 
#    0.000    2.500    0.000    7.000    0.000    0.000 
#    0.000    0.000    0.000    0.000    0.000    0.000 
#
# Total GULP energy -267833.487436 kJ/mol
# GULP energy per Si atom -5579.864322 kJ/mol
# Density = 2.292848 g / cm^3
# Si number density = 22.980789 Si / 1000 Ang^3
#
#
#
# Elastic Constant Matrix: (Units=GPa)
#
#
# Indices 1 2 3 4 5 6 
#
# 1 88.1653 43.6903 34.1010 0.0000 0.0000 0.0000
# 2 43.6903 95.0981 21.2585 0.0000 0.0000 0.0000
# 3 34.1010 21.2585 112.2979 0.0000 0.0000 0.0000
# 4 0.0000 0.0000 0.0000 13.9567 0.0000 0.0000
# 5 0.0000 0.0000 0.0000 0.0000 39.5960 0.0000
# 6 0.0000 0.0000 0.0000 0.0000 0.0000 22.4519
#
#
#
# Elastic Compliance Matrix: (Units=1/GPa)
#
#
# Indices 1 2 3 4 5 6 
#
# 1 0.015978 -0.006532 -0.003615 0.000000 0.000000 0.000000
# 2 -0.006532 0.013651 -0.000601 0.000000 0.000000 0.000000
# 3 -0.003615 -0.000601 0.010116 0.000000 0.000000 0.000000
# 4 0.000000 0.000000 0.000000 0.071650 0.000000 0.000000
# 5 0.000000 0.000000 0.000000 0.000000 0.025255 0.000000
# 6 0.000000 0.000000 0.000000 0.000000 0.000000 0.044540
#
#
# Mechanical properties :
#
#
# Convention : Reuss Voigt Hill
#
# Bulk Modulus (GPa) = 54.79858 54.85121 54.82490
# Shear Modulus (GPa) = 23.94990 28.30169 26.12579
#
# Velocity S-wave (km/s) = 3.23177 3.51313 3.37538
# Velocity P-wave (km/s) = 6.15003 6.35423 6.25297
#
# Compressibility (1/GPa) = 0.01824865
#
# Stress axis : x y z
#
# Youngs Moduli (GPa) = 62.58686 73.25566 98.84939
#
# Poissons Ratio (x) = 0.47853 0.35737
# Poissons Ratio (y) = 0.40884 0.05936
# Poissons Ratio (z) = 0.22627 0.04399
#
# Static dielectric constant tensor:
#      x y z
#    x 1.831360 0.000000 0.000000 
#    y 0.000000 2.013020 0.000000 
#    z 0.000000 0.000000 1.825880 
# 
# From -- ./inp_files/3193.got.cif
#   From: 2010.05.17/outbox.cif.g08.bks.cpg/sg62_2_cif.got.tgz:3193.got - 2010.06.03 15:25:27.
