data_PCOD9464038
_publ_section_title
;
Structure prediction by ZEFSAII (Michael W. Deem and Ramdas Pophale) SiO2 
 PCOD9464038
Probable space group: P N M A
;
_chemical_formula_sum "Si O2"
_cell_formula_units_Z 64
_cell_length_a 18.839317
_cell_length_b 7.552990
_cell_length_c 21.042534
_cell_angle_alpha 90.000000
_cell_angle_beta 90.000000
_cell_angle_gamma 90.000000
_cell_volume 2994.208929
_symmetry_space_group_name_H-M "P N M A"
_symmetry_group_IT_number 62
_symmetry_cell_setting 'orthorhombic'
loop_
_space_group_symop_operation_xyz
x,y,z
1/2-x,-y,1/2+z
1/2+x,1/2-y,1/2-z
-x,1/2+y,-z
-x,-y,-z
1/2+x,y,1/2-z
1/2-x,1/2+y,1/2+z
x,1/2-y,z
loop_
_atom_site_type_symbol
_atom_site_label
_atom_site_fract_x
_atom_site_fract_y
_atom_site_fract_z
Si Si1 0.694141 0.458571 0.952338
Si Si2 0.541476 0.464112 0.323475
Si Si3 0.550660 0.537950 0.559350
Si Si4 0.562635 0.958179 0.180539
Si Si5 0.203399 0.035418 0.163752
Si Si6 0.289177 0.031881 0.432617
Si Si7 0.463495 0.537510 0.067220
Si Si8 0.275254 0.953773 0.802903
O O1 0.683431 0.250000 0.964331
O O2 0.747749 0.478444 0.893870
O O3 0.616851 0.533026 0.935683
O O4 0.732532 0.530308 0.015189
O O5 0.541005 0.250000 0.324116
O O6 0.485654 0.528295 0.375669
O O7 0.529700 0.519195 0.250721
O O8 0.621352 0.521592 0.342419
O O9 0.500000 0.500000 0.500000
O O10 0.554984 0.750000 0.565033
O O11 0.631116 0.474433 0.550636
O O12 0.574627 0.750000 0.169614
O O13 0.511707 0.029525 0.125346
O O14 0.640683 0.043229 0.181619
O O15 0.202854 0.250000 0.165502
O O16 0.231161 0.968921 0.232240
O O17 0.287644 0.250000 0.433076
O O18 0.266812 0.970242 0.362484
O O19 0.459852 0.750000 0.076069
O O20 0.500000 0.500000 0.000000
O O21 0.251885 0.750000 0.797875
#
# Coordination Sequence:
#
# PCOD9464038 Si02
#       8
#     8   8   8   8   8   8   8   8
#     4  10  20  34  52  74 102 135 168 205 253 305
#     4   9  19  35  54  76 104 138 173 208 251 307
#     4  10  20  34  53  78 105 135 175 217 257 305
#     4  10  20  34  53  78 105 132 169 214 256 303
#     4   9  18  32  51  76 102 130 166 206 248 296
#     4   9  18  33  54  76  98 131 173 210 247 299
#     4  10  22  37  53  76 104 135 173 215 259 309
#     4   9  18  35  56  76 102 136 172 209 252 304
#
# _framework density 21.374593000000001
#
# number of rings (size 3 to 8) (size 9 to 14) (size 15 to 20)
#    0.000    2.500    0.000    2.625    0.000    6.000 
#    0.000    2.500    0.000    0.000    0.000    0.000 
#    0.000    0.000    0.000    0.000    0.000    0.000 
#
# Total GULP energy -357384.387589 kJ/mol
# GULP energy per Si atom -5584.131056 kJ/mol
# Density = 2.132594 g / cm^3
# Si number density = 21.374593 Si / 1000 Ang^3
#
#
#
# Elastic Constant Matrix: (Units=GPa)
#
#
# Indices 1 2 3 4 5 6 
#
# 1 27.1163 -9.9516 3.4669 0.0000 0.0000 0.0000
# 2 -9.9516 48.0113 -15.3134 0.0000 0.0000 0.0000
# 3 3.4669 -15.3134 60.5879 0.0000 0.0000 0.0000
# 4 0.0000 0.0000 0.0000 13.3829 0.0000 0.0000
# 5 0.0000 0.0000 0.0000 0.0000 43.9859 0.0000
# 6 0.0000 0.0000 0.0000 0.0000 0.0000 8.8111
#
#
#
# Elastic Compliance Matrix: (Units=1/GPa)
#
#
# Indices 1 2 3 4 5 6 
#
# 1 0.039917 0.008207 -0.000210 0.000000 0.000000 0.000000
# 2 0.008207 0.024342 0.005683 0.000000 0.000000 0.000000
# 3 -0.000210 0.005683 0.017953 0.000000 0.000000 0.000000
# 4 0.000000 0.000000 0.000000 0.074722 0.000000 0.000000
# 5 0.000000 0.000000 0.000000 0.000000 0.022735 0.000000
# 6 0.000000 0.000000 0.000000 0.000000 0.000000 0.113493
#
#
# Mechanical properties :
#
#
# Convention : Reuss Voigt Hill
#
# Bulk Modulus (GPa) = 9.12641 10.23546 9.68093
# Shear Modulus (GPa) = 16.53843 23.73688 20.13765
#
# Velocity S-wave (km/s) = 2.78464 3.33606 3.07274
# Velocity P-wave (km/s) = 3.82335 4.43149 4.13860
#
# Compressibility (1/GPa) = 0.10957215
#
# Stress axis : x y z
#
# Youngs Moduli (GPa) = 25.05201 41.08109 55.70017
#
# Poissons Ratio (x) = -0.33715 0.01169
# Poissons Ratio (y) = -0.20560 -0.31653
# Poissons Ratio (z) = 0.00526 -0.23346
#
# Static dielectric constant tensor:
#      x y z
#    x 1.750870 0.000000 0.000000 
#    y 0.000000 1.817810 0.000000 
#    z 0.000000 0.000000 1.748820 
# 
# From -- ./inp_files/27761.got.cif
#   From: 2010.05.17/outbox.cif.g08.bks.cpg/sg62_14_cif.got.tgz:27761.got - 2010.06.03 15:25:27.
