data_PCOD9464368
_publ_section_title
;
Structure prediction by ZEFSAII (Michael W. Deem and Ramdas Pophale) SiO2 
 PCOD9464368
Probable space group: P N M A
;
_chemical_formula_sum "Si O2"
_cell_formula_units_Z 56
_cell_length_a 20.897966
_cell_length_b 8.686167
_cell_length_c 16.437449
_cell_angle_alpha 90.000000
_cell_angle_beta 90.000000
_cell_angle_gamma 90.000000
_cell_volume 2983.778714
_symmetry_space_group_name_H-M "P N M A"
_symmetry_group_IT_number 62
_symmetry_cell_setting 'orthorhombic'
loop_
_space_group_symop_operation_xyz
x,y,z
1/2-x,-y,1/2+z
1/2+x,1/2-y,1/2-z
-x,1/2+y,-z
-x,-y,-z
1/2+x,y,1/2-z
1/2-x,1/2+y,1/2+z
x,1/2-y,z
loop_
_atom_site_type_symbol
_atom_site_label
_atom_site_fract_x
_atom_site_fract_y
_atom_site_fract_z
Si Si1 0.703687 0.066067 0.686820
Si Si2 0.313302 0.935179 0.502431
Si Si3 0.106476 0.934439 0.680487
Si Si4 0.951619 0.563935 0.933302
Si Si5 0.029414 0.062330 0.251390
Si Si6 0.177042 0.433621 0.527258
Si Si7 0.340302 0.564053 0.839145
O O1 0.701656 0.250000 0.694413
O O2 0.684870 0.024796 0.593673
O O3 0.655320 0.992382 0.750578
O O4 0.776076 0.007124 0.698373
O O5 0.307289 0.750000 0.508384
O O6 0.379057 0.982630 0.545082
O O7 0.249783 0.009568 0.539553
O O8 0.106919 0.750000 0.679915
O O9 0.034958 0.988078 0.703291
O O10 0.130889 0.994806 0.594138
O O11 0.953662 0.750000 0.935873
O O12 0.970367 0.513455 0.842646
O O13 0.000000 0.500000 0.000000
O O14 0.029569 0.250000 0.252008
O O15 0.094872 0.013719 0.295024
O O16 0.174949 0.250000 0.533438
O O17 0.158691 0.477725 0.434780
O O18 0.335524 0.750000 0.833681
#
# Coordination Sequence:
#
# PCOD9464368 Si02
#       7
#     8   8   8   8   8   8   8
#     4  10  20  35  55  83 117 146 184 234 282 334
#     4   9  19  35  56  82 112 147 184 227 281 340
#     4  11  22  36  56  80 110 150 192 232 281 338
#     4  10  20  35  56  82 113 148 185 226 276 334
#     4   9  20  37  57  82 110 146 193 232 273 338
#     4  10  21  36  56  83 112 142 186 239 286 336
#     4   9  19  38  60  82 110 148 189 233 287 340
#
# _framework density 18.768148
#
# number of rings (size 3 to 8) (size 9 to 14) (size 15 to 20)
#    0.000    2.286    0.000    2.143    2.000    2.286 
#    0.000    2.857    0.000    0.000    0.000    0.000 
#    0.000    0.000    0.000    0.000    0.000    0.000 
#
# Total GULP energy -312748.423232 kJ/mol
# GULP energy per Si atom -5584.793272 kJ/mol
# Density = 1.872543 g / cm^3
# Si number density = 18.768148 Si / 1000 Ang^3
#
#
#
# Elastic Constant Matrix: (Units=GPa)
#
#
# Indices 1 2 3 4 5 6 
#
# 1 122.9128 20.6604 40.6444 0.0000 0.0000 0.0000
# 2 20.6604 17.0804 14.6048 0.0000 0.0000 0.0000
# 3 40.6444 14.6048 41.1857 0.0000 0.0000 0.0000
# 4 0.0000 0.0000 0.0000 27.5794 0.0000 0.0000
# 5 0.0000 0.0000 0.0000 0.0000 35.1992 0.0000
# 6 0.0000 0.0000 0.0000 0.0000 0.0000 23.0599
#
#
#
# Elastic Compliance Matrix: (Units=1/GPa)
#
#
# Indices 1 2 3 4 5 6 
#
# 1 0.012575 -0.006601 -0.010069 0.000000 0.000000 0.000000
# 2 -0.006601 0.087489 -0.024510 0.000000 0.000000 0.000000
# 3 -0.010069 -0.024510 0.042908 0.000000 0.000000 0.000000
# 4 0.000000 0.000000 0.000000 0.036259 0.000000 0.000000
# 5 0.000000 0.000000 0.000000 0.000000 0.028410 0.000000
# 6 0.000000 0.000000 0.000000 0.000000 0.000000 0.043365
#
#
# Mechanical properties :
#
#
# Convention : Reuss Voigt Hill
#
# Bulk Modulus (GPa) = 16.49831 36.99981 26.74906
# Shear Modulus (GPa) = 14.14144 24.18565 19.16354
#
# Velocity S-wave (km/s) = 2.74794 3.59368 3.19888
# Velocity P-wave (km/s) = 4.34487 6.08081 5.28461
#
# Compressibility (1/GPa) = 0.06061227
#
# Stress axis : x y z
#
# Youngs Moduli (GPa) = 79.52290 11.42999 23.30549
#
# Poissons Ratio (x) = 0.07545 0.23466
# Poissons Ratio (y) = 0.52494 0.57122
# Poissons Ratio (z) = 0.80071 0.28015
#
# Static dielectric constant tensor:
#      x y z
#    x 1.624000 0.000000 0.000000 
#    y 0.000000 1.637850 0.000000 
#    z 0.000000 0.000000 1.639300 
# 
# From -- ./inp_files/20377.got.cif
#   From: 2010.05.17/outbox.cif.g08.bks.cpg/sg62_11_cif.got.tgz:20377.got - 2010.06.03 15:25:27.
