data_PCOD9464271
_publ_section_title
;
Structure prediction by ZEFSAII (Michael W. Deem and Ramdas Pophale) SiO2 
 PCOD9464271
Probable space group: P N M A
;
_chemical_formula_sum "Si O2"
_cell_formula_units_Z 48
_cell_length_a 9.351568
_cell_length_b 18.876742
_cell_length_c 14.464855
_cell_angle_alpha 90.000000
_cell_angle_beta 90.000000
_cell_angle_gamma 90.000000
_cell_volume 2553.439432
_symmetry_space_group_name_H-M "P N M A"
_symmetry_group_IT_number 62
_symmetry_cell_setting 'orthorhombic'
loop_
_space_group_symop_operation_xyz
x,y,z
1/2-x,-y,1/2+z
1/2+x,1/2-y,1/2-z
-x,1/2+y,-z
-x,-y,-z
1/2+x,y,1/2-z
1/2-x,1/2+y,1/2+z
x,1/2-y,z
loop_
_atom_site_type_symbol
_atom_site_label
_atom_site_fract_x
_atom_site_fract_y
_atom_site_fract_z
Si Si1 0.392650 0.464429 0.795906
Si Si2 0.163242 0.935744 0.088648
Si Si3 0.571850 0.095690 0.450211
Si Si4 0.865210 0.435048 0.216655
Si Si5 0.477895 0.582330 0.027085
Si Si6 0.839181 0.167980 0.385053
O O1 0.344289 0.430518 0.699086
O O2 0.535135 0.508943 0.771322
O O3 0.270174 0.521459 0.821075
O O4 0.429107 0.411904 0.878844
O O5 0.311492 0.906514 0.049660
O O6 0.151563 0.019448 0.061162
O O7 0.022010 0.903086 0.042342
O O8 0.459254 0.095932 0.366010
O O9 0.690948 0.154802 0.439150
O O10 0.822666 0.375164 0.289501
O O11 0.500000 0.500000 0.000000
O O12 0.537762 0.631680 0.946566
O O13 0.867133 0.250000 0.369106
#
# Coordination Sequence:
#
# PCOD9464271 Si02
#       6
#     8   8   8   8   8   8
#     4  11  19  34  62  96 119 147 202 260 311 343
#     4  10  20  34  60  93 114 151 198 262 308 340
#     4  10  21  36  58  87 124 155 201 252 301 366
#     4  11  20  36  56  91 123 159 200 242 306 369
#     4  12  20  37  62  90 121 156 210 267 295 359
#     4  12  26  41  57  87 130 172 201 244 320 383
#
# _framework density 18.798173999999999
#
# number of rings (size 3 to 8) (size 9 to 14) (size 15 to 20)
#    0.000    1.000    8.333    1.000    4.667    0.667 
#    0.000    0.833    0.000    4.000    0.000    0.000 
#    0.000    0.000    0.000    0.000    0.000    0.000 
#
# Total GULP energy -268226.831931 kJ/mol
# GULP energy per Si atom -5588.058999 kJ/mol
# Density = 1.875539 g / cm^3
# Si number density = 18.798174 Si / 1000 Ang^3
#
#
#
# Elastic Constant Matrix: (Units=GPa)
#
#
# Indices 1 2 3 4 5 6 
#
# 1 93.9473 14.1638 14.9438 0.0000 0.0000 0.0000
# 2 14.1638 37.9765 1.0318 0.0000 0.0000 0.0000
# 3 14.9438 1.0318 68.3556 0.0000 0.0000 0.0000
# 4 0.0000 0.0000 0.0000 9.3361 0.0000 0.0000
# 5 0.0000 0.0000 0.0000 0.0000 32.6835 0.0000
# 6 0.0000 0.0000 0.0000 0.0000 0.0000 16.9888
#
#
#
# Elastic Compliance Matrix: (Units=1/GPa)
#
#
# Indices 1 2 3 4 5 6 
#
# 1 0.011687 -0.004291 -0.002490 0.000000 0.000000 0.000000
# 2 -0.004291 0.027918 0.000517 0.000000 0.000000 0.000000
# 3 -0.002490 0.000517 0.015166 0.000000 0.000000 0.000000
# 4 0.000000 0.000000 0.000000 0.107111 0.000000 0.000000
# 5 0.000000 0.000000 0.000000 0.000000 0.030597 0.000000
# 6 0.000000 0.000000 0.000000 0.000000 0.000000 0.058862
#
#
# Mechanical properties :
#
#
# Convention : Reuss Voigt Hill
#
# Bulk Modulus (GPa) = 23.67302 28.95091 26.31196
# Shear Modulus (GPa) = 17.98871 23.14436 20.56654
#
# Velocity S-wave (km/s) = 3.09680 3.51266 3.31126
# Velocity P-wave (km/s) = 5.04058 5.64677 5.35227
#
# Compressibility (1/GPa) = 0.04224218
#
# Stress axis : x y z
#
# Youngs Moduli (GPa) = 85.56255 35.81855 65.93699
#
# Poissons Ratio (x) = 0.15371 0.16420
# Poissons Ratio (y) = 0.36717 -0.03407
# Poissons Ratio (z) = 0.21308 -0.01851
#
# Static dielectric constant tensor:
#      x y z
#    x 1.677820 0.000000 0.000000 
#    y 0.000000 1.617920 0.000000 
#    z 0.000000 0.000000 1.717610 
# 
# From -- ./inp_files/16914.got.cif
#   From: 2010.05.17/outbox.cif.g08.bks.cpg/sg62_9_cif.got.tgz:16914.got - 2010.06.03 15:25:27.
