data_PCOD9464994
_publ_section_title
;
Structure prediction by ZEFSAII (Michael W. Deem and Ramdas Pophale) SiO2 
 PCOD9464994
Probable space group: P N M A
;
_chemical_formula_sum "Si O2"
_cell_formula_units_Z 44
_cell_length_a 9.930999
_cell_length_b 12.372806
_cell_length_c 18.344686
_cell_angle_alpha 90.000000
_cell_angle_beta 90.000000
_cell_angle_gamma 90.000000
_cell_volume 2254.090891
_symmetry_space_group_name_H-M "P N M A"
_symmetry_group_IT_number 62
_symmetry_cell_setting 'orthorhombic'
loop_
_space_group_symop_operation_xyz
x,y,z
1/2-x,-y,1/2+z
1/2+x,1/2-y,1/2-z
-x,1/2+y,-z
-x,-y,-z
1/2+x,y,1/2-z
1/2-x,1/2+y,1/2+z
x,1/2-y,z
loop_
_atom_site_type_symbol
_atom_site_label
_atom_site_fract_x
_atom_site_fract_y
_atom_site_fract_z
Si Si1 0.887474 0.250000 0.814589
Si Si2 0.276227 0.482668 0.833274
Si Si3 0.211665 0.571492 0.982766
Si Si4 0.090254 0.374031 0.061735
Si Si5 0.524453 0.514887 0.300508
Si Si6 0.357951 0.250000 0.857879
Si Si7 0.151070 0.250000 0.580111
O O1 0.896086 0.250000 0.727681
O O2 0.735350 0.250000 0.844389
O O3 0.950499 0.365514 0.835671
O O4 0.135046 0.497223 0.791810
O O5 0.395888 0.493610 0.775278
O O6 0.279213 0.361376 0.865985
O O7 0.276426 0.560871 0.902728
O O8 0.187289 0.453711 0.017366
O O9 0.299303 0.646466 0.034807
O O10 0.060360 0.618318 0.972593
O O11 0.133385 0.250000 0.062670
O O12 0.075343 0.426331 0.141973
O O13 0.493795 0.250000 0.904181
#
# Coordination Sequence:
#
# PCOD9464994 Si02
#       7
#     4   8   8   8   8   4   4
#     4  10  21  34  60  90 120 160 204 248 323 362
#     4  10  23  39  61  94 122 166 215 257 318 373
#     4  10  22  38  64  90 128 169 209 264 320 385
#     4  10  20  37  61  93 122 168 219 260 311 385
#     4  10  21  38  62  89 126 164 211 270 310 373
#     4  10  25  36  64  92 122 164 203 269 310 388
#     4  12  22  42  62  92 134 164 201 265 333 366
#
# _framework density 19.520064999999999
#
# number of rings (size 3 to 8) (size 9 to 14) (size 15 to 20)
#    0.000    1.818    2.727    0.545   11.455    0.727 
#    1.636    0.000    0.000    0.000    0.000    0.000 
#    0.000    0.000    0.000    0.000    0.000    0.000 
#
# Total GULP energy -245634.219852 kJ/mol
# GULP energy per Si atom -5582.595906 kJ/mol
# Density = 1.947564 g / cm^3
# Si number density = 19.520065 Si / 1000 Ang^3
#
#
#
# Elastic Constant Matrix: (Units=GPa)
#
#
# Indices 1 2 3 4 5 6 
#
# 1 80.7944 23.6427 54.9652 0.0000 0.0000 0.0000
# 2 23.6427 122.2176 43.1119 0.0000 0.0000 0.0000
# 3 54.9652 43.1119 92.5239 0.0000 0.0000 0.0000
# 4 0.0000 0.0000 0.0000 24.7223 0.0000 0.0000
# 5 0.0000 0.0000 0.0000 0.0000 29.5973 0.0000
# 6 0.0000 0.0000 0.0000 0.0000 0.0000 15.5682
#
#
#
# Elastic Compliance Matrix: (Units=1/GPa)
#
#
# Indices 1 2 3 4 5 6 
#
# 1 0.020788 0.000401 -0.012536 0.000000 0.000000 0.000000
# 2 0.000401 0.009799 -0.004804 0.000000 0.000000 0.000000
# 3 -0.012536 -0.004804 0.020494 0.000000 0.000000 0.000000
# 4 0.000000 0.000000 0.000000 0.040449 0.000000 0.000000
# 5 0.000000 0.000000 0.000000 0.000000 0.033787 0.000000
# 6 0.000000 0.000000 0.000000 0.000000 0.000000 0.064233
#
#
# Mechanical properties :
#
#
# Convention : Reuss Voigt Hill
#
# Bulk Modulus (GPa) = 58.13230 59.88614 59.00922
# Shear Modulus (GPa) = 21.81837 25.56531 23.69184
#
# Velocity S-wave (km/s) = 3.34689 3.62290 3.48762
# Velocity P-wave (km/s) = 6.69186 6.94596 6.82009
#
# Compressibility (1/GPa) = 0.01720214
#
# Stress axis : x y z
#
# Youngs Moduli (GPa) = 48.10358 102.04888 48.79495
#
# Poissons Ratio (x) = -0.04089 0.61171
# Poissons Ratio (y) = -0.01928 0.23441
# Poissons Ratio (z) = 0.60305 0.49025
#
# Static dielectric constant tensor:
#      x y z
#    x 1.661330 0.000000 0.000000 
#    y 0.000000 1.706480 0.000000 
#    z 0.000000 0.000000 1.692090 
# 
# From -- ./inp_files/22977.got.cif
#   From: 2010.05.17/outbox.cif.g08.bks.cpg/sg62_12_cif.got.tgz:22977.got - 2010.06.03 15:25:27.
