data_PCOD9464680
_publ_section_title
;
Structure prediction by ZEFSAII (Michael W. Deem and Ramdas Pophale) SiO2 
 PCOD9464680
Probable space group: P N M A
;
_chemical_formula_sum "Si O2"
_cell_formula_units_Z 64
_cell_length_a 18.957426
_cell_length_b 18.905881
_cell_length_c 9.685604
_cell_angle_alpha 90.000000
_cell_angle_beta 90.000000
_cell_angle_gamma 90.000000
_cell_volume 3471.386723
_symmetry_space_group_name_H-M "P N M A"
_symmetry_group_IT_number 62
_symmetry_cell_setting 'orthorhombic'
loop_
_space_group_symop_operation_xyz
x,y,z
1/2-x,-y,1/2+z
1/2+x,1/2-y,1/2-z
-x,1/2+y,-z
-x,-y,-z
1/2+x,y,1/2-z
1/2-x,1/2+y,1/2+z
x,1/2-y,z
loop_
_atom_site_type_symbol
_atom_site_label
_atom_site_fract_x
_atom_site_fract_y
_atom_site_fract_z
Si Si1 0.043265 0.423340 0.092641
Si Si2 0.178022 0.950829 0.269893
Si Si3 0.823251 0.830067 0.914508
Si Si4 0.783793 0.829383 0.220289
Si Si5 0.264940 0.093216 0.287551
Si Si6 0.603809 0.938286 0.524685
Si Si7 0.351347 0.664645 0.986227
Si Si8 0.944847 0.965555 0.603062
O O1 0.107013 0.371400 0.130657
O O2 0.025256 0.457785 0.241311
O O3 0.969365 0.395041 0.034623
O O4 0.075761 0.480293 0.984715
O O5 0.220203 0.881788 0.307410
O O6 0.233124 0.015461 0.261892
O O7 0.120168 0.980109 0.375702
O O8 0.143705 0.934312 0.121284
O O9 0.824691 0.750000 0.864800
O O10 0.752549 0.866260 0.854876
O O11 0.827084 0.830397 0.079333
O O12 0.757105 0.750000 0.243872
O O13 0.828992 0.848170 0.354797
O O14 0.341657 0.082822 0.355079
O O15 0.214935 0.136775 0.394628
O O16 0.363448 0.750000 0.968409
O O17 0.414595 0.610531 0.947724
O O18 0.000000 0.000000 0.500000
#
# Coordination Sequence:
#
# PCOD9464680 Si02
#       8
#     8   8   8   8   8   8   8   8
#     4  10  21  39  56  85 126 158 194 249 308 358
#     4  10  20  36  57  85 120 148 198 252 300 343
#     4  11  22  39  59  87 124 158 198 249 309 366
#     4  10  22  36  58  88 120 156 195 246 306 361
#     4  11  20  35  63  91 108 153 207 249 297 346
#     4  10  20  36  58  87 115 154 200 247 296 358
#     4  10  20  38  62  85 114 154 201 251 302 360
#     4  10  22  37  56  89 115 156 201 246 295 365
#
# _framework density 18.436436
#
# number of rings (size 3 to 8) (size 9 to 14) (size 15 to 20)
#    0.000    1.750    5.000    1.125    0.000    5.000 
#    0.000    2.500    0.000    0.000    0.000    0.000 
#    0.000    0.000    0.000    0.000    0.000    0.000 
#
# Total GULP energy -356440.118099 kJ/mol
# GULP energy per Si atom -5569.376845 kJ/mol
# Density = 1.839447 g / cm^3
# Si number density = 18.436436 Si / 1000 Ang^3
#
#
#
# Elastic Constant Matrix: (Units=GPa)
#
#
# Indices 1 2 3 4 5 6 
#
# 1 83.8823 37.8566 23.6321 0.0000 0.0000 0.0000
# 2 37.8566 80.7550 29.8913 0.0000 0.0000 0.0000
# 3 23.6321 29.8913 95.9056 0.0000 0.0000 0.0000
# 4 0.0000 0.0000 0.0000 -70.8995 0.0000 0.0000
# 5 0.0000 0.0000 0.0000 0.0000 13.1346 0.0000
# 6 0.0000 0.0000 0.0000 0.0000 0.0000 18.6349
#
#
#
# Elastic Compliance Matrix: (Units=1/GPa)
#
#
# Indices 1 2 3 4 5 6 
#
# 1 0.015374 -0.006562 -0.001743 0.000000 0.000000 0.000000
# 2 -0.006562 0.016799 -0.003619 0.000000 0.000000 0.000000
# 3 -0.001743 -0.003619 0.011984 0.000000 0.000000 0.000000
# 4 0.000000 0.000000 0.000000 -0.014104 0.000000 0.000000
# 5 0.000000 0.000000 0.000000 0.000000 0.076135 0.000000
# 6 0.000000 0.000000 0.000000 0.000000 0.000000 0.053663
#
#
# Mechanical properties :
#
#
# Convention : Reuss Voigt Hill
#
# Bulk Modulus (GPa) = 49.23826 49.25588 49.24707
# Shear Modulus (GPa) = 26.25123 3.45154 14.85138
#
# Velocity S-wave (km/s) = 3.77752 1.36974 2.84129
# Velocity P-wave (km/s) = 6.76692 5.41075 6.12648
#
# Compressibility (1/GPa) = 0.02030941
#
# Stress axis : x y z
#
# Youngs Moduli (GPa) = 65.04507 59.52835 83.44225
#
# Poissons Ratio (x) = 0.39062 0.14545
# Poissons Ratio (y) = 0.42682 0.30196
# Poissons Ratio (z) = 0.11338 0.21542
#
# Static dielectric constant tensor:
#      x y z
#    x 1.649820 0.000000 0.000000 
#    y 0.000000 1.652070 0.000000 
#    z 0.000000 0.000000 1.684040 
# 
# From -- ./inp_files/8882.got.cif
#   From: 2010.05.17/outbox.cif.g08.bks.cpg/sg62_5_cif.got.tgz:8882.got - 2010.06.03 15:25:27.
