data_PCOD9464551
_publ_section_title
;
Structure prediction by ZEFSAII (Michael W. Deem and Ramdas Pophale) SiO2 
 PCOD9464551
Probable space group: P N M A
;
_chemical_formula_sum "Si O2"
_cell_formula_units_Z 56
_cell_length_a 14.399282
_cell_length_b 13.032584
_cell_length_c 12.732683
_cell_angle_alpha 90.000000
_cell_angle_beta 90.000000
_cell_angle_gamma 90.000000
_cell_volume 2389.413410
_symmetry_space_group_name_H-M "P N M A"
_symmetry_group_IT_number 62
_symmetry_cell_setting 'orthorhombic'
loop_
_space_group_symop_operation_xyz
x,y,z
1/2-x,-y,1/2+z
1/2+x,1/2-y,1/2-z
-x,1/2+y,-z
-x,-y,-z
1/2+x,y,1/2-z
1/2-x,1/2+y,1/2+z
x,1/2-y,z
loop_
_atom_site_type_symbol
_atom_site_label
_atom_site_fract_x
_atom_site_fract_y
_atom_site_fract_z
Si Si1 0.939299 0.859178 0.048918
Si Si2 0.209212 0.468974 0.598767
Si Si3 0.528056 0.418026 0.782356
Si Si4 0.739555 0.135896 0.230505
Si Si5 0.364270 0.416603 0.464700
Si Si6 0.900437 0.365848 0.526825
Si Si7 0.026262 0.362644 0.321993
O O1 0.894504 0.750000 0.022713
O O2 0.965522 0.863254 0.171872
O O3 0.035364 0.870154 0.985967
O O4 0.878831 0.960077 0.030450
O O5 0.123952 0.410545 0.653434
O O6 0.249896 0.547953 0.683869
O O7 0.288971 0.395922 0.555387
O O8 0.167386 0.542259 0.506805
O O9 0.446209 0.383659 0.859956
O O10 0.511790 0.539304 0.760760
O O11 0.751913 0.250000 0.276526
O O12 0.637190 0.132062 0.179997
O O13 0.816057 0.118040 0.141698
O O14 0.861674 0.250000 0.521801
O O15 0.981937 0.371274 0.438108
O O16 0.999387 0.250000 0.280479
#
# Coordination Sequence:
#
# PCOD9464551 Si02
#       7
#     8   8   8   8   8   8   8
#     4  11  25  45  65  89 123 169 213 253 314 384
#     4  11  22  38  65  93 126 161 210 265 315 366
#     4  11  20  40  62  92 125 166 202 252 315 379
#     4  11  21  38  62  93 126 164 214 263 312 372
#     4  11  24  44  65  90 128 167 212 264 316 372
#     4  10  20  35  59  92 127 162 203 255 310 373
#     4   9  19  34  58  90 124 162 206 252 308 365
#
# _framework density 23.436713999999998
#
# number of rings (size 3 to 8) (size 9 to 14) (size 15 to 20)
#    0.000    1.429    1.429    5.571    0.000    1.714 
#    0.000    4.286    0.000    0.000    0.000    0.000 
#    0.000    0.000    0.000    0.000    0.000    0.000 
#
# Total GULP energy -313575.875632 kJ/mol
# GULP energy per Si atom -5599.569208 kJ/mol
# Density = 2.338337 g / cm^3
# Si number density = 23.436714 Si / 1000 Ang^3
#
#
#
# Elastic Constant Matrix: (Units=GPa)
#
#
# Indices 1 2 3 4 5 6 
#
# 1 77.6153 -9.3315 12.2089 0.0000 0.0000 0.0000
# 2 -9.3315 82.3672 -0.2510 0.0000 0.0000 0.0000
# 3 12.2089 -0.2510 57.8605 0.0000 0.0000 0.0000
# 4 0.0000 0.0000 0.0000 6.8969 0.0000 0.0000
# 5 0.0000 0.0000 0.0000 0.0000 21.8862 0.0000
# 6 0.0000 0.0000 0.0000 0.0000 0.0000 5.5179
#
#
#
# Elastic Compliance Matrix: (Units=1/GPa)
#
#
# Indices 1 2 3 4 5 6 
#
# 1 0.013515 0.001522 -0.002845 0.000000 0.000000 0.000000
# 2 0.001522 0.012312 -0.000268 0.000000 0.000000 0.000000
# 3 -0.002845 -0.000268 0.017882 0.000000 0.000000 0.000000
# 4 0.000000 0.000000 0.000000 0.144992 0.000000 0.000000
# 5 0.000000 0.000000 0.000000 0.000000 0.045691 0.000000
# 6 0.000000 0.000000 0.000000 0.000000 0.000000 0.181228
#
#
# Mechanical properties :
#
#
# Convention : Reuss Voigt Hill
#
# Bulk Modulus (GPa) = 24.67416 24.78842 24.73129
# Shear Modulus (GPa) = 11.56576 21.20799 16.38687
#
# Velocity S-wave (km/s) = 2.22387 3.01143 2.64710
# Velocity P-wave (km/s) = 4.14065 4.76354 4.46297
#
# Compressibility (1/GPa) = 0.04052823
#
# Stress axis : x y z
#
# Youngs Moduli (GPa) = 73.99394 81.21886 55.92176
#
# Poissons Ratio (x) = -0.12365 0.15910
# Poissons Ratio (y) = -0.11265 0.01498
# Poissons Ratio (z) = 0.21052 0.02175
#
# Static dielectric constant tensor:
#      x y z
#    x 1.858460 0.000000 0.000000 
#    y 0.000000 1.896960 0.000000 
#    z 0.000000 0.000000 1.854320 
# 
# From -- ./inp_files/13387.got.cif
#   From: 2010.05.17/outbox.cif.g08.bks.cpg/sg62_7_cif.got.tgz:13387.got - 2010.06.03 15:25:27.
