data_PCOD9464208
_publ_section_title
;
Structure prediction by ZEFSAII (Michael W. Deem and Ramdas Pophale) SiO2 
 PCOD9464208
Probable space group: P N M A
;
_chemical_formula_sum "Si O2"
_cell_formula_units_Z 48
_cell_length_a 9.582555
_cell_length_b 19.889470
_cell_length_c 12.115718
_cell_angle_alpha 90.000000
_cell_angle_beta 90.000000
_cell_angle_gamma 90.000000
_cell_volume 2309.158200
_symmetry_space_group_name_H-M "P N M A"
_symmetry_group_IT_number 62
_symmetry_cell_setting 'orthorhombic'
loop_
_space_group_symop_operation_xyz
x,y,z
1/2-x,-y,1/2+z
1/2+x,1/2-y,1/2-z
-x,1/2+y,-z
-x,-y,-z
1/2+x,y,1/2-z
1/2-x,1/2+y,1/2+z
x,1/2-y,z
loop_
_atom_site_type_symbol
_atom_site_label
_atom_site_fract_x
_atom_site_fract_y
_atom_site_fract_z
Si Si1 0.762256 0.974962 0.024453
Si Si2 0.006279 0.428879 0.110370
Si Si3 0.406209 0.055787 0.755000
Si Si4 0.336199 0.169893 0.256661
Si Si5 0.428860 0.668890 0.895733
Si Si6 0.160576 0.087878 0.611080
O O1 0.876177 0.032643 0.053929
O O2 0.682729 0.954643 0.133880
O O3 0.661512 0.011423 0.936987
O O4 0.861549 0.919749 0.969046
O O5 0.055725 0.483387 0.202116
O O6 0.941311 0.360697 0.153741
O O7 0.311712 0.095507 0.667115
O O8 0.546801 0.091766 0.792613
O O9 0.336910 0.250000 0.256479
O O10 0.414938 0.148730 0.143571
O O11 0.183204 0.149182 0.299482
O O12 0.424229 0.750000 0.906390
O O13 0.380697 0.634686 0.008898
#
# Coordination Sequence:
#
# PCOD9464208 Si02
#       6
#     8   8   8   8   8   8
#     4  10  20  35  54  85 117 152 187 236 291 337
#     4  10  20  34  56  84 121 146 190 239 289 342
#     4  11  22  36  57  86 116 154 192 234 290 349
#     4  10  21  37  60  85 113 151 190 236 291 344
#     4  10  22  40  60  85 115 150 193 242 290 342
#     4  11  22  38  58  84 117 152 193 239 288 345
#
# _framework density 20.786795999999999
#
# number of rings (size 3 to 8) (size 9 to 14) (size 15 to 20)
#    0.000    1.667    3.333    1.500    0.000    1.333 
#    0.000    0.833    0.000    1.000    0.000    0.000 
#    0.000    0.000    0.000    0.000    0.000    0.000 
#
# Total GULP energy -267860.780062 kJ/mol
# GULP energy per Si atom -5580.432918 kJ/mol
# Density = 2.073948 g / cm^3
# Si number density = 20.786796 Si / 1000 Ang^3
#
#
#
# Elastic Constant Matrix: (Units=GPa)
#
#
# Indices 1 2 3 4 5 6 
#
# 1 102.6404 25.9672 32.7581 0.0000 0.0000 0.0000
# 2 25.9672 16.8309 13.6197 0.0000 0.0000 0.0000
# 3 32.7581 13.6197 46.6491 0.0000 0.0000 0.0000
# 4 0.0000 0.0000 0.0000 27.9012 0.0000 0.0000
# 5 0.0000 0.0000 0.0000 0.0000 56.5124 0.0000
# 6 0.0000 0.0000 0.0000 0.0000 0.0000 18.5906
#
#
#
# Elastic Compliance Matrix: (Units=1/GPa)
#
#
# Indices 1 2 3 4 5 6 
#
# 1 0.017034 -0.021736 -0.005616 0.000000 0.000000 0.000000
# 2 -0.021736 0.105531 -0.015547 0.000000 0.000000 0.000000
# 3 -0.005616 -0.015547 0.029919 0.000000 0.000000 0.000000
# 4 0.000000 0.000000 0.000000 0.035841 0.000000 0.000000
# 5 0.000000 0.000000 0.000000 0.000000 0.017695 0.000000
# 6 0.000000 0.000000 0.000000 0.000000 0.000000 0.053791
#
#
# Mechanical properties :
#
#
# Convention : Reuss Voigt Hill
#
# Bulk Modulus (GPa) = 14.99566 34.53450 24.76508
# Shear Modulus (GPa) = 13.59296 26.85254 20.22275
#
# Velocity S-wave (km/s) = 2.55997 3.59807 3.12246
# Velocity P-wave (km/s) = 3.99595 5.82333 4.99394
#
# Compressibility (1/GPa) = 0.06668595
#
# Stress axis : x y z
#
# Youngs Moduli (GPa) = 58.70566 9.47590 33.42337
#
# Poissons Ratio (x) = 0.20597 0.18769
# Poissons Ratio (y) = 1.27606 0.51963
# Poissons Ratio (z) = 0.32967 0.14732
#
# Static dielectric constant tensor:
#      x y z
#    x 1.818650 0.000000 0.000000 
#    y 0.000000 1.719820 0.000000 
#    z 0.000000 0.000000 1.792790 
# 
# From -- ./inp_files/11283.got.cif
#   From: 2010.05.17/outbox.cif.g08.bks.cpg/sg62_6_cif.got.tgz:11283.got - 2010.06.03 15:25:27.
