data_PCOD9464092
_publ_section_title
;
Structure prediction by ZEFSAII (Michael W. Deem and Ramdas Pophale) SiO2 
 PCOD9464092
Probable space group: P N M A
;
_chemical_formula_sum "Si O2"
_cell_formula_units_Z 40
_cell_length_a 13.309800
_cell_length_b 13.766269
_cell_length_c 10.090291
_cell_angle_alpha 90.000000
_cell_angle_beta 90.000000
_cell_angle_gamma 90.000000
_cell_volume 1848.806556
_symmetry_space_group_name_H-M "P N M A"
_symmetry_group_IT_number 62
_symmetry_cell_setting 'orthorhombic'
loop_
_space_group_symop_operation_xyz
x,y,z
1/2-x,-y,1/2+z
1/2+x,1/2-y,1/2-z
-x,1/2+y,-z
-x,-y,-z
1/2+x,y,1/2-z
1/2-x,1/2+y,1/2+z
x,1/2-y,z
loop_
_atom_site_type_symbol
_atom_site_label
_atom_site_fract_x
_atom_site_fract_y
_atom_site_fract_z
Si Si1 0.143167 0.136255 0.493964
Si Si2 0.832100 0.639272 0.798493
Si Si3 0.928691 0.859392 0.084058
Si Si4 0.617027 0.864624 0.544173
Si Si5 0.355897 0.495610 0.220894
O O1 0.122465 0.250000 0.529573
O O2 0.112395 0.121213 0.340971
O O3 0.265315 0.123310 0.489659
O O4 0.102675 0.054079 0.593846
O O5 0.789117 0.750000 0.782820
O O6 0.746203 0.559086 0.815025
O O7 0.893958 0.640577 0.932479
O O8 0.932428 0.750000 0.135416
O O9 0.850452 0.918391 0.171031
O O10 0.042393 0.900195 0.072428
O O11 0.598869 0.750000 0.555692
O O12 0.592655 0.915313 0.684136
#
# Coordination Sequence:
#
# PCOD9464092 Si02
#       5
#     8   8   8   8   8
#     4   9  18  32  50  72 100 129 160 204 256 296
#     4   9  18  32  49  71 100 134 166 201 248 300
#     4  10  20  34  54  76  99 132 174 208 241 296
#     4   9  19  35  53  74 102 136 168 203 249 300
#     4  11  18  29  50  77 100 127 165 208 247 294
#
# _framework density 21.635577999999999
#
# number of rings (size 3 to 8) (size 9 to 14) (size 15 to 20)
#    0.000    2.400    0.000    5.400    0.000    0.000 
#    0.000    1.000    0.000    4.800    0.000   25.200 
#    0.000    0.000    0.000    0.000    0.000    0.000 
#
# Total GULP energy -222757.466225 kJ/mol
# GULP energy per Si atom -5568.936656 kJ/mol
# Density = 2.158633 g / cm^3
# Si number density = 21.635578 Si / 1000 Ang^3
#
#
#
# Elastic Constant Matrix: (Units=GPa)
#
#
# Indices 1 2 3 4 5 6 
#
# 1 34.3339 0.2444 -14.6412 0.0000 0.0000 0.0000
# 2 0.2444 77.0643 18.6101 0.0000 0.0000 0.0000
# 3 -14.6412 18.6101 74.2882 0.0000 0.0000 0.0000
# 4 0.0000 0.0000 0.0000 18.3606 0.0000 0.0000
# 5 0.0000 0.0000 0.0000 0.0000 7.6819 0.0000
# 6 0.0000 0.0000 0.0000 0.0000 0.0000 13.4249
#
#
#
# Elastic Compliance Matrix: (Units=1/GPa)
#
#
# Indices 1 2 3 4 5 6 
#
# 1 0.032013 -0.001730 0.006743 0.000000 0.000000 0.000000
# 2 -0.001730 0.013905 -0.003824 0.000000 0.000000 0.000000
# 3 0.006743 -0.003824 0.015748 0.000000 0.000000 0.000000
# 4 0.000000 0.000000 0.000000 0.054465 0.000000 0.000000
# 5 0.000000 0.000000 0.000000 0.000000 0.130176 0.000000
# 6 0.000000 0.000000 0.000000 0.000000 0.000000 0.074489
#
#
# Mechanical properties :
#
#
# Convention : Reuss Voigt Hill
#
# Bulk Modulus (GPa) = 15.61429 21.56808 18.59118
# Shear Modulus (GPa) = 14.71600 19.99169 17.35385
#
# Velocity S-wave (km/s) = 2.61085 3.04307 2.83521
# Velocity P-wave (km/s) = 4.03997 4.72625 4.39652
#
# Compressibility (1/GPa) = 0.06404391
#
# Stress axis : x y z
#
# Youngs Moduli (GPa) = 31.23690 71.91555 63.49995
#
# Poissons Ratio (x) = 0.12440 -0.42817
# Poissons Ratio (y) = 0.05403 0.24285
# Poissons Ratio (z) = -0.21062 0.27503
#
# Static dielectric constant tensor:
#      x y z
#    x 1.823910 0.000000 0.000000 
#    y 0.000000 1.844620 0.000000 
#    z 0.000000 0.000000 1.795820 
# 
# From -- ./inp_files/6094.got.cif
#   From: 2010.05.17/outbox.cif.g08.bks.cpg/sg62_4_cif.got.tgz:6094.got - 2010.06.03 15:25:27.
