data_PCOD9464445
_publ_section_title
;
Structure prediction by ZEFSAII (Michael W. Deem and Ramdas Pophale) SiO2 
 PCOD9464445
Probable space group: P N M A
;
_chemical_formula_sum "Si O2"
_cell_formula_units_Z 56
_cell_length_a 9.843424
_cell_length_b 13.330163
_cell_length_c 22.542719
_cell_angle_alpha 90.000000
_cell_angle_beta 90.000000
_cell_angle_gamma 90.000000
_cell_volume 2957.930394
_symmetry_space_group_name_H-M "P N M A"
_symmetry_group_IT_number 62
_symmetry_cell_setting 'orthorhombic'
loop_
_space_group_symop_operation_xyz
x,y,z
1/2-x,-y,1/2+z
1/2+x,1/2-y,1/2-z
-x,1/2+y,-z
-x,-y,-z
1/2+x,y,1/2-z
1/2-x,1/2+y,1/2+z
x,1/2-y,z
loop_
_atom_site_type_symbol
_atom_site_label
_atom_site_fract_x
_atom_site_fract_y
_atom_site_fract_z
Si Si1 0.751137 0.368586 0.620764
Si Si2 0.790672 0.630723 0.893549
Si Si3 0.828787 0.868137 0.564100
Si Si4 0.374829 0.367206 0.228607
Si Si5 0.410460 0.128738 0.000251
Si Si6 0.856755 0.549146 0.690264
Si Si7 0.951197 0.013830 0.067329
O O1 0.745790 0.250000 0.632088
O O2 0.851354 0.389024 0.564798
O O3 0.810281 0.436781 0.673664
O O4 0.606461 0.413749 0.599110
O O5 0.820895 0.750000 0.899845
O O6 0.707646 0.617981 0.832803
O O7 0.696053 0.597942 0.948846
O O8 0.928818 0.567675 0.896792
O O9 0.813481 0.750000 0.558277
O O10 0.889480 0.895024 0.628356
O O11 0.682040 0.917256 0.563092
O O12 0.936800 0.905302 0.515273
O O13 0.414874 0.250000 0.232859
O O14 0.508891 0.435597 0.229002
O O15 0.270751 0.395940 0.280139
O O16 0.415969 0.250000 0.006195
O O17 0.000000 0.000000 0.000000
#
# Coordination Sequence:
#
# PCOD9464445 Si02
#       7
#     8   8   8   8   8   8   8
#     4  10  23  42  62  84 122 169 216 261 302 358
#     4  10  20  36  59  89 127 159 188 236 310 380
#     4  10  20  35  56  88 122 152 195 246 302 372
#     4  11  23  40  63  92 125 151 188 250 316 385
#     4   9  17  35  62  87 117 160 197 241 304 365
#     4  11  24  39  62  90 118 160 204 246 307 373
#     4  11  22  33  55  91 123 160 195 242 302 365
#
# _framework density 18.932155000000002
#
# number of rings (size 3 to 8) (size 9 to 14) (size 15 to 20)
#    0.000    1.714    2.857    1.714    4.000    4.000 
#    0.000    0.714    0.000    0.857    0.000    0.000 
#    0.000    0.000    0.000    0.000    0.000    0.000 
#
# Total GULP energy -312741.005736 kJ/mol
# GULP energy per Si atom -5584.660817 kJ/mol
# Density = 1.888906 g / cm^3
# Si number density = 18.932155 Si / 1000 Ang^3
#
#
#
# Elastic Constant Matrix: (Units=GPa)
#
#
# Indices 1 2 3 4 5 6 
#
# 1 106.5067 40.9126 14.2127 0.0000 0.0000 0.0000
# 2 40.9126 112.5417 21.6376 0.0000 0.0000 0.0000
# 3 14.2127 21.6376 41.0201 0.0000 0.0000 0.0000
# 4 0.0000 0.0000 0.0000 31.4220 0.0000 0.0000
# 5 0.0000 0.0000 0.0000 0.0000 31.1607 0.0000
# 6 0.0000 0.0000 0.0000 0.0000 0.0000 25.7211
#
#
#
# Elastic Compliance Matrix: (Units=1/GPa)
#
#
# Indices 1 2 3 4 5 6 
#
# 1 0.011045 -0.003649 -0.001902 0.000000 0.000000 0.000000
# 2 -0.003649 0.011094 -0.004588 0.000000 0.000000 0.000000
# 3 -0.001902 -0.004588 0.027457 0.000000 0.000000 0.000000
# 4 0.000000 0.000000 0.000000 0.031825 0.000000 0.000000
# 5 0.000000 0.000000 0.000000 0.000000 0.032092 0.000000
# 6 0.000000 0.000000 0.000000 0.000000 0.000000 0.038879
#
#
# Mechanical properties :
#
#
# Convention : Reuss Voigt Hill
#
# Bulk Modulus (GPa) = 34.10820 45.95494 40.03157
# Shear Modulus (GPa) = 27.40599 29.88114 28.64357
#
# Velocity S-wave (km/s) = 3.80885 3.97713 3.89390
# Velocity P-wave (km/s) = 6.11541 6.73916 6.43484
#
# Compressibility (1/GPa) = 0.02931846
#
# Stress axis : x y z
#
# Youngs Moduli (GPa) = 90.54084 90.13609 36.42043
#
# Poissons Ratio (x) = 0.32895 0.06926
# Poissons Ratio (y) = 0.33043 0.16708
# Poissons Ratio (z) = 0.17218 0.41351
#
# Static dielectric constant tensor:
#      x y z
#    x 1.681750 0.000000 0.000000 
#    y 0.000000 1.684830 0.000000 
#    z 0.000000 0.000000 1.685070 
# 
# From -- ./inp_files/26004.got.cif
#   From: 2010.05.17/outbox.cif.g08.bks.cpg/sg62_14_cif.got.tgz:26004.got - 2010.06.03 15:25:27.
