data_PCOD9465966
_publ_section_title
;
Structure prediction by ZEFSAII (Michael W. Deem and Ramdas Pophale) SiO2 
 PCOD9465966
Probable space group: P N M A
;
_chemical_formula_sum "Si O2"
_cell_formula_units_Z 48
_cell_length_a 15.439610
_cell_length_b 8.798737
_cell_length_c 19.393271
_cell_angle_alpha 90.000000
_cell_angle_beta 90.000000
_cell_angle_gamma 90.000000
_cell_volume 2634.557786
_symmetry_space_group_name_H-M "P N M A"
_symmetry_group_IT_number 62
_symmetry_cell_setting 'orthorhombic'
loop_
_space_group_symop_operation_xyz
x,y,z
1/2-x,-y,1/2+z
1/2+x,1/2-y,1/2-z
-x,1/2+y,-z
-x,-y,-z
1/2+x,y,1/2-z
1/2-x,1/2+y,1/2+z
x,1/2-y,z
loop_
_atom_site_type_symbol
_atom_site_label
_atom_site_fract_x
_atom_site_fract_y
_atom_site_fract_z
Si Si1 0.530538 0.567797 0.426848
Si Si2 0.282086 0.932317 0.574125
Si Si3 0.972877 0.567071 0.573516
Si Si4 0.774053 0.567627 0.573190
Si Si5 0.129579 0.068373 0.828234
Si Si6 0.875107 0.433186 0.323760
O O1 0.500000 0.500000 0.500000
O O2 0.536249 0.750000 0.432894
O O3 0.624063 0.499945 0.409153
O O4 0.458268 0.529843 0.369873
O O5 0.287727 0.750000 0.568751
O O6 0.209976 0.970605 0.631217
O O7 0.252286 0.998233 0.500539
O O8 0.977770 0.750000 0.568734
O O9 0.873615 0.525707 0.588730
O O10 0.000000 0.500000 0.500000
O O11 0.041041 0.518931 0.631798
O O12 0.767651 0.750000 0.569443
O O13 0.708921 0.505616 0.630438
O O14 0.138958 0.250000 0.829353
O O15 0.126282 0.008758 0.750628
O O16 0.877622 0.250000 0.315865
#
# Coordination Sequence:
#
# PCOD9465966 Si02
#       6
#     8   8   8   8   8   8
#     4  11  23  39  62  91 122 160 206 255 305 362
#     4  11  22  38  63  92 122 160 205 252 301 361
#     4  10  21  38  62  92 122 158 202 247 298 361
#     4  11  22  37  63  93 122 160 203 249 303 363
#     4  11  25  42  61  88 124 161 203 254 309 361
#     4  10  23  42  62  88 126 163 200 249 307 363
#
# _framework density 18.219377999999999
#
# number of rings (size 3 to 8) (size 9 to 14) (size 15 to 20)
#    0.000    1.333    3.333    2.000    0.000    6.000 
#    0.000    5.000    0.000    0.000    0.000    0.000 
#    0.000    0.000    0.000    0.000    0.000    0.000 
#
# Total GULP energy -268331.192464 kJ/mol
# GULP energy per Si atom -5590.233176 kJ/mol
# Density = 1.817791 g / cm^3
# Si number density = 18.219378 Si / 1000 Ang^3
#
#
#
# Elastic Constant Matrix: (Units=GPa)
#
#
# Indices 1 2 3 4 5 6 
#
# 1 218.2402 75.0406 115.3441 0.0000 0.0000 0.0000
# 2 75.0406 50.7395 64.1889 0.0000 0.0000 0.0000
# 3 115.3441 64.1889 182.7146 0.0000 0.0000 0.0000
# 4 0.0000 0.0000 0.0000 36.8794 0.0000 0.0000
# 5 0.0000 0.0000 0.0000 0.0000 31.9983 0.0000
# 6 0.0000 0.0000 0.0000 0.0000 0.0000 29.2433
#
#
#
# Elastic Compliance Matrix: (Units=1/GPa)
#
#
# Indices 1 2 3 4 5 6 
#
# 1 0.009694 -0.011871 -0.001949 0.000000 0.000000 0.000000
# 2 -0.011871 0.050011 -0.010075 0.000000 0.000000 0.000000
# 3 -0.001949 -0.010075 0.010243 0.000000 0.000000 0.000000
# 4 0.000000 0.000000 0.000000 0.027115 0.000000 0.000000
# 5 0.000000 0.000000 0.000000 0.000000 0.031252 0.000000
# 6 0.000000 0.000000 0.000000 0.000000 0.000000 0.034196
#
#
# Mechanical properties :
#
#
# Convention : Reuss Voigt Hill
#
# Bulk Modulus (GPa) = 45.13257 106.76017 75.94637
# Shear Modulus (GPa) = 22.96865 32.76557 27.86711
#
# Velocity S-wave (km/s) = 3.55445 4.24534 3.91517
# Velocity P-wave (km/s) = 6.45530 9.09697 7.88752
#
# Compressibility (1/GPa) = 0.02215695
#
# Stress axis : x y z
#
# Youngs Moduli (GPa) = 103.15490 19.99564 97.62658
#
# Poissons Ratio (x) = 0.23737 0.19031
# Poissons Ratio (y) = 1.22455 0.98361
# Poissons Ratio (z) = 0.20109 0.20146
#
# Static dielectric constant tensor:
#      x y z
#    x 1.624720 0.000000 0.000000 
#    y 0.000000 1.612790 0.000000 
#    z 0.000000 0.000000 1.576910 
# 
# From -- ./inp_files/23743.got.cif
#   From: 2010.05.17/outbox.cif.g08.bks.cpg/sg62_12_cif.got.tgz:23743.got - 2010.06.03 15:25:27.
