data_PCOD9465544
_publ_section_title
;
Structure prediction by ZEFSAII (Michael W. Deem and Ramdas Pophale) SiO2 
 PCOD9465544
Probable space group: P N M A
;
_chemical_formula_sum "Si O2"
_cell_formula_units_Z 40
_cell_length_a 13.406109
_cell_length_b 9.868675
_cell_length_c 13.756858
_cell_angle_alpha 90.000000
_cell_angle_beta 90.000000
_cell_angle_gamma 90.000000
_cell_volume 1820.039642
_symmetry_space_group_name_H-M "P N M A"
_symmetry_group_IT_number 62
_symmetry_cell_setting 'orthorhombic'
loop_
_space_group_symop_operation_xyz
x,y,z
1/2-x,-y,1/2+z
1/2+x,1/2-y,1/2-z
-x,1/2+y,-z
-x,-y,-z
1/2+x,y,1/2-z
1/2-x,1/2+y,1/2+z
x,1/2-y,z
loop_
_atom_site_type_symbol
_atom_site_label
_atom_site_fract_x
_atom_site_fract_y
_atom_site_fract_z
Si Si1 0.620782 0.750000 0.359495
Si Si2 0.120782 0.750000 0.359495
Si Si3 0.035460 0.250000 0.133778
Si Si4 0.183670 0.250000 0.972811
Si Si5 0.553867 0.466203 0.637111
Si Si6 0.946133 0.533797 0.362889
Si Si7 0.183670 0.250000 0.527189
Si Si8 0.535460 0.250000 0.133778
O O1 0.666902 0.750000 0.250000
O O2 0.547717 0.878608 0.365682
O O3 0.702111 0.750000 0.443315
O O4 0.202111 0.750000 0.443316
O O5 0.047717 0.621392 0.365682
O O6 0.046179 0.250000 0.250000
O O7 0.974241 0.383534 0.104286
O O8 0.142986 0.250000 0.082191
O O9 0.134180 0.117139 0.923540
O O10 0.586255 0.471088 0.750000
O O11 0.865820 0.617139 0.423540
O O12 0.974241 0.383534 0.395714
O O13 0.142986 0.250000 0.417809
#
# Coordination Sequence:
#
# PCOD9465544 Si02
#       8
#     4   4   4   4   8   8   4   4
#     4   9  18  33  55  79 101 132 176 219 257 306
#     4   9  18  33  55  79 101 132 176 219 257 306
#     4  10  21  36  52  75 111 144 169 214 268 305
#     4  11  19  33  59  80 100 138 183 213 251 313
#     4   9  19  36  55  78 108 136 170 217 263 308
#     4   9  19  36  55  78 108 136 170 217 263 308
#     4  11  19  33  59  80 100 138 183 213 251 313
#     4  10  21  36  52  75 111 144 169 214 268 305
#
# _framework density 21.977543000000001
#
# number of rings (size 3 to 8) (size 9 to 14) (size 15 to 20)
#    0.000    2.400    0.000    4.200    0.000    1.600 
#    0.000    2.000    0.000   16.800    0.000    0.000 
#    0.000    0.000    0.000    0.000    0.000    0.000 
#
# Total GULP energy -223760.062340 kJ/mol
# GULP energy per Si atom -5594.001559 kJ/mol
# Density = 2.192752 g / cm^3
# Si number density = 21.977543 Si / 1000 Ang^3
#
#
#
# Elastic Constant Matrix: (Units=GPa)
#
#
# Indices 1 2 3 4 5 6 
#
# 1 51.0174 18.5095 8.1527 0.0000 0.0000 0.0000
# 2 18.5095 172.1824 9.0130 0.0000 0.0000 0.0000
# 3 8.1527 9.0130 74.0870 0.0000 0.0000 0.0000
# 4 0.0000 0.0000 0.0000 8.1183 0.0000 0.0000
# 5 0.0000 0.0000 0.0000 0.0000 26.4312 0.0000
# 6 0.0000 0.0000 0.0000 0.0000 0.0000 -42.1666
#
#
#
# Elastic Compliance Matrix: (Units=1/GPa)
#
#
# Indices 1 2 3 4 5 6 
#
# 1 0.020693 -0.002119 -0.002019 0.000000 0.000000 0.000000
# 2 -0.002119 0.006062 -0.000504 0.000000 0.000000 0.000000
# 3 -0.002019 -0.000504 0.013781 0.000000 0.000000 0.000000
# 4 0.000000 0.000000 0.000000 0.123178 0.000000 0.000000
# 5 0.000000 0.000000 0.000000 0.000000 0.037834 0.000000
# 6 0.000000 0.000000 0.000000 0.000000 0.000000 -0.023715
#
#
# Mechanical properties :
#
#
# Convention : Reuss Voigt Hill
#
# Bulk Modulus (GPa) = 31.99896 40.95969 36.47932
# Shear Modulus (GPa) = 25.31212 15.91736 20.61474
#
# Velocity S-wave (km/s) = 3.39739 2.69412 3.06599
# Velocity P-wave (km/s) = 5.47550 5.32496 5.40076
#
# Compressibility (1/GPa) = 0.03125102
#
# Stress axis : x y z
#
# Youngs Moduli (GPa) = 48.32661 164.96333 72.56256
#
# Poissons Ratio (x) = 0.34951 0.14653
# Poissons Ratio (y) = 0.10239 0.03659
# Poissons Ratio (z) = 0.09759 0.08319
#
# Static dielectric constant tensor:
#      x y z
#    x 1.748760 0.000000 0.000000 
#    y 0.000000 1.798100 0.000000 
#    z 0.000000 0.000000 1.848930 
# 
# From -- ./inp_files/17859.got.cif
#   From: 2010.05.17/outbox.cif.g08.bks.cpg/sg62_9_cif.got.tgz:17859.got - 2010.06.03 15:25:27.
