data_PCOD9465177
_publ_section_title
;
Structure prediction by ZEFSAII (Michael W. Deem and Ramdas Pophale) SiO2 
 PCOD9465177
Probable space group: P N M A
;
_chemical_formula_sum "Si O2"
_cell_formula_units_Z 56
_cell_length_a 14.864735
_cell_length_b 8.761155
_cell_length_c 21.648876
_cell_angle_alpha 90.000000
_cell_angle_beta 90.000000
_cell_angle_gamma 90.000000
_cell_volume 2819.381774
_symmetry_space_group_name_H-M "P N M A"
_symmetry_group_IT_number 62
_symmetry_cell_setting 'orthorhombic'
loop_
_space_group_symop_operation_xyz
x,y,z
1/2-x,-y,1/2+z
1/2+x,1/2-y,1/2-z
-x,1/2+y,-z
-x,-y,-z
1/2+x,y,1/2-z
1/2-x,1/2+y,1/2+z
x,1/2-y,z
loop_
_atom_site_type_symbol
_atom_site_label
_atom_site_fract_x
_atom_site_fract_y
_atom_site_fract_z
Si Si1 0.887597 0.065989 0.237036
Si Si2 0.422256 0.933105 0.673204
Si Si3 0.228419 0.934103 0.512768
Si Si4 0.599862 0.933475 0.879628
Si Si5 0.910006 0.433185 0.595420
Si Si6 0.584427 0.568501 0.463861
Si Si7 0.803086 0.067155 0.719040
O O1 0.877988 0.250000 0.235784
O O2 0.894221 0.015677 0.308669
O O3 0.979963 0.027745 0.202076
O O4 0.798274 0.990943 0.209695
O O5 0.414983 0.750000 0.669018
O O6 0.414006 0.004420 0.605758
O O7 0.346435 0.993931 0.719895
O O8 0.240451 0.750000 0.511968
O O9 0.184141 0.978979 0.578296
O O10 0.157027 0.974970 0.459824
O O11 0.323416 0.013876 0.504426
O O12 0.597024 0.750000 0.879678
O O13 0.507679 0.993206 0.908908
O O14 0.919865 0.250000 0.594516
O O15 0.864403 0.477168 0.660464
O O16 0.500000 0.500000 0.500000
O O17 0.578775 0.750000 0.463197
O O18 0.803704 0.250000 0.724245
#
# Coordination Sequence:
#
# PCOD9465177 Si02
#       7
#     8   8   8   8   8   8   8
#     4  10  22  38  61  91 122 162 211 262 316 374
#     4  11  23  43  67  93 126 166 212 264 319 376
#     4  10  22  41  64  92 129 170 211 260 313 371
#     4  10  20  38  63  92 124 165 211 257 313 373
#     4  10  22  38  59  92 130 166 207 258 316 371
#     4  12  27  46  68  95 126 166 213 262 319 382
#     4  11  23  38  60  93 129 169 213 263 319 375
#
# _framework density 19.86251
#
# number of rings (size 3 to 8) (size 9 to 14) (size 15 to 20)
#    0.000    1.429    1.429    3.429    2.000    4.571 
#    0.000    0.000    0.000    0.000    0.000    0.000 
#    0.000    0.000    0.000    0.000    0.000    0.000 
#
# Total GULP energy -313245.476131 kJ/mol
# GULP energy per Si atom -5593.669217 kJ/mol
# Density = 1.981730 g / cm^3
# Si number density = 19.862510 Si / 1000 Ang^3
#
#
#
# Elastic Constant Matrix: (Units=GPa)
#
#
# Indices 1 2 3 4 5 6 
#
# 1 99.9459 22.6271 -9.0510 0.0000 0.0000 0.0000
# 2 22.6271 34.4762 7.6573 0.0000 0.0000 0.0000
# 3 -9.0510 7.6573 41.8139 0.0000 0.0000 0.0000
# 4 0.0000 0.0000 0.0000 17.4505 0.0000 0.0000
# 5 0.0000 0.0000 0.0000 0.0000 27.9261 0.0000
# 6 0.0000 0.0000 0.0000 0.0000 0.0000 37.2279
#
#
#
# Elastic Compliance Matrix: (Units=1/GPa)
#
#
# Indices 1 2 3 4 5 6 
#
# 1 0.012476 -0.009160 0.004378 0.000000 0.000000 0.000000
# 2 -0.009160 0.036961 -0.008751 0.000000 0.000000 0.000000
# 3 0.004378 -0.008751 0.026466 0.000000 0.000000 0.000000
# 4 0.000000 0.000000 0.000000 0.057305 0.000000 0.000000
# 5 0.000000 0.000000 0.000000 0.000000 0.035809 0.000000
# 6 0.000000 0.000000 0.000000 0.000000 0.000000 0.026862
#
#
# Mechanical properties :
#
#
# Convention : Reuss Voigt Hill
#
# Bulk Modulus (GPa) = 20.47705 24.30032 22.38868
# Shear Modulus (GPa) = 20.90092 26.85442 23.87767
#
# Velocity S-wave (km/s) = 3.24741 3.68097 3.47096
# Velocity P-wave (km/s) = 4.93889 5.50698 5.23065
#
# Compressibility (1/GPa) = 0.04883517
#
# Stress axis : x y z
#
# Youngs Moduli (GPa) = 80.15573 27.05537 37.78462
#
# Poissons Ratio (x) = 0.24784 -0.16542
# Poissons Ratio (y) = 0.73425 0.33067
# Poissons Ratio (z) = -0.35092 0.23677
#
# Static dielectric constant tensor:
#      x y z
#    x 1.665620 0.000000 0.000000 
#    y 0.000000 1.659870 0.000000 
#    z 0.000000 0.000000 1.695110 
# 
# From -- ./inp_files/27286.got.cif
#   From: 2010.05.17/outbox.cif.g08.bks.cpg/sg62_14_cif.got.tgz:27286.got - 2010.06.03 15:25:27.
