data_PCOD9465630
_publ_section_title
;
Structure prediction by ZEFSAII (Michael W. Deem and Ramdas Pophale) SiO2 
 PCOD9465630
Probable space group: P N M A
;
_chemical_formula_sum "Si O2"
_cell_formula_units_Z 56
_cell_length_a 21.927387
_cell_length_b 9.056379
_cell_length_c 14.800246
_cell_angle_alpha 90.000000
_cell_angle_beta 90.000000
_cell_angle_gamma 90.000000
_cell_volume 2939.073213
_symmetry_space_group_name_H-M "P N M A"
_symmetry_group_IT_number 62
_symmetry_cell_setting 'orthorhombic'
loop_
_space_group_symop_operation_xyz
x,y,z
1/2-x,-y,1/2+z
1/2+x,1/2-y,1/2-z
-x,1/2+y,-z
-x,-y,-z
1/2+x,y,1/2-z
1/2-x,1/2+y,1/2+z
x,1/2-y,z
loop_
_atom_site_type_symbol
_atom_site_label
_atom_site_fract_x
_atom_site_fract_y
_atom_site_fract_z
Si Si1 0.441534 0.924240 0.610514
Si Si2 0.024884 0.072795 0.591839
Si Si3 0.813560 0.425878 0.190008
Si Si4 0.703274 0.926496 0.084346
Si Si5 0.927095 0.924840 0.096015
Si Si6 0.589693 0.925189 0.214756
Si Si7 0.156312 0.572580 0.610765
O O1 0.452215 0.750000 0.620821
O O2 0.413910 0.947769 0.510834
O O3 0.506007 0.009148 0.612791
O O4 0.402311 0.985716 0.693080
O O5 0.027415 0.250000 0.581939
O O6 0.975629 0.038959 0.669885
O O7 0.091074 0.007400 0.612572
O O8 0.000000 0.000000 0.500000
O O9 0.815312 0.250000 0.179599
O O10 0.759003 0.492979 0.131923
O O11 0.876587 0.494981 0.155013
O O12 0.808244 0.459806 0.296724
O O13 0.713995 0.750000 0.086590
O O14 0.641855 0.956645 0.141342
O O15 0.691567 0.969973 0.980551
O O16 0.927494 0.750000 0.114382
O O17 0.590868 0.750000 0.233678
O O18 0.145706 0.750000 0.606283
#
# Coordination Sequence:
#
# PCOD9465630 Si02
#       7
#     8   8   8   8   8   8   8
#     4  10  21  36  59  89 119 151 191 243 293 341
#     4  11  21  35  59  90 122 155 193 240 298 355
#     4  11  24  40  62  89 116 151 201 252 294 346
#     4  10  22  42  61  80 116 158 195 237 290 352
#     4  10  21  39  60  84 117 156 194 235 293 354
#     4  10  21  37  58  86 120 158 195 236 294 357
#     4  10  22  42  62  85 119 156 196 245 299 352
#
# _framework density 19.053625
#
# number of rings (size 3 to 8) (size 9 to 14) (size 15 to 20)
#    0.000    1.714    1.429    2.571    0.000    8.571 
#    0.000    4.286    0.000    0.000    0.000    0.000 
#    0.000    0.000    0.000    0.000    0.000    0.000 
#
# Total GULP energy -312967.096020 kJ/mol
# GULP energy per Si atom -5588.698143 kJ/mol
# Density = 1.901026 g / cm^3
# Si number density = 19.053625 Si / 1000 Ang^3
#
#
#
# Elastic Constant Matrix: (Units=GPa)
#
#
# Indices 1 2 3 4 5 6 
#
# 1 56.0011 27.2158 42.3075 0.0000 0.0000 0.0000
# 2 27.2158 42.3033 58.5058 0.0000 0.0000 0.0000
# 3 42.3075 58.5058 140.4018 0.0000 0.0000 0.0000
# 4 0.0000 0.0000 0.0000 31.9949 0.0000 0.0000
# 5 0.0000 0.0000 0.0000 0.0000 18.2238 0.0000
# 6 0.0000 0.0000 0.0000 0.0000 0.0000 34.5081
#
#
#
# Elastic Compliance Matrix: (Units=1/GPa)
#
#
# Indices 1 2 3 4 5 6 
#
# 1 0.026229 -0.014028 -0.002058 0.000000 0.000000 0.000000
# 2 -0.014028 0.063295 -0.022148 0.000000 0.000000 0.000000
# 3 -0.002058 -0.022148 0.016972 0.000000 0.000000 0.000000
# 4 0.000000 0.000000 0.000000 0.031255 0.000000 0.000000
# 5 0.000000 0.000000 0.000000 0.000000 0.054873 0.000000
# 6 0.000000 0.000000 0.000000 0.000000 0.000000 0.028979
#
#
# Mechanical properties :
#
#
# Convention : Reuss Voigt Hill
#
# Bulk Modulus (GPa) = 33.30328 54.97381 44.13855
# Shear Modulus (GPa) = 16.22956 24.32382 20.27669
#
# Velocity S-wave (km/s) = 2.92170 3.57683 3.26573
# Velocity P-wave (km/s) = 5.37573 6.78034 6.11847
#
# Compressibility (1/GPa) = 0.03002707
#
# Stress axis : x y z
#
# Youngs Moduli (GPa) = 38.12552 15.79914 58.92182
#
# Poissons Ratio (x) = 0.22163 0.12127
# Poissons Ratio (y) = 0.53483 1.30499
# Poissons Ratio (z) = 0.07847 0.34992
#
# Static dielectric constant tensor:
#      x y z
#    x 1.626060 0.000000 0.000000 
#    y 0.000000 1.636660 0.000000 
#    z 0.000000 0.000000 1.676720 
# 
# From -- ./inp_files/20396.got.cif
#   From: 2010.05.17/outbox.cif.g08.bks.cpg/sg62_11_cif.got.tgz:20396.got - 2010.06.03 15:25:27.
