data_PCOD9465425
_publ_section_title
;
Structure prediction by ZEFSAII (Michael W. Deem and Ramdas Pophale) SiO2 
 PCOD9465425
Probable space group: P N M A
;
_chemical_formula_sum "Si O2"
_cell_formula_units_Z 48
_cell_length_a 16.709759
_cell_length_b 13.382284
_cell_length_c 9.390228
_cell_angle_alpha 90.000000
_cell_angle_beta 90.000000
_cell_angle_gamma 90.000000
_cell_volume 2099.793398
_symmetry_space_group_name_H-M "P N M A"
_symmetry_group_IT_number 62
_symmetry_cell_setting 'orthorhombic'
loop_
_space_group_symop_operation_xyz
x,y,z
1/2-x,-y,1/2+z
1/2+x,1/2-y,1/2-z
-x,1/2+y,-z
-x,-y,-z
1/2+x,y,1/2-z
1/2-x,1/2+y,1/2+z
x,1/2-y,z
loop_
_atom_site_type_symbol
_atom_site_label
_atom_site_fract_x
_atom_site_fract_y
_atom_site_fract_z
Si Si1 0.518758 0.555111 0.148150
Si Si2 0.227391 0.967575 0.046210
Si Si3 0.668002 0.053123 0.189698
Si Si4 0.376348 0.250000 0.918409
Si Si5 0.616818 0.250000 0.042814
Si Si6 0.562154 0.537280 0.622392
Si Si7 0.260390 0.750000 0.182864
Si Si8 0.947826 0.250000 0.290842
O O1 0.581884 0.486033 0.231046
O O2 0.567330 0.656276 0.128583
O O3 0.442492 0.544515 0.249279
O O4 0.500000 0.500000 0.000000
O O5 0.297264 0.006272 0.943922
O O6 0.148481 0.965449 0.950459
O O7 0.233504 0.856019 0.113475
O O8 0.222692 0.043250 0.175961
O O9 0.657749 0.158348 0.119785
O O10 0.290688 0.250000 0.833202
O O11 0.376315 0.250000 0.091635
O O12 0.525977 0.250000 0.102525
O O13 0.644887 0.250000 0.876217
O O14 0.500000 0.500000 0.500000
O O15 0.551647 0.649023 0.693441
#
# Coordination Sequence:
#
# PCOD9465425 Si02
#       8
#     8   8   8   4   4   8   4   4
#     4  12  24  42  68  99 138 182 232 295 352 419
#     4  11  24  42  66  98 133 186 229 291 352 425
#     4  11  23  43  66  94 140 180 233 288 352 415
#     4  12  22  42  68 104 138 177 237 278 348 425
#     4  10  20  42  67 100 137 184 234 290 353 408
#     4  12  23  42  68 101 139 182 236 290 360 417
#     4  10  21  42  69  94 139 183 230 292 346 416
#     4  12  23  40  74 104 140 188 241 296 351 429
#
# _framework density 22.859392
#
# number of rings (size 3 to 8) (size 9 to 14) (size 15 to 20)
#    0.000    0.667    6.667    0.500    2.333    0.667 
#    0.000    2.500    0.000    0.000    0.000    0.000 
#    0.000    0.000    0.000    0.000    0.000    0.000 
#
# Total GULP energy -267402.859039 kJ/mol
# GULP energy per Si atom -5570.892897 kJ/mol
# Density = 2.280736 g / cm^3
# Si number density = 22.859392 Si / 1000 Ang^3
#
#
#
# Elastic Constant Matrix: (Units=GPa)
#
#
# Indices 1 2 3 4 5 6 
#
# 1 43.5811 18.2660 38.9779 0.0000 0.0000 0.0000
# 2 18.2660 96.2118 31.7099 0.0000 0.0000 0.0000
# 3 38.9779 31.7099 143.8064 0.0000 0.0000 0.0000
# 4 0.0000 0.0000 0.0000 75.6169 0.0000 0.0000
# 5 0.0000 0.0000 0.0000 0.0000 48.1660 0.0000
# 6 0.0000 0.0000 0.0000 0.0000 0.0000 33.4880
#
#
#
# Elastic Compliance Matrix: (Units=1/GPa)
#
#
# Indices 1 2 3 4 5 6 
#
# 1 0.031281 -0.003391 -0.007731 0.000000 0.000000 0.000000
# 2 -0.003391 0.011576 -0.001633 0.000000 0.000000 0.000000
# 3 -0.007731 -0.001633 0.009409 0.000000 0.000000 0.000000
# 4 0.000000 0.000000 0.000000 0.013225 0.000000 0.000000
# 5 0.000000 0.000000 0.000000 0.000000 0.020762 0.000000
# 6 0.000000 0.000000 0.000000 0.000000 0.000000 0.029861
#
#
# Mechanical properties :
#
#
# Convention : Reuss Voigt Hill
#
# Bulk Modulus (GPa) = 37.37463 51.27852 44.32658
# Shear Modulus (GPa) = 33.21309 44.43055 38.82182
#
# Velocity S-wave (km/s) = 3.81587 4.41346 4.12550
# Velocity P-wave (km/s) = 5.98329 6.96077 6.49046
#
# Compressibility (1/GPa) = 0.02675612
#
# Stress axis : x y z
#
# Youngs Moduli (GPa) = 31.96805 86.38679 106.27679
#
# Poissons Ratio (x) = 0.29292 0.82162
# Poissons Ratio (y) = 0.10840 0.17360
# Poissons Ratio (z) = 0.24714 0.14111
#
# Static dielectric constant tensor:
#      x y z
#    x 1.959570 0.000000 0.000000 
#    y 0.000000 1.927920 0.000000 
#    z 0.000000 0.000000 1.862800 
# 
# From -- ./inp_files/7699.got.cif
#   From: 2010.05.17/outbox.cif.g08.bks.cpg/sg62_4_cif.got.tgz:7699.got - 2010.06.03 15:25:27.
