data_PCOD9465181
_publ_section_title
;
Structure prediction by ZEFSAII (Michael W. Deem and Ramdas Pophale) SiO2 
 PCOD9465181
Probable space group: P N M A
;
_chemical_formula_sum "Si O2"
_cell_formula_units_Z 56
_cell_length_a 20.467273
_cell_length_b 14.072564
_cell_length_c 9.536343
_cell_angle_alpha 90.000000
_cell_angle_beta 90.000000
_cell_angle_gamma 90.000000
_cell_volume 2746.724353
_symmetry_space_group_name_H-M "P N M A"
_symmetry_group_IT_number 62
_symmetry_cell_setting 'orthorhombic'
loop_
_space_group_symop_operation_xyz
x,y,z
1/2-x,-y,1/2+z
1/2+x,1/2-y,1/2-z
-x,1/2+y,-z
-x,-y,-z
1/2+x,y,1/2-z
1/2-x,1/2+y,1/2+z
x,1/2-y,z
loop_
_atom_site_type_symbol
_atom_site_label
_atom_site_fract_x
_atom_site_fract_y
_atom_site_fract_z
Si Si1 0.645941 0.473350 0.704597
Si Si2 0.616896 0.359166 0.195851
Si Si3 0.230666 0.862437 0.875302
Si Si4 0.092800 0.637968 0.297723
Si Si5 0.271596 0.136268 0.706718
Si Si6 0.569605 0.997052 0.428542
Si Si7 0.454009 0.862965 0.103006
O O1 0.680043 0.576913 0.718041
O O2 0.704879 0.401880 0.731726
O O3 0.620276 0.474590 0.547184
O O4 0.586841 0.435693 0.800602
O O5 0.611364 0.250000 0.245895
O O6 0.694125 0.378223 0.171639
O O7 0.582626 0.431268 0.301406
O O8 0.579318 0.365930 0.048265
O O9 0.217497 0.750000 0.865119
O O10 0.224892 0.889931 0.041028
O O11 0.096859 0.750000 0.315085
O O12 0.167378 0.601246 0.302087
O O13 0.075640 0.607361 0.139024
O O14 0.030727 0.608493 0.391270
O O15 0.271478 0.250000 0.708706
O O16 0.500000 0.000000 0.500000
O O17 0.449502 0.750000 0.149509
#
# Coordination Sequence:
#
# PCOD9465181 Si02
#       7
#     8   8   8   8   8   8   8
#     4  12  22  37  67  96 128 167 218 273 325 396
#     4  10  23  43  66  91 127 171 219 273 326 388
#     4  10  21  38  63  93 129 174 218 265 327 390
#     4  10  21  40  64  91 130 170 214 266 321 389
#     4  10  20  38  63  94 128 169 214 266 329 390
#     4  12  25  40  60 100 131 167 217 264 333 391
#     4  10  21  41  69  97 126 174 224 267 326 395
#
# _framework density 20.387920999999999
#
# number of rings (size 3 to 8) (size 9 to 14) (size 15 to 20)
#    0.000    1.429    4.286    1.286    0.000    2.286 
#    0.000    0.000    0.000    0.857    0.000    0.000 
#    0.000    0.000    0.000    0.000    0.000    0.000 
#
# Total GULP energy -312280.620279 kJ/mol
# GULP energy per Si atom -5576.439648 kJ/mol
# Density = 2.034152 g / cm^3
# Si number density = 20.387921 Si / 1000 Ang^3
#
#
#
# Elastic Constant Matrix: (Units=GPa)
#
#
# Indices 1 2 3 4 5 6 
#
# 1 80.6429 37.3405 19.8732 0.0000 0.0000 0.0000
# 2 37.3405 55.1813 22.1279 0.0000 0.0000 0.0000
# 3 19.8732 22.1279 43.5516 0.0000 0.0000 0.0000
# 4 0.0000 0.0000 0.0000 26.9048 0.0000 0.0000
# 5 0.0000 0.0000 0.0000 0.0000 25.4701 0.0000
# 6 0.0000 0.0000 0.0000 0.0000 0.0000 25.2186
#
#
#
# Elastic Compliance Matrix: (Units=1/GPa)
#
#
# Indices 1 2 3 4 5 6 
#
# 1 0.018287 -0.011339 -0.002584 0.000000 0.000000 0.000000
# 2 -0.011339 0.029789 -0.009962 0.000000 0.000000 0.000000
# 3 -0.002584 -0.009962 0.029202 0.000000 0.000000 0.000000
# 4 0.000000 0.000000 0.000000 0.037168 0.000000 0.000000
# 5 0.000000 0.000000 0.000000 0.000000 0.039262 0.000000
# 6 0.000000 0.000000 0.000000 0.000000 0.000000 0.039653
#
#
# Mechanical properties :
#
#
# Convention : Reuss Voigt Hill
#
# Bulk Modulus (GPa) = 33.88640 37.56209 35.72425
# Shear Modulus (GPa) = 19.92302 22.18765 21.05534
#
# Velocity S-wave (km/s) = 3.12941 3.30248 3.21711
# Velocity P-wave (km/s) = 5.45110 5.74504 5.60000
#
# Compressibility (1/GPa) = 0.02951036
#
# Stress axis : x y z
#
# Youngs Moduli (GPa) = 54.68286 33.56898 34.24480
#
# Poissons Ratio (x) = 0.38063 0.08848
# Poissons Ratio (y) = 0.62003 0.34113
# Poissons Ratio (z) = 0.14129 0.33440
#
# Static dielectric constant tensor:
#      x y z
#    x 1.784890 0.000000 0.000000 
#    y 0.000000 1.774490 0.000000 
#    z 0.000000 0.000000 1.695510 
# 
# From -- ./inp_files/8735.got.cif
#   From: 2010.05.17/outbox.cif.g08.bks.cpg/sg62_5_cif.got.tgz:8735.got - 2010.06.03 15:25:27.
