data_PCOD9465171
_publ_section_title
;
Structure prediction by ZEFSAII (Michael W. Deem and Ramdas Pophale) SiO2 
 PCOD9465171
Probable space group: P N M A
;
_chemical_formula_sum "Si O2"
_cell_formula_units_Z 48
_cell_length_a 11.960262
_cell_length_b 8.905493
_cell_length_c 22.707897
_cell_angle_alpha 90.000000
_cell_angle_beta 90.000000
_cell_angle_gamma 90.000000
_cell_volume 2418.664196
_symmetry_space_group_name_H-M "P N M A"
_symmetry_group_IT_number 62
_symmetry_cell_setting 'orthorhombic'
loop_
_space_group_symop_operation_xyz
x,y,z
1/2-x,-y,1/2+z
1/2+x,1/2-y,1/2-z
-x,1/2+y,-z
-x,-y,-z
1/2+x,y,1/2-z
1/2-x,1/2+y,1/2+z
x,1/2-y,z
loop_
_atom_site_type_symbol
_atom_site_label
_atom_site_fract_x
_atom_site_fract_y
_atom_site_fract_z
Si Si1 0.971109 0.928812 0.871021
Si Si2 0.766501 0.071639 0.925029
Si Si3 0.431669 0.428394 0.139118
Si Si4 0.649344 0.928949 0.729465
Si Si5 0.330124 0.423643 0.849727
Si Si6 0.350544 0.925239 0.454389
O O1 0.954029 0.750000 0.873618
O O2 0.043826 0.964509 0.812998
O O3 0.853600 0.012284 0.875862
O O4 0.046605 0.984751 0.925768
O O5 0.770410 0.250000 0.929232
O O6 0.643880 0.014295 0.908042
O O7 0.807751 0.996943 0.985540
O O8 0.423740 0.250000 0.129549
O O9 0.381852 0.463008 0.203766
O O10 0.559381 0.480683 0.139402
O O11 0.669487 0.750000 0.724053
O O12 0.756711 0.014205 0.704363
O O13 0.360090 0.250000 0.840156
O O14 0.248490 0.432920 0.906192
O O15 0.380934 0.750000 0.462619
#
# Coordination Sequence:
#
# PCOD9465171 Si02
#       6
#     8   8   8   8   8   8
#     4  10  20  38  63  91 121 157 199 247 299 355
#     4  12  25  39  58  89 123 158 201 250 301 353
#     4  11  24  41  61  87 120 161 203 244 294 356
#     4   9  21  40  63  87 116 157 200 240 290 355
#     4  10  22  40  63  90 119 153 196 246 301 353
#     4  10  21  40  63  88 120 159 200 246 299 358
#
# _framework density 19.845666999999999
#
# number of rings (size 3 to 8) (size 9 to 14) (size 15 to 20)
#    0.000    1.667    0.000    4.000    2.333    4.667 
#    0.000    0.000    0.000    0.000    0.000    0.000 
#    0.000    0.000    0.000    0.000    0.000    0.000 
#
# Total GULP energy -268483.633250 kJ/mol
# GULP energy per Si atom -5593.409026 kJ/mol
# Density = 1.980050 g / cm^3
# Si number density = 19.845667 Si / 1000 Ang^3
#
#
#
# Elastic Constant Matrix: (Units=GPa)
#
#
# Indices 1 2 3 4 5 6 
#
# 1 67.2436 17.3767 -7.1892 0.0000 0.0000 0.0000
# 2 17.3767 70.3781 17.2205 0.0000 0.0000 0.0000
# 3 -7.1892 17.2205 36.7071 0.0000 0.0000 0.0000
# 4 0.0000 0.0000 0.0000 25.1679 0.0000 0.0000
# 5 0.0000 0.0000 0.0000 0.0000 9.7636 0.0000
# 6 0.0000 0.0000 0.0000 0.0000 0.0000 41.8247
#
#
#
# Elastic Compliance Matrix: (Units=1/GPa)
#
#
# Indices 1 2 3 4 5 6 
#
# 1 0.016971 -0.005652 0.005975 0.000000 0.000000 0.000000
# 2 -0.005652 0.017934 -0.009520 0.000000 0.000000 0.000000
# 3 0.005975 -0.009520 0.032879 0.000000 0.000000 0.000000
# 4 0.000000 0.000000 0.000000 0.039733 0.000000 0.000000
# 5 0.000000 0.000000 0.000000 0.000000 0.102422 0.000000
# 6 0.000000 0.000000 0.000000 0.000000 0.000000 0.023909
#
#
# Mechanical properties :
#
#
# Convention : Reuss Voigt Hill
#
# Bulk Modulus (GPa) = 20.24718 25.46053 22.85386
# Shear Modulus (GPa) = 18.60769 25.14594 21.87681
#
# Velocity S-wave (km/s) = 3.06538 3.56346 3.32376
# Velocity P-wave (km/s) = 4.77003 5.45785 5.12549
#
# Compressibility (1/GPa) = 0.04938959
#
# Stress axis : x y z
#
# Youngs Moduli (GPa) = 58.92479 55.75989 30.41426
#
# Poissons Ratio (x) = 0.31517 -0.18174
# Poissons Ratio (y) = 0.33306 0.28956
# Poissons Ratio (z) = -0.35210 0.53086
#
# Static dielectric constant tensor:
#      x y z
#    x 1.683000 0.000000 0.000000 
#    y 0.000000 1.660610 0.000000 
#    z 0.000000 0.000000 1.693700 
# 
# From -- ./inp_files/29214.got.cif
#   From: 2010.05.17/outbox.cif.g08.bks.cpg/sg62_15_cif.got.tgz:29214.got - 2010.06.03 15:25:27.
