data_PCOD9465814
_publ_section_title
;
Structure prediction by ZEFSAII (Michael W. Deem and Ramdas Pophale) SiO2 
 PCOD9465814
Probable space group: P N M A
;
_chemical_formula_sum "Si O2"
_cell_formula_units_Z 48
_cell_length_a 5.021196
_cell_length_b 25.063822
_cell_length_c 16.914958
_cell_angle_alpha 90.000000
_cell_angle_beta 90.000000
_cell_angle_gamma 90.000000
_cell_volume 2128.753601
_symmetry_space_group_name_H-M "P N M A"
_symmetry_group_IT_number 62
_symmetry_cell_setting 'orthorhombic'
loop_
_space_group_symop_operation_xyz
x,y,z
1/2-x,-y,1/2+z
1/2+x,1/2-y,1/2-z
-x,1/2+y,-z
-x,-y,-z
1/2+x,y,1/2-z
1/2-x,1/2+y,1/2+z
x,1/2-y,z
loop_
_atom_site_type_symbol
_atom_site_label
_atom_site_fract_x
_atom_site_fract_y
_atom_site_fract_z
Si Si1 0.372763 0.517542 0.299919
Si Si2 0.600300 0.145977 0.457998
Si Si3 0.349165 0.110690 0.298403
Si Si4 0.749794 0.465251 0.525502
Si Si5 0.829592 0.315104 0.703829
Si Si6 0.417269 0.688546 0.038784
O O1 0.667967 0.530286 0.270554
O O2 0.364605 0.453161 0.313920
O O3 0.275863 0.543513 0.380824
O O4 0.468018 0.142247 0.372114
O O5 0.733818 0.089555 0.478654
O O6 0.845500 0.185511 0.474260
O O7 0.348465 0.157491 0.514796
O O8 0.545639 0.121909 0.224714
O O9 0.500000 0.500000 0.500000
O O10 0.000000 0.500000 0.500000
O O11 0.035320 0.332323 0.772119
O O12 0.823715 0.250000 0.702330
O O13 0.946615 0.331512 0.619669
O O14 0.336239 0.750000 0.050668
#
# Coordination Sequence:
#
# PCOD9465814 Si02
#       6
#     8   8   8   8   8   8
#     4  10  21  38  60  89 129 171 204 247 312 372
#     4  12  24  41  66  95 125 166 213 258 323 378
#     4  10  21  37  63  92 121 158 212 257 299 382
#     4  12  24  40  63  94 131 164 203 263 311 382
#     4   9  17  33  58  85 113 153 206 254 300 359
#     4  11  24  42  64  92 126 167 216 268 316 369
#
# _framework density 22.548404000000001
#
# number of rings (size 3 to 8) (size 9 to 14) (size 15 to 20)
#    0.000    1.333    1.667    4.500    4.667    2.667 
#    0.000    5.000    0.000   10.000    0.000    0.000 
#    0.000    0.000    0.000    0.000    0.000    0.000 
#
# Total GULP energy -268605.726006 kJ/mol
# GULP energy per Si atom -5595.952625 kJ/mol
# Density = 2.249708 g / cm^3
# Si number density = 22.548404 Si / 1000 Ang^3
#
#
#
# Elastic Constant Matrix: (Units=GPa)
#
#
# Indices 1 2 3 4 5 6 
#
# 1 108.0416 11.1977 -6.2110 0.0000 0.0000 0.0000
# 2 11.1977 47.3906 5.7867 0.0000 0.0000 0.0000
# 3 -6.2110 5.7867 69.2565 0.0000 0.0000 0.0000
# 4 0.0000 0.0000 0.0000 18.7477 0.0000 0.0000
# 5 0.0000 0.0000 0.0000 0.0000 37.6796 0.0000
# 6 0.0000 0.0000 0.0000 0.0000 0.0000 32.7990
#
#
#
# Elastic Compliance Matrix: (Units=1/GPa)
#
#
# Indices 1 2 3 4 5 6 
#
# 1 0.009564 -0.002389 0.001057 0.000000 0.000000 0.000000
# 2 -0.002389 0.021915 -0.002045 0.000000 0.000000 0.000000
# 3 0.001057 -0.002045 0.014705 0.000000 0.000000 0.000000
# 4 0.000000 0.000000 0.000000 0.053340 0.000000 0.000000
# 5 0.000000 0.000000 0.000000 0.000000 0.026540 0.000000
# 6 0.000000 0.000000 0.000000 0.000000 0.000000 0.030489
#
#
# Mechanical properties :
#
#
# Convention : Reuss Voigt Hill
#
# Bulk Modulus (GPa) = 25.36122 27.35952 26.36037
# Shear Modulus (GPa) = 28.33664 32.10628 30.22146
#
# Velocity S-wave (km/s) = 3.54885 3.77753 3.66497
# Velocity P-wave (km/s) = 5.29757 5.58447 5.44291
#
# Compressibility (1/GPa) = 0.03943028
#
# Stress axis : x y z
#
# Youngs Moduli (GPa) = 104.55800 45.62992 68.00498
#
# Poissons Ratio (x) = 0.10901 -0.07190
# Poissons Ratio (y) = 0.24978 0.13910
# Poissons Ratio (z) = -0.11055 0.09333
#
# Static dielectric constant tensor:
#      x y z
#    x 1.761220 0.000000 0.000000 
#    y 0.000000 1.879470 0.000000 
#    z 0.000000 0.000000 1.865960 
# 
# From -- ./inp_files/16218.got.cif
#   From: 2010.05.17/outbox.cif.g08.bks.cpg/sg62_9_cif.got.tgz:16218.got - 2010.06.03 15:25:27.
