data_PCOD9465667
_publ_section_title
;
Structure prediction by ZEFSAII (Michael W. Deem and Ramdas Pophale) SiO2 
 PCOD9465667
Probable space group: P N M A
;
_chemical_formula_sum "Si O2"
_cell_formula_units_Z 52
_cell_length_a 9.359673
_cell_length_b 19.619669
_cell_length_c 15.975210
_cell_angle_alpha 90.000000
_cell_angle_beta 90.000000
_cell_angle_gamma 90.000000
_cell_volume 2933.586700
_symmetry_space_group_name_H-M "P N M A"
_symmetry_group_IT_number 62
_symmetry_cell_setting 'orthorhombic'
loop_
_space_group_symop_operation_xyz
x,y,z
1/2-x,-y,1/2+z
1/2+x,1/2-y,1/2-z
-x,1/2+y,-z
-x,-y,-z
1/2+x,y,1/2-z
1/2-x,1/2+y,1/2+z
x,1/2-y,z
loop_
_atom_site_type_symbol
_atom_site_label
_atom_site_fract_x
_atom_site_fract_y
_atom_site_fract_z
Si Si1 0.910169 0.902789 0.496204
Si Si2 0.989147 0.499259 0.642139
Si Si3 0.428640 0.859743 0.393181
Si Si4 0.857746 0.250000 0.826978
Si Si5 0.838798 0.498884 0.192260
Si Si6 0.797958 0.250000 0.635679
Si Si7 0.583189 0.932701 0.530377
Si Si8 0.095443 0.250000 0.546673
O O1 0.987799 0.940601 0.573078
O O2 0.745704 0.928801 0.496880
O O3 0.910220 0.821349 0.502686
O O4 0.980756 0.930509 0.410721
O O5 0.832163 0.498774 0.683360
O O6 0.105662 0.508465 0.714059
O O7 0.542176 0.815544 0.340846
O O8 0.285530 0.815729 0.398199
O O9 0.495532 0.873313 0.484739
O O10 0.397293 0.930124 0.345936
O O11 0.789512 0.250000 0.735862
O O12 0.737383 0.250000 0.897554
O O13 0.899428 0.440121 0.130163
O O14 0.960021 0.250000 0.607777
O O15 0.500000 0.000000 0.500000
#
# Coordination Sequence:
#
# PCOD9465667 Si02
#       8
#     8   8   8   4   8   4   8   4
#     4  10  22  40  61  85 122 159 204 238 307 365
#     4  10  23  39  60  91 118 154 196 255 295 360
#     4  10  21  37  55  79 119 153 193 234 291 362
#     4  11  23  35  53  80 118 158 188 233 285 369
#     4  10  22  36  60  87 114 148 197 249 301 341
#     4  11  25  35  49  90 118 151 196 234 291 365
#     4   9  19  37  58  85 113 154 195 245 293 352
#     4  12  22  38  62  80 118 165 194 241 298 366
#
# _framework density 17.725742
#
# number of rings (size 3 to 8) (size 9 to 14) (size 15 to 20)
#    0.000    1.846    1.538    1.846   10.769    1.231 
#    0.000    0.000    0.000    5.538    0.000    0.000 
#    0.000    0.000    0.000    0.000    0.000    0.000 
#
# Total GULP energy -290152.278097 kJ/mol
# GULP energy per Si atom -5579.851502 kJ/mol
# Density = 1.768540 g / cm^3
# Si number density = 17.725742 Si / 1000 Ang^3
#
#
#
# Elastic Constant Matrix: (Units=GPa)
#
#
# Indices 1 2 3 4 5 6 
#
# 1 56.8055 21.8942 36.7076 0.0000 0.0000 0.0000
# 2 21.8942 78.3308 29.4652 0.0000 0.0000 0.0000
# 3 36.7076 29.4652 92.6476 0.0000 0.0000 0.0000
# 4 0.0000 0.0000 0.0000 10.9487 0.0000 0.0000
# 5 0.0000 0.0000 0.0000 0.0000 12.5423 0.0000
# 6 0.0000 0.0000 0.0000 0.0000 0.0000 22.7771
#
#
#
# Elastic Compliance Matrix: (Units=1/GPa)
#
#
# Indices 1 2 3 4 5 6 
#
# 1 0.024542 -0.003637 -0.008567 0.000000 0.000000 0.000000
# 2 -0.003637 0.015040 -0.003342 0.000000 0.000000 0.000000
# 3 -0.008567 -0.003342 0.015251 0.000000 0.000000 0.000000
# 4 0.000000 0.000000 0.000000 0.091335 0.000000 0.000000
# 5 0.000000 0.000000 0.000000 0.000000 0.079730 0.000000
# 6 0.000000 0.000000 0.000000 0.000000 0.000000 0.043904
#
#
# Mechanical properties :
#
#
# Convention : Reuss Voigt Hill
#
# Bulk Modulus (GPa) = 42.12261 44.87978 43.50119
# Shear Modulus (GPa) = 16.19131 18.56807 17.37969
#
# Velocity S-wave (km/s) = 3.02559 3.24005 3.13465
# Velocity P-wave (km/s) = 6.00172 6.27465 6.13970
#
# Compressibility (1/GPa) = 0.02374022
#
# Stress axis : x y z
#
# Youngs Moduli (GPa) = 40.74703 66.48833 65.57030
#
# Poissons Ratio (x) = 0.24182 0.56173
# Poissons Ratio (y) = 0.14820 0.21915
# Poissons Ratio (z) = 0.34907 0.22222
#
# Static dielectric constant tensor:
#      x y z
#    x 1.617460 0.000000 0.000000 
#    y 0.000000 1.615530 0.000000 
#    z 0.000000 0.000000 1.600210 
# 
# From -- ./inp_files/22423.got.cif
#   From: 2010.05.17/outbox.cif.g08.bks.cpg/sg62_12_cif.got.tgz:22423.got - 2010.06.03 15:25:27.
