data_PCOD9465943
_publ_section_title
;
Structure prediction by ZEFSAII (Michael W. Deem and Ramdas Pophale) SiO2 
 PCOD9465943
Probable space group: P N M A
;
_chemical_formula_sum "Si O2"
_cell_formula_units_Z 56
_cell_length_a 11.342332
_cell_length_b 15.842647
_cell_length_c 14.589304
_cell_angle_alpha 90.000000
_cell_angle_beta 90.000000
_cell_angle_gamma 90.000000
_cell_volume 2621.589414
_symmetry_space_group_name_H-M "P N M A"
_symmetry_group_IT_number 62
_symmetry_cell_setting 'orthorhombic'
loop_
_space_group_symop_operation_xyz
x,y,z
1/2-x,-y,1/2+z
1/2+x,1/2-y,1/2-z
-x,1/2+y,-z
-x,-y,-z
1/2+x,y,1/2-z
1/2-x,1/2+y,1/2+z
x,1/2-y,z
loop_
_atom_site_type_symbol
_atom_site_label
_atom_site_fract_x
_atom_site_fract_y
_atom_site_fract_z
Si Si1 0.918710 0.344481 0.287283
Si Si2 0.446742 0.154965 0.571441
Si Si3 0.711071 0.506677 0.466667
Si Si4 0.312384 0.584686 0.358788
Si Si5 0.405458 0.339740 0.784193
Si Si6 0.088507 0.023456 0.667173
Si Si7 0.152583 0.153756 0.162939
O O1 0.936268 0.250000 0.325558
O O2 0.942577 0.425915 0.349434
O O3 0.773923 0.349948 0.273942
O O4 0.023210 0.352841 0.210820
O O5 0.432512 0.250000 0.534976
O O6 0.580764 0.130030 0.589966
O O7 0.395945 0.151544 0.674977
O O8 0.386478 0.078657 0.518364
O O9 0.747240 0.473708 0.565562
O O10 0.816821 0.546962 0.408909
O O11 0.667067 0.426418 0.405011
O O12 0.223659 0.654351 0.323669
O O13 0.356081 0.533120 0.269763
O O14 0.464306 0.250000 0.802953
O O15 0.479292 0.414874 0.826998
O O16 0.156502 0.250000 0.123040
#
# Coordination Sequence:
#
# PCOD9465943 Si02
#       7
#     8   8   8   8   8   8   8
#     4   9  18  33  57  84 116 159 204 251 308 369
#     4  10  21  38  61  93 127 162 205 258 312 369
#     4  11  22  39  61  90 125 162 203 256 311 370
#     4  11  22  38  62  91 122 163 206 253 314 374
#     4  10  21  38  63  91 124 165 209 257 314 371
#     4  10  22  39  61  88 122 159 206 256 309 370
#     4   9  18  33  55  86 119 158 208 259 310 372
#
# _framework density 21.361087000000001
#
# number of rings (size 3 to 8) (size 9 to 14) (size 15 to 20)
#    0.000    2.000    1.429    2.571    2.000    2.857 
#    0.000    2.143    0.000    0.857    0.000    0.000 
#    0.000    0.000    0.000    0.000    0.000    0.000 
#
# Total GULP energy -311990.659581 kJ/mol
# GULP energy per Si atom -5571.261778 kJ/mol
# Density = 2.131247 g / cm^3
# Si number density = 21.361087 Si / 1000 Ang^3
#
#
#
# Elastic Constant Matrix: (Units=GPa)
#
#
# Indices 1 2 3 4 5 6 
#
# 1 40.0557 20.4871 22.0446 0.0000 0.0000 0.0000
# 2 20.4871 109.1511 4.1561 0.0000 0.0000 0.0000
# 3 22.0446 4.1561 28.4112 0.0000 0.0000 0.0000
# 4 0.0000 0.0000 0.0000 -7.7854 0.0000 0.0000
# 5 0.0000 0.0000 0.0000 0.0000 16.5081 0.0000
# 6 0.0000 0.0000 0.0000 0.0000 0.0000 6.7239
#
#
#
# Elastic Compliance Matrix: (Units=1/GPa)
#
#
# Indices 1 2 3 4 5 6 
#
# 1 0.049491 -0.007871 -0.037250 0.000000 0.000000 0.000000
# 2 -0.007871 0.010465 0.004576 0.000000 0.000000 0.000000
# 3 -0.037250 0.004576 0.063430 0.000000 0.000000 0.000000
# 4 0.000000 0.000000 0.000000 -0.128446 0.000000 0.000000
# 5 0.000000 0.000000 0.000000 0.000000 0.060576 0.000000
# 6 0.000000 0.000000 0.000000 0.000000 0.000000 0.148723
#
#
# Mechanical properties :
#
#
# Convention : Reuss Voigt Hill
#
# Bulk Modulus (GPa) = 23.64172 30.11039 26.87605
# Shear Modulus (GPa) = 16.69851 11.81800 14.25825
#
# Velocity S-wave (km/s) = 2.79897 2.35468 2.58638
# Velocity P-wave (km/s) = 4.64083 4.63888 4.63985
#
# Compressibility (1/GPa) = 0.04229811
#
# Stress axis : x y z
#
# Youngs Moduli (GPa) = 20.20558 95.55935 15.76530
#
# Poissons Ratio (x) = 0.75214 0.58725
# Poissons Ratio (y) = 0.15904 -0.07215
# Poissons Ratio (z) = 0.75265 -0.43732
#
# Static dielectric constant tensor:
#      x y z
#    x 1.843870 0.000000 0.000000 
#    y 0.000000 2.001600 0.000000 
#    z 0.000000 0.000000 1.751900 
# 
# From -- ./inp_files/18060.got.cif
#   From: 2010.05.17/outbox.cif.g08.bks.cpg/sg62_10_cif.got.tgz:18060.got - 2010.06.03 15:25:27.
