data_PCOD9465545
_publ_section_title
;
Structure prediction by ZEFSAII (Michael W. Deem and Ramdas Pophale) SiO2 
 PCOD9465545
Probable space group: P N M A
;
_chemical_formula_sum "Si O2"
_cell_formula_units_Z 48
_cell_length_a 7.939034
_cell_length_b 10.618667
_cell_length_c 26.888894
_cell_angle_alpha 90.000000
_cell_angle_beta 90.000000
_cell_angle_gamma 90.000000
_cell_volume 2266.786422
_symmetry_space_group_name_H-M "P N M A"
_symmetry_group_IT_number 62
_symmetry_cell_setting 'orthorhombic'
loop_
_space_group_symop_operation_xyz
x,y,z
1/2-x,-y,1/2+z
1/2+x,1/2-y,1/2-z
-x,1/2+y,-z
-x,-y,-z
1/2+x,y,1/2-z
1/2-x,1/2+y,1/2+z
x,1/2-y,z
loop_
_atom_site_type_symbol
_atom_site_label
_atom_site_fract_x
_atom_site_fract_y
_atom_site_fract_z
Si Si1 0.381402 0.390008 0.440790
Si Si2 0.075971 0.391912 0.774775
Si Si3 0.934445 0.608570 0.838612
Si Si4 0.746161 0.108350 0.496068
Si Si5 0.074436 0.893683 0.605932
Si Si6 0.063971 0.891837 0.328978
O O1 0.310193 0.250000 0.448835
O O2 0.430885 0.406668 0.383373
O O3 0.268128 0.499606 0.463392
O O4 0.561951 0.391425 0.469334
O O5 0.010567 0.250000 0.785209
O O6 0.965644 0.501127 0.798894
O O7 0.072620 0.405454 0.715364
O O8 0.258900 0.400878 0.799896
O O9 0.953066 0.750000 0.817786
O O10 0.752770 0.600601 0.864661
O O11 0.773509 0.250000 0.515964
O O12 0.878042 0.084634 0.451714
O O13 0.011751 0.750000 0.611928
O O14 0.961404 0.999914 0.630889
O O15 0.050346 0.750000 0.349941
#
# Coordination Sequence:
#
# PCOD9465545 Si02
#       6
#     8   8   8   8   8   8
#     4   8  14  25  42  67  98 128 159 196 236 279
#     4  10  21  36  53  73  97 126 162 203 246 293
#     4   9  18  32  50  74 103 132 163 200 242 289
#     4   8  14  25  42  67  98 128 159 196 236 279
#     4   9  18  32  50  74 103 132 163 200 242 289
#     4  10  21  36  53  73  97 126 162 203 246 293
#
# _framework density 21.175353999999999
#
# number of rings (size 3 to 8) (size 9 to 14) (size 15 to 20)
#    0.000    3.000    0.000    3.000    0.000    4.667 
#    0.000    3.333    0.000    1.000    0.000    0.000 
#    0.000    0.000    0.000    0.000    0.000    0.000 
#
# Total GULP energy -268075.838893 kJ/mol
# GULP energy per Si atom -5584.913310 kJ/mol
# Density = 2.112716 g / cm^3
# Si number density = 21.175354 Si / 1000 Ang^3
#
#
#
# Elastic Constant Matrix: (Units=GPa)
#
#
# Indices 1 2 3 4 5 6 
#
# 1 73.3918 47.9761 19.8508 0.0000 0.0000 0.0000
# 2 47.9761 129.5566 65.7878 0.0000 0.0000 0.0000
# 3 19.8508 65.7878 54.0820 0.0000 0.0000 0.0000
# 4 0.0000 0.0000 0.0000 30.0371 0.0000 0.0000
# 5 0.0000 0.0000 0.0000 0.0000 31.9873 0.0000
# 6 0.0000 0.0000 0.0000 0.0000 0.0000 9.1100
#
#
#
# Elastic Compliance Matrix: (Units=1/GPa)
#
#
# Indices 1 2 3 4 5 6 
#
# 1 0.018301 -0.008805 0.003993 0.000000 0.000000 0.000000
# 2 -0.008805 0.024426 -0.026481 0.000000 0.000000 0.000000
# 3 0.003993 -0.026481 0.049238 0.000000 0.000000 0.000000
# 4 0.000000 0.000000 0.000000 0.033292 0.000000 0.000000
# 5 0.000000 0.000000 0.000000 0.000000 0.031262 0.000000
# 6 0.000000 0.000000 0.000000 0.000000 0.000000 0.109769
#
#
# Mechanical properties :
#
#
# Convention : Reuss Voigt Hill
#
# Bulk Modulus (GPa) = 34.03776 58.25107 46.14441
# Shear Modulus (GPa) = 14.76375 22.45460 18.60918
#
# Velocity S-wave (km/s) = 2.64335 3.25993 2.96769
# Velocity P-wave (km/s) = 5.04237 6.46051 5.79498
#
# Compressibility (1/GPa) = 0.02937914
#
# Stress axis : x y z
#
# Youngs Moduli (GPa) = 54.64159 40.93995 20.30962
#
# Poissons Ratio (x) = 0.36046 -0.08110
# Poissons Ratio (y) = 0.48110 0.53782
# Poissons Ratio (z) = -0.21818 1.08414
#
# Static dielectric constant tensor:
#      x y z
#    x 1.810760 0.000000 0.000000 
#    y 0.000000 1.744370 0.000000 
#    z 0.000000 0.000000 1.718710 
# 
# From -- ./inp_files/30733.got.cif
#   From: 2010.05.17/outbox.cif.g08.bks.cpg/sg62_16_cif.got.tgz:30733.got - 2010.06.03 15:25:27.
