data_PCOD9465852
_publ_section_title
;
Structure prediction by ZEFSAII (Michael W. Deem and Ramdas Pophale) SiO2 
 PCOD9465852
Probable space group: P N M A
;
_chemical_formula_sum "Si O2"
_cell_formula_units_Z 56
_cell_length_a 14.930863
_cell_length_b 8.673211
_cell_length_c 21.795945
_cell_angle_alpha 90.000000
_cell_angle_beta 90.000000
_cell_angle_gamma 90.000000
_cell_volume 2822.542733
_symmetry_space_group_name_H-M "P N M A"
_symmetry_group_IT_number 62
_symmetry_cell_setting 'orthorhombic'
loop_
_space_group_symop_operation_xyz
x,y,z
1/2-x,-y,1/2+z
1/2+x,1/2-y,1/2-z
-x,1/2+y,-z
-x,-y,-z
1/2+x,y,1/2-z
1/2-x,1/2+y,1/2+z
x,1/2-y,z
loop_
_atom_site_type_symbol
_atom_site_label
_atom_site_fract_x
_atom_site_fract_y
_atom_site_fract_z
Si Si1 0.666203 0.065980 0.841683
Si Si2 0.556387 0.070113 0.648188
Si Si3 0.008250 0.929826 0.731189
Si Si4 0.252091 0.935375 0.397275
Si Si5 0.772071 0.068625 0.469533
Si Si6 0.189444 0.936544 0.262253
Si Si7 0.439376 0.930182 0.553469
O O1 0.663935 0.250000 0.837441
O O2 0.743596 0.011914 0.792764
O O3 0.569749 0.001042 0.821688
O O4 0.687202 0.015581 0.910938
O O5 0.558843 0.250000 0.666085
O O6 0.640865 0.040773 0.604229
O O7 0.564066 0.964904 0.707324
O O8 0.466163 0.027166 0.613110
O O9 0.994944 0.750000 0.721432
O O10 0.912700 0.009185 0.743074
O O11 0.238898 0.750000 0.398306
O O12 0.210339 0.993115 0.461243
O O13 0.218890 0.989830 0.330722
O O14 0.797037 0.250000 0.466938
O O15 0.664803 0.059660 0.461252
O O16 0.192365 0.750000 0.261827
O O17 0.461740 0.750000 0.562814
O O18 0.500000 0.000000 0.500000
#
# Coordination Sequence:
#
# PCOD9465852 Si02
#       7
#     8   8   8   8   8   8   8
#     4  11  23  41  65  92 122 162 208 254 307 367
#     4  11  20  37  60  85 118 158 203 250 303 364
#     4  12  25  40  61  92 125 158 201 256 314 370
#     4   9  18  37  62  86 115 157 201 247 300 353
#     4  10  21  38  58  85 124 162 199 251 311 364
#     4  10  21  41  67  90 117 160 212 257 303 364
#     4  11  21  33  53  85 123 161 199 244 303 369
#
# _framework density 19.840266
#
# number of rings (size 3 to 8) (size 9 to 14) (size 15 to 20)
#    0.000    1.429    2.857    3.429    0.000    4.571 
#    0.000    1.429    0.000    0.000    0.000    0.000 
#    0.000    0.000    0.000    0.000    0.000    0.000 
#
# Total GULP energy -312535.015601 kJ/mol
# GULP energy per Si atom -5580.982421 kJ/mol
# Density = 1.979511 g / cm^3
# Si number density = 19.840266 Si / 1000 Ang^3
#
#
#
# Elastic Constant Matrix: (Units=GPa)
#
#
# Indices 1 2 3 4 5 6 
#
# 1 39.1979 5.8258 9.3817 0.0000 0.0000 0.0000
# 2 5.8258 30.7924 9.6071 0.0000 0.0000 0.0000
# 3 9.3817 9.6071 115.0661 0.0000 0.0000 0.0000
# 4 0.0000 0.0000 0.0000 30.4647 0.0000 0.0000
# 5 0.0000 0.0000 0.0000 0.0000 33.3084 0.0000
# 6 0.0000 0.0000 0.0000 0.0000 0.0000 17.7820
#
#
#
# Elastic Compliance Matrix: (Units=1/GPa)
#
#
# Indices 1 2 3 4 5 6 
#
# 1 0.026606 -0.004474 -0.001796 0.000000 0.000000 0.000000
# 2 -0.004474 0.034096 -0.002482 0.000000 0.000000 0.000000
# 3 -0.001796 -0.002482 0.009044 0.000000 0.000000 0.000000
# 4 0.000000 0.000000 0.000000 0.032825 0.000000 0.000000
# 5 0.000000 0.000000 0.000000 0.000000 0.030023 0.000000
# 6 0.000000 0.000000 0.000000 0.000000 0.000000 0.056237
#
#
# Mechanical properties :
#
#
# Convention : Reuss Voigt Hill
#
# Bulk Modulus (GPa) = 19.14089 26.07619 22.60854
# Shear Modulus (GPa) = 22.34654 26.99380 24.67017
#
# Velocity S-wave (km/s) = 3.35971 3.69257 3.53007
# Velocity P-wave (km/s) = 4.97179 5.59926 5.29483
#
# Compressibility (1/GPa) = 0.05224418
#
# Stress axis : x y z
#
# Youngs Moduli (GPa) = 37.58516 29.32865 110.56686
#
# Poissons Ratio (x) = 0.13120 0.19855
# Poissons Ratio (y) = 0.16814 0.27443
# Poissons Ratio (z) = 0.06750 0.07279
#
# Static dielectric constant tensor:
#      x y z
#    x 1.703550 0.000000 0.000000 
#    y 0.000000 1.292270 0.000000 
#    z 0.000000 0.000000 1.745770 
# 
# From -- ./inp_files/27061.got.cif
#   From: 2010.05.17/outbox.cif.g08.bks.cpg/sg62_14_cif.got.tgz:27061.got - 2010.06.03 15:25:27.
