data_PCOD9465466
_publ_section_title
;
Structure prediction by ZEFSAII (Michael W. Deem and Ramdas Pophale) SiO2 
 PCOD9465466
Probable space group: P N M A
;
_chemical_formula_sum "Si O2"
_cell_formula_units_Z 48
_cell_length_a 14.392359
_cell_length_b 17.037854
_cell_length_c 7.826496
_cell_angle_alpha 90.000000
_cell_angle_beta 90.000000
_cell_angle_gamma 90.000000
_cell_volume 1919.173523
_symmetry_space_group_name_H-M "P N M A"
_symmetry_group_IT_number 62
_symmetry_cell_setting 'orthorhombic'
loop_
_space_group_symop_operation_xyz
x,y,z
1/2-x,-y,1/2+z
1/2+x,1/2-y,1/2-z
-x,1/2+y,-z
-x,-y,-z
1/2+x,y,1/2-z
1/2-x,1/2+y,1/2+z
x,1/2-y,z
loop_
_atom_site_type_symbol
_atom_site_label
_atom_site_fract_x
_atom_site_fract_y
_atom_site_fract_z
Si Si1 0.362207 0.998076 0.128376
Si Si2 0.423171 0.998347 0.752570
Si Si3 0.570719 0.663781 0.403957
Si Si4 0.384602 0.836079 0.193983
Si Si5 0.392469 0.664977 0.808030
Si Si6 0.679970 0.666311 0.743113
O O1 0.322257 0.082793 0.167247
O O2 0.468457 0.997291 0.196659
O O3 0.324691 0.915749 0.203709
O O4 0.364173 0.994100 0.925158
O O5 0.396355 0.076760 0.654243
O O6 0.411250 0.909308 0.686961
O O7 0.606889 0.750000 0.338736
O O8 0.465090 0.663710 0.335410
O O9 0.600133 0.664918 0.601069
O O10 0.339075 0.750000 0.200878
O O11 0.432360 0.842102 0.002267
O O12 0.420112 0.750000 0.737240
O O13 0.281961 0.668618 0.839176
O O14 0.670185 0.750000 0.840501
#
# Coordination Sequence:
#
# PCOD9465466 Si02
#       6
#     8   8   8   8   8   8
#     4   9  18  32  50  77 106 134 170 210 256 308
#     4   9  18  31  52  77 100 133 175 213 252 304
#     4   9  18  33  53  78 105 136 173 213 260 312
#     4   8  15  30  52  74  99 132 170 208 249 306
#     4   9  18  33  51  73 103 138 173 212 261 313
#     4  10  21  34  50  75 107 139 171 212 264 312
#
# _framework density 25.010767999999999
#
# number of rings (size 3 to 8) (size 9 to 14) (size 15 to 20)
#    0.000    3.000    0.000    1.000    0.000    6.667 
#    0.000    1.667    0.000    3.000    0.000    4.667 
#    0.000    0.000    0.000    0.000    0.000    0.000 
#
# Total GULP energy -267426.554240 kJ/mol
# GULP energy per Si atom -5571.386547 kJ/mol
# Density = 2.495384 g / cm^3
# Si number density = 25.010768 Si / 1000 Ang^3
#
#
#
# Elastic Constant Matrix: (Units=GPa)
#
#
# Indices 1 2 3 4 5 6 
#
# 1 55.0612 21.7785 3.4117 0.0000 0.0000 0.0000
# 2 21.7785 307.0282 41.9609 0.0000 0.0000 0.0000
# 3 3.4117 41.9609 24.9159 0.0000 0.0000 0.0000
# 4 0.0000 0.0000 0.0000 37.5527 0.0000 0.0000
# 5 0.0000 0.0000 0.0000 0.0000 -0.4638 0.0000
# 6 0.0000 0.0000 0.0000 0.0000 0.0000 21.3893
#
#
#
# Elastic Compliance Matrix: (Units=1/GPa)
#
#
# Indices 1 2 3 4 5 6 
#
# 1 0.018689 -0.001268 -0.000424 0.000000 0.000000 0.000000
# 2 -0.001268 0.004317 -0.007096 0.000000 0.000000 0.000000
# 3 -0.000424 -0.007096 0.052144 0.000000 0.000000 0.000000
# 4 0.000000 0.000000 0.000000 0.026629 0.000000 0.000000
# 5 0.000000 0.000000 0.000000 0.000000 -2.156224 0.000000
# 6 0.000000 0.000000 0.000000 0.000000 0.000000 0.046752
#
#
# Mechanical properties :
#
#
# Convention : Reuss Voigt Hill
#
# Bulk Modulus (GPa) = 17.36902 57.92307 37.64605
# Shear Modulus (GPa) = -2.53688 33.01926 15.24119
#
# Velocity S-wave (km/s) = -1.00822 3.63740 2.47125
# Velocity P-wave (km/s) = 2.36735 6.39143 4.81948
#
# Compressibility (1/GPa) = 0.05757377
#
# Stress axis : x y z
#
# Youngs Moduli (GPa) = 53.50652 231.65331 19.17769
#
# Poissons Ratio (x) = 0.29368 0.00813
# Poissons Ratio (y) = 0.06783 0.13609
# Poissons Ratio (z) = 0.02269 1.64389
#
# Static dielectric constant tensor:
#      x y z
#    x 1.992710 0.000000 0.000000 
#    y 0.000000 2.142080 0.000000 
#    z 0.000000 0.000000 1.978730 
# 
# From -- ./inp_files/8585.got.cif
#   From: 2010.05.17/outbox.cif.g08.bks.cpg/sg62_5_cif.got.tgz:8585.got - 2010.06.03 15:25:27.
