data_PCOD9465695
_publ_section_title
;
Structure prediction by ZEFSAII (Michael W. Deem and Ramdas Pophale) SiO2 
 PCOD9465695
Probable space group: P N M A
;
_chemical_formula_sum "Si O2"
_cell_formula_units_Z 64
_cell_length_a 12.959820
_cell_length_b 9.359339
_cell_length_c 29.190701
_cell_angle_alpha 90.000000
_cell_angle_beta 90.000000
_cell_angle_gamma 90.000000
_cell_volume 3540.696258
_symmetry_space_group_name_H-M "P N M A"
_symmetry_group_IT_number 62
_symmetry_cell_setting 'orthorhombic'
loop_
_space_group_symop_operation_xyz
x,y,z
1/2-x,-y,1/2+z
1/2+x,1/2-y,1/2-z
-x,1/2+y,-z
-x,-y,-z
1/2+x,y,1/2-z
1/2-x,1/2+y,1/2+z
x,1/2-y,z
loop_
_atom_site_type_symbol
_atom_site_label
_atom_site_fract_x
_atom_site_fract_y
_atom_site_fract_z
Si Si1 0.521944 0.080454 0.360084
Si Si2 0.389594 0.420285 0.054633
Si Si3 0.782329 0.089512 0.706119
Si Si4 0.630832 0.091943 0.788459
Si Si5 0.732953 0.581224 0.377832
Si Si6 0.038601 0.415954 0.248484
Si Si7 0.291599 0.079308 0.381789
Si Si8 0.376371 0.580241 0.958484
O O1 0.540116 0.250000 0.367732
O O2 0.510937 0.060837 0.304966
O O3 0.412995 0.040128 0.383550
O O4 0.620502 0.991374 0.376863
O O5 0.371441 0.250000 0.055662
O O6 0.311698 0.501546 0.088209
O O7 0.511678 0.444537 0.065274
O O8 0.373600 0.484750 0.003905
O O9 0.813805 0.250000 0.693844
O O10 0.683714 0.097457 0.738966
O O11 0.866686 0.013255 0.737234
O O12 0.757678 0.999588 0.661384
O O13 0.583811 0.250000 0.797199
O O14 0.715531 0.068438 0.827515
O O15 0.550360 0.964940 0.783395
O O16 0.725480 0.750000 0.388660
O O17 0.063155 0.250000 0.254025
O O18 0.288348 0.250000 0.373991
O O19 0.220213 0.048969 0.425630
O O20 0.373679 0.750000 0.970380
#
# Coordination Sequence:
#
# PCOD9465695 Si02
#       8
#     8   8   8   8   8   8   8   8
#     4  10  21  37  57  82 115 153 194 241 287 336
#     4  10  21  39  63  91 119 146 185 234 290 351
#     4  11  22  36  54  80 116 155 196 237 283 338
#     4  10  22  37  53  78 113 153 194 238 281 332
#     4  11  23  39  59  84 117 155 197 239 287 345
#     4  11  22  35  54  78 111 153 196 242 287 335
#     4  10  21  39  60  87 117 150 196 241 289 344
#     4   9  20  40  65  89 116 148 182 232 293 349
#
# _framework density 18.075541999999999
#
# number of rings (size 3 to 8) (size 9 to 14) (size 15 to 20)
#    0.000    1.750    2.500    1.500    1.750    3.500 
#    0.000    0.625    0.000    0.000    0.000    0.000 
#    0.000    0.000    0.000    0.000    0.000    0.000 
#
# Total GULP energy -357018.245729 kJ/mol
# GULP energy per Si atom -5578.410090 kJ/mol
# Density = 1.803440 g / cm^3
# Si number density = 18.075542 Si / 1000 Ang^3
#
#
#
# Elastic Constant Matrix: (Units=GPa)
#
#
# Indices 1 2 3 4 5 6 
#
# 1 103.9422 60.2760 44.6847 0.0000 0.0000 0.0000
# 2 60.2760 65.6696 37.6802 0.0000 0.0000 0.0000
# 3 44.6847 37.6802 54.5211 0.0000 0.0000 0.0000
# 4 0.0000 0.0000 0.0000 12.9837 0.0000 0.0000
# 5 0.0000 0.0000 0.0000 0.0000 34.3580 0.0000
# 6 0.0000 0.0000 0.0000 0.0000 0.0000 26.9366
#
#
#
# Elastic Compliance Matrix: (Units=1/GPa)
#
#
# Indices 1 2 3 4 5 6 
#
# 1 0.021970 -0.016296 -0.006744 0.000000 0.000000 0.000000
# 2 -0.016296 0.037322 -0.012438 0.000000 0.000000 0.000000
# 3 -0.006744 -0.012438 0.032465 0.000000 0.000000 0.000000
# 4 0.000000 0.000000 0.000000 0.077019 0.000000 0.000000
# 5 0.000000 0.000000 0.000000 0.000000 0.029105 0.000000
# 6 0.000000 0.000000 0.000000 0.000000 0.000000 0.037124
#
#
# Mechanical properties :
#
#
# Convention : Reuss Voigt Hill
#
# Bulk Modulus (GPa) = 48.07390 56.60164 52.33777
# Shear Modulus (GPa) = 15.97984 20.28845 18.13414
#
# Velocity S-wave (km/s) = 2.97654 3.35390 3.17084
# Velocity P-wave (km/s) = 6.20217 6.81029 6.51333
#
# Compressibility (1/GPa) = 0.02080131
#
# Stress axis : x y z
#
# Youngs Moduli (GPa) = 45.51657 26.79397 30.80282
#
# Poissons Ratio (x) = 0.43663 0.20773
# Poissons Ratio (y) = 0.74174 0.38311
# Poissons Ratio (z) = 0.30696 0.33325
#
# Static dielectric constant tensor:
#      x y z
#    x 1.646880 0.000000 0.000000 
#    y 0.000000 1.617860 0.000000 
#    z 0.000000 0.000000 1.590630 
# 
# From -- ./inp_files/32509.got.cif
#   From: 2010.05.17/outbox.cif.g08.bks.cpg/sg62_17_cif.got.tgz:32509.got - 2010.06.03 15:25:27.
