data_PCOD9465415
_publ_section_title
;
Structure prediction by ZEFSAII (Michael W. Deem and Ramdas Pophale) SiO2 
 PCOD9465415
Probable space group: P N M A
;
_chemical_formula_sum "Si O2"
_cell_formula_units_Z 60
_cell_length_a 8.795876
_cell_length_b 27.055633
_cell_length_c 11.571803
_cell_angle_alpha 90.000000
_cell_angle_beta 90.000000
_cell_angle_gamma 90.000000
_cell_volume 2753.834453
_symmetry_space_group_name_H-M "P N M A"
_symmetry_group_IT_number 62
_symmetry_cell_setting 'orthorhombic'
loop_
_space_group_symop_operation_xyz
x,y,z
1/2-x,-y,1/2+z
1/2+x,1/2-y,1/2-z
-x,1/2+y,-z
-x,-y,-z
1/2+x,y,1/2-z
1/2-x,1/2+y,1/2+z
x,1/2-y,z
loop_
_atom_site_type_symbol
_atom_site_label
_atom_site_fract_x
_atom_site_fract_y
_atom_site_fract_z
Si Si1 0.139276 0.677443 0.416372
Si Si2 0.096651 0.567229 0.504726
Si Si3 0.140339 0.344492 0.723453
Si Si4 0.242071 0.032124 0.476058
Si Si5 0.290110 0.095453 0.246947
Si Si6 0.787907 0.750000 0.908198
Si Si7 0.976689 0.847519 0.868161
Si Si8 0.572886 0.895106 0.392734
O O1 0.133086 0.619684 0.448954
O O2 0.274230 0.685874 0.324025
O O3 0.178270 0.707510 0.529955
O O4 0.979423 0.686279 0.352210
O O5 0.217062 0.526096 0.465133
O O6 0.113705 0.572516 0.642642
O O7 0.923545 0.551234 0.479820
O O8 0.273315 0.367435 0.646796
O O9 0.044159 0.387600 0.788225
O O10 0.272747 0.058190 0.353559
O O11 0.372662 0.051318 0.563082
O O12 0.367417 0.144837 0.298703
O O13 0.133739 0.112379 0.190104
O O14 0.904456 0.793917 0.864857
O O15 0.006136 0.865200 0.998692
#
# Coordination Sequence:
#
# PCOD9465415 Si02
#       8
#     8   8   8   8   8   4   8   8
#     4  11  23  42  65  96 137 178 232 295 346 412
#     4  11  21  43  66 100 140 180 230 293 342 423
#     4  10  21  39  69  92 135 179 218 287 352 409
#     4  10  23  39  67 102 138 182 233 277 356 420
#     4  11  22  44  70  97 140 183 219 290 357 402
#     4  12  24  44  70  94 132 182 238 288 342 406
#     4  11  24  43  70  98 137 176 235 291 336 415
#     4  10  20  42  63 100 137 178 224 286 338 418
#
# _framework density 21.787801999999999
#
# number of rings (size 3 to 8) (size 9 to 14) (size 15 to 20)
#    0.000    1.333    5.333    0.000    0.000    3.200 
#    0.000    6.667    0.000    0.000    0.000    0.000 
#    0.000    0.000    0.000    0.000    0.000    0.000 
#
# Total GULP energy -334301.676839 kJ/mol
# GULP energy per Si atom -5571.694614 kJ/mol
# Density = 2.173821 g / cm^3
# Si number density = 21.787802 Si / 1000 Ang^3
#
#
#
# Elastic Constant Matrix: (Units=GPa)
#
#
# Indices 1 2 3 4 5 6 
#
# 1 77.7397 4.0839 25.3524 0.0000 0.0000 0.0000
# 2 4.0839 100.6631 9.9313 0.0000 0.0000 0.0000
# 3 25.3524 9.9313 77.3653 0.0000 0.0000 0.0000
# 4 0.0000 0.0000 0.0000 0.6322 0.0000 0.0000
# 5 0.0000 0.0000 0.0000 0.0000 40.9023 0.0000
# 6 0.0000 0.0000 0.0000 0.0000 0.0000 47.5321
#
#
#
# Elastic Compliance Matrix: (Units=1/GPa)
#
#
# Indices 1 2 3 4 5 6 
#
# 1 0.014404 -0.000120 -0.004705 0.000000 0.000000 0.000000
# 2 -0.000120 0.010063 -0.001252 0.000000 0.000000 0.000000
# 3 -0.004705 -0.001252 0.014628 0.000000 0.000000 0.000000
# 4 0.000000 0.000000 0.000000 1.581766 0.000000 0.000000
# 5 0.000000 0.000000 0.000000 0.000000 0.024448 0.000000
# 6 0.000000 0.000000 0.000000 0.000000 0.000000 0.021038
#
#
# Mechanical properties :
#
#
# Convention : Reuss Voigt Hill
#
# Bulk Modulus (GPa) = 37.11920 37.16704 37.14312
# Shear Modulus (GPa) = 2.96299 32.24002 17.60151
#
# Velocity S-wave (km/s) = 1.16743 3.85090 2.84537
# Velocity P-wave (km/s) = 4.34636 6.07192 5.28011
#
# Compressibility (1/GPa) = 0.02694024
#
# Stress axis : x y z
#
# Youngs Moduli (GPa) = 69.42485 99.37835 68.36114
#
# Poissons Ratio (x) = 0.01195 0.32162
# Poissons Ratio (y) = 0.00835 0.08561
# Poissons Ratio (z) = 0.32663 0.12445
#
# Static dielectric constant tensor:
#      x y z
#    x 1.849090 0.000000 0.000000 
#    y 0.000000 1.777200 0.000000 
#    z 0.000000 0.000000 1.816320 
# 
# From -- ./inp_files/11439.got.cif
#   From: 2010.05.17/outbox.cif.g08.bks.cpg/sg62_6_cif.got.tgz:11439.got - 2010.06.03 15:25:27.
