data_PCOD9465893
_publ_section_title
;
Structure prediction by ZEFSAII (Michael W. Deem and Ramdas Pophale) SiO2 
 PCOD9465893
Probable space group: P N M A
;
_chemical_formula_sum "Si O2"
_cell_formula_units_Z 56
_cell_length_a 19.106566
_cell_length_b 9.466815
_cell_length_c 13.940243
_cell_angle_alpha 90.000000
_cell_angle_beta 90.000000
_cell_angle_gamma 90.000000
_cell_volume 2521.487812
_symmetry_space_group_name_H-M "P N M A"
_symmetry_group_IT_number 62
_symmetry_cell_setting 'orthorhombic'
loop_
_space_group_symop_operation_xyz
x,y,z
1/2-x,-y,1/2+z
1/2+x,1/2-y,1/2-z
-x,1/2+y,-z
-x,-y,-z
1/2+x,y,1/2-z
1/2-x,1/2+y,1/2+z
x,1/2-y,z
loop_
_atom_site_type_symbol
_atom_site_label
_atom_site_fract_x
_atom_site_fract_y
_atom_site_fract_z
Si Si1 0.347333 0.585123 0.756074
Si Si2 0.859148 0.082558 0.942793
Si Si3 0.219319 0.091665 0.779238
Si Si4 0.300097 0.588877 0.048431
Si Si5 0.933764 0.412889 0.462493
Si Si6 0.998927 0.090386 0.260873
Si Si7 0.926269 0.913603 0.105813
O O1 0.334504 0.750000 0.737634
O O2 0.357353 0.500109 0.657134
O O3 0.279601 0.518816 0.805093
O O4 0.423344 0.571587 0.804211
O O5 0.870509 0.250000 0.930407
O O6 0.779804 0.064008 0.983094
O O7 0.914310 0.010718 0.013458
O O8 0.247560 0.250000 0.794856
O O9 0.203562 0.079773 0.665184
O O10 0.147499 0.078871 0.836633
O O11 0.319932 0.750000 0.022861
O O12 0.359463 0.482700 0.014139
O O13 0.937396 0.250000 0.493838
O O14 0.943862 0.416912 0.346937
O O15 0.000000 0.500000 0.500000
O O16 0.996546 0.250000 0.219866
O O17 0.982037 0.978066 0.179275
O O18 0.940136 0.750000 0.082038
#
# Coordination Sequence:
#
# PCOD9465893 Si02
#       7
#     8   8   8   8   8   8   8
#     4  10  21  38  60  85 117 156 201 246 293 355
#     4  10  22  39  59  86 120 155 194 245 299 348
#     4   9  19  36  58  84 114 149 192 243 296 351
#     4   9  18  37  59  80 111 148 188 236 293 347
#     4  11  23  38  59  86 118 155 197 243 296 356
#     4  10  23  41  59  85 119 157 199 243 299 356
#     4  11  22  37  61  90 118 154 203 245 292 358
#
# _framework density 22.209111
#
# number of rings (size 3 to 8) (size 9 to 14) (size 15 to 20)
#    0.000    2.000    1.429    2.571    0.000    7.429 
#    0.000    4.286    0.000    0.000    0.000    0.000 
#    0.000    0.000    0.000    0.000    0.000    0.000 
#
# Total GULP energy -313107.400215 kJ/mol
# GULP energy per Si atom -5591.203575 kJ/mol
# Density = 2.215856 g / cm^3
# Si number density = 22.209111 Si / 1000 Ang^3
#
#
#
# Elastic Constant Matrix: (Units=GPa)
#
#
# Indices 1 2 3 4 5 6 
#
# 1 101.3901 71.5697 -2.4374 0.0000 0.0000 0.0000
# 2 71.5697 143.7830 17.7906 0.0000 0.0000 0.0000
# 3 -2.4374 17.7906 41.5626 0.0000 0.0000 0.0000
# 4 0.0000 0.0000 0.0000 19.6697 0.0000 0.0000
# 5 0.0000 0.0000 0.0000 0.0000 35.3214 0.0000
# 6 0.0000 0.0000 0.0000 0.0000 0.0000 38.5085
#
#
#
# Elastic Compliance Matrix: (Units=1/GPa)
#
#
# Indices 1 2 3 4 5 6 
#
# 1 0.015993 -0.008529 0.004589 0.000000 0.000000 0.000000
# 2 -0.008529 0.011892 -0.005590 0.000000 0.000000 0.000000
# 3 0.004589 -0.005590 0.026722 0.000000 0.000000 0.000000
# 4 0.000000 0.000000 0.000000 0.050840 0.000000 0.000000
# 5 0.000000 0.000000 0.000000 0.000000 0.028311 0.000000
# 6 0.000000 0.000000 0.000000 0.000000 0.000000 0.025968
#
#
# Mechanical properties :
#
#
# Convention : Reuss Voigt Hill
#
# Bulk Modulus (GPa) = 28.13223 51.17574 39.65398
# Shear Modulus (GPa) = 26.22788 32.02076 29.12432
#
# Velocity S-wave (km/s) = 3.44023 3.80120 3.62521
# Velocity P-wave (km/s) = 5.33617 6.50832 5.95117
#
# Compressibility (1/GPa) = 0.03554642
#
# Stress axis : x y z
#
# Youngs Moduli (GPa) = 62.52545 84.09077 37.42218
#
# Poissons Ratio (x) = 0.71719 -0.17171
# Poissons Ratio (y) = 0.53326 0.20921
# Poissons Ratio (z) = -0.28690 0.47010
#
# Static dielectric constant tensor:
#      x y z
#    x 1.817920 0.000000 0.000000 
#    y 0.000000 1.772320 0.000000 
#    z 0.000000 0.000000 1.832700 
# 
# From -- ./inp_files/20418.got.cif
#   From: 2010.05.17/outbox.cif.g08.bks.cpg/sg62_11_cif.got.tgz:20418.got - 2010.06.03 15:25:27.
