data_PCOD9465092
_publ_section_title
;
Structure prediction by ZEFSAII (Michael W. Deem and Ramdas Pophale) SiO2 
 PCOD9465092
Probable space group: P N M A
;
_chemical_formula_sum "Si O2"
_cell_formula_units_Z 32
_cell_length_a 9.233623
_cell_length_b 11.800671
_cell_length_c 14.849474
_cell_angle_alpha 90.000000
_cell_angle_beta 90.000000
_cell_angle_gamma 90.000000
_cell_volume 1618.042451
_symmetry_space_group_name_H-M "P N M A"
_symmetry_group_IT_number 62
_symmetry_cell_setting 'orthorhombic'
loop_
_space_group_symop_operation_xyz
x,y,z
1/2-x,-y,1/2+z
1/2+x,1/2-y,1/2-z
-x,1/2+y,-z
-x,-y,-z
1/2+x,y,1/2-z
1/2-x,1/2+y,1/2+z
x,1/2-y,z
loop_
_atom_site_type_symbol
_atom_site_label
_atom_site_fract_x
_atom_site_fract_y
_atom_site_fract_z
Si Si1 0.846985 0.250000 0.730654
Si Si2 0.869968 0.995711 0.665339
Si Si3 0.838279 0.544604 0.014820
Si Si4 0.187429 0.614028 0.671698
Si Si5 0.576596 0.250000 0.640175
O O1 0.891739 0.131281 0.683308
O O2 0.673087 0.250000 0.730258
O O3 0.912560 0.250000 0.829965
O O4 0.780937 0.975151 0.572539
O O5 0.772542 0.946160 0.746523
O O6 0.024717 0.934524 0.666610
O O7 0.873107 0.645785 0.082499
O O8 0.769427 0.583628 0.921089
O O9 0.000000 0.500000 0.000000
O O10 0.185898 0.750000 0.683920
#
# Coordination Sequence:
#
# PCOD9465092 Si02
#       5
#     4   8   8   8   4
#     4  10  20  38  66  92 124 160 230 272 332 386
#     4  11  24  42  70  97 136 180 227 284 341 405
#     4  11  23  42  64  95 134 172 228 278 338 404
#     4  12  24  44  66  99 140 181 224 283 342 417
#     4  10  20  38  60  92 122 166 206 286 318 396
#
# _framework density 19.776985
#
# number of rings (size 3 to 8) (size 9 to 14) (size 15 to 20)
#    0.000    1.000    1.250    7.500    0.000    0.000 
#    4.500    0.000    0.000    0.000    0.000    0.000 
#    0.000    0.000    0.000    0.000    0.000    0.000 
#
# Total GULP energy -178525.515367 kJ/mol
# GULP energy per Si atom -5578.922355 kJ/mol
# Density = 1.973197 g / cm^3
# Si number density = 19.776985 Si / 1000 Ang^3
#
#
#
# Elastic Constant Matrix: (Units=GPa)
#
#
# Indices 1 2 3 4 5 6 
#
# 1 152.2483 65.0090 38.4485 0.0000 0.0000 0.0000
# 2 65.0090 107.9417 33.3735 0.0000 0.0000 0.0000
# 3 38.4485 33.3735 74.7211 0.0000 0.0000 0.0000
# 4 0.0000 0.0000 0.0000 18.9103 0.0000 0.0000
# 5 0.0000 0.0000 0.0000 0.0000 56.6391 0.0000
# 6 0.0000 0.0000 0.0000 0.0000 0.0000 32.7716
#
#
#
# Elastic Compliance Matrix: (Units=1/GPa)
#
#
# Indices 1 2 3 4 5 6 
#
# 1 0.009271 -0.004767 -0.002641 0.000000 0.000000 0.000000
# 2 -0.004767 0.013199 -0.003443 0.000000 0.000000 0.000000
# 3 -0.002641 -0.003443 0.016280 0.000000 0.000000 0.000000
# 4 0.000000 0.000000 0.000000 0.052881 0.000000 0.000000
# 5 0.000000 0.000000 0.000000 0.000000 0.017656 0.000000
# 6 0.000000 0.000000 0.000000 0.000000 0.000000 0.030514
#
#
# Mechanical properties :
#
#
# Convention : Reuss Voigt Hill
#
# Bulk Modulus (GPa) = 58.65581 67.61924 63.13753
# Shear Modulus (GPa) = 29.90696 34.86955 32.38826
#
# Velocity S-wave (km/s) = 3.89293 4.20353 4.05121
# Velocity P-wave (km/s) = 7.06609 7.60425 7.34010
#
# Compressibility (1/GPa) = 0.01704861
#
# Stress axis : x y z
#
# Youngs Moduli (GPa) = 107.86819 75.76074 61.42569
#
# Poissons Ratio (x) = 0.36113 0.16224
# Poissons Ratio (y) = 0.51417 0.21147
# Poissons Ratio (z) = 0.28491 0.26082
#
# Static dielectric constant tensor:
#      x y z
#    x 1.719590 0.000000 0.000000 
#    y 0.000000 1.682840 0.000000 
#    z 0.000000 0.000000 1.706300 
# 
# From -- ./inp_files/16462.got.cif
#   From: 2010.05.17/outbox.cif.g08.bks.cpg/sg62_9_cif.got.tgz:16462.got - 2010.06.03 15:25:27.
