data_PCOD9465598
_publ_section_title
;
Structure prediction by ZEFSAII (Michael W. Deem and Ramdas Pophale) SiO2 
 PCOD9465598
Probable space group: P N M A
;
_chemical_formula_sum "Si O2"
_cell_formula_units_Z 64
_cell_length_a 14.939910
_cell_length_b 8.066082
_cell_length_c 25.484214
_cell_angle_alpha 90.000000
_cell_angle_beta 90.000000
_cell_angle_gamma 90.000000
_cell_volume 3071.014432
_symmetry_space_group_name_H-M "P N M A"
_symmetry_group_IT_number 62
_symmetry_cell_setting 'orthorhombic'
loop_
_space_group_symop_operation_xyz
x,y,z
1/2-x,-y,1/2+z
1/2+x,1/2-y,1/2-z
-x,1/2+y,-z
-x,-y,-z
1/2+x,y,1/2-z
1/2-x,1/2+y,1/2+z
x,1/2-y,z
loop_
_atom_site_type_symbol
_atom_site_label
_atom_site_fract_x
_atom_site_fract_y
_atom_site_fract_z
Si Si1 0.798467 0.049193 0.321882
Si Si2 0.901210 0.946306 0.517264
Si Si3 0.394433 0.550820 0.369086
Si Si4 0.650566 0.450639 0.237046
Si Si5 0.452781 0.049565 0.553774
Si Si6 0.749808 0.051983 0.938311
Si Si7 0.197548 0.552494 0.381129
Si Si8 0.949554 0.049894 0.245202
O O1 0.796450 0.250000 0.324863
O O2 0.721399 0.995454 0.281013
O O3 0.891817 0.997610 0.295413
O O4 0.782606 0.980427 0.379379
O O5 0.899834 0.750000 0.511511
O O6 0.822890 0.016896 0.479398
O O7 0.873072 0.987098 0.576691
O O8 0.000000 0.000000 0.500000
O O9 0.393696 0.750000 0.373742
O O10 0.481805 0.488155 0.399850
O O11 0.299208 0.489015 0.391403
O O12 0.402759 0.506766 0.308158
O O13 0.651357 0.250000 0.236829
O O14 0.674575 0.507089 0.178612
O O15 0.551280 0.509170 0.251824
O O16 0.449321 0.250000 0.557301
O O17 0.351053 0.985688 0.555884
O O18 0.500000 0.000000 0.500000
O O19 0.755055 0.250000 0.946606
O O20 0.198469 0.750000 0.385802
O O21 0.950113 0.250000 0.244594
#
# Coordination Sequence:
#
# PCOD9465598 Si02
#       8
#     8   8   8   8   8   8   8   8
#     4  10  21  37  58  87 121 156 196 241 293 350
#     4  11  25  44  64  88 118 158 205 254 303 356
#     4  10  21  37  59  89 123 155 192 241 297 356
#     4  10  21  38  59  87 121 158 199 246 298 353
#     4  10  21  38  60  88 119 152 192 238 293 355
#     4  10  23  41  61  87 120 156 198 247 300 357
#     4  11  23  39  61  90 120 156 201 247 298 358
#     4  10  21  36  57  85 115 152 198 241 291 353
#
# _framework density 20.840019000000002
#
# number of rings (size 3 to 8) (size 9 to 14) (size 15 to 20)
#    0.000    1.750    1.250    2.250    1.750    4.000 
#    0.000    0.000    0.000    0.000    0.000    0.000 
#    0.000    0.000    0.000    0.000    0.000    0.000 
#
# Total GULP energy -357645.112926 kJ/mol
# GULP energy per Si atom -5588.204889 kJ/mol
# Density = 2.079259 g / cm^3
# Si number density = 20.840019 Si / 1000 Ang^3
#
#
#
# Elastic Constant Matrix: (Units=GPa)
#
#
# Indices 1 2 3 4 5 6 
#
# 1 64.7689 7.2125 -9.1661 0.0000 0.0000 0.0000
# 2 7.2125 10.7444 -11.2762 0.0000 0.0000 0.0000
# 3 -9.1661 -11.2762 65.4504 0.0000 0.0000 0.0000
# 4 0.0000 0.0000 0.0000 33.3042 0.0000 0.0000
# 5 0.0000 0.0000 0.0000 0.0000 40.9909 0.0000
# 6 0.0000 0.0000 0.0000 0.0000 0.0000 13.0036
#
#
#
# Elastic Compliance Matrix: (Units=1/GPa)
#
#
# Indices 1 2 3 4 5 6 
#
# 1 0.016700 -0.010689 0.000497 0.000000 0.000000 0.000000
# 2 -0.010689 0.120455 0.019256 0.000000 0.000000 0.000000
# 3 0.000497 0.019256 0.018666 0.000000 0.000000 0.000000
# 4 0.000000 0.000000 0.000000 0.030026 0.000000 0.000000
# 5 0.000000 0.000000 0.000000 0.000000 0.024396 0.000000
# 6 0.000000 0.000000 0.000000 0.000000 0.000000 0.076902
#
#
# Mechanical properties :
#
#
# Convention : Reuss Voigt Hill
#
# Bulk Modulus (GPa) = 5.74875 12.72269 9.23572
# Shear Modulus (GPa) = 15.29054 27.73929 21.51491
#
# Velocity S-wave (km/s) = 2.71165 3.65233 3.21656
# Velocity P-wave (km/s) = 3.54521 4.88919 4.27040
#
# Compressibility (1/GPa) = 0.17395074
#
# Stress axis : x y z
#
# Youngs Moduli (GPa) = 59.87974 8.30183 53.57358
#
# Poissons Ratio (x) = 0.08873 -0.02664
# Poissons Ratio (y) = 0.64003 -1.03161
# Poissons Ratio (z) = -0.02978 -0.15986
#
# Static dielectric constant tensor:
#      x y z
#    x 1.703360 0.000000 0.000000 
#    y 0.000000 1.751140 0.000000 
#    z 0.000000 0.000000 1.704780 
# 
# From -- ./inp_files/29883.got.cif
#   From: 2010.05.17/outbox.cif.g08.bks.cpg/sg62_15_cif.got.tgz:29883.got - 2010.06.03 15:25:27.
