data_PCOD9465036
_publ_section_title
;
Structure prediction by ZEFSAII (Michael W. Deem and Ramdas Pophale) SiO2 
 PCOD9465036
Probable space group: P N M A
;
_chemical_formula_sum "Si O2"
_cell_formula_units_Z 64
_cell_length_a 14.689545
_cell_length_b 8.929713
_cell_length_c 24.773514
_cell_angle_alpha 90.000000
_cell_angle_beta 90.000000
_cell_angle_gamma 90.000000
_cell_volume 3249.626580
_symmetry_space_group_name_H-M "P N M A"
_symmetry_group_IT_number 62
_symmetry_cell_setting 'orthorhombic'
loop_
_space_group_symop_operation_xyz
x,y,z
1/2-x,-y,1/2+z
1/2+x,1/2-y,1/2-z
-x,1/2+y,-z
-x,-y,-z
1/2+x,y,1/2-z
1/2-x,1/2+y,1/2+z
x,1/2-y,z
loop_
_atom_site_type_symbol
_atom_site_label
_atom_site_fract_x
_atom_site_fract_y
_atom_site_fract_z
Si Si1 0.940412 0.575608 0.867609
Si Si2 0.134752 0.928100 0.238494
Si Si3 0.829243 0.425210 0.270263
Si Si4 0.092487 0.572439 0.023127
Si Si5 0.984753 0.930300 0.668174
Si Si6 0.047966 0.926576 0.448510
Si Si7 0.650736 0.918006 0.643422
Si Si8 0.736991 0.421497 0.552097
O O1 0.914332 0.750000 0.862477
O O2 0.921983 0.490327 0.812173
O O3 0.891952 0.496746 0.917664
O O4 0.048460 0.570787 0.878761
O O5 0.128321 0.750000 0.243027
O O6 0.237887 0.978745 0.225738
O O7 0.093132 0.002986 0.292470
O O8 0.808305 0.250000 0.281996
O O9 0.856063 0.434953 0.207373
O O10 0.916284 0.468943 0.306117
O O11 0.081428 0.750000 0.026026
O O12 0.175803 0.527796 0.984790
O O13 0.000000 0.500000 0.000000
O O14 0.976691 0.750000 0.668175
O O15 0.976894 0.994164 0.607940
O O16 0.025899 0.750000 0.445048
O O17 0.156420 0.940575 0.456519
O O18 0.000000 0.000000 0.500000
O O19 0.686081 0.750000 0.632291
O O20 0.712968 0.037317 0.613728
O O21 0.711152 0.250000 0.540805
#
# Coordination Sequence:
#
# PCOD9465036 Si02
#       8
#     8   8   8   8   8   8   8   8
#     4  11  22  40  63  90 126 168 211 259 315 377
#     4  12  25  40  62  97 135 171 212 262 320 382
#     4  10  22  41  65  93 127 171 218 261 315 380
#     4  12  24  39  61  92 128 167 210 259 317 380
#     4  11  23  44  71  97 129 171 217 269 324 381
#     4  11  26  47  70  98 128 167 217 270 325 380
#     4  10  20  37  63  92 123 164 214 262 315 375
#     4  11  24  41  64  94 129 170 217 266 320 384
#
# _framework density 19.694571
#
# number of rings (size 3 to 8) (size 9 to 14) (size 15 to 20)
#    0.000    1.000    2.500    4.500    0.000    7.000 
#    0.000    1.250    0.000    0.000    0.000    0.000 
#    0.000    0.000    0.000    0.000    0.000    0.000 
#
# Total GULP energy -357892.328706 kJ/mol
# GULP energy per Si atom -5592.067636 kJ/mol
# Density = 1.964975 g / cm^3
# Si number density = 19.694571 Si / 1000 Ang^3
#
#
#
# Elastic Constant Matrix: (Units=GPa)
#
#
# Indices 1 2 3 4 5 6 
#
# 1 67.7912 57.9209 23.5727 0.0000 0.0000 0.0000
# 2 57.9209 132.3977 52.2441 0.0000 0.0000 0.0000
# 3 23.5727 52.2441 109.8035 0.0000 0.0000 0.0000
# 4 0.0000 0.0000 0.0000 37.0614 0.0000 0.0000
# 5 0.0000 0.0000 0.0000 0.0000 29.9003 0.0000
# 6 0.0000 0.0000 0.0000 0.0000 0.0000 26.3944
#
#
#
# Elastic Compliance Matrix: (Units=1/GPa)
#
#
# Indices 1 2 3 4 5 6 
#
# 1 0.023559 -0.010232 -0.000189 0.000000 0.000000 0.000000
# 2 -0.010232 0.013743 -0.004342 0.000000 0.000000 0.000000
# 3 -0.000189 -0.004342 0.011214 0.000000 0.000000 0.000000
# 4 0.000000 0.000000 0.000000 0.026982 0.000000 0.000000
# 5 0.000000 0.000000 0.000000 0.000000 0.033444 0.000000
# 6 0.000000 0.000000 0.000000 0.000000 0.000000 0.037887
#
#
# Mechanical properties :
#
#
# Convention : Reuss Voigt Hill
#
# Bulk Modulus (GPa) = 52.66258 64.16308 58.41283
# Shear Modulus (GPa) = 27.36949 30.42155 28.89552
#
# Velocity S-wave (km/s) = 3.73191 3.93449 3.83454
# Velocity P-wave (km/s) = 6.73552 7.30000 7.02344
#
# Compressibility (1/GPa) = 0.01898881
#
# Stress axis : x y z
#
# Youngs Moduli (GPa) = 42.44645 72.76672 89.17591
#
# Poissons Ratio (x) = 0.74453 0.01689
# Poissons Ratio (y) = 0.43430 0.38721
# Poissons Ratio (z) = 0.00804 0.31596
#
# Static dielectric constant tensor:
#      x y z
#    x 1.692620 0.000000 0.000000 
#    y 0.000000 1.685340 0.000000 
#    z 0.000000 0.000000 1.695740 
# 
# From -- ./inp_files/29860.got.cif
#   From: 2010.05.17/outbox.cif.g08.bks.cpg/sg62_15_cif.got.tgz:29860.got - 2010.06.03 15:25:27.
