data_PCOD9465277
_publ_section_title
;
Structure prediction by ZEFSAII (Michael W. Deem and Ramdas Pophale) SiO2 
 PCOD9465277
Probable space group: P N M A
;
_chemical_formula_sum "Si O2"
_cell_formula_units_Z 52
_cell_length_a 20.425856
_cell_length_b 7.771391
_cell_length_c 12.713379
_cell_angle_alpha 90.000000
_cell_angle_beta 90.000000
_cell_angle_gamma 90.000000
_cell_volume 2018.087628
_symmetry_space_group_name_H-M "P N M A"
_symmetry_group_IT_number 62
_symmetry_cell_setting 'orthorhombic'
loop_
_space_group_symop_operation_xyz
x,y,z
1/2-x,-y,1/2+z
1/2+x,1/2-y,1/2-z
-x,1/2+y,-z
-x,-y,-z
1/2+x,y,1/2-z
1/2-x,1/2+y,1/2+z
x,1/2-y,z
loop_
_atom_site_type_symbol
_atom_site_label
_atom_site_fract_x
_atom_site_fract_y
_atom_site_fract_z
Si Si1 0.861668 0.541173 0.566900
Si Si2 0.868348 0.250000 0.120294
Si Si3 0.187794 0.434716 0.766112
Si Si4 0.740777 0.054370 0.425907
Si Si5 0.088615 0.451492 0.012859
Si Si6 0.555498 0.053153 0.873043
Si Si7 0.935411 0.948139 0.761341
O O1 0.863886 0.750000 0.566445
O O2 0.792811 0.488544 0.517345
O O3 0.918629 0.483962 0.484688
O O4 0.879969 0.478179 0.683107
O O5 0.817634 0.399520 0.163078
O O6 0.917356 0.404681 0.076539
O O7 0.190974 0.250000 0.822237
O O8 0.242700 0.444737 0.676857
O O9 0.120621 0.442518 0.698153
O O10 0.754105 0.250000 0.395036
O O11 0.665959 0.037398 0.457507
O O12 0.073410 0.250000 0.988032
O O13 0.056179 0.518280 0.121696
O O14 0.533089 0.250000 0.886014
O O15 0.500565 0.953885 0.809070
O O16 0.916724 0.750000 0.781034
#
# Coordination Sequence:
#
# PCOD9465277 Si02
#       7
#     8   4   8   8   8   8   8
#     4   9  19  35  59  94 128 166 204 258 319 386
#     4  12  24  42  68  88 114 176 216 248 320 366
#     4  10  22  41  67  96 124 158 215 270 308 370
#     4  10  20  39  62  94 129 163 209 259 319 378
#     4  10  25  43  60  90 132 165 212 273 307 370
#     4   9  19  35  61  93 128 157 202 267 316 377
#     4  10  21  38  60  86 130 167 202 254 330 376
#
# _framework density 25.766969
#
# number of rings (size 3 to 8) (size 9 to 14) (size 15 to 20)
#    0.000    2.154    0.769    2.308    4.308    2.462 
#    2.769    0.769    0.000    0.000    0.000    0.000 
#    0.000    0.000    0.000    0.000    0.000    0.000 
#
# Total GULP energy -289914.084622 kJ/mol
# GULP energy per Si atom -5575.270858 kJ/mol
# Density = 2.570832 g / cm^3
# Si number density = 25.766969 Si / 1000 Ang^3
#
#
#
# Elastic Constant Matrix: (Units=GPa)
#
#
# Indices 1 2 3 4 5 6 
#
# 1 88.5938 22.0540 4.7081 0.0000 0.0000 0.0000
# 2 22.0540 150.9230 50.5769 0.0000 0.0000 0.0000
# 3 4.7081 50.5769 40.8566 0.0000 0.0000 0.0000
# 4 0.0000 0.0000 0.0000 79.2459 0.0000 0.0000
# 5 0.0000 0.0000 0.0000 0.0000 28.9613 0.0000
# 6 0.0000 0.0000 0.0000 0.0000 0.0000 -14.5308
#
#
#
# Elastic Compliance Matrix: (Units=1/GPa)
#
#
# Indices 1 2 3 4 5 6 
#
# 1 0.011755 -0.002160 0.001319 0.000000 0.000000 0.000000
# 2 -0.002160 0.011720 -0.014260 0.000000 0.000000 0.000000
# 3 0.001319 -0.014260 0.041976 0.000000 0.000000 0.000000
# 4 0.000000 0.000000 0.000000 0.012619 0.000000 0.000000
# 5 0.000000 0.000000 0.000000 0.000000 0.034529 0.000000
# 6 0.000000 0.000000 0.000000 0.000000 0.000000 -0.068819
#
#
# Mechanical properties :
#
#
# Convention : Reuss Voigt Hill
#
# Bulk Modulus (GPa) = 28.36849 48.33904 38.35377
# Shear Modulus (GPa) = 58.32240 32.27091 45.29666
#
# Velocity S-wave (km/s) = 4.76274 3.54279 4.19732
# Velocity P-wave (km/s) = 6.42483 5.96120 6.19735
#
# Compressibility (1/GPa) = 0.03525038
#
# Stress axis : x y z
#
# Youngs Moduli (GPa) = 85.07009 85.32328 23.82313
#
# Poissons Ratio (x) = 0.18428 -0.03142
# Poissons Ratio (y) = 0.18373 0.33971
# Poissons Ratio (z) = -0.11220 1.21668
#
# Static dielectric constant tensor:
#      x y z
#    x 2.053910 0.000000 0.000000 
#    y 0.000000 2.116190 0.000000 
#    z 0.000000 0.000000 2.095300 
# 
# From -- ./inp_files/20122.got.cif
#   From: 2010.05.17/outbox.cif.g08.bks.cpg/sg62_11_cif.got.tgz:20122.got - 2010.06.03 15:25:27.
