data_PCOD9465963
_publ_section_title
;
Structure prediction by ZEFSAII (Michael W. Deem and Ramdas Pophale) SiO2 
 PCOD9465963
Probable space group: P N M A
;
_chemical_formula_sum "Si O2"
_cell_formula_units_Z 40
_cell_length_a 12.716144
_cell_length_b 8.858839
_cell_length_c 18.910492
_cell_angle_alpha 90.000000
_cell_angle_beta 90.000000
_cell_angle_gamma 90.000000
_cell_volume 2130.272075
_symmetry_space_group_name_H-M "P N M A"
_symmetry_group_IT_number 62
_symmetry_cell_setting 'orthorhombic'
loop_
_space_group_symop_operation_xyz
x,y,z
1/2-x,-y,1/2+z
1/2+x,1/2-y,1/2-z
-x,1/2+y,-z
-x,-y,-z
1/2+x,y,1/2-z
1/2-x,1/2+y,1/2+z
x,1/2-y,z
loop_
_atom_site_type_symbol
_atom_site_label
_atom_site_fract_x
_atom_site_fract_y
_atom_site_fract_z
Si Si1 0.547666 0.430685 0.655535
Si Si2 0.049617 0.068160 0.429053
Si Si3 0.191073 0.931454 0.117522
Si Si4 0.787662 0.068441 0.048128
Si Si5 0.389948 0.069050 0.194775
O O1 0.553918 0.250000 0.657934
O O2 0.426383 0.472749 0.641280
O O3 0.621381 0.491276 0.593001
O O4 0.586287 0.499153 0.729278
O O5 0.045975 0.250000 0.434894
O O6 0.171899 0.024336 0.424092
O O7 0.980304 0.023475 0.361529
O O8 0.000000 0.000000 0.500000
O O9 0.203383 0.750000 0.124092
O O10 0.279726 0.011581 0.163708
O O11 0.205756 0.970075 0.034848
O O12 0.798168 0.250000 0.054340
O O13 0.389139 0.250000 0.199899
#
# Coordination Sequence:
#
# PCOD9465963 Si02
#       5
#     8   8   8   8   8
#     4  11  25  41  61  91 124 162 207 252 307 364
#     4  10  21  38  62  91 122 158 201 250 302 359
#     4  10  22  42  65  90 123 162 203 253 305 361
#     4  10  21  40  65  92 124 159 201 251 307 366
#     4  11  24  40  61  91 124 162 205 251 309 364
#
# _framework density 18.776945000000001
#
# number of rings (size 3 to 8) (size 9 to 14) (size 15 to 20)
#    0.000    1.600    2.000    1.800    2.800    4.000 
#    0.000    0.000    0.000    0.000    0.000    0.000 
#    0.000    0.000    0.000    0.000    0.000    0.000 
#
# Total GULP energy -223614.196591 kJ/mol
# GULP energy per Si atom -5590.354915 kJ/mol
# Density = 1.873421 g / cm^3
# Si number density = 18.776945 Si / 1000 Ang^3
#
#
#
# Elastic Constant Matrix: (Units=GPa)
#
#
# Indices 1 2 3 4 5 6 
#
# 1 181.1939 52.4119 70.2621 0.0000 0.0000 0.0000
# 2 52.4119 28.0360 31.3244 0.0000 0.0000 0.0000
# 3 70.2621 31.3244 80.0439 0.0000 0.0000 0.0000
# 4 0.0000 0.0000 0.0000 32.8477 0.0000 0.0000
# 5 0.0000 0.0000 0.0000 0.0000 26.5961 0.0000
# 6 0.0000 0.0000 0.0000 0.0000 0.0000 24.4688
#
#
#
# Elastic Compliance Matrix: (Units=1/GPa)
#
#
# Indices 1 2 3 4 5 6 
#
# 1 0.012473 -0.019697 -0.003240 0.000000 0.000000 0.000000
# 2 -0.019697 0.094487 -0.019686 0.000000 0.000000 0.000000
# 3 -0.003240 -0.019686 0.023042 0.000000 0.000000 0.000000
# 4 0.000000 0.000000 0.000000 0.030444 0.000000 0.000000
# 5 0.000000 0.000000 0.000000 0.000000 0.037600 0.000000
# 6 0.000000 0.000000 0.000000 0.000000 0.000000 0.040868
#
#
# Mechanical properties :
#
#
# Convention : Reuss Voigt Hill
#
# Bulk Modulus (GPa) = 22.34461 66.36341 44.35401
# Shear Modulus (GPa) = 14.74578 25.80087 20.27333
#
# Velocity S-wave (km/s) = 2.80538 3.71087 3.28943
# Velocity P-wave (km/s) = 4.73492 7.33352 6.17252
#
# Compressibility (1/GPa) = 0.04475353
#
# Stress axis : x y z
#
# Youngs Moduli (GPa) = 80.17219 10.58344 43.39947
#
# Poissons Ratio (x) = 0.20847 0.14064
# Poissons Ratio (y) = 1.57918 0.85438
# Poissons Ratio (z) = 0.25980 0.20835
#
# Static dielectric constant tensor:
#      x y z
#    x 1.632410 0.000000 0.000000 
#    y 0.000000 1.629190 0.000000 
#    z 0.000000 0.000000 1.610290 
# 
# From -- ./inp_files/22767.got.cif
#   From: 2010.05.17/outbox.cif.g08.bks.cpg/sg62_12_cif.got.tgz:22767.got - 2010.06.03 15:25:27.
