data_PCOD9466779
_publ_section_title
;
Structure prediction by ZEFSAII (Michael W. Deem and Ramdas Pophale) SiO2 
 PCOD9466779
Probable space group: P N M A
;
_chemical_formula_sum "Si O2"
_cell_formula_units_Z 40
_cell_length_a 19.014804
_cell_length_b 8.545303
_cell_length_c 12.801910
_cell_angle_alpha 90.000000
_cell_angle_beta 90.000000
_cell_angle_gamma 90.000000
_cell_volume 2080.147300
_symmetry_space_group_name_H-M "P N M A"
_symmetry_group_IT_number 62
_symmetry_cell_setting 'orthorhombic'
loop_
_space_group_symop_operation_xyz
x,y,z
1/2-x,-y,1/2+z
1/2+x,1/2-y,1/2-z
-x,1/2+y,-z
-x,-y,-z
1/2+x,y,1/2-z
1/2-x,1/2+y,1/2+z
x,1/2-y,z
loop_
_atom_site_type_symbol
_atom_site_label
_atom_site_fract_x
_atom_site_fract_y
_atom_site_fract_z
Si Si1 0.304988 0.439481 0.391705
Si Si2 0.386721 0.440536 0.185696
Si Si3 0.152513 0.937644 0.452654
Si Si4 0.547805 0.062275 0.221938
Si Si5 0.571903 0.937503 0.449083
O O1 0.300148 0.250000 0.391535
O O2 0.335673 0.490187 0.279428
O O3 0.229248 0.508608 0.416290
O O4 0.362087 0.485422 0.479452
O O5 0.386749 0.250000 0.186280
O O6 0.466755 0.489963 0.208674
O O7 0.362388 0.491797 0.071231
O O8 0.148567 0.750000 0.450880
O O9 0.094424 0.004400 0.374081
O O10 0.548625 0.250000 0.225071
O O11 0.576881 0.998836 0.331419
O O12 0.569181 0.750000 0.448999
O O13 0.500000 0.000000 0.500000
#
# Coordination Sequence:
#
# PCOD9466779 Si02
#       5
#     8   8   8   8   8
#     4  10  22  42  62  87 123 164 203 248 309 372
#     4   9  20  41  64  86 120 162 204 250 302 365
#     4  11  24  40  61  93 125 159 206 257 308 365
#     4  11  22  41  66  90 122 166 207 252 313 368
#     4  11  22  39  64  93 125 160 207 259 308 369
#
# _framework density 19.229407999999999
#
# number of rings (size 3 to 8) (size 9 to 14) (size 15 to 20)
#    0.000    1.600    2.000    2.400    2.800    1.600 
#    0.000    4.000    0.000    0.000    0.000    0.000 
#    0.000    0.000    0.000    0.000    0.000    0.000 
#
# Total GULP energy -223605.399321 kJ/mol
# GULP energy per Si atom -5590.134983 kJ/mol
# Density = 1.918564 g / cm^3
# Si number density = 19.229408 Si / 1000 Ang^3
#
#
#
# Elastic Constant Matrix: (Units=GPa)
#
#
# Indices 1 2 3 4 5 6 
#
# 1 65.1626 14.0432 51.2234 0.0000 0.0000 0.0000
# 2 14.0432 32.0690 24.5923 0.0000 0.0000 0.0000
# 3 51.2234 24.5923 186.3653 0.0000 0.0000 0.0000
# 4 0.0000 0.0000 0.0000 28.6473 0.0000 0.0000
# 5 0.0000 0.0000 0.0000 0.0000 30.3884 0.0000
# 6 0.0000 0.0000 0.0000 0.0000 0.0000 31.0068
#
#
#
# Elastic Compliance Matrix: (Units=1/GPa)
#
#
# Indices 1 2 3 4 5 6 
#
# 1 0.020307 -0.005132 -0.004904 0.000000 0.000000 0.000000
# 2 -0.005132 0.035990 -0.003339 0.000000 0.000000 0.000000
# 3 -0.004904 -0.003339 0.007154 0.000000 0.000000 0.000000
# 4 0.000000 0.000000 0.000000 0.034907 0.000000 0.000000
# 5 0.000000 0.000000 0.000000 0.000000 0.032907 0.000000
# 6 0.000000 0.000000 0.000000 0.000000 0.000000 0.032251
#
#
# Mechanical properties :
#
#
# Convention : Reuss Voigt Hill
#
# Bulk Modulus (GPa) = 27.24617 51.47941 39.36279
# Shear Modulus (GPa) = 24.69114 30.92436 27.80775
#
# Velocity S-wave (km/s) = 3.58722 4.01456 3.80689
# Velocity P-wave (km/s) = 5.59976 6.95113 6.31172
#
# Compressibility (1/GPa) = 0.03670241
#
# Stress axis : x y z
#
# Youngs Moduli (GPa) = 49.24290 27.78523 139.77447
#
# Poissons Ratio (x) = 0.14259 0.68552
# Poissons Ratio (y) = 0.25270 0.46667
# Poissons Ratio (z) = 0.24151 0.09277
#
# Static dielectric constant tensor:
#      x y z
#    x 1.631700 0.000000 0.000000 
#    y 0.000000 1.661770 0.000000 
#    z 0.000000 0.000000 1.653650 
# 
# From -- ./inp_files/13865.got.cif
#   From: 2010.05.17/outbox.cif.g08.bks.cpg/sg62_7_cif.got.tgz:13865.got - 2010.06.03 15:25:27.
