data_PCOD9466067
_publ_section_title
;
Structure prediction by ZEFSAII (Michael W. Deem and Ramdas Pophale) SiO2 
 PCOD9466067
Probable space group: P N M A
;
_chemical_formula_sum "Si O2"
_cell_formula_units_Z 56
_cell_length_a 11.933987
_cell_length_b 10.603168
_cell_length_c 21.922569
_cell_angle_alpha 90.000000
_cell_angle_beta 90.000000
_cell_angle_gamma 90.000000
_cell_volume 2774.039550
_symmetry_space_group_name_H-M "P N M A"
_symmetry_group_IT_number 62
_symmetry_cell_setting 'orthorhombic'
loop_
_space_group_symop_operation_xyz
x,y,z
1/2-x,-y,1/2+z
1/2+x,1/2-y,1/2-z
-x,1/2+y,-z
-x,-y,-z
1/2+x,y,1/2-z
1/2-x,1/2+y,1/2+z
x,1/2-y,z
loop_
_atom_site_type_symbol
_atom_site_label
_atom_site_fract_x
_atom_site_fract_y
_atom_site_fract_z
Si Si1 0.687762 0.610187 0.256364
Si Si2 0.615613 0.891423 0.394818
Si Si3 0.373474 0.896365 0.063783
Si Si4 0.368314 0.389836 0.263075
Si Si5 0.559363 0.602630 0.595727
Si Si6 0.304734 0.600653 0.937644
Si Si7 0.466332 0.513388 0.835516
O O1 0.739915 0.750000 0.253918
O O2 0.627194 0.598425 0.321535
O O3 0.779560 0.500745 0.249082
O O4 0.596012 0.593661 0.203561
O O5 0.572992 0.750000 0.409835
O O6 0.742491 0.899730 0.418435
O O7 0.538523 0.004327 0.418178
O O8 0.410407 0.750000 0.063096
O O9 0.444805 0.965273 0.114989
O O10 0.373187 0.951664 0.995294
O O11 0.316520 0.250000 0.257156
O O12 0.416528 0.400205 0.331385
O O13 0.467561 0.403845 0.213870
O O14 0.536811 0.750000 0.579732
O O15 0.676355 0.557959 0.565981
O O16 0.297441 0.750000 0.947712
O O17 0.369142 0.578767 0.874812
#
# Coordination Sequence:
#
# PCOD9466067 Si02
#       7
#     8   8   8   8   8   8   8
#     4  11  23  37  59  90 124 159 197 247 305 365
#     4  10  21  39  61  90 122 160 202 251 305 359
#     4  10  22  40  60  84 120 164 206 248 300 361
#     4  11  23  37  59  90 124 159 197 247 305 365
#     4  10  21  39  61  90 122 160 202 251 305 359
#     4  10  22  40  60  84 120 164 206 248 300 361
#     4  12  21  38  62  92 121 158 202 252 304 362
#
# _framework density 20.187169000000001
#
# number of rings (size 3 to 8) (size 9 to 14) (size 15 to 20)
#    0.000    1.429    4.286    1.286    0.000    2.857 
#    0.000    0.000    0.000    3.429    0.000    0.000 
#    0.000    0.000    0.000    0.000    0.000    0.000 
#
# Total GULP energy -312695.793406 kJ/mol
# GULP energy per Si atom -5583.853454 kJ/mol
# Density = 2.014122 g / cm^3
# Si number density = 20.187169 Si / 1000 Ang^3
#
#
#
# Elastic Constant Matrix: (Units=GPa)
#
#
# Indices 1 2 3 4 5 6 
#
# 1 69.2850 39.0183 -2.0380 0.0000 0.0000 0.0000
# 2 39.0183 100.3821 -9.9583 0.0000 0.0000 0.0000
# 3 -2.0380 -9.9583 69.5085 0.0000 0.0000 0.0000
# 4 0.0000 0.0000 0.0000 11.3682 0.0000 0.0000
# 5 0.0000 0.0000 0.0000 0.0000 23.6452 0.0000
# 6 0.0000 0.0000 0.0000 0.0000 0.0000 28.6965
#
#
#
# Elastic Compliance Matrix: (Units=1/GPa)
#
#
# Indices 1 2 3 4 5 6 
#
# 1 0.018495 -0.007238 -0.000495 0.000000 0.000000 0.000000
# 2 -0.007238 0.012938 0.001641 0.000000 0.000000 0.000000
# 3 -0.000495 0.001641 0.014607 0.000000 0.000000 0.000000
# 4 0.000000 0.000000 0.000000 0.087965 0.000000 0.000000
# 5 0.000000 0.000000 0.000000 0.000000 0.042292 0.000000
# 6 0.000000 0.000000 0.000000 0.000000 0.000000 0.034847
#
#
# Mechanical properties :
#
#
# Convention : Reuss Voigt Hill
#
# Bulk Modulus (GPa) = 29.53534 32.57996 31.05765
# Shear Modulus (GPa) = 21.31172 26.88556 24.09864
#
# Velocity S-wave (km/s) = 3.25269 3.65336 3.45883
# Velocity P-wave (km/s) = 5.36369 5.82838 5.60086
#
# Compressibility (1/GPa) = 0.03385775
#
# Stress axis : x y z
#
# Youngs Moduli (GPa) = 54.06969 77.29099 68.45856
#
# Poissons Ratio (x) = 0.55942 0.03387
# Poissons Ratio (y) = 0.39135 -0.11237
# Poissons Ratio (z) = 0.02675 -0.12687
#
# Static dielectric constant tensor:
#      x y z
#    x 1.705240 0.000000 0.000000 
#    y 0.000000 1.708550 0.000000 
#    z 0.000000 0.000000 1.757690 
# 
# From -- ./inp_files/26591.got.cif
#   From: 2010.05.17/outbox.cif.g08.bks.cpg/sg62_14_cif.got.tgz:26591.got - 2010.06.03 15:25:27.
