data_PCOD9466050
_publ_section_title
;
Structure prediction by ZEFSAII (Michael W. Deem and Ramdas Pophale) SiO2 
 PCOD9466050
Probable space group: P N M A
;
_chemical_formula_sum "Si O2"
_cell_formula_units_Z 40
_cell_length_a 24.887556
_cell_length_b 7.661785
_cell_length_c 8.471567
_cell_angle_alpha 90.000000
_cell_angle_beta 90.000000
_cell_angle_gamma 90.000000
_cell_volume 1615.384685
_symmetry_space_group_name_H-M "P N M A"
_symmetry_group_IT_number 62
_symmetry_cell_setting 'orthorhombic'
loop_
_space_group_symop_operation_xyz
x,y,z
1/2-x,-y,1/2+z
1/2+x,1/2-y,1/2-z
-x,1/2+y,-z
-x,-y,-z
1/2+x,y,1/2-z
1/2-x,1/2+y,1/2+z
x,1/2-y,z
loop_
_atom_site_type_symbol
_atom_site_label
_atom_site_fract_x
_atom_site_fract_y
_atom_site_fract_z
Si Si1 0.423088 0.537706 0.339972
Si Si2 0.328977 0.950484 0.130770
Si Si3 0.870121 0.454866 0.827508
Si Si4 0.025851 0.959158 0.331808
Si Si5 0.732197 0.049672 0.169922
O O1 0.422031 0.750000 0.339752
O O2 0.383867 0.474063 0.199070
O O3 0.398184 0.477483 0.503847
O O4 0.483286 0.478867 0.300190
O O5 0.340116 0.750000 0.087535
O O6 0.285433 0.956730 0.271106
O O7 0.298831 0.030035 0.980358
O O8 0.860287 0.250000 0.802242
O O9 0.914228 0.524698 0.702083
O O10 0.812995 0.545181 0.806204
O O11 0.029189 0.750000 0.317711
O O12 0.000000 0.000000 0.500000
O O13 0.747353 0.250000 0.133408
#
# Coordination Sequence:
#
# PCOD9466050 Si02
#       5
#     8   8   8   8   8
#     4  10  21  39  61  85 116 153 192 235 285 340
#     4  10  22  39  59  85 115 148 191 239 284 337
#     4  11  23  38  58  87 119 150 190 237 283 337
#     4  10  22  39  60  87 118 152 191 236 284 338
#     4  11  23  39  60  84 114 153 191 233 287 340
#
# _framework density 24.761904999999999
#
# number of rings (size 3 to 8) (size 9 to 14) (size 15 to 20)
#    0.000    1.600    0.000    4.200    0.000    9.600 
#    0.000    0.000    0.000    0.000    0.000    0.000 
#    0.000    0.000    0.000    0.000    0.000    0.000 
#
# Total GULP energy -223890.855670 kJ/mol
# GULP energy per Si atom -5597.271392 kJ/mol
# Density = 2.470555 g / cm^3
# Si number density = 24.761905 Si / 1000 Ang^3
#
#
#
# Elastic Constant Matrix: (Units=GPa)
#
#
# Indices 1 2 3 4 5 6 
#
# 1 102.0025 1.5511 -14.1970 0.0000 0.0000 0.0000
# 2 1.5511 64.6968 -6.9990 0.0000 0.0000 0.0000
# 3 -14.1970 -6.9990 65.2865 0.0000 0.0000 0.0000
# 4 0.0000 0.0000 0.0000 24.4744 0.0000 0.0000
# 5 0.0000 0.0000 0.0000 0.0000 45.9088 0.0000
# 6 0.0000 0.0000 0.0000 0.0000 0.0000 12.1540
#
#
#
# Elastic Compliance Matrix: (Units=1/GPa)
#
#
# Indices 1 2 3 4 5 6 
#
# 1 0.010110 -0.000005 0.002198 0.000000 0.000000 0.000000
# 2 -0.000005 0.015638 0.001675 0.000000 0.000000 0.000000
# 3 0.002198 0.001675 0.015975 0.000000 0.000000 0.000000
# 4 0.000000 0.000000 0.000000 0.040859 0.000000 0.000000
# 5 0.000000 0.000000 0.000000 0.000000 0.021782 0.000000
# 6 0.000000 0.000000 0.000000 0.000000 0.000000 0.082277
#
#
# Mechanical properties :
#
#
# Convention : Reuss Voigt Hill
#
# Bulk Modulus (GPa) = 20.21838 21.41068 20.81453
# Shear Modulus (GPa) = 25.58983 33.28283 29.43633
#
# Velocity S-wave (km/s) = 3.21820 3.67019 3.45160
# Velocity P-wave (km/s) = 4.68955 5.16002 4.93040
#
# Compressibility (1/GPa) = 0.04945995
#
# Stress axis : x y z
#
# Youngs Moduli (GPa) = 98.91527 63.94650 62.59911
#
# Poissons Ratio (x) = 0.00029 -0.13759
# Poissons Ratio (y) = 0.00046 -0.10488
# Poissons Ratio (z) = -0.21741 -0.10714
#
# Static dielectric constant tensor:
#      x y z
#    x 1.936260 0.000000 0.000000 
#    y 0.000000 1.938990 0.000000 
#    z 0.000000 0.000000 2.010700 
# 
# From -- ./inp_files/9060.got.cif
#   From: 2010.05.17/outbox.cif.g08.bks.cpg/sg62_5_cif.got.tgz:9060.got - 2010.06.03 15:25:27.
