data_PCOD9466978
_publ_section_title
;
Structure prediction by ZEFSAII (Michael W. Deem and Ramdas Pophale) SiO2 
 PCOD9466978
Probable space group: P N M A
;
_chemical_formula_sum "Si O2"
_cell_formula_units_Z 40
_cell_length_a 9.505373
_cell_length_b 12.811680
_cell_length_c 18.254776
_cell_angle_alpha 90.000000
_cell_angle_beta 90.000000
_cell_angle_gamma 90.000000
_cell_volume 2223.062918
_symmetry_space_group_name_H-M "P N M A"
_symmetry_group_IT_number 62
_symmetry_cell_setting 'orthorhombic'
loop_
_space_group_symop_operation_xyz
x,y,z
1/2-x,-y,1/2+z
1/2+x,1/2-y,1/2-z
-x,1/2+y,-z
-x,-y,-z
1/2+x,y,1/2-z
1/2-x,1/2+y,1/2+z
x,1/2-y,z
loop_
_atom_site_type_symbol
_atom_site_label
_atom_site_fract_x
_atom_site_fract_y
_atom_site_fract_z
Si Si1 0.351219 0.968810 0.535272
Si Si2 0.295759 0.500578 0.269982
Si Si3 0.341392 0.626349 0.120699
Si Si4 0.333505 0.373919 0.905430
Si Si5 0.931501 0.628836 0.814395
O O1 0.250270 0.918064 0.474839
O O2 0.379378 0.891127 0.602922
O O3 0.500000 0.000000 0.500000
O O4 0.272732 0.068774 0.570227
O O5 0.332407 0.574577 0.201100
O O6 0.224182 0.567761 0.333665
O O7 0.433404 0.443393 0.300314
O O8 0.188797 0.413561 0.239691
O O9 0.316177 0.750000 0.124945
O O10 0.498717 0.608588 0.090052
O O11 0.310142 0.250000 0.898808
O O12 0.962170 0.750000 0.802056
#
# Coordination Sequence:
#
# PCOD9466978 Si02
#       5
#     8   8   8   8   8
#     4  11  23  41  62  91 128 158 205 253 302 372
#     4  11  21  41  62  91 124 156 211 256 303 366
#     4  10  23  41  64  91 124 165 206 252 307 361
#     4  11  22  40  63  90 125 166 205 251 310 365
#     4  11  23  40  62  88 122 162 203 253 309 366
#
# _framework density 17.993193000000002
#
# number of rings (size 3 to 8) (size 9 to 14) (size 15 to 20)
#    0.000    1.200    4.000    2.400    0.000    1.600 
#    0.000    0.000    0.000    0.000    0.000    0.000 
#    0.000    0.000    0.000    0.000    0.000    0.000 
#
# Total GULP energy -223539.253816 kJ/mol
# GULP energy per Si atom -5588.481345 kJ/mol
# Density = 1.795224 g / cm^3
# Si number density = 17.993193 Si / 1000 Ang^3
#
#
#
# Elastic Constant Matrix: (Units=GPa)
#
#
# Indices 1 2 3 4 5 6 
#
# 1 113.9091 64.0103 57.3670 0.0000 0.0000 0.0000
# 2 64.0103 118.8774 59.2501 0.0000 0.0000 0.0000
# 3 57.3670 59.2501 122.3994 0.0000 0.0000 0.0000
# 4 0.0000 0.0000 0.0000 13.9470 0.0000 0.0000
# 5 0.0000 0.0000 0.0000 0.0000 28.0254 0.0000
# 6 0.0000 0.0000 0.0000 0.0000 0.0000 13.1624
#
#
#
# Elastic Compliance Matrix: (Units=1/GPa)
#
#
# Indices 1 2 3 4 5 6 
#
# 1 0.013801 -0.005545 -0.003784 0.000000 0.000000 0.000000
# 2 -0.005545 0.013315 -0.003846 0.000000 0.000000 0.000000
# 3 -0.003784 -0.003846 0.011805 0.000000 0.000000 0.000000
# 4 0.000000 0.000000 0.000000 0.071700 0.000000 0.000000
# 5 0.000000 0.000000 0.000000 0.000000 0.035682 0.000000
# 6 0.000000 0.000000 0.000000 0.000000 0.000000 0.075974
#
#
# Mechanical properties :
#
#
# Convention : Reuss Voigt Hill
#
# Bulk Modulus (GPa) = 79.55459 79.60452 79.57955
# Shear Modulus (GPa) = 19.77709 22.66420 21.22065
#
# Velocity S-wave (km/s) = 3.31893 3.55293 3.43792
# Velocity P-wave (km/s) = 7.68093 7.82104 7.75130
#
# Compressibility (1/GPa) = 0.01256998
#
# Stress axis : x y z
#
# Youngs Moduli (GPa) = 72.46065 75.10367 84.70662
#
# Poissons Ratio (x) = 0.41645 0.32053
# Poissons Ratio (y) = 0.40180 0.32582
# Poissons Ratio (z) = 0.27419 0.28889
#
# Static dielectric constant tensor:
#      x y z
#    x 1.603270 0.000000 0.000000 
#    y 0.000000 1.578460 0.000000 
#    z 0.000000 0.000000 1.590800 
# 
# From -- ./inp_files/21883.got.cif
#   From: 2010.05.17/outbox.cif.g08.bks.cpg/sg62_11_cif.got.tgz:21883.got - 2010.06.03 15:25:27.
