data_PCOD9466431
_publ_section_title
;
Structure prediction by ZEFSAII (Michael W. Deem and Ramdas Pophale) SiO2 
 PCOD9466431
Probable space group: P N M A
;
_chemical_formula_sum "Si O2"
_cell_formula_units_Z 24
_cell_length_a 13.991300
_cell_length_b 9.700668
_cell_length_c 6.954292
_cell_angle_alpha 90.000000
_cell_angle_beta 90.000000
_cell_angle_gamma 90.000000
_cell_volume 943.870977
_symmetry_space_group_name_H-M "P N M A"
_symmetry_group_IT_number 62
_symmetry_cell_setting 'orthorhombic'
loop_
_space_group_symop_operation_xyz
x,y,z
1/2-x,-y,1/2+z
1/2+x,1/2-y,1/2-z
-x,1/2+y,-z
-x,-y,-z
1/2+x,y,1/2-z
1/2-x,1/2+y,1/2+z
x,1/2-y,z
loop_
_atom_site_type_symbol
_atom_site_label
_atom_site_fract_x
_atom_site_fract_y
_atom_site_fract_z
Si Si1 0.850811 0.250000 0.348700
Si Si2 0.611504 0.944774 0.187051
Si Si3 0.267035 0.250000 0.554895
Si Si4 0.931870 0.750000 0.788090
Si Si5 0.063793 0.250000 0.758609
O O1 0.845753 0.118796 0.491053
O O2 0.778568 0.250000 0.173571
O O3 0.954672 0.250000 0.251517
O O4 0.674663 0.880251 0.358194
O O5 0.505340 0.878975 0.208896
O O6 0.604237 0.106490 0.202585
O O7 0.162519 0.250000 0.646447
O O8 0.914708 0.750000 0.015752
#
# Coordination Sequence:
#
# PCOD9466431 Si02
#       5
#     4   8   4   4   4
#     4  10  21  44  78 106 154 211 256 325 383 473
#     4  10  24  46  75 116 157 211 269 319 405 468
#     4  10  22  48  73 113 162 203 277 328 386 479
#     4  12  21  46  84 109 163 208 257 337 397 479
#     4  10  22  44  79 118 155 218 264 328 406 457
#
# _framework density 25.427202000000001
#
# number of rings (size 3 to 8) (size 9 to 14) (size 15 to 20)
#    0.000    2.000    3.333    2.000    0.000    0.000 
#   12.000   15.000    0.000    0.000    0.000    0.000 
#    0.000    0.000    0.000    0.000    0.000    0.000 
#
# Total GULP energy -134776.777795 kJ/mol
# GULP energy per Si atom -5615.699075 kJ/mol
# Density = 2.536933 g / cm^3
# Si number density = 25.427202 Si / 1000 Ang^3
#
#
#
# Elastic Constant Matrix: (Units=GPa)
#
#
# Indices 1 2 3 4 5 6 
#
# 1 166.5748 107.2000 69.3425 0.0000 0.0000 0.0000
# 2 107.2000 252.6327 95.5506 0.0000 0.0000 0.0000
# 3 69.3425 95.5506 247.2865 0.0000 0.0000 0.0000
# 4 0.0000 0.0000 0.0000 12.7769 0.0000 0.0000
# 5 0.0000 0.0000 0.0000 0.0000 20.9979 0.0000
# 6 0.0000 0.0000 0.0000 0.0000 0.0000 18.6423
#
#
#
# Elastic Compliance Matrix: (Units=1/GPa)
#
#
# Indices 1 2 3 4 5 6 
#
# 1 0.008535 -0.003182 -0.001164 0.000000 0.000000 0.000000
# 2 -0.003182 0.005822 -0.001357 0.000000 0.000000 0.000000
# 3 -0.001164 -0.001357 0.004895 0.000000 0.000000 0.000000
# 4 0.000000 0.000000 0.000000 0.078266 0.000000 0.000000
# 5 0.000000 0.000000 0.000000 0.000000 0.047624 0.000000
# 6 0.000000 0.000000 0.000000 0.000000 0.000000 0.053642
#
#
# Mechanical properties :
#
#
# Convention : Reuss Voigt Hill
#
# Bulk Modulus (GPa) = 127.45467 134.52002 130.98734
# Shear Modulus (GPa) = 23.49569 36.77680 30.13624
#
# Velocity S-wave (km/s) = 3.04310 3.80723 3.44640
# Velocity P-wave (km/s) = 7.91084 8.50561 8.21361
#
# Compressibility (1/GPa) = 0.00784593
#
# Stress axis : x y z
#
# Youngs Moduli (GPa) = 117.15898 171.77047 204.29867
#
# Poissons Ratio (x) = 0.54650 0.23782
# Poissons Ratio (y) = 0.37275 0.27730
# Poissons Ratio (z) = 0.13639 0.23315
#
# Static dielectric constant tensor:
#      x y z
#    x 2.011050 0.000000 0.000000 
#    y 0.000000 1.988350 0.000000 
#    z 0.000000 0.000000 1.998300 
# 
# From -- ./inp_files/5644.got.cif
#   From: 2010.05.17/outbox.cif.g08.bks.cpg/sg62_3_cif.got.tgz:5644.got - 2010.06.03 15:25:27.
