data_PCOD9466607
_publ_section_title
;
Structure prediction by ZEFSAII (Michael W. Deem and Ramdas Pophale) SiO2 
 PCOD9466607
Probable space group: P N M A
;
_chemical_formula_sum "Si O2"
_cell_formula_units_Z 40
_cell_length_a 9.655135
_cell_length_b 11.280799
_cell_length_c 14.890129
_cell_angle_alpha 90.000000
_cell_angle_beta 90.000000
_cell_angle_gamma 90.000000
_cell_volume 1621.797669
_symmetry_space_group_name_H-M "P N M A"
_symmetry_group_IT_number 62
_symmetry_cell_setting 'orthorhombic'
loop_
_space_group_symop_operation_xyz
x,y,z
1/2-x,-y,1/2+z
1/2+x,1/2-y,1/2-z
-x,1/2+y,-z
-x,-y,-z
1/2+x,y,1/2-z
1/2-x,1/2+y,1/2+z
x,1/2-y,z
loop_
_atom_site_type_symbol
_atom_site_label
_atom_site_fract_x
_atom_site_fract_y
_atom_site_fract_z
Si Si1 0.471305 0.123992 0.454745
Si Si2 0.157061 0.381864 0.716226
Si Si3 0.150723 0.375688 0.408483
Si Si4 0.804045 0.621174 0.804902
Si Si5 0.867467 0.121029 0.630627
O O1 0.513332 0.250000 0.500011
O O2 0.308897 0.129614 0.439225
O O3 0.556392 0.119945 0.362276
O O4 0.500000 0.000000 0.500000
O O5 0.201384 0.250000 0.680419
O O6 0.216796 0.502778 0.673068
O O7 0.221837 0.387137 0.816046
O O8 0.991962 0.382670 0.704336
O O9 0.085044 0.250000 0.436292
O O10 0.155488 0.379279 0.299787
O O11 0.106910 0.508882 0.431895
O O12 0.733583 0.750000 0.821821
O O13 0.872017 0.250000 0.587293
#
# Coordination Sequence:
#
# PCOD9466607 Si02
#       5
#     8   8   8   8   8
#     4  10  22  40  60  90 127 166 208 252 309 372
#     4   9  18  30  46  75 115 153 191 239 297 356
#     4   9  19  33  55  85 118 152 199 254 302 353
#     4   9  19  33  55  85 118 152 199 254 302 353
#     4   9  18  30  46  75 115 153 191 239 297 356
#
# _framework density 24.663989999999998
#
# number of rings (size 3 to 8) (size 9 to 14) (size 15 to 20)
#    0.000    2.800    0.000    0.000   11.200    2.400 
#    0.000    0.000    0.000    1.200    0.000    0.000 
#    0.000    0.000    0.000    0.000    0.000    0.000 
#
# Total GULP energy -223044.986077 kJ/mol
# GULP energy per Si atom -5576.124652 kJ/mol
# Density = 2.460785 g / cm^3
# Si number density = 24.663990 Si / 1000 Ang^3
#
#
#
# Elastic Constant Matrix: (Units=GPa)
#
#
# Indices 1 2 3 4 5 6 
#
# 1 47.0564 24.1494 20.4975 0.0000 0.0000 0.0000
# 2 24.1494 314.6228 32.4576 0.0000 0.0000 0.0000
# 3 20.4975 32.4576 34.0736 0.0000 0.0000 0.0000
# 4 0.0000 0.0000 0.0000 147.4524 0.0000 0.0000
# 5 0.0000 0.0000 0.0000 0.0000 -44.6782 0.0000
# 6 0.0000 0.0000 0.0000 0.0000 0.0000 25.8129
#
#
#
# Elastic Compliance Matrix: (Units=1/GPa)
#
#
# Indices 1 2 3 4 5 6 
#
# 1 0.028860 -0.000470 -0.016913 0.000000 0.000000 0.000000
# 2 -0.000470 0.003532 -0.003082 0.000000 0.000000 0.000000
# 3 -0.016913 -0.003082 0.042458 0.000000 0.000000 0.000000
# 4 0.000000 0.000000 0.000000 0.006782 0.000000 0.000000
# 5 0.000000 0.000000 0.000000 0.000000 -0.022382 0.000000
# 6 0.000000 0.000000 0.000000 0.000000 0.000000 0.038740
#
#
# Mechanical properties :
#
#
# Convention : Reuss Voigt Hill
#
# Bulk Modulus (GPa) = 29.48124 61.10686 45.29405
# Shear Modulus (GPa) = 33.28282 46.96063 40.12172
#
# Velocity S-wave (km/s) = 3.67747 4.36824 4.03765
# Velocity P-wave (km/s) = 5.47821 7.09024 6.33571
#
# Compressibility (1/GPa) = 0.03391988
#
# Stress axis : x y z
#
# Youngs Moduli (GPa) = 34.65041 283.08882 23.55249
#
# Poissons Ratio (x) = 0.13316 0.39834
# Poissons Ratio (y) = 0.01630 0.07259
# Poissons Ratio (z) = 0.58604 0.87247
#
# Static dielectric constant tensor:
#      x y z
#    x 1.892110 0.000000 0.000000 
#    y 0.000000 2.139550 0.000000 
#    z 0.000000 0.000000 1.917720 
# 
# From -- ./inp_files/25772.got.cif
#   From: 2010.05.17/outbox.cif.g08.bks.cpg/sg62_13_cif.got.tgz:25772.got - 2010.06.03 15:25:27.
