data_PCOD9466372
_publ_section_title
;
Structure prediction by ZEFSAII (Michael W. Deem and Ramdas Pophale) SiO2 
 PCOD9466372
Probable space group: P N M A
;
_chemical_formula_sum "Si O2"
_cell_formula_units_Z 48
_cell_length_a 8.896285
_cell_length_b 17.245266
_cell_length_c 16.708487
_cell_angle_alpha 90.000000
_cell_angle_beta 90.000000
_cell_angle_gamma 90.000000
_cell_volume 2563.396046
_symmetry_space_group_name_H-M "P N M A"
_symmetry_group_IT_number 62
_symmetry_cell_setting 'orthorhombic'
loop_
_space_group_symop_operation_xyz
x,y,z
1/2-x,-y,1/2+z
1/2+x,1/2-y,1/2-z
-x,1/2+y,-z
-x,-y,-z
1/2+x,y,1/2-z
1/2-x,1/2+y,1/2+z
x,1/2-y,z
loop_
_atom_site_type_symbol
_atom_site_label
_atom_site_fract_x
_atom_site_fract_y
_atom_site_fract_z
Si Si1 0.533567 0.917303 0.785496
Si Si2 0.329665 0.658110 0.649464
Si Si3 0.583996 0.979814 0.082312
Si Si4 0.936151 0.160150 0.841752
Si Si5 0.400887 0.924479 0.482116
Si Si6 0.125221 0.413062 0.707528
O O1 0.662226 0.862531 0.820650
O O2 0.443347 0.878514 0.714179
O O3 0.425418 0.946523 0.857747
O O4 0.613409 0.998566 0.759995
O O5 0.350455 0.750000 0.643618
O O6 0.356676 0.616997 0.564595
O O7 0.485693 0.916310 0.130902
O O8 0.749425 0.950856 0.062987
O O9 0.500000 0.000000 0.000000
O O10 0.894290 0.250000 0.843922
O O11 0.791855 0.108737 0.818357
O O12 0.060622 0.143990 0.773879
O O13 0.004381 0.131898 0.925201
O O14 0.500000 0.000000 0.500000
#
# Coordination Sequence:
#
# PCOD9466372 Si02
#       6
#     8   8   8   8   8   8
#     4  10  23  42  69  91 125 171 230 265 321 409
#     4  12  25  43  65  98 137 174 218 285 347 386
#     4  10  21  41  69  95 118 164 235 274 319 388
#     4  12  24  41  62 100 137 172 218 284 349 397
#     4  12  24  42  70  97 133 178 228 282 326 419
#     4  10  22  40  68  91 129 177 226 274 327 416
#
# _framework density 18.725159999999999
#
# number of rings (size 3 to 8) (size 9 to 14) (size 15 to 20)
#    1.000    0.000    1.667    6.500    4.667    0.000 
#    0.000    2.500    0.000    0.000    0.000    0.000 
#    0.000    0.000    0.000    0.000    0.000    0.000 
#
# Total GULP energy -268152.851171 kJ/mol
# GULP energy per Si atom -5586.517733 kJ/mol
# Density = 1.868254 g / cm^3
# Si number density = 18.725160 Si / 1000 Ang^3
#
#
#
# Elastic Constant Matrix: (Units=GPa)
#
#
# Indices 1 2 3 4 5 6 
#
# 1 114.6220 34.0939 54.5795 0.0000 0.0000 0.0000
# 2 34.0939 104.6289 35.7075 0.0000 0.0000 0.0000
# 3 54.5795 35.7075 126.5946 0.0000 0.0000 0.0000
# 4 0.0000 0.0000 0.0000 27.9861 0.0000 0.0000
# 5 0.0000 0.0000 0.0000 0.0000 41.5018 0.0000
# 6 0.0000 0.0000 0.0000 0.0000 0.0000 26.4394
#
#
#
# Elastic Compliance Matrix: (Units=1/GPa)
#
#
# Indices 1 2 3 4 5 6 
#
# 1 0.011443 -0.002263 -0.004295 0.000000 0.000000 0.000000
# 2 -0.002263 0.011023 -0.002134 0.000000 0.000000 0.000000
# 3 -0.004295 -0.002134 0.010353 0.000000 0.000000 0.000000
# 4 0.000000 0.000000 0.000000 0.035732 0.000000 0.000000
# 5 0.000000 0.000000 0.000000 0.000000 0.024095 0.000000
# 6 0.000000 0.000000 0.000000 0.000000 0.000000 0.037822
#
#
# Mechanical properties :
#
#
# Convention : Reuss Voigt Hill
#
# Bulk Modulus (GPa) = 64.78574 66.06748 65.42661
# Shear Modulus (GPa) = 32.68052 33.94975 33.31514
#
# Velocity S-wave (km/s) = 4.18218 4.26262 4.22259
# Velocity P-wave (km/s) = 7.61539 7.71919 7.66747
#
# Compressibility (1/GPa) = 0.01543550
#
# Stress axis : x y z
#
# Youngs Moduli (GPa) = 87.39297 90.71862 96.59231
#
# Poissons Ratio (x) = 0.20528 0.41487
# Poissons Ratio (y) = 0.19775 0.20609
# Poissons Ratio (z) = 0.37536 0.19356
#
# Static dielectric constant tensor:
#      x y z
#    x 1.638840 0.000000 0.000000 
#    y 0.000000 1.628450 0.000000 
#    z 0.000000 0.000000 1.638670 
# 
# From -- ./inp_files/16988.got.cif
#   From: 2010.05.17/outbox.cif.g08.bks.cpg/sg62_9_cif.got.tgz:16988.got - 2010.06.03 15:25:27.
