data_PCOD9466906
_publ_section_title
;
Structure prediction by ZEFSAII (Michael W. Deem and Ramdas Pophale) SiO2 
 PCOD9466906
Probable space group: P N M A
;
_chemical_formula_sum "Si O2"
_cell_formula_units_Z 64
_cell_length_a 14.710172
_cell_length_b 21.699584
_cell_length_c 7.717067
_cell_angle_alpha 90.000000
_cell_angle_beta 90.000000
_cell_angle_gamma 90.000000
_cell_volume 2463.323385
_symmetry_space_group_name_H-M "P N M A"
_symmetry_group_IT_number 62
_symmetry_cell_setting 'orthorhombic'
loop_
_space_group_symop_operation_xyz
x,y,z
1/2-x,-y,1/2+z
1/2+x,1/2-y,1/2-z
-x,1/2+y,-z
-x,-y,-z
1/2+x,y,1/2-z
1/2-x,1/2+y,1/2+z
x,1/2-y,z
loop_
_atom_site_type_symbol
_atom_site_label
_atom_site_fract_x
_atom_site_fract_y
_atom_site_fract_z
Si Si1 0.212091 0.316184 0.834537
Si Si2 0.129609 0.679850 0.603952
Si Si3 0.904701 0.605981 0.732190
Si Si4 0.291508 0.075562 0.345569
Si Si5 0.469598 0.420480 0.932419
Si Si6 0.017686 0.314463 0.011055
Si Si7 0.463561 0.562486 0.424732
Si Si8 0.712982 0.552265 0.267351
O O1 0.232391 0.250000 0.742431
O O2 0.274065 0.316017 0.005974
O O3 0.107457 0.313455 0.890993
O O4 0.236081 0.382275 0.755615
O O5 0.109227 0.750000 0.658534
O O6 0.146068 0.625042 0.744444
O O7 0.058909 0.651239 0.463892
O O8 0.807956 0.607536 0.644197
O O9 0.976004 0.568518 0.612851
O O10 0.948862 0.670886 0.792606
O O11 0.889431 0.577750 0.925672
O O12 0.318814 0.054833 0.535761
O O13 0.273500 0.009176 0.254723
O O14 0.540736 0.437339 0.781254
O O15 0.372898 0.449056 0.867489
O O16 0.969232 0.250000 0.991770
O O17 0.972101 0.377002 0.951148
O O18 0.500000 0.500000 0.500000
#
# Coordination Sequence:
#
# PCOD9466906 Si02
#       8
#     8   8   8   8   8   8   8   8
#     4   9  18  40  67  94 131 179 232 297 363 431
#     4  10  22  44  72 101 142 191 245 308 372 448
#     4  10  25  44  70 102 140 193 247 305 363 447
#     4  12  25  44  72 106 141 198 254 313 374 455
#     4  11  25  46  67 105 147 195 242 304 382 451
#     4   9  20  41  68  98 137 181 236 302 361 426
#     4  10  23  40  68 101 139 185 234 296 367 439
#     4  11  26  41  69 104 146 190 251 312 381 456
#
# _framework density 25.981159999999999
#
# number of rings (size 3 to 8) (size 9 to 14) (size 15 to 20)
#    0.750    1.000    1.250    2.250    3.500    3.500 
#    0.000    0.000    0.000    0.000    0.000    0.000 
#    0.000    0.000    0.000    0.000    0.000    0.000 
#
# Total GULP energy -356699.411266 kJ/mol
# GULP energy per Si atom -5573.428301 kJ/mol
# Density = 2.592203 g / cm^3
# Si number density = 25.981160 Si / 1000 Ang^3
#
#
#
# Elastic Constant Matrix: (Units=GPa)
#
#
# Indices 1 2 3 4 5 6 
#
# 1 90.2911 33.3380 30.0811 0.0000 0.0000 0.0000
# 2 33.3380 237.5492 61.6309 0.0000 0.0000 0.0000
# 3 30.0811 61.6309 115.4801 0.0000 0.0000 0.0000
# 4 0.0000 0.0000 0.0000 27.7535 0.0000 0.0000
# 5 0.0000 0.0000 0.0000 0.0000 31.6781 0.0000
# 6 0.0000 0.0000 0.0000 0.0000 0.0000 35.0229
#
#
#
# Elastic Compliance Matrix: (Units=1/GPa)
#
#
# Indices 1 2 3 4 5 6 
#
# 1 0.012346 -0.001043 -0.002660 0.000000 0.000000 0.000000
# 2 -0.001043 0.004974 -0.002383 0.000000 0.000000 0.000000
# 3 -0.002660 -0.002383 0.010624 0.000000 0.000000 0.000000
# 4 0.000000 0.000000 0.000000 0.036031 0.000000 0.000000
# 5 0.000000 0.000000 0.000000 0.000000 0.031568 0.000000
# 6 0.000000 0.000000 0.000000 0.000000 0.000000 0.028553
#
#
# Mechanical properties :
#
#
# Convention : Reuss Voigt Hill
#
# Bulk Modulus (GPa) = 63.39565 77.04670 70.22117
# Shear Modulus (GPa) = 35.32936 40.10893 37.71915
#
# Velocity S-wave (km/s) = 3.69156 3.93335 3.81437
# Velocity P-wave (km/s) = 6.52868 7.09560 6.81804
#
# Compressibility (1/GPa) = 0.01577395
#
# Stress axis : x y z
#
# Youngs Moduli (GPa) = 80.99565 201.03430 94.12519
#
# Poissons Ratio (x) = 0.20962 0.25033
# Poissons Ratio (y) = 0.08445 0.22431
# Poissons Ratio (z) = 0.21542 0.47909
#
# Static dielectric constant tensor:
#      x y z
#    x 2.081000 0.000000 0.000000 
#    y 0.000000 2.178340 0.000000 
#    z 0.000000 0.000000 2.077330 
# 
# From -- ./inp_files/9581.got.cif
#   From: 2010.05.17/outbox.cif.g08.bks.cpg/sg62_5_cif.got.tgz:9581.got - 2010.06.03 15:25:27.
