data_PCOD9466840
_publ_section_title
;
Structure prediction by ZEFSAII (Michael W. Deem and Ramdas Pophale) SiO2 
 PCOD9466840
Probable space group: P N M A
;
_chemical_formula_sum "Si O2"
_cell_formula_units_Z 28
_cell_length_a 13.721334
_cell_length_b 7.765252
_cell_length_c 12.191086
_cell_angle_alpha 90.000000
_cell_angle_beta 90.000000
_cell_angle_gamma 90.000000
_cell_volume 1298.955535
_symmetry_space_group_name_H-M "P N M A"
_symmetry_group_IT_number 62
_symmetry_cell_setting 'orthorhombic'
loop_
_space_group_symop_operation_xyz
x,y,z
1/2-x,-y,1/2+z
1/2+x,1/2-y,1/2-z
-x,1/2+y,-z
-x,-y,-z
1/2+x,y,1/2-z
1/2-x,1/2+y,1/2+z
x,1/2-y,z
loop_
_atom_site_type_symbol
_atom_site_label
_atom_site_fract_x
_atom_site_fract_y
_atom_site_fract_z
Si Si1 0.614220 0.250000 0.563186
Si Si2 0.984285 0.750000 0.273832
Si Si3 0.199787 0.942001 0.056314
Si Si4 0.299512 0.250000 0.773197
Si Si5 0.913957 0.049750 0.417537
O O1 0.520717 0.250000 0.642292
O O2 0.625445 0.418661 0.488916
O O3 0.708363 0.250000 0.646118
O O4 0.929773 0.580806 0.316859
O O5 0.092799 0.750000 0.323190
O O6 0.186014 0.750000 0.009076
O O7 0.199804 0.911190 0.187948
O O8 0.308826 0.007628 0.031069
O O9 0.918744 0.250000 0.387817
O O10 0.000000 0.000000 0.500000
#
# Coordination Sequence:
#
# PCOD9466840 Si02
#       5
#     4   4   8   4   8
#     4  12  22  42  71  90 135 180 211 278 326 385
#     4  12  24  42  66  96 135 172 219 268 324 400
#     4  10  22  43  62  94 134 170 214 270 326 388
#     4  10  24  46  61  98 136 168 222 272 322 395
#     4  12  21  39  69  99 127 166 224 278 326 370
#
# _framework density 21.555779999999999
#
# number of rings (size 3 to 8) (size 9 to 14) (size 15 to 20)
#    0.857    0.000    7.143    1.714    0.000    2.286 
#    5.143    0.000    0.000    0.000    0.000    0.000 
#    0.000    0.000    0.000    0.000    0.000    0.000 
#
# Total GULP energy -156373.408004 kJ/mol
# GULP energy per Si atom -5584.764572 kJ/mol
# Density = 2.150672 g / cm^3
# Si number density = 21.555780 Si / 1000 Ang^3
#
#
#
# Elastic Constant Matrix: (Units=GPa)
#
#
# Indices 1 2 3 4 5 6 
#
# 1 59.0064 9.8324 -10.3953 0.0000 0.0000 0.0000
# 2 9.8324 191.3770 28.8994 0.0000 0.0000 0.0000
# 3 -10.3953 28.8994 50.0494 0.0000 0.0000 0.0000
# 4 0.0000 0.0000 0.0000 36.8829 0.0000 0.0000
# 5 0.0000 0.0000 0.0000 0.0000 43.8094 0.0000
# 6 0.0000 0.0000 0.0000 0.0000 0.0000 11.6646
#
#
#
# Elastic Compliance Matrix: (Units=1/GPa)
#
#
# Indices 1 2 3 4 5 6 
#
# 1 0.018047 -0.001636 0.004693 0.000000 0.000000 0.000000
# 2 -0.001636 0.005873 -0.003731 0.000000 0.000000 0.000000
# 3 0.004693 -0.003731 0.023109 0.000000 0.000000 0.000000
# 4 0.000000 0.000000 0.000000 0.027113 0.000000 0.000000
# 5 0.000000 0.000000 0.000000 0.000000 0.022826 0.000000
# 6 0.000000 0.000000 0.000000 0.000000 0.000000 0.085730
#
#
# Mechanical properties :
#
#
# Convention : Reuss Voigt Hill
#
# Bulk Modulus (GPa) = 21.89092 39.67843 30.78468
# Shear Modulus (GPa) = 25.09135 36.61112 30.85123
#
# Velocity S-wave (km/s) = 3.41547 4.12568 3.78726
# Velocity P-wave (km/s) = 5.07262 6.41422 5.78246
#
# Compressibility (1/GPa) = 0.04568104
#
# Stress axis : x y z
#
# Youngs Moduli (GPa) = 55.41198 170.27916 43.27280
#
# Poissons Ratio (x) = 0.27855 -0.20307
# Poissons Ratio (y) = 0.09065 0.16144
# Poissons Ratio (z) = -0.26004 0.63527
#
# Static dielectric constant tensor:
#      x y z
#    x 1.801370 0.000000 0.000000 
#    y 0.000000 1.792820 0.000000 
#    z 0.000000 0.000000 1.827320 
# 
# From -- ./inp_files/12724.got.cif
#   From: 2010.05.17/outbox.cif.g08.bks.cpg/sg62_7_cif.got.tgz:12724.got - 2010.06.03 15:25:27.
