data_PCOD9466524
_publ_section_title
;
Structure prediction by ZEFSAII (Michael W. Deem and Ramdas Pophale) SiO2 
 PCOD9466524
Probable space group: P N M A
;
_chemical_formula_sum "Si O2"
_cell_formula_units_Z 48
_cell_length_a 14.564269
_cell_length_b 8.822981
_cell_length_c 20.339151
_cell_angle_alpha 90.000000
_cell_angle_beta 90.000000
_cell_angle_gamma 90.000000
_cell_volume 2613.586368
_symmetry_space_group_name_H-M "P N M A"
_symmetry_group_IT_number 62
_symmetry_cell_setting 'orthorhombic'
loop_
_space_group_symop_operation_xyz
x,y,z
1/2-x,-y,1/2+z
1/2+x,1/2-y,1/2-z
-x,1/2+y,-z
-x,-y,-z
1/2+x,y,1/2-z
1/2-x,1/2+y,1/2+z
x,1/2-y,z
loop_
_atom_site_type_symbol
_atom_site_label
_atom_site_fract_x
_atom_site_fract_y
_atom_site_fract_z
Si Si1 0.226539 0.570373 0.790044
Si Si2 0.835174 0.431220 0.831746
Si Si3 0.527489 0.069074 0.882004
Si Si4 0.162630 0.430837 0.423691
Si Si5 0.468260 0.930846 0.273831
Si Si6 0.213573 0.569324 0.558709
O O1 0.231179 0.750000 0.777076
O O2 0.271296 0.482921 0.728876
O O3 0.283587 0.537696 0.856029
O O4 0.121681 0.518461 0.796964
O O5 0.828849 0.250000 0.838557
O O6 0.939309 0.472046 0.812534
O O7 0.796930 0.509883 0.896807
O O8 0.532350 0.250000 0.891962
O O9 0.517952 0.039313 0.803946
O O10 0.438610 0.001925 0.917864
O O11 0.620175 0.993171 0.907995
O O12 0.155414 0.250000 0.432023
O O13 0.214163 0.502815 0.485500
O O14 0.453476 0.750000 0.280834
O O15 0.211825 0.750000 0.557590
#
# Coordination Sequence:
#
# PCOD9466524 Si02
#       6
#     8   8   8   8   8   8
#     4  11  23  38  62  91 121 156 199 248 296 351
#     4  11  22  40  63  88 120 158 200 245 295 355
#     4  11  21  37  61  91 124 160 197 245 301 358
#     4  11  24  41  60  88 124 163 201 248 301 356
#     4  10  22  38  62  91 121 158 199 244 296 353
#     4  12  25  40  60  89 122 161 202 248 302 358
#
# _framework density 18.365569000000001
#
# number of rings (size 3 to 8) (size 9 to 14) (size 15 to 20)
#    0.000    1.000    3.333    4.000    0.000    4.000 
#    0.000    0.833    0.000    0.000    0.000    0.000 
#    0.000    0.000    0.000    0.000    0.000    0.000 
#
# Total GULP energy -268511.604193 kJ/mol
# GULP energy per Si atom -5593.991754 kJ/mol
# Density = 1.832377 g / cm^3
# Si number density = 18.365569 Si / 1000 Ang^3
#
#
#
# Elastic Constant Matrix: (Units=GPa)
#
#
# Indices 1 2 3 4 5 6 
#
# 1 63.8130 15.2416 -7.9718 0.0000 0.0000 0.0000
# 2 15.2416 58.9513 20.2576 0.0000 0.0000 0.0000
# 3 -7.9718 20.2576 32.7783 0.0000 0.0000 0.0000
# 4 0.0000 0.0000 0.0000 31.2195 0.0000 0.0000
# 5 0.0000 0.0000 0.0000 0.0000 24.8190 0.0000
# 6 0.0000 0.0000 0.0000 0.0000 0.0000 30.4880
#
#
#
# Elastic Compliance Matrix: (Units=1/GPa)
#
#
# Indices 1 2 3 4 5 6 
#
# 1 0.018827 -0.008178 0.009633 0.000000 0.000000 0.000000
# 2 -0.008178 0.025089 -0.017495 0.000000 0.000000 0.000000
# 3 0.009633 -0.017495 0.043663 0.000000 0.000000 0.000000
# 4 0.000000 0.000000 0.000000 0.032031 0.000000 0.000000
# 5 0.000000 0.000000 0.000000 0.000000 0.040292 0.000000
# 6 0.000000 0.000000 0.000000 0.000000 0.000000 0.032800
#
#
# Mechanical properties :
#
#
# Convention : Reuss Voigt Hill
#
# Bulk Modulus (GPa) = 18.01785 23.39971 20.70878
# Shear Modulus (GPa) = 20.55234 25.83966 23.19600
#
# Velocity S-wave (km/s) = 3.34888 3.75502 3.55775
# Velocity P-wave (km/s) = 4.97848 5.61863 5.30821
#
# Compressibility (1/GPa) = 0.05550052
#
# Stress axis : x y z
#
# Youngs Moduli (GPa) = 53.11383 39.85771 22.90283
#
# Poissons Ratio (x) = 0.32596 -0.22062
# Poissons Ratio (y) = 0.43437 0.40067
# Poissons Ratio (z) = -0.51165 0.69729
#
# Static dielectric constant tensor:
#      x y z
#    x 1.607400 0.000000 0.000000 
#    y 0.000000 1.611740 0.000000 
#    z 0.000000 0.000000 1.622130 
# 
# From -- ./inp_files/23657.got.cif
#   From: 2010.05.17/outbox.cif.g08.bks.cpg/sg62_12_cif.got.tgz:23657.got - 2010.06.03 15:25:27.
