data_PCOD9466576
_publ_section_title
;
Structure prediction by ZEFSAII (Michael W. Deem and Ramdas Pophale) SiO2 
 PCOD9466576
Probable space group: P N M A
;
_chemical_formula_sum "Si O2"
_cell_formula_units_Z 56
_cell_length_a 19.621555
_cell_length_b 15.579473
_cell_length_c 8.248821
_cell_angle_alpha 90.000000
_cell_angle_beta 90.000000
_cell_angle_gamma 90.000000
_cell_volume 2521.610850
_symmetry_space_group_name_H-M "P N M A"
_symmetry_group_IT_number 62
_symmetry_cell_setting 'orthorhombic'
loop_
_space_group_symop_operation_xyz
x,y,z
1/2-x,-y,1/2+z
1/2+x,1/2-y,1/2-z
-x,1/2+y,-z
-x,-y,-z
1/2+x,y,1/2-z
1/2-x,1/2+y,1/2+z
x,1/2-y,z
loop_
_atom_site_type_symbol
_atom_site_label
_atom_site_fract_x
_atom_site_fract_y
_atom_site_fract_z
Si Si1 0.942922 0.850665 0.772923
Si Si2 0.764899 0.839004 0.428602
Si Si3 0.087167 0.149276 0.857587
Si Si4 0.563866 0.525257 0.826747
Si Si5 0.652934 0.465990 0.085926
Si Si6 0.821986 0.154564 0.255086
Si Si7 0.251363 0.884623 0.404679
O O1 0.943983 0.750000 0.725683
O O2 0.873395 0.898137 0.716014
O O3 0.001241 0.910077 0.695805
O O4 0.948570 0.855164 0.966639
O O5 0.803790 0.750000 0.441009
O O6 0.819339 0.913683 0.432153
O O7 0.720974 0.846150 0.590045
O O8 0.725400 0.839164 0.260030
O O9 0.080402 0.250000 0.802214
O O10 0.167619 0.131070 0.897742
O O11 0.057356 0.070564 0.749200
O O12 0.625355 0.577236 0.742289
O O13 0.590105 0.519697 0.013217
O O14 0.718124 0.522498 0.129261
O O15 0.854366 0.250000 0.265982
O O16 0.778042 0.143200 0.420730
#
# Coordination Sequence:
#
# PCOD9466576 Si02
#       7
#     8   8   8   8   8   8   8
#     4  11  25  44  67  92 126 175 224 271 322 386
#     4  11  22  38  63  95 132 171 213 269 331 391
#     4  11  23  40  65  94 127 170 217 270 331 389
#     4  11  23  42  64  93 129 175 219 273 322 382
#     4  11  24  38  64  95 128 165 217 265 333 393
#     4  10  22  39  64  98 134 176 220 268 331 396
#     4  11  23  39  64  99 135 168 211 273 339 394
#
# _framework density 22.208027000000001
#
# number of rings (size 3 to 8) (size 9 to 14) (size 15 to 20)
#    0.000    1.143    1.429    4.714    6.000    2.857 
#    0.000    0.000    0.000    1.714    0.000    0.000 
#    0.000    0.000    0.000    0.000    0.000    0.000 
#
# Total GULP energy -312105.344363 kJ/mol
# GULP energy per Si atom -5573.309721 kJ/mol
# Density = 2.215748 g / cm^3
# Si number density = 22.208027 Si / 1000 Ang^3
#
#
#
# Elastic Constant Matrix: (Units=GPa)
#
#
# Indices 1 2 3 4 5 6 
#
# 1 31.0143 25.2694 1.6241 0.0000 0.0000 0.0000
# 2 25.2694 159.6531 5.1097 0.0000 0.0000 0.0000
# 3 1.6241 5.1097 84.5228 0.0000 0.0000 0.0000
# 4 0.0000 0.0000 0.0000 156.1201 0.0000 0.0000
# 5 0.0000 0.0000 0.0000 0.0000 24.0271 0.0000
# 6 0.0000 0.0000 0.0000 0.0000 0.0000 3.6192
#
#
#
# Elastic Compliance Matrix: (Units=1/GPa)
#
#
# Indices 1 2 3 4 5 6 
#
# 1 0.037028 -0.005849 -0.000358 0.000000 0.000000 0.000000
# 2 -0.005849 0.007200 -0.000323 0.000000 0.000000 0.000000
# 3 -0.000358 -0.000323 0.011858 0.000000 0.000000 0.000000
# 4 0.000000 0.000000 0.000000 0.006405 0.000000 0.000000
# 5 0.000000 0.000000 0.000000 0.000000 0.041620 0.000000
# 6 0.000000 0.000000 0.000000 0.000000 0.000000 0.276307
#
#
# Mechanical properties :
#
#
# Convention : Reuss Voigt Hill
#
# Bulk Modulus (GPa) = 23.24226 37.68853 30.46540
# Shear Modulus (GPa) = 12.26036 52.96573 32.61305
#
# Velocity S-wave (km/s) = 2.35216 4.88893 3.83629
# Velocity P-wave (km/s) = 4.22674 6.99116 5.77675
#
# Compressibility (1/GPa) = 0.04302507
#
# Stress axis : x y z
#
# Youngs Moduli (GPa) = 27.00681 138.89451 84.33468
#
# Poissons Ratio (x) = 0.81242 0.03018
# Poissons Ratio (y) = 0.15797 0.02723
# Poissons Ratio (z) = 0.00967 0.04484
#
# Static dielectric constant tensor:
#      x y z
#    x 1.876730 0.000000 0.000000 
#    y 0.000000 -0.461490 0.000000 
#    z 0.000000 0.000000 1.852460 
# 
# From -- ./inp_files/8731.got.cif
#   From: 2010.05.17/outbox.cif.g08.bks.cpg/sg62_5_cif.got.tgz:8731.got - 2010.06.03 15:25:27.
