data_PCOD9466866
_publ_section_title
;
Structure prediction by ZEFSAII (Michael W. Deem and Ramdas Pophale) SiO2 
 PCOD9466866
Probable space group: P N M A
;
_chemical_formula_sum "Si O2"
_cell_formula_units_Z 44
_cell_length_a 14.403221
_cell_length_b 16.862355
_cell_length_c 8.146044
_cell_angle_alpha 90.000000
_cell_angle_beta 90.000000
_cell_angle_gamma 90.000000
_cell_volume 1978.447836
_symmetry_space_group_name_H-M "P N M A"
_symmetry_group_IT_number 62
_symmetry_cell_setting 'orthorhombic'
loop_
_space_group_symop_operation_xyz
x,y,z
1/2-x,-y,1/2+z
1/2+x,1/2-y,1/2-z
-x,1/2+y,-z
-x,-y,-z
1/2+x,y,1/2-z
1/2-x,1/2+y,1/2+z
x,1/2-y,z
loop_
_atom_site_type_symbol
_atom_site_label
_atom_site_fract_x
_atom_site_fract_y
_atom_site_fract_z
Si Si1 0.193432 0.750000 0.795767
Si Si2 0.785190 0.596605 0.840230
Si Si3 0.585034 0.750000 0.394612
Si Si4 0.547006 0.402954 0.880901
Si Si5 0.033728 0.407515 0.971017
Si Si6 0.956969 0.250000 0.505590
Si Si7 0.846523 0.472172 0.600595
O O1 0.248613 0.829668 0.759673
O O2 0.173890 0.750000 0.990031
O O3 0.109119 0.750000 0.655864
O O4 0.786522 0.515146 0.738149
O O5 0.891570 0.608668 0.889163
O O6 0.716509 0.585938 0.994288
O O7 0.535736 0.667807 0.456709
O O8 0.589190 0.750000 0.194000
O O9 0.588688 0.397339 0.700580
O O10 0.523576 0.326054 0.986131
O O11 0.442346 0.433947 0.837258
O O12 0.610516 0.461303 0.981963
O O13 0.000000 0.500000 0.000000
#
# Coordination Sequence:
#
# PCOD9466866 Si02
#       7
#     4   8   4   8   8   4   8
#     4  12  27  44  71 100 145 178 226 299 353 416
#     4  12  26  42  66 104 138 179 230 297 353 417
#     4  10  27  43  71 105 134 185 241 278 360 431
#     4  10  22  43  67  95 126 184 222 276 345 421
#     4  11  23  44  72  94 137 183 232 287 346 430
#     4  10  22  45  70  95 135 177 227 283 339 421
#     4  11  24  39  66 100 135 171 234 278 346 422
#
# _framework density 22.239657999999999
#
# number of rings (size 3 to 8) (size 9 to 14) (size 15 to 20)
#    0.000    1.091    3.636    1.636    7.636    0.727 
#    3.273    0.000    0.000    0.000    0.000    0.000 
#    0.000    0.000    0.000    0.000    0.000    0.000 
#
# Total GULP energy -245310.852089 kJ/mol
# GULP energy per Si atom -5575.246638 kJ/mol
# Density = 2.218904 g / cm^3
# Si number density = 22.239658 Si / 1000 Ang^3
#
#
#
# Elastic Constant Matrix: (Units=GPa)
#
#
# Indices 1 2 3 4 5 6 
#
# 1 39.1934 -2.8228 2.5167 0.0000 0.0000 0.0000
# 2 -2.8228 52.1041 -18.7154 0.0000 0.0000 0.0000
# 3 2.5167 -18.7154 38.3039 0.0000 0.0000 0.0000
# 4 0.0000 0.0000 0.0000 40.5247 0.0000 0.0000
# 5 0.0000 0.0000 0.0000 0.0000 21.9825 0.0000
# 6 0.0000 0.0000 0.0000 0.0000 0.0000 31.6486
#
#
#
# Elastic Compliance Matrix: (Units=1/GPa)
#
#
# Indices 1 2 3 4 5 6 
#
# 1 0.025661 0.000952 -0.001221 0.000000 0.000000 0.000000
# 2 0.000952 0.023313 0.011328 0.000000 0.000000 0.000000
# 3 -0.001221 0.011328 0.031722 0.000000 0.000000 0.000000
# 4 0.000000 0.000000 0.000000 0.024676 0.000000 0.000000
# 5 0.000000 0.000000 0.000000 0.000000 0.045491 0.000000
# 6 0.000000 0.000000 0.000000 0.000000 0.000000 0.031597
#
#
# Mechanical properties :
#
#
# Convention : Reuss Voigt Hill
#
# Bulk Modulus (GPa) = 9.72629 10.17317 9.94973
# Shear Modulus (GPa) = 25.69183 28.73936 27.21559
#
# Velocity S-wave (km/s) = 3.40255 3.59870 3.50200
# Velocity P-wave (km/s) = 4.45189 4.67459 4.56460
#
# Compressibility (1/GPa) = 0.10281411
#
# Stress axis : x y z
#
# Youngs Moduli (GPa) = 38.96899 42.89472 31.52362
#
# Poissons Ratio (x) = -0.04082 0.03849
# Poissons Ratio (y) = -0.03708 -0.35711
# Poissons Ratio (z) = 0.04758 -0.48592
#
# Static dielectric constant tensor:
#      x y z
#    x 1.828850 0.000000 0.000000 
#    y 0.000000 1.841700 0.000000 
#    z 0.000000 0.000000 1.915850 
# 
# From -- ./inp_files/6373.got.cif
#   From: 2010.05.17/outbox.cif.g08.bks.cpg/sg62_4_cif.got.tgz:6373.got - 2010.06.03 15:25:27.
