data_PCOD9466357
_publ_section_title
;
Structure prediction by ZEFSAII (Michael W. Deem and Ramdas Pophale) SiO2 
 PCOD9466357
Probable space group: P N M A
;
_chemical_formula_sum "Si O2"
_cell_formula_units_Z 64
_cell_length_a 16.963251
_cell_length_b 8.523734
_cell_length_c 22.680423
_cell_angle_alpha 90.000000
_cell_angle_beta 90.000000
_cell_angle_gamma 90.000000
_cell_volume 3279.367789
_symmetry_space_group_name_H-M "P N M A"
_symmetry_group_IT_number 62
_symmetry_cell_setting 'orthorhombic'
loop_
_space_group_symop_operation_xyz
x,y,z
1/2-x,-y,1/2+z
1/2+x,1/2-y,1/2-z
-x,1/2+y,-z
-x,-y,-z
1/2+x,y,1/2-z
1/2-x,1/2+y,1/2+z
x,1/2-y,z
loop_
_atom_site_type_symbol
_atom_site_label
_atom_site_fract_x
_atom_site_fract_y
_atom_site_fract_z
Si Si1 0.644268 0.560291 0.145294
Si Si2 0.417316 0.563887 0.732600
Si Si3 0.672346 0.936291 0.381651
Si Si4 0.094383 0.062122 0.762979
Si Si5 0.655066 0.936117 0.860566
Si Si6 0.319769 0.559247 0.383599
Si Si7 0.910898 0.560988 0.998997
Si Si8 0.993302 0.938601 0.433675
O O1 0.644449 0.750000 0.150824
O O2 0.630403 0.488851 0.209589
O O3 0.728564 0.510877 0.119304
O O4 0.571304 0.516639 0.103412
O O5 0.428660 0.750000 0.733293
O O6 0.371146 0.513111 0.674210
O O7 0.502499 0.481533 0.734859
O O8 0.662868 0.750000 0.377962
O O9 0.764009 0.981620 0.379156
O O10 0.633187 0.998654 0.441365
O O11 0.102537 0.250000 0.756946
O O12 0.135960 0.011438 0.823714
O O13 0.133715 0.982788 0.706332
O O14 0.664635 0.750000 0.865345
O O15 0.582820 0.991694 0.901216
O O16 0.320866 0.750000 0.384372
O O17 0.365279 0.507056 0.442004
O O18 0.911279 0.750000 0.998021
O O19 0.000000 0.500000 0.000000
O O20 0.987876 0.750000 0.433516
O O21 0.000000 0.000000 0.500000
#
# Coordination Sequence:
#
# PCOD9466357 Si02
#       8
#     8   8   8   8   8   8   8   8
#     4  10  21  41  66  93 126 170 216 263 322 385
#     4  12  24  40  64  96 130 169 216 270 328 387
#     4  12  26  44  66  94 129 171 220 276 334 391
#     4  11  21  39  66  96 131 173 216 262 323 389
#     4  12  25  43  66  96 132 170 218 274 328 389
#     4   9  21  39  64  93 123 163 210 262 316 377
#     4  11  23  43  68  97 132 171 216 264 323 389
#     4  11  24  41  66  96 133 176 219 266 326 387
#
# _framework density 19.515957
#
# number of rings (size 3 to 8) (size 9 to 14) (size 15 to 20)
#    0.000    1.000    1.250    6.000    1.750    2.500 
#    0.000    3.750    0.000    0.000    0.000    0.000 
#    0.000    0.000    0.000    0.000    0.000    0.000 
#
# Total GULP energy -358174.579652 kJ/mol
# GULP energy per Si atom -5596.477807 kJ/mol
# Density = 1.947154 g / cm^3
# Si number density = 19.515957 Si / 1000 Ang^3
#
#
#
# Elastic Constant Matrix: (Units=GPa)
#
#
# Indices 1 2 3 4 5 6 
#
# 1 111.7679 -20.7899 49.4858 0.0000 0.0000 0.0000
# 2 -20.7899 30.6772 0.6278 0.0000 0.0000 0.0000
# 3 49.4858 0.6278 159.3868 0.0000 0.0000 0.0000
# 4 0.0000 0.0000 0.0000 30.0798 0.0000 0.0000
# 5 0.0000 0.0000 0.0000 0.0000 7.9915 0.0000
# 6 0.0000 0.0000 0.0000 0.0000 0.0000 27.3283
#
#
#
# Elastic Compliance Matrix: (Units=1/GPa)
#
#
# Indices 1 2 3 4 5 6 
#
# 1 0.012188 0.008338 -0.003817 0.000000 0.000000 0.000000
# 2 0.008338 0.038304 -0.002740 0.000000 0.000000 0.000000
# 3 -0.003817 -0.002740 0.007470 0.000000 0.000000 0.000000
# 4 0.000000 0.000000 0.000000 0.033245 0.000000 0.000000
# 5 0.000000 0.000000 0.000000 0.000000 0.125132 0.000000
# 6 0.000000 0.000000 0.000000 0.000000 0.000000 0.036592
#
#
# Mechanical properties :
#
#
# Convention : Reuss Voigt Hill
#
# Bulk Modulus (GPa) = 16.25362 40.05326 28.15344
# Shear Modulus (GPa) = 18.52696 31.24714 24.88705
#
# Velocity S-wave (km/s) = 3.08445 4.00573 3.57489
# Velocity P-wave (km/s) = 4.58602 6.47783 5.61222
#
# Compressibility (1/GPa) = 0.06152477
#
# Stress axis : x y z
#
# Youngs Moduli (GPa) = 82.04787 26.10686 133.87063
#
# Poissons Ratio (x) = -0.21768 0.51097
# Poissons Ratio (y) = -0.68411 0.36675
# Poissons Ratio (z) = 0.31317 0.07152
#
# Static dielectric constant tensor:
#      x y z
#    x 1.653220 0.000000 0.000000 
#    y 0.000000 1.659430 0.000000 
#    z 0.000000 0.000000 1.645630 
# 
# From -- ./inp_files/29873.got.cif
#   From: 2010.05.17/outbox.cif.g08.bks.cpg/sg62_15_cif.got.tgz:29873.got - 2010.06.03 15:25:27.
