data_PCOD9466661
_publ_section_title
;
Structure prediction by ZEFSAII (Michael W. Deem and Ramdas Pophale) SiO2 
 PCOD9466661
Probable space group: P N M A
;
_chemical_formula_sum "Si O2"
_cell_formula_units_Z 48
_cell_length_a 14.620373
_cell_length_b 26.789336
_cell_length_c 5.202040
_cell_angle_alpha 90.000000
_cell_angle_beta 90.000000
_cell_angle_gamma 90.000000
_cell_volume 2037.483448
_symmetry_space_group_name_H-M "P N M A"
_symmetry_group_IT_number 62
_symmetry_cell_setting 'orthorhombic'
loop_
_space_group_symop_operation_xyz
x,y,z
1/2-x,-y,1/2+z
1/2+x,1/2-y,1/2-z
-x,1/2+y,-z
-x,-y,-z
1/2+x,y,1/2-z
1/2-x,1/2+y,1/2+z
x,1/2-y,z
loop_
_atom_site_type_symbol
_atom_site_label
_atom_site_fract_x
_atom_site_fract_y
_atom_site_fract_z
Si Si1 0.754954 0.305842 0.120986
Si Si2 0.776723 0.028115 0.589391
Si Si3 0.649475 0.108593 0.835805
Si Si4 0.954424 0.417503 0.696607
Si Si5 0.560727 0.854057 0.712469
Si Si6 0.101492 0.195883 0.005509
O O1 0.735171 0.250000 0.002308
O O2 0.861867 0.315046 0.133679
O O3 0.704612 0.302482 0.394525
O O4 0.714544 0.358887 0.019868
O O5 0.716294 0.076818 0.655832
O O6 0.882435 0.037928 0.659426
O O7 0.760347 0.012576 0.295149
O O8 0.560498 0.073907 0.892342
O O9 0.596801 0.154265 0.704949
O O10 0.918279 0.377510 0.487383
O O11 0.946150 0.396557 0.988924
O O12 0.465138 0.824592 0.725394
O O13 0.071148 0.250000 0.920761
#
# Coordination Sequence:
#
# PCOD9466661 Si02
#       6
#     8   8   8   8   8   8
#     4  11  22  39  66  99 136 184 227 269 331 406
#     4  12  28  46  73 102 133 175 233 294 347 411
#     4  11  24  44  70  95 140 179 225 281 348 408
#     4  11  24  44  73  97 134 178 220 277 349 400
#     4  11  22  41  67 101 138 181 218 271 329 400
#     4  10  22  40  65 101 140 180 228 274 328 407
#
# _framework density 23.558472999999999
#
# number of rings (size 3 to 8) (size 9 to 14) (size 15 to 20)
#    0.000    1.000    3.333    3.000    2.333    1.333 
#    0.000    1.667    0.000    0.000    0.000    0.000 
#    0.000    0.000    0.000    0.000    0.000    0.000 
#
# Total GULP energy -267594.584712 kJ/mol
# GULP energy per Si atom -5574.887182 kJ/mol
# Density = 2.350485 g / cm^3
# Si number density = 23.558473 Si / 1000 Ang^3
#
#
#
# Elastic Constant Matrix: (Units=GPa)
#
#
# Indices 1 2 3 4 5 6 
#
# 1 59.9910 8.2251 3.9789 0.0000 0.0000 0.0000
# 2 8.2251 71.1742 7.4613 0.0000 0.0000 0.0000
# 3 3.9789 7.4613 42.6423 0.0000 0.0000 0.0000
# 4 0.0000 0.0000 0.0000 28.5200 0.0000 0.0000
# 5 0.0000 0.0000 0.0000 0.0000 21.0208 0.0000
# 6 0.0000 0.0000 0.0000 0.0000 0.0000 31.2638
#
#
#
# Elastic Compliance Matrix: (Units=1/GPa)
#
#
# Indices 1 2 3 4 5 6 
#
# 1 0.017004 -0.001832 -0.001266 0.000000 0.000000 0.000000
# 2 -0.001832 0.014510 -0.002368 0.000000 0.000000 0.000000
# 3 -0.001266 -0.002368 0.023983 0.000000 0.000000 0.000000
# 4 0.000000 0.000000 0.000000 0.035063 0.000000 0.000000
# 5 0.000000 0.000000 0.000000 0.000000 0.047572 0.000000
# 6 0.000000 0.000000 0.000000 0.000000 0.000000 0.031986
#
#
# Mechanical properties :
#
#
# Convention : Reuss Voigt Hill
#
# Bulk Modulus (GPa) = 22.43906 23.68201 23.06054
# Shear Modulus (GPa) = 25.52242 26.43708 25.97975
#
# Velocity S-wave (km/s) = 3.29502 3.35354 3.32441
# Velocity P-wave (km/s) = 4.90120 5.00692 4.95434
#
# Compressibility (1/GPa) = 0.04456514
#
# Stress axis : x y z
#
# Youngs Moduli (GPa) = 58.80845 68.91794 41.69556
#
# Poissons Ratio (x) = 0.12628 0.05279
# Poissons Ratio (y) = 0.10776 0.09873
# Poissons Ratio (z) = 0.07445 0.16319
#
# Static dielectric constant tensor:
#      x y z
#    x 1.964300 0.000000 0.000000 
#    y 0.000000 2.000900 0.000000 
#    z 0.000000 0.000000 1.909210 
# 
# From -- ./inp_files/1161.got.cif
#   From: 2010.05.17/outbox.cif.g08.bks.cpg/sg62_1_cif.got.tgz:1161.got - 2010.06.03 15:25:27.
