data_PCOD9466417
_publ_section_title
;
Structure prediction by ZEFSAII (Michael W. Deem and Ramdas Pophale) SiO2 
 PCOD9466417
Probable space group: P N M A
;
_chemical_formula_sum "Si O2"
_cell_formula_units_Z 48
_cell_length_a 11.745865
_cell_length_b 17.948836
_cell_length_c 11.502562
_cell_angle_alpha 90.000000
_cell_angle_beta 90.000000
_cell_angle_gamma 90.000000
_cell_volume 2425.023085
_symmetry_space_group_name_H-M "P N M A"
_symmetry_group_IT_number 62
_symmetry_cell_setting 'orthorhombic'
loop_
_space_group_symop_operation_xyz
x,y,z
1/2-x,-y,1/2+z
1/2+x,1/2-y,1/2-z
-x,1/2+y,-z
-x,-y,-z
1/2+x,y,1/2-z
1/2-x,1/2+y,1/2+z
x,1/2-y,z
loop_
_atom_site_type_symbol
_atom_site_label
_atom_site_fract_x
_atom_site_fract_y
_atom_site_fract_z
Si Si1 0.787027 0.660815 0.562837
Si Si2 0.144836 0.838935 0.163670
Si Si3 0.978845 0.071425 0.420176
Si Si4 0.589974 0.559457 0.657539
Si Si5 0.193637 0.664122 0.427254
Si Si6 0.425531 0.905126 0.458804
O O1 0.791024 0.750000 0.582598
O O2 0.745852 0.648040 0.429041
O O3 0.688563 0.620415 0.637885
O O4 0.907089 0.621457 0.584883
O O5 0.122956 0.750000 0.161967
O O6 0.174466 0.861554 0.294276
O O7 0.033025 0.880700 0.118763
O O8 0.939122 0.049149 0.291518
O O9 0.880515 0.117935 0.483221
O O10 0.000000 0.000000 0.500000
O O11 0.622599 0.482453 0.592950
O O12 0.477117 0.584217 0.586848
O O13 0.159326 0.750000 0.433498
O O14 0.325986 0.654226 0.454981
#
# Coordination Sequence:
#
# PCOD9466417 Si02
#       6
#     8   8   8   8   8   8
#     4  10  23  44  65  90 127 169 211 261 319 378
#     4   9  20  38  64  93 123 165 210 260 318 368
#     4  12  26  42  63  97 131 167 212 262 320 377
#     4  10  24  42  66  92 122 168 210 255 319 380
#     4  11  24  39  65  98 125 163 213 262 314 373
#     4  10  21  43  65  91 125 163 213 261 313 373
#
# _framework density 19.793624999999999
#
# number of rings (size 3 to 8) (size 9 to 14) (size 15 to 20)
#    0.000    1.667    0.000    3.000    7.000    2.000 
#    0.000    0.000    0.000    0.000    0.000    0.000 
#    0.000    0.000    0.000    0.000    0.000    0.000 
#
# Total GULP energy -268281.930337 kJ/mol
# GULP energy per Si atom -5589.206882 kJ/mol
# Density = 1.974857 g / cm^3
# Si number density = 19.793625 Si / 1000 Ang^3
#
#
#
# Elastic Constant Matrix: (Units=GPa)
#
#
# Indices 1 2 3 4 5 6 
#
# 1 45.9933 5.3798 10.8143 0.0000 0.0000 0.0000
# 2 5.3798 33.5647 8.9610 0.0000 0.0000 0.0000
# 3 10.8143 8.9610 119.6110 0.0000 0.0000 0.0000
# 4 0.0000 0.0000 0.0000 20.4653 0.0000 0.0000
# 5 0.0000 0.0000 0.0000 0.0000 10.7461 0.0000
# 6 0.0000 0.0000 0.0000 0.0000 0.0000 34.0546
#
#
#
# Elastic Compliance Matrix: (Units=1/GPa)
#
#
# Indices 1 2 3 4 5 6 
#
# 1 0.022532 -0.003130 -0.001803 0.000000 0.000000 0.000000
# 2 -0.003130 0.030836 -0.002027 0.000000 0.000000 0.000000
# 3 -0.001803 -0.002027 0.008675 0.000000 0.000000 0.000000
# 4 0.000000 0.000000 0.000000 0.048863 0.000000 0.000000
# 5 0.000000 0.000000 0.000000 0.000000 0.093057 0.000000
# 6 0.000000 0.000000 0.000000 0.000000 0.000000 0.029365
#
#
# Mechanical properties :
#
#
# Convention : Reuss Voigt Hill
#
# Bulk Modulus (GPa) = 20.77982 27.71990 24.24986
# Shear Modulus (GPa) = 18.99048 24.65414 21.82231
#
# Velocity S-wave (km/s) = 3.10082 3.53308 3.32398
# Velocity P-wave (km/s) = 4.83126 5.53881 5.19709
#
# Compressibility (1/GPa) = 0.04812362
#
# Stress axis : x y z
#
# Youngs Moduli (GPa) = 44.38073 32.42945 115.26995
#
# Poissons Ratio (x) = 0.10151 0.20779
# Poissons Ratio (y) = 0.13892 0.23367
# Poissons Ratio (z) = 0.08000 0.06574
#
# Static dielectric constant tensor:
#      x y z
#    x 1.657980 0.000000 0.000000 
#    y 0.000000 1.714110 0.000000 
#    z 0.000000 0.000000 1.674190 
# 
# From -- ./inp_files/12253.got.cif
#   From: 2010.05.17/outbox.cif.g08.bks.cpg/sg62_7_cif.got.tgz:12253.got - 2010.06.03 15:25:27.
