data_PCOD9466342
_publ_section_title
;
Structure prediction by ZEFSAII (Michael W. Deem and Ramdas Pophale) SiO2 
 PCOD9466342
Probable space group: P N M A
;
_chemical_formula_sum "Si O2"
_cell_formula_units_Z 64
_cell_length_a 8.331215
_cell_length_b 22.906795
_cell_length_c 14.933818
_cell_angle_alpha 90.000000
_cell_angle_beta 90.000000
_cell_angle_gamma 90.000000
_cell_volume 2849.991244
_symmetry_space_group_name_H-M "P N M A"
_symmetry_group_IT_number 62
_symmetry_cell_setting 'orthorhombic'
loop_
_space_group_symop_operation_xyz
x,y,z
1/2-x,-y,1/2+z
1/2+x,1/2-y,1/2-z
-x,1/2+y,-z
-x,-y,-z
1/2+x,y,1/2-z
1/2-x,1/2+y,1/2+z
x,1/2-y,z
loop_
_atom_site_type_symbol
_atom_site_label
_atom_site_fract_x
_atom_site_fract_y
_atom_site_fract_z
Si Si1 0.926032 0.615662 0.153378
Si Si2 0.943129 0.596494 0.643983
Si Si3 0.820942 0.621140 0.828788
Si Si4 0.967375 0.646528 0.454405
Si Si5 0.924599 0.499962 0.899515
Si Si6 0.540875 0.478179 0.900703
Si Si7 0.188174 0.186663 0.003388
Si Si8 0.241843 0.816281 0.200016
O O1 0.800046 0.638186 0.225327
O O2 0.976651 0.548425 0.156011
O O3 0.072476 0.659199 0.171010
O O4 0.874037 0.632134 0.053324
O O5 0.133807 0.608017 0.652536
O O6 0.891293 0.620295 0.546312
O O7 0.939838 0.525932 0.654784
O O8 0.851709 0.627612 0.724125
O O9 0.924848 0.565269 0.860691
O O10 0.855839 0.675023 0.893823
O O11 0.121186 0.682683 0.485353
O O12 0.013886 0.588463 0.397329
O O13 0.853794 0.681034 0.387644
O O14 0.735113 0.481372 0.893764
O O15 0.000000 0.500000 0.000000
O O16 0.500000 0.500000 0.000000
O O17 0.129250 0.250000 0.973233
O O18 0.235570 0.750000 0.234995
#
# Coordination Sequence:
#
# PCOD9466342 Si02
#       8
#     8   8   8   8   8   8   8   8
#     4  12  26  43  67  94 131 172 220 271 334 396
#     4   9  21  38  60  91 128 163 204 257 322 384
#     4  10  22  39  62  93 130 165 207 265 322 385
#     4  10  21  41  65  91 123 169 219 268 324 378
#     4  11  22  40  64 100 132 169 216 269 333 398
#     4   9  19  37  60  92 129 166 209 259 325 385
#     4  11  23  44  66  90 126 175 221 270 329 390
#     4  12  25  43  64  94 129 170 220 271 321 393
#
# _framework density 22.456209999999999
#
# number of rings (size 3 to 8) (size 9 to 14) (size 15 to 20)
#    0.000    1.500    2.500    3.000    1.750    3.000 
#    0.000    3.125    0.000    0.000    0.000    0.000 
#    0.000    0.000    0.000    0.000    0.000    0.000 
#
# Total GULP energy -357494.051561 kJ/mol
# GULP energy per Si atom -5585.844556 kJ/mol
# Density = 2.240510 g / cm^3
# Si number density = 22.456210 Si / 1000 Ang^3
#
#
#
# Elastic Constant Matrix: (Units=GPa)
#
#
# Indices 1 2 3 4 5 6 
#
# 1 22.3167 10.9197 4.2928 0.0000 0.0000 0.0000
# 2 10.9197 79.1930 1.8764 0.0000 0.0000 0.0000
# 3 4.2928 1.8764 86.5619 0.0000 0.0000 0.0000
# 4 0.0000 0.0000 0.0000 23.0745 0.0000 0.0000
# 5 0.0000 0.0000 0.0000 0.0000 25.2665 0.0000
# 6 0.0000 0.0000 0.0000 0.0000 0.0000 19.7982
#
#
#
# Elastic Compliance Matrix: (Units=1/GPa)
#
#
# Indices 1 2 3 4 5 6 
#
# 1 0.048490 -0.006633 -0.002261 0.000000 0.000000 0.000000
# 2 -0.006633 0.013541 0.000035 0.000000 0.000000 0.000000
# 3 -0.002261 0.000035 0.011664 0.000000 0.000000 0.000000
# 4 0.000000 0.000000 0.000000 0.043338 0.000000 0.000000
# 5 0.000000 0.000000 0.000000 0.000000 0.039578 0.000000
# 6 0.000000 0.000000 0.000000 0.000000 0.000000 0.050510
#
#
# Mechanical properties :
#
#
# Convention : Reuss Voigt Hill
#
# Bulk Modulus (GPa) = 17.86403 24.69439 21.27921
# Shear Modulus (GPa) = 20.53423 25.02669 22.78046
#
# Velocity S-wave (km/s) = 3.02721 3.34198 3.18848
# Velocity P-wave (km/s) = 4.49343 5.09042 4.80121
#
# Compressibility (1/GPa) = 0.05597841
#
# Stress axis : x y z
#
# Youngs Moduli (GPa) = 20.62291 73.84930 85.73550
#
# Poissons Ratio (x) = 0.48981 0.19384
# Poissons Ratio (y) = 0.13678 -0.00303
# Poissons Ratio (z) = 0.04663 -0.00261
#
# Static dielectric constant tensor:
#      x y z
#    x 1.848690 0.000000 0.000000 
#    y 0.000000 1.879360 0.000000 
#    z 0.000000 0.000000 1.919540 
# 
# From -- ./inp_files/17353.got.cif
#   From: 2010.05.17/outbox.cif.g08.bks.cpg/sg62_9_cif.got.tgz:17353.got - 2010.06.03 15:25:27.
