data_PCOD9466934
_publ_section_title
;
Structure prediction by ZEFSAII (Michael W. Deem and Ramdas Pophale) SiO2 
 PCOD9466934
Probable space group: P N M A
;
_chemical_formula_sum "Si O2"
_cell_formula_units_Z 64
_cell_length_a 29.633379
_cell_length_b 17.261979
_cell_length_c 5.267188
_cell_angle_alpha 90.000000
_cell_angle_beta 90.000000
_cell_angle_gamma 90.000000
_cell_volume 2694.328712
_symmetry_space_group_name_H-M "P N M A"
_symmetry_group_IT_number 62
_symmetry_cell_setting 'orthorhombic'
loop_
_space_group_symop_operation_xyz
x,y,z
1/2-x,-y,1/2+z
1/2+x,1/2-y,1/2-z
-x,1/2+y,-z
-x,-y,-z
1/2+x,y,1/2-z
1/2-x,1/2+y,1/2+z
x,1/2-y,z
loop_
_atom_site_type_symbol
_atom_site_label
_atom_site_fract_x
_atom_site_fract_y
_atom_site_fract_z
Si Si1 0.757897 0.947845 0.846368
Si Si2 0.999703 0.927614 0.810459
Si Si3 0.930133 0.031211 0.559973
Si Si4 0.167595 0.615808 0.797333
Si Si5 0.616745 0.664377 0.220472
Si Si6 0.168213 0.338524 0.336327
Si Si7 0.860295 0.947531 0.276217
Si Si8 0.421160 0.664871 0.522965
O O1 0.719802 0.884552 0.775723
O O2 0.804072 0.897990 0.841973
O O3 0.756509 0.009815 0.610162
O O4 0.973093 0.853712 0.914771
O O5 0.047734 0.922737 0.675777
O O6 0.963675 0.960905 0.607519
O O7 0.000000 0.000000 0.000000
O O8 0.921075 0.098198 0.762979
O O9 0.882502 0.990526 0.518702
O O10 0.152456 0.657994 0.051914
O O11 0.139968 0.646464 0.552548
O O12 0.159278 0.523756 0.854391
O O13 0.597141 0.750000 0.215441
O O14 0.184856 0.250000 0.333189
O O15 0.170343 0.379510 0.611051
O O16 0.115655 0.334055 0.250830
O O17 0.901797 0.906694 0.136991
O O18 0.417378 0.750000 0.399892
#
# Coordination Sequence:
#
# PCOD9466934 Si02
#       8
#     8   8   8   8   8   8   8   8
#     4  12  25  45  71 103 136 179 231 273 329 405
#     4  11  21  40  62  93 123 167 227 280 332 406
#     4  10  23  37  67  91 123 175 222 279 331 405
#     4  11  24  42  74  99 134 183 228 279 331 405
#     4  11  25  45  68 101 137 179 227 280 342 398
#     4  11  25  42  65 100 137 174 219 284 342 397
#     4  11  20  41  66  92 132 170 233 266 336 413
#     4  11  23  39  64  94 132 174 219 279 352 403
#
# _framework density 23.753599999999999
#
# number of rings (size 3 to 8) (size 9 to 14) (size 15 to 20)
#    0.000    1.000    3.750    3.000    5.250    1.500 
#    0.000    0.625    0.000    0.000    0.000    0.000 
#    0.000    0.000    0.000    0.000    0.000    0.000 
#
# Total GULP energy -357017.987018 kJ/mol
# GULP energy per Si atom -5578.406047 kJ/mol
# Density = 2.369954 g / cm^3
# Si number density = 23.753600 Si / 1000 Ang^3
#
#
#
# Elastic Constant Matrix: (Units=GPa)
#
#
# Indices 1 2 3 4 5 6 
#
# 1 44.9283 6.8975 -1.0160 0.0000 0.0000 0.0000
# 2 6.8975 128.0008 13.9900 0.0000 0.0000 0.0000
# 3 -1.0160 13.9900 86.5351 0.0000 0.0000 0.0000
# 4 0.0000 0.0000 0.0000 22.2099 0.0000 0.0000
# 5 0.0000 0.0000 0.0000 0.0000 24.2503 0.0000
# 6 0.0000 0.0000 0.0000 0.0000 0.0000 24.4529
#
#
#
# Elastic Compliance Matrix: (Units=1/GPa)
#
#
# Indices 1 2 3 4 5 6 
#
# 1 0.022462 -0.001261 0.000468 0.000000 0.000000 0.000000
# 2 -0.001261 0.008024 -0.001312 0.000000 0.000000 0.000000
# 3 0.000468 -0.001312 0.011774 0.000000 0.000000 0.000000
# 4 0.000000 0.000000 0.000000 0.045025 0.000000 0.000000
# 5 0.000000 0.000000 0.000000 0.000000 0.041237 0.000000
# 6 0.000000 0.000000 0.000000 0.000000 0.000000 0.040895
#
#
# Mechanical properties :
#
#
# Convention : Reuss Voigt Hill
#
# Bulk Modulus (GPa) = 26.28283 33.24524 29.76403
# Shear Modulus (GPa) = 26.83698 30.15547 28.49622
#
# Velocity S-wave (km/s) = 3.36491 3.56689 3.46737
# Velocity P-wave (km/s) = 5.11719 5.56685 5.34675
#
# Compressibility (1/GPa) = 0.03804765
#
# Stress axis : x y z
#
# Youngs Moduli (GPa) = 44.51982 124.62878 84.93576
#
# Poissons Ratio (x) = 0.15722 -0.03972
# Poissons Ratio (y) = 0.05616 0.11144
# Poissons Ratio (z) = -0.02082 0.16351
#
# Static dielectric constant tensor:
#      x y z
#    x 2.031200 0.000000 0.000000 
#    y 0.000000 1.917490 0.000000 
#    z 0.000000 0.000000 2.104120 
# 
# From -- ./inp_files/3687.got.cif
#   From: 2010.05.17/outbox.cif.g08.bks.cpg/sg62_2_cif.got.tgz:3687.got - 2010.06.03 15:25:27.
