data_PCOD9466450
_publ_section_title
;
Structure prediction by ZEFSAII (Michael W. Deem and Ramdas Pophale) SiO2 
 PCOD9466450
Probable space group: P N M A
;
_chemical_formula_sum "Si O2"
_cell_formula_units_Z 60
_cell_length_a 15.238009
_cell_length_b 9.589702
_cell_length_c 20.034849
_cell_angle_alpha 90.000000
_cell_angle_beta 90.000000
_cell_angle_gamma 90.000000
_cell_volume 2927.651721
_symmetry_space_group_name_H-M "P N M A"
_symmetry_group_IT_number 62
_symmetry_cell_setting 'orthorhombic'
loop_
_space_group_symop_operation_xyz
x,y,z
1/2-x,-y,1/2+z
1/2+x,1/2-y,1/2-z
-x,1/2+y,-z
-x,-y,-z
1/2+x,y,1/2-z
1/2-x,1/2+y,1/2+z
x,1/2-y,z
loop_
_atom_site_type_symbol
_atom_site_label
_atom_site_fract_x
_atom_site_fract_y
_atom_site_fract_z
Si Si1 0.936821 0.408634 0.866456
Si Si2 0.435069 0.407910 0.794824
Si Si3 0.396975 0.410196 0.203085
Si Si4 0.764433 0.585957 0.889708
Si Si5 0.878603 0.502311 0.490416
Si Si6 0.508559 0.250000 0.967101
Si Si7 0.301969 0.589336 0.871647
Si Si8 0.103533 0.589542 0.864136
O O1 0.934886 0.250000 0.891232
O O2 0.935815 0.403110 0.785305
O O3 0.851605 0.494941 0.887075
O O4 0.025934 0.488241 0.886236
O O5 0.438535 0.250000 0.823251
O O6 0.520371 0.495215 0.815893
O O7 0.348843 0.487026 0.819882
O O8 0.415445 0.250000 0.182450
O O9 0.304453 0.448836 0.169984
O O10 0.391340 0.414581 0.283227
O O11 0.785791 0.750000 0.884294
O O12 0.708717 0.554017 0.955621
O O13 0.921633 0.625178 0.447645
O O14 0.856918 0.575143 0.560851
O O15 0.941609 0.372550 0.504483
O O16 0.303140 0.750000 0.847588
O O17 0.201382 0.551333 0.886612
O O18 0.084914 0.750000 0.883345
#
# Coordination Sequence:
#
# PCOD9466450 Si02
#       8
#     8   8   8   8   8   4   8   8
#     4  10  22  40  59  86 118 152 190 241 297 346
#     4  10  22  35  56  88 122 154 189 234 294 351
#     4   9  19  34  58  86 115 149 191 236 289 347
#     4  11  23  38  60  87 117 154 200 240 285 349
#     4  11  24  40  61  90 120 159 196 238 287 350
#     4  10  24  42  60  82 130 158 194 236 290 338
#     4  11  23  38  60  86 116 155 201 241 287 348
#     4   9  19  39  61  83 111 150 193 243 291 339
#
# _framework density 20.494240999999999
#
# number of rings (size 3 to 8) (size 9 to 14) (size 15 to 20)
#    0.000    1.867    1.333    1.600    5.600    3.733 
#    0.000    3.333    0.000    0.000    0.000    0.000 
#    0.000    0.000    0.000    0.000    0.000    0.000 
#
# Total GULP energy -334243.527566 kJ/mol
# GULP energy per Si atom -5570.725459 kJ/mol
# Density = 2.044759 g / cm^3
# Si number density = 20.494241 Si / 1000 Ang^3
#
#
#
# Elastic Constant Matrix: (Units=GPa)
#
#
# Indices 1 2 3 4 5 6 
#
# 1 88.0174 75.5832 -3.4552 0.0000 0.0000 0.0000
# 2 75.5832 132.7139 -2.5359 0.0000 0.0000 0.0000
# 3 -3.4552 -2.5359 4.3884 0.0000 0.0000 0.0000
# 4 0.0000 0.0000 0.0000 14.5908 0.0000 0.0000
# 5 0.0000 0.0000 0.0000 0.0000 9.7546 0.0000
# 6 0.0000 0.0000 0.0000 0.0000 0.0000 30.8871
#
#
#
# Elastic Compliance Matrix: (Units=1/GPa)
#
#
# Indices 1 2 3 4 5 6 
#
# 1 0.022707 -0.012731 0.010522 0.000000 0.000000 0.000000
# 2 -0.012731 0.014757 -0.001496 0.000000 0.000000 0.000000
# 3 0.010522 -0.001496 0.235296 0.000000 0.000000 0.000000
# 4 0.000000 0.000000 0.000000 0.068536 0.000000 0.000000
# 5 0.000000 0.000000 0.000000 0.000000 0.102516 0.000000
# 6 0.000000 0.000000 0.000000 0.000000 0.000000 0.032376
#
#
# Mechanical properties :
#
#
# Convention : Reuss Voigt Hill
#
# Bulk Modulus (GPa) = 3.76863 40.47820 22.12341
# Shear Modulus (GPa) = 8.74052 21.41500 15.07776
#
# Velocity S-wave (km/s) = 2.06740 3.23604 2.71533
# Velocity P-wave (km/s) = 2.74622 5.81003 4.54413
#
# Compressibility (1/GPa) = 0.26534842
#
# Stress axis : x y z
#
# Youngs Moduli (GPa) = 44.03937 67.76450 4.24997
#
# Poissons Ratio (x) = 0.86271 -0.04472
# Poissons Ratio (y) = 0.56067 0.00636
# Poissons Ratio (z) = -0.46336 0.10139
#
# Static dielectric constant tensor:
#      x y z
#    x 1.718230 0.000000 0.000000 
#    y 0.000000 1.720280 0.000000 
#    z 0.000000 0.000000 1.847870 
# 
# From -- ./inp_files/29717.got.cif
#   From: 2010.05.17/outbox.cif.g08.bks.cpg/sg62_15_cif.got.tgz:29717.got - 2010.06.03 15:25:27.
