data_PCOD9466764
_publ_section_title
;
Structure prediction by ZEFSAII (Michael W. Deem and Ramdas Pophale) SiO2 
 PCOD9466764
Probable space group: P N M A
;
_chemical_formula_sum "Si O2"
_cell_formula_units_Z 32
_cell_length_a 5.662092
_cell_length_b 27.233298
_cell_length_c 9.130923
_cell_angle_alpha 90.000000
_cell_angle_beta 90.000000
_cell_angle_gamma 90.000000
_cell_volume 1407.964940
_symmetry_space_group_name_H-M "P N M A"
_symmetry_group_IT_number 62
_symmetry_cell_setting 'orthorhombic'
loop_
_space_group_symop_operation_xyz
x,y,z
1/2-x,-y,1/2+z
1/2+x,1/2-y,1/2-z
-x,1/2+y,-z
-x,-y,-z
1/2+x,y,1/2-z
1/2-x,1/2+y,1/2+z
x,1/2-y,z
loop_
_atom_site_type_symbol
_atom_site_label
_atom_site_fract_x
_atom_site_fract_y
_atom_site_fract_z
Si Si1 0.586418 0.302962 0.661976
Si Si2 0.551381 0.909778 0.403826
Si Si3 0.336315 0.475765 0.878235
Si Si4 0.782318 0.916864 0.688303
O O1 0.841736 0.302967 0.742700
O O2 0.578690 0.250000 0.580810
O O3 0.564337 0.356365 0.591872
O O4 0.598414 0.934238 0.244100
O O5 0.369821 0.949113 0.468159
O O6 0.771777 0.907400 0.512814
O O7 0.258041 0.524224 0.790853
O O8 0.500000 0.500000 0.000000
O O9 0.532508 0.897349 0.752333
#
# Coordination Sequence:
#
# PCOD9466764 Si02
#       4
#     8   8   8   8
#     4  10  22  41  68 102 130 165 225 287 351 410
#     4  12  24  42  70  90 143 182 221 287 351 389
#     4  12  24  40  63  99 135 184 226 270 337 419
#     4  12  27  42  60  94 136 178 231 268 320 410
#
# _framework density 22.727838999999999
#
# number of rings (size 3 to 8) (size 9 to 14) (size 15 to 20)
#    0.000    0.500    5.000    3.750    0.000    2.000 
#    0.000    0.000    0.000    1.500    0.000    0.000 
#    0.000    0.000    0.000    0.000    0.000    0.000 
#
# Total GULP energy -178302.439120 kJ/mol
# GULP energy per Si atom -5571.951223 kJ/mol
# Density = 2.267611 g / cm^3
# Si number density = 22.727839 Si / 1000 Ang^3
#
#
#
# Elastic Constant Matrix: (Units=GPa)
#
#
# Indices 1 2 3 4 5 6 
#
# 1 141.3174 -0.9995 43.9461 0.0000 0.0000 0.0000
# 2 -0.9995 89.6427 8.2422 0.0000 0.0000 0.0000
# 3 43.9461 8.2422 119.0734 0.0000 0.0000 0.0000
# 4 0.0000 0.0000 0.0000 14.2878 0.0000 0.0000
# 5 0.0000 0.0000 0.0000 0.0000 43.8064 0.0000
# 6 0.0000 0.0000 0.0000 0.0000 0.0000 36.9543
#
#
#
# Elastic Compliance Matrix: (Units=1/GPa)
#
#
# Indices 1 2 3 4 5 6 
#
# 1 0.008005 0.000363 -0.002980 0.000000 0.000000 0.000000
# 2 0.000363 0.011243 -0.000912 0.000000 0.000000 0.000000
# 3 -0.002980 -0.000912 0.009561 0.000000 0.000000 0.000000
# 4 0.000000 0.000000 0.000000 0.069990 0.000000 0.000000
# 5 0.000000 0.000000 0.000000 0.000000 0.022828 0.000000
# 6 0.000000 0.000000 0.000000 0.000000 0.000000 0.027060
#
#
# Mechanical properties :
#
#
# Convention : Reuss Voigt Hill
#
# Bulk Modulus (GPa) = 45.97222 50.26788 48.12005
# Shear Modulus (GPa) = 30.67560 38.93269 34.80415
#
# Velocity S-wave (km/s) = 3.67780 4.14333 3.91748
# Velocity P-wave (km/s) = 6.18920 6.71229 6.45604
#
# Compressibility (1/GPa) = 0.02175227
#
# Stress axis : x y z
#
# Youngs Moduli (GPa) = 124.91501 88.94166 104.59122
#
# Poissons Ratio (x) = -0.03231 0.31165
# Poissons Ratio (y) = -0.04537 0.09542
# Poissons Ratio (z) = 0.37221 0.08114
#
# Static dielectric constant tensor:
#      x y z
#    x 2.118480 0.000000 0.000000 
#    y 0.000000 1.856990 0.000000 
#    z 0.000000 0.000000 1.973350 
# 
# From -- ./inp_files/3807.got.cif
#   From: 2010.05.17/outbox.cif.g08.bks.cpg/sg62_2_cif.got.tgz:3807.got - 2010.06.03 15:25:27.
