data_PCOD9466469
_publ_section_title
;
Structure prediction by ZEFSAII (Michael W. Deem and Ramdas Pophale) SiO2 
 PCOD9466469
Probable space group: P N M A
;
_chemical_formula_sum "Si O2"
_cell_formula_units_Z 52
_cell_length_a 14.177366
_cell_length_b 11.363782
_cell_length_c 13.810820
_cell_angle_alpha 90.000000
_cell_angle_beta 90.000000
_cell_angle_gamma 90.000000
_cell_volume 2225.040446
_symmetry_space_group_name_H-M "P N M A"
_symmetry_group_IT_number 62
_symmetry_cell_setting 'orthorhombic'
loop_
_space_group_symop_operation_xyz
x,y,z
1/2-x,-y,1/2+z
1/2+x,1/2-y,1/2-z
-x,1/2+y,-z
-x,-y,-z
1/2+x,y,1/2-z
1/2-x,1/2+y,1/2+z
x,1/2-y,z
loop_
_atom_site_type_symbol
_atom_site_label
_atom_site_fract_x
_atom_site_fract_y
_atom_site_fract_z
Si Si1 0.021819 0.112231 0.756154
Si Si2 0.964556 0.250000 0.188537
Si Si3 0.562713 0.250000 0.119922
Si Si4 0.730973 0.108635 0.725657
Si Si5 0.764767 0.250000 0.089663
Si Si6 0.761983 0.973236 0.446714
Si Si7 0.399696 0.490362 0.907414
Si Si8 0.436359 0.969403 0.590445
O O1 0.030363 0.250000 0.744918
O O2 0.122879 0.072328 0.799620
O O3 0.985580 0.064617 0.653090
O O4 0.943642 0.078425 0.835429
O O5 0.980865 0.250000 0.302331
O O6 0.018886 0.137453 0.148108
O O7 0.858772 0.250000 0.151413
O O8 0.672162 0.250000 0.158568
O O9 0.565069 0.123643 0.070188
O O10 0.745611 0.250000 0.710333
O O11 0.810477 0.036313 0.666545
O O12 0.727965 0.079583 0.839931
O O13 0.759521 0.136012 0.019632
O O14 0.850798 0.042988 0.491116
O O15 0.669399 0.053072 0.442419
O O16 0.500000 0.000000 0.500000
#
# Coordination Sequence:
#
# PCOD9466469 Si02
#       8
#     8   4   4   8   4   8   8   8
#     4  11  25  42  66  94 129 172 220 270 330 393
#     4  12  22  40  62  89 128 167 207 279 322 385
#     4  10  22  38  58  94 124 166 214 262 312 394
#     4  11  23  42  68  99 130 174 220 269 328 394
#     4  10  22  36  66  89 126 171 217 251 330 389
#     4  11  22  41  65  95 127 173 216 267 325 398
#     4  11  23  42  66  95 132 171 220 270 325 384
#     4  12  24  39  62  96 128 163 219 270 332 385
#
# _framework density 23.370362
#
# number of rings (size 3 to 8) (size 9 to 14) (size 15 to 20)
#    0.000    0.923    5.385    1.385    4.308    0.615 
#    2.769    0.000    0.000    0.000    0.000    0.000 
#    0.000    0.000    0.000    0.000    0.000    0.000 
#
# Total GULP energy -290228.260482 kJ/mol
# GULP energy per Si atom -5581.312702 kJ/mol
# Density = 2.331717 g / cm^3
# Si number density = 23.370362 Si / 1000 Ang^3
#
#
#
# Elastic Constant Matrix: (Units=GPa)
#
#
# Indices 1 2 3 4 5 6 
#
# 1 85.1021 -0.0763 20.3567 0.0000 0.0000 0.0000
# 2 -0.0763 39.7220 -6.0278 0.0000 0.0000 0.0000
# 3 20.3567 -6.0278 85.9389 0.0000 0.0000 0.0000
# 4 0.0000 0.0000 0.0000 42.1631 0.0000 0.0000
# 5 0.0000 0.0000 0.0000 0.0000 50.9744 0.0000
# 6 0.0000 0.0000 0.0000 0.0000 0.0000 24.7359
#
#
#
# Elastic Compliance Matrix: (Units=1/GPa)
#
#
# Indices 1 2 3 4 5 6 
#
# 1 0.012464 -0.000429 -0.002982 0.000000 0.000000 0.000000
# 2 -0.000429 0.025461 0.001887 0.000000 0.000000 0.000000
# 3 -0.002982 0.001887 0.012475 0.000000 0.000000 0.000000
# 4 0.000000 0.000000 0.000000 0.023717 0.000000 0.000000
# 5 0.000000 0.000000 0.000000 0.000000 0.019618 0.000000
# 6 0.000000 0.000000 0.000000 0.000000 0.000000 0.040427
#
#
# Mechanical properties :
#
#
# Convention : Reuss Voigt Hill
#
# Bulk Modulus (GPa) = 21.11851 26.58535 23.85193
# Shear Modulus (GPa) = 32.68132 36.67537 34.67834
#
# Velocity S-wave (km/s) = 3.74359 3.96575 3.85627
# Velocity P-wave (km/s) = 5.26707 5.68946 5.48233
#
# Compressibility (1/GPa) = 0.04735182
#
# Stress axis : x y z
#
# Youngs Moduli (GPa) = 80.23363 39.27650 80.16027
#
# Poissons Ratio (x) = 0.01684 0.23907
# Poissons Ratio (y) = 0.03439 -0.15129
# Poissons Ratio (z) = 0.23929 -0.07413
#
# Static dielectric constant tensor:
#      x y z
#    x 1.940990 0.000000 0.000000 
#    y 0.000000 1.908010 0.000000 
#    z 0.000000 0.000000 1.873270 
# 
# From -- ./inp_files/19045.got.cif
#   From: 2010.05.17/outbox.cif.g08.bks.cpg/sg62_10_cif.got.tgz:19045.got - 2010.06.03 15:25:27.
