data_PCOD9467306
_publ_section_title
;
Structure prediction by ZEFSAII (Michael W. Deem and Ramdas Pophale) SiO2 
 PCOD9467306
Probable space group: P N M A
;
_chemical_formula_sum "Si O2"
_cell_formula_units_Z 52
_cell_length_a 15.077648
_cell_length_b 23.582839
_cell_length_c 7.126054
_cell_angle_alpha 90.000000
_cell_angle_beta 90.000000
_cell_angle_gamma 90.000000
_cell_volume 2533.837710
_symmetry_space_group_name_H-M "P N M A"
_symmetry_group_IT_number 62
_symmetry_cell_setting 'orthorhombic'
loop_
_space_group_symop_operation_xyz
x,y,z
1/2-x,-y,1/2+z
1/2+x,1/2-y,1/2-z
-x,1/2+y,-z
-x,-y,-z
1/2+x,y,1/2-z
1/2-x,1/2+y,1/2+z
x,1/2-y,z
loop_
_atom_site_type_symbol
_atom_site_label
_atom_site_fract_x
_atom_site_fract_y
_atom_site_fract_z
Si Si1 0.556889 0.937851 0.282198
Si Si2 0.632394 0.250000 0.072814
Si Si3 0.592500 0.352583 0.784257
Si Si4 0.698866 0.929903 0.819523
Si Si5 0.252435 0.939968 0.112597
Si Si6 0.854500 0.850844 0.867662
Si Si7 0.004682 0.562257 0.774170
O O1 0.499773 0.886690 0.199395
O O2 0.662361 0.931994 0.268024
O O3 0.532495 0.939584 0.505369
O O4 0.526403 0.999794 0.214013
O O5 0.658313 0.200712 0.228274
O O6 0.604630 0.300134 0.921453
O O7 0.668278 0.399817 0.823169
O O8 0.603523 0.333858 0.567275
O O9 0.725604 0.926150 0.599916
O O10 0.763852 0.884385 0.910546
O O11 0.593873 0.920163 0.833026
O O12 0.720407 0.994203 0.877974
O O13 0.922813 0.894931 0.769300
#
# Coordination Sequence:
#
# PCOD9467306 Si02
#       7
#     8   4   8   8   8   8   8
#     4   9  18  35  63  96 133 166 199 259 338 387
#     4  12  26  48  66  90 126 178 234 264 312 390
#     4  11  23  44  68  92 128 176 216 268 325 388
#     4  11  20  36  63 101 136 167 210 269 333 393
#     4  11  20  36  63 101 136 167 210 269 333 393
#     4  11  23  44  68  92 128 176 216 268 325 388
#     4   9  18  35  63  96 133 166 199 259 338 387
#
# _framework density 20.522231000000001
#
# number of rings (size 3 to 8) (size 9 to 14) (size 15 to 20)
#    0.000    1.538    4.615    1.385    0.000    0.000 
#    5.538    3.846    0.000    0.000    0.000    0.000 
#    0.000    0.000    0.000    0.000    0.000    0.000 
#
# Total GULP energy -289784.823194 kJ/mol
# GULP energy per Si atom -5572.785061 kJ/mol
# Density = 2.047552 g / cm^3
# Si number density = 20.522231 Si / 1000 Ang^3
#
#
#
# Elastic Constant Matrix: (Units=GPa)
#
#
# Indices 1 2 3 4 5 6 
#
# 1 116.5454 40.1326 16.7430 0.0000 0.0000 0.0000
# 2 40.1326 147.1858 33.7010 0.0000 0.0000 0.0000
# 3 16.7430 33.7010 79.8682 0.0000 0.0000 0.0000
# 4 0.0000 0.0000 0.0000 35.7063 0.0000 0.0000
# 5 0.0000 0.0000 0.0000 0.0000 29.0002 0.0000
# 6 0.0000 0.0000 0.0000 0.0000 0.0000 4.2542
#
#
#
# Elastic Compliance Matrix: (Units=1/GPa)
#
#
# Indices 1 2 3 4 5 6 
#
# 1 0.009541 -0.002373 -0.000999 0.000000 0.000000 0.000000
# 2 -0.002373 0.008111 -0.002925 0.000000 0.000000 0.000000
# 3 -0.000999 -0.002925 0.013964 0.000000 0.000000 0.000000
# 4 0.000000 0.000000 0.000000 0.028006 0.000000 0.000000
# 5 0.000000 0.000000 0.000000 0.000000 0.034482 0.000000
# 6 0.000000 0.000000 0.000000 0.000000 0.000000 0.235064
#
#
# Mechanical properties :
#
#
# Convention : Reuss Voigt Hill
#
# Bulk Modulus (GPa) = 52.56885 58.30586 55.43735
# Shear Modulus (GPa) = 14.36357 30.66032 22.51194
#
# Velocity S-wave (km/s) = 2.64844 3.86943 3.31562
# Velocity P-wave (km/s) = 5.91806 6.95960 6.45986
#
# Compressibility (1/GPa) = 0.01902267
#
# Stress axis : x y z
#
# Youngs Moduli (GPa) = 104.81169 123.29163 71.61135
#
# Poissons Ratio (x) = 0.29254 0.07153
# Poissons Ratio (y) = 0.24869 0.20947
# Poissons Ratio (z) = 0.10469 0.36063
#
# Static dielectric constant tensor:
#      x y z
#    x 1.734740 0.000000 0.000000 
#    y 0.000000 1.647480 0.000000 
#    z 0.000000 0.000000 1.818340 
# 
# From -- ./inp_files/6692.got.cif
#   From: 2010.05.17/outbox.cif.g08.bks.cpg/sg62_4_cif.got.tgz:6692.got - 2010.06.03 15:25:27.
