data_PCOD9467746
_publ_section_title
;
Structure prediction by ZEFSAII (Michael W. Deem and Ramdas Pophale) SiO2 
 PCOD9467746
Probable space group: P N M A
;
_chemical_formula_sum "Si O2"
_cell_formula_units_Z 64
_cell_length_a 13.810538
_cell_length_b 11.351827
_cell_length_c 14.662118
_cell_angle_alpha 90.000000
_cell_angle_beta 90.000000
_cell_angle_gamma 90.000000
_cell_volume 2298.651176
_symmetry_space_group_name_H-M "P N M A"
_symmetry_group_IT_number 62
_symmetry_cell_setting 'orthorhombic'
loop_
_space_group_symop_operation_xyz
x,y,z
1/2-x,-y,1/2+z
1/2+x,1/2-y,1/2-z
-x,1/2+y,-z
-x,-y,-z
1/2+x,y,1/2-z
1/2-x,1/2+y,1/2+z
x,1/2-y,z
loop_
_atom_site_type_symbol
_atom_site_label
_atom_site_fract_x
_atom_site_fract_y
_atom_site_fract_z
Si Si1 0.490238 0.621830 0.217693
Si Si2 0.838802 0.123641 0.027183
Si Si3 0.784491 0.621299 0.219333
Si Si4 0.375762 0.620947 0.545061
Si Si5 0.171671 0.877460 0.472082
Si Si6 0.312062 0.376028 0.255177
Si Si7 0.540974 0.122245 0.252243
Si Si8 0.120198 0.378084 0.525756
O O1 0.538163 0.750000 0.227006
O O2 0.402350 0.615011 0.290893
O O3 0.561302 0.511096 0.220481
O O4 0.431012 0.619925 0.123207
O O5 0.887945 0.250000 0.010371
O O6 0.737249 0.125175 0.973541
O O7 0.894161 0.004741 0.002602
O O8 0.810678 0.121573 0.134115
O O9 0.765687 0.750000 0.261960
O O10 0.764224 0.499291 0.271673
O O11 0.730953 0.619700 0.122567
O O12 0.396512 0.750000 0.501699
O O13 0.257410 0.621105 0.547024
O O14 0.430515 0.621199 0.641464
O O15 0.121742 0.750000 0.478330
O O16 0.106189 0.992785 0.481442
O O17 0.271656 0.250000 0.225761
O O18 0.425694 0.375447 0.232509
O O19 0.576923 0.250000 0.216823
O O20 0.093682 0.250000 0.483485
#
# Coordination Sequence:
#
# PCOD9467746 Si02
#       8
#     8   8   8   8   8   8   8   8
#     4   9  18  29  39  53  74 102 131 158 191 227
#     4   9  16  25  37  54  71  91 125 162 190 215
#     4   9  15  25  38  53  73  96 124 156 189 221
#     4   9  16  26  37  52  74  99 127 159 190 216
#     4   9  16  26  41  58  74  96 129 163 190 218
#     4   9  15  24  35  50  71  95 125 155 184 215
#     4   9  18  28  37  51  76 105 128 155 188 222
#     4   9  16  27  41  54  71  96 128 163 194 224
#
# _framework density 27.842413000000001
#
# number of rings (size 3 to 8) (size 9 to 14) (size 15 to 20)
#    0.000    3.000    2.500    0.000    0.000    1.500 
#    0.000    0.000    0.000    0.000    0.000    0.000 
#    0.000    0.000    0.000    4.500    0.000   51.500 
#
# Total GULP energy -357434.549344 kJ/mol
# GULP energy per Si atom -5584.914834 kJ/mol
# Density = 2.777904 g / cm^3
# Si number density = 27.842413 Si / 1000 Ang^3
#
#
#
# Elastic Constant Matrix: (Units=GPa)
#
#
# Indices 1 2 3 4 5 6 
#
# 1 136.9784 22.0651 8.4604 0.0000 0.0000 0.0000
# 2 22.0651 384.6759 60.8900 0.0000 0.0000 0.0000
# 3 8.4604 60.8900 94.4150 0.0000 0.0000 0.0000
# 4 0.0000 0.0000 0.0000 50.8879 0.0000 0.0000
# 5 0.0000 0.0000 0.0000 0.0000 32.2612 0.0000
# 6 0.0000 0.0000 0.0000 0.0000 0.0000 145.1436
#
#
#
# Elastic Compliance Matrix: (Units=1/GPa)
#
#
# Indices 1 2 3 4 5 6 
#
# 1 0.007384 -0.000355 -0.000433 0.000000 0.000000 0.000000
# 2 -0.000355 0.002912 -0.001846 0.000000 0.000000 0.000000
# 3 -0.000433 -0.001846 0.011821 0.000000 0.000000 0.000000
# 4 0.000000 0.000000 0.000000 0.019651 0.000000 0.000000
# 5 0.000000 0.000000 0.000000 0.000000 0.030997 0.000000
# 6 0.000000 0.000000 0.000000 0.000000 0.000000 0.006890
#
#
# Mechanical properties :
#
#
# Convention : Reuss Voigt Hill
#
# Bulk Modulus (GPa) = 59.34935 88.76669 74.05802
# Shear Modulus (GPa) = 55.22423 80.63548 67.92986
#
# Velocity S-wave (km/s) = 4.45843 5.38742 4.94479
# Velocity P-wave (km/s) = 6.91852 8.40536 7.69792
#
# Compressibility (1/GPa) = 0.01684938
#
# Stress axis : x y z
#
# Youngs Moduli (GPa) = 135.42162 343.38176 84.59493
#
# Poissons Ratio (x) = 0.12193 0.03661
# Poissons Ratio (y) = 0.04808 0.15619
# Poissons Ratio (z) = 0.05860 0.63399
#
# Static dielectric constant tensor:
#      x y z
#    x 2.108310 0.000000 0.000000 
#    y 0.000000 2.285750 0.000000 
#    z 0.000000 0.000000 2.105740 
# 
# From -- ./inp_files/24854.got.cif
#   From: 2010.05.17/outbox.cif.g08.bks.cpg/sg62_13_cif.got.tgz:24854.got - 2010.06.03 15:25:27.
