data_PCOD9467002
_publ_section_title
;
Structure prediction by ZEFSAII (Michael W. Deem and Ramdas Pophale) SiO2 
 PCOD9467002
Probable space group: P N M A
;
_chemical_formula_sum "Si O2"
_cell_formula_units_Z 48
_cell_length_a 27.953785
_cell_length_b 8.715201
_cell_length_c 10.300083
_cell_angle_alpha 90.000000
_cell_angle_beta 90.000000
_cell_angle_gamma 90.000000
_cell_volume 2509.335627
_symmetry_space_group_name_H-M "P N M A"
_symmetry_group_IT_number 62
_symmetry_cell_setting 'orthorhombic'
loop_
_space_group_symop_operation_xyz
x,y,z
1/2-x,-y,1/2+z
1/2+x,1/2-y,1/2-z
-x,1/2+y,-z
-x,-y,-z
1/2+x,y,1/2-z
1/2-x,1/2+y,1/2+z
x,1/2-y,z
loop_
_atom_site_type_symbol
_atom_site_label
_atom_site_fract_x
_atom_site_fract_y
_atom_site_fract_z
Si Si1 0.037326 0.065141 0.102647
Si Si2 0.139855 0.934377 0.473556
Si Si3 0.037341 0.066363 0.397618
Si Si4 0.645123 0.065980 0.477245
Si Si5 0.180733 0.566188 0.754829
Si Si6 0.712951 0.933752 0.256150
O O1 0.035092 0.250000 0.098864
O O2 0.026600 0.015005 0.250020
O O3 0.091670 0.020874 0.066617
O O4 0.000000 0.000000 0.000000
O O5 0.133304 0.750000 0.468785
O O6 0.155970 0.976115 0.618591
O O7 0.181260 0.973490 0.370366
O O8 0.090627 0.013279 0.433599
O O9 0.035049 0.250000 0.400459
O O10 0.000000 0.000000 0.500000
O O11 0.649427 0.250000 0.467958
O O12 0.655359 0.011948 0.622940
O O13 0.683481 0.989855 0.381097
O O14 0.178569 0.750000 0.768676
O O15 0.235645 0.512682 0.750367
O O16 0.718919 0.750000 0.259922
#
# Coordination Sequence:
#
# PCOD9467002 Si02
#       6
#     8   8   8   8   8   8
#     4  10  24  43  65  92 124 162 205 255 311 369
#     4  10  23  42  63  91 126 163 207 257 308 368
#     4  11  24  43  66  94 124 161 204 254 312 371
#     4  11  23  42  63  91 128 166 211 259 306 370
#     4  11  24  40  62  94 129 167 209 259 311 368
#     4  11  22  40  66  94 124 166 211 257 316 372
#
# _framework density 19.128568999999999
#
# number of rings (size 3 to 8) (size 9 to 14) (size 15 to 20)
#    0.000    1.333    1.667    3.000    2.333    6.000 
#    0.000    0.000    0.000    0.000    0.000    0.000 
#    0.000    0.000    0.000    0.000    0.000    0.000 
#
# Total GULP energy -268481.214426 kJ/mol
# GULP energy per Si atom -5593.358634 kJ/mol
# Density = 1.908503 g / cm^3
# Si number density = 19.128569 Si / 1000 Ang^3
#
#
#
# Elastic Constant Matrix: (Units=GPa)
#
#
# Indices 1 2 3 4 5 6 
#
# 1 96.8544 19.9620 60.6277 0.0000 0.0000 0.0000
# 2 19.9620 20.8589 28.4523 0.0000 0.0000 0.0000
# 3 60.6277 28.4523 173.3141 0.0000 0.0000 0.0000
# 4 0.0000 0.0000 0.0000 28.0366 0.0000 0.0000
# 5 0.0000 0.0000 0.0000 0.0000 42.0571 0.0000
# 6 0.0000 0.0000 0.0000 0.0000 0.0000 38.8660
#
#
#
# Elastic Compliance Matrix: (Units=1/GPa)
#
#
# Indices 1 2 3 4 5 6 
#
# 1 0.014397 -0.008902 -0.003575 0.000000 0.000000 0.000000
# 2 -0.008902 0.067278 -0.007931 0.000000 0.000000 0.000000
# 3 -0.003575 -0.007931 0.008322 0.000000 0.000000 0.000000
# 4 0.000000 0.000000 0.000000 0.035668 0.000000 0.000000
# 5 0.000000 0.000000 0.000000 0.000000 0.023777 0.000000
# 6 0.000000 0.000000 0.000000 0.000000 0.000000 0.025729
#
#
# Mechanical properties :
#
#
# Convention : Reuss Voigt Hill
#
# Bulk Modulus (GPa) = 20.33241 56.56794 38.45017
# Shear Modulus (GPa) = 21.51634 33.92430 27.72032
#
# Velocity S-wave (km/s) = 3.35748 4.21585 3.81091
# Velocity P-wave (km/s) = 5.06781 7.30305 6.28559
#
# Compressibility (1/GPa) = 0.04918256
#
# Stress axis : x y z
#
# Youngs Moduli (GPa) = 69.45748 14.86369 120.15726
#
# Poissons Ratio (x) = 0.13231 0.42956
# Poissons Ratio (y) = 0.61830 0.95295
# Poissons Ratio (z) = 0.24831 0.11788
#
# Static dielectric constant tensor:
#      x y z
#    x 1.621520 0.000000 0.000000 
#    y 0.000000 1.644230 0.000000 
#    z 0.000000 0.000000 1.649560 
# 
# From -- ./inp_files/10153.got.cif
#   From: 2010.05.17/outbox.cif.g08.bks.cpg/sg62_6_cif.got.tgz:10153.got - 2010.06.03 15:25:27.
