data_PCOD9467515
_publ_section_title
;
Structure prediction by ZEFSAII (Michael W. Deem and Ramdas Pophale) SiO2 
 PCOD9467515
Probable space group: P N M A
;
_chemical_formula_sum "Si O2"
_cell_formula_units_Z 64
_cell_length_a 9.427850
_cell_length_b 17.094297
_cell_length_c 20.620601
_cell_angle_alpha 90.000000
_cell_angle_beta 90.000000
_cell_angle_gamma 90.000000
_cell_volume 3323.266948
_symmetry_space_group_name_H-M "P N M A"
_symmetry_group_IT_number 62
_symmetry_cell_setting 'orthorhombic'
loop_
_space_group_symop_operation_xyz
x,y,z
1/2-x,-y,1/2+z
1/2+x,1/2-y,1/2-z
-x,1/2+y,-z
-x,-y,-z
1/2+x,y,1/2-z
1/2-x,1/2+y,1/2+z
x,1/2-y,z
loop_
_atom_site_type_symbol
_atom_site_label
_atom_site_fract_x
_atom_site_fract_y
_atom_site_fract_z
Si Si1 0.165057 0.952505 0.246824
Si Si2 0.790959 0.342597 0.997913
Si Si3 0.918899 0.437077 0.263258
Si Si4 0.211557 0.656982 0.366906
Si Si5 0.964489 0.345148 0.507172
Si Si6 0.962132 0.401256 0.117844
Si Si7 0.213129 0.656187 0.618584
Si Si8 0.513953 0.918207 0.388441
O O1 0.167302 0.887735 0.301997
O O2 0.096139 0.922281 0.180266
O O3 0.321955 0.985206 0.235415
O O4 0.076954 0.028966 0.269698
O O5 0.793138 0.250000 0.983380
O O6 0.883533 0.386933 0.944195
O O7 0.627771 0.370230 0.997255
O O8 0.862612 0.356814 0.067599
O O9 0.910858 0.398062 0.192298
O O10 0.863940 0.381351 0.319509
O O11 0.199416 0.750000 0.359263
O O12 0.111688 0.631046 0.426399
O O13 0.373491 0.634161 0.383027
O O14 0.964488 0.250000 0.506211
O O15 0.871034 0.370194 0.445717
O O16 0.965619 0.492789 0.098884
O O17 0.123640 0.370708 0.115201
O O18 0.209021 0.750000 0.622329
#
# Coordination Sequence:
#
# PCOD9467515 Si02
#       8
#     8   8   8   8   8   8   8   8
#     4  11  23  44  64  92 129 166 210 262 316 384
#     4  11  24  41  63  94 127 165 216 271 317 375
#     4  11  23  44  64  92 129 166 210 262 316 384
#     4  11  23  42  67  94 126 168 213 265 319 376
#     4   9  23  41  60  92 126 157 206 265 316 369
#     4  11  23  42  65  91 130 169 212 256 325 386
#     4  11  23  42  67  94 126 168 213 265 319 376
#     4  11  23  42  65  91 130 169 212 256 325 386
#
# _framework density 19.258158000000002
#
# number of rings (size 3 to 8) (size 9 to 14) (size 15 to 20)
#    0.000    1.250    5.000    1.875    3.500    3.000 
#    0.000    1.875    0.000    0.000    0.000    0.000 
#    0.000    0.000    0.000    0.000    0.000    0.000 
#
# Total GULP energy -357684.046847 kJ/mol
# GULP energy per Si atom -5588.813232 kJ/mol
# Density = 1.921433 g / cm^3
# Si number density = 19.258158 Si / 1000 Ang^3
#
#
#
# Elastic Constant Matrix: (Units=GPa)
#
#
# Indices 1 2 3 4 5 6 
#
# 1 54.9164 -13.6254 15.1860 0.0000 0.0000 0.0000
# 2 -13.6254 42.8040 19.8265 0.0000 0.0000 0.0000
# 3 15.1860 19.8265 61.8499 0.0000 0.0000 0.0000
# 4 0.0000 0.0000 0.0000 26.8756 0.0000 0.0000
# 5 0.0000 0.0000 0.0000 0.0000 35.1832 0.0000
# 6 0.0000 0.0000 0.0000 0.0000 0.0000 34.8069
#
#
#
# Elastic Compliance Matrix: (Units=1/GPa)
#
#
# Indices 1 2 3 4 5 6 
#
# 1 0.023921 0.012137 -0.009764 0.000000 0.000000 0.000000
# 2 0.012137 0.033594 -0.013749 0.000000 0.000000 0.000000
# 3 -0.009764 -0.013749 0.022973 0.000000 0.000000 0.000000
# 4 0.000000 0.000000 0.000000 0.037209 0.000000 0.000000
# 5 0.000000 0.000000 0.000000 0.000000 0.028423 0.000000
# 6 0.000000 0.000000 0.000000 0.000000 0.000000 0.028730
#
#
# Mechanical properties :
#
#
# Convention : Reuss Voigt Hill
#
# Bulk Modulus (GPa) = 17.32010 22.48271 19.90141
# Shear Modulus (GPa) = 23.05785 28.58535 25.82160
#
# Velocity S-wave (km/s) = 3.46396 3.85687 3.66568
# Velocity P-wave (km/s) = 5.00119 5.61549 5.31721
#
# Compressibility (1/GPa) = 0.05773637
#
# Stress axis : x y z
#
# Youngs Moduli (GPa) = 41.80454 29.76707 43.52966
#
# Poissons Ratio (x) = -0.36128 0.42502
# Poissons Ratio (y) = -0.50738 0.59848
# Poissons Ratio (z) = 0.40818 0.40926
#
# Static dielectric constant tensor:
#      x y z
#    x 1.654320 0.000000 0.000000 
#    y 0.000000 1.655350 0.000000 
#    z 0.000000 0.000000 1.651280 
# 
# From -- ./inp_files/26199.got.cif
#   From: 2010.05.17/outbox.cif.g08.bks.cpg/sg62_14_cif.got.tgz:26199.got - 2010.06.03 15:25:27.
