data_PCOD9467809
_publ_section_title
;
Structure prediction by ZEFSAII (Michael W. Deem and Ramdas Pophale) SiO2 
 PCOD9467809
Probable space group: P N M A
;
_chemical_formula_sum "Si O2"
_cell_formula_units_Z 64
_cell_length_a 21.000000
_cell_length_b 9.000000
_cell_length_c 18.000000
_cell_angle_alpha 90.000000
_cell_angle_beta 90.000000
_cell_angle_gamma 90.000000
_cell_volume 3402.000000
_symmetry_space_group_name_H-M "P N M A"
_symmetry_group_IT_number 62
_symmetry_cell_setting 'orthorhombic'
loop_
_space_group_symop_operation_xyz
x,y,z
1/2-x,-y,1/2+z
1/2+x,1/2-y,1/2-z
-x,1/2+y,-z
-x,-y,-z
1/2+x,y,1/2-z
1/2-x,1/2+y,1/2+z
x,1/2-y,z
loop_
_atom_site_type_symbol
_atom_site_label
_atom_site_fract_x
_atom_site_fract_y
_atom_site_fract_z
Si Si1 0.270251 0.921162 0.665748
Si Si2 0.387182 0.575889 0.780365
Si Si3 0.969413 0.930703 0.856171
Si Si4 0.083243 0.573712 0.430977
Si Si5 0.638414 0.426762 0.470819
Si Si6 0.932714 0.572309 0.416460
Si Si7 0.116201 0.572311 0.874982
Si Si8 0.350807 0.574792 0.221981
O O1 0.246528 0.750000 0.667300
O O2 0.324343 0.932929 0.729287
O O3 0.303546 0.946930 0.586454
O O4 0.215437 0.036259 0.682871
O O5 0.399224 0.750000 0.796473
O O6 0.442407 0.518873 0.723938
O O7 0.382816 0.491589 0.858167
O O8 0.965019 0.750000 0.854325
O O9 0.923259 0.978991 0.923233
O O10 0.041679 0.972885 0.870810
O O11 0.092136 0.750000 0.434721
O O12 0.098701 0.502668 0.511059
O O13 0.008019 0.540886 0.418393
O O14 0.631736 0.250000 0.484122
O O15 0.644202 0.508380 0.548807
O O16 0.924119 0.750000 0.422396
O O17 0.903715 0.523529 0.337791
O O18 0.120129 0.750000 0.875193
O O19 0.146662 0.508842 0.800145
O O20 0.358538 0.750000 0.234646
#
# Coordination Sequence:
#
# PCOD9467809 Si02
#       8
#     8   8   8   8   8   8   8   8
#     4   9  20  39  59  77 103 142 184 225 268 317
#     4   9  17  33  56  79 107 143 178 217 268 318
#     4   8  16  31  54  83 113 146 179 215 265 323
#     4  10  19  32  54  84 111 136 175 221 267 325
#     4   9  18  36  58  80 110 145 181 222 270 318
#     4   9  20  37  54  76 108 143 176 219 275 324
#     4  11  21  33  54  85 115 142 178 219 265 326
#     4  11  23  39  57  77 106 144 184 227 273 318
#
# _framework density 18.812463000000001
#
# number of rings (size 3 to 8) (size 9 to 14) (size 15 to 20)
#    0.000    2.500    0.000    3.750    0.000    2.500 
#    2.250    3.125    0.000    0.000    0.000    0.000 
#    0.000    0.000    0.000    0.000    0.000    0.000 
#
# Total GULP energy -357074.598371 kJ/mol
# GULP energy per Si atom -5579.290600 kJ/mol
# Density = 1.876965 g / cm^3
# Si number density = 18.812463 Si / 1000 Ang^3
#
#
#
# Elastic Constant Matrix: (Units=GPa)
#
#
# Indices 1 2 3 4 5 6 
#
# 1 19.7829 15.1851 2.8138 0.0000 0.0000 0.0000
# 2 15.1851 25.0701 20.3739 0.0000 0.0000 0.0000
# 3 2.8138 20.3739 74.7203 0.0000 0.0000 0.0000
# 4 0.0000 0.0000 0.0000 22.5433 0.0000 0.0000
# 5 0.0000 0.0000 0.0000 0.0000 0.1869 0.0000
# 6 0.0000 0.0000 0.0000 0.0000 0.0000 21.7021
#
#
#
# Elastic Compliance Matrix: (Units=1/GPa)
#
#
# Indices 1 2 3 4 5 6 
#
# 1 0.110807 -0.081866 0.018150 0.000000 0.000000 0.000000
# 2 -0.081866 0.111727 -0.027382 0.000000 0.000000 0.000000
# 3 0.018150 -0.027382 0.020166 0.000000 0.000000 0.000000
# 4 0.000000 0.000000 0.000000 0.044359 0.000000 0.000000
# 5 0.000000 0.000000 0.000000 0.000000 5.351592 0.000000
# 6 0.000000 0.000000 0.000000 0.000000 0.000000 0.046079
#
#
# Mechanical properties :
#
#
# Convention : Reuss Voigt Hill
#
# Bulk Modulus (GPa) = 16.52792 21.81321 19.17057
# Shear Modulus (GPa) = 0.84932 14.29981 7.57456
#
# Velocity S-wave (km/s) = 0.67264 2.76003 2.00875
# Velocity P-wave (km/s) = 3.06724 4.66661 3.94875
#
# Compressibility (1/GPa) = 0.06050367
#
# Stress axis : x y z
#
# Youngs Moduli (GPa) = 9.02474 8.95035 49.58866
#
# Poissons Ratio (x) = 0.73273 -0.90001
# Poissons Ratio (y) = 0.73882 1.35782
# Poissons Ratio (z) = -0.16379 0.24508
#
# Static dielectric constant tensor:
#      x y z
#    x 1.679760 0.000000 0.000000 
#    y 0.000000 1.627250 0.000000 
#    z 0.000000 0.000000 1.633360 
# 
# From -- ./inp_files/24687.got.cif
#   From: 2010.05.17/outbox.ucp.g08.bks.cvg/sg62_13_cif.got.tgz:24687.got - 2010.06.11 16:29:25.
