data_PCOD9467207
_publ_section_title
;
Structure prediction by ZEFSAII (Michael W. Deem and Ramdas Pophale) SiO2 
 PCOD9467207
Probable space group: P N M A
;
_chemical_formula_sum "Si O2"
_cell_formula_units_Z 40
_cell_length_a 10.251997
_cell_length_b 17.973229
_cell_length_c 8.766816
_cell_angle_alpha 90.000000
_cell_angle_beta 90.000000
_cell_angle_gamma 90.000000
_cell_volume 1615.386577
_symmetry_space_group_name_H-M "P N M A"
_symmetry_group_IT_number 62
_symmetry_cell_setting 'orthorhombic'
loop_
_space_group_symop_operation_xyz
x,y,z
1/2-x,-y,1/2+z
1/2+x,1/2-y,1/2-z
-x,1/2+y,-z
-x,-y,-z
1/2+x,y,1/2-z
1/2-x,1/2+y,1/2+z
x,1/2-y,z
loop_
_atom_site_type_symbol
_atom_site_label
_atom_site_fract_x
_atom_site_fract_y
_atom_site_fract_z
Si Si1 0.133259 0.868264 0.950330
Si Si2 0.810535 0.522359 0.889396
Si Si3 0.629593 0.332142 0.584759
Si Si4 0.531503 0.565818 0.837478
Si Si5 0.095381 0.167115 0.565477
O O1 0.275958 0.835015 0.960234
O O2 0.026403 0.831255 0.057439
O O3 0.143882 0.953669 0.008190
O O4 0.075932 0.870147 0.781083
O O5 0.658924 0.514743 0.848548
O O6 0.905493 0.528874 0.742740
O O7 0.821452 0.599626 0.982716
O O8 0.681918 0.250000 0.545302
O O9 0.647306 0.345983 0.763846
O O10 0.497863 0.604525 0.996679
O O11 0.036974 0.250000 0.562929
#
# Coordination Sequence:
#
# PCOD9467207 Si02
#       5
#     8   8   8   8   8
#     4  11  25  46  70 102 142 180 240 290 356 408
#     4  11  26  45  75 106 141 185 234 290 358 418
#     4  10  24  45  68 100 141 186 233 292 352 419
#     4  11  24  47  66 105 136 184 230 289 348 416
#     4  11  26  43  69 101 138 190 240 286 352 418
#
# _framework density 24.761875
#
# number of rings (size 3 to 8) (size 9 to 14) (size 15 to 20)
#    0.000    1.200    2.000    3.000    8.400    5.600 
#    0.000    0.000    0.000    0.000    0.000    0.000 
#    0.000    0.000    0.000    0.000    0.000    0.000 
#
# Total GULP energy -224089.693160 kJ/mol
# GULP energy per Si atom -5602.242329 kJ/mol
# Density = 2.470552 g / cm^3
# Si number density = 24.761875 Si / 1000 Ang^3
#
#
#
# Elastic Constant Matrix: (Units=GPa)
#
#
# Indices 1 2 3 4 5 6 
#
# 1 108.2869 25.9441 7.8574 0.0000 0.0000 0.0000
# 2 25.9441 158.0395 45.1862 0.0000 0.0000 0.0000
# 3 7.8574 45.1862 81.7644 0.0000 0.0000 0.0000
# 4 0.0000 0.0000 0.0000 14.4757 0.0000 0.0000
# 5 0.0000 0.0000 0.0000 0.0000 27.8972 0.0000
# 6 0.0000 0.0000 0.0000 0.0000 0.0000 11.2251
#
#
#
# Elastic Compliance Matrix: (Units=1/GPa)
#
#
# Indices 1 2 3 4 5 6 
#
# 1 0.009613 -0.001561 -0.000061 0.000000 0.000000 0.000000
# 2 -0.001561 0.007768 -0.004143 0.000000 0.000000 0.000000
# 3 -0.000061 -0.004143 0.014526 0.000000 0.000000 0.000000
# 4 0.000000 0.000000 0.000000 0.069081 0.000000 0.000000
# 5 0.000000 0.000000 0.000000 0.000000 0.035846 0.000000
# 6 0.000000 0.000000 0.000000 0.000000 0.000000 0.089086
#
#
# Mechanical properties :
#
#
# Convention : Reuss Voigt Hill
#
# Bulk Modulus (GPa) = 49.07466 56.22958 52.65212
# Shear Modulus (GPa) = 20.47140 28.65979 24.56560
#
# Velocity S-wave (km/s) = 2.87841 3.40577 3.15314
# Velocity P-wave (km/s) = 5.55956 6.18249 5.87928
#
# Compressibility (1/GPa) = 0.02037711
#
# Stress axis : x y z
#
# Youngs Moduli (GPa) = 104.02509 128.72831 68.84301
#
# Poissons Ratio (x) = 0.20089 0.00422
# Poissons Ratio (y) = 0.16234 0.28522
# Poissons Ratio (z) = 0.00638 0.53333
#
# Static dielectric constant tensor:
#      x y z
#    x 1.959220 0.000000 0.000000 
#    y 0.000000 1.951170 0.000000 
#    z 0.000000 0.000000 1.971300 
# 
# From -- ./inp_files/5007.got.cif
#   From: 2010.05.17/outbox.cif.g08.bks.cpg/sg62_3_cif.got.tgz:5007.got - 2010.06.03 15:25:27.
