data_PCOD9467112
_publ_section_title
;
Structure prediction by ZEFSAII (Michael W. Deem and Ramdas Pophale) SiO2 
 PCOD9467112
Probable space group: P N M A
;
_chemical_formula_sum "Si O2"
_cell_formula_units_Z 40
_cell_length_a 11.537314
_cell_length_b 14.406669
_cell_length_c 12.090931
_cell_angle_alpha 90.000000
_cell_angle_beta 90.000000
_cell_angle_gamma 90.000000
_cell_volume 2009.685197
_symmetry_space_group_name_H-M "P N M A"
_symmetry_group_IT_number 62
_symmetry_cell_setting 'orthorhombic'
loop_
_space_group_symop_operation_xyz
x,y,z
1/2-x,-y,1/2+z
1/2+x,1/2-y,1/2-z
-x,1/2+y,-z
-x,-y,-z
1/2+x,y,1/2-z
1/2-x,1/2+y,1/2+z
x,1/2-y,z
loop_
_atom_site_type_symbol
_atom_site_label
_atom_site_fract_x
_atom_site_fract_y
_atom_site_fract_z
Si Si1 0.744287 0.358943 0.095767
Si Si2 0.041885 0.141026 0.715454
Si Si3 0.800848 0.469634 0.314471
Si Si4 0.589735 0.947574 0.420852
Si Si5 0.978999 0.359889 0.468564
O O1 0.746794 0.250000 0.119854
O O2 0.790682 0.415498 0.200030
O O3 0.611283 0.383619 0.065970
O O4 0.827619 0.382417 0.993877
O O5 0.072023 0.250000 0.719561
O O6 0.971374 0.125776 0.600822
O O7 0.971815 0.108841 0.822975
O O8 0.151934 0.073198 0.707553
O O9 0.674335 0.476484 0.366926
O O10 0.889275 0.419169 0.397683
O O11 0.500000 0.000000 0.500000
O O12 0.961633 0.250000 0.447287
#
# Coordination Sequence:
#
# PCOD9467112 Si02
#       5
#     8   8   8   8   8
#     4  11  24  44  69  99 136 178 223 281 339 394
#     4  11  24  42  67  97 130 176 227 275 330 393
#     4  12  24  43  72  97 137 175 227 276 332 404
#     4  12  26  43  67 101 139 176 220 278 342 399
#     4  10  23  45  71  99 131 178 229 275 331 398
#
# _framework density 19.903614999999999
#
# number of rings (size 3 to 8) (size 9 to 14) (size 15 to 20)
#    0.000    0.800    4.000    3.000    2.800    0.800 
#    0.000    5.000    0.000    0.000    0.000    0.000 
#    0.000    0.000    0.000    0.000    0.000    0.000 
#
# Total GULP energy -223788.111757 kJ/mol
# GULP energy per Si atom -5594.702794 kJ/mol
# Density = 1.985831 g / cm^3
# Si number density = 19.903615 Si / 1000 Ang^3
#
#
#
# Elastic Constant Matrix: (Units=GPa)
#
#
# Indices 1 2 3 4 5 6 
#
# 1 63.0603 30.7772 48.2072 0.0000 0.0000 0.0000
# 2 30.7772 100.5409 64.7144 0.0000 0.0000 0.0000
# 3 48.2072 64.7144 156.4206 0.0000 0.0000 0.0000
# 4 0.0000 0.0000 0.0000 25.9788 0.0000 0.0000
# 5 0.0000 0.0000 0.0000 0.0000 31.6441 0.0000
# 6 0.0000 0.0000 0.0000 0.0000 0.0000 27.2683
#
#
#
# Elastic Compliance Matrix: (Units=1/GPa)
#
#
# Indices 1 2 3 4 5 6 
#
# 1 0.021453 -0.003150 -0.005308 0.000000 0.000000 0.000000
# 2 -0.003150 0.014019 -0.004829 0.000000 0.000000 0.000000
# 3 -0.005308 -0.004829 0.010027 0.000000 0.000000 0.000000
# 4 0.000000 0.000000 0.000000 0.038493 0.000000 0.000000
# 5 0.000000 0.000000 0.000000 0.000000 0.031601 0.000000
# 6 0.000000 0.000000 0.000000 0.000000 0.000000 0.036673
#
#
# Mechanical properties :
#
#
# Convention : Reuss Voigt Hill
#
# Bulk Modulus (GPa) = 52.84394 67.49105 60.16749
# Shear Modulus (GPa) = 27.00522 28.73311 27.86916
#
# Velocity S-wave (km/s) = 3.68747 3.80361 3.74599
# Velocity P-wave (km/s) = 6.68861 7.29880 7.00036
#
# Compressibility (1/GPa) = 0.01892364
#
# Stress axis : x y z
#
# Youngs Moduli (GPa) = 46.61249 71.33274 99.73254
#
# Poissons Ratio (x) = 0.22473 0.52941
# Poissons Ratio (y) = 0.14685 0.48160
# Poissons Ratio (z) = 0.24743 0.34446
#
# Static dielectric constant tensor:
#      x y z
#    x 1.677380 0.000000 0.000000 
#    y 0.000000 1.688920 0.000000 
#    z 0.000000 0.000000 1.770550 
# 
# From -- ./inp_files/12056.got.cif
#   From: 2010.05.17/outbox.cif.g08.bks.cpg/sg62_7_cif.got.tgz:12056.got - 2010.06.03 15:25:27.
