data_PCOD9467782
_publ_section_title
;
Structure prediction by ZEFSAII (Michael W. Deem and Ramdas Pophale) SiO2 
 PCOD9467782
Probable space group: P N M A
;
_chemical_formula_sum "Si O2"
_cell_formula_units_Z 64
_cell_length_a 30.000000
_cell_length_b 18.000000
_cell_length_c 6.000000
_cell_angle_alpha 90.000000
_cell_angle_beta 90.000000
_cell_angle_gamma 90.000000
_cell_volume 3240.000000
_symmetry_space_group_name_H-M "P N M A"
_symmetry_group_IT_number 62
_symmetry_cell_setting 'orthorhombic'
loop_
_space_group_symop_operation_xyz
x,y,z
1/2-x,-y,1/2+z
1/2+x,1/2-y,1/2-z
-x,1/2+y,-z
-x,-y,-z
1/2+x,y,1/2-z
1/2-x,1/2+y,1/2+z
x,1/2-y,z
loop_
_atom_site_type_symbol
_atom_site_label
_atom_site_fract_x
_atom_site_fract_y
_atom_site_fract_z
Si Si1 0.738646 0.329772 0.380083
Si Si2 0.413110 0.337337 0.674811
Si Si3 0.312787 0.565086 0.902418
Si Si4 0.388292 0.427519 0.286141
Si Si5 0.176479 0.609894 0.425334
Si Si6 0.844816 0.666683 0.205105
Si Si7 0.606064 0.065718 0.416388
Si Si8 0.546839 0.523687 0.101504
O O1 0.745476 0.250000 0.265243
O O2 0.730234 0.396678 0.208674
O O3 0.778786 0.343652 0.551118
O O4 0.692833 0.326085 0.516463
O O5 0.420608 0.250000 0.707667
O O6 0.413825 0.363055 0.417898
O O7 0.363267 0.359313 0.767721
O O8 0.447935 0.393757 0.792672
O O9 0.310445 0.476221 0.889932
O O10 0.357992 0.584253 0.769984
O O11 0.323174 0.605047 0.134323
O O12 0.376693 0.491713 0.459422
O O13 0.346338 0.391383 0.168445
O O14 0.417344 0.469410 0.098483
O O15 0.851670 0.750000 0.300697
O O16 0.889702 0.632094 0.094517
O O17 0.562300 0.036352 0.288219
O O18 0.500000 0.500000 0.000000
#
# Coordination Sequence:
#
# PCOD9467782 Si02
#       8
#     8   8   8   8   8   8   8   8
#     4  10  24  36  50  79 118 156 199 252 305 352
#     4  10  22  39  61  90 125 156 195 247 303 361
#     4  11  20  35  58  81 113 155 207 250 297 353
#     4  10  19  37  60  87 113 153 195 238 298 355
#     4  11  21  36  59  86 115 159 205 252 295 360
#     4  10  21  37  56  78 115 156 197 251 305 351
#     4  10  18  37  58  84 112 146 199 238 292 359
#     4  10  21  38  64  92 120 155 194 244 298 370
#
# _framework density 19.753086
#
# number of rings (size 3 to 8) (size 9 to 14) (size 15 to 20)
#    0.000    1.750    5.000    0.750    1.750    6.000 
#    0.000    0.625    0.000    3.750    0.000    0.000 
#    0.000    0.000    0.000    0.000    0.000    0.000 
#
# Total GULP energy -356271.914984 kJ/mol
# GULP energy per Si atom -5566.748672 kJ/mol
# Density = 1.970813 g / cm^3
# Si number density = 19.753086 Si / 1000 Ang^3
#
#
#
# Elastic Constant Matrix: (Units=GPa)
#
#
# Indices 1 2 3 4 5 6 
#
# 1 14.1896 14.6716 -8.8334 0.0000 0.0000 0.0000
# 2 14.6716 94.1862 1.8001 0.0000 0.0000 0.0000
# 3 -8.8334 1.8001 35.4301 0.0000 0.0000 0.0000
# 4 0.0000 0.0000 0.0000 11.0552 0.0000 0.0000
# 5 0.0000 0.0000 0.0000 0.0000 6.5754 0.0000
# 6 0.0000 0.0000 0.0000 0.0000 0.0000 16.2356
#
#
#
# Elastic Compliance Matrix: (Units=1/GPa)
#
#
# Indices 1 2 3 4 5 6 
#
# 1 0.104629 -0.016813 0.026940 0.000000 0.000000 0.000000
# 2 -0.016813 0.013329 -0.004869 0.000000 0.000000 0.000000
# 3 0.026940 -0.004869 0.035189 0.000000 0.000000 0.000000
# 4 0.000000 0.000000 0.000000 0.090455 0.000000 0.000000
# 5 0.000000 0.000000 0.000000 0.000000 0.152083 0.000000
# 6 0.000000 0.000000 0.000000 0.000000 0.000000 0.061593
#
#
# Mechanical properties :
#
#
# Convention : Reuss Voigt Hill
#
# Bulk Modulus (GPa) = 6.11012 17.67584 11.89298
# Shear Modulus (GPa) = 9.97374 15.85107 12.91241
#
# Velocity S-wave (km/s) = 2.24948 2.83585 2.55951
# Velocity P-wave (km/s) = 3.13797 4.43740 3.84301
#
# Compressibility (1/GPa) = 0.16366278
#
# Stress axis : x y z
#
# Youngs Moduli (GPa) = 9.55758 75.02239 28.41829
#
# Poissons Ratio (x) = 1.26136 -0.76559
# Poissons Ratio (y) = 0.16069 0.13837
# Poissons Ratio (z) = -0.25748 0.36529
#
# Static dielectric constant tensor:
#      x y z
#    x 1.685090 0.000000 0.000000 
#    y 0.000000 1.739670 0.000000 
#    z 0.000000 0.000000 1.767280 
# 
# From -- ./inp_files/3690.got.cif
#   From: 2010.05.17/outbox.ucp.g08.bks.cvg/sg62_2_cif.got.tgz:3690.got - 2010.06.11 16:29:25.
