data_PCOD9467373
_publ_section_title
;
Structure prediction by ZEFSAII (Michael W. Deem and Ramdas Pophale) SiO2 
 PCOD9467373
Probable space group: P N M A
;
_chemical_formula_sum "Si O2"
_cell_formula_units_Z 64
_cell_length_a 14.249195
_cell_length_b 17.276800
_cell_length_c 13.614273
_cell_angle_alpha 90.000000
_cell_angle_beta 90.000000
_cell_angle_gamma 90.000000
_cell_volume 3351.568428
_symmetry_space_group_name_H-M "P N M A"
_symmetry_group_IT_number 62
_symmetry_cell_setting 'orthorhombic'
loop_
_space_group_symop_operation_xyz
x,y,z
1/2-x,-y,1/2+z
1/2+x,1/2-y,1/2-z
-x,1/2+y,-z
-x,-y,-z
1/2+x,y,1/2-z
1/2-x,1/2+y,1/2+z
x,1/2-y,z
loop_
_atom_site_type_symbol
_atom_site_label
_atom_site_fract_x
_atom_site_fract_y
_atom_site_fract_z
Si Si1 0.859173 0.886198 0.224508
Si Si2 0.603787 0.532459 0.023776
Si Si3 0.318891 0.369014 0.660356
Si Si4 0.097627 0.339396 0.994386
Si Si5 0.116735 0.835154 0.950513
Si Si6 0.463109 0.159204 0.833141
Si Si7 0.726999 0.452435 0.380228
Si Si8 0.256296 0.454683 0.334550
O O1 0.774311 0.845759 0.281543
O O2 0.892210 0.847453 0.123297
O O3 0.942541 0.885813 0.302968
O O4 0.816461 0.968839 0.192916
O O5 0.587979 0.614395 0.078659
O O6 0.667177 0.480440 0.099021
O O7 0.500000 0.500000 0.000000
O O8 0.669609 0.540675 0.928069
O O9 0.335189 0.330727 0.556713
O O10 0.400538 0.349655 0.735919
O O11 0.313423 0.460799 0.634473
O O12 0.118771 0.250000 0.020218
O O13 0.166088 0.400079 0.046895
O O14 0.991374 0.356770 0.028349
O O15 0.118240 0.750000 0.903723
O O16 0.174982 0.897302 0.890480
O O17 0.479924 0.250000 0.852765
O O18 0.726753 0.419432 0.270093
#
# Coordination Sequence:
#
# PCOD9467373 Si02
#       8
#     8   8   8   8   8   8   8   8
#     4  11  22  40  64  95 126 167 212 262 328 395
#     4  12  24  44  64  93 135 178 219 266 327 401
#     4  11  21  40  63  94 128 162 208 267 326 390
#     4  11  23  39  63  95 129 165 212 271 326 378
#     4  11  24  40  62  95 131 166 213 272 323 380
#     4  12  25  40  66 104 134 164 212 279 346 389
#     4  11  23  42  66  92 121 175 220 260 318 392
#     4  11  24  43  66  93 124 177 222 263 323 391
#
# _framework density 19.095538000000001
#
# number of rings (size 3 to 8) (size 9 to 14) (size 15 to 20)
#    0.000    0.750    6.250    2.250    1.750    6.000 
#    0.000    0.000    0.000    0.000    0.000    0.000 
#    0.000    0.000    0.000    0.000    0.000    0.000 
#
# Total GULP energy -357356.795605 kJ/mol
# GULP energy per Si atom -5583.699931 kJ/mol
# Density = 1.905208 g / cm^3
# Si number density = 19.095538 Si / 1000 Ang^3
#
#
#
# Elastic Constant Matrix: (Units=GPa)
#
#
# Indices 1 2 3 4 5 6 
#
# 1 114.1145 33.0247 26.9630 0.0000 0.0000 0.0000
# 2 33.0247 76.4851 19.8010 0.0000 0.0000 0.0000
# 3 26.9630 19.8010 75.4071 0.0000 0.0000 0.0000
# 4 0.0000 0.0000 0.0000 15.3036 0.0000 0.0000
# 5 0.0000 0.0000 0.0000 0.0000 29.8855 0.0000
# 6 0.0000 0.0000 0.0000 0.0000 0.0000 55.6486
#
#
#
# Elastic Compliance Matrix: (Units=1/GPa)
#
#
# Indices 1 2 3 4 5 6 
#
# 1 0.010523 -0.003830 -0.002757 0.000000 0.000000 0.000000
# 2 -0.003830 0.015422 -0.002680 0.000000 0.000000 0.000000
# 3 -0.002757 -0.002680 0.014951 0.000000 0.000000 0.000000
# 4 0.000000 0.000000 0.000000 0.065344 0.000000 0.000000
# 5 0.000000 0.000000 0.000000 0.000000 0.033461 0.000000
# 6 0.000000 0.000000 0.000000 0.000000 0.000000 0.017970
#
#
# Mechanical properties :
#
#
# Convention : Reuss Voigt Hill
#
# Bulk Modulus (GPa) = 44.71914 47.28714 46.00314
# Shear Modulus (GPa) = 27.22438 32.58207 29.90322
#
# Velocity S-wave (km/s) = 3.77993 4.13518 3.96154
# Velocity P-wave (km/s) = 6.52073 6.90049 6.71330
#
# Compressibility (1/GPa) = 0.02236179
#
# Stress axis : x y z
#
# Youngs Moduli (GPa) = 95.03093 64.84264 66.88544
#
# Poissons Ratio (x) = 0.24834 0.18440
# Poissons Ratio (y) = 0.36395 0.17927
# Poissons Ratio (z) = 0.26200 0.17379
#
# Static dielectric constant tensor:
#      x y z
#    x 1.735090 0.000000 0.000000 
#    y 0.000000 1.675300 0.000000 
#    z 0.000000 0.000000 1.669500 
# 
# From -- ./inp_files/18264.got.cif
#   From: 2010.05.17/outbox.cif.g08.bks.cpg/sg62_10_cif.got.tgz:18264.got - 2010.06.03 15:25:27.
