data_PCOD9467091
_publ_section_title
;
Structure prediction by ZEFSAII (Michael W. Deem and Ramdas Pophale) SiO2 
 PCOD9467091
Probable space group: P N M A
;
_chemical_formula_sum "Si O2"
_cell_formula_units_Z 48
_cell_length_a 13.310868
_cell_length_b 18.256607
_cell_length_c 9.649358
_cell_angle_alpha 90.000000
_cell_angle_beta 90.000000
_cell_angle_gamma 90.000000
_cell_volume 2344.902896
_symmetry_space_group_name_H-M "P N M A"
_symmetry_group_IT_number 62
_symmetry_cell_setting 'orthorhombic'
loop_
_space_group_symop_operation_xyz
x,y,z
1/2-x,-y,1/2+z
1/2+x,1/2-y,1/2-z
-x,1/2+y,-z
-x,-y,-z
1/2+x,y,1/2-z
1/2-x,1/2+y,1/2+z
x,1/2-y,z
loop_
_atom_site_type_symbol
_atom_site_label
_atom_site_fract_x
_atom_site_fract_y
_atom_site_fract_z
Si Si1 0.948927 0.071362 0.567268
Si Si2 0.274059 0.090566 0.141202
Si Si3 0.353733 0.337674 0.413883
Si Si4 0.293513 0.427715 0.686931
Si Si5 0.575736 0.166218 0.458096
Si Si6 0.104438 0.334232 0.728120
O O1 0.868526 0.104415 0.459348
O O2 0.883318 0.056283 0.705930
O O3 0.037595 0.125272 0.614399
O O4 0.000000 0.000000 0.500000
O O5 0.290699 0.133245 0.284374
O O6 0.168068 0.115273 0.078423
O O7 0.264461 0.003500 0.161104
O O8 0.339784 0.250000 0.439355
O O9 0.328161 0.388045 0.546025
O O10 0.471820 0.349544 0.381264
O O11 0.211721 0.372071 0.748513
O O12 0.606318 0.250000 0.429668
O O13 0.551887 0.161804 0.621878
O O14 0.117910 0.250000 0.690058
#
# Coordination Sequence:
#
# PCOD9467091 Si02
#       6
#     8   8   8   8   8   8
#     4  12  26  45  68 104 143 182 243 293 357 422
#     4  12  26  42  72 103 141 180 233 298 356 419
#     4  11  26  46  69 102 142 185 235 294 361 429
#     4  12  25  45  71  99 141 187 231 288 352 438
#     4  10  23  44  68  98 135 182 233 285 354 425
#     4  11  24  43  71 102 134 184 240 288 348 430
#
# _framework density 20.469932
#
# number of rings (size 3 to 8) (size 9 to 14) (size 15 to 20)
#    0.000    0.667    5.000    2.000    2.333    2.667 
#    0.000    1.667    0.000    0.000    0.000    0.000 
#    0.000    0.000    0.000    0.000    0.000    0.000 
#
# Total GULP energy -268297.337940 kJ/mol
# GULP energy per Si atom -5589.527874 kJ/mol
# Density = 2.042334 g / cm^3
# Si number density = 20.469932 Si / 1000 Ang^3
#
#
#
# Elastic Constant Matrix: (Units=GPa)
#
#
# Indices 1 2 3 4 5 6 
#
# 1 70.4550 46.2246 24.3126 0.0000 0.0000 0.0000
# 2 46.2246 114.0172 36.7863 0.0000 0.0000 0.0000
# 3 24.3126 36.7863 96.0801 0.0000 0.0000 0.0000
# 4 0.0000 0.0000 0.0000 -0.6050 0.0000 0.0000
# 5 0.0000 0.0000 0.0000 0.0000 44.6322 0.0000
# 6 0.0000 0.0000 0.0000 0.0000 0.0000 40.5838
#
#
#
# Elastic Compliance Matrix: (Units=1/GPa)
#
#
# Indices 1 2 3 4 5 6 
#
# 1 0.019737 -0.007291 -0.002203 0.000000 0.000000 0.000000
# 2 -0.007291 0.012700 -0.003018 0.000000 0.000000 0.000000
# 3 -0.002203 -0.003018 0.012121 0.000000 0.000000 0.000000
# 4 0.000000 0.000000 0.000000 -1.652812 0.000000 0.000000
# 5 0.000000 0.000000 0.000000 0.000000 0.022405 0.000000
# 6 0.000000 0.000000 0.000000 0.000000 0.000000 0.024640
#
#
# Mechanical properties :
#
#
# Convention : Reuss Voigt Hill
#
# Bulk Modulus (GPa) = 51.18992 55.02214 53.10603
# Shear Modulus (GPa) = -3.26867 28.47078 12.60105
#
# Velocity S-wave (km/s) = -1.26502 3.73347 2.48380
# Velocity P-wave (km/s) = 4.78831 6.74706 5.85025
#
# Compressibility (1/GPa) = 0.01953509
#
# Stress axis : x y z
#
# Youngs Moduli (GPa) = 50.66572 78.73951 82.50331
#
# Poissons Ratio (x) = 0.57410 0.18174
# Poissons Ratio (y) = 0.36941 0.24896
# Poissons Ratio (z) = 0.11161 0.23760
#
# Static dielectric constant tensor:
#      x y z
#    x 1.716960 0.000000 0.000000 
#    y 0.000000 3.023840 0.000000 
#    z 0.000000 0.000000 1.744340 
# 
# From -- ./inp_files/6420.got.cif
#   From: 2010.05.17/outbox.cif.g08.bks.cpg/sg62_4_cif.got.tgz:6420.got - 2010.06.03 15:25:27.
