data_PCOD9467471
_publ_section_title
;
Structure prediction by ZEFSAII (Michael W. Deem and Ramdas Pophale) SiO2 
 PCOD9467471
Probable space group: P N M A
;
_chemical_formula_sum "Si O2"
_cell_formula_units_Z 60
_cell_length_a 17.359538
_cell_length_b 16.685485
_cell_length_c 8.669605
_cell_angle_alpha 90.000000
_cell_angle_beta 90.000000
_cell_angle_gamma 90.000000
_cell_volume 2511.171123
_symmetry_space_group_name_H-M "P N M A"
_symmetry_group_IT_number 62
_symmetry_cell_setting 'orthorhombic'
loop_
_space_group_symop_operation_xyz
x,y,z
1/2-x,-y,1/2+z
1/2+x,1/2-y,1/2-z
-x,1/2+y,-z
-x,-y,-z
1/2+x,y,1/2-z
1/2-x,1/2+y,1/2+z
x,1/2-y,z
loop_
_atom_site_type_symbol
_atom_site_label
_atom_site_fract_x
_atom_site_fract_y
_atom_site_fract_z
Si Si1 0.334817 0.867951 0.370062
Si Si2 0.961402 0.114434 0.614112
Si Si3 0.409655 0.843075 0.852485
Si Si4 0.245496 0.339563 0.543787
Si Si5 0.012592 0.036926 0.168849
Si Si6 0.976566 0.750000 0.173972
Si Si7 0.689811 0.842584 0.924098
Si Si8 0.347415 0.440989 0.359476
O O1 0.414024 0.819886 0.377935
O O2 0.271677 0.843387 0.493437
O O3 0.346270 0.963614 0.365727
O O4 0.294268 0.845752 0.208313
O O5 0.027610 0.133241 0.485531
O O6 0.969279 0.180739 0.745959
O O7 0.878192 0.122176 0.533170
O O8 0.978268 0.030516 0.699364
O O9 0.422214 0.750000 0.813681
O O10 0.326033 0.851408 0.927714
O O11 0.420512 0.900622 0.706582
O O12 0.277096 0.250000 0.520635
O O13 0.311714 0.403888 0.513429
O O14 0.933525 0.086098 0.182111
O O15 0.000000 0.000000 0.000000
O O16 0.669989 0.750000 0.883252
O O17 0.698485 0.901361 0.779790
#
# Coordination Sequence:
#
# PCOD9467471 Si02
#       8
#     8   8   8   8   8   4   8   8
#     4  12  24  44  70 104 138 181 231 290 360 436
#     4  12  23  45  77 102 136 187 247 297 361 437
#     4  11  22  46  77 104 137 192 242 295 363 444
#     4  11  23  44  69 101 138 184 228 286 362 427
#     4  12  29  46  66 105 147 189 240 299 364 432
#     4  12  20  46  74 102 140 176 238 292 356 432
#     4  12  26  44  72 110 140 184 244 303 359 435
#     4  12  27  43  68 100 146 183 234 296 358 423
#
# _framework density 23.893235000000001
#
# number of rings (size 3 to 8) (size 9 to 14) (size 15 to 20)
#    0.000    0.267    6.667    1.600    5.600    1.600 
#    1.200    0.000    0.000    0.000    0.000    0.000 
#    0.000    0.000    0.000    0.000    0.000    0.000 
#
# Total GULP energy -335001.493077 kJ/mol
# GULP energy per Si atom -5583.358218 kJ/mol
# Density = 2.383885 g / cm^3
# Si number density = 23.893235 Si / 1000 Ang^3
#
#
#
# Elastic Constant Matrix: (Units=GPa)
#
#
# Indices 1 2 3 4 5 6 
#
# 1 43.3138 9.4426 -0.4213 0.0000 0.0000 0.0000
# 2 9.4426 113.4242 28.5068 0.0000 0.0000 0.0000
# 3 -0.4213 28.5068 65.7629 0.0000 0.0000 0.0000
# 4 0.0000 0.0000 0.0000 258.8698 0.0000 0.0000
# 5 0.0000 0.0000 0.0000 0.0000 32.1984 0.0000
# 6 0.0000 0.0000 0.0000 0.0000 0.0000 39.5547
#
#
#
# Elastic Compliance Matrix: (Units=1/GPa)
#
#
# Indices 1 2 3 4 5 6 
#
# 1 0.023588 -0.002246 0.001125 0.000000 0.000000 0.000000
# 2 -0.002246 0.010108 -0.004396 0.000000 0.000000 0.000000
# 3 0.001125 -0.004396 0.017119 0.000000 0.000000 0.000000
# 4 0.000000 0.000000 0.000000 0.003863 0.000000 0.000000
# 5 0.000000 0.000000 0.000000 0.000000 0.031057 0.000000
# 6 0.000000 0.000000 0.000000 0.000000 0.000000 0.025281
#
#
# Mechanical properties :
#
#
# Convention : Reuss Voigt Hill
#
# Bulk Modulus (GPa) = 25.13824 33.06187 29.10006
# Shear Modulus (GPa) = 36.95148 78.45610 57.70379
#
# Velocity S-wave (km/s) = 3.93685 5.73650 4.91967
# Velocity P-wave (km/s) = 5.58650 7.59894 6.66907
#
# Compressibility (1/GPa) = 0.03978003
#
# Stress axis : x y z
#
# Youngs Moduli (GPa) = 42.39440 98.92803 58.41470
#
# Poissons Ratio (x) = 0.22224 -0.06571
# Poissons Ratio (y) = 0.09524 0.25680
# Poissons Ratio (z) = -0.04769 0.43490
#
# Static dielectric constant tensor:
#      x y z
#    x 1.910490 0.000000 0.000000 
#    y 0.000000 1.884900 0.000000 
#    z 0.000000 0.000000 2.015620 
# 
# From -- ./inp_files/7956.got.cif
#   From: 2010.05.17/outbox.cif.g08.bks.cpg/sg62_4_cif.got.tgz:7956.got - 2010.06.03 15:25:27.
