data_PCOD9467344
_publ_section_title
;
Structure prediction by ZEFSAII (Michael W. Deem and Ramdas Pophale) SiO2 
 PCOD9467344
Probable space group: P N M A
;
_chemical_formula_sum "Si O2"
_cell_formula_units_Z 48
_cell_length_a 20.475357
_cell_length_b 8.753563
_cell_length_c 15.288856
_cell_angle_alpha 90.000000
_cell_angle_beta 90.000000
_cell_angle_gamma 90.000000
_cell_volume 2740.257245
_symmetry_space_group_name_H-M "P N M A"
_symmetry_group_IT_number 62
_symmetry_cell_setting 'orthorhombic'
loop_
_space_group_symop_operation_xyz
x,y,z
1/2-x,-y,1/2+z
1/2+x,1/2-y,1/2-z
-x,1/2+y,-z
-x,-y,-z
1/2+x,y,1/2-z
1/2-x,1/2+y,1/2+z
x,1/2-y,z
loop_
_atom_site_type_symbol
_atom_site_label
_atom_site_fract_x
_atom_site_fract_y
_atom_site_fract_z
Si Si1 0.486799 0.067261 0.722756
Si Si2 0.166089 0.933034 0.188705
Si Si3 0.039986 0.565822 0.419648
Si Si4 0.192061 0.066819 0.004629
Si Si5 0.556075 0.568652 0.562342
Si Si6 0.187410 0.936039 0.384894
O O1 0.497221 0.250000 0.714801
O O2 0.412048 0.037310 0.692323
O O3 0.489765 0.024496 0.824837
O O4 0.536006 0.979732 0.660080
O O5 0.173970 0.750000 0.180444
O O6 0.193818 0.982001 0.283176
O O7 0.196435 0.013526 0.104949
O O8 0.039698 0.750000 0.424041
O O9 0.115841 0.515374 0.418180
O O10 0.000000 0.500000 0.500000
O O11 0.188699 0.250000 0.001283
O O12 0.253814 0.014699 0.946907
O O13 0.125530 0.998715 0.965511
O O14 0.500000 0.500000 0.500000
O O15 0.556881 0.750000 0.552258
O O16 0.186650 0.750000 0.384315
#
# Coordination Sequence:
#
# PCOD9467344 Si02
#       6
#     8   8   8   8   8   8
#     4   9  18  34  56  79 107 142 182 224 270 322
#     4   9  17  34  58  77 100 142 186 222 267 321
#     4   9  18  36  60  83 109 144 184 225 272 323
#     4  11  21  35  56  81 111 146 183 226 276 326
#     4  12  23  35  54  82 113 143 180 225 277 331
#     4   8  18  37  57  77 108 148 182 220 273 327
#
# _framework density 17.516603
#
# number of rings (size 3 to 8) (size 9 to 14) (size 15 to 20)
#    0.000    2.333    1.667    4.000    0.000    0.667 
#    3.000    5.833    0.000    0.000    0.000    0.000 
#    0.000    0.000    0.000    0.000    0.000    0.000 
#
# Total GULP energy -267827.638456 kJ/mol
# GULP energy per Si atom -5579.742468 kJ/mol
# Density = 1.747673 g / cm^3
# Si number density = 17.516603 Si / 1000 Ang^3
#
#
#
# Elastic Constant Matrix: (Units=GPa)
#
#
# Indices 1 2 3 4 5 6 
#
# 1 110.5895 36.3857 103.2381 0.0000 0.0000 0.0000
# 2 36.3857 42.7557 50.2587 0.0000 0.0000 0.0000
# 3 103.2381 50.2587 174.9466 0.0000 0.0000 0.0000
# 4 0.0000 0.0000 0.0000 34.0327 0.0000 0.0000
# 5 0.0000 0.0000 0.0000 0.0000 34.8866 0.0000
# 6 0.0000 0.0000 0.0000 0.0000 0.0000 20.1278
#
#
#
# Elastic Compliance Matrix: (Units=1/GPa)
#
#
# Indices 1 2 3 4 5 6 
#
# 1 0.020803 -0.004942 -0.010856 0.000000 0.000000 0.000000
# 2 -0.004942 0.036488 -0.007566 0.000000 0.000000 0.000000
# 3 -0.010856 -0.007566 0.014296 0.000000 0.000000 0.000000
# 4 0.000000 0.000000 0.000000 0.029383 0.000000 0.000000
# 5 0.000000 0.000000 0.000000 0.000000 0.028664 0.000000
# 6 0.000000 0.000000 0.000000 0.000000 0.000000 0.049683
#
#
# Mechanical properties :
#
#
# Convention : Reuss Voigt Hill
#
# Bulk Modulus (GPa) = 40.22784 78.67297 59.45041
# Shear Modulus (GPa) = 21.33711 27.03669 24.18690
#
# Velocity S-wave (km/s) = 3.49393 3.93299 3.71994
# Velocity P-wave (km/s) = 6.26834 8.10157 7.24319
#
# Compressibility (1/GPa) = 0.02485840
#
# Stress axis : x y z
#
# Youngs Moduli (GPa) = 48.06918 27.40610 69.94930
#
# Poissons Ratio (x) = 0.13545 0.75940
# Poissons Ratio (y) = 0.23757 0.52922
# Poissons Ratio (z) = 0.52186 0.20735
#
# Static dielectric constant tensor:
#      x y z
#    x 1.574360 0.000000 0.000000 
#    y 0.000000 1.591880 0.000000 
#    z 0.000000 0.000000 1.602240 
# 
# From -- ./inp_files/19605.got.cif
#   From: 2010.05.17/outbox.cif.g08.bks.cpg/sg62_10_cif.got.tgz:19605.got - 2010.06.03 15:25:27.
