data_PCOD9467309
_publ_section_title
;
Structure prediction by ZEFSAII (Michael W. Deem and Ramdas Pophale) SiO2 
 PCOD9467309
Probable space group: P N M A
;
_chemical_formula_sum "Si O2"
_cell_formula_units_Z 44
_cell_length_a 13.267873
_cell_length_b 13.464178
_cell_length_c 14.535429
_cell_angle_alpha 90.000000
_cell_angle_beta 90.000000
_cell_angle_gamma 90.000000
_cell_volume 2596.623627
_symmetry_space_group_name_H-M "P N M A"
_symmetry_group_IT_number 62
_symmetry_cell_setting 'orthorhombic'
loop_
_space_group_symop_operation_xyz
x,y,z
1/2-x,-y,1/2+z
1/2+x,1/2-y,1/2-z
-x,1/2+y,-z
-x,-y,-z
1/2+x,y,1/2-z
1/2-x,1/2+y,1/2+z
x,1/2-y,z
loop_
_atom_site_type_symbol
_atom_site_label
_atom_site_fract_x
_atom_site_fract_y
_atom_site_fract_z
Si Si1 0.652282 0.750000 0.151140
Si Si2 0.619952 0.250000 0.369873
Si Si3 0.188629 0.421137 0.804980
Si Si4 0.757762 0.926110 0.849110
Si Si5 0.029287 0.250000 0.794263
Si Si6 0.177203 0.750000 0.554670
Si Si7 0.433903 0.250000 0.501009
Si Si8 0.118336 0.529246 0.988346
O O1 0.720055 0.847378 0.169272
O O2 0.561502 0.750000 0.222549
O O3 0.624636 0.750000 0.042880
O O4 0.655808 0.152339 0.315864
O O5 0.699159 0.250000 0.457670
O O6 0.512492 0.250000 0.415728
O O7 0.219955 0.496038 0.724577
O O8 0.097283 0.347490 0.779726
O O9 0.155454 0.484840 0.892668
O O10 0.669875 0.851327 0.886446
O O11 0.813049 0.981946 0.932356
O O12 0.990153 0.250000 0.899992
O O13 0.374010 0.352218 0.493829
O O14 0.000000 0.500000 0.000000
#
# Coordination Sequence:
#
# PCOD9467309 Si02
#       8
#     4   4   8   8   4   4   4   8
#     4  11  20  37  60  80 118 165 197 236 302 373
#     4   8  16  33  56  72 112 154 193 218 304 360
#     4  11  22  36  59  91 118 152 203 252 300 352
#     4   9  19  35  57  82 115 153 192 242 290 358
#     4  11  22  35  57  92 117 146 205 251 303 350
#     4   8  16  36  57  69 107 163 198 205 298 368
#     4  12  20  31  56  93 116 146 193 264 293 345
#     4  12  20  35  61  86 121 152 200 248 300 348
#
# _framework density 16.945080999999998
#
# number of rings (size 3 to 8) (size 9 to 14) (size 15 to 20)
#    1.091    0.364    5.455    2.182    0.000    2.182 
#    0.000    0.909    0.000    0.000    0.000    0.000 
#    0.000    0.000    0.000    0.000    0.000    0.000 
#
# Total GULP energy -244979.383260 kJ/mol
# GULP energy per Si atom -5567.713256 kJ/mol
# Density = 1.690651 g / cm^3
# Si number density = 16.945081 Si / 1000 Ang^3
#
#
#
# Elastic Constant Matrix: (Units=GPa)
#
#
# Indices 1 2 3 4 5 6 
#
# 1 36.9834 37.2794 40.9880 0.0000 0.0000 0.0000
# 2 37.2794 171.8908 69.1231 0.0000 0.0000 0.0000
# 3 40.9880 69.1231 111.6028 0.0000 0.0000 0.0000
# 4 0.0000 0.0000 0.0000 34.4729 0.0000 0.0000
# 5 0.0000 0.0000 0.0000 0.0000 21.2647 0.0000
# 6 0.0000 0.0000 0.0000 0.0000 0.0000 19.9736
#
#
#
# Elastic Compliance Matrix: (Units=1/GPa)
#
#
# Indices 1 2 3 4 5 6 
#
# 1 0.047998 -0.004422 -0.014889 0.000000 0.000000 0.000000
# 2 -0.004422 0.008155 -0.003427 0.000000 0.000000 0.000000
# 3 -0.014889 -0.003427 0.016551 0.000000 0.000000 0.000000
# 4 0.000000 0.000000 0.000000 0.029008 0.000000 0.000000
# 5 0.000000 0.000000 0.000000 0.000000 0.047026 0.000000
# 6 0.000000 0.000000 0.000000 0.000000 0.000000 0.050066
#
#
# Mechanical properties :
#
#
# Convention : Reuss Voigt Hill
#
# Bulk Modulus (GPa) = 36.72715 68.36199 52.54457
# Shear Modulus (GPa) = 19.73504 26.68133 23.20819
#
# Velocity S-wave (km/s) = 3.41639 3.97240 3.70484
# Velocity P-wave (km/s) = 6.10603 7.84033 7.02689
#
# Compressibility (1/GPa) = 0.02722781
#
# Stress axis : x y z
#
# Youngs Moduli (GPa) = 20.83410 122.62866 60.41967
#
# Poissons Ratio (x) = 0.54231 0.89959
# Poissons Ratio (y) = 0.09214 0.20703
# Poissons Ratio (z) = 0.31020 0.42019
#
# Static dielectric constant tensor:
#      x y z
#    x 1.566740 0.000000 0.000000 
#    y 0.000000 1.620440 0.000000 
#    z 0.000000 0.000000 1.549000 
# 
# From -- ./inp_files/13225.got.cif
#   From: 2010.05.17/outbox.cif.g08.bks.cpg/sg62_7_cif.got.tgz:13225.got - 2010.06.03 15:25:27.
