data_PCOD9467100
_publ_section_title
;
Structure prediction by ZEFSAII (Michael W. Deem and Ramdas Pophale) SiO2 
 PCOD9467100
Probable space group: P N M A
;
_chemical_formula_sum "Si O2"
_cell_formula_units_Z 48
_cell_length_a 8.768968
_cell_length_b 25.243026
_cell_length_c 9.927325
_cell_angle_alpha 90.000000
_cell_angle_beta 90.000000
_cell_angle_gamma 90.000000
_cell_volume 2197.465877
_symmetry_space_group_name_H-M "P N M A"
_symmetry_group_IT_number 62
_symmetry_cell_setting 'orthorhombic'
loop_
_space_group_symop_operation_xyz
x,y,z
1/2-x,-y,1/2+z
1/2+x,1/2-y,1/2-z
-x,1/2+y,-z
-x,-y,-z
1/2+x,y,1/2-z
1/2-x,1/2+y,1/2+z
x,1/2-y,z
loop_
_atom_site_type_symbol
_atom_site_label
_atom_site_fract_x
_atom_site_fract_y
_atom_site_fract_z
Si Si1 0.068228 0.959035 0.894703
Si Si2 0.014520 0.184976 0.432911
Si Si3 0.004613 0.146032 0.943066
Si Si4 0.598571 0.501205 0.134152
Si Si5 0.341824 0.373364 0.830283
Si Si6 0.841808 0.309673 0.168534
O O1 0.247087 0.968876 0.886069
O O2 0.995136 0.973684 0.752668
O O3 0.024057 0.903249 0.957262
O O4 0.000000 0.000000 0.000000
O O5 0.009624 0.250000 0.449247
O O6 0.185755 0.167885 0.392679
O O7 0.955372 0.155436 0.565202
O O8 0.908418 0.167573 0.306768
O O9 0.171669 0.141922 0.878092
O O10 0.885725 0.145080 0.819723
O O11 0.967511 0.191587 0.050035
O O12 0.637930 0.562787 0.166425
O O13 0.500000 0.500000 0.000000
O O14 0.799691 0.250000 0.206374
#
# Coordination Sequence:
#
# PCOD9467100 Si02
#       6
#     8   8   8   8   8   8
#     4  12  25  46  66  98 136 178 220 275 330 394
#     4  10  23  44  71 101 136 174 222 277 338 401
#     4  12  27  43  70  97 137 177 228 276 337 398
#     4  12  27  43  69  96 135 178 225 274 331 392
#     4  12  25  44  66  98 130 179 222 276 331 395
#     4  10  23  44  70 101 134 173 220 277 335 402
#
# _framework density 21.843343000000001
#
# number of rings (size 3 to 8) (size 9 to 14) (size 15 to 20)
#    0.000    0.667    3.333    3.000    7.000    2.667 
#    0.000    0.000    0.000    0.000    0.000    0.000 
#    0.000    0.000    0.000    0.000    0.000    0.000 
#
# Total GULP energy -268501.469489 kJ/mol
# GULP energy per Si atom -5593.780614 kJ/mol
# Density = 2.179363 g / cm^3
# Si number density = 21.843343 Si / 1000 Ang^3
#
#
#
# Elastic Constant Matrix: (Units=GPa)
#
#
# Indices 1 2 3 4 5 6 
#
# 1 129.6307 8.2928 46.1735 0.0000 0.0000 0.0000
# 2 8.2928 67.4263 16.6159 0.0000 0.0000 0.0000
# 3 46.1735 16.6159 166.8645 0.0000 0.0000 0.0000
# 4 0.0000 0.0000 0.0000 33.2677 0.0000 0.0000
# 5 0.0000 0.0000 0.0000 0.0000 48.6410 0.0000
# 6 0.0000 0.0000 0.0000 0.0000 0.0000 25.2743
#
#
#
# Elastic Compliance Matrix: (Units=1/GPa)
#
#
# Indices 1 2 3 4 5 6 
#
# 1 0.008573 -0.000482 -0.002324 0.000000 0.000000 0.000000
# 2 -0.000482 0.015231 -0.001383 0.000000 0.000000 0.000000
# 3 -0.002324 -0.001383 0.006774 0.000000 0.000000 0.000000
# 4 0.000000 0.000000 0.000000 0.030059 0.000000 0.000000
# 5 0.000000 0.000000 0.000000 0.000000 0.020559 0.000000
# 6 0.000000 0.000000 0.000000 0.000000 0.000000 0.039566
#
#
# Mechanical properties :
#
#
# Convention : Reuss Voigt Hill
#
# Bulk Modulus (GPa) = 45.04650 56.23176 50.63913
# Shear Modulus (GPa) = 36.61926 40.95920 38.78923
#
# Velocity S-wave (km/s) = 4.09889 4.33498 4.21859
# Velocity P-wave (km/s) = 6.56266 7.13128 6.85287
#
# Compressibility (1/GPa) = 0.02219928
#
# Stress axis : x y z
#
# Youngs Moduli (GPa) = 116.64633 65.65490 147.62760
#
# Poissons Ratio (x) = 0.03162 0.34313
# Poissons Ratio (y) = 0.05618 0.20423
# Poissons Ratio (z) = 0.27112 0.09083
#
# Static dielectric constant tensor:
#      x y z
#    x 1.787600 0.000000 0.000000 
#    y 0.000000 1.723550 0.000000 
#    z 0.000000 0.000000 1.769820 
# 
# From -- ./inp_files/4526.got.cif
#   From: 2010.05.17/outbox.cif.g08.bks.cpg/sg62_3_cif.got.tgz:4526.got - 2010.06.03 15:25:27.
