data_PCOD9467876
_publ_section_title
;
Structure prediction by ZEFSAII (Michael W. Deem and Ramdas Pophale) SiO2 
 PCOD9467876
Probable space group: P N M A
;
_chemical_formula_sum "Si O2"
_cell_formula_units_Z 48
_cell_length_a 9.000000
_cell_length_b 9.000000
_cell_length_c 30.000000
_cell_angle_alpha 90.000000
_cell_angle_beta 90.000000
_cell_angle_gamma 90.000000
_cell_volume 2430.000000
_symmetry_space_group_name_H-M "P N M A"
_symmetry_group_IT_number 62
_symmetry_cell_setting 'orthorhombic'
loop_
_space_group_symop_operation_xyz
x,y,z
1/2-x,-y,1/2+z
1/2+x,1/2-y,1/2-z
-x,1/2+y,-z
-x,-y,-z
1/2+x,y,1/2-z
1/2-x,1/2+y,1/2+z
x,1/2-y,z
loop_
_atom_site_type_symbol
_atom_site_label
_atom_site_fract_x
_atom_site_fract_y
_atom_site_fract_z
Si Si1 0.422668 0.072054 0.397438
Si Si2 0.089164 0.927800 0.232691
Si Si3 0.287506 0.427107 0.303735
Si Si4 0.277285 0.426482 0.638816
Si Si5 0.898084 0.073511 0.435349
Si Si6 0.780405 0.927906 0.521921
O O1 0.451596 0.250000 0.398016
O O2 0.306858 0.045718 0.356691
O O3 0.352259 0.028793 0.444786
O O4 0.572096 0.987238 0.384281
O O5 0.066273 0.750000 0.234973
O O6 0.203684 0.958083 0.191548
O O7 0.154429 0.990878 0.278471
O O8 0.937867 0.008823 0.218515
O O9 0.276985 0.250000 0.297005
O O10 0.267953 0.250000 0.633572
O O11 0.144440 0.502707 0.611872
O O12 0.880245 0.250000 0.432855
O O13 0.065605 0.040833 0.451612
O O14 0.792759 0.008686 0.474548
O O15 0.773439 0.750000 0.514657
#
# Coordination Sequence:
#
# PCOD9467876 Si02
#       6
#     8   8   8   8   8   8
#     4   9  19  36  56  78 104 135 173 217 262 308
#     4  10  21  37  55  78 109 143 178 218 266 318
#     4  10  20  35  56  81 107 138 178 222 267 315
#     4  10  21  36  54  77 106 140 176 214 258 310
#     4  10  20  34  54  79 106 137 173 215 262 311
#     4   9  19  36  55  76 104 136 172 215 261 311
#
# _framework density 19.753086
#
# number of rings (size 3 to 8) (size 9 to 14) (size 15 to 20)
#    0.000    2.333    0.000    2.000    0.000    6.000 
#    0.000    1.667    0.000    0.000    0.000    0.000 
#    0.000    0.000    0.000    0.000    0.000    0.000 
#
# Total GULP energy -268131.779969 kJ/mol
# GULP energy per Si atom -5586.078749 kJ/mol
# Density = 1.970813 g / cm^3
# Si number density = 19.753086 Si / 1000 Ang^3
#
#
#
# Elastic Constant Matrix: (Units=GPa)
#
#
# Indices 1 2 3 4 5 6 
#
# 1 2.3861 -2.8171 -11.6361 0.0000 0.0000 0.0000
# 2 -2.8171 41.5183 7.6044 0.0000 0.0000 0.0000
# 3 -11.6361 7.6044 23.3144 0.0000 0.0000 0.0000
# 4 0.0000 0.0000 0.0000 35.2709 0.0000 0.0000
# 5 0.0000 0.0000 0.0000 0.0000 40.4637 0.0000
# 6 0.0000 0.0000 0.0000 0.0000 0.0000 22.6952
#
#
#
# Elastic Compliance Matrix: (Units=1/GPa)
#
#
# Indices 1 2 3 4 5 6 
#
# 1 -0.290194 0.007272 -0.147206 0.000000 0.000000 0.000000
# 2 0.007272 0.025434 -0.004666 0.000000 0.000000 0.000000
# 3 -0.147206 -0.004666 -0.029056 0.000000 0.000000 0.000000
# 4 0.000000 0.000000 0.000000 0.028352 0.000000 0.000000
# 5 0.000000 0.000000 0.000000 0.000000 0.024713 0.000000
# 6 0.000000 0.000000 0.000000 0.000000 0.000000 0.044062
#
#
# Mechanical properties :
#
#
# Convention : Reuss Voigt Hill
#
# Bulk Modulus (GPa) = -1.71521 5.94680 2.11579
# Shear Modulus (GPa) = -49.10306 24.62381 -12.23962
#
# Velocity S-wave (km/s) = -4.99123 3.53453 -2.49194
# Velocity P-wave (km/s) = 5.83838 4.43557 2.68444
#
# Compressibility (1/GPa) = -0.58301787
#
# Stress axis : x y z
#
# Youngs Moduli (GPa) = -3.44597 39.31767 -34.41648
#
# Poissons Ratio (x) = -0.28591 -5.06632
# Poissons Ratio (y) = 0.02506 -0.16060
# Poissons Ratio (z) = -0.50727 0.18347
#
# Static dielectric constant tensor:
#      x y z
#    x 1.709430 0.000000 0.000000 
#    y 0.000000 1.651900 0.000000 
#    z 0.000000 0.000000 1.686130 
# 
# From -- ./inp_files/31930.got.cif
#   From: 2010.05.17/outbox.ucp.g08.bks.cvg/sg62_16_cif.got.tgz:31930.got - 2010.06.11 16:29:25.
