data_PCOD9467301
_publ_section_title
;
Structure prediction by ZEFSAII (Michael W. Deem and Ramdas Pophale) SiO2 
 PCOD9467301
Probable space group: P N M A
;
_chemical_formula_sum "Si O2"
_cell_formula_units_Z 44
_cell_length_a 18.269465
_cell_length_b 9.810369
_cell_length_c 13.598482
_cell_angle_alpha 90.000000
_cell_angle_beta 90.000000
_cell_angle_gamma 90.000000
_cell_volume 2437.258554
_symmetry_space_group_name_H-M "P N M A"
_symmetry_group_IT_number 62
_symmetry_cell_setting 'orthorhombic'
loop_
_space_group_symop_operation_xyz
x,y,z
1/2-x,-y,1/2+z
1/2+x,1/2-y,1/2-z
-x,1/2+y,-z
-x,-y,-z
1/2+x,y,1/2-z
1/2-x,1/2+y,1/2+z
x,1/2-y,z
loop_
_atom_site_type_symbol
_atom_site_label
_atom_site_fract_x
_atom_site_fract_y
_atom_site_fract_z
Si Si1 0.794453 0.750000 0.231275
Si Si2 0.898725 0.530764 0.321249
Si Si3 0.791509 0.750000 0.000272
Si Si4 0.126257 0.750000 0.563990
Si Si5 0.127791 0.750000 0.214289
Si Si6 0.509159 0.750000 0.109557
Si Si7 0.455610 0.403198 0.370123
Si Si8 0.386527 0.997892 0.565220
O O1 0.828946 0.620811 0.288688
O O2 0.815415 0.750000 0.115426
O O3 0.707223 0.750000 0.235911
O O4 0.879195 0.388320 0.372135
O O5 0.940377 0.502614 0.219241
O O6 0.954576 0.620749 0.385616
O O7 0.704382 0.750000 0.990307
O O8 0.824357 0.615561 0.947925
O O9 0.060562 0.750000 0.485286
O O10 0.062766 0.750000 0.294751
O O11 0.124323 0.615933 0.145308
O O12 0.445138 0.250000 0.335006
O O13 0.537763 0.422049 0.408590
O O14 0.401172 0.433207 0.459722
#
# Coordination Sequence:
#
# PCOD9467301 Si02
#       8
#     4   8   4   4   4   4   8   8
#     4  11  24  41  62  89 125 165 205 247 310 375
#     4  11  23  41  67  88 119 166 208 251 304 363
#     4  12  23  40  60  91 129 161 199 250 312 376
#     4  12  25  43  63  87 127 168 207 259 298 351
#     4  12  22  41  60  89 125 162 198 254 308 368
#     4  11  24  41  65  92 116 162 219 252 294 356
#     4  11  20  35  61  95 120 148 194 259 307 363
#     4  11  23  35  63  92 121 154 197 245 318 372
#
# _framework density 18.053070999999999
#
# number of rings (size 3 to 8) (size 9 to 14) (size 15 to 20)
#    0.000    0.727    7.273    1.636    0.000    0.000 
#    0.000    0.000    0.000    0.000    0.000    0.000 
#    0.000    0.000    0.000    0.000    0.000    0.000 
#
# Total GULP energy -245671.106322 kJ/mol
# GULP energy per Si atom -5583.434235 kJ/mol
# Density = 1.801198 g / cm^3
# Si number density = 18.053071 Si / 1000 Ang^3
#
#
#
# Elastic Constant Matrix: (Units=GPa)
#
#
# Indices 1 2 3 4 5 6 
#
# 1 79.0486 32.8005 8.2294 0.0000 0.0000 0.0000
# 2 32.8005 120.7764 30.8509 0.0000 0.0000 0.0000
# 3 8.2294 30.8509 69.0131 0.0000 0.0000 0.0000
# 4 0.0000 0.0000 0.0000 24.4261 0.0000 0.0000
# 5 0.0000 0.0000 0.0000 0.0000 33.1018 0.0000
# 6 0.0000 0.0000 0.0000 0.0000 0.0000 18.2004
#
#
#
# Elastic Compliance Matrix: (Units=1/GPa)
#
#
# Indices 1 2 3 4 5 6 
#
# 1 0.014257 -0.003881 0.000035 0.000000 0.000000 0.000000
# 2 -0.003881 0.010403 -0.004188 0.000000 0.000000 0.000000
# 3 0.000035 -0.004188 0.016358 0.000000 0.000000 0.000000
# 4 0.000000 0.000000 0.000000 0.040940 0.000000 0.000000
# 5 0.000000 0.000000 0.000000 0.000000 0.030210 0.000000
# 6 0.000000 0.000000 0.000000 0.000000 0.000000 0.054944
#
#
# Mechanical properties :
#
#
# Convention : Reuss Voigt Hill
#
# Bulk Modulus (GPa) = 40.07908 45.84439 42.96173
# Shear Modulus (GPa) = 26.11009 28.27616 27.19313
#
# Velocity S-wave (km/s) = 3.80715 3.96192 3.88530
# Velocity P-wave (km/s) = 6.44785 6.81017 6.63148
#
# Compressibility (1/GPa) = 0.02495067
#
# Stress axis : x y z
#
# Youngs Moduli (GPa) = 70.14023 96.12175 61.13231
#
# Poissons Ratio (x) = 0.37303 -0.00213
# Poissons Ratio (y) = 0.27220 0.25602
# Poissons Ratio (z) = -0.00244 0.40255
#
# Static dielectric constant tensor:
#      x y z
#    x 1.591650 0.000000 0.000000 
#    y 0.000000 1.612150 0.000000 
#    z 0.000000 0.000000 1.596330 
# 
# From -- ./inp_files/19504.got.cif
#   From: 2010.05.17/outbox.cif.g08.bks.cpg/sg62_10_cif.got.tgz:19504.got - 2010.06.03 15:25:27.
