data_PCOD9467088
_publ_section_title
;
Structure prediction by ZEFSAII (Michael W. Deem and Ramdas Pophale) SiO2 
 PCOD9467088
Probable space group: P N M A
;
_chemical_formula_sum "Si O2"
_cell_formula_units_Z 40
_cell_length_a 17.076502
_cell_length_b 13.743903
_cell_length_c 8.389515
_cell_angle_alpha 90.000000
_cell_angle_beta 90.000000
_cell_angle_gamma 90.000000
_cell_volume 1969.000605
_symmetry_space_group_name_H-M "P N M A"
_symmetry_group_IT_number 62
_symmetry_cell_setting 'orthorhombic'
loop_
_space_group_symop_operation_xyz
x,y,z
1/2-x,-y,1/2+z
1/2+x,1/2-y,1/2-z
-x,1/2+y,-z
-x,-y,-z
1/2+x,y,1/2-z
1/2-x,1/2+y,1/2+z
x,1/2-y,z
loop_
_atom_site_type_symbol
_atom_site_label
_atom_site_fract_x
_atom_site_fract_y
_atom_site_fract_z
Si Si1 0.115419 0.634182 0.876552
Si Si2 0.531020 0.362402 0.587149
Si Si3 0.798809 0.636034 0.939434
Si Si4 0.773864 0.963602 0.598859
Si Si5 0.424386 0.987461 0.109752
O O1 0.115104 0.750000 0.862323
O O2 0.196558 0.596557 0.950626
O O3 0.102877 0.584493 0.704129
O O4 0.043595 0.601438 0.988226
O O5 0.514706 0.250000 0.624081
O O6 0.609629 0.366421 0.482460
O O7 0.550165 0.416520 0.749062
O O8 0.775538 0.750000 0.923652
O O9 0.788007 0.575390 0.776880
O O10 0.751881 0.576267 0.075495
O O11 0.850873 0.949447 0.492535
O O12 0.500000 0.000000 0.000000
#
# Coordination Sequence:
#
# PCOD9467088 Si02
#       5
#     8   8   8   8   8
#     4  11  24  44  69  95 134 182 229 281 345 410
#     4  10  23  44  68  95 131 178 224 277 343 407
#     4  11  23  44  70  98 136 175 224 280 339 408
#     4  12  24  41  70 102 133 179 226 278 346 405
#     4  12  26  41  70  98 139 174 227 284 340 414
#
# _framework density 20.314875000000001
#
# number of rings (size 3 to 8) (size 9 to 14) (size 15 to 20)
#    0.000    0.800    4.000    2.400    2.800    2.400 
#    0.000    2.000    0.000    0.000    0.000    0.000 
#    0.000    0.000    0.000    0.000    0.000    0.000 
#
# Total GULP energy -223569.191580 kJ/mol
# GULP energy per Si atom -5589.229790 kJ/mol
# Density = 2.026864 g / cm^3
# Si number density = 20.314875 Si / 1000 Ang^3
#
#
#
# Elastic Constant Matrix: (Units=GPa)
#
#
# Indices 1 2 3 4 5 6 
#
# 1 156.2307 47.0125 72.4210 0.0000 0.0000 0.0000
# 2 47.0125 126.3975 80.5735 0.0000 0.0000 0.0000
# 3 72.4210 80.5735 105.4231 0.0000 0.0000 0.0000
# 4 0.0000 0.0000 0.0000 14.6719 0.0000 0.0000
# 5 0.0000 0.0000 0.0000 0.0000 37.3772 0.0000
# 6 0.0000 0.0000 0.0000 0.0000 0.0000 32.7042
#
#
#
# Elastic Compliance Matrix: (Units=1/GPa)
#
#
# Indices 1 2 3 4 5 6 
#
# 1 0.009487 0.001220 -0.007450 0.000000 0.000000 0.000000
# 2 0.001220 0.015585 -0.012750 0.000000 0.000000 0.000000
# 3 -0.007450 -0.012750 0.024348 0.000000 0.000000 0.000000
# 4 0.000000 0.000000 0.000000 0.068157 0.000000 0.000000
# 5 0.000000 0.000000 0.000000 0.000000 0.026754 0.000000
# 6 0.000000 0.000000 0.000000 0.000000 0.000000 0.030577
#
#
# Mechanical properties :
#
#
# Convention : Reuss Voigt Hill
#
# Bulk Modulus (GPa) = 87.25011 87.56281 87.40646
# Shear Modulus (GPa) = 23.07464 29.48694 26.28079
#
# Velocity S-wave (km/s) = 3.37389 3.81398 3.60067
# Velocity P-wave (km/s) = 7.63018 7.91149 7.77211
#
# Compressibility (1/GPa) = 0.01146130
#
# Stress axis : x y z
#
# Youngs Moduli (GPa) = 105.40802 64.16341 41.07129
#
# Poissons Ratio (x) = -0.07830 0.30597
# Poissons Ratio (y) = -0.12864 0.52366
# Poissons Ratio (z) = 0.78527 0.81808
#
# Static dielectric constant tensor:
#      x y z
#    x 1.732280 0.000000 0.000000 
#    y 0.000000 1.745260 0.000000 
#    z 0.000000 0.000000 1.709190 
# 
# From -- ./inp_files/7444.got.cif
#   From: 2010.05.17/outbox.cif.g08.bks.cpg/sg62_4_cif.got.tgz:7444.got - 2010.06.03 15:25:27.
