data_PCOD9467707
_publ_section_title
;
Structure prediction by ZEFSAII (Michael W. Deem and Ramdas Pophale) SiO2 
 PCOD9467707
Probable space group: P N M A
;
_chemical_formula_sum "Si O2"
_cell_formula_units_Z 48
_cell_length_a 16.854287
_cell_length_b 17.171017
_cell_length_c 7.718503
_cell_angle_alpha 90.000000
_cell_angle_beta 90.000000
_cell_angle_gamma 90.000000
_cell_volume 2233.775280
_symmetry_space_group_name_H-M "P N M A"
_symmetry_group_IT_number 62
_symmetry_cell_setting 'orthorhombic'
loop_
_space_group_symop_operation_xyz
x,y,z
1/2-x,-y,1/2+z
1/2+x,1/2-y,1/2-z
-x,1/2+y,-z
-x,-y,-z
1/2+x,y,1/2-z
1/2-x,1/2+y,1/2+z
x,1/2-y,z
loop_
_atom_site_type_symbol
_atom_site_label
_atom_site_fract_x
_atom_site_fract_y
_atom_site_fract_z
Si Si1 0.590196 0.080319 0.618449
Si Si2 0.863416 0.336068 0.066697
Si Si3 0.780004 0.489798 0.961537
Si Si4 0.496441 0.418340 0.272998
Si Si5 0.537593 0.663561 0.202640
Si Si6 0.621722 0.989783 0.102551
O O1 0.554327 0.103196 0.431692
O O2 0.553668 0.142303 0.750773
O O3 0.680660 0.058256 0.579002
O O4 0.546632 0.999379 0.671815
O O5 0.829181 0.250000 0.087813
O O6 0.801472 0.406304 0.046218
O O7 0.914587 0.337232 0.887180
O O8 0.926292 0.356021 0.218415
O O9 0.826520 0.492843 0.779891
O O10 0.685977 0.499499 0.953632
O O11 0.555382 0.443403 0.119873
O O12 0.543999 0.750000 0.128573
O O13 0.578967 0.593572 0.099032
#
# Coordination Sequence:
#
# PCOD9467707 Si02
#       6
#     8   8   8   8   8   8
#     4   7  11  21  37  55  73  95 127 164 194 222
#     4   8  13  23  41  61  77  99 137 178 204 225
#     4   9  16  26  41  61  84 108 133 162 199 244
#     4   7  11  21  37  55  73  95 127 164 194 222
#     4   8  13  23  41  61  77  99 137 178 204 225
#     4   9  16  26  41  61  84 108 133 162 199 244
#
# _framework density 21.488282999999999
#
# number of rings (size 3 to 8) (size 9 to 14) (size 15 to 20)
#    0.000    4.000    0.000    4.000    0.000    0.000 
#    0.000    1.667    0.000   12.000    0.000    0.000 
#    0.000    0.000    0.000    0.000    0.000    0.000 
#
# Total GULP energy -267439.613336 kJ/mol
# GULP energy per Si atom -5571.658611 kJ/mol
# Density = 2.143938 g / cm^3
# Si number density = 21.488283 Si / 1000 Ang^3
#
#
#
# Elastic Constant Matrix: (Units=GPa)
#
#
# Indices 1 2 3 4 5 6 
#
# 1 67.3043 22.3006 33.2871 0.0000 0.0000 0.0000
# 2 22.3006 90.5019 15.3290 0.0000 0.0000 0.0000
# 3 33.2871 15.3290 68.8746 0.0000 0.0000 0.0000
# 4 0.0000 0.0000 0.0000 7.4196 0.0000 0.0000
# 5 0.0000 0.0000 0.0000 0.0000 34.9401 0.0000
# 6 0.0000 0.0000 0.0000 0.0000 0.0000 17.0040
#
#
#
# Elastic Compliance Matrix: (Units=1/GPa)
#
#
# Indices 1 2 3 4 5 6 
#
# 1 0.020546 -0.003513 -0.009148 0.000000 0.000000 0.000000
# 2 -0.003513 0.012083 -0.000991 0.000000 0.000000 0.000000
# 3 -0.009148 -0.000991 0.019161 0.000000 0.000000 0.000000
# 4 0.000000 0.000000 0.000000 0.134778 0.000000 0.000000
# 5 0.000000 0.000000 0.000000 0.000000 0.028620 0.000000
# 6 0.000000 0.000000 0.000000 0.000000 0.000000 0.058810
#
#
# Mechanical properties :
#
#
# Convention : Reuss Voigt Hill
#
# Bulk Modulus (GPa) = 40.84120 40.94603 40.89362
# Shear Modulus (GPa) = 16.15685 22.25703 19.20694
#
# Velocity S-wave (km/s) = 2.74504 3.22184 2.99295
# Velocity P-wave (km/s) = 5.39393 5.73905 5.56917
#
# Compressibility (1/GPa) = 0.02448508
#
# Stress axis : x y z
#
# Youngs Moduli (GPa) = 48.67020 82.76014 52.18917
#
# Poissons Ratio (x) = 0.29077 0.47743
# Poissons Ratio (y) = 0.17100 0.05173
# Poissons Ratio (z) = 0.44524 0.08204
#
# Static dielectric constant tensor:
#      x y z
#    x 1.778080 0.000000 0.000000 
#    y 0.000000 1.761050 0.000000 
#    z 0.000000 0.000000 1.910730 
# 
# From -- ./inp_files/8783.got.cif
#   From: 2010.05.17/outbox.cif.g08.bks.cpg/sg62_5_cif.got.tgz:8783.got - 2010.06.03 15:25:27.
