data_PCOD9467524
_publ_section_title
;
Structure prediction by ZEFSAII (Michael W. Deem and Ramdas Pophale) SiO2 
 PCOD9467524
Probable space group: P N M A
;
_chemical_formula_sum "Si O2"
_cell_formula_units_Z 48
_cell_length_a 9.974190
_cell_length_b 17.674331
_cell_length_c 13.549094
_cell_angle_alpha 90.000000
_cell_angle_beta 90.000000
_cell_angle_gamma 90.000000
_cell_volume 2388.530970
_symmetry_space_group_name_H-M "P N M A"
_symmetry_group_IT_number 62
_symmetry_cell_setting 'orthorhombic'
loop_
_space_group_symop_operation_xyz
x,y,z
1/2-x,-y,1/2+z
1/2+x,1/2-y,1/2-z
-x,1/2+y,-z
-x,-y,-z
1/2+x,y,1/2-z
1/2-x,1/2+y,1/2+z
x,1/2-y,z
loop_
_atom_site_type_symbol
_atom_site_label
_atom_site_fract_x
_atom_site_fract_y
_atom_site_fract_z
Si Si1 0.387502 0.117812 0.667894
Si Si2 0.898376 0.834577 0.013200
Si Si3 0.869871 0.397780 0.603246
Si Si4 0.466290 0.556988 0.666784
Si Si5 0.852938 0.660260 0.468747
Si Si6 0.277981 0.933220 0.846043
O O1 0.502835 0.159342 0.606700
O O2 0.388717 0.131125 0.784564
O O3 0.246117 0.140914 0.621324
O O4 0.415634 0.028678 0.651529
O O5 0.904897 0.750000 0.972326
O O6 0.750469 0.854678 0.050149
O O7 0.942600 0.894640 0.931170
O O8 0.828758 0.485900 0.611955
O O9 0.007650 0.383045 0.546957
O O10 0.624850 0.556370 0.689271
O O11 0.377177 0.587756 0.756941
O O12 0.874192 0.750000 0.473892
O O13 0.784671 0.628193 0.567561
#
# Coordination Sequence:
#
# PCOD9467524 Si02
#       6
#     8   8   8   8   8   8
#     4  11  23  43  68  94 129 173 218 269 321 386
#     4  12  24  42  67  96 134 174 212 268 333 389
#     4  11  25  42  67  98 131 173 220 267 321 390
#     4  11  25  44  70  97 127 170 227 272 321 385
#     4  12  26  43  66  99 138 173 214 270 330 389
#     4  11  25  45  70  97 127 173 223 276 319 380
#
# _framework density 20.096034
#
# number of rings (size 3 to 8) (size 9 to 14) (size 15 to 20)
#    0.000    0.667    3.333    4.000    9.333    4.667 
#    0.000    0.000    0.000    0.000    0.000    0.000 
#    0.000    0.000    0.000    0.000    0.000    0.000 
#
# Total GULP energy -268639.612739 kJ/mol
# GULP energy per Si atom -5596.658599 kJ/mol
# Density = 2.005029 g / cm^3
# Si number density = 20.096034 Si / 1000 Ang^3
#
#
#
# Elastic Constant Matrix: (Units=GPa)
#
#
# Indices 1 2 3 4 5 6 
#
# 1 99.2213 7.6237 -5.2352 0.0000 0.0000 0.0000
# 2 7.6237 40.2357 24.5877 0.0000 0.0000 0.0000
# 3 -5.2352 24.5877 43.0037 0.0000 0.0000 0.0000
# 4 0.0000 0.0000 0.0000 -12.2261 0.0000 0.0000
# 5 0.0000 0.0000 0.0000 0.0000 32.1970 0.0000
# 6 0.0000 0.0000 0.0000 0.0000 0.0000 72.9960
#
#
#
# Elastic Compliance Matrix: (Units=1/GPa)
#
#
# Indices 1 2 3 4 5 6 
#
# 1 0.010607 -0.004302 0.003751 0.000000 0.000000 0.000000
# 2 -0.004302 0.039946 -0.023363 0.000000 0.000000 0.000000
# 3 0.003751 -0.023363 0.037068 0.000000 0.000000 0.000000
# 4 0.000000 0.000000 0.000000 -0.081792 0.000000 0.000000
# 5 0.000000 0.000000 0.000000 0.000000 0.031059 0.000000
# 6 0.000000 0.000000 0.000000 0.000000 0.000000 0.013699
#
#
# Mechanical properties :
#
#
# Convention : Reuss Voigt Hill
#
# Bulk Modulus (GPa) = 25.13002 26.26813 25.69908
# Shear Modulus (GPa) = 44.77105 28.95901 36.86503
#
# Velocity S-wave (km/s) = 4.72514 3.80021 4.28769
# Velocity P-wave (km/s) = 6.50395 5.68816 6.10968
#
# Compressibility (1/GPa) = 0.03979305
#
# Stress axis : x y z
#
# Youngs Moduli (GPa) = 94.27794 25.03404 26.97716
#
# Poissons Ratio (x) = 0.10770 -0.10119
# Poissons Ratio (y) = 0.40558 0.63027
# Poissons Ratio (z) = -0.35363 0.58487
#
# Static dielectric constant tensor:
#      x y z
#    x 1.696060 0.000000 0.000000 
#    y 0.000000 1.688220 0.000000 
#    z 0.000000 0.000000 1.697640 
# 
# From -- ./inp_files/16974.got.cif
#   From: 2010.05.17/outbox.cif.g08.bks.cpg/sg62_9_cif.got.tgz:16974.got - 2010.06.03 15:25:27.
