data_PCOD9467260
_publ_section_title
;
Structure prediction by ZEFSAII (Michael W. Deem and Ramdas Pophale) SiO2 
 PCOD9467260
Probable space group: P N M A
;
_chemical_formula_sum "Si O2"
_cell_formula_units_Z 24
_cell_length_a 10.396696
_cell_length_b 11.927639
_cell_length_c 8.505381
_cell_angle_alpha 90.000000
_cell_angle_beta 90.000000
_cell_angle_gamma 90.000000
_cell_volume 1054.735599
_symmetry_space_group_name_H-M "P N M A"
_symmetry_group_IT_number 62
_symmetry_cell_setting 'orthorhombic'
loop_
_space_group_symop_operation_xyz
x,y,z
1/2-x,-y,1/2+z
1/2+x,1/2-y,1/2-z
-x,1/2+y,-z
-x,-y,-z
1/2+x,y,1/2-z
1/2-x,1/2+y,1/2+z
x,1/2-y,z
loop_
_atom_site_type_symbol
_atom_site_label
_atom_site_fract_x
_atom_site_fract_y
_atom_site_fract_z
Si Si1 0.517027 0.250000 0.125727
Si Si2 0.361700 0.025776 0.575634
Si Si3 0.197770 0.750000 0.891379
Si Si4 0.649637 0.621167 0.083241
O O1 0.414926 0.250000 0.264694
O O2 0.661003 0.250000 0.183056
O O3 0.480797 0.143741 0.015287
O O4 0.314939 0.140904 0.497761
O O5 0.368778 0.047787 0.761505
O O6 0.500000 0.000000 0.500000
O O7 0.258689 0.932249 0.526144
O O8 0.688381 0.750000 0.126864
#
# Coordination Sequence:
#
# PCOD9467260 Si02
#       4
#     4   8   4   8
#     4  10  27  48  78 106 166 193 270 322 398 463
#     4  12  28  46  83 110 161 203 268 324 402 465
#     4  12  27  48  78 118 154 213 262 334 392 479
#     4  10  26  51  74 114 152 208 261 323 393 471
#
# _framework density 22.754518000000001
#
# number of rings (size 3 to 8) (size 9 to 14) (size 15 to 20)
#    1.000    0.000    1.667    2.000   16.333    1.333 
#    0.000    0.000    0.000    0.000    0.000    0.000 
#    0.000    0.000    0.000    0.000    0.000    0.000 
#
# Total GULP energy -134367.091364 kJ/mol
# GULP energy per Si atom -5598.628807 kJ/mol
# Density = 2.270273 g / cm^3
# Si number density = 22.754518 Si / 1000 Ang^3
#
#
#
# Elastic Constant Matrix: (Units=GPa)
#
#
# Indices 1 2 3 4 5 6 
#
# 1 134.1448 36.3272 22.6207 0.0000 0.0000 0.0000
# 2 36.3272 100.1956 28.3958 0.0000 0.0000 0.0000
# 3 22.6207 28.3958 117.4530 0.0000 0.0000 0.0000
# 4 0.0000 0.0000 0.0000 46.3100 0.0000 0.0000
# 5 0.0000 0.0000 0.0000 0.0000 36.7875 0.0000
# 6 0.0000 0.0000 0.0000 0.0000 0.0000 24.9178
#
#
#
# Elastic Compliance Matrix: (Units=1/GPa)
#
#
# Indices 1 2 3 4 5 6 
#
# 1 0.008362 -0.002765 -0.000942 0.000000 0.000000 0.000000
# 2 -0.002765 0.011629 -0.002279 0.000000 0.000000 0.000000
# 3 -0.000942 -0.002279 0.009246 0.000000 0.000000 0.000000
# 4 0.000000 0.000000 0.000000 0.021594 0.000000 0.000000
# 5 0.000000 0.000000 0.000000 0.000000 0.027183 0.000000
# 6 0.000000 0.000000 0.000000 0.000000 0.000000 0.040132
#
#
# Mechanical properties :
#
#
# Convention : Reuss Voigt Hill
#
# Bulk Modulus (GPa) = 57.91808 58.49785 58.20797
# Shear Modulus (GPa) = 36.79907 39.23304 38.01605
#
# Velocity S-wave (km/s) = 4.02583 4.15684 4.09186
# Velocity P-wave (km/s) = 6.86429 6.98592 6.92537
#
# Compressibility (1/GPa) = 0.01726577
#
# Stress axis : x y z
#
# Youngs Moduli (GPa) = 119.58534 85.99368 108.14979
#
# Poissons Ratio (x) = 0.23776 0.10189
# Poissons Ratio (y) = 0.33063 0.24646
# Poissons Ratio (z) = 0.11266 0.19597
#
# Static dielectric constant tensor:
#      x y z
#    x 1.804460 0.000000 0.000000 
#    y 0.000000 1.866800 0.000000 
#    z 0.000000 0.000000 1.825310 
# 
# From -- ./inp_files/4002.got.cif
#   From: 2010.05.17/outbox.cif.g08.bks.cpg/sg62_3_cif.got.tgz:4002.got - 2010.06.03 15:25:27.
