data_PCOD9467036
_publ_section_title
;
Structure prediction by ZEFSAII (Michael W. Deem and Ramdas Pophale) SiO2 
 PCOD9467036
Probable space group: P N M A
;
_chemical_formula_sum "Si O2"
_cell_formula_units_Z 24
_cell_length_a 8.008120
_cell_length_b 17.641319
_cell_length_c 7.226618
_cell_angle_alpha 90.000000
_cell_angle_beta 90.000000
_cell_angle_gamma 90.000000
_cell_volume 1020.931782
_symmetry_space_group_name_H-M "P N M A"
_symmetry_group_IT_number 62
_symmetry_cell_setting 'orthorhombic'
loop_
_space_group_symop_operation_xyz
x,y,z
1/2-x,-y,1/2+z
1/2+x,1/2-y,1/2-z
-x,1/2+y,-z
-x,-y,-z
1/2+x,y,1/2-z
1/2-x,1/2+y,1/2+z
x,1/2-y,z
loop_
_atom_site_type_symbol
_atom_site_label
_atom_site_fract_x
_atom_site_fract_y
_atom_site_fract_z
Si Si1 0.856968 0.444204 0.583971
Si Si2 0.858495 0.083376 0.013081
Si Si3 0.530781 0.160805 0.170192
O O1 0.695799 0.498605 0.575120
O O2 0.878881 0.370713 0.456469
O O3 0.000000 0.500000 0.500000
O O4 0.882988 0.419352 0.794388
O O5 0.700355 0.136502 0.066788
O O6 0.006172 0.116233 0.137752
O O7 0.523261 0.250000 0.196770
#
# Coordination Sequence:
#
# PCOD9467036 Si02
#       3
#     8   8   8
#     4  10  23  42  70 102 135 186 239 294 350 426
#     4  11  23  44  71 102 138 187 242 291 359 434
#     4  11  25  43  68 106 147 184 234 303 364 427
#
# _framework density 23.507937999999999
#
# number of rings (size 3 to 8) (size 9 to 14) (size 15 to 20)
#    0.000    1.333    3.333    1.000    0.000   13.333 
#    0.000    0.000    0.000    0.000    0.000    0.000 
#    0.000    0.000    0.000    0.000    0.000    0.000 
#
# Total GULP energy -134391.859182 kJ/mol
# GULP energy per Si atom -5599.660799 kJ/mol
# Density = 2.345443 g / cm^3
# Si number density = 23.507938 Si / 1000 Ang^3
#
#
#
# Elastic Constant Matrix: (Units=GPa)
#
#
# Indices 1 2 3 4 5 6 
#
# 1 101.9772 41.9999 42.2794 0.0000 0.0000 0.0000
# 2 41.9999 170.5602 79.6611 0.0000 0.0000 0.0000
# 3 42.2794 79.6611 232.9453 0.0000 0.0000 0.0000
# 4 0.0000 0.0000 0.0000 31.8012 0.0000 0.0000
# 5 0.0000 0.0000 0.0000 0.0000 36.0230 0.0000
# 6 0.0000 0.0000 0.0000 0.0000 0.0000 30.1925
#
#
#
# Elastic Compliance Matrix: (Units=1/GPa)
#
#
# Indices 1 2 3 4 5 6 
#
# 1 0.011235 -0.002159 -0.001301 0.000000 0.000000 0.000000
# 2 -0.002159 0.007392 -0.002136 0.000000 0.000000 0.000000
# 3 -0.001301 -0.002136 0.005259 0.000000 0.000000 0.000000
# 4 0.000000 0.000000 0.000000 0.031445 0.000000 0.000000
# 5 0.000000 0.000000 0.000000 0.000000 0.027760 0.000000
# 6 0.000000 0.000000 0.000000 0.000000 0.000000 0.033121
#
#
# Mechanical properties :
#
#
# Convention : Reuss Voigt Hill
#
# Bulk Modulus (GPa) = 78.77316 92.59593 85.68454
# Shear Modulus (GPa) = 37.98356 42.37282 40.17819
#
# Velocity S-wave (km/s) = 4.02403 4.25018 4.13865
# Velocity P-wave (km/s) = 7.42781 7.97246 7.70495
#
# Compressibility (1/GPa) = 0.01269468
#
# Stress axis : x y z
#
# Youngs Moduli (GPa) = 89.01085 135.27470 190.13412
#
# Poissons Ratio (x) = 0.29205 0.24732
# Poissons Ratio (y) = 0.19217 0.40615
# Poissons Ratio (z) = 0.11578 0.28897
#
# Static dielectric constant tensor:
#      x y z
#    x 2.085870 0.000000 0.000000 
#    y 0.000000 1.837740 0.000000 
#    z 0.000000 0.000000 1.859380 
# 
# From -- ./inp_files/329.got.cif
#   From: 2010.05.17/outbox.cif.g08.bks.cpg/sg62_1_cif.got.tgz:329.got - 2010.06.03 15:25:27.
