data_PCOD9467263
_publ_section_title
;
Structure prediction by ZEFSAII (Michael W. Deem and Ramdas Pophale) SiO2 
 PCOD9467263
Probable space group: P N M A
;
_chemical_formula_sum "Si O2"
_cell_formula_units_Z 52
_cell_length_a 12.791961
_cell_length_b 7.748263
_cell_length_c 20.697726
_cell_angle_alpha 90.000000
_cell_angle_beta 90.000000
_cell_angle_gamma 90.000000
_cell_volume 2051.465008
_symmetry_space_group_name_H-M "P N M A"
_symmetry_group_IT_number 62
_symmetry_cell_setting 'orthorhombic'
loop_
_space_group_symop_operation_xyz
x,y,z
1/2-x,-y,1/2+z
1/2+x,1/2-y,1/2-z
-x,1/2+y,-z
-x,-y,-z
1/2+x,y,1/2-z
1/2-x,1/2+y,1/2+z
x,1/2-y,z
loop_
_atom_site_type_symbol
_atom_site_label
_atom_site_fract_x
_atom_site_fract_y
_atom_site_fract_z
Si Si1 0.329904 0.446528 0.945469
Si Si2 0.011081 0.039319 0.644065
Si Si3 0.012747 0.250000 0.058410
Si Si4 0.773944 0.544101 0.309643
Si Si5 0.043947 0.541329 0.208177
Si Si6 0.650882 0.931709 0.474802
Si Si7 0.674156 0.948416 0.662523
O O1 0.348953 0.250000 0.965844
O O2 0.435013 0.520875 0.913024
O O3 0.269626 0.545679 0.001878
O O4 0.244178 0.444977 0.887034
O O5 0.009172 0.250000 0.641051
O O6 0.967223 0.994376 0.715777
O O7 0.131101 0.977985 0.646448
O O8 0.102553 0.400696 0.055525
O O9 0.920758 0.104831 0.037978
O O10 0.773613 0.750000 0.316704
O O11 0.656338 0.482339 0.316183
O O12 0.800833 0.507990 0.235129
O O13 0.032834 0.750000 0.205155
O O14 0.952162 0.458506 0.165848
O O15 0.638784 0.750000 0.437115
O O16 0.704706 0.750000 0.653909
#
# Coordination Sequence:
#
# PCOD9467263 Si02
#       7
#     8   8   4   8   8   8   8
#     4  11  18  28  43  65  89 118 143 182 218 259
#     4   8  15  25  41  62  80 101 146 185 221 259
#     4   8  16  30  44  64  86 118 144 166 208 274
#     4   9  16  31  47  56  72 110 151 191 221 256
#     4   9  16  30  46  54  71 111 151 190 217 253
#     4   9  16  28  45  63  89 116 146 171 212 260
#     4  11  21  28  37  59  87 108 145 184 223 263
#
# _framework density 25.347736999999999
#
# number of rings (size 3 to 8) (size 9 to 14) (size 15 to 20)
#    0.462    2.154    2.308    2.769    0.000    0.615 
#    0.000    0.769    0.000    0.000    0.000    0.000 
#    0.000    0.000    0.000    8.308    0.000    3.692 
#
# Total GULP energy -289616.223728 kJ/mol
# GULP energy per Si atom -5569.542764 kJ/mol
# Density = 2.529004 g / cm^3
# Si number density = 25.347737 Si / 1000 Ang^3
#
#
#
# Elastic Constant Matrix: (Units=GPa)
#
#
# Indices 1 2 3 4 5 6 
#
# 1 105.9241 13.9774 18.9536 0.0000 0.0000 0.0000
# 2 13.9774 73.0333 8.2548 0.0000 0.0000 0.0000
# 3 18.9536 8.2548 58.8783 0.0000 0.0000 0.0000
# 4 0.0000 0.0000 0.0000 -10.2871 0.0000 0.0000
# 5 0.0000 0.0000 0.0000 0.0000 40.1778 0.0000
# 6 0.0000 0.0000 0.0000 0.0000 0.0000 111.4312
#
#
#
# Elastic Compliance Matrix: (Units=1/GPa)
#
#
# Indices 1 2 3 4 5 6 
#
# 1 0.010200 -0.001606 -0.003058 0.000000 0.000000 0.000000
# 2 -0.001606 0.014166 -0.001469 0.000000 0.000000 0.000000
# 3 -0.003058 -0.001469 0.018175 0.000000 0.000000 0.000000
# 4 0.000000 0.000000 0.000000 -0.097209 0.000000 0.000000
# 5 0.000000 0.000000 0.000000 0.000000 0.024889 0.000000
# 6 0.000000 0.000000 0.000000 0.000000 0.000000 0.008974
#
#
# Mechanical properties :
#
#
# Convention : Reuss Voigt Hill
#
# Bulk Modulus (GPa) = 33.03256 35.57859 34.30557
# Shear Modulus (GPa) = 3219.44508 41.37438 1630.40973
#
# Velocity S-wave (km/s) = 35.67729 4.04452 25.38924
# Velocity P-wave (km/s) = 41.35479 5.98979 29.54738
#
# Compressibility (1/GPa) = 0.03027316
#
# Stress axis : x y z
#
# Youngs Moduli (GPa) = 98.03991 70.59228 55.02181
#
# Poissons Ratio (x) = 0.11340 0.16827
# Poissons Ratio (y) = 0.15750 0.08082
# Poissons Ratio (z) = 0.29983 0.10370
#
# Static dielectric constant tensor:
#      x y z
#    x 2.050810 0.000000 0.000000 
#    y 0.000000 1.839290 0.000000 
#    z 0.000000 0.000000 2.081850 
# 
# From -- ./inp_files/31058.got.cif
#   From: 2010.05.17/outbox.cif.g08.bks.cpg/sg62_16_cif.got.tgz:31058.got - 2010.06.03 15:25:27.
