data_PCOD9467272
_publ_section_title
;
Structure prediction by ZEFSAII (Michael W. Deem and Ramdas Pophale) SiO2 
 PCOD9467272
Probable space group: P N M A
;
_chemical_formula_sum "Si O2"
_cell_formula_units_Z 48
_cell_length_a 11.506666
_cell_length_b 13.274169
_cell_length_c 15.720084
_cell_angle_alpha 90.000000
_cell_angle_beta 90.000000
_cell_angle_gamma 90.000000
_cell_volume 2401.108096
_symmetry_space_group_name_H-M "P N M A"
_symmetry_group_IT_number 62
_symmetry_cell_setting 'orthorhombic'
loop_
_space_group_symop_operation_xyz
x,y,z
1/2-x,-y,1/2+z
1/2+x,1/2-y,1/2-z
-x,1/2+y,-z
-x,-y,-z
1/2+x,y,1/2-z
1/2-x,1/2+y,1/2+z
x,1/2-y,z
loop_
_atom_site_type_symbol
_atom_site_label
_atom_site_fract_x
_atom_site_fract_y
_atom_site_fract_z
Si Si1 0.792198 0.250000 0.511315
Si Si2 0.584805 0.465344 0.922221
Si Si3 0.998703 0.916254 0.719535
Si Si4 0.187969 0.048041 0.998610
Si Si5 0.667991 0.750000 0.828415
Si Si6 0.925902 0.750000 0.486360
Si Si7 0.325158 0.750000 0.825102
Si Si8 0.951233 0.373013 0.085537
O O1 0.744465 0.354732 0.549452
O O2 0.750683 0.250000 0.410735
O O3 0.932476 0.250000 0.505684
O O4 0.516553 0.483159 0.833678
O O5 0.710727 0.517052 0.935366
O O6 0.606377 0.348764 0.935997
O O7 0.500000 0.500000 0.000000
O O8 0.086514 0.845943 0.666594
O O9 0.030618 0.909066 0.817452
O O10 0.880662 0.854730 0.708359
O O11 0.068540 0.092232 0.037238
O O12 0.152393 0.944657 0.950007
O O13 0.710647 0.750000 0.731383
O O14 0.855620 0.750000 0.575658
O O15 0.936250 0.250000 0.078755
#
# Coordination Sequence:
#
# PCOD9467272 Si02
#       8
#     4   8   8   8   4   4   4   8
#     4  12  18  43  61  86 132 172 199 246 323 381
#     4  12  23  40  62  93 128 161 212 254 316 378
#     4  11  22  37  58  95 121 151 207 260 312 364
#     4  11  24  40  64  95 127 173 204 251 320 378
#     4  11  19  32  59  92 121 148 196 260 319 348
#     4  12  24  39  59  90 129 165 201 258 316 374
#     4  11  19  32  61  92 116 149 194 262 316 359
#     4  11  24  42  65  96 127 163 212 264 313 369
#
# _framework density 19.990770999999999
#
# number of rings (size 3 to 8) (size 9 to 14) (size 15 to 20)
#    0.000    0.667    9.167    1.000    3.500    0.000 
#    0.000    0.833    0.000    0.000    0.000    0.000 
#    0.000    0.000    0.000    0.000    0.000    0.000 
#
# Total GULP energy -267268.817382 kJ/mol
# GULP energy per Si atom -5568.100362 kJ/mol
# Density = 1.994527 g / cm^3
# Si number density = 19.990771 Si / 1000 Ang^3
#
#
#
# Elastic Constant Matrix: (Units=GPa)
#
#
# Indices 1 2 3 4 5 6 
#
# 1 60.8819 14.1901 -9.1896 0.0000 0.0000 0.0000
# 2 14.1901 112.3428 11.8203 0.0000 0.0000 0.0000
# 3 -9.1896 11.8203 43.0554 0.0000 0.0000 0.0000
# 4 0.0000 0.0000 0.0000 28.5474 0.0000 0.0000
# 5 0.0000 0.0000 0.0000 0.0000 14.0925 0.0000
# 6 0.0000 0.0000 0.0000 0.0000 0.0000 34.6215
#
#
#
# Elastic Compliance Matrix: (Units=1/GPa)
#
#
# Indices 1 2 3 4 5 6 
#
# 1 0.017743 -0.002718 0.004533 0.000000 0.000000 0.000000
# 2 -0.002718 0.009582 -0.003211 0.000000 0.000000 0.000000
# 3 0.004533 -0.003211 0.025075 0.000000 0.000000 0.000000
# 4 0.000000 0.000000 0.000000 0.035029 0.000000 0.000000
# 5 0.000000 0.000000 0.000000 0.000000 0.070960 0.000000
# 6 0.000000 0.000000 0.000000 0.000000 0.000000 0.028884
#
#
# Mechanical properties :
#
#
# Convention : Reuss Voigt Hill
#
# Bulk Modulus (GPa) = 20.15764 27.76906 23.96335
# Shear Modulus (GPa) = 24.20119 28.74957 26.47538
#
# Velocity S-wave (km/s) = 3.48317 3.79640 3.64315
# Velocity P-wave (km/s) = 5.12660 5.75656 5.45069
#
# Compressibility (1/GPa) = 0.04960897
#
# Stress axis : x y z
#
# Youngs Moduli (GPa) = 56.36015 104.35697 39.88046
#
# Poissons Ratio (x) = 0.28365 -0.18079
# Poissons Ratio (y) = 0.15319 0.12805
# Poissons Ratio (z) = -0.25549 0.33508
#
# Static dielectric constant tensor:
#      x y z
#    x 1.773880 0.000000 0.000000 
#    y 0.000000 1.866400 0.000000 
#    z 0.000000 0.000000 1.704680 
# 
# From -- ./inp_files/18035.got.cif
#   From: 2010.05.17/outbox.cif.g08.bks.cpg/sg62_10_cif.got.tgz:18035.got - 2010.06.03 15:25:27.
