data_PCOD9468327
_publ_section_title
;
Structure prediction by ZEFSAII (Michael W. Deem and Ramdas Pophale) SiO2 
 PCOD9468327
Probable space group: C M C M
;
_chemical_formula_sum "Si O2"
_cell_formula_units_Z 80
_cell_length_a 7.198013
_cell_length_b 24.025598
_cell_length_c 17.093280
_cell_angle_alpha 90.000000
_cell_angle_beta 90.000000
_cell_angle_gamma 90.000000
_cell_volume 2956.053157
_symmetry_space_group_name_H-M "C M C M"
_symmetry_group_IT_number 63
_symmetry_cell_setting 'orthorhombic'
loop_
_space_group_symop_operation_xyz
x,y,z
-x,-y,1/2+z
x,-y,-z
-x,y,1/2-z
-x,-y,-z
x,y,1/2-z
-x,y,z
x,-y,1/2+z
1/2+x,1/2+y,z
1/2-x,1/2-y,1/2+z
1/2+x,1/2-y,-z
1/2-x,1/2+y,1/2-z
1/2-x,1/2-y,-z
1/2+x,1/2+y,1/2-z
1/2-x,1/2+y,z
1/2+x,1/2-y,1/2+z
loop_
_atom_site_type_symbol
_atom_site_label
_atom_site_fract_x
_atom_site_fract_y
_atom_site_fract_z
Si Si1 0.724779 0.848385 0.750000
Si Si2 0.773941 0.363784 0.505873
Si Si3 0.225569 0.477024 0.750000
Si Si4 0.724047 0.232277 0.390728
Si Si5 0.725404 0.975201 0.581815
Si Si6 0.788450 0.642444 0.837904
O O1 0.500000 0.851381 0.750000
O O2 0.782721 0.912204 0.750000
O O3 0.777310 0.811749 0.676037
O O4 0.714226 0.302082 0.531955
O O5 0.728227 0.410083 0.570055
O O6 0.708274 0.380901 0.419270
O O7 0.000000 0.362585 0.502500
O O8 0.286963 0.499164 0.665407
O O9 0.000000 0.480051 0.750000
O O10 0.500000 0.236555 0.392352
O O11 0.793467 0.291925 0.361359
O O12 0.500000 0.979610 0.582055
O O13 0.789549 0.000000 0.500000
O O14 0.709848 0.636118 0.750000
O O15 0.000000 0.621410 0.833124
#
# Coordination Sequence:
#
# PCOD9468327 Si02
#       6
#     8  16   8  16  16  16
#     4   9  14  22  41  64  81 105 145 191 223 246
#     4   9  17  29  43  60  85 117 150 185 225 266
#     4   9  14  24  40  58  81 111 145 185 231 264
#     4  10  17  28  48  67  84 114 158 195 217 249
#     4   9  16  26  40  60  85 112 146 186 225 269
#     4  10  20  31  41  60  95 129 149 174 223 278
#
# _framework density 27.063110999999999
#
# number of rings (size 3 to 8) (size 9 to 14) (size 15 to 20)
#    0.000    2.600    3.000    0.600    0.000    0.000 
#    1.800    0.000    0.000    0.000    0.000    0.000 
#    0.000    3.200    0.000    1.800    0.000    2.000 
#
# Total GULP energy -223490.945974 kJ/mol
# GULP energy per Si atom -5587.273649 kJ/mol
# Density = 2.700151 g / cm^3
# Si number density = 27.063111 Si / 1000 Ang^3
#
#
#
# Elastic Constant Matrix: (Units=GPa)
#
#
# Indices 1 2 3 4 5 6 
#
# 1 138.2367 -8.6068 6.2349 0.0000 0.0000 0.0000
# 2 -8.6068 62.7062 26.8906 0.0000 0.0000 0.0000
# 3 6.2349 26.8906 263.9585 0.0000 0.0000 0.0000
# 4 0.0000 0.0000 0.0000 44.1415 0.0000 0.0000
# 5 0.0000 0.0000 0.0000 0.0000 -23.6671 0.0000
# 6 0.0000 0.0000 0.0000 0.0000 0.0000 -3.8433
#
#
#
# Elastic Compliance Matrix: (Units=1/GPa)
#
#
# Indices 1 2 3 4 5 6 
#
# 1 0.007317 0.001128 -0.000288 0.000000 0.000000 0.000000
# 2 0.001128 0.016850 -0.001743 0.000000 0.000000 0.000000
# 3 -0.000288 -0.001743 0.003973 0.000000 0.000000 0.000000
# 4 0.000000 0.000000 0.000000 0.022654 0.000000 0.000000
# 5 0.000000 0.000000 0.000000 0.000000 -0.042253 0.000000
# 6 0.000000 0.000000 0.000000 0.000000 0.000000 -0.260196
#
#
# Mechanical properties :
#
#
# Convention : Reuss Voigt Hill
#
# Bulk Modulus (GPa) = 37.97471 57.10431 47.53951
# Shear Modulus (GPa) = -20.74084 32.68507 5.97212
#
# Velocity S-wave (km/s) = -2.77137 3.47902 1.48712
# Velocity P-wave (km/s) = 1.95491 6.10609 4.53354
#
# Compressibility (1/GPa) = 0.02633332
#
# Stress axis : x y z
#
# Youngs Moduli (GPa) = 136.66506 59.34818 251.70795
#
# Poissons Ratio (x) = -0.06693 0.07242
# Poissons Ratio (y) = -0.15412 0.43878
# Poissons Ratio (z) = 0.03932 0.10346
#
# Static dielectric constant tensor:
#      x y z
#    x 2.072510 0.000000 0.000000 
#    y 0.000000 2.098250 0.000000 
#    z 0.000000 0.000000 2.139240 
# 
# From -- ./inp_files/42629.got.cif
#   From: 2010.05.17/outbox.cif.g08.bks.cpg/sg63_22_cif.got.tgz:42629.got - 2010.06.03 15:47:04.
