data_PCOD9468143
_publ_section_title
;
Structure prediction by ZEFSAII (Michael W. Deem and Ramdas Pophale) SiO2 
 PCOD9468143
Probable space group: C M C M
;
_chemical_formula_sum "Si O2"
_cell_formula_units_Z 84
_cell_length_a 12.232520
_cell_length_b 14.257718
_cell_length_c 21.495713
_cell_angle_alpha 90.000000
_cell_angle_beta 90.000000
_cell_angle_gamma 90.000000
_cell_volume 3749.020456
_symmetry_space_group_name_H-M "C M C M"
_symmetry_group_IT_number 63
_symmetry_cell_setting 'orthorhombic'
loop_
_space_group_symop_operation_xyz
x,y,z
-x,-y,1/2+z
x,-y,-z
-x,y,1/2-z
-x,-y,-z
x,y,1/2-z
-x,y,z
x,-y,1/2+z
1/2+x,1/2+y,z
1/2-x,1/2-y,1/2+z
1/2+x,1/2-y,-z
1/2-x,1/2+y,1/2-z
1/2-x,1/2-y,-z
1/2+x,1/2+y,1/2-z
1/2-x,1/2+y,z
1/2+x,1/2-y,1/2+z
loop_
_atom_site_type_symbol
_atom_site_label
_atom_site_fract_x
_atom_site_fract_y
_atom_site_fract_z
Si Si1 0.822722 0.115445 0.750000
Si Si2 0.500000 0.558492 0.935237
Si Si3 0.874293 0.675575 0.250000
Si Si4 0.000000 0.140194 0.124711
Si Si5 0.000000 0.948534 0.750000
Si Si6 0.245968 0.866774 0.619524
Si Si7 0.772798 0.092248 0.612637
Si Si8 0.876751 0.615213 0.998056
O O1 0.887039 0.212479 0.750000
O O2 0.760145 0.119155 0.684465
O O3 0.897457 0.021207 0.750000
O O4 0.500000 0.470582 0.890217
O O5 0.608899 0.614155 0.917991
O O6 0.500000 0.500000 0.000000
O O7 0.805159 0.651977 0.313554
O O8 0.000000 0.635324 0.250000
O O9 0.877284 0.173231 0.108612
O O10 0.000000 0.127916 0.196886
O O11 0.320045 0.844138 0.559670
O O12 0.235211 0.979517 0.613998
O O13 0.686775 0.134080 0.565282
O O14 0.000000 0.648970 0.995099
O O15 0.877399 0.500000 0.000000
#
# Coordination Sequence:
#
# PCOD9468143 Si02
#       8
#     8   8   8   8   4  16  16  16
#     4  12  21  37  54  84 115 156 196 235 296 342
#     4  10  16  26  52  94 114 130 175 243 300 342
#     4  12  26  36  55  81 120 159 196 231 278 357
#     4  10  18  30  62  84 112 137 180 241 304 326
#     4  12  16  34  54  86 110 148 178 244 294 340
#     4  10  19  36  57  90 113 146 188 242 293 339
#     4  10  19  34  60  84 116 146 195 244 292 344
#     4   9  18  33  56  83 118 153 184 232 290 345
#
# _framework density 22.405853
#
# number of rings (size 3 to 8) (size 9 to 14) (size 15 to 20)
#    0.000    1.714    4.286    4.571    0.000    0.762 
#    0.000    1.429    4.190    0.000    0.000    0.000 
#    0.000    0.000    0.000    0.000    0.000    0.000 
#
# Total GULP energy -233968.130328 kJ/mol
# GULP energy per Si atom -5570.669770 kJ/mol
# Density = 2.235486 g / cm^3
# Si number density = 22.405853 Si / 1000 Ang^3
#
#
#
# Elastic Constant Matrix: (Units=GPa)
#
#
# Indices 1 2 3 4 5 6 
#
# 1 222.1278 27.0073 125.9996 0.0000 0.0000 0.0000
# 2 27.0073 62.3645 -4.1009 0.0000 0.0000 0.0000
# 3 125.9996 -4.1009 200.7133 0.0000 0.0000 0.0000
# 4 0.0000 0.0000 0.0000 -16.2773 0.0000 0.0000
# 5 0.0000 0.0000 0.0000 0.0000 6.9075 0.0000
# 6 0.0000 0.0000 0.0000 0.0000 0.0000 3.0315
#
#
#
# Elastic Compliance Matrix: (Units=1/GPa)
#
#
# Indices 1 2 3 4 5 6 
#
# 1 0.007753 -0.003683 -0.004942 0.000000 0.000000 0.000000
# 2 -0.003683 0.017805 0.002676 0.000000 0.000000 0.000000
# 3 -0.004942 0.002676 0.008139 0.000000 0.000000 0.000000
# 4 0.000000 0.000000 0.000000 -0.061435 0.000000 0.000000
# 5 0.000000 0.000000 0.000000 0.000000 0.144771 0.000000
# 6 0.000000 0.000000 0.000000 0.000000 0.000000 0.329875
#
#
# Mechanical properties :
#
#
# Convention : Reuss Voigt Hill
#
# Bulk Modulus (GPa) = 45.87284 87.00198 66.43741
# Shear Modulus (GPa) = 10.72792 21.15229 15.94011
#
# Velocity S-wave (km/s) = 2.19052 3.07588 2.67015
# Velocity P-wave (km/s) = 5.18805 7.17837 6.26278
#
# Compressibility (1/GPa) = 0.02179939
#
# Stress axis : x y z
#
# Youngs Moduli (GPa) = 128.97987 56.16259 122.85769
#
# Poissons Ratio (x) = 0.20682 0.60721
# Poissons Ratio (y) = 0.47497 -0.32871
# Poissons Ratio (z) = 0.63746 -0.15027
#
# Static dielectric constant tensor:
#      x y z
#    x 1.894630 0.000000 0.000000 
#    y 0.000000 1.796570 0.000000 
#    z 0.000000 0.000000 1.761290 
# 
# From -- ./inp_files/52527.got.cif
#   From: 2010.05.17/outbox.cif.g08.bks.cpg/sg63_27_cif.got.tgz:52527.got - 2010.06.03 15:47:04.
