data_PCOD9468855
_publ_section_title
;
Structure prediction by ZEFSAII (Michael W. Deem and Ramdas Pophale) SiO2 
 PCOD9468855
Probable space group: C M C M
;
_chemical_formula_sum "Si O2"
_cell_formula_units_Z 120
_cell_length_a 18.461577
_cell_length_b 23.088454
_cell_length_c 14.766865
_cell_angle_alpha 90.000000
_cell_angle_beta 90.000000
_cell_angle_gamma 90.000000
_cell_volume 6294.365446
_symmetry_space_group_name_H-M "C M C M"
_symmetry_group_IT_number 63
_symmetry_cell_setting 'orthorhombic'
loop_
_space_group_symop_operation_xyz
x,y,z
-x,-y,1/2+z
x,-y,-z
-x,y,1/2-z
-x,-y,-z
x,y,1/2-z
-x,y,z
x,-y,1/2+z
1/2+x,1/2+y,z
1/2-x,1/2-y,1/2+z
1/2+x,1/2-y,-z
1/2-x,1/2+y,1/2-z
1/2-x,1/2-y,-z
1/2+x,1/2+y,1/2-z
1/2-x,1/2+y,z
1/2+x,1/2-y,1/2+z
loop_
_atom_site_type_symbol
_atom_site_label
_atom_site_fract_x
_atom_site_fract_y
_atom_site_fract_z
Si Si1 0.418056 0.520237 0.104342
Si Si2 0.198029 0.500000 0.000000
Si Si3 0.077547 0.231751 0.141032
Si Si4 0.869250 0.645090 0.641532
Si Si5 0.313233 0.372473 0.853849
Si Si6 0.271229 0.384590 0.456686
Si Si7 0.583561 0.389365 0.147987
Si Si8 0.083639 0.514675 0.858140
O O1 0.500000 0.542805 0.119168
O O2 0.361271 0.569312 0.131642
O O3 0.410765 0.459159 0.154181
O O4 0.412187 0.500000 0.000000
O O5 0.249820 0.452391 0.045111
O O6 0.142536 0.518236 0.080364
O O7 0.073340 0.236886 0.250000
O O8 0.093397 0.296461 0.106932
O O9 0.137214 0.183385 0.127556
O O10 0.000000 0.211402 0.105999
O O11 0.869965 0.646607 0.750000
O O12 0.787406 0.645572 0.606204
O O13 0.905018 0.583149 0.617789
O O14 0.287244 0.371418 0.750000
O O15 0.258963 0.370544 0.937839
O O16 0.352247 0.372595 0.420951
O O17 0.594916 0.365955 0.250000
O O18 0.500000 0.376836 0.119678
O O19 0.096868 0.508408 0.750000
O O20 0.000000 0.498892 0.876167
#
# Coordination Sequence:
#
# PCOD9468855 Si02
#       8
#    16   8  16  16  16  16  16  16
#     4  10  18  30  47  67  94 126 162 204 248 294
#     4  10  21  32  47  74 104 138 168 208 251 304
#     4   9  18  33  53  77 102 127 164 213 261 310
#     4   9  18  33  54  78 102 130 164 209 264 313
#     4  11  22  33  48  70  99 137 173 208 252 299
#     4  11  21  34  50  71 104 136 173 211 256 308
#     4  10  20  33  50  70  95 132 175 217 257 300
#     4   9  17  31  53  78 104 134 166 203 252 307
#
# _framework density 19.06467
#
# number of rings (size 3 to 8) (size 9 to 14) (size 15 to 20)
#    0.000    2.133    1.333    2.600    0.000    5.067 
#    0.000    0.000    0.000    0.000    0.000    0.000 
#    0.000    1.067    0.000    0.267    0.000    0.267 
#
# Total GULP energy -334261.781196 kJ/mol
# GULP energy per Si atom -5571.029687 kJ/mol
# Density = 1.902128 g / cm^3
# Si number density = 19.064670 Si / 1000 Ang^3
#
#
#
# Elastic Constant Matrix: (Units=GPa)
#
#
# Indices 1 2 3 4 5 6 
#
# 1 66.2427 -7.2368 13.1712 0.0000 0.0000 0.0000
# 2 -7.2368 23.7828 -7.4402 0.0000 0.0000 0.0000
# 3 13.1712 -7.4402 63.8459 0.0000 0.0000 0.0000
# 4 0.0000 0.0000 0.0000 13.4925 0.0000 0.0000
# 5 0.0000 0.0000 0.0000 0.0000 28.1418 0.0000
# 6 0.0000 0.0000 0.0000 0.0000 0.0000 4.2809
#
#
#
# Elastic Compliance Matrix: (Units=1/GPa)
#
#
# Indices 1 2 3 4 5 6 
#
# 1 0.016101 0.004006 -0.002855 0.000000 0.000000 0.000000
# 2 0.004006 0.044635 0.004375 0.000000 0.000000 0.000000
# 3 -0.002855 0.004375 0.016761 0.000000 0.000000 0.000000
# 4 0.000000 0.000000 0.000000 0.074115 0.000000 0.000000
# 5 0.000000 0.000000 0.000000 0.000000 0.035534 0.000000
# 6 0.000000 0.000000 0.000000 0.000000 0.000000 0.233595
#
#
# Mechanical properties :
#
#
# Convention : Reuss Voigt Hill
#
# Bulk Modulus (GPa) = 11.29294 16.76219 14.02756
# Shear Modulus (GPa) = 11.38418 19.54153 15.46286
#
# Velocity S-wave (km/s) = 2.44629 3.20506 2.85103
# Velocity P-wave (km/s) = 3.73034 4.74425 4.26751
#
# Compressibility (1/GPa) = 0.08855093
#
# Stress axis : x y z
#
# Youngs Moduli (GPa) = 62.10674 22.40393 59.66060
#
# Poissons Ratio (x) = -0.08976 0.17032
# Poissons Ratio (y) = -0.24882 -0.26101
# Poissons Ratio (z) = 0.17730 -0.09802
#
# Static dielectric constant tensor:
#      x y z
#    x 1.717890 0.000000 0.000000 
#    y 0.000000 1.665810 0.000000 
#    z 0.000000 0.000000 1.717640 
# 
# From -- ./inp_files/35851.got.cif
#   From: 2010.05.17/outbox.cif.g08.bks.cpg/sg63_18_cif.got.tgz:35851.got - 2010.06.03 15:47:04.
