data_PCOD9468273
_publ_section_title
;
Structure prediction by ZEFSAII (Michael W. Deem and Ramdas Pophale) SiO2 
 PCOD9468273
Probable space group: C M C M
;
_chemical_formula_sum "Si O2"
_cell_formula_units_Z 96
_cell_length_a 29.901635
_cell_length_b 27.311575
_cell_length_c 8.645195
_cell_angle_alpha 90.000000
_cell_angle_beta 90.000000
_cell_angle_gamma 90.000000
_cell_volume 7060.191406
_symmetry_space_group_name_H-M "C M C M"
_symmetry_group_IT_number 63
_symmetry_cell_setting 'orthorhombic'
loop_
_space_group_symop_operation_xyz
x,y,z
-x,-y,1/2+z
x,-y,-z
-x,y,1/2-z
-x,-y,-z
x,y,1/2-z
-x,y,z
x,-y,1/2+z
1/2+x,1/2+y,z
1/2-x,1/2-y,1/2+z
1/2+x,1/2-y,-z
1/2-x,1/2+y,1/2-z
1/2-x,1/2-y,-z
1/2+x,1/2+y,1/2-z
1/2-x,1/2+y,z
1/2+x,1/2-y,1/2+z
loop_
_atom_site_type_symbol
_atom_site_label
_atom_site_fract_x
_atom_site_fract_y
_atom_site_fract_z
Si Si1 0.858014 0.947096 0.564642
Si Si2 0.140643 0.240889 0.435650
Si Si3 0.806820 0.145786 0.936089
Si Si4 0.449610 0.710400 0.564965
Si Si5 0.223797 0.702914 0.936060
Si Si6 0.049870 0.899615 0.936693
O O1 0.856997 0.947799 0.750000
O O2 0.826156 0.903978 0.504473
O O3 0.908710 0.933001 0.513896
O O4 0.845804 0.000000 0.500000
O O5 0.140360 0.236871 0.250000
O O6 0.163548 0.191494 0.502927
O O7 0.090364 0.242368 0.496718
O O8 0.172558 0.286574 0.481916
O O9 0.810017 0.144692 0.750000
O O10 0.755216 0.157499 0.982206
O O11 0.446421 0.709541 0.750000
O O12 0.500000 0.726003 0.521336
O O13 0.443881 0.654925 0.503118
O O14 0.224827 0.704276 0.750000
O O15 0.250000 0.750000 0.000000
O O16 0.050970 0.896235 0.750000
O O17 0.000000 0.916746 0.982630
#
# Coordination Sequence:
#
# PCOD9468273 Si02
#       6
#    16  16  16  16  16  16
#     4  11  22  33  45  60  77 101 133 169 209 253
#     4  10  17  27  43  62  82 104 130 160 196 240
#     4  10  18  30  45  60  80 102 127 164 202 240
#     4  10  19  28  40  59  81 106 135 165 200 239
#     4   8  16  27  41  61  81 101 125 155 195 237
#     4   9  18  32  46  57  72  97 129 167 210 250
#
# _framework density 13.597365
#
# number of rings (size 3 to 8) (size 9 to 14) (size 15 to 20)
#    0.000    2.333    1.667    2.000    0.000    3.333 
#    0.000    0.000    0.000    0.000    0.000    0.000 
#    0.000    0.000    0.000    0.000    0.000    0.833 
#
# Total GULP energy -267365.938555 kJ/mol
# GULP energy per Si atom -5570.123720 kJ/mol
# Density = 1.356642 g / cm^3
# Si number density = 13.597365 Si / 1000 Ang^3
#
#
#
# Elastic Constant Matrix: (Units=GPa)
#
#
# Indices 1 2 3 4 5 6 
#
# 1 105.6703 56.8087 24.1722 0.0000 0.0000 0.0000
# 2 56.8087 57.9374 18.6863 0.0000 0.0000 0.0000
# 3 24.1722 18.6863 23.2219 0.0000 0.0000 0.0000
# 4 0.0000 0.0000 0.0000 11.1317 0.0000 0.0000
# 5 0.0000 0.0000 0.0000 0.0000 19.4747 0.0000
# 6 0.0000 0.0000 0.0000 0.0000 0.0000 17.8441
#
#
#
# Elastic Compliance Matrix: (Units=1/GPa)
#
#
# Indices 1 2 3 4 5 6 
#
# 1 0.020843 -0.018150 -0.007091 0.000000 0.000000 0.000000
# 2 -0.018150 0.039114 -0.012582 0.000000 0.000000 0.000000
# 3 -0.007091 -0.012582 0.060568 0.000000 0.000000 0.000000
# 4 0.000000 0.000000 0.000000 0.089834 0.000000 0.000000
# 5 0.000000 0.000000 0.000000 0.000000 0.051349 0.000000
# 6 0.000000 0.000000 0.000000 0.000000 0.000000 0.056041
#
#
# Mechanical properties :
#
#
# Convention : Reuss Voigt Hill
#
# Bulk Modulus (GPa) = 22.28169 42.90710 32.59440
# Shear Modulus (GPa) = 12.24427 15.50092 13.87259
#
# Velocity S-wave (km/s) = 3.00407 3.38004 3.19759
# Velocity P-wave (km/s) = 5.33432 6.84521 6.13644
#
# Compressibility (1/GPa) = 0.04487989
#
# Stress axis : x y z
#
# Youngs Moduli (GPa) = 47.97817 25.56618 16.51028
#
# Poissons Ratio (x) = 0.46402 0.11707
# Poissons Ratio (y) = 0.87079 0.20773
# Poissons Ratio (z) = 0.34021 0.32168
#
# Static dielectric constant tensor:
#      x y z
#    x 1.493890 0.000000 0.000000 
#    y 0.000000 1.410970 0.000000 
#    z 0.000000 0.000000 1.455660 
# 
# From -- ./inp_files/12967.got.cif
#   From: 2010.05.17/outbox.cif.g08.bks.cpg/sg63_7_cif.got.tgz:12967.got - 2010.06.03 15:47:04.
