data_PCOD9468004
_publ_section_title
;
Structure prediction by ZEFSAII (Michael W. Deem and Ramdas Pophale) SiO2 
 PCOD9468004
Probable space group: P N M A
;
_chemical_formula_sum "Si O2"
_cell_formula_units_Z 56
_cell_length_a 21.000000
_cell_length_b 9.000000
_cell_length_c 15.000000
_cell_angle_alpha 90.000000
_cell_angle_beta 90.000000
_cell_angle_gamma 90.000000
_cell_volume 2835.000000
_symmetry_space_group_name_H-M "P N M A"
_symmetry_group_IT_number 62
_symmetry_cell_setting 'orthorhombic'
loop_
_space_group_symop_operation_xyz
x,y,z
1/2-x,-y,1/2+z
1/2+x,1/2-y,1/2-z
-x,1/2+y,-z
-x,-y,-z
1/2+x,y,1/2-z
1/2-x,1/2+y,1/2+z
x,1/2-y,z
loop_
_atom_site_type_symbol
_atom_site_label
_atom_site_fract_x
_atom_site_fract_y
_atom_site_fract_z
Si Si1 0.110605 0.578429 0.724712
Si Si2 0.655024 0.574684 0.260797
Si Si3 0.254954 0.418865 0.119127
Si Si4 0.939571 0.927767 0.893312
Si Si5 0.079000 0.427798 0.906454
Si Si6 0.942897 0.926900 0.445184
Si Si7 0.328437 0.072524 0.947930
O O1 0.090089 0.750000 0.735067
O O2 0.177833 0.579541 0.672062
O O3 0.114714 0.503662 0.822479
O O4 0.064756 0.492616 0.654921
O O5 0.640690 0.750000 0.262756
O O6 0.711886 0.534411 0.328325
O O7 0.597507 0.483469 0.305820
O O8 0.673385 0.537593 0.157721
O O9 0.228446 0.250000 0.126931
O O10 0.267869 0.447932 0.014045
O O11 0.949213 0.750000 0.890539
O O12 0.904392 0.960814 0.988991
O O13 0.006748 0.012544 0.896926
O O14 0.082316 0.250000 0.895902
O O15 0.949350 0.750000 0.440228
O O16 0.881718 0.974760 0.503457
O O17 0.000000 0.000000 0.500000
O O18 0.343908 0.250000 0.955666
#
# Coordination Sequence:
#
# PCOD9468004 Si02
#       7
#     8   8   8   8   8   8   8
#     4  10  21  38  60  85 115 153 193 239 294 353
#     4  11  23  38  61  88 117 154 199 248 300 353
#     4   9  20  40  60  81 114 152 195 241 292 351
#     4  10  22  39  58  83 118 155 195 242 295 353
#     4  10  21  38  60  86 117 154 195 243 293 351
#     4  11  22  36  57  85 117 152 191 238 290 353
#     4   9  21  41  59  81 116 154 194 244 293 346
#
# _framework density 19.753086
#
# number of rings (size 3 to 8) (size 9 to 14) (size 15 to 20)
#    0.000    2.000    0.000    3.857    2.000    6.857 
#    0.000    4.286    0.000    0.000    0.000    0.000 
#    0.000    0.000    0.000    0.000    0.000    0.000 
#
# Total GULP energy -312483.007216 kJ/mol
# GULP energy per Si atom -5580.053700 kJ/mol
# Density = 1.970813 g / cm^3
# Si number density = 19.753086 Si / 1000 Ang^3
#
#
#
# Elastic Constant Matrix: (Units=GPa)
#
#
# Indices 1 2 3 4 5 6 
#
# 1 16.3691 3.5543 -1.3447 0.0000 0.0000 0.0000
# 2 3.5543 96.0813 37.8840 0.0000 0.0000 0.0000
# 3 -1.3447 37.8840 147.3745 0.0000 0.0000 0.0000
# 4 0.0000 0.0000 0.0000 42.8289 0.0000 0.0000
# 5 0.0000 0.0000 0.0000 0.0000 24.5644 0.0000
# 6 0.0000 0.0000 0.0000 0.0000 0.0000 29.4560
#
#
#
# Elastic Compliance Matrix: (Units=1/GPa)
#
#
# Indices 1 2 3 4 5 6 
#
# 1 0.061802 -0.002792 0.001281 0.000000 0.000000 0.000000
# 2 -0.002792 0.011708 -0.003035 0.000000 0.000000 0.000000
# 3 0.001281 -0.003035 0.007577 0.000000 0.000000 0.000000
# 4 0.000000 0.000000 0.000000 0.023349 0.000000 0.000000
# 5 0.000000 0.000000 0.000000 0.000000 0.040709 0.000000
# 6 0.000000 0.000000 0.000000 0.000000 0.000000 0.033949
#
#
# Mechanical properties :
#
#
# Convention : Reuss Voigt Hill
#
# Bulk Modulus (GPa) = 13.88942 37.77913 25.83428
# Shear Modulus (GPa) = 23.56448 34.01860 28.79154
#
# Velocity S-wave (km/s) = 3.45766 4.15443 3.82196
# Velocity P-wave (km/s) = 4.79451 6.49458 5.70819
#
# Compressibility (1/GPa) = 0.07199722
#
# Stress axis : x y z
#
# Youngs Moduli (GPa) = 16.18063 85.41292 131.97270
#
# Poissons Ratio (x) = 0.23843 -0.16912
# Poissons Ratio (y) = 0.04517 0.40055
# Poissons Ratio (z) = -0.02074 0.25924
#
# Static dielectric constant tensor:
#      x y z
#    x 1.763440 0.000000 0.000000 
#    y 0.000000 1.617130 0.000000 
#    z 0.000000 0.000000 1.689680 
# 
# From -- ./inp_files/20320.got.cif
#   From: 2010.05.17/outbox.ucp.g08.bks.cvg/sg62_11_cif.got.tgz:20320.got - 2010.06.11 16:29:25.
