data_PCOD9468937
_publ_section_title
;
Structure prediction by ZEFSAII (Michael W. Deem and Ramdas Pophale) SiO2 
 PCOD9468937
Probable space group: C M C M
;
_chemical_formula_sum "Si O2"
_cell_formula_units_Z 56
_cell_length_a 13.417135
_cell_length_b 26.100201
_cell_length_c 8.478431
_cell_angle_alpha 90.000000
_cell_angle_beta 90.000000
_cell_angle_gamma 90.000000
_cell_volume 2969.061077
_symmetry_space_group_name_H-M "C M C M"
_symmetry_group_IT_number 63
_symmetry_cell_setting 'orthorhombic'
loop_
_space_group_symop_operation_xyz
x,y,z
-x,-y,1/2+z
x,-y,-z
-x,y,1/2-z
-x,-y,-z
x,y,1/2-z
-x,y,z
x,-y,1/2+z
1/2+x,1/2+y,z
1/2-x,1/2-y,1/2+z
1/2+x,1/2-y,-z
1/2-x,1/2+y,1/2-z
1/2-x,1/2-y,-z
1/2+x,1/2+y,1/2-z
1/2-x,1/2+y,z
1/2+x,1/2-y,1/2+z
loop_
_atom_site_type_symbol
_atom_site_label
_atom_site_fract_x
_atom_site_fract_y
_atom_site_fract_z
Si Si1 0.332061 0.367155 0.561679
Si Si2 0.000000 0.942142 0.438761
Si Si3 0.392224 0.146523 0.561392
Si Si4 0.360805 0.257277 0.438198
O O1 0.333391 0.364305 0.750000
O O2 0.401535 0.412935 0.501595
O O3 0.215195 0.370813 0.508700
O O4 0.382173 0.314746 0.494906
O O5 0.000000 0.940685 0.250000
O O6 0.000000 0.000000 0.500000
O O7 0.383437 0.142720 0.750000
O O8 0.500000 0.121796 0.514411
O O9 0.403934 0.205965 0.512872
O O10 0.370779 0.255012 0.250000
O O11 0.250000 0.250000 0.500000
#
# Coordination Sequence:
#
# PCOD9468937 Si02
#       4
#    16   8  16  16
#     4  11  22  38  59  84 116 153 196 243 296 350
#     4  12  26  46  68  90 114 146 194 248 303 354
#     4  10  20  34  54  83 121 161 200 240 287 348
#     4  10  18  30  49  76 113 155 198 238 283 340
#
# _framework density 18.861180999999998
#
# number of rings (size 3 to 8) (size 9 to 14) (size 15 to 20)
#    0.000    1.429    0.000   10.714    2.000    2.286 
#    0.000    0.000    0.000    0.857    0.000    0.000 
#    0.000    0.000    0.000    0.000    0.000    0.000 
#
# Total GULP energy -155955.174613 kJ/mol
# GULP energy per Si atom -5569.827665 kJ/mol
# Density = 1.881825 g / cm^3
# Si number density = 18.861181 Si / 1000 Ang^3
#
#
#
# Elastic Constant Matrix: (Units=GPa)
#
#
# Indices 1 2 3 4 5 6 
#
# 1 180.4166 47.6333 28.8940 0.0000 0.0000 0.0000
# 2 47.6333 99.5526 12.6291 0.0000 0.0000 0.0000
# 3 28.8940 12.6291 96.5045 0.0000 0.0000 0.0000
# 4 0.0000 0.0000 0.0000 26.4879 0.0000 0.0000
# 5 0.0000 0.0000 0.0000 0.0000 5.8972 0.0000
# 6 0.0000 0.0000 0.0000 0.0000 0.0000 27.4557
#
#
#
# Elastic Compliance Matrix: (Units=1/GPa)
#
#
# Indices 1 2 3 4 5 6 
#
# 1 0.006574 -0.002945 -0.001583 0.000000 0.000000 0.000000
# 2 -0.002945 0.011533 -0.000628 0.000000 0.000000 0.000000
# 3 -0.001583 -0.000628 0.010918 0.000000 0.000000 0.000000
# 4 0.000000 0.000000 0.000000 0.037753 0.000000 0.000000
# 5 0.000000 0.000000 0.000000 0.000000 0.169572 0.000000
# 6 0.000000 0.000000 0.000000 0.000000 0.000000 0.036422
#
#
# Mechanical properties :
#
#
# Convention : Reuss Voigt Hill
#
# Bulk Modulus (GPa) = 53.43256 61.64293 57.53774
# Shear Modulus (GPa) = 17.28184 31.12265 24.20225
#
# Velocity S-wave (km/s) = 3.03027 4.06654 3.58603
# Velocity P-wave (km/s) = 6.37450 7.40286 6.90784
#
# Compressibility (1/GPa) = 0.01871518
#
# Stress axis : x y z
#
# Youngs Moduli (GPa) = 152.12302 86.70439 91.58964
#
# Poissons Ratio (x) = 0.25530 0.14497
# Poissons Ratio (y) = 0.44793 0.05749
# Poissons Ratio (z) = 0.24079 0.05443
#
# Static dielectric constant tensor:
#      x y z
#    x 1.735890 0.000000 0.000000 
#    y 0.000000 1.645340 0.000000 
#    z 0.000000 0.000000 1.625710 
# 
# From -- ./inp_files/4457.got.cif
#   From: 2010.05.17/outbox.cif.g08.bks.cpg/sg63_3_cif.got.tgz:4457.got - 2010.06.03 15:47:04.
