data_PCOD9468319
_publ_section_title
;
Structure prediction by ZEFSAII (Michael W. Deem and Ramdas Pophale) SiO2 
 PCOD9468319
Probable space group: C M C M
;
_chemical_formula_sum "Si O2"
_cell_formula_units_Z 128
_cell_length_a 19.993357
_cell_length_b 21.721779
_cell_length_c 14.360791
_cell_angle_alpha 90.000000
_cell_angle_beta 90.000000
_cell_angle_gamma 90.000000
_cell_volume 6236.766337
_symmetry_space_group_name_H-M "C M C M"
_symmetry_group_IT_number 63
_symmetry_cell_setting 'orthorhombic'
loop_
_space_group_symop_operation_xyz
x,y,z
-x,-y,1/2+z
x,-y,-z
-x,y,1/2-z
-x,-y,-z
x,y,1/2-z
-x,y,z
x,-y,1/2+z
1/2+x,1/2+y,z
1/2-x,1/2-y,1/2+z
1/2+x,1/2-y,-z
1/2-x,1/2+y,1/2-z
1/2-x,1/2-y,-z
1/2+x,1/2+y,1/2-z
1/2-x,1/2+y,z
1/2+x,1/2-y,1/2+z
loop_
_atom_site_type_symbol
_atom_site_label
_atom_site_fract_x
_atom_site_fract_y
_atom_site_fract_z
Si Si1 0.714512 0.472443 0.864301
Si Si2 0.778337 0.402394 0.144864
Si Si3 0.573581 0.426799 0.863140
Si Si4 0.292845 0.149108 0.138745
Si Si5 0.075422 0.557332 0.879708
Si Si6 0.925893 0.782471 0.636933
Si Si7 0.215305 0.730515 0.635164
Si Si8 0.074329 0.583170 0.099756
O O1 0.718004 0.472144 0.750000
O O2 0.749748 0.534884 0.897643
O O3 0.637317 0.466092 0.892315
O O4 0.752420 0.410759 0.895565
O O5 0.750888 0.400677 0.250000
O O6 0.858830 0.407248 0.151832
O O7 0.762921 0.336636 0.100811
O O8 0.573124 0.427952 0.750000
O O9 0.500000 0.446994 0.895117
O O10 0.582421 0.354639 0.888020
O O11 0.283084 0.150367 0.250000
O O12 0.263401 0.213874 0.105756
O O13 0.369660 0.132893 0.120590
O O14 0.087367 0.484940 0.858126
O O15 0.000000 0.573525 0.848126
O O16 0.074290 0.568907 0.990075
O O17 0.926271 0.780076 0.750000
O O18 0.860873 0.745417 0.605638
O O19 0.000000 0.761466 0.605553
O O20 0.214756 0.728457 0.750000
O O21 0.000000 0.602436 0.128230
#
# Coordination Sequence:
#
# PCOD9468319 Si02
#       8
#    16  16  16  16  16  16  16  16
#     4   9  15  24  39  61  87 114 147 186 220 257
#     4  10  19  29  43  66  95 123 149 183 230 278
#     4   8  12  19  34  55  79 107 138 173 213 256
#     4  10  17  28  47  68  90 119 155 192 227 266
#     4   9  18  32  47  66  94 123 151 187 233 282
#     4   8  12  19  32  51  78 111 139 159 195 259
#     4   9  17  27  39  61  94 123 143 177 229 271
#     4   9  18  32  49  67  89 119 155 196 235 269
#
# _framework density 20.523455999999999
#
# number of rings (size 3 to 8) (size 9 to 14) (size 15 to 20)
#    0.000    3.000    2.500    1.500    0.000    1.000 
#    0.000    3.125    0.000    0.750    0.000    3.500 
#    0.000    3.000    0.000    0.000    0.000    0.250 
#
# Total GULP energy -356945.804518 kJ/mol
# GULP energy per Si atom -5577.278196 kJ/mol
# Density = 2.047674 g / cm^3
# Si number density = 20.523456 Si / 1000 Ang^3
#
#
#
# Elastic Constant Matrix: (Units=GPa)
#
#
# Indices 1 2 3 4 5 6 
#
# 1 120.9231 91.4775 -11.1190 0.0000 0.0000 0.0000
# 2 91.4775 158.4061 11.5322 0.0000 0.0000 0.0000
# 3 -11.1190 11.5322 43.1742 0.0000 0.0000 0.0000
# 4 0.0000 0.0000 0.0000 11.0031 0.0000 0.0000
# 5 0.0000 0.0000 0.0000 0.0000 21.3221 0.0000
# 6 0.0000 0.0000 0.0000 0.0000 0.0000 26.7138
#
#
#
# Elastic Compliance Matrix: (Units=1/GPa)
#
#
# Indices 1 2 3 4 5 6 
#
# 1 0.016494 -0.010029 0.006927 0.000000 0.000000 0.000000
# 2 -0.010029 0.012536 -0.005931 0.000000 0.000000 0.000000
# 3 0.006927 -0.005931 0.026530 0.000000 0.000000 0.000000
# 4 0.000000 0.000000 0.000000 0.090884 0.000000 0.000000
# 5 0.000000 0.000000 0.000000 0.000000 0.046900 0.000000
# 6 0.000000 0.000000 0.000000 0.000000 0.000000 0.037434
#
#
# Mechanical properties :
#
#
# Convention : Reuss Voigt Hill
#
# Bulk Modulus (GPa) = 26.67226 56.25387 41.46306
# Shear Modulus (GPa) = 19.13197 27.18197 23.15697
#
# Velocity S-wave (km/s) = 3.05651 3.64323 3.36269
# Velocity P-wave (km/s) = 5.04782 6.72060 5.94336
#
# Compressibility (1/GPa) = 0.03749214
#
# Stress axis : x y z
#
# Youngs Moduli (GPa) = 60.62975 79.76792 37.69300
#
# Poissons Ratio (x) = 0.80000 -0.26108
# Poissons Ratio (y) = 0.60806 0.22357
# Poissons Ratio (z) = -0.41995 0.47314
#
# Static dielectric constant tensor:
#      x y z
#    x 1.740710 0.000000 0.000000 
#    y 0.000000 1.734210 0.000000 
#    z 0.000000 0.000000 1.802380 
# 
# From -- ./inp_files/56073.got.cif
#   From: 2010.05.17/outbox.cif.g08.bks.cpg/sg63_29_cif.got.tgz:56073.got - 2010.06.03 15:47:04.
