data_PCOD9468431
_publ_section_title
;
Structure prediction by ZEFSAII (Michael W. Deem and Ramdas Pophale) SiO2 
 PCOD9468431
Probable space group: C M C M
;
_chemical_formula_sum "Si O2"
_cell_formula_units_Z 112
_cell_length_a 15.898461
_cell_length_b 25.156586
_cell_length_c 14.341736
_cell_angle_alpha 90.000000
_cell_angle_beta 90.000000
_cell_angle_gamma 90.000000
_cell_volume 5735.991675
_symmetry_space_group_name_H-M "C M C M"
_symmetry_group_IT_number 63
_symmetry_cell_setting 'orthorhombic'
loop_
_space_group_symop_operation_xyz
x,y,z
-x,-y,1/2+z
x,-y,-z
-x,y,1/2-z
-x,-y,-z
x,y,1/2-z
-x,y,z
x,-y,1/2+z
1/2+x,1/2+y,z
1/2-x,1/2-y,1/2+z
1/2+x,1/2-y,-z
1/2-x,1/2+y,1/2-z
1/2-x,1/2-y,-z
1/2+x,1/2+y,1/2-z
1/2-x,1/2+y,z
1/2+x,1/2-y,1/2+z
loop_
_atom_site_type_symbol
_atom_site_label
_atom_site_fract_x
_atom_site_fract_y
_atom_site_fract_z
Si Si1 0.651354 0.353835 0.998435
Si Si2 0.590279 0.255588 0.100528
Si Si3 0.220741 0.525068 0.359317
Si Si4 0.309750 0.915486 0.454453
Si Si5 0.405959 0.811061 0.090045
Si Si6 0.908202 0.941145 0.858793
Si Si7 0.225346 0.225414 0.348576
O O1 0.600826 0.391558 0.928376
O O2 0.705639 0.313529 0.933790
O O3 0.596973 0.315779 0.062869
O O4 0.717826 0.388857 0.055053
O O5 0.500000 0.247962 0.147521
O O6 0.678177 0.243244 0.149149
O O7 0.590591 0.217026 0.010813
O O8 0.203648 0.536340 0.250000
O O9 0.186132 0.567097 0.435951
O O10 0.186375 0.468188 0.392141
O O11 0.322679 0.525372 0.372615
O O12 0.376316 0.871276 0.424510
O O13 0.500000 0.807573 0.130670
O O14 0.335782 0.776223 0.142522
O O15 0.906329 0.924405 0.750000
O O16 0.000000 0.967097 0.874632
O O17 0.207688 0.197785 0.250000
#
# Coordination Sequence:
#
# PCOD9468431 Si02
#       7
#    16  16  16  16  16  16  16
#     4  10  17  33  52  79 106 146 187 218 271 331
#     4  10  19  34  54  79 113 146 180 222 265 328
#     4   9  20  35  55  80 108 144 184 237 294 345
#     4  10  18  36  59  79 107 144 189 230 286 344
#     4  10  20  37  59  81 107 144 190 232 281 337
#     4   9  17  30  50  78 108 138 179 231 281 330
#     4  11  21  34  53  80 117 150 183 230 276 328
#
# _framework density 19.525829999999999
#
# number of rings (size 3 to 8) (size 9 to 14) (size 15 to 20)
#    0.000    2.143    2.857    1.714    0.000    2.286 
#    0.000    7.857    0.000    1.286    0.000    0.000 
#    0.000    0.000    0.000    0.000    0.000    0.000 
#
# Total GULP energy -312140.499225 kJ/mol
# GULP energy per Si atom -5573.937486 kJ/mol
# Density = 1.948139 g / cm^3
# Si number density = 19.525830 Si / 1000 Ang^3
#
#
#
# Elastic Constant Matrix: (Units=GPa)
#
#
# Indices 1 2 3 4 5 6 
#
# 1 105.9232 2.3466 9.5208 0.0000 0.0000 0.0000
# 2 2.3466 51.8774 -13.5023 0.0000 0.0000 0.0000
# 3 9.5208 -13.5023 47.0908 0.0000 0.0000 0.0000
# 4 0.0000 0.0000 0.0000 2.6770 0.0000 0.0000
# 5 0.0000 0.0000 0.0000 0.0000 -16.7717 0.0000
# 6 0.0000 0.0000 0.0000 0.0000 0.0000 9.0722
#
#
#
# Elastic Compliance Matrix: (Units=1/GPa)
#
#
# Indices 1 2 3 4 5 6 
#
# 1 0.009665 -0.001022 -0.002247 0.000000 0.000000 0.000000
# 2 -0.001022 0.020939 0.006210 0.000000 0.000000 0.000000
# 3 -0.002247 0.006210 0.023471 0.000000 0.000000 0.000000
# 4 0.000000 0.000000 0.000000 0.373557 0.000000 0.000000
# 5 0.000000 0.000000 0.000000 0.000000 -0.059624 0.000000
# 6 0.000000 0.000000 0.000000 0.000000 0.000000 0.110227
#
#
# Mechanical properties :
#
#
# Convention : Reuss Voigt Hill
#
# Bulk Modulus (GPa) = 16.67860 22.40241 19.54050
# Shear Modulus (GPa) = 10.15563 12.76391 11.45977
#
# Velocity S-wave (km/s) = 2.28307 2.55952 2.42524
# Velocity P-wave (km/s) = 3.93830 4.49811 4.22748
#
# Compressibility (1/GPa) = 0.05995709
#
# Stress axis : x y z
#
# Youngs Moduli (GPa) = 103.46149 47.75808 42.60651
#
# Poissons Ratio (x) = 0.04881 0.09575
# Poissons Ratio (y) = 0.10575 -0.26460
# Poissons Ratio (z) = 0.23250 -0.29660
#
# Static dielectric constant tensor:
#      x y z
#    x 1.710520 0.000000 0.000000 
#    y 0.000000 1.657840 0.000000 
#    z 0.000000 0.000000 1.686630 
# 
# From -- ./inp_files/32509.got.cif
#   From: 2010.05.17/outbox.cif.g08.bks.cpg/sg63_17_cif.got.tgz:32509.got - 2010.06.03 15:47:04.
