data_PCOD9468419
_publ_section_title
;
Structure prediction by ZEFSAII (Michael W. Deem and Ramdas Pophale) SiO2 
 PCOD9468419
Probable space group: C M C M
;
_chemical_formula_sum "Si O2"
_cell_formula_units_Z 72
_cell_length_a 25.253861
_cell_length_b 16.694943
_cell_length_c 9.088952
_cell_angle_alpha 90.000000
_cell_angle_beta 90.000000
_cell_angle_gamma 90.000000
_cell_volume 3832.009139
_symmetry_space_group_name_H-M "C M C M"
_symmetry_group_IT_number 63
_symmetry_cell_setting 'orthorhombic'
loop_
_space_group_symop_operation_xyz
x,y,z
-x,-y,1/2+z
x,-y,-z
-x,y,1/2-z
-x,-y,-z
x,y,1/2-z
-x,y,z
x,-y,1/2+z
1/2+x,1/2+y,z
1/2-x,1/2-y,1/2+z
1/2+x,1/2-y,-z
1/2-x,1/2+y,1/2-z
1/2-x,1/2-y,-z
1/2+x,1/2+y,1/2-z
1/2-x,1/2+y,z
1/2+x,1/2-y,1/2+z
loop_
_atom_site_type_symbol
_atom_site_label
_atom_site_fract_x
_atom_site_fract_y
_atom_site_fract_z
Si Si1 0.137135 0.000000 0.500000
Si Si2 0.666372 0.915606 0.072073
Si Si3 0.366759 0.758950 0.926636
Si Si4 0.782182 0.865544 0.082673
Si Si5 0.439022 0.361430 0.585361
O O1 0.176805 0.060286 0.582837
O O2 0.097854 0.060026 0.416616
O O3 0.665066 0.920519 0.250000
O O4 0.726537 0.894001 0.018568
O O5 0.631712 0.842911 0.009665
O O6 0.651752 0.000000 0.000000
O O7 0.363918 0.768299 0.750000
O O8 0.314594 0.709244 0.982308
O O9 0.415196 0.701619 0.970728
O O10 0.770355 0.842578 0.250000
O O11 0.435968 0.326544 0.750000
O O12 0.500000 0.381576 0.553852
#
# Coordination Sequence:
#
# PCOD9468419 Si02
#       5
#     8  16  16  16  16
#     4  10  17  32  52  82 116 154 185 222 264 324
#     4  11  21  35  54  80 110 145 184 228 276 328
#     4  10  21  37  55  78 107 145 188 232 279 328
#     4   9  18  31  49  76 111 148 185 221 265 320
#     4  10  21  36  56  82 112 148 189 234 281 328
#
# _framework density 18.789100999999999
#
# number of rings (size 3 to 8) (size 9 to 14) (size 15 to 20)
#    0.000    2.000    1.111    3.000    0.000    1.333 
#    0.000    2.222    0.000    0.667    0.000    0.000 
#    0.000    0.000    0.000    0.000    0.000    0.000 
#
# Total GULP energy -200616.654996 kJ/mol
# GULP energy per Si atom -5572.684861 kJ/mol
# Density = 1.874634 g / cm^3
# Si number density = 18.789101 Si / 1000 Ang^3
#
#
#
# Elastic Constant Matrix: (Units=GPa)
#
#
# Indices 1 2 3 4 5 6 
#
# 1 46.7758 6.3455 9.2674 0.0000 0.0000 0.0000
# 2 6.3455 120.3674 34.7248 0.0000 0.0000 0.0000
# 3 9.2674 34.7248 71.6416 0.0000 0.0000 0.0000
# 4 0.0000 0.0000 0.0000 24.3921 0.0000 0.0000
# 5 0.0000 0.0000 0.0000 0.0000 -85.2322 0.0000
# 6 0.0000 0.0000 0.0000 0.0000 0.0000 14.5984
#
#
#
# Elastic Compliance Matrix: (Units=1/GPa)
#
#
# Indices 1 2 3 4 5 6 
#
# 1 0.021957 -0.000393 -0.002650 0.000000 0.000000 0.000000
# 2 -0.000393 0.009665 -0.004634 0.000000 0.000000 0.000000
# 3 -0.002650 -0.004634 0.016547 0.000000 0.000000 0.000000
# 4 0.000000 0.000000 0.000000 0.040997 0.000000 0.000000
# 5 0.000000 0.000000 0.000000 0.000000 -0.011733 0.000000
# 6 0.000000 0.000000 0.000000 0.000000 0.000000 0.068501
#
#
# Mechanical properties :
#
#
# Convention : Reuss Voigt Hill
#
# Bulk Modulus (GPa) = 30.47304 37.71779 34.09542
# Shear Modulus (GPa) = 29.03143 3.31479 16.17311
#
# Velocity S-wave (km/s) = 3.93507 1.32968 2.93707
# Velocity P-wave (km/s) = 6.07454 4.74081 5.44864
#
# Compressibility (1/GPa) = 0.03281589
#
# Stress axis : x y z
#
# Youngs Moduli (GPa) = 45.54378 103.46083 60.43299
#
# Poissons Ratio (x) = 0.04067 0.16013
# Poissons Ratio (y) = 0.01790 0.28005
# Poissons Ratio (z) = 0.12068 0.47944
#
# Static dielectric constant tensor:
#      x y z
#    x 1.660640 0.000000 0.000000 
#    y 0.000000 1.650830 0.000000 
#    z 0.000000 0.000000 1.674770 
# 
# From -- ./inp_files/9828.got.cif
#   From: 2010.05.17/outbox.cif.g08.bks.cpg/sg63_5_cif.got.tgz:9828.got - 2010.06.03 15:47:04.
