data_PCOD9468611
_publ_section_title
;
Structure prediction by ZEFSAII (Michael W. Deem and Ramdas Pophale) SiO2 
 PCOD9468611
Probable space group: C M C M
;
_chemical_formula_sum "Si O2"
_cell_formula_units_Z 80
_cell_length_a 8.353565
_cell_length_b 21.003814
_cell_length_c 25.696361
_cell_angle_alpha 90.000000
_cell_angle_beta 90.000000
_cell_angle_gamma 90.000000
_cell_volume 4508.599358
_symmetry_space_group_name_H-M "C M C M"
_symmetry_group_IT_number 63
_symmetry_cell_setting 'orthorhombic'
loop_
_space_group_symop_operation_xyz
x,y,z
-x,-y,1/2+z
x,-y,-z
-x,y,1/2-z
-x,-y,-z
x,y,1/2-z
-x,y,z
x,-y,1/2+z
1/2+x,1/2+y,z
1/2-x,1/2-y,1/2+z
1/2+x,1/2-y,-z
1/2-x,1/2+y,1/2-z
1/2-x,1/2-y,-z
1/2+x,1/2+y,1/2-z
1/2-x,1/2+y,z
1/2+x,1/2-y,1/2+z
loop_
_atom_site_type_symbol
_atom_site_label
_atom_site_fract_x
_atom_site_fract_y
_atom_site_fract_z
Si Si1 0.695436 0.361859 0.863028
Si Si2 0.187285 0.497660 0.750000
Si Si3 0.691878 0.939168 0.466015
Si Si4 0.191645 0.814651 0.526089
Si Si5 0.311840 0.644355 0.250000
Si Si6 0.691287 0.510745 0.858478
O O1 0.500000 0.360671 0.861805
O O2 0.749185 0.324761 0.914311
O O3 0.753613 0.336332 0.806742
O O4 0.741120 0.436574 0.867746
O O5 0.290449 0.432400 0.750000
O O6 0.232123 0.531570 0.696225
O O7 0.000000 0.481412 0.750000
O O8 0.500000 0.939113 0.465400
O O9 0.751905 0.875152 0.492895
O O10 0.747342 0.000000 0.500000
O O11 0.754481 0.948785 0.407724
O O12 0.250000 0.750000 0.500000
O O13 0.000000 0.814451 0.527321
O O14 0.500000 0.659982 0.250000
O O15 0.500000 0.511957 0.853906
#
# Coordination Sequence:
#
# PCOD9468611 Si02
#       6
#    16   8  16  16   8  16
#     4   8  15  28  50  75 102 132 173 218 265 321
#     4  10  18  28  44  75 112 141 170 219 275 321
#     4  11  22  35  54  82 111 140 177 226 277 327
#     4  11  22  37  54  77 108 147 185 226 276 331
#     4   8  14  28  48  73  98 133 174 215 263 323
#     4  10  18  32  53  77 105 142 182 222 268 326
#
# _framework density 17.743870000000001
#
# number of rings (size 3 to 8) (size 9 to 14) (size 15 to 20)
#    0.000    2.200    2.000    3.900    0.000    0.800 
#    0.000    1.000    0.000    1.200    0.000    5.600 
#    0.000    0.000    0.000    0.000    0.000    0.000 
#
# Total GULP energy -223022.761022 kJ/mol
# GULP energy per Si atom -5575.569026 kJ/mol
# Density = 1.770348 g / cm^3
# Si number density = 17.743870 Si / 1000 Ang^3
#
#
#
# Elastic Constant Matrix: (Units=GPa)
#
#
# Indices 1 2 3 4 5 6 
#
# 1 36.1213 15.8600 23.4799 0.0000 0.0000 0.0000
# 2 15.8600 83.0589 67.9868 0.0000 0.0000 0.0000
# 3 23.4799 67.9868 214.6428 0.0000 0.0000 0.0000
# 4 0.0000 0.0000 0.0000 18.6273 0.0000 0.0000
# 5 0.0000 0.0000 0.0000 0.0000 21.3580 0.0000
# 6 0.0000 0.0000 0.0000 0.0000 0.0000 20.4839
#
#
#
# Elastic Compliance Matrix: (Units=1/GPa)
#
#
# Indices 1 2 3 4 5 6 
#
# 1 0.030865 -0.004225 -0.002038 0.000000 0.000000 0.000000
# 2 -0.004225 0.016832 -0.004869 0.000000 0.000000 0.000000
# 3 -0.002038 -0.004869 0.006424 0.000000 0.000000 0.000000
# 4 0.000000 0.000000 0.000000 0.053685 0.000000 0.000000
# 5 0.000000 0.000000 0.000000 0.000000 0.046821 0.000000
# 6 0.000000 0.000000 0.000000 0.000000 0.000000 0.048819
#
#
# Mechanical properties :
#
#
# Convention : Reuss Voigt Hill
#
# Bulk Modulus (GPa) = 31.39164 60.94179 46.16671
# Shear Modulus (GPa) = 21.15696 27.19360 24.17528
#
# Velocity S-wave (km/s) = 3.45679 3.91904 3.69515
# Velocity P-wave (km/s) = 5.80194 7.40934 6.65435
#
# Compressibility (1/GPa) = 0.03185562
#
# Stress axis : x y z
#
# Youngs Moduli (GPa) = 32.39966 59.41006 155.66289
#
# Poissons Ratio (x) = 0.25103 0.31723
# Poissons Ratio (y) = 0.13690 0.75796
# Poissons Ratio (z) = 0.06603 0.28928
#
# Static dielectric constant tensor:
#      x y z
#    x 1.611300 0.000000 0.000000 
#    y 0.000000 1.574370 0.000000 
#    z 0.000000 0.000000 1.633810 
# 
# From -- ./inp_files/59510.got.cif
#   From: 2010.05.17/outbox.cif.g08.bks.cpg/sg63_30_cif.got.tgz:59510.got - 2010.06.03 15:47:04.
