data_PCOD9468844
_publ_section_title
;
Structure prediction by ZEFSAII (Michael W. Deem and Ramdas Pophale) SiO2 
 PCOD9468844
Probable space group: C M C M
;
_chemical_formula_sum "Si O2"
_cell_formula_units_Z 56
_cell_length_a 14.226465
_cell_length_b 24.423894
_cell_length_c 8.593782
_cell_angle_alpha 90.000000
_cell_angle_beta 90.000000
_cell_angle_gamma 90.000000
_cell_volume 2986.044248
_symmetry_space_group_name_H-M "C M C M"
_symmetry_group_IT_number 63
_symmetry_cell_setting 'orthorhombic'
loop_
_space_group_symop_operation_xyz
x,y,z
-x,-y,1/2+z
x,-y,-z
-x,y,1/2-z
-x,-y,-z
x,y,1/2-z
-x,y,z
x,-y,1/2+z
1/2+x,1/2+y,z
1/2-x,1/2-y,1/2+z
1/2+x,1/2-y,-z
1/2-x,1/2+y,1/2-z
1/2-x,1/2-y,-z
1/2+x,1/2+y,1/2-z
1/2-x,1/2+y,z
1/2+x,1/2-y,1/2+z
loop_
_atom_site_type_symbol
_atom_site_label
_atom_site_fract_x
_atom_site_fract_y
_atom_site_fract_z
Si Si1 0.000000 0.437995 0.935940
Si Si2 0.394825 0.238130 0.437788
Si Si3 0.698566 0.061414 0.565009
Si Si4 0.216791 0.835604 0.936523
O O1 0.000000 0.436306 0.750000
O O2 0.000000 0.500000 0.000000
O O3 0.901078 0.416260 0.997748
O O4 0.392451 0.240392 0.250000
O O5 0.500000 0.221457 0.485224
O O6 0.311716 0.197125 0.486698
O O7 0.367522 0.297446 0.504771
O O8 0.692357 0.058585 0.750000
O O9 0.776485 0.104357 0.509549
O O10 0.712716 0.000000 0.500000
O O11 0.215900 0.839414 0.750000
#
# Coordination Sequence:
#
# PCOD9468844 Si02
#       4
#     8  16  16  16
#     4  10  18  30  46  68 100 136 174 212 255 308
#     4   9  19  36  56  78 106 142 179 221 269 315
#     4  11  21  34  51  75 106 142 179 219 264 319
#     4  10  20  34  54  81 109 141 179 222 266 316
#
# _framework density 18.753907999999999
#
# number of rings (size 3 to 8) (size 9 to 14) (size 15 to 20)
#    0.000    2.000    0.000    6.429    2.000    1.714 
#    0.000    0.000    0.000    0.857    0.000    0.000 
#    0.000    0.000    0.000    0.000    0.000    0.000 
#
# Total GULP energy -156281.330622 kJ/mol
# GULP energy per Si atom -5581.476094 kJ/mol
# Density = 1.871122 g / cm^3
# Si number density = 18.753908 Si / 1000 Ang^3
#
#
#
# Elastic Constant Matrix: (Units=GPa)
#
#
# Indices 1 2 3 4 5 6 
#
# 1 38.8201 2.2634 3.5930 0.0000 0.0000 0.0000
# 2 2.2634 77.4205 7.8621 0.0000 0.0000 0.0000
# 3 3.5930 7.8621 67.2047 0.0000 0.0000 0.0000
# 4 0.0000 0.0000 0.0000 25.3587 0.0000 0.0000
# 5 0.0000 0.0000 0.0000 0.0000 22.8474 0.0000
# 6 0.0000 0.0000 0.0000 0.0000 0.0000 28.9845
#
#
#
# Elastic Compliance Matrix: (Units=1/GPa)
#
#
# Indices 1 2 3 4 5 6 
#
# 1 0.025918 -0.000624 -0.001313 0.000000 0.000000 0.000000
# 2 -0.000624 0.013087 -0.001498 0.000000 0.000000 0.000000
# 3 -0.001313 -0.001498 0.015125 0.000000 0.000000 0.000000
# 4 0.000000 0.000000 0.000000 0.039434 0.000000 0.000000
# 5 0.000000 0.000000 0.000000 0.000000 0.043769 0.000000
# 6 0.000000 0.000000 0.000000 0.000000 0.000000 0.034501
#
#
# Mechanical properties :
#
#
# Convention : Reuss Voigt Hill
#
# Bulk Modulus (GPa) = 21.15928 23.43137 22.29533
# Shear Modulus (GPa) = 25.71267 26.75324 26.23296
#
# Velocity S-wave (km/s) = 3.70680 3.78106 3.74411
# Velocity P-wave (km/s) = 5.44312 5.61989 5.53221
#
# Compressibility (1/GPa) = 0.04726058
#
# Stress axis : x y z
#
# Youngs Moduli (GPa) = 38.58364 76.41283 66.11444
#
# Poissons Ratio (x) = 0.04771 0.08678
# Poissons Ratio (y) = 0.02409 0.09901
# Poissons Ratio (z) = 0.05065 0.11444
#
# Static dielectric constant tensor:
#      x y z
#    x 1.680500 0.000000 0.000000 
#    y 0.000000 1.655270 0.000000 
#    z 0.000000 0.000000 1.602830 
# 
# From -- ./inp_files/4150.got.cif
#   From: 2010.05.17/outbox.cif.g08.bks.cpg/sg63_3_cif.got.tgz:4150.got - 2010.06.03 15:47:04.
