data_PCOD9468466
_publ_section_title
;
Structure prediction by ZEFSAII (Michael W. Deem and Ramdas Pophale) SiO2 
 PCOD9468466
Probable space group: C M C M
;
_chemical_formula_sum "Si O2"
_cell_formula_units_Z 104
_cell_length_a 21.497714
_cell_length_b 32.801812
_cell_length_c 7.389294
_cell_angle_alpha 90.000000
_cell_angle_beta 90.000000
_cell_angle_gamma 90.000000
_cell_volume 5210.663915
_symmetry_space_group_name_H-M "C M C M"
_symmetry_group_IT_number 63
_symmetry_cell_setting 'orthorhombic'
loop_
_space_group_symop_operation_xyz
x,y,z
-x,-y,1/2+z
x,-y,-z
-x,y,1/2-z
-x,-y,-z
x,y,1/2-z
-x,y,z
x,-y,1/2+z
1/2+x,1/2+y,z
1/2-x,1/2-y,1/2+z
1/2+x,1/2-y,-z
1/2-x,1/2+y,1/2-z
1/2-x,1/2-y,-z
1/2+x,1/2+y,1/2-z
1/2-x,1/2+y,z
1/2+x,1/2-y,1/2+z
loop_
_atom_site_type_symbol
_atom_site_label
_atom_site_fract_x
_atom_site_fract_y
_atom_site_fract_z
Si Si1 0.500000 0.047672 0.465878
Si Si2 0.260800 0.545373 0.034253
Si Si3 0.131686 0.576898 0.469602
Si Si4 0.930231 0.726169 0.465435
Si Si5 0.322405 0.832853 0.968863
Si Si6 0.692308 0.633382 0.471640
Si Si7 0.568912 0.677813 0.032856
O O1 0.500000 0.055450 0.250000
O O2 0.564315 0.065172 0.538934
O O3 0.500000 0.000000 0.500000
O O4 0.258756 0.549514 0.250000
O O5 0.189578 0.549568 0.966431
O O6 0.295700 0.586457 0.970556
O O7 0.285734 0.500000 0.000000
O O8 0.130383 0.573506 0.250000
O O9 0.147541 0.623443 0.511362
O O10 0.932272 0.718542 0.250000
O O11 0.870392 0.701423 0.535827
O O12 0.921837 0.774333 0.493948
O O13 0.000000 0.715224 0.535066
O O14 0.319387 0.828842 0.750000
O O15 0.250716 0.838127 0.028803
O O16 0.692579 0.633520 0.250000
O O17 0.626918 0.651538 0.533739
O O18 0.567844 0.673477 0.250000
O O19 0.500000 0.666402 0.965011
#
# Coordination Sequence:
#
# PCOD9468466 Si02
#       7
#     8  16  16  16  16  16  16
#     4  10  18  26  38  56  78 104 138 174 208 244
#     4   9  16  28  45  63  83 107 136 170 207 247
#     4   8  15  25  39  59  80 106 139 173 204 240
#     4   9  17  27  42  65  89 112 140 176 212 244
#     4   8  14  25  41  62  85 109 141 177 209 239
#     4   8  15  28  45  64  85 110 142 175 205 244
#     4   9  17  30  47  64  83 111 143 171 205 253
#
# _framework density 19.959067999999998
#
# number of rings (size 3 to 8) (size 9 to 14) (size 15 to 20)
#    0.000    3.385    0.000    2.308    1.077    0.615 
#    0.000    0.769    0.000    5.077    0.000    0.000 
#    0.000    0.000    0.000    0.000    0.000    0.000 
#
# Total GULP energy -289773.079222 kJ/mol
# GULP energy per Si atom -5572.559216 kJ/mol
# Density = 1.991364 g / cm^3
# Si number density = 19.959068 Si / 1000 Ang^3
#
#
#
# Elastic Constant Matrix: (Units=GPa)
#
#
# Indices 1 2 3 4 5 6 
#
# 1 198.6241 106.7041 8.6270 0.0000 0.0000 0.0000
# 2 106.7041 98.8132 -0.4881 0.0000 0.0000 0.0000
# 3 8.6270 -0.4881 68.8148 0.0000 0.0000 0.0000
# 4 0.0000 0.0000 0.0000 14.7147 0.0000 0.0000
# 5 0.0000 0.0000 0.0000 0.0000 -22.0138 0.0000
# 6 0.0000 0.0000 0.0000 0.0000 0.0000 -10.5641
#
#
#
# Elastic Compliance Matrix: (Units=1/GPa)
#
#
# Indices 1 2 3 4 5 6 
#
# 1 0.012168 -0.013148 -0.001619 0.000000 0.000000 0.000000
# 2 -0.013148 0.024327 0.001821 0.000000 0.000000 0.000000
# 3 -0.001619 0.001821 0.014748 0.000000 0.000000 0.000000
# 4 0.000000 0.000000 0.000000 0.067959 0.000000 0.000000
# 5 0.000000 0.000000 0.000000 0.000000 -0.045426 0.000000
# 6 0.000000 0.000000 0.000000 0.000000 0.000000 -0.094661
#
#
# Mechanical properties :
#
#
# Convention : Reuss Voigt Hill
#
# Bulk Modulus (GPa) = 39.44591 66.21536 52.83064
# Shear Modulus (GPa) = 371.53431 13.18796 192.36114
#
# Velocity S-wave (km/s) = 13.65841 2.57330 9.82787
# Velocity P-wave (km/s) = 16.38727 6.48666 12.46233
#
# Compressibility (1/GPa) = 0.02535117
#
# Stress axis : x y z
#
# Youngs Moduli (GPa) = 82.18114 41.10655 67.80762
#
# Poissons Ratio (x) = 0.54047 0.10976
# Poissons Ratio (y) = 1.08051 -0.12347
# Poissons Ratio (z) = 0.13303 -0.07485
#
# Static dielectric constant tensor:
#      x y z
#    x 1.692800 0.000000 0.000000 
#    y 0.000000 1.670420 0.000000 
#    z 0.000000 0.000000 1.774790 
# 
# From -- ./inp_files/23213.got.cif
#   From: 2010.05.17/outbox.cif.g08.bks.cpg/sg63_12_cif.got.tgz:23213.got - 2010.06.03 15:47:04.
