data_PCOD9468276
_publ_section_title
;
Structure prediction by ZEFSAII (Michael W. Deem and Ramdas Pophale) SiO2 
 PCOD9468276
Probable space group: C M C M
;
_chemical_formula_sum "Si O2"
_cell_formula_units_Z 96
_cell_length_a 19.540284
_cell_length_b 8.485838
_cell_length_c 32.645187
_cell_angle_alpha 90.000000
_cell_angle_beta 90.000000
_cell_angle_gamma 90.000000
_cell_volume 5413.084028
_symmetry_space_group_name_H-M "C M C M"
_symmetry_group_IT_number 63
_symmetry_cell_setting 'orthorhombic'
loop_
_space_group_symop_operation_xyz
x,y,z
-x,-y,1/2+z
x,-y,-z
-x,y,1/2-z
-x,-y,-z
x,y,1/2-z
-x,y,z
x,-y,1/2+z
1/2+x,1/2+y,z
1/2-x,1/2-y,1/2+z
1/2+x,1/2-y,-z
1/2-x,1/2+y,1/2-z
1/2-x,1/2-y,-z
1/2+x,1/2+y,1/2-z
1/2-x,1/2+y,z
1/2+x,1/2-y,1/2+z
loop_
_atom_site_type_symbol
_atom_site_label
_atom_site_fract_x
_atom_site_fract_y
_atom_site_fract_z
Si Si1 0.579009 0.558050 0.295880
Si Si2 0.920990 0.558018 0.795885
Si Si3 0.327759 0.439481 0.871224
Si Si4 0.328488 0.437705 0.042514
Si Si5 0.171586 0.437608 0.957488
Si Si6 0.672267 0.060541 0.628776
O O1 0.600151 0.507823 0.250000
O O2 0.500000 0.510745 0.302205
O O3 0.627734 0.505768 0.332522
O O4 0.580045 0.750016 0.296071
O O5 0.899863 0.507788 0.750000
O O6 0.872252 0.505768 0.832527
O O7 0.000000 0.510715 0.802217
O O8 0.357494 0.500391 0.914521
O O9 0.326528 0.250011 0.872427
O O10 0.250017 0.500038 0.867209
O O11 0.250050 0.500140 0.042785
O O12 0.327507 0.250048 0.042105
O O13 0.359938 0.500000 0.000000
O O14 0.142577 0.499602 0.914531
O O15 0.140166 0.500000 0.000000
#
# Coordination Sequence:
#
# PCOD9468276 Si02
#       6
#    16  16  16  16  16  16
#     4   8  15  29  48  68  90 120 158 194 227 268
#     4   8  15  29  48  68  90 120 158 194 227 268
#     4  10  18  28  45  70  97 122 151 189 231 272
#     4  10  17  27  43  64  92 122 153 187 225 271
#     4  10  17  27  43  64  92 122 153 187 225 271
#     4  10  18  28  45  70  97 122 151 189 231 272
#
# _framework density 17.734807
#
# number of rings (size 3 to 8) (size 9 to 14) (size 15 to 20)
#    0.000    2.667    0.000    8.000    0.000    0.667 
#    0.000    0.000    0.000    8.000    0.000    9.333 
#    0.000    0.000    0.000    0.000    0.000    0.000 
#
# Total GULP energy -267408.020286 kJ/mol
# GULP energy per Si atom -5571.000423 kJ/mol
# Density = 1.769444 g / cm^3
# Si number density = 17.734807 Si / 1000 Ang^3
#
#
#
# Elastic Constant Matrix: (Units=GPa)
#
#
# Indices 1 2 3 4 5 6 
#
# 1 40.0927 14.7422 74.1468 0.0000 0.0000 0.0000
# 2 14.7422 82.2614 44.5373 0.0000 0.0000 0.0000
# 3 74.1468 44.5373 228.3032 0.0000 0.0000 0.0000
# 4 0.0000 0.0000 0.0000 39.0469 0.0000 0.0000
# 5 0.0000 0.0000 0.0000 0.0000 -5.6315 0.0000
# 6 0.0000 0.0000 0.0000 0.0000 0.0000 6.2744
#
#
#
# Elastic Compliance Matrix: (Units=1/GPa)
#
#
# Indices 1 2 3 4 5 6 
#
# 1 0.062458 -0.000236 -0.020239 0.000000 0.000000 0.000000
# 2 -0.000236 0.013593 -0.002575 0.000000 0.000000 0.000000
# 3 -0.020239 -0.002575 0.011455 0.000000 0.000000 0.000000
# 4 0.000000 0.000000 0.000000 0.025610 0.000000 0.000000
# 5 0.000000 0.000000 0.000000 0.000000 -0.177572 0.000000
# 6 0.000000 0.000000 0.000000 0.000000 0.000000 0.159378
#
#
# Mechanical properties :
#
#
# Convention : Reuss Voigt Hill
#
# Bulk Modulus (GPa) = 24.15040 68.61223 46.38131
# Shear Modulus (GPa) = 32.29472 22.42002 27.35737
#
# Velocity S-wave (km/s) = 4.27192 3.55939 3.93183
# Velocity P-wave (km/s) = 6.16275 7.46085 6.84265
#
# Compressibility (1/GPa) = 0.04140719
#
# Stress axis : x y z
#
# Youngs Moduli (GPa) = 16.01075 73.56821 87.29433
#
# Poissons Ratio (x) = 0.01734 1.76673
# Poissons Ratio (y) = 0.00377 0.22479
# Poissons Ratio (z) = 0.32404 0.18945
#
# Static dielectric constant tensor:
#      x y z
#    x 1.595350 0.000000 0.000000 
#    y 0.000000 1.602810 0.000000 
#    z 0.000000 0.000000 1.665560 
# 
# From -- ./inp_files/70632.got.cif
#   From: 2010.05.17/outbox.cif.g08.bks.cpg/sg63_36_cif.got.tgz:70632.got - 2010.06.03 15:47:04.
