data_PCOD9468248
_publ_section_title
;
Structure prediction by ZEFSAII (Michael W. Deem and Ramdas Pophale) SiO2 
 PCOD9468248
Probable space group: C M C M
;
_chemical_formula_sum "Si O2"
_cell_formula_units_Z 112
_cell_length_a 23.003701
_cell_length_b 17.593159
_cell_length_c 18.980273
_cell_angle_alpha 90.000000
_cell_angle_beta 90.000000
_cell_angle_gamma 90.000000
_cell_volume 7681.463946
_symmetry_space_group_name_H-M "C M C M"
_symmetry_group_IT_number 63
_symmetry_cell_setting 'orthorhombic'
loop_
_space_group_symop_operation_xyz
x,y,z
-x,-y,1/2+z
x,-y,-z
-x,y,1/2-z
-x,-y,-z
x,y,1/2-z
-x,y,z
x,-y,1/2+z
1/2+x,1/2+y,z
1/2-x,1/2-y,1/2+z
1/2+x,1/2-y,-z
1/2-x,1/2+y,1/2-z
1/2-x,1/2-y,-z
1/2+x,1/2+y,1/2-z
1/2-x,1/2+y,z
1/2+x,1/2-y,1/2+z
loop_
_atom_site_type_symbol
_atom_site_label
_atom_site_fract_x
_atom_site_fract_y
_atom_site_fract_z
Si Si1 0.819564 0.026601 0.924616
Si Si2 0.350689 0.334183 0.332510
Si Si3 0.346909 0.079110 0.405067
Si Si4 0.275563 0.389637 0.666410
Si Si5 0.186436 0.414060 0.435292
Si Si6 0.784002 0.715721 0.831965
Si Si7 0.567989 0.808477 0.665854
O O1 0.852873 0.093016 0.883284
O O2 0.754016 0.058896 0.938361
O O3 0.811130 0.953421 0.875087
O O4 0.843443 0.000000 0.000000
O O5 0.358699 0.355522 0.250000
O O6 0.285386 0.299894 0.338248
O O7 0.396304 0.268344 0.350810
O O8 0.291196 0.102139 0.358318
O O9 0.333873 0.102991 0.485660
O O10 0.402291 0.121923 0.374712
O O11 0.348387 0.987411 0.406882
O O12 0.278961 0.401812 0.750000
O O13 0.294960 0.303647 0.650667
O O14 0.184523 0.342776 0.383550
O O15 0.799050 0.702114 0.750000
O O16 0.574472 0.820579 0.750000
O O17 0.500000 0.800756 0.649896
#
# Coordination Sequence:
#
# PCOD9468248 Si02
#       7
#    16  16  16  16  16  16  16
#     4  10  17  28  41  65  92 121 147 172 211 266
#     4   9  17  29  44  63  89 118 149 182 220 259
#     4  10  17  30  44  63  90 119 149 180 218 260
#     4  10  17  26  41  62  90 121 149 177 210 258
#     4   9  18  29  41  64  95 121 147 174 210 266
#     4   9  17  27  42  66  93 123 150 173 211 262
#     4  10  20  33  49  67  85 111 151 192 226 259
#
# _framework density 14.580553999999999
#
# number of rings (size 3 to 8) (size 9 to 14) (size 15 to 20)
#    0.000    2.429    4.286    0.857    0.000    5.714 
#    0.000    1.429    0.000    0.429    0.000    0.000 
#    0.000    0.000    0.000    7.286    0.000    0.000 
#
# Total GULP energy -312028.719360 kJ/mol
# GULP energy per Si atom -5571.941417 kJ/mol
# Density = 1.454737 g / cm^3
# Si number density = 14.580554 Si / 1000 Ang^3
#
#
#
# Elastic Constant Matrix: (Units=GPa)
#
#
# Indices 1 2 3 4 5 6 
#
# 1 50.6365 40.7123 34.3910 0.0000 0.0000 0.0000
# 2 40.7123 87.9399 70.9392 0.0000 0.0000 0.0000
# 3 34.3910 70.9392 81.8018 0.0000 0.0000 0.0000
# 4 0.0000 0.0000 0.0000 19.3254 0.0000 0.0000
# 5 0.0000 0.0000 0.0000 0.0000 13.0547 0.0000
# 6 0.0000 0.0000 0.0000 0.0000 0.0000 11.1679
#
#
#
# Elastic Compliance Matrix: (Units=1/GPa)
#
#
# Indices 1 2 3 4 5 6 
#
# 1 0.031555 -0.013004 -0.001989 0.000000 0.000000 0.000000
# 2 -0.013004 0.043208 -0.032003 0.000000 0.000000 0.000000
# 3 -0.001989 -0.032003 0.040814 0.000000 0.000000 0.000000
# 4 0.000000 0.000000 0.000000 0.051745 0.000000 0.000000
# 5 0.000000 0.000000 0.000000 0.000000 0.076601 0.000000
# 6 0.000000 0.000000 0.000000 0.000000 0.000000 0.089542
#
#
# Mechanical properties :
#
#
# Convention : Reuss Voigt Hill
#
# Bulk Modulus (GPa) = 46.32917 56.94036 51.63476
# Shear Modulus (GPa) = 11.50343 13.66531 12.58437
#
# Velocity S-wave (km/s) = 2.81188 3.06474 2.94103
# Velocity P-wave (km/s) = 6.51044 7.18753 6.85735
#
# Compressibility (1/GPa) = 0.02158467
#
# Stress axis : x y z
#
# Youngs Moduli (GPa) = 31.69077 23.14391 24.50117
#
# Poissons Ratio (x) = 0.30096 0.04874
# Poissons Ratio (y) = 0.41210 0.78412
# Poissons Ratio (z) = 0.06304 0.74068
#
# Static dielectric constant tensor:
#      x y z
#    x 1.446960 0.000000 0.000000 
#    y 0.000000 1.489560 0.000000 
#    z 0.000000 0.000000 1.486370 
# 
# From -- ./inp_files/48366.got.cif
#   From: 2010.05.17/outbox.cif.g08.bks.cpg/sg63_25_cif.got.tgz:48366.got - 2010.06.03 15:47:04.
