data_PCOD9468326
_publ_section_title
;
Structure prediction by ZEFSAII (Michael W. Deem and Ramdas Pophale) SiO2 
 PCOD9468326
Probable space group: C M C M
;
_chemical_formula_sum "Si O2"
_cell_formula_units_Z 56
_cell_length_a 10.275787
_cell_length_b 29.374672
_cell_length_c 8.475839
_cell_angle_alpha 90.000000
_cell_angle_beta 90.000000
_cell_angle_gamma 90.000000
_cell_volume 2558.413971
_symmetry_space_group_name_H-M "C M C M"
_symmetry_group_IT_number 63
_symmetry_cell_setting 'orthorhombic'
loop_
_space_group_symop_operation_xyz
x,y,z
-x,-y,1/2+z
x,-y,-z
-x,y,1/2-z
-x,-y,-z
x,y,1/2-z
-x,y,z
x,-y,1/2+z
1/2+x,1/2+y,z
1/2-x,1/2-y,1/2+z
1/2+x,1/2-y,-z
1/2-x,1/2+y,1/2-z
1/2-x,1/2-y,-z
1/2+x,1/2+y,1/2-z
1/2-x,1/2+y,z
1/2+x,1/2-y,1/2+z
loop_
_atom_site_type_symbol
_atom_site_label
_atom_site_fract_x
_atom_site_fract_y
_atom_site_fract_z
Si Si1 0.717724 0.644694 0.940483
Si Si2 0.000000 0.680598 0.939104
Si Si3 0.000000 0.550851 0.938233
Si Si4 0.716251 0.448802 0.563208
Si Si5 0.000000 0.782559 0.439410
O O1 0.721951 0.640044 0.750000
O O2 0.864573 0.657957 0.995721
O O3 0.625737 0.687243 0.980953
O O4 0.652286 0.597962 0.004427
O O5 0.000000 0.675134 0.750000
O O6 0.000000 0.733537 0.981369
O O7 0.000000 0.555738 0.750000
O O8 0.000000 0.500000 0.000000
O O9 0.861706 0.564549 0.005599
O O10 0.683242 0.500000 0.500000
O O11 0.709470 0.452326 0.750000
O O12 0.000000 0.776277 0.250000
#
# Coordination Sequence:
#
# PCOD9468326 Si02
#       5
#    16   8   8  16   8
#     4  10  21  38  58  85 117 154 194 240 292 347
#     4  10  21  37  61  87 115 148 189 239 295 350
#     4  10  17  28  47  73 108 147 185 232 283 334
#     4  11  21  34  54  82 115 154 196 242 289 345
#     4  10  22  39  60  84 117 153 192 241 296 350
#
# _framework density 21.888559999999998
#
# number of rings (size 3 to 8) (size 9 to 14) (size 15 to 20)
#    0.000    1.714    0.000    7.286    0.000    3.429 
#    0.000    0.714    0.000    0.000    0.000    0.000 
#    0.000    0.000    0.000    0.000    0.000    0.000 
#
# Total GULP energy -156046.751486 kJ/mol
# GULP energy per Si atom -5573.098267 kJ/mol
# Density = 2.183874 g / cm^3
# Si number density = 21.888560 Si / 1000 Ang^3
#
#
#
# Elastic Constant Matrix: (Units=GPa)
#
#
# Indices 1 2 3 4 5 6 
#
# 1 109.9870 50.4628 16.7674 0.0000 0.0000 0.0000
# 2 50.4628 224.5245 47.2277 0.0000 0.0000 0.0000
# 3 16.7674 47.2277 65.3853 0.0000 0.0000 0.0000
# 4 0.0000 0.0000 0.0000 37.4424 0.0000 0.0000
# 5 0.0000 0.0000 0.0000 0.0000 -6.9222 0.0000
# 6 0.0000 0.0000 0.0000 0.0000 0.0000 24.2894
#
#
#
# Elastic Compliance Matrix: (Units=1/GPa)
#
#
# Indices 1 2 3 4 5 6 
#
# 1 0.010208 -0.002056 -0.001133 0.000000 0.000000 0.000000
# 2 -0.002056 0.005666 -0.003565 0.000000 0.000000 0.000000
# 3 -0.001133 -0.003565 0.018160 0.000000 0.000000 0.000000
# 4 0.000000 0.000000 0.000000 0.026708 0.000000 0.000000
# 5 0.000000 0.000000 0.000000 0.000000 -0.144463 0.000000
# 6 0.000000 0.000000 0.000000 0.000000 0.000000 0.041170
#
#
# Mechanical properties :
#
#
# Convention : Reuss Voigt Hill
#
# Bulk Modulus (GPa) = 48.71962 69.86806 59.29384
# Shear Modulus (GPa) = -225.20543 29.99119 -97.60712
#
# Velocity S-wave (km/s) = -10.15434 3.70560 -6.68503
# Velocity P-wave (km/s) = 10.73194 7.09210 5.69546
#
# Compressibility (1/GPa) = 0.02052561
#
# Stress axis : x y z
#
# Youngs Moduli (GPa) = 97.96253 176.49503 55.06743
#
# Poissons Ratio (x) = 0.36288 0.06237
# Poissons Ratio (y) = 0.20141 0.19633
# Poissons Ratio (z) = 0.11096 0.62924
#
# Static dielectric constant tensor:
#      x y z
#    x 1.649750 0.000000 0.000000 
#    y 0.000000 1.793590 0.000000 
#    z 0.000000 0.000000 1.741320 
# 
# From -- ./inp_files/2901.got.cif
#   From: 2010.05.17/outbox.cif.g08.bks.cpg/sg63_2_cif.got.tgz:2901.got - 2010.06.03 15:47:04.
