data_PCOD9468887
_publ_section_title
;
Structure prediction by ZEFSAII (Michael W. Deem and Ramdas Pophale) SiO2 
 PCOD9468887
Probable space group: C M C M
;
_chemical_formula_sum "Si O2"
_cell_formula_units_Z 96
_cell_length_a 24.100389
_cell_length_b 15.143790
_cell_length_c 15.753548
_cell_angle_alpha 90.000000
_cell_angle_beta 90.000000
_cell_angle_gamma 90.000000
_cell_volume 5749.591789
_symmetry_space_group_name_H-M "C M C M"
_symmetry_group_IT_number 63
_symmetry_cell_setting 'orthorhombic'
loop_
_space_group_symop_operation_xyz
x,y,z
-x,-y,1/2+z
x,-y,-z
-x,y,1/2-z
-x,-y,-z
x,y,1/2-z
-x,y,z
x,-y,1/2+z
1/2+x,1/2+y,z
1/2-x,1/2-y,1/2+z
1/2+x,1/2-y,-z
1/2-x,1/2+y,1/2-z
1/2-x,1/2-y,-z
1/2+x,1/2+y,1/2-z
1/2-x,1/2+y,z
1/2+x,1/2-y,1/2+z
loop_
_atom_site_type_symbol
_atom_site_label
_atom_site_fract_x
_atom_site_fract_y
_atom_site_fract_z
Si Si1 0.271349 0.299233 0.915873
Si Si2 0.564163 0.682271 0.654016
Si Si3 0.747343 0.115922 0.653557
Si Si4 0.318547 0.057463 0.352304
Si Si5 0.939253 0.394790 0.850017
Si Si6 0.850290 0.099549 0.974539
O O1 0.274464 0.216394 0.852562
O O2 0.225713 0.371851 0.888453
O O3 0.250000 0.250000 0.000000
O O4 0.328214 0.346998 0.943129
O O5 0.584362 0.659869 0.750000
O O6 0.500000 0.654162 0.647925
O O7 0.564877 0.788510 0.647621
O O8 0.600644 0.643376 0.578821
O O9 0.765490 0.099064 0.750000
O O10 0.798039 0.100965 0.589771
O O11 0.702250 0.041602 0.631040
O O12 0.319398 0.071220 0.250000
O O13 0.381087 0.070427 0.385844
O O14 0.940314 0.419726 0.750000
O O15 0.000000 0.420236 0.886008
O O16 0.863508 0.000000 0.000000
#
# Coordination Sequence:
#
# PCOD9468887 Si02
#       6
#    16  16  16  16  16  16
#     4  10  20  31  47  70 100 133 167 210 259 312
#     4   9  18  33  53  75  98 129 171 215 260 313
#     4  10  20  33  50  71 101 140 177 210 252 309
#     4  10  18  30  48  72 100 132 171 209 251 309
#     4   8  14  26  46  71  95 120 159 212 257 291
#     4  11  20  33  49  74 104 133 168 213 269 312
#
# _framework density 16.696838
#
# number of rings (size 3 to 8) (size 9 to 14) (size 15 to 20)
#    0.000    2.333    1.667    4.000    0.000    1.667 
#    0.000    0.000    0.000    1.000    0.000   10.500 
#    0.000    0.000    0.000    0.167    0.000    0.500 
#
# Total GULP energy -267271.359572 kJ/mol
# GULP energy per Si atom -5568.153324 kJ/mol
# Density = 1.665884 g / cm^3
# Si number density = 16.696838 Si / 1000 Ang^3
#
#
#
# Elastic Constant Matrix: (Units=GPa)
#
#
# Indices 1 2 3 4 5 6 
#
# 1 110.9674 41.1047 28.5759 0.0000 0.0000 0.0000
# 2 41.1047 69.3051 8.4903 0.0000 0.0000 0.0000
# 3 28.5759 8.4903 29.2129 0.0000 0.0000 0.0000
# 4 0.0000 0.0000 0.0000 15.8731 0.0000 0.0000
# 5 0.0000 0.0000 0.0000 0.0000 25.4436 0.0000
# 6 0.0000 0.0000 0.0000 0.0000 0.0000 19.0790
#
#
#
# Elastic Compliance Matrix: (Units=1/GPa)
#
#
# Indices 1 2 3 4 5 6 
#
# 1 0.014944 -0.007333 -0.012486 0.000000 0.000000 0.000000
# 2 -0.007333 0.018560 0.001779 0.000000 0.000000 0.000000
# 3 -0.012486 0.001779 0.045929 0.000000 0.000000 0.000000
# 4 0.000000 0.000000 0.000000 0.063000 0.000000 0.000000
# 5 0.000000 0.000000 0.000000 0.000000 0.039303 0.000000
# 6 0.000000 0.000000 0.000000 0.000000 0.000000 0.052414
#
#
# Mechanical properties :
#
#
# Convention : Reuss Voigt Hill
#
# Bulk Modulus (GPa) = 23.06739 40.64748 31.85743
# Shear Modulus (GPa) = 17.56358 20.83343 19.19851
#
# Velocity S-wave (km/s) = 3.24684 3.53618 3.39459
# Velocity P-wave (km/s) = 5.28217 6.40859 5.87245
#
# Compressibility (1/GPa) = 0.04335124
#
# Stress axis : x y z
#
# Youngs Moduli (GPa) = 66.91871 53.87824 21.77296
#
# Poissons Ratio (x) = 0.39510 0.27186
# Poissons Ratio (y) = 0.49073 -0.03874
# Poissons Ratio (z) = 0.83557 -0.09585
#
# Static dielectric constant tensor:
#      x y z
#    x 1.581200 0.000000 0.000000 
#    y 0.000000 1.572470 0.000000 
#    z 0.000000 0.000000 1.610240 
# 
# From -- ./inp_files/48038.got.cif
#   From: 2010.05.17/outbox.cif.g08.bks.cpg/sg63_25_cif.got.tgz:48038.got - 2010.06.03 15:47:04.
