data_PCOD9468445
_publ_section_title
;
Structure prediction by ZEFSAII (Michael W. Deem and Ramdas Pophale) SiO2 
 PCOD9468445
Probable space group: C M C M
;
_chemical_formula_sum "Si O2"
_cell_formula_units_Z 96
_cell_length_a 14.251491
_cell_length_b 17.973212
_cell_length_c 17.599203
_cell_angle_alpha 90.000000
_cell_angle_beta 90.000000
_cell_angle_gamma 90.000000
_cell_volume 4507.949068
_symmetry_space_group_name_H-M "C M C M"
_symmetry_group_IT_number 63
_symmetry_cell_setting 'orthorhombic'
loop_
_space_group_symop_operation_xyz
x,y,z
-x,-y,1/2+z
x,-y,-z
-x,y,1/2-z
-x,-y,-z
x,y,1/2-z
-x,y,z
x,-y,1/2+z
1/2+x,1/2+y,z
1/2-x,1/2-y,1/2+z
1/2+x,1/2-y,-z
1/2-x,1/2+y,1/2-z
1/2-x,1/2-y,-z
1/2+x,1/2+y,1/2-z
1/2-x,1/2+y,z
1/2+x,1/2-y,1/2+z
loop_
_atom_site_type_symbol
_atom_site_label
_atom_site_fract_x
_atom_site_fract_y
_atom_site_fract_z
Si Si1 0.309820 0.399670 0.426756
Si Si2 0.101329 0.590095 0.338857
Si Si3 0.358918 0.235909 0.412415
Si Si4 0.666518 0.709754 0.336361
Si Si5 0.398943 0.838673 0.425535
Si Si6 0.808569 0.059955 0.396609
O O1 0.366429 0.324622 0.406779
O O2 0.197547 0.384597 0.415717
O O3 0.337788 0.474971 0.383836
O O4 0.323211 0.417604 0.515753
O O5 0.110598 0.572999 0.250000
O O6 0.098981 0.679483 0.351132
O O7 0.196101 0.563938 0.379935
O O8 0.000000 0.561350 0.366448
O O9 0.248816 0.221690 0.398183
O O10 0.389990 0.204246 0.493650
O O11 0.699178 0.719994 0.250000
O O12 0.599023 0.775735 0.360295
O O13 0.640670 0.623689 0.347613
O O14 0.500000 0.878703 0.425511
#
# Coordination Sequence:
#
# PCOD9468445 Si02
#       6
#    16  16  16  16  16  16
#     4  10  19  31  53  78 107 126 171 222 264 302
#     4  10  20  33  51  76 107 141 173 208 259 320
#     4  10  17  34  53  78  99 135 180 222 255 296
#     4  10  19  35  55  73 103 145 185 215 251 312
#     4  11  20  33  54  82 110 137 171 217 268 315
#     4  10  18  32  51  77 103 136 169 216 257 313
#
# _framework density 21.295714
#
# number of rings (size 3 to 8) (size 9 to 14) (size 15 to 20)
#    0.000    1.833    5.000    3.500    0.000    1.000 
#    0.000   10.000    0.000    3.000    0.000    0.000 
#    0.000    0.000    0.000    0.000    0.000    0.000 
#
# Total GULP energy -267307.049619 kJ/mol
# GULP energy per Si atom -5568.896867 kJ/mol
# Density = 2.124724 g / cm^3
# Si number density = 21.295714 Si / 1000 Ang^3
#
#
#
# Elastic Constant Matrix: (Units=GPa)
#
#
# Indices 1 2 3 4 5 6 
#
# 1 21.1051 -24.1643 -9.5660 0.0000 0.0000 0.0000
# 2 -24.1643 114.6950 11.3179 0.0000 0.0000 0.0000
# 3 -9.5660 11.3179 44.0694 0.0000 0.0000 0.0000
# 4 0.0000 0.0000 0.0000 15.1215 0.0000 0.0000
# 5 0.0000 0.0000 0.0000 0.0000 10.0353 0.0000
# 6 0.0000 0.0000 0.0000 0.0000 0.0000 4.6073
#
#
#
# Elastic Compliance Matrix: (Units=1/GPa)
#
#
# Indices 1 2 3 4 5 6 
#
# 1 0.067507 0.013109 0.011287 0.000000 0.000000 0.000000
# 2 0.013109 0.011491 -0.000106 0.000000 0.000000 0.000000
# 3 0.011287 -0.000106 0.025169 0.000000 0.000000 0.000000
# 4 0.000000 0.000000 0.000000 0.066131 0.000000 0.000000
# 5 0.000000 0.000000 0.000000 0.000000 0.099648 0.000000
# 6 0.000000 0.000000 0.000000 0.000000 0.000000 0.217047
#
#
# Mechanical properties :
#
#
# Convention : Reuss Voigt Hill
#
# Bulk Modulus (GPa) = 6.54681 15.00495 10.77588
# Shear Modulus (GPa) = 10.21808 19.43827 14.82818
#
# Velocity S-wave (km/s) = 2.19285 3.02450 2.64161
# Velocity P-wave (km/s) = 3.08097 4.38840 3.79147
#
# Compressibility (1/GPa) = 0.15274610
#
# Stress axis : x y z
#
# Youngs Moduli (GPa) = 14.81339 87.02468 39.73200
#
# Poissons Ratio (x) = -1.14078 -0.44845
# Poissons Ratio (y) = -0.19418 0.00420
# Poissons Ratio (z) = -0.16720 0.00919
#
# Static dielectric constant tensor:
#      x y z
#    x 1.851630 0.000000 0.000000 
#    y 0.000000 1.852110 0.000000 
#    z 0.000000 0.000000 1.731660 
# 
# From -- ./inp_files/45714.got.cif
#   From: 2010.05.17/outbox.cif.g08.bks.cpg/sg63_23_cif.got.tgz:45714.got - 2010.06.03 15:47:04.
