data_PCOD9468017
_publ_section_title
;
Structure prediction by ZEFSAII (Michael W. Deem and Ramdas Pophale) SiO2 
 PCOD9468017
Probable space group: P N M A
;
_chemical_formula_sum "Si O2"
_cell_formula_units_Z 48
_cell_length_a 18.000000
_cell_length_b 9.000000
_cell_length_c 15.000000
_cell_angle_alpha 90.000000
_cell_angle_beta 90.000000
_cell_angle_gamma 90.000000
_cell_volume 2430.000000
_symmetry_space_group_name_H-M "P N M A"
_symmetry_group_IT_number 62
_symmetry_cell_setting 'orthorhombic'
loop_
_space_group_symop_operation_xyz
x,y,z
1/2-x,-y,1/2+z
1/2+x,1/2-y,1/2-z
-x,1/2+y,-z
-x,-y,-z
1/2+x,y,1/2-z
1/2-x,1/2+y,1/2+z
x,1/2-y,z
loop_
_atom_site_type_symbol
_atom_site_label
_atom_site_fract_x
_atom_site_fract_y
_atom_site_fract_z
Si Si1 0.963598 0.077216 0.736856
Si Si2 0.790895 0.073491 0.710674
Si Si3 0.705013 0.925833 0.558371
Si Si4 0.546391 0.925062 0.921245
Si Si5 0.047490 0.076450 0.923397
Si Si6 0.204013 0.427699 0.613237
O O1 0.973866 0.250000 0.707561
O O2 0.875636 0.048986 0.739902
O O3 0.002327 0.061588 0.831897
O O4 0.003292 0.968869 0.668394
O O5 0.782320 0.250000 0.693708
O O6 0.734334 0.031809 0.789521
O O7 0.769236 0.983261 0.623567
O O8 0.695795 0.750000 0.567107
O O9 0.731442 0.958789 0.458180
O O10 0.628452 0.004711 0.582476
O O11 0.549600 0.750000 0.934831
O O12 0.629077 0.990226 0.913474
O O13 0.500000 0.000000 0.000000
O O14 0.055927 0.250000 0.943021
O O15 0.000000 0.000000 0.000000
O O16 0.190314 0.250000 0.612065
#
# Coordination Sequence:
#
# PCOD9468017 Si02
#       6
#     8   8   8   8   8   8
#     4  10  22  41  63  88 120 158 199 243 295 354
#     4  10  21  39  62  86 115 154 197 241 293 352
#     4  11  23  39  60  88 120 154 196 245 297 353
#     4  12  25  40  61  89 120 156 199 247 299 354
#     4  11  23  40  63  90 122 160 200 244 295 351
#     4  10  22  41  62  85 118 158 198 242 294 352
#
# _framework density 19.753086
#
# number of rings (size 3 to 8) (size 9 to 14) (size 15 to 20)
#    0.000    1.333    0.000    5.500    0.000   13.333 
#    0.000    1.667    0.000    0.000    0.000    0.000 
#    0.000    0.000    0.000    0.000    0.000    0.000 
#
# Total GULP energy -268453.895061 kJ/mol
# GULP energy per Si atom -5592.789480 kJ/mol
# Density = 1.970813 g / cm^3
# Si number density = 19.753086 Si / 1000 Ang^3
#
#
#
# Elastic Constant Matrix: (Units=GPa)
#
#
# Indices 1 2 3 4 5 6 
#
# 1 75.3576 26.8155 -4.4012 0.0000 0.0000 0.0000
# 2 26.8155 42.9037 34.5391 0.0000 0.0000 0.0000
# 3 -4.4012 34.5391 49.3974 0.0000 0.0000 0.0000
# 4 0.0000 0.0000 0.0000 28.6089 0.0000 0.0000
# 5 0.0000 0.0000 0.0000 0.0000 33.3395 0.0000
# 6 0.0000 0.0000 0.0000 0.0000 0.0000 24.5633
#
#
#
# Elastic Compliance Matrix: (Units=1/GPa)
#
#
# Indices 1 2 3 4 5 6 
#
# 1 0.036608 -0.058352 0.044062 0.000000 0.000000 0.000000
# 2 -0.058352 0.146336 -0.107519 0.000000 0.000000 0.000000
# 3 0.044062 -0.107519 0.099348 0.000000 0.000000 0.000000
# 4 0.000000 0.000000 0.000000 0.034954 0.000000 0.000000
# 5 0.000000 0.000000 0.000000 0.000000 0.029994 0.000000
# 6 0.000000 0.000000 0.000000 0.000000 0.000000 0.040711
#
#
# Mechanical properties :
#
#
# Convention : Reuss Voigt Hill
#
# Bulk Modulus (GPa) = 25.85706 31.28507 28.57106
# Shear Modulus (GPa) = 7.75844 24.68270 16.22057
#
# Velocity S-wave (km/s) = 1.98399 3.53875 2.86871
# Velocity P-wave (km/s) = 4.28566 5.70696 5.04660
#
# Compressibility (1/GPa) = 0.03867416
#
# Stress axis : x y z
#
# Youngs Moduli (GPa) = 27.31661 6.83359 10.06565
#
# Poissons Ratio (x) = 0.39876 -0.44351
# Poissons Ratio (y) = 1.59399 1.08224
# Poissons Ratio (z) = -1.20363 0.73474
#
# Static dielectric constant tensor:
#      x y z
#    x 1.655740 0.000000 0.000000 
#    y 0.000000 1.661480 0.000000 
#    z 0.000000 0.000000 1.694030 
# 
# From -- ./inp_files/19627.got.cif
#   From: 2010.05.17/outbox.ucp.g08.bks.cvg/sg62_10_cif.got.tgz:19627.got - 2010.06.11 16:29:25.
