data_PCOD9468859
_publ_section_title
;
Structure prediction by ZEFSAII (Michael W. Deem and Ramdas Pophale) SiO2 
 PCOD9468859
Probable space group: C M C M
;
_chemical_formula_sum "Si O2"
_cell_formula_units_Z 80
_cell_length_a 26.084073
_cell_length_b 21.186883
_cell_length_c 8.463840
_cell_angle_alpha 90.000000
_cell_angle_beta 90.000000
_cell_angle_gamma 90.000000
_cell_volume 4677.458254
_symmetry_space_group_name_H-M "C M C M"
_symmetry_group_IT_number 63
_symmetry_cell_setting 'orthorhombic'
loop_
_space_group_symop_operation_xyz
x,y,z
-x,-y,1/2+z
x,-y,-z
-x,y,1/2-z
-x,-y,-z
x,y,1/2-z
-x,y,z
x,-y,1/2+z
1/2+x,1/2+y,z
1/2-x,1/2-y,1/2+z
1/2+x,1/2-y,-z
1/2-x,1/2+y,1/2-z
1/2-x,1/2-y,-z
1/2+x,1/2+y,1/2-z
1/2-x,1/2+y,z
1/2+x,1/2-y,1/2+z
loop_
_atom_site_type_symbol
_atom_site_label
_atom_site_fract_x
_atom_site_fract_y
_atom_site_fract_z
Si Si1 0.500000 0.235707 0.935444
Si Si2 0.889486 0.739107 0.941917
Si Si3 0.109320 0.882866 0.438917
Si Si4 0.281691 0.432535 0.059445
Si Si5 0.000000 0.889311 0.932995
Si Si6 0.218651 0.310438 0.441067
O O1 0.500000 0.218837 0.750000
O O2 0.444999 0.215291 0.001529
O O3 0.500000 0.312380 0.944893
O O4 0.890999 0.740215 0.750000
O O5 0.840239 0.699104 0.991848
O O6 0.884096 0.811439 0.997497
O O7 0.109469 0.880293 0.250000
O O8 0.159508 0.920684 0.493560
O O9 0.054123 0.909141 0.492612
O O10 0.281578 0.432271 0.250000
O O11 0.246449 0.374293 0.005013
O O12 0.263556 0.500000 0.000000
O O13 0.000000 0.906478 0.750000
O O14 0.219659 0.310153 0.250000
O O15 0.250000 0.250000 0.500000
#
# Coordination Sequence:
#
# PCOD9468859 Si02
#       6
#     8  16  16  16   8  16
#     4   7  12  23  39  66  95 118 148 185 227 280
#     4   9  16  27  47  71  98 128 158 195 241 296
#     4  10  18  30  47  69  97 125 160 206 248 288
#     4  10  22  36  49  69  98 130 168 208 250 301
#     4   9  17  29  46  68  93 126 167 201 238 290
#     4  10  19  32  50  74  99 127 164 206 248 297
#
# _framework density 17.103306
#
# number of rings (size 3 to 8) (size 9 to 14) (size 15 to 20)
#    0.000    2.600    2.000    2.100    0.000    2.400 
#    0.000    0.500    0.000    0.000    0.000    0.700 
#    0.000    0.000    0.000    0.000    0.000    0.000 
#
# Total GULP energy -222889.616399 kJ/mol
# GULP energy per Si atom -5572.240410 kJ/mol
# Density = 1.706438 g / cm^3
# Si number density = 17.103306 Si / 1000 Ang^3
#
#
#
# Elastic Constant Matrix: (Units=GPa)
#
#
# Indices 1 2 3 4 5 6 
#
# 1 145.5144 59.5030 17.1257 0.0000 0.0000 0.0000
# 2 59.5030 89.5757 6.5312 0.0000 0.0000 0.0000
# 3 17.1257 6.5312 9.0185 0.0000 0.0000 0.0000
# 4 0.0000 0.0000 0.0000 17.6836 0.0000 0.0000
# 5 0.0000 0.0000 0.0000 0.0000 17.8617 0.0000
# 6 0.0000 0.0000 0.0000 0.0000 0.0000 14.5955
#
#
#
# Elastic Compliance Matrix: (Units=1/GPa)
#
#
# Indices 1 2 3 4 5 6 
#
# 1 0.011515 -0.006392 -0.017236 0.000000 0.000000 0.000000
# 2 -0.006392 0.015335 0.001033 0.000000 0.000000 0.000000
# 3 -0.017236 0.001033 0.142866 0.000000 0.000000 0.000000
# 4 0.000000 0.000000 0.000000 0.056550 0.000000 0.000000
# 5 0.000000 0.000000 0.000000 0.000000 0.055986 0.000000
# 6 0.000000 0.000000 0.000000 0.000000 0.000000 0.068514
#
#
# Mechanical properties :
#
#
# Convention : Reuss Voigt Hill
#
# Bulk Modulus (GPa) = 8.03059 45.60317 26.81688
# Shear Modulus (GPa) = 11.42953 20.75808 16.09381
#
# Velocity S-wave (km/s) = 2.58789 3.48758 3.07086
# Velocity P-wave (km/s) = 3.69257 6.55278 5.31855
#
# Compressibility (1/GPa) = 0.12452378
#
# Stress axis : x y z
#
# Youngs Moduli (GPa) = 86.84660 65.21234 6.99958
#
# Poissons Ratio (x) = 0.41684 0.12065
# Poissons Ratio (y) = 0.55513 -0.00723
# Poissons Ratio (z) = 1.49692 -0.06737
#
# Static dielectric constant tensor:
#      x y z
#    x 1.640340 0.000000 0.000000 
#    y 0.000000 1.548580 0.000000 
#    z 0.000000 0.000000 1.578320 
# 
# From -- ./inp_files/12270.got.cif
#   From: 2010.05.17/outbox.cif.g08.bks.cpg/sg63_7_cif.got.tgz:12270.got - 2010.06.03 15:47:04.
