data_PCOD9468395
_publ_section_title
;
Structure prediction by ZEFSAII (Michael W. Deem and Ramdas Pophale) SiO2 
 PCOD9468395
Probable space group: C M C M
;
_chemical_formula_sum "Si O2"
_cell_formula_units_Z 72
_cell_length_a 22.358260
_cell_length_b 11.071264
_cell_length_c 15.887918
_cell_angle_alpha 90.000000
_cell_angle_beta 90.000000
_cell_angle_gamma 90.000000
_cell_volume 3932.803057
_symmetry_space_group_name_H-M "C M C M"
_symmetry_group_IT_number 63
_symmetry_cell_setting 'orthorhombic'
loop_
_space_group_symop_operation_xyz
x,y,z
-x,-y,1/2+z
x,-y,-z
-x,y,1/2-z
-x,-y,-z
x,y,1/2-z
-x,y,z
x,-y,1/2+z
1/2+x,1/2+y,z
1/2-x,1/2-y,1/2+z
1/2+x,1/2-y,-z
1/2-x,1/2+y,1/2-z
1/2-x,1/2-y,-z
1/2+x,1/2+y,1/2-z
1/2-x,1/2+y,z
1/2+x,1/2-y,1/2+z
loop_
_atom_site_type_symbol
_atom_site_label
_atom_site_fract_x
_atom_site_fract_y
_atom_site_fract_z
Si Si1 0.643975 0.935780 0.590023
Si Si2 0.849198 0.000000 0.500000
Si Si3 0.069924 0.222304 0.516449
Si Si4 0.765082 0.181296 0.087932
Si Si5 0.623760 0.189698 0.657313
O O1 0.594133 0.836607 0.568634
O O2 0.702554 0.866634 0.622833
O O3 0.660317 0.000000 0.500000
O O4 0.622366 0.045370 0.646961
O O5 0.891168 0.104281 0.537797
O O6 0.806159 0.066027 0.433953
O O7 0.085850 0.253518 0.418998
O O8 0.000000 0.203166 0.527341
O O9 0.807548 0.268111 0.141779
O O10 0.750000 0.250000 0.000000
O O11 0.604124 0.226871 0.750000
#
# Coordination Sequence:
#
# PCOD9468395 Si02
#       5
#    16   8  16  16  16
#     4  10  18  32  55  79 105 139 181 227 265 314
#     4  10  17  30  56  82 105 130 176 234 268 308
#     4  10  21  35  55  81 107 144 191 223 261 323
#     4  11  16  32  56  82 108 138 179 223 276 323
#     4  10  22  34  51  81 112 142 178 227 284 325
#
# _framework density 18.307552999999999
#
# number of rings (size 3 to 8) (size 9 to 14) (size 15 to 20)
#    0.000    1.778    7.778    0.333    0.000    5.333 
#    0.000    0.000    0.000    1.333    0.000    0.000 
#    0.000    0.000    0.000    0.000    0.000    0.000 
#
# Total GULP energy -200756.923052 kJ/mol
# GULP energy per Si atom -5576.581196 kJ/mol
# Density = 1.826588 g / cm^3
# Si number density = 18.307553 Si / 1000 Ang^3
#
#
#
# Elastic Constant Matrix: (Units=GPa)
#
#
# Indices 1 2 3 4 5 6 
#
# 1 88.5573 12.8671 9.7830 0.0000 0.0000 0.0000
# 2 12.8671 85.0071 20.2888 0.0000 0.0000 0.0000
# 3 9.7830 20.2888 41.9713 0.0000 0.0000 0.0000
# 4 0.0000 0.0000 0.0000 7.9120 0.0000 0.0000
# 5 0.0000 0.0000 0.0000 0.0000 8.9679 0.0000
# 6 0.0000 0.0000 0.0000 0.0000 0.0000 22.1487
#
#
#
# Elastic Compliance Matrix: (Units=1/GPa)
#
#
# Indices 1 2 3 4 5 6 
#
# 1 0.011710 -0.001267 -0.002117 0.000000 0.000000 0.000000
# 2 -0.001267 0.013435 -0.006199 0.000000 0.000000 0.000000
# 3 -0.002117 -0.006199 0.027316 0.000000 0.000000 0.000000
# 4 0.000000 0.000000 0.000000 0.126391 0.000000 0.000000
# 5 0.000000 0.000000 0.000000 0.000000 0.111509 0.000000
# 6 0.000000 0.000000 0.000000 0.000000 0.000000 0.045149
#
#
# Mechanical properties :
#
#
# Convention : Reuss Voigt Hill
#
# Bulk Modulus (GPa) = 30.03496 33.49039 31.76268
# Shear Modulus (GPa) = 13.66962 19.31217 16.49089
#
# Velocity S-wave (km/s) = 2.73548 3.25141 3.00454
# Velocity P-wave (km/s) = 5.13990 5.69460 5.42434
#
# Compressibility (1/GPa) = 0.03329454
#
# Stress axis : x y z
#
# Youngs Moduli (GPa) = 85.39631 74.43193 36.60877
#
# Poissons Ratio (x) = 0.09432 0.07750
# Poissons Ratio (y) = 0.10822 0.22694
# Poissons Ratio (z) = 0.18078 0.46141
#
# Static dielectric constant tensor:
#      x y z
#    x 1.620260 0.000000 0.000000 
#    y 0.000000 1.648430 0.000000 
#    z 0.000000 0.000000 1.646140 
# 
# From -- ./inp_files/46756.got.cif
#   From: 2010.05.17/outbox.cif.g08.bks.cpg/sg63_24_cif.got.tgz:46756.got - 2010.06.03 15:47:04.
