data_PCOD9469433
_publ_section_title
;
Structure prediction by ZEFSAII (Michael W. Deem and Ramdas Pophale) SiO2 
 PCOD9469433
Probable space group: C M C M
;
_chemical_formula_sum "Si O2"
_cell_formula_units_Z 64
_cell_length_a 15.922499
_cell_length_b 24.447585
_cell_length_c 8.592416
_cell_angle_alpha 90.000000
_cell_angle_beta 90.000000
_cell_angle_gamma 90.000000
_cell_volume 3344.740972
_symmetry_space_group_name_H-M "C M C M"
_symmetry_group_IT_number 63
_symmetry_cell_setting 'orthorhombic'
loop_
_space_group_symop_operation_xyz
x,y,z
-x,-y,1/2+z
x,-y,-z
-x,y,1/2-z
-x,-y,-z
x,y,1/2-z
-x,y,z
x,-y,1/2+z
1/2+x,1/2+y,z
1/2-x,1/2-y,1/2+z
1/2+x,1/2-y,-z
1/2-x,1/2+y,1/2-z
1/2-x,1/2-y,-z
1/2+x,1/2+y,1/2-z
1/2-x,1/2+y,z
1/2+x,1/2-y,1/2+z
loop_
_atom_site_type_symbol
_atom_site_label
_atom_site_fract_x
_atom_site_fract_y
_atom_site_fract_z
Si Si1 0.500000 0.438923 0.934392
Si Si2 0.899620 0.753996 0.564110
Si Si3 0.658137 0.866059 0.439675
Si Si4 0.000000 0.561337 0.938614
Si Si5 0.154414 0.869514 0.435422
O O1 0.500000 0.440894 0.750000
O O2 0.500000 0.500000 0.000000
O O3 0.417878 0.406126 0.989965
O O4 0.885450 0.760142 0.750000
O O5 0.860619 0.696360 0.512184
O O6 0.862668 0.806406 0.478352
O O7 0.000000 0.751914 0.540274
O O8 0.656872 0.865583 0.250000
O O9 0.582973 0.905583 0.490156
O O10 0.751159 0.883655 0.488747
O O11 0.000000 0.560704 0.750000
O O12 0.000000 0.500000 0.000000
O O13 0.149839 0.876039 0.250000
#
# Coordination Sequence:
#
# PCOD9469433 Si02
#       5
#     8  16  16   8  16
#     4  12  26  45  64  83 111 152 198 244 295 348
#     4  10  18  33  59  87 117 157 195 231 284 344
#     4   9  19  36  60  86 117 157 194 231 284 347
#     4  10  20  39  60  81 111 150 194 236 281 338
#     4  11  22  37  59  90 122 152 189 237 290 344
#
# _framework density 19.134515
#
# number of rings (size 3 to 8) (size 9 to 14) (size 15 to 20)
#    0.000    1.750    2.500    2.625    0.000    1.000 
#    0.000    7.500    0.000    0.000    0.000    0.000 
#    0.000    0.000    0.000    0.000    0.000    0.000 
#
# Total GULP energy -178794.909865 kJ/mol
# GULP energy per Si atom -5587.340933 kJ/mol
# Density = 1.909096 g / cm^3
# Si number density = 19.134515 Si / 1000 Ang^3
#
#
#
# Elastic Constant Matrix: (Units=GPa)
#
#
# Indices 1 2 3 4 5 6 
#
# 1 194.6634 100.8420 53.3127 0.0000 0.0000 0.0000
# 2 100.8420 159.7895 33.7880 0.0000 0.0000 0.0000
# 3 53.3127 33.7880 48.1835 0.0000 0.0000 0.0000
# 4 0.0000 0.0000 0.0000 36.7304 0.0000 0.0000
# 5 0.0000 0.0000 0.0000 0.0000 4.4621 0.0000
# 6 0.0000 0.0000 0.0000 0.0000 0.0000 -2.6697
#
#
#
# Elastic Compliance Matrix: (Units=1/GPa)
#
#
# Indices 1 2 3 4 5 6 
#
# 1 0.009426 -0.004395 -0.007348 0.000000 0.000000 0.000000
# 2 -0.004395 0.009397 -0.001727 0.000000 0.000000 0.000000
# 3 -0.007348 -0.001727 0.030094 0.000000 0.000000 0.000000
# 4 0.000000 0.000000 0.000000 0.027225 0.000000 0.000000
# 5 0.000000 0.000000 0.000000 0.000000 0.224112 0.000000
# 6 0.000000 0.000000 0.000000 0.000000 0.000000 -0.374567
#
#
# Mechanical properties :
#
#
# Convention : Reuss Voigt Hill
#
# Bulk Modulus (GPa) = 45.49769 86.50243 66.00006
# Shear Modulus (GPa) = -124.85102 22.01746 -51.41678
#
# Velocity S-wave (km/s) = -8.08646 3.39583 -5.18937
# Velocity P-wave (km/s) = 7.95979 7.78982 1.15694
#
# Compressibility (1/GPa) = 0.02197914
#
# Stress axis : x y z
#
# Youngs Moduli (GPa) = 106.08750 106.41635 33.22872
#
# Poissons Ratio (x) = 0.46771 0.24415
# Poissons Ratio (y) = 0.46627 0.05737
# Poissons Ratio (z) = 0.77949 0.18373
#
# Static dielectric constant tensor:
#      x y z
#    x 1.674200 0.000000 0.000000 
#    y 0.000000 1.626500 0.000000 
#    z 0.000000 0.000000 1.648240 
# 
# From -- ./inp_files/4282.got.cif
#   From: 2010.05.17/outbox.cif.g08.bks.cpg/sg63_3_cif.got.tgz:4282.got - 2010.06.03 15:47:04.
