data_PCOD9469437
_publ_section_title
;
Structure prediction by ZEFSAII (Michael W. Deem and Ramdas Pophale) SiO2 
 PCOD9469437
Probable space group: C M C M
;
_chemical_formula_sum "Si O2"
_cell_formula_units_Z 92
_cell_length_a 14.579868
_cell_length_b 19.496255
_cell_length_c 14.317099
_cell_angle_alpha 90.000000
_cell_angle_beta 90.000000
_cell_angle_gamma 90.000000
_cell_volume 4069.675828
_symmetry_space_group_name_H-M "C M C M"
_symmetry_group_IT_number 63
_symmetry_cell_setting 'orthorhombic'
loop_
_space_group_symop_operation_xyz
x,y,z
-x,-y,1/2+z
x,-y,-z
-x,y,1/2-z
-x,-y,-z
x,y,1/2-z
-x,y,z
x,-y,1/2+z
1/2+x,1/2+y,z
1/2-x,1/2-y,1/2+z
1/2+x,1/2-y,-z
1/2-x,1/2+y,1/2-z
1/2-x,1/2-y,-z
1/2+x,1/2+y,1/2-z
1/2-x,1/2+y,z
1/2+x,1/2-y,1/2+z
loop_
_atom_site_type_symbol
_atom_site_label
_atom_site_fract_x
_atom_site_fract_y
_atom_site_fract_z
Si Si1 0.500000 0.550790 0.250000
Si Si2 0.817677 0.252959 0.138892
Si Si3 0.846652 0.020798 0.403989
Si Si4 0.198875 0.591363 0.638720
Si Si5 0.500000 0.912776 0.363395
Si Si6 0.500000 0.240497 0.953319
Si Si7 0.000000 0.665233 0.139152
Si Si8 0.198862 0.624185 0.140477
O O1 0.419188 0.546913 0.330264
O O2 0.841026 0.253924 0.250000
O O3 0.794976 0.329803 0.105013
O O4 0.732666 0.202155 0.128879
O O5 0.906518 0.225987 0.083360
O O6 0.766082 0.076806 0.417600
O O7 0.892504 0.000000 0.500000
O O8 0.787845 0.954233 0.374811
O O9 0.189784 0.597568 0.750000
O O10 0.100354 0.560150 0.606084
O O11 0.500000 0.914543 0.250000
O O12 0.500000 0.833885 0.400121
O O13 0.500000 0.226306 0.063664
O O14 0.908396 0.622086 0.120706
O O15 0.000000 0.684785 0.250000
O O16 0.211623 0.604902 0.250000
#
# Coordination Sequence:
#
# PCOD9469437 Si02
#       8
#     4  16  16  16   8   8   8  16
#     4  12  26  54  68  90 130 168 228 274 340 378
#     4   9  19  36  68  98 133 169 224 278 333 388
#     4  12  26  44  72  97 127 172 222 274 332 398
#     4   9  17  37  62  97 135 173 210 267 331 388
#     4   8  16  29  58  96 134 160 205 260 327 390
#     4  10  18  33  59  98 131 172 209 285 322 375
#     4  10  24  41  61  90 139 181 223 262 326 406
#     4  10  22  45  67  96 135 180 221 278 328 388
#
# _framework density 22.606224000000001
#
# number of rings (size 3 to 8) (size 9 to 14) (size 15 to 20)
#    0.000    2.087    1.739    2.087    4.870    2.087 
#    0.000    4.348    1.913    0.000    0.000    0.000 
#    0.000    0.000    0.000    0.000    0.000    0.000 
#
# Total GULP energy -256362.454106 kJ/mol
# GULP energy per Si atom -5573.096828 kJ/mol
# Density = 2.255477 g / cm^3
# Si number density = 22.606224 Si / 1000 Ang^3
#
#
#
# Elastic Constant Matrix: (Units=GPa)
#
#
# Indices 1 2 3 4 5 6 
#
# 1 148.6885 20.0422 26.4377 0.0000 0.0000 0.0000
# 2 20.0422 47.0638 10.6953 0.0000 0.0000 0.0000
# 3 26.4377 10.6953 78.1323 0.0000 0.0000 0.0000
# 4 0.0000 0.0000 0.0000 18.9789 0.0000 0.0000
# 5 0.0000 0.0000 0.0000 0.0000 -1.2995 0.0000
# 6 0.0000 0.0000 0.0000 0.0000 0.0000 -18.4047
#
#
#
# Elastic Compliance Matrix: (Units=1/GPa)
#
#
# Indices 1 2 3 4 5 6 
#
# 1 0.007472 -0.002691 -0.002160 0.000000 0.000000 0.000000
# 2 -0.002691 0.022899 -0.002224 0.000000 0.000000 0.000000
# 3 -0.002160 -0.002224 0.013834 0.000000 0.000000 0.000000
# 4 0.000000 0.000000 0.000000 0.052690 0.000000 0.000000
# 5 0.000000 0.000000 0.000000 0.000000 -0.769519 0.000000
# 6 0.000000 0.000000 0.000000 0.000000 0.000000 -0.054334
#
#
# Mechanical properties :
#
#
# Convention : Reuss Voigt Hill
#
# Bulk Modulus (GPa) = 33.27210 43.13722 38.20466
# Shear Modulus (GPa) = -7.11452 14.30224 3.59386
#
# Velocity S-wave (km/s) = -1.77595 2.51802 1.26223
# Velocity P-wave (km/s) = 3.24727 5.25141 4.36590
#
# Compressibility (1/GPa) = 0.03005521
#
# Stress axis : x y z
#
# Youngs Moduli (GPa) = 133.82778 43.66967 72.28498
#
# Poissons Ratio (x) = 0.11752 0.15614
# Poissons Ratio (y) = 0.36016 0.16076
# Poissons Ratio (z) = 0.28907 0.09712
#
# Static dielectric constant tensor:
#      x y z
#    x 1.826610 0.000000 0.000000 
#    y 0.000000 1.846040 0.000000 
#    z 0.000000 0.000000 1.898930 
# 
# From -- ./inp_files/32014.got.cif
#   From: 2010.05.17/outbox.cif.g08.bks.cpg/sg63_17_cif.got.tgz:32014.got - 2010.06.03 15:47:04.
