data_PCOD9469834
_publ_section_title
;
Structure prediction by ZEFSAII (Michael W. Deem and Ramdas Pophale) SiO2 
 PCOD9469834
Probable space group: C M C M
;
_chemical_formula_sum "Si O2"
_cell_formula_units_Z 80
_cell_length_a 19.245247
_cell_length_b 27.235370
_cell_length_c 8.824085
_cell_angle_alpha 90.000000
_cell_angle_beta 90.000000
_cell_angle_gamma 90.000000
_cell_volume 4625.156708
_symmetry_space_group_name_H-M "C M C M"
_symmetry_group_IT_number 63
_symmetry_cell_setting 'orthorhombic'
loop_
_space_group_symop_operation_xyz
x,y,z
-x,-y,1/2+z
x,-y,-z
-x,y,1/2-z
-x,-y,-z
x,y,1/2-z
-x,y,z
x,-y,1/2+z
1/2+x,1/2+y,z
1/2-x,1/2-y,1/2+z
1/2+x,1/2-y,-z
1/2-x,1/2+y,1/2-z
1/2-x,1/2-y,-z
1/2+x,1/2+y,1/2-z
1/2-x,1/2+y,z
1/2+x,1/2-y,1/2+z
loop_
_atom_site_type_symbol
_atom_site_label
_atom_site_fract_x
_atom_site_fract_y
_atom_site_fract_z
Si Si1 0.855387 0.051328 0.069051
Si Si2 0.420760 0.655651 0.432803
Si Si3 0.278464 0.901731 0.067762
Si Si4 0.076694 0.445604 0.432763
Si Si5 0.212634 0.202870 0.569094
O O1 0.855425 0.047742 0.250000
O O2 0.899872 0.099563 0.025077
O O3 0.777698 0.062879 0.009988
O O4 0.880184 0.000000 0.000000
O O5 0.415933 0.658817 0.250000
O O6 0.500000 0.665801 0.477765
O O7 0.363979 0.691770 0.504203
O O8 0.272720 0.907887 0.250000
O O9 0.356775 0.914093 0.020452
O O10 0.256636 0.846181 0.031152
O O11 0.083926 0.500000 0.500000
O O12 0.077887 0.448805 0.250000
O O13 0.000000 0.426651 0.477359
O O14 0.209321 0.207355 0.750000
O O15 0.250000 0.250000 0.500000
#
# Coordination Sequence:
#
# PCOD9469834 Si02
#       5
#    16  16  16  16  16
#     4  10  19  30  47  72 101 133 167 202 242 291
#     4   9  19  36  55  75 101 133 168 206 250 299
#     4   9  18  32  49  69  94 126 165 205 243 290
#     4   9  17  29  45  66  93 124 157 193 234 280
#     4  10  20  35  55  77 100 128 165 207 252 301
#
# _framework density 17.296710999999998
#
# number of rings (size 3 to 8) (size 9 to 14) (size 15 to 20)
#    0.000    2.600    0.000    1.800    0.000    4.800 
#    0.000    1.000    0.000    3.600    0.000    0.000 
#    0.000    0.000    0.000    0.000    0.000    0.000 
#
# Total GULP energy -223059.709827 kJ/mol
# GULP energy per Si atom -5576.492746 kJ/mol
# Density = 1.725734 g / cm^3
# Si number density = 17.296711 Si / 1000 Ang^3
#
#
#
# Elastic Constant Matrix: (Units=GPa)
#
#
# Indices 1 2 3 4 5 6 
#
# 1 163.4996 60.5810 34.3366 0.0000 0.0000 0.0000
# 2 60.5810 91.7086 32.7654 0.0000 0.0000 0.0000
# 3 34.3366 32.7654 21.1601 0.0000 0.0000 0.0000
# 4 0.0000 0.0000 0.0000 29.5397 0.0000 0.0000
# 5 0.0000 0.0000 0.0000 0.0000 24.3084 0.0000
# 6 0.0000 0.0000 0.0000 0.0000 0.0000 13.4108
#
#
#
# Elastic Compliance Matrix: (Units=1/GPa)
#
#
# Indices 1 2 3 4 5 6 
#
# 1 0.009395 -0.001700 -0.012613 0.000000 0.000000 0.000000
# 2 -0.001700 0.024714 -0.035510 0.000000 0.000000 0.000000
# 3 -0.012613 -0.035510 0.122713 0.000000 0.000000 0.000000
# 4 0.000000 0.000000 0.000000 0.033853 0.000000 0.000000
# 5 0.000000 0.000000 0.000000 0.000000 0.041138 0.000000
# 6 0.000000 0.000000 0.000000 0.000000 0.000000 0.074567
#
#
# Mechanical properties :
#
#
# Convention : Reuss Voigt Hill
#
# Bulk Modulus (GPa) = 17.49020 59.08160 38.28590
# Shear Modulus (GPa) = 11.76237 23.36412 17.56324
#
# Velocity S-wave (km/s) = 2.61058 3.67929 3.19001
# Velocity P-wave (km/s) = 4.38413 7.23059 5.97922
#
# Compressibility (1/GPa) = 0.05717487
#
# Stress axis : x y z
#
# Youngs Moduli (GPa) = 106.44034 40.46304 8.14910
#
# Poissons Ratio (x) = 0.06877 0.10279
# Poissons Ratio (y) = 0.18091 0.28938
# Poissons Ratio (z) = 1.34258 1.43686
#
# Static dielectric constant tensor:
#      x y z
#    x 1.596670 0.000000 0.000000 
#    y 0.000000 1.566050 0.000000 
#    z 0.000000 0.000000 1.580270 
# 
# From -- ./inp_files/6361.got.cif
#   From: 2010.05.17/outbox.cif.g08.bks.cpg/sg63_4_cif.got.tgz:6361.got - 2010.06.03 15:47:04.
