data_PCOD9469017
_publ_section_title
;
Structure prediction by ZEFSAII (Michael W. Deem and Ramdas Pophale) SiO2 
 PCOD9469017
Probable space group: C M C M
;
_chemical_formula_sum "Si O2"
_cell_formula_units_Z 68
_cell_length_a 9.787837
_cell_length_b 17.701000
_cell_length_c 17.024893
_cell_angle_alpha 90.000000
_cell_angle_beta 90.000000
_cell_angle_gamma 90.000000
_cell_volume 2949.639371
_symmetry_space_group_name_H-M "C M C M"
_symmetry_group_IT_number 63
_symmetry_cell_setting 'orthorhombic'
loop_
_space_group_symop_operation_xyz
x,y,z
-x,-y,1/2+z
x,-y,-z
-x,y,1/2-z
-x,-y,-z
x,y,1/2-z
-x,y,z
x,-y,1/2+z
1/2+x,1/2+y,z
1/2-x,1/2-y,1/2+z
1/2+x,1/2-y,-z
1/2-x,1/2+y,1/2-z
1/2-x,1/2-y,-z
1/2+x,1/2+y,1/2-z
1/2-x,1/2+y,z
1/2+x,1/2-y,1/2+z
loop_
_atom_site_type_symbol
_atom_site_label
_atom_site_fract_x
_atom_site_fract_y
_atom_site_fract_z
Si Si1 0.234743 0.662745 0.887564
Si Si2 0.500000 0.433738 0.344959
Si Si3 0.500000 0.169286 0.750000
Si Si4 0.500000 0.394654 0.844931
Si Si5 0.783223 0.677415 0.345840
Si Si6 0.500000 0.947417 0.842743
Si Si7 0.000000 0.578274 0.548993
O O1 0.359225 0.605813 0.870885
O O2 0.122694 0.672255 0.817880
O O3 0.306905 0.744635 0.890936
O O4 0.136933 0.628123 0.955183
O O5 0.500000 0.432735 0.250000
O O6 0.500000 0.520062 0.374187
O O7 0.500000 0.399626 0.750000
O O8 0.368578 0.347519 0.865901
O O9 0.799422 0.688817 0.250000
O O10 0.873568 0.604728 0.366290
O O11 0.500000 0.950806 0.750000
O O12 0.500000 0.033938 0.867380
O O13 0.000000 0.500000 0.500000
#
# Coordination Sequence:
#
# PCOD9469017 Si02
#       7
#    16   8   4   8  16   8   8
#     4  11  21  34  61  83 122 158 203 245 310 362
#     4  11  19  32  52  93 120 147 188 252 304 368
#     4  10  18  30  52  90 116 156 186 234 288 376
#     4   9  18  26  43  68 117 146 174 221 292 344
#     4  10  18  32  53  89 118 148 186 247 305 372
#     4  10  22  36  61  91 127 153 197 258 329 366
#     4  11  26  44  60  85 124 173 224 261 299 369
#
# _framework density 23.053666
#
# number of rings (size 3 to 8) (size 9 to 14) (size 15 to 20)
#    0.000    1.647    2.353    3.529    4.941    2.824 
#    0.000    1.765    0.000    0.000    0.000    0.000 
#    0.000    0.000    0.000    0.000    0.000    0.000 
#
# Total GULP energy -189276.852904 kJ/mol
# GULP energy per Si atom -5566.966262 kJ/mol
# Density = 2.300119 g / cm^3
# Si number density = 23.053666 Si / 1000 Ang^3
#
#
#
# Elastic Constant Matrix: (Units=GPa)
#
#
# Indices 1 2 3 4 5 6 
#
# 1 81.6079 -2.3229 1.8991 0.0000 0.0000 0.0000
# 2 -2.3229 147.1732 -0.7491 0.0000 0.0000 0.0000
# 3 1.8991 -0.7491 31.0603 0.0000 0.0000 0.0000
# 4 0.0000 0.0000 0.0000 11.0089 0.0000 0.0000
# 5 0.0000 0.0000 0.0000 0.0000 64.4818 0.0000
# 6 0.0000 0.0000 0.0000 0.0000 0.0000 34.8961
#
#
#
# Elastic Compliance Matrix: (Units=1/GPa)
#
#
# Indices 1 2 3 4 5 6 
#
# 1 0.012276 0.000190 -0.000746 0.000000 0.000000 0.000000
# 2 0.000190 0.006798 0.000152 0.000000 0.000000 0.000000
# 3 -0.000746 0.000152 0.032245 0.000000 0.000000 0.000000
# 4 0.000000 0.000000 0.000000 0.090835 0.000000 0.000000
# 5 0.000000 0.000000 0.000000 0.000000 0.015508 0.000000
# 6 0.000000 0.000000 0.000000 0.000000 0.000000 0.028656
#
#
# Mechanical properties :
#
#
# Convention : Reuss Voigt Hill
#
# Bulk Modulus (GPa) = 19.79717 28.61062 24.20390
# Shear Modulus (GPa) = 24.51406 39.47833 31.99619
#
# Velocity S-wave (km/s) = 3.26444 4.14267 3.72950
# Velocity P-wave (km/s) = 4.77649 5.94304 5.39140
#
# Compressibility (1/GPa) = 0.05051227
#
# Stress axis : x y z
#
# Youngs Moduli (GPa) = 81.45651 147.09150 31.01279
#
# Poissons Ratio (x) = -0.02794 0.02314
# Poissons Ratio (y) = -0.01547 -0.00472
# Poissons Ratio (z) = 0.06077 -0.02241
#
# Static dielectric constant tensor:
#      x y z
#    x 1.612970 0.000000 0.000000 
#    y 0.000000 1.887480 0.000000 
#    z 0.000000 0.000000 1.854870 
# 
# From -- ./inp_files/40035.got.cif
#   From: 2010.05.17/outbox.cif.g08.bks.cpg/sg63_21_cif.got.tgz:40035.got - 2010.06.03 15:47:04.
