data_PCOD9469187
_publ_section_title
;
Structure prediction by ZEFSAII (Michael W. Deem and Ramdas Pophale) SiO2 
 PCOD9469187
Probable space group: C M C M
;
_chemical_formula_sum "Si O2"
_cell_formula_units_Z 64
_cell_length_a 8.150136
_cell_length_b 15.029671
_cell_length_c 25.694664
_cell_angle_alpha 90.000000
_cell_angle_beta 90.000000
_cell_angle_gamma 90.000000
_cell_volume 3147.438644
_symmetry_space_group_name_H-M "C M C M"
_symmetry_group_IT_number 63
_symmetry_cell_setting 'orthorhombic'
loop_
_space_group_symop_operation_xyz
x,y,z
-x,-y,1/2+z
x,-y,-z
-x,y,1/2-z
-x,-y,-z
x,y,1/2-z
-x,y,z
x,-y,1/2+z
1/2+x,1/2+y,z
1/2-x,1/2-y,1/2+z
1/2+x,1/2-y,-z
1/2-x,1/2+y,1/2-z
1/2-x,1/2-y,-z
1/2+x,1/2+y,1/2-z
1/2-x,1/2+y,z
1/2+x,1/2-y,1/2+z
loop_
_atom_site_type_symbol
_atom_site_label
_atom_site_fract_x
_atom_site_fract_y
_atom_site_fract_z
Si Si1 0.195995 0.246215 0.940544
Si Si2 0.799075 0.096288 0.637281
Si Si3 0.810231 0.108787 0.750000
Si Si4 0.804432 0.890975 0.858820
Si Si5 0.810613 0.410744 0.750000
O O1 0.255338 0.158248 0.909832
O O2 0.255571 0.329298 0.906502
O O3 0.000000 0.245142 0.939341
O O4 0.250000 0.250000 0.000000
O O5 0.739171 0.132480 0.693565
O O6 0.000000 0.097172 0.638914
O O7 0.749913 0.993302 0.632092
O O8 0.000000 0.137527 0.750000
O O9 0.799971 0.000254 0.750000
O O10 0.727079 0.861169 0.803750
O O11 0.000000 0.890422 0.853079
O O12 0.000000 0.438398 0.750000
#
# Coordination Sequence:
#
# PCOD9469187 Si02
#       5
#    16  16   8  16   8
#     4  11  23  39  56  80 110 147 192 237 278 328
#     4   8  17  34  58  81 108 144 181 218 274 341
#     4   8  14  31  56  81 106 140 180 219 263 327
#     4  10  20  38  60  83 110 145 183 226 274 328
#     4  10  18  31  54  87 118 144 174 217 271 333
#
# _framework density 20.333994000000001
#
# number of rings (size 3 to 8) (size 9 to 14) (size 15 to 20)
#    0.000    2.500    0.000    4.125    0.000    2.000 
#    0.000   20.000    0.000    0.000    0.000    0.000 
#    0.000    0.000    0.000    0.000    0.000    0.000 
#
# Total GULP energy -178572.074389 kJ/mol
# GULP energy per Si atom -5580.377325 kJ/mol
# Density = 2.028771 g / cm^3
# Si number density = 20.333994 Si / 1000 Ang^3
#
#
#
# Elastic Constant Matrix: (Units=GPa)
#
#
# Indices 1 2 3 4 5 6 
#
# 1 47.1769 13.3804 24.6291 0.0000 0.0000 0.0000
# 2 13.3804 98.8905 86.4194 0.0000 0.0000 0.0000
# 3 24.6291 86.4194 224.9526 0.0000 0.0000 0.0000
# 4 0.0000 0.0000 0.0000 36.3145 0.0000 0.0000
# 5 0.0000 0.0000 0.0000 0.0000 31.4618 0.0000
# 6 0.0000 0.0000 0.0000 0.0000 0.0000 18.8369
#
#
#
# Elastic Compliance Matrix: (Units=1/GPa)
#
#
# Indices 1 2 3 4 5 6 
#
# 1 0.022601 -0.001348 -0.001957 0.000000 0.000000 0.000000
# 2 -0.001348 0.015303 -0.005731 0.000000 0.000000 0.000000
# 3 -0.001957 -0.005731 0.006861 0.000000 0.000000 0.000000
# 4 0.000000 0.000000 0.000000 0.027537 0.000000 0.000000
# 5 0.000000 0.000000 0.000000 0.000000 0.031785 0.000000
# 6 0.000000 0.000000 0.000000 0.000000 0.000000 0.053087
#
#
# Mechanical properties :
#
#
# Convention : Reuss Voigt Hill
#
# Bulk Modulus (GPa) = 37.46298 68.87532 53.16915
# Shear Modulus (GPa) = 27.15263 33.76205 30.45734
#
# Velocity S-wave (km/s) = 3.65818 4.07919 3.87441
# Velocity P-wave (km/s) = 6.02552 7.49212 6.79849
#
# Compressibility (1/GPa) = 0.02669302
#
# Stress axis : x y z
#
# Youngs Moduli (GPa) = 44.24658 65.34577 145.74296
#
# Poissons Ratio (x) = 0.08810 0.28515
# Poissons Ratio (y) = 0.05965 0.83531
# Poissons Ratio (z) = 0.08657 0.37452
#
# Static dielectric constant tensor:
#      x y z
#    x 1.729850 0.000000 0.000000 
#    y 0.000000 1.748000 0.000000 
#    z 0.000000 0.000000 1.764800 
# 
# From -- ./inp_files/59096.got.cif
#   From: 2010.05.17/outbox.cif.g08.bks.cpg/sg63_30_cif.got.tgz:59096.got - 2010.06.03 15:47:04.
