data_PCOD9469018
_publ_section_title
;
Structure prediction by ZEFSAII (Michael W. Deem and Ramdas Pophale) SiO2 
 PCOD9469018
Probable space group: C M C M
;
_chemical_formula_sum "Si O2"
_cell_formula_units_Z 96
_cell_length_a 25.653144
_cell_length_b 14.282191
_cell_length_c 14.906059
_cell_angle_alpha 90.000000
_cell_angle_beta 90.000000
_cell_angle_gamma 90.000000
_cell_volume 5461.328140
_symmetry_space_group_name_H-M "C M C M"
_symmetry_group_IT_number 63
_symmetry_cell_setting 'orthorhombic'
loop_
_space_group_symop_operation_xyz
x,y,z
-x,-y,1/2+z
x,-y,-z
-x,y,1/2-z
-x,-y,-z
x,y,1/2-z
-x,y,z
x,-y,1/2+z
1/2+x,1/2+y,z
1/2-x,1/2-y,1/2+z
1/2+x,1/2-y,-z
1/2-x,1/2+y,1/2-z
1/2-x,1/2-y,-z
1/2+x,1/2+y,1/2-z
1/2-x,1/2+y,z
1/2+x,1/2-y,1/2+z
loop_
_atom_site_type_symbol
_atom_site_label
_atom_site_fract_x
_atom_site_fract_y
_atom_site_fract_z
Si Si1 0.251008 0.102034 0.847409
Si Si2 0.829606 0.597646 0.005561
Si Si3 0.139990 0.197756 0.462698
Si Si4 0.362242 0.401784 0.346405
Si Si5 0.752142 0.174301 0.145298
Si Si6 0.940797 0.947358 0.596790
O O1 0.275393 0.084084 0.750000
O O2 0.195210 0.052669 0.851392
O O3 0.240860 0.213767 0.853542
O O4 0.285997 0.078190 0.930264
O O5 0.796510 0.625697 0.094583
O O6 0.860861 0.500000 0.000000
O O7 0.859485 0.690215 0.971986
O O8 0.135374 0.159110 0.564086
O O9 0.194550 0.168134 0.414076
O O10 0.092169 0.148044 0.412027
O O11 0.364420 0.350832 0.250000
O O12 0.406456 0.479736 0.347762
O O13 0.758373 0.146011 0.250000
O O14 0.000000 0.933634 0.627330
O O15 0.942817 0.000000 0.500000
#
# Coordination Sequence:
#
# PCOD9469018 Si02
#       6
#    16  16  16  16  16  16
#     4   9  17  31  47  69 100 134 171 209 256 309
#     4  11  21  31  48  73 102 140 180 216 250 301
#     4  10  19  36  51  71 105 138 175 212 263 313
#     4  10  18  30  53  76  98 131 171 211 259 317
#     4  10  19  32  49  70  97 138 180 213 253 309
#     4   9  20  35  53  75 101 131 167 213 264 317
#
# _framework density 17.578142
#
# number of rings (size 3 to 8) (size 9 to 14) (size 15 to 20)
#    0.000    2.167    3.333    1.000    2.333    1.667 
#    0.000    0.000    0.000    0.500    0.000    0.000 
#    0.000    0.000    0.000    8.667    0.000    0.000 
#
# Total GULP energy -267330.005379 kJ/mol
# GULP energy per Si atom -5569.375112 kJ/mol
# Density = 1.753813 g / cm^3
# Si number density = 17.578142 Si / 1000 Ang^3
#
#
#
# Elastic Constant Matrix: (Units=GPa)
#
#
# Indices 1 2 3 4 5 6 
#
# 1 87.2134 28.8348 12.3882 0.0000 0.0000 0.0000
# 2 28.8348 108.3040 12.3450 0.0000 0.0000 0.0000
# 3 12.3882 12.3450 84.1485 0.0000 0.0000 0.0000
# 4 0.0000 0.0000 0.0000 14.6098 0.0000 0.0000
# 5 0.0000 0.0000 0.0000 0.0000 4.7274 0.0000
# 6 0.0000 0.0000 0.0000 0.0000 0.0000 23.1474
#
#
#
# Elastic Compliance Matrix: (Units=1/GPa)
#
#
# Indices 1 2 3 4 5 6 
#
# 1 0.012733 -0.003230 -0.001401 0.000000 0.000000 0.000000
# 2 -0.003230 0.010210 -0.001022 0.000000 0.000000 0.000000
# 3 -0.001401 -0.001022 0.012240 0.000000 0.000000 0.000000
# 4 0.000000 0.000000 0.000000 0.068447 0.000000 0.000000
# 5 0.000000 0.000000 0.000000 0.000000 0.211534 0.000000
# 6 0.000000 0.000000 0.000000 0.000000 0.000000 0.043201
#
#
# Mechanical properties :
#
#
# Convention : Reuss Voigt Hill
#
# Bulk Modulus (GPa) = 41.88253 42.97798 42.43025
# Shear Modulus (GPa) = 13.24046 23.57010 18.40528
#
# Velocity S-wave (km/s) = 2.74749 3.66577 3.23933
# Velocity P-wave (km/s) = 5.82607 6.51306 6.17912
#
# Compressibility (1/GPa) = 0.02387630
#
# Stress axis : x y z
#
# Youngs Moduli (GPa) = 78.53524 97.94457 81.69983
#
# Poissons Ratio (x) = 0.31640 0.11443
# Poissons Ratio (y) = 0.25370 0.08352
# Poissons Ratio (z) = 0.11000 0.10012
#
# Static dielectric constant tensor:
#      x y z
#    x 1.588990 0.000000 0.000000 
#    y 0.000000 1.707580 0.000000 
#    z 0.000000 0.000000 1.637710 
# 
# From -- ./inp_files/35298.got.cif
#   From: 2010.05.17/outbox.cif.g08.bks.cpg/sg63_18_cif.got.tgz:35298.got - 2010.06.03 15:47:04.
