data_PCOD9469936
_publ_section_title
;
Structure prediction by ZEFSAII (Michael W. Deem and Ramdas Pophale) SiO2 
 PCOD9469936
Probable space group: C M C M
;
_chemical_formula_sum "Si O2"
_cell_formula_units_Z 80
_cell_length_a 28.754258
_cell_length_b 7.099410
_cell_length_c 13.994987
_cell_angle_alpha 90.000000
_cell_angle_beta 90.000000
_cell_angle_gamma 90.000000
_cell_volume 2856.912390
_symmetry_space_group_name_H-M "C M C M"
_symmetry_group_IT_number 63
_symmetry_cell_setting 'orthorhombic'
loop_
_space_group_symop_operation_xyz
x,y,z
-x,-y,1/2+z
x,-y,-z
-x,y,1/2-z
-x,-y,-z
x,y,1/2-z
-x,y,z
x,-y,1/2+z
1/2+x,1/2+y,z
1/2-x,1/2-y,1/2+z
1/2+x,1/2-y,-z
1/2-x,1/2+y,1/2-z
1/2-x,1/2-y,-z
1/2+x,1/2+y,1/2-z
1/2-x,1/2+y,z
1/2+x,1/2-y,1/2+z
loop_
_atom_site_type_symbol
_atom_site_label
_atom_site_fract_x
_atom_site_fract_y
_atom_site_fract_z
Si Si1 0.702363 0.372764 0.593093
Si Si2 0.000000 0.549089 0.365220
Si Si3 0.500000 0.400822 0.896378
Si Si4 0.398323 0.605043 0.398448
Si Si5 0.196349 0.470274 0.859866
Si Si6 0.401981 0.047982 0.364862
O O1 0.705508 0.500000 0.500000
O O2 0.653610 0.428908 0.643470
O O3 0.753047 0.380288 0.640762
O O4 0.698068 0.151741 0.572757
O O5 0.049103 0.631459 0.400055
O O6 0.000000 0.562535 0.250000
O O7 0.000000 0.328000 0.392786
O O8 0.551334 0.448393 0.853980
O O9 0.500000 0.500000 0.000000
O O10 0.397317 0.500000 0.500000
O O11 0.399850 0.833464 0.402547
O O12 0.189573 0.540169 0.750000
O O13 0.148401 0.361645 0.882939
O O14 0.406244 0.037942 0.250000
#
# Coordination Sequence:
#
# PCOD9469936 Si02
#       6
#    16   8   8  16  16  16
#     4  10  19  31  46  66  91 120 151 184 220 261
#     4   8  12  20  34  54  78 102 128 168 216 252
#     4   8  12  20  34  54  79 106 133 166 208 254
#     4   8  14  23  37  57  82 109 138 171 211 255
#     4  10  19  31  46  66  90 117 148 183 220 262
#     4   8  14  23  37  57  81 105 134 173 215 253
#
# _framework density 28.002258999999999
#
# number of rings (size 3 to 8) (size 9 to 14) (size 15 to 20)
#    0.000    3.200    0.000    1.200    0.000    0.800 
#    0.000    0.000    0.000    0.000    0.000    2.100 
#    0.000    0.000    0.000    0.000    0.000    0.000 
#
# Total GULP energy -223252.891569 kJ/mol
# GULP energy per Si atom -5581.322289 kJ/mol
# Density = 2.793852 g / cm^3
# Si number density = 28.002259 Si / 1000 Ang^3
#
#
#
# Elastic Constant Matrix: (Units=GPa)
#
#
# Indices 1 2 3 4 5 6 
#
# 1 423.4839 22.3141 51.5273 0.0000 0.0000 0.0000
# 2 22.3141 119.8089 4.9821 0.0000 0.0000 0.0000
# 3 51.5273 4.9821 106.4760 0.0000 0.0000 0.0000
# 4 0.0000 0.0000 0.0000 -130.4158 0.0000 0.0000
# 5 0.0000 0.0000 0.0000 0.0000 -4.3564 0.0000
# 6 0.0000 0.0000 0.0000 0.0000 0.0000 14.7562
#
#
#
# Elastic Compliance Matrix: (Units=1/GPa)
#
#
# Indices 1 2 3 4 5 6 
#
# 1 0.002530 -0.000421 -0.001205 0.000000 0.000000 0.000000
# 2 -0.000421 0.008433 -0.000191 0.000000 0.000000 0.000000
# 3 -0.001205 -0.000191 0.009984 0.000000 0.000000 0.000000
# 4 0.000000 0.000000 0.000000 -0.007668 0.000000 0.000000
# 5 0.000000 0.000000 0.000000 0.000000 -0.229546 0.000000
# 6 0.000000 0.000000 0.000000 0.000000 0.000000 0.067768
#
#
# Mechanical properties :
#
#
# Convention : Reuss Voigt Hill
#
# Bulk Modulus (GPa) = 57.75811 89.71287 73.73549
# Shear Modulus (GPa) = -35.94667 14.05983 -10.94342
#
# Velocity S-wave (km/s) = -3.58677 2.24318 -1.97902
# Velocity P-wave (km/s) = 1.87557 6.23028 4.60077
#
# Compressibility (1/GPa) = 0.01731359
#
# Stress axis : x y z
#
# Youngs Moduli (GPa) = 395.23533 118.58183 100.16313
#
# Poissons Ratio (x) = 0.04994 0.12067
# Poissons Ratio (y) = 0.16645 0.01911
# Poissons Ratio (z) = 0.47615 0.02262
#
# Static dielectric constant tensor:
#      x y z
#    x 2.238730 0.000000 0.000000 
#    y 0.000000 2.104850 0.000000 
#    z 0.000000 0.000000 2.330120 
# 
# From -- ./inp_files/37725.got.cif
#   From: 2010.05.17/outbox.cif.g08.bks.cpg/sg63_19_cif.got.tgz:37725.got - 2010.06.03 15:47:04.
