data_PCOD9469745
_publ_section_title
;
Structure prediction by ZEFSAII (Michael W. Deem and Ramdas Pophale) SiO2 
 PCOD9469745
Probable space group: C M C M
;
_chemical_formula_sum "Si O2"
_cell_formula_units_Z 80
_cell_length_a 22.810154
_cell_length_b 24.598525
_cell_length_c 9.772397
_cell_angle_alpha 90.000000
_cell_angle_beta 90.000000
_cell_angle_gamma 90.000000
_cell_volume 5483.254269
_symmetry_space_group_name_H-M "C M C M"
_symmetry_group_IT_number 63
_symmetry_cell_setting 'orthorhombic'
loop_
_space_group_symop_operation_xyz
x,y,z
-x,-y,1/2+z
x,-y,-z
-x,y,1/2-z
-x,-y,-z
x,y,1/2-z
-x,y,z
x,-y,1/2+z
1/2+x,1/2+y,z
1/2-x,1/2-y,1/2+z
1/2+x,1/2-y,-z
1/2-x,1/2+y,1/2-z
1/2-x,1/2-y,-z
1/2+x,1/2+y,1/2-z
1/2-x,1/2+y,z
1/2+x,1/2-y,1/2+z
loop_
_atom_site_type_symbol
_atom_site_label
_atom_site_fract_x
_atom_site_fract_y
_atom_site_fract_z
Si Si1 0.569353 0.415802 0.750000
Si Si2 0.930457 0.239982 0.594852
Si Si3 0.621512 0.376854 0.028238
Si Si4 0.667027 0.215360 0.908352
Si Si5 0.071258 0.043333 0.750000
Si Si6 0.233944 0.832298 0.590033
O O1 0.500000 0.413456 0.750000
O O2 0.593427 0.385667 0.618876
O O3 0.585187 0.479560 0.750000
O O4 0.920400 0.260572 0.750000
O O5 0.904165 0.178970 0.589062
O O6 0.894772 0.273860 0.482441
O O7 0.000000 0.238187 0.569819
O O8 0.599839 0.426291 0.121197
O O9 0.690485 0.370529 0.997730
O O10 0.662504 0.197595 0.750000
O O11 0.700325 0.273930 0.906336
O O12 0.706657 0.177404 0.005573
O O13 0.000000 0.049916 0.750000
O O14 0.241650 0.848621 0.750000
#
# Coordination Sequence:
#
# PCOD9469745 Si02
#       6
#     8  16  16  16   8  16
#     4  11  22  34  46  61  84 112 147 192 235 271
#     4  10  19  30  44  63  89 118 146 177 215 259
#     4  11  20  32  47  64  82 111 151 189 223 264
#     4   9  18  28  44  65  84 108 137 176 217 253
#     4  11  22  34  46  61  84 114 147 188 237 273
#     4   9  17  30  44  61  83 107 139 178 218 259
#
# _framework density 14.589876
#
# number of rings (size 3 to 8) (size 9 to 14) (size 15 to 20)
#    0.000    2.000    2.000    3.000    2.800    4.400 
#    0.000    0.000    0.000    0.000    0.000    0.000 
#    0.000    0.000    0.000    0.000    0.000    6.000 
#
# Total GULP energy -222933.582634 kJ/mol
# GULP energy per Si atom -5573.339566 kJ/mol
# Density = 1.455667 g / cm^3
# Si number density = 14.589876 Si / 1000 Ang^3
#
#
#
# Elastic Constant Matrix: (Units=GPa)
#
#
# Indices 1 2 3 4 5 6 
#
# 1 69.5662 15.1847 39.3733 0.0000 0.0000 0.0000
# 2 15.1847 15.8255 5.4472 0.0000 0.0000 0.0000
# 3 39.3733 5.4472 104.2805 0.0000 0.0000 0.0000
# 4 0.0000 0.0000 0.0000 5.4096 0.0000 0.0000
# 5 0.0000 0.0000 0.0000 0.0000 24.1342 0.0000
# 6 0.0000 0.0000 0.0000 0.0000 0.0000 14.4478
#
#
#
# Elastic Compliance Matrix: (Units=1/GPa)
#
#
# Indices 1 2 3 4 5 6 
#
# 1 0.022930 -0.019370 -0.007646 0.000000 0.000000 0.000000
# 2 -0.019370 0.080709 0.003098 0.000000 0.000000 0.000000
# 3 -0.007646 0.003098 0.012315 0.000000 0.000000 0.000000
# 4 0.000000 0.000000 0.000000 0.184855 0.000000 0.000000
# 5 0.000000 0.000000 0.000000 0.000000 0.041435 0.000000
# 6 0.000000 0.000000 0.000000 0.000000 0.000000 0.069215
#
#
# Mechanical properties :
#
#
# Convention : Reuss Voigt Hill
#
# Bulk Modulus (GPa) = 14.68065 34.40920 24.54492
# Shear Modulus (GPa) = 10.37341 17.44278 13.90810
#
# Velocity S-wave (km/s) = 2.66935 3.46141 3.09086
# Velocity P-wave (km/s) = 4.42545 6.29370 5.44037
#
# Compressibility (1/GPa) = 0.06811688
#
# Stress axis : x y z
#
# Youngs Moduli (GPa) = 43.61020 12.39021 81.20421
#
# Poissons Ratio (x) = 0.24000 0.62089
# Poissons Ratio (y) = 0.84474 -0.25155
# Poissons Ratio (z) = 0.33345 -0.03838
#
# Static dielectric constant tensor:
#      x y z
#    x 1.486730 0.000000 0.000000 
#    y 0.000000 1.460390 0.000000 
#    z 0.000000 0.000000 1.207330 
# 
# From -- ./inp_files/8054.got.cif
#   From: 2010.05.17/outbox.cif.g08.bks.cpg/sg63_5_cif.got.tgz:8054.got - 2010.06.03 15:47:04.
