data_PCOD9469556
_publ_section_title
;
Structure prediction by ZEFSAII (Michael W. Deem and Ramdas Pophale) SiO2 
 PCOD9469556
Probable space group: C M C M
;
_chemical_formula_sum "Si O2"
_cell_formula_units_Z 100
_cell_length_a 15.823460
_cell_length_b 21.112445
_cell_length_c 14.886446
_cell_angle_alpha 90.000000
_cell_angle_beta 90.000000
_cell_angle_gamma 90.000000
_cell_volume 4973.143731
_symmetry_space_group_name_H-M "C M C M"
_symmetry_group_IT_number 63
_symmetry_cell_setting 'orthorhombic'
loop_
_space_group_symop_operation_xyz
x,y,z
-x,-y,1/2+z
x,-y,-z
-x,y,1/2-z
-x,-y,-z
x,y,1/2-z
-x,y,z
x,-y,1/2+z
1/2+x,1/2+y,z
1/2-x,1/2-y,1/2+z
1/2+x,1/2-y,-z
1/2-x,1/2+y,1/2-z
1/2-x,1/2-y,-z
1/2+x,1/2+y,1/2-z
1/2-x,1/2+y,z
1/2+x,1/2-y,1/2+z
loop_
_atom_site_type_symbol
_atom_site_label
_atom_site_fract_x
_atom_site_fract_y
_atom_site_fract_z
Si Si1 0.101122 0.111236 0.853031
Si Si2 0.600600 0.162756 0.149511
Si Si3 0.102235 0.845571 0.853999
Si Si4 0.373426 0.984118 0.601480
Si Si5 0.000000 0.468948 0.250000
Si Si6 0.896766 0.227648 0.977311
Si Si7 0.677985 0.519656 0.358477
O O1 0.131897 0.118737 0.750000
O O2 0.130068 0.168486 0.915486
O O3 0.000000 0.114761 0.850397
O O4 0.125744 0.041816 0.887589
O O5 0.636162 0.174326 0.250000
O O6 0.500000 0.175029 0.155606
O O7 0.609863 0.089350 0.125727
O O8 0.634007 0.208795 0.071739
O O9 0.125314 0.834317 0.750000
O O10 0.142289 0.911989 0.886285
O O11 0.000000 0.852367 0.857610
O O12 0.128318 0.789491 0.921279
O O13 0.273503 0.991886 0.612769
O O14 0.397553 0.000000 0.500000
O O15 0.426552 0.025039 0.671519
O O16 0.000000 0.229853 0.978403
O O17 0.673573 0.521329 0.250000
#
# Coordination Sequence:
#
# PCOD9469556 Si02
#       7
#    16  16  16  16   4  16  16
#     4   9  17  30  50  84 124 159 193 230 278 339
#     4  10  18  36  61  85 111 144 191 243 295 349
#     4   9  18  33  53  78 118 169 208 235 270 331
#     4  12  24  39  66  90 112 144 188 247 302 356
#     4  12  22  48  64  90 110 140 186 246 310 360
#     4   9  18  30  54  84 114 152 195 237 281 338
#     4  10  20  35  55  83 121 158 196 242 291 339
#
# _framework density 20.108006
#
# number of rings (size 3 to 8) (size 9 to 14) (size 15 to 20)
#    0.000    2.080    2.400    1.200    2.240    3.840 
#    0.000    3.200    1.760    0.000    0.000    0.000 
#    0.000    0.000    0.000    0.000    0.000    0.000 
#
# Total GULP energy -278474.108180 kJ/mol
# GULP energy per Si atom -5569.482164 kJ/mol
# Density = 2.006224 g / cm^3
# Si number density = 20.108006 Si / 1000 Ang^3
#
#
#
# Elastic Constant Matrix: (Units=GPa)
#
#
# Indices 1 2 3 4 5 6 
#
# 1 22.8284 -9.1019 4.5349 0.0000 0.0000 0.0000
# 2 -9.1019 10.7841 9.8514 0.0000 0.0000 0.0000
# 3 4.5349 9.8514 91.1759 0.0000 0.0000 0.0000
# 4 0.0000 0.0000 0.0000 60.9327 0.0000 0.0000
# 5 0.0000 0.0000 0.0000 0.0000 6.6383 0.0000
# 6 0.0000 0.0000 0.0000 0.0000 0.0000 -98.5986
#
#
#
# Elastic Compliance Matrix: (Units=1/GPa)
#
#
# Indices 1 2 3 4 5 6 
#
# 1 0.076121 0.075120 -0.011903 0.000000 0.000000 0.000000
# 2 0.075120 0.177016 -0.022862 0.000000 0.000000 0.000000
# 3 -0.011903 -0.022862 0.014030 0.000000 0.000000 0.000000
# 4 0.000000 0.000000 0.000000 0.016412 0.000000 0.000000
# 5 0.000000 0.000000 0.000000 0.000000 0.150640 0.000000
# 6 0.000000 0.000000 0.000000 0.000000 0.000000 -0.010142
#
#
# Mechanical properties :
#
#
# Convention : Reuss Voigt Hill
#
# Bulk Modulus (GPa) = 2.87459 15.03968 8.95713
# Shear Modulus (GPa) = 10.88553 1.76142 6.32347
#
# Velocity S-wave (km/s) = 2.32922 0.93695 1.77527
# Velocity P-wave (km/s) = 2.94387 2.94384 2.94386
#
# Compressibility (1/GPa) = 0.34787609
#
# Stress axis : x y z
#
# Youngs Moduli (GPa) = 13.13703 5.64921 71.27551
#
# Poissons Ratio (x) = -0.42437 0.84837
# Poissons Ratio (y) = -0.98685 1.62954
# Poissons Ratio (z) = 0.15637 0.12915
#
# Static dielectric constant tensor:
#      x y z
#    x 1.734080 0.000000 0.000000 
#    y 0.000000 1.706860 0.000000 
#    z 0.000000 0.000000 1.753220 
# 
# From -- ./inp_files/34190.got.cif
#   From: 2010.05.17/outbox.cif.g08.bks.cpg/sg63_18_cif.got.tgz:34190.got - 2010.06.03 15:47:04.
