data_PCOD9469303
_publ_section_title
;
Structure prediction by ZEFSAII (Michael W. Deem and Ramdas Pophale) SiO2 
 PCOD9469303
Probable space group: C M C M
;
_chemical_formula_sum "Si O2"
_cell_formula_units_Z 80
_cell_length_a 11.321761
_cell_length_b 28.120996
_cell_length_c 14.373668
_cell_angle_alpha 90.000000
_cell_angle_beta 90.000000
_cell_angle_gamma 90.000000
_cell_volume 4576.276858
_symmetry_space_group_name_H-M "C M C M"
_symmetry_group_IT_number 63
_symmetry_cell_setting 'orthorhombic'
loop_
_space_group_symop_operation_xyz
x,y,z
-x,-y,1/2+z
x,-y,-z
-x,y,1/2-z
-x,-y,-z
x,y,1/2-z
-x,y,z
x,-y,1/2+z
1/2+x,1/2+y,z
1/2-x,1/2-y,1/2+z
1/2+x,1/2-y,-z
1/2-x,1/2+y,1/2-z
1/2-x,1/2-y,-z
1/2+x,1/2+y,1/2-z
1/2-x,1/2+y,z
1/2+x,1/2-y,1/2+z
loop_
_atom_site_type_symbol
_atom_site_label
_atom_site_fract_x
_atom_site_fract_y
_atom_site_fract_z
Si Si1 0.357951 0.821938 0.750000
Si Si2 0.500000 0.944067 0.991915
Si Si3 0.000000 0.628808 0.860055
Si Si4 0.270123 0.106224 0.095236
Si Si5 0.640757 0.455138 0.750000
Si Si6 0.263777 0.640987 0.898672
Si Si7 0.143292 0.067444 0.750000
Si Si8 0.359686 0.286567 0.250000
O O1 0.500000 0.822350 0.750000
O O2 0.313464 0.850965 0.839321
O O3 0.315342 0.767501 0.750000
O O4 0.384163 0.923055 0.941404
O O5 0.500000 0.923465 0.096217
O O6 0.500000 0.000000 0.000000
O O7 0.877171 0.650522 0.894882
O O8 0.000000 0.629175 0.750000
O O9 0.193384 0.071177 0.159409
O O10 0.206418 0.128606 0.004891
O O11 0.500000 0.450623 0.750000
O O12 0.669222 0.511395 0.750000
O O13 0.299517 0.594590 0.837959
O O14 0.321100 0.684189 0.841689
O O15 0.000000 0.074156 0.750000
O O16 0.500000 0.285207 0.250000
#
# Coordination Sequence:
#
# PCOD9469303 Si02
#       8
#     8   8   8  16   8  16   8   8
#     4  10  20  41  58  81 112 148 184 233 290 335
#     4  10  22  33  56  92 113 146 194 221 281 346
#     4  10  18  32  53  81 120 140 166 238 285 334
#     4  10  22  38  60  80 119 147 184 239 281 332
#     4  10  24  38  53  78 113 162 193 218 275 342
#     4  10  20  35  57  87 110 140 184 236 286 327
#     4  10  21  36  54  81 114 147 192 227 266 327
#     4  10  21  36  62  83 106 145 194 229 278 347
#
# _framework density 17.481459999999998
#
# number of rings (size 3 to 8) (size 9 to 14) (size 15 to 20)
#    0.000    2.000    3.000    1.200    5.600    2.400 
#    1.800    2.000    8.800    0.000    0.000    0.000 
#    0.000    0.000    0.000    0.000    0.000    0.000 
#
# Total GULP energy -222987.899661 kJ/mol
# GULP energy per Si atom -5574.697492 kJ/mol
# Density = 1.744167 g / cm^3
# Si number density = 17.481460 Si / 1000 Ang^3
#
#
#
# Elastic Constant Matrix: (Units=GPa)
#
#
# Indices 1 2 3 4 5 6 
#
# 1 60.6262 30.6694 12.1187 0.0000 0.0000 0.0000
# 2 30.6694 148.2726 55.1058 0.0000 0.0000 0.0000
# 3 12.1187 55.1058 129.3415 0.0000 0.0000 0.0000
# 4 0.0000 0.0000 0.0000 11.1190 0.0000 0.0000
# 5 0.0000 0.0000 0.0000 0.0000 20.7365 0.0000
# 6 0.0000 0.0000 0.0000 0.0000 0.0000 -20.5282
#
#
#
# Elastic Compliance Matrix: (Units=1/GPa)
#
#
# Indices 1 2 3 4 5 6 
#
# 1 0.018424 -0.003766 -0.000122 0.000000 0.000000 0.000000
# 2 -0.003766 0.008783 -0.003389 0.000000 0.000000 0.000000
# 3 -0.000122 -0.003389 0.009187 0.000000 0.000000 0.000000
# 4 0.000000 0.000000 0.000000 0.089936 0.000000 0.000000
# 5 0.000000 0.000000 0.000000 0.000000 0.048224 0.000000
# 6 0.000000 0.000000 0.000000 0.000000 0.000000 -0.048713
#
#
# Mechanical properties :
#
#
# Convention : Reuss Voigt Hill
#
# Bulk Modulus (GPa) = 45.78692 59.33645 52.56168
# Shear Modulus (GPa) = 33.85843 18.28853 26.07348
#
# Velocity S-wave (km/s) = 4.40571 3.23796 3.86618
# Velocity P-wave (km/s) = 7.22003 6.92787 7.07546
#
# Compressibility (1/GPa) = 0.02184030
#
# Stress axis : x y z
#
# Youngs Moduli (GPa) = 54.27759 113.85919 108.85173
#
# Poissons Ratio (x) = 0.42874 0.01327
# Poissons Ratio (y) = 0.20439 0.36891
# Poissons Ratio (z) = 0.00662 0.38588
#
# Static dielectric constant tensor:
#      x y z
#    x 1.608630 0.000000 0.000000 
#    y 0.000000 1.573280 0.000000 
#    z 0.000000 0.000000 1.601740 
# 
# From -- ./inp_files/30099.got.cif
#   From: 2010.05.17/outbox.cif.g08.bks.cpg/sg63_16_cif.got.tgz:30099.got - 2010.06.03 15:47:04.
