data_PCOD9469040
_publ_section_title
;
Structure prediction by ZEFSAII (Michael W. Deem and Ramdas Pophale) SiO2 
 PCOD9469040
Probable space group: C M C M
;
_chemical_formula_sum "Si O2"
_cell_formula_units_Z 112
_cell_length_a 27.127176
_cell_length_b 10.973984
_cell_length_c 22.824060
_cell_angle_alpha 90.000000
_cell_angle_beta 90.000000
_cell_angle_gamma 90.000000
_cell_volume 6794.567353
_symmetry_space_group_name_H-M "C M C M"
_symmetry_group_IT_number 63
_symmetry_cell_setting 'orthorhombic'
loop_
_space_group_symop_operation_xyz
x,y,z
-x,-y,1/2+z
x,-y,-z
-x,y,1/2-z
-x,-y,-z
x,y,1/2-z
-x,y,z
x,-y,1/2+z
1/2+x,1/2+y,z
1/2-x,1/2-y,1/2+z
1/2+x,1/2-y,-z
1/2-x,1/2+y,1/2-z
1/2-x,1/2-y,-z
1/2+x,1/2+y,1/2-z
1/2-x,1/2+y,z
1/2+x,1/2-y,1/2+z
loop_
_atom_site_type_symbol
_atom_site_label
_atom_site_fract_x
_atom_site_fract_y
_atom_site_fract_z
Si Si1 0.156056 0.644992 0.317129
Si Si2 0.861848 0.227886 0.029766
Si Si3 0.310450 0.065007 0.898886
Si Si4 0.729638 0.722141 0.183008
Si Si5 0.876622 0.159087 0.599799
Si Si6 0.556165 0.552897 0.433447
Si Si7 0.707410 0.535555 0.085497
O O1 0.143472 0.614725 0.250000
O O2 0.158268 0.530278 0.360844
O O3 0.211816 0.698906 0.317046
O O4 0.123232 0.749259 0.346449
O O5 0.841722 0.353147 0.056336
O O6 0.907785 0.169332 0.065290
O O7 0.818649 0.126069 0.039126
O O8 0.877416 0.231510 0.962018
O O9 0.285492 0.157849 0.852321
O O10 0.263926 0.996377 0.928081
O O11 0.712823 0.727567 0.250000
O O12 0.707417 0.610255 0.146403
O O13 0.918837 0.056695 0.602345
O O14 0.825870 0.082620 0.595014
O O15 0.556879 0.500000 0.500000
O O16 0.500000 0.579184 0.417203
#
# Coordination Sequence:
#
# PCOD9469040 Si02
#       7
#    16  16  16  16  16  16  16
#     4  10  20  31  44  63  91 129 167 199 230 272
#     4   9  19  31  46  70 100 123 159 197 231 297
#     4  10  18  31  43  65  97 136 163 191 231 275
#     4   9  17  29  43  59  85 128 178 207 220 258
#     4  10  18  32  46  71  97 119 158 197 239 291
#     4   8  15  31  56  77  95 118 148 196 247 282
#     4   9  17  29  41  63  94 129 156 190 237 273
#
# _framework density 16.483757000000001
#
# number of rings (size 3 to 8) (size 9 to 14) (size 15 to 20)
#    0.000    2.714    1.429    1.714    0.000    2.286 
#    5.143    0.000    0.000    1.286    0.000    4.000 
#    0.000    0.000    0.000    0.000    0.000    0.000 
#
# Total GULP energy -312101.938511 kJ/mol
# GULP energy per Si atom -5573.248902 kJ/mol
# Density = 1.644624 g / cm^3
# Si number density = 16.483757 Si / 1000 Ang^3
#
#
#
# Elastic Constant Matrix: (Units=GPa)
#
#
# Indices 1 2 3 4 5 6 
#
# 1 70.6606 21.5389 16.5577 0.0000 0.0000 0.0000
# 2 21.5389 54.0667 12.8792 0.0000 0.0000 0.0000
# 3 16.5577 12.8792 48.6428 0.0000 0.0000 0.0000
# 4 0.0000 0.0000 0.0000 14.9733 0.0000 0.0000
# 5 0.0000 0.0000 0.0000 0.0000 8.6153 0.0000
# 6 0.0000 0.0000 0.0000 0.0000 0.0000 10.2915
#
#
#
# Elastic Compliance Matrix: (Units=1/GPa)
#
#
# Indices 1 2 3 4 5 6 
#
# 1 0.016888 -0.005719 -0.004234 0.000000 0.000000 0.000000
# 2 -0.005719 0.021677 -0.003793 0.000000 0.000000 0.000000
# 3 -0.004234 -0.003793 0.023004 0.000000 0.000000 0.000000
# 4 0.000000 0.000000 0.000000 0.066786 0.000000 0.000000
# 5 0.000000 0.000000 0.000000 0.000000 0.116072 0.000000
# 6 0.000000 0.000000 0.000000 0.000000 0.000000 0.097167
#
#
# Mechanical properties :
#
#
# Convention : Reuss Voigt Hill
#
# Bulk Modulus (GPa) = 29.34570 30.59129 29.96849
# Shear Modulus (GPa) = 13.14252 14.93565 14.03909
#
# Velocity S-wave (km/s) = 2.82672 3.01339 2.92154
# Velocity P-wave (km/s) = 5.33809 5.54131 5.44065
#
# Compressibility (1/GPa) = 0.03407654
#
# Stress axis : x y z
#
# Youngs Moduli (GPa) = 59.21493 46.13084 43.47157
#
# Poissons Ratio (x) = 0.26382 0.18407
# Poissons Ratio (y) = 0.33865 0.16488
# Poissons Ratio (z) = 0.25073 0.17497
#
# Static dielectric constant tensor:
#      x y z
#    x 1.546850 0.000000 0.000000 
#    y 0.000000 1.567160 0.000000 
#    z 0.000000 0.000000 1.573890 
# 
# From -- ./inp_files/65529.got.cif
#   From: 2010.05.17/outbox.cif.g08.bks.cpg/sg63_33_cif.got.tgz:65529.got - 2010.06.03 15:47:04.
