data_PCOD9469592
_publ_section_title
;
Structure prediction by ZEFSAII (Michael W. Deem and Ramdas Pophale) SiO2 
 PCOD9469592
Probable space group: C M C M
;
_chemical_formula_sum "Si O2"
_cell_formula_units_Z 64
_cell_length_a 22.018641
_cell_length_b 9.388340
_cell_length_c 17.277370
_cell_angle_alpha 90.000000
_cell_angle_beta 90.000000
_cell_angle_gamma 90.000000
_cell_volume 3571.551804
_symmetry_space_group_name_H-M "C M C M"
_symmetry_group_IT_number 63
_symmetry_cell_setting 'orthorhombic'
loop_
_space_group_symop_operation_xyz
x,y,z
-x,-y,1/2+z
x,-y,-z
-x,y,1/2-z
-x,-y,-z
x,y,1/2-z
-x,y,z
x,-y,1/2+z
1/2+x,1/2+y,z
1/2-x,1/2-y,1/2+z
1/2+x,1/2-y,-z
1/2-x,1/2+y,1/2-z
1/2-x,1/2-y,-z
1/2+x,1/2+y,1/2-z
1/2-x,1/2+y,z
1/2+x,1/2-y,1/2+z
loop_
_atom_site_type_symbol
_atom_site_label
_atom_site_fract_x
_atom_site_fract_y
_atom_site_fract_z
Si Si1 0.786293 0.939928 0.163738
Si Si2 0.597422 0.479589 0.250000
Si Si3 0.000000 0.275749 0.750000
Si Si4 0.604283 0.000000 0.000000
Si Si5 0.500000 0.970176 0.124402
Si Si6 0.214491 0.332561 0.933050
Si Si7 0.500000 0.274396 0.750000
O O1 0.757922 0.953404 0.250000
O O2 0.856165 0.984912 0.177552
O O3 0.750795 0.032161 0.100720
O O4 0.789025 0.777469 0.137440
O O5 0.557333 0.334498 0.250000
O O6 0.556326 0.618172 0.250000
O O7 0.000000 0.384657 0.823479
O O8 0.559415 0.036663 0.929657
O O9 0.650037 0.879979 0.967716
O O10 0.500000 0.832244 0.178176
O O11 0.250000 0.250000 0.000000
#
# Coordination Sequence:
#
# PCOD9469592 Si02
#       7
#    16   8   4   8   8  16   4
#     4  10  23  39  61  95 124 169 208 258 317 381
#     4   9  22  36  66  90 124 151 214 266 318 363
#     4  10  18  46  64  88 120 168 220 268 312 360
#     4  11  24  40  64  90 132 163 216 248 334 383
#     4  10  24  42  66  90 118 172 214 268 303 383
#     4  12  22  41  61  94 135 167 202 259 323 386
#     4  10  22  42  64  92 116 160 220 276 304 356
#
# _framework density 17.919381999999999
#
# number of rings (size 3 to 8) (size 9 to 14) (size 15 to 20)
#    0.750    0.750    2.500    2.250    3.500    0.000 
#    4.500    0.000    0.000    4.500    0.000    0.000 
#    0.000    0.000    0.000    0.000    0.000    0.000 
#
# Total GULP energy -178279.440969 kJ/mol
# GULP energy per Si atom -5571.232530 kJ/mol
# Density = 1.787860 g / cm^3
# Si number density = 17.919382 Si / 1000 Ang^3
#
#
#
# Elastic Constant Matrix: (Units=GPa)
#
#
# Indices 1 2 3 4 5 6 
#
# 1 122.5862 57.8296 45.3334 0.0000 0.0000 0.0000
# 2 57.8296 128.9516 53.6253 0.0000 0.0000 0.0000
# 3 45.3334 53.6253 99.3713 0.0000 0.0000 0.0000
# 4 0.0000 0.0000 0.0000 37.8682 0.0000 0.0000
# 5 0.0000 0.0000 0.0000 0.0000 19.3855 0.0000
# 6 0.0000 0.0000 0.0000 0.0000 0.0000 11.7741
#
#
#
# Elastic Compliance Matrix: (Units=1/GPa)
#
#
# Indices 1 2 3 4 5 6 
#
# 1 0.011016 -0.003675 -0.003042 0.000000 0.000000 0.000000
# 2 -0.003675 0.011225 -0.004381 0.000000 0.000000 0.000000
# 3 -0.003042 -0.004381 0.013815 0.000000 0.000000 0.000000
# 4 0.000000 0.000000 0.000000 0.026407 0.000000 0.000000
# 5 0.000000 0.000000 0.000000 0.000000 0.051585 0.000000
# 6 0.000000 0.000000 0.000000 0.000000 0.000000 0.084932
#
#
# Mechanical properties :
#
#
# Convention : Reuss Voigt Hill
#
# Bulk Modulus (GPa) = 72.15153 73.83174 72.99163
# Shear Modulus (GPa) = 22.14371 26.74694 24.44533
#
# Velocity S-wave (km/s) = 3.51912 3.86764 3.69749
# Velocity P-wave (km/s) = 7.54084 7.82538 7.68442
#
# Compressibility (1/GPa) = 0.01385972
#
# Stress axis : x y z
#
# Youngs Moduli (GPa) = 90.77379 89.08841 72.38366
#
# Poissons Ratio (x) = 0.32742 0.22022
# Poissons Ratio (y) = 0.33361 0.31710
# Poissons Ratio (z) = 0.27617 0.39028
#
# Static dielectric constant tensor:
#      x y z
#    x 1.607920 0.000000 0.000000 
#    y 0.000000 1.607780 0.000000 
#    z 0.000000 0.000000 1.634650 
# 
# From -- ./inp_files/47767.got.cif
#   From: 2010.05.17/outbox.cif.g08.bks.cpg/sg63_24_cif.got.tgz:47767.got - 2010.06.03 15:47:04.
