data_PCOD9469625
_publ_section_title
;
Structure prediction by ZEFSAII (Michael W. Deem and Ramdas Pophale) SiO2 
 PCOD9469625
Probable space group: C M C M
;
_chemical_formula_sum "Si O2"
_cell_formula_units_Z 96
_cell_length_a 9.895222
_cell_length_b 14.434047
_cell_length_c 31.624489
_cell_angle_alpha 90.000000
_cell_angle_beta 90.000000
_cell_angle_gamma 90.000000
_cell_volume 4516.865659
_symmetry_space_group_name_H-M "C M C M"
_symmetry_group_IT_number 63
_symmetry_cell_setting 'orthorhombic'
loop_
_space_group_symop_operation_xyz
x,y,z
-x,-y,1/2+z
x,-y,-z
-x,y,1/2-z
-x,-y,-z
x,y,1/2-z
-x,y,z
x,-y,1/2+z
1/2+x,1/2+y,z
1/2-x,1/2-y,1/2+z
1/2+x,1/2-y,-z
1/2-x,1/2+y,1/2-z
1/2-x,1/2-y,-z
1/2+x,1/2+y,1/2-z
1/2-x,1/2+y,z
1/2+x,1/2-y,1/2+z
loop_
_atom_site_type_symbol
_atom_site_label
_atom_site_fract_x
_atom_site_fract_y
_atom_site_fract_z
Si Si1 0.649550 0.576540 0.702070
Si Si2 0.844261 0.907025 0.055255
Si Si3 0.655752 0.799474 0.703922
Si Si4 0.346974 0.154741 0.387971
Si Si5 0.849358 0.439258 0.127538
Si Si6 0.344281 0.369636 0.961552
O O1 0.666354 0.542677 0.750000
O O2 0.500000 0.547136 0.686381
O O3 0.648928 0.688195 0.704081
O O4 0.770654 0.551723 0.671517
O O5 0.746594 0.886997 0.094370
O O6 0.000000 0.882541 0.064029
O O7 0.844378 0.019037 0.047901
O O8 0.802189 0.862441 0.010591
O O9 0.714042 0.827498 0.750000
O O10 0.500000 0.834939 0.702853
O O11 0.716015 0.824468 0.658317
O O12 0.500000 0.194006 0.389841
O O13 0.254242 0.177616 0.427899
O O14 0.361414 0.043806 0.389108
O O15 0.000000 0.399870 0.131816
O O16 0.500000 0.338543 0.957379
#
# Coordination Sequence:
#
# PCOD9469625 Si02
#       6
#    16  16  16  16  16  16
#     4   9  18  33  51  66  83 116 158 190 216 257
#     4   8  14  26  43  62  88 123 156 181 211 259
#     4   8  15  30  50  67  84 114 156 189 214 259
#     4   9  17  28  45  70  95 118 145 182 228 270
#     4  10  19  28  43  71 100 120 141 180 232 272
#     4   8  14  25  42  64  90 120 151 183 219 259
#
# _framework density 21.253675000000001
#
# number of rings (size 3 to 8) (size 9 to 14) (size 15 to 20)
#    0.000    3.333    0.000    2.500    0.000    2.333 
#    0.000    5.833    0.000    2.500    0.000    0.000 
#    0.000    0.000    0.000    0.000    0.000    0.000 
#
# Total GULP energy -267528.776088 kJ/mol
# GULP energy per Si atom -5573.516169 kJ/mol
# Density = 2.120530 g / cm^3
# Si number density = 21.253675 Si / 1000 Ang^3
#
#
#
# Elastic Constant Matrix: (Units=GPa)
#
#
# Indices 1 2 3 4 5 6 
#
# 1 108.8734 -7.2944 85.7533 0.0000 0.0000 0.0000
# 2 -7.2944 37.5254 -0.6206 0.0000 0.0000 0.0000
# 3 85.7533 -0.6206 135.1950 0.0000 0.0000 0.0000
# 4 0.0000 0.0000 0.0000 24.3106 0.0000 0.0000
# 5 0.0000 0.0000 0.0000 0.0000 33.3658 0.0000
# 6 0.0000 0.0000 0.0000 0.0000 0.0000 -6.4835
#
#
#
# Elastic Compliance Matrix: (Units=1/GPa)
#
#
# Indices 1 2 3 4 5 6 
#
# 1 0.018793 0.003456 -0.011904 0.000000 0.000000 0.000000
# 2 0.003456 0.027286 -0.002067 0.000000 0.000000 0.000000
# 3 -0.011904 -0.002067 0.014938 0.000000 0.000000 0.000000
# 4 0.000000 0.000000 0.000000 0.041134 0.000000 0.000000
# 5 0.000000 0.000000 0.000000 0.000000 0.029971 0.000000
# 6 0.000000 0.000000 0.000000 0.000000 0.000000 -0.154237
#
#
# Mechanical properties :
#
#
# Convention : Reuss Voigt Hill
#
# Bulk Modulus (GPa) = 25.00812 48.58558 36.79685
# Shear Modulus (GPa) = 408.33461 23.82229 216.07845
#
# Velocity S-wave (km/s) = 13.87593 3.35155 10.09391
# Velocity P-wave (km/s) = 16.38639 6.15521 12.37741
#
# Compressibility (1/GPa) = 0.03998702
#
# Stress axis : x y z
#
# Youngs Moduli (GPa) = 53.21158 36.64844 66.94303
#
# Poissons Ratio (x) = -0.12666 0.79691
# Poissons Ratio (y) = -0.18391 0.13837
# Poissons Ratio (z) = 0.63345 0.07575
#
# Static dielectric constant tensor:
#      x y z
#    x 1.766200 0.000000 0.000000 
#    y 0.000000 1.815140 0.000000 
#    z 0.000000 0.000000 1.792820 
# 
# From -- ./inp_files/67225.got.cif
#   From: 2010.05.17/outbox.cif.g08.bks.cpg/sg63_34_cif.got.tgz:67225.got - 2010.06.03 15:47:04.
