data_PCOD9469914
_publ_section_title
;
Structure prediction by ZEFSAII (Michael W. Deem and Ramdas Pophale) SiO2 
 PCOD9469914
Probable space group: C M C M
;
_chemical_formula_sum "Si O2"
_cell_formula_units_Z 80
_cell_length_a 7.691295
_cell_length_b 27.521156
_cell_length_c 22.308469
_cell_angle_alpha 90.000000
_cell_angle_beta 90.000000
_cell_angle_gamma 90.000000
_cell_volume 4722.107910
_symmetry_space_group_name_H-M "C M C M"
_symmetry_group_IT_number 63
_symmetry_cell_setting 'orthorhombic'
loop_
_space_group_symop_operation_xyz
x,y,z
-x,-y,1/2+z
x,-y,-z
-x,y,1/2-z
-x,-y,-z
x,y,1/2-z
-x,y,z
x,-y,1/2+z
1/2+x,1/2+y,z
1/2-x,1/2-y,1/2+z
1/2+x,1/2-y,-z
1/2-x,1/2+y,1/2-z
1/2-x,1/2-y,-z
1/2+x,1/2+y,1/2-z
1/2-x,1/2+y,z
1/2+x,1/2-y,1/2+z
loop_
_atom_site_type_symbol
_atom_site_label
_atom_site_fract_x
_atom_site_fract_y
_atom_site_fract_z
Si Si1 0.790182 0.525230 0.094836
Si Si2 0.801239 0.274647 0.598273
Si Si3 0.298168 0.682129 0.975933
Si Si4 0.500000 0.317198 0.679111
Si Si5 0.500000 0.566707 0.179324
Si Si6 0.708206 0.926242 0.467667
O O1 0.671030 0.544566 0.147898
O O2 0.743886 0.469696 0.077266
O O3 0.000000 0.528379 0.104705
O O4 0.747023 0.556291 0.034947
O O5 0.796532 0.308648 0.538898
O O6 0.742249 0.221985 0.572852
O O7 0.668878 0.294996 0.646773
O O8 0.000000 0.271632 0.619880
O O9 0.500000 0.693043 0.988211
O O10 0.280336 0.626917 0.955442
O O11 0.500000 0.307444 0.750000
O O12 0.500000 0.375252 0.669945
O O13 0.500000 0.557036 0.250000
O O14 0.500000 0.923085 0.465888
#
# Coordination Sequence:
#
# PCOD9469914 Si02
#       6
#    16  16  16   8   8  16
#     4   9  20  36  52  80 114 139 172 220 267 322
#     4  10  21  36  53  80 115 144 176 223 274 319
#     4  10  19  30  53  87 114 141 175 218 274 331
#     4  11  24  40  57  79 107 144 190 226 263 324
#     4  11  24  37  55  79 101 144 190 220 265 311
#     4   9  18  31  53  84 111 141 172 209 276 331
#
# _framework density 16.941586999999998
#
# number of rings (size 3 to 8) (size 9 to 14) (size 15 to 20)
#    0.000    2.200    1.000    3.000    5.600    4.000 
#    0.000    2.000    0.000    1.200    0.000    0.000 
#    0.000    0.000    0.000    0.000    0.000    0.000 
#
# Total GULP energy -223198.862420 kJ/mol
# GULP energy per Si atom -5579.971560 kJ/mol
# Density = 1.690303 g / cm^3
# Si number density = 16.941587 Si / 1000 Ang^3
#
#
#
# Elastic Constant Matrix: (Units=GPa)
#
#
# Indices 1 2 3 4 5 6 
#
# 1 85.8104 46.1923 67.8259 0.0000 0.0000 0.0000
# 2 46.1923 125.2472 68.9472 0.0000 0.0000 0.0000
# 3 67.8259 68.9472 110.3985 0.0000 0.0000 0.0000
# 4 0.0000 0.0000 0.0000 19.8746 0.0000 0.0000
# 5 0.0000 0.0000 0.0000 0.0000 2372.3431 0.0000
# 6 0.0000 0.0000 0.0000 0.0000 0.0000 38.3424
#
#
#
# Elastic Compliance Matrix: (Units=1/GPa)
#
#
# Indices 1 2 3 4 5 6 
#
# 1 0.022747 -0.001061 -0.013313 0.000000 0.000000 0.000000
# 2 -0.001061 0.012217 -0.006978 0.000000 0.000000 0.000000
# 3 -0.013313 -0.006978 0.021595 0.000000 0.000000 0.000000
# 4 0.000000 0.000000 0.000000 0.050315 0.000000 0.000000
# 5 0.000000 0.000000 0.000000 0.000000 0.000422 0.000000
# 6 0.000000 0.000000 0.000000 0.000000 0.000000 0.026081
#
#
# Mechanical properties :
#
#
# Convention : Reuss Voigt Hill
#
# Bulk Modulus (GPa) = 72.17152 76.37633 74.27392
# Shear Modulus (GPa) = 27.67035 495.34474 261.50755
#
# Velocity S-wave (km/s) = 4.04577 17.11779 12.43758
# Velocity P-wave (km/s) = 8.03225 20.87754 15.81753
#
# Compressibility (1/GPa) = 0.01385588
#
# Stress axis : x y z
#
# Youngs Moduli (GPa) = 43.96125 81.85467 46.30679
#
# Poissons Ratio (x) = 0.08684 0.61647
# Poissons Ratio (y) = 0.04664 0.32313
# Poissons Ratio (z) = 0.58525 0.57118
#
# Static dielectric constant tensor:
#      x y z
#    x 1.601140 0.000000 0.000000 
#    y 0.000000 1.591530 0.000000 
#    z 0.000000 0.000000 1.533150 
# 
# From -- ./inp_files/40581.got.cif
#   From: 2010.05.17/outbox.cif.g08.bks.cpg/sg63_21_cif.got.tgz:40581.got - 2010.06.03 15:47:04.
