data_PCOD9469817
_publ_section_title
;
Structure prediction by ZEFSAII (Michael W. Deem and Ramdas Pophale) SiO2 
 PCOD9469817
Probable space group: C M C M
;
_chemical_formula_sum "Si O2"
_cell_formula_units_Z 72
_cell_length_a 21.653905
_cell_length_b 7.429401
_cell_length_c 19.811657
_cell_angle_alpha 90.000000
_cell_angle_beta 90.000000
_cell_angle_gamma 90.000000
_cell_volume 3187.211087
_symmetry_space_group_name_H-M "C M C M"
_symmetry_group_IT_number 63
_symmetry_cell_setting 'orthorhombic'
loop_
_space_group_symop_operation_xyz
x,y,z
-x,-y,1/2+z
x,-y,-z
-x,y,1/2-z
-x,-y,-z
x,y,1/2-z
-x,y,z
x,-y,1/2+z
1/2+x,1/2+y,z
1/2-x,1/2-y,1/2+z
1/2+x,1/2-y,-z
1/2-x,1/2+y,1/2-z
1/2-x,1/2-y,-z
1/2+x,1/2+y,1/2-z
1/2-x,1/2+y,z
1/2+x,1/2-y,1/2+z
loop_
_atom_site_type_symbol
_atom_site_label
_atom_site_fract_x
_atom_site_fract_y
_atom_site_fract_z
Si Si1 0.567826 0.315571 0.828829
Si Si2 0.313153 0.756478 0.391525
Si Si3 0.567461 0.109990 0.363960
Si Si4 0.802596 0.626600 0.324556
Si Si5 0.872883 0.500000 0.000000
O O1 0.575017 0.358113 0.750000
O O2 0.500000 0.380492 0.852166
O O3 0.564686 0.096854 0.837275
O O4 0.628837 0.368015 0.870759
O O5 0.245747 0.674484 0.383184
O O6 0.331319 0.853807 0.460886
O O7 0.310603 0.913902 0.335194
O O8 0.500000 0.189673 0.351701
O O9 0.628021 0.201302 0.332441
O O10 0.584424 0.089894 0.442912
O O11 0.778794 0.666904 0.250000
#
# Coordination Sequence:
#
# PCOD9469817 Si02
#       5
#    16  16  16  16   8
#     4   8  13  23  40  62  86 112 146 188 229 267
#     4  10  19  30  47  69  95 124 155 192 235 282
#     4   9  16  26  44  68  93 120 151 192 235 273
#     4  10  19  31  48  70  95 124 157 195 238 280
#     4   8  17  30  46  68  95 124 158 192 229 280
#
# _framework density 22.590282999999999
#
# number of rings (size 3 to 8) (size 9 to 14) (size 15 to 20)
#    0.000    3.333    0.000    4.333    0.000    5.778 
#    0.000    0.000    0.000    1.333    0.000    2.333 
#    0.000    0.000    0.000    0.000    0.000    0.000 
#
# Total GULP energy -200487.561423 kJ/mol
# GULP energy per Si atom -5569.098928 kJ/mol
# Density = 2.253887 g / cm^3
# Si number density = 22.590283 Si / 1000 Ang^3
#
#
#
# Elastic Constant Matrix: (Units=GPa)
#
#
# Indices 1 2 3 4 5 6 
#
# 1 149.4233 6.8165 -10.1815 0.0000 0.0000 0.0000
# 2 6.8165 32.0894 -8.6235 0.0000 0.0000 0.0000
# 3 -10.1815 -8.6235 58.5349 0.0000 0.0000 0.0000
# 4 0.0000 0.0000 0.0000 2.8026 0.0000 0.0000
# 5 0.0000 0.0000 0.0000 0.0000 36.9766 0.0000
# 6 0.0000 0.0000 0.0000 0.0000 0.0000 6.6519
#
#
#
# Elastic Compliance Matrix: (Units=1/GPa)
#
#
# Indices 1 2 3 4 5 6 
#
# 1 0.006815 -0.001176 0.001012 0.000000 0.000000 0.000000
# 2 -0.001176 0.032650 0.004606 0.000000 0.000000 0.000000
# 3 0.001012 0.004606 0.017938 0.000000 0.000000 0.000000
# 4 0.000000 0.000000 0.000000 0.356813 0.000000 0.000000
# 5 0.000000 0.000000 0.000000 0.000000 0.027044 0.000000
# 6 0.000000 0.000000 0.000000 0.000000 0.000000 0.150333
#
#
# Mechanical properties :
#
#
# Convention : Reuss Voigt Hill
#
# Bulk Modulus (GPa) = 15.08567 24.00784 19.54675
# Shear Modulus (GPa) = 8.26711 26.08861 17.17786
#
# Velocity S-wave (km/s) = 1.91508 3.40201 2.76054
# Velocity P-wave (km/s) = 3.40331 5.10707 4.33962
#
# Compressibility (1/GPa) = 0.06628808
#
# Stress axis : x y z
#
# Youngs Moduli (GPa) = 146.73517 30.62756 55.74633
#
# Poissons Ratio (x) = 0.03601 -0.05643
# Poissons Ratio (y) = 0.17251 -0.25675
# Poissons Ratio (z) = -0.14853 -0.14106
#
# Static dielectric constant tensor:
#      x y z
#    x 2.010960 0.000000 0.000000 
#    y 0.000000 1.919790 0.000000 
#    z 0.000000 0.000000 1.812570 
# 
# From -- ./inp_files/56429.got.cif
#   From: 2010.05.17/outbox.cif.g08.bks.cpg/sg63_29_cif.got.tgz:56429.got - 2010.06.03 15:47:04.
