data_PCOD9469767
_publ_section_title
;
Structure prediction by ZEFSAII (Michael W. Deem and Ramdas Pophale) SiO2 
 PCOD9469767
Probable space group: C M C M
;
_chemical_formula_sum "Si O2"
_cell_formula_units_Z 96
_cell_length_a 21.874416
_cell_length_b 22.939281
_cell_length_c 8.482364
_cell_angle_alpha 90.000000
_cell_angle_beta 90.000000
_cell_angle_gamma 90.000000
_cell_volume 4256.309239
_symmetry_space_group_name_H-M "C M C M"
_symmetry_group_IT_number 63
_symmetry_cell_setting 'orthorhombic'
loop_
_space_group_symop_operation_xyz
x,y,z
-x,-y,1/2+z
x,-y,-z
-x,y,1/2-z
-x,-y,-z
x,y,1/2-z
-x,y,z
x,-y,1/2+z
1/2+x,1/2+y,z
1/2-x,1/2-y,1/2+z
1/2+x,1/2-y,-z
1/2-x,1/2+y,1/2-z
1/2-x,1/2-y,-z
1/2+x,1/2+y,1/2-z
1/2-x,1/2+y,z
1/2+x,1/2-y,1/2+z
loop_
_atom_site_type_symbol
_atom_site_label
_atom_site_fract_x
_atom_site_fract_y
_atom_site_fract_z
Si Si1 0.294951 0.437589 0.940427
Si Si2 0.074847 0.561499 0.069443
Si Si3 0.386678 0.296724 0.072081
Si Si4 0.933955 0.093192 0.059968
Si Si5 0.264426 0.686732 0.073721
Si Si6 0.426479 0.181926 0.574444
O O1 0.292817 0.436142 0.750000
O O2 0.367571 0.433250 0.987770
O O3 0.257533 0.379273 0.995289
O O4 0.271729 0.500000 0.000000
O O5 0.093711 0.567311 0.250000
O O6 0.000000 0.561244 0.065664
O O7 0.095156 0.500000 0.000000
O O8 0.095130 0.617890 0.973290
O O9 0.363010 0.305177 0.250000
O O10 0.435692 0.345299 0.031160
O O11 0.337356 0.309548 0.937219
O O12 0.407392 0.230842 0.048476
O O13 0.931639 0.100488 0.250000
O O14 0.000000 0.064219 0.025557
O O15 0.239284 0.686714 0.250000
O O16 0.250000 0.750000 0.000000
O O17 0.404651 0.197025 0.750000
O O18 0.500000 0.180779 0.577450
#
# Coordination Sequence:
#
# PCOD9469767 Si02
#       6
#    16  16  16  16  16  16
#     4   9  19  34  54  82 115 149 187 230 276 331
#     4   9  16  26  40  59  84 116 157 202 245 294
#     4  11  21  32  49  75 104 134 172 218 266 319
#     4   9  18  33  50  71 107 153 193 230 272 315
#     4  10  21  39  61  84 108 137 176 223 276 330
#     4  10  19  30  45  66  95 132 169 207 255 308
#
# _framework density 22.554753000000002
#
# number of rings (size 3 to 8) (size 9 to 14) (size 15 to 20)
#    0.000    2.333    0.000    4.500    0.000    9.000 
#    0.000    0.000    0.000    1.000    0.000    4.667 
#    0.000    0.000    0.000    0.000    0.000    0.000 
#
# Total GULP energy -267317.366152 kJ/mol
# GULP energy per Si atom -5569.111795 kJ/mol
# Density = 2.250342 g / cm^3
# Si number density = 22.554753 Si / 1000 Ang^3
#
#
#
# Elastic Constant Matrix: (Units=GPa)
#
#
# Indices 1 2 3 4 5 6 
#
# 1 23.0932 6.6214 -3.9272 0.0000 0.0000 0.0000
# 2 6.6214 191.7687 23.0193 0.0000 0.0000 0.0000
# 3 -3.9272 23.0193 46.2428 0.0000 0.0000 0.0000
# 4 0.0000 0.0000 0.0000 30.5127 0.0000 0.0000
# 5 0.0000 0.0000 0.0000 0.0000 6.6947 0.0000
# 6 0.0000 0.0000 0.0000 0.0000 0.0000 9.5761
#
#
#
# Elastic Compliance Matrix: (Units=1/GPa)
#
#
# Indices 1 2 3 4 5 6 
#
# 1 0.044739 -0.002128 0.004859 0.000000 0.000000 0.000000
# 2 -0.002128 0.005647 -0.002992 0.000000 0.000000 0.000000
# 3 0.004859 -0.002992 0.023527 0.000000 0.000000 0.000000
# 4 0.000000 0.000000 0.000000 0.032773 0.000000 0.000000
# 5 0.000000 0.000000 0.000000 0.000000 0.149372 0.000000
# 6 0.000000 0.000000 0.000000 0.000000 0.000000 0.104426
#
#
# Mechanical properties :
#
#
# Convention : Reuss Voigt Hill
#
# Bulk Modulus (GPa) = 13.62561 34.72575 24.17568
# Shear Modulus (GPa) = 12.97117 25.04945 19.01031
#
# Velocity S-wave (km/s) = 2.40072 3.33619 2.90634
# Velocity P-wave (km/s) = 3.70660 5.50180 4.69088
#
# Compressibility (1/GPa) = 0.07339122
#
# Stress axis : x y z
#
# Youngs Moduli (GPa) = 22.35176 177.07817 42.50441
#
# Poissons Ratio (x) = 0.37682 -0.20652
# Poissons Ratio (y) = 0.04756 0.12717
# Poissons Ratio (z) = -0.10860 0.52979
#
# Static dielectric constant tensor:
#      x y z
#    x 1.912670 0.000000 0.000000 
#    y 0.000000 1.929280 0.000000 
#    z 0.000000 0.000000 1.804960 
# 
# From -- ./inp_files/12331.got.cif
#   From: 2010.05.17/outbox.cif.g08.bks.cpg/sg63_7_cif.got.tgz:12331.got - 2010.06.03 15:47:04.
