data_PCOD9469992
_publ_section_title
;
Structure prediction by ZEFSAII (Michael W. Deem and Ramdas Pophale) SiO2 
 PCOD9469992
Probable space group: C M C M
;
_chemical_formula_sum "Si O2"
_cell_formula_units_Z 112
_cell_length_a 32.615569
_cell_length_b 13.698882
_cell_length_c 16.158901
_cell_angle_alpha 90.000000
_cell_angle_beta 90.000000
_cell_angle_gamma 90.000000
_cell_volume 7219.745761
_symmetry_space_group_name_H-M "C M C M"
_symmetry_group_IT_number 63
_symmetry_cell_setting 'orthorhombic'
loop_
_space_group_symop_operation_xyz
x,y,z
-x,-y,1/2+z
x,-y,-z
-x,y,1/2-z
-x,-y,-z
x,y,1/2-z
-x,y,z
x,-y,1/2+z
1/2+x,1/2+y,z
1/2-x,1/2-y,1/2+z
1/2+x,1/2-y,-z
1/2-x,1/2+y,1/2-z
1/2-x,1/2-y,-z
1/2+x,1/2+y,1/2-z
1/2-x,1/2+y,z
1/2+x,1/2-y,1/2+z
loop_
_atom_site_type_symbol
_atom_site_label
_atom_site_fract_x
_atom_site_fract_y
_atom_site_fract_z
Si Si1 0.773992 0.889677 0.348923
Si Si2 0.601226 0.882380 0.842674
Si Si3 0.226008 0.889677 0.651077
Si Si4 0.312828 0.807552 0.903246
Si Si5 0.187172 0.307552 0.096755
Si Si6 0.547089 0.118760 0.500000
Si Si7 0.101225 0.382380 0.342674
O O1 0.778734 0.881142 0.250000
O O2 0.801057 0.805752 0.390633
O O3 0.726701 0.866227 0.370408
O O4 0.783947 1.000000 0.374377
O O5 0.586180 0.858990 0.750000
O O6 0.645947 0.836808 0.856713
O O7 0.571354 0.851169 0.917151
O O8 0.605388 0.000000 0.847988
O O9 0.221267 0.881142 0.750000
O O10 0.273299 0.866228 0.629591
O O11 0.198943 0.805752 0.609367
O O12 0.318204 0.829117 0.000000
O O13 0.145947 0.336808 0.143287
O O14 0.500000 0.151741 0.500000
O O15 0.571354 0.148831 0.582849
O O16 0.546626 0.000000 0.500000
O O17 0.086180 0.358990 0.250000
#
# Coordination Sequence:
#
# PCOD9469992 Si02
#       7
#    16  16  16  16  16  16  16
#     4  10  20  32  45  63  90 124 161 198 234 273
#     4  10  19  31  48  69  95 126 158 192 229 273
#     4  10  20  32  45  63  90 124 161 198 234 273
#     4  11  20  30  46  66  91 124 161 197 230 272
#     4  11  20  30  46  66  91 124 161 197 230 272
#     4   9  18  32  48  69  95 121 153 189 230 282
#     4  10  19  31  48  69  95 126 158 192 229 273
#
# _framework density 15.513011000000001
#
# number of rings (size 3 to 8) (size 9 to 14) (size 15 to 20)
#    0.000    1.857    1.429    6.000    0.000    6.286 
#    0.000    2.857    0.000    0.000    0.000    0.000 
#    0.000    2.286    0.000    6.000    0.000    0.286 
#
# Total GULP energy -312473.159771 kJ/mol
# GULP energy per Si atom -5579.877853 kJ/mol
# Density = 1.547770 g / cm^3
# Si number density = 15.513011 Si / 1000 Ang^3
#
#
#
# Elastic Constant Matrix: (Units=GPa)
#
#
# Indices 1 2 3 4 5 6 
#
# 1 90.5941 7.5784 44.0042 0.0000 0.0000 0.0000
# 2 7.5784 32.6612 8.6835 0.0000 0.0000 0.0000
# 3 44.0042 8.6835 99.1160 0.0000 0.0000 0.0000
# 4 0.0000 0.0000 0.0000 16.1384 0.0000 0.0000
# 5 0.0000 0.0000 0.0000 0.0000 4.4214 0.0000
# 6 0.0000 0.0000 0.0000 0.0000 0.0000 14.8308
#
#
#
# Elastic Compliance Matrix: (Units=1/GPa)
#
#
# Indices 1 2 3 4 5 6 
#
# 1 0.014160 -0.001653 -0.006142 0.000000 0.000000 0.000000
# 2 -0.001653 0.031540 -0.002030 0.000000 0.000000 0.000000
# 3 -0.006142 -0.002030 0.012994 0.000000 0.000000 0.000000
# 4 0.000000 0.000000 0.000000 0.061964 0.000000 0.000000
# 5 0.000000 0.000000 0.000000 0.000000 0.226171 0.000000
# 6 0.000000 0.000000 0.000000 0.000000 0.000000 0.067427
#
#
# Mechanical properties :
#
#
# Convention : Reuss Voigt Hill
#
# Bulk Modulus (GPa) = 25.61073 38.10041 31.85557
# Shear Modulus (GPa) = 11.18772 17.88514 14.53643
#
# Velocity S-wave (km/s) = 2.68840 3.39914 3.06444
# Velocity P-wave (km/s) = 5.11680 6.32607 5.75330
#
# Compressibility (1/GPa) = 0.03904613
#
# Stress axis : x y z
#
# Youngs Moduli (GPa) = 70.62317 31.70538 76.96048
#
# Poissons Ratio (x) = 0.05240 0.47266
# Poissons Ratio (y) = 0.11671 0.15619
# Poissons Ratio (z) = 0.43374 0.06435
#
# Static dielectric constant tensor:
#      x y z
#    x 1.487110 0.000000 0.000000 
#    y 0.000000 1.507350 0.000000 
#    z 0.000000 0.000000 1.543780 
# 
# From -- ./inp_files/38696.got.cif
#   From: 2010.05.17/outbox.cif.g08.bks.cpg/sg63_20_cif.got.tgz:38696.got - 2010.06.03 15:47:04.
