data_PCOD9469364
_publ_section_title
;
Structure prediction by ZEFSAII (Michael W. Deem and Ramdas Pophale) SiO2 
 PCOD9469364
Probable space group: C M C M
;
_chemical_formula_sum "Si O2"
_cell_formula_units_Z 96
_cell_length_a 20.137288
_cell_length_b 14.719277
_cell_length_c 15.731666
_cell_angle_alpha 90.000000
_cell_angle_beta 90.000000
_cell_angle_gamma 90.000000
_cell_volume 4662.965228
_symmetry_space_group_name_H-M "C M C M"
_symmetry_group_IT_number 63
_symmetry_cell_setting 'orthorhombic'
loop_
_space_group_symop_operation_xyz
x,y,z
-x,-y,1/2+z
x,-y,-z
-x,y,1/2-z
-x,-y,-z
x,y,1/2-z
-x,y,z
x,-y,1/2+z
1/2+x,1/2+y,z
1/2-x,1/2-y,1/2+z
1/2+x,1/2-y,-z
1/2-x,1/2+y,1/2-z
1/2-x,1/2-y,-z
1/2+x,1/2+y,1/2-z
1/2-x,1/2+y,z
1/2+x,1/2-y,1/2+z
loop_
_atom_site_type_symbol
_atom_site_label
_atom_site_fract_x
_atom_site_fract_y
_atom_site_fract_z
Si Si1 0.321352 0.848113 0.346214
Si Si2 0.109249 0.002378 0.153599
Si Si3 0.712354 0.773811 0.588637
Si Si4 0.751489 0.517595 0.405376
Si Si5 0.575424 0.302520 0.353678
Si Si6 0.075947 0.201026 0.146660
O O1 0.340536 0.869671 0.250000
O O2 0.253232 0.790668 0.347604
O O3 0.375379 0.779586 0.384915
O O4 0.308070 0.942506 0.392564
O O5 0.083101 0.006174 0.250000
O O6 0.188970 0.997912 0.154134
O O7 0.091884 0.099871 0.113510
O O8 0.082002 0.908187 0.118392
O O9 0.750000 0.750000 0.500000
O O10 0.724703 0.879838 0.605664
O O11 0.635164 0.749816 0.599734
O O12 0.724838 0.500000 0.500000
O O13 0.585353 0.298405 0.250000
O O14 0.500000 0.271382 0.371004
O O15 0.085744 0.198031 0.250000
O O16 0.000000 0.222736 0.129454
#
# Coordination Sequence:
#
# PCOD9469364 Si02
#       6
#    16  16  16  16  16  16
#     4  11  22  37  60  89 118 156 207 256 307 370
#     4  10  18  32  59  90 120 154 199 252 310 376
#     4  12  23  40  64  87 126 169 210 257 314 379
#     4  12  23  37  60  86 124 158 206 258 314 370
#     4  10  21  38  62  94 130 164 205 263 325 384
#     4   9  18  33  55  84 117 152 193 246 305 362
#
# _framework density 20.587758000000001
#
# number of rings (size 3 to 8) (size 9 to 14) (size 15 to 20)
#    0.000    1.333    5.000    1.500    0.000    4.000 
#    0.000    1.667    0.000    5.000    0.000    0.000 
#    0.000    0.000    0.000    0.000    0.000    0.000 
#
# Total GULP energy -267955.471959 kJ/mol
# GULP energy per Si atom -5582.405666 kJ/mol
# Density = 2.054090 g / cm^3
# Si number density = 20.587758 Si / 1000 Ang^3
#
#
#
# Elastic Constant Matrix: (Units=GPa)
#
#
# Indices 1 2 3 4 5 6 
#
# 1 136.9752 45.5303 12.1258 0.0000 0.0000 0.0000
# 2 45.5303 124.6752 4.6495 0.0000 0.0000 0.0000
# 3 12.1258 4.6495 56.7232 0.0000 0.0000 0.0000
# 4 0.0000 0.0000 0.0000 14.7575 0.0000 0.0000
# 5 0.0000 0.0000 0.0000 0.0000 11.3126 0.0000
# 6 0.0000 0.0000 0.0000 0.0000 0.0000 26.8876
#
#
#
# Elastic Compliance Matrix: (Units=1/GPa)
#
#
# Indices 1 2 3 4 5 6 
#
# 1 0.008444 -0.003026 -0.001557 0.000000 0.000000 0.000000
# 2 -0.003026 0.009130 -0.000102 0.000000 0.000000 0.000000
# 3 -0.001557 -0.000102 0.017971 0.000000 0.000000 0.000000
# 4 0.000000 0.000000 0.000000 0.067762 0.000000 0.000000
# 5 0.000000 0.000000 0.000000 0.000000 0.088397 0.000000
# 6 0.000000 0.000000 0.000000 0.000000 0.000000 0.037192
#
#
# Mechanical properties :
#
#
# Convention : Reuss Voigt Hill
#
# Bulk Modulus (GPa) = 38.20325 49.22054 43.71189
# Shear Modulus (GPa) = 20.24380 27.66274 23.95327
#
# Velocity S-wave (km/s) = 3.13915 3.66956 3.41467
# Velocity P-wave (km/s) = 5.63344 6.47409 6.06834
#
# Compressibility (1/GPa) = 0.02617579
#
# Stress axis : x y z
#
# Youngs Moduli (GPa) = 118.42503 109.53413 55.64622
#
# Poissons Ratio (x) = 0.33141 0.08665
# Poissons Ratio (y) = 0.35831 0.00565
# Poissons Ratio (z) = 0.18440 0.01112
#
# Static dielectric constant tensor:
#      x y z
#    x 1.744750 0.000000 0.000000 
#    y 0.000000 1.719700 0.000000 
#    z 0.000000 0.000000 1.839740 
# 
# From -- ./inp_files/35345.got.cif
#   From: 2010.05.17/outbox.cif.g08.bks.cpg/sg63_18_cif.got.tgz:35345.got - 2010.06.03 15:47:04.
