data_PCOD9469507
_publ_section_title
;
Structure prediction by ZEFSAII (Michael W. Deem and Ramdas Pophale) SiO2 
 PCOD9469507
Probable space group: C M C M
;
_chemical_formula_sum "Si O2"
_cell_formula_units_Z 68
_cell_length_a 15.630378
_cell_length_b 23.104189
_cell_length_c 8.055797
_cell_angle_alpha 90.000000
_cell_angle_beta 90.000000
_cell_angle_gamma 90.000000
_cell_volume 2909.167474
_symmetry_space_group_name_H-M "C M C M"
_symmetry_group_IT_number 63
_symmetry_cell_setting 'orthorhombic'
loop_
_space_group_symop_operation_xyz
x,y,z
-x,-y,1/2+z
x,-y,-z
-x,y,1/2-z
-x,-y,-z
x,y,1/2-z
-x,y,z
x,-y,1/2+z
1/2+x,1/2+y,z
1/2-x,1/2-y,1/2+z
1/2+x,1/2-y,-z
1/2-x,1/2+y,1/2-z
1/2-x,1/2-y,-z
1/2+x,1/2+y,1/2-z
1/2-x,1/2+y,z
1/2+x,1/2-y,1/2+z
loop_
_atom_site_type_symbol
_atom_site_label
_atom_site_fract_x
_atom_site_fract_y
_atom_site_fract_z
Si Si1 0.500000 0.950103 0.250000
Si Si2 0.103849 0.300025 0.435543
Si Si3 0.873916 0.577564 0.064170
Si Si4 0.902445 0.178795 0.557069
Si Si5 0.673500 0.561647 0.060715
O O1 0.573249 0.943247 0.402779
O O2 0.129705 0.317274 0.250000
O O3 0.127193 0.352390 0.554668
O O4 0.136239 0.235564 0.470946
O O5 0.000000 0.297092 0.440517
O O6 0.907651 0.560750 0.250000
O O7 0.776100 0.558847 0.053954
O O8 0.906000 0.194057 0.750000
O O9 0.855271 0.118412 0.536272
O O10 0.000000 0.170927 0.495441
O O11 0.646920 0.570766 0.250000
O O12 0.638897 0.500000 0.000000
#
# Coordination Sequence:
#
# PCOD9469507 Si02
#       5
#     4  16  16  16  16
#     4  12  22  40  70  98 124 184 204 274 314 392
#     4  10  18  34  61  94 132 170 208 260 319 381
#     4  11  23  40  66  98 132 170 220 260 325 388
#     4  10  22  39  64  97 129 169 215 263 320 389
#     4  11  26  45  67  89 125 170 213 276 327 377
#
# _framework density 23.374383999999999
#
# number of rings (size 3 to 8) (size 9 to 14) (size 15 to 20)
#    0.000    1.412    2.353    2.471    3.294    3.765 
#    0.000    0.588    0.000    0.000    0.000    0.000 
#    0.000    0.000    0.000    0.000    0.000    0.000 
#
# Total GULP energy -189600.208492 kJ/mol
# GULP energy per Si atom -5576.476720 kJ/mol
# Density = 2.332118 g / cm^3
# Si number density = 23.374384 Si / 1000 Ang^3
#
#
#
# Elastic Constant Matrix: (Units=GPa)
#
#
# Indices 1 2 3 4 5 6 
#
# 1 27.0599 2.8852 15.3407 0.0000 0.0000 0.0000
# 2 2.8852 137.8915 42.1398 0.0000 0.0000 0.0000
# 3 15.3407 42.1398 149.2229 0.0000 0.0000 0.0000
# 4 0.0000 0.0000 0.0000 47.3179 0.0000 0.0000
# 5 0.0000 0.0000 0.0000 0.0000 30.0587 0.0000
# 6 0.0000 0.0000 0.0000 0.0000 0.0000 9.8047
#
#
#
# Elastic Compliance Matrix: (Units=1/GPa)
#
#
# Indices 1 2 3 4 5 6 
#
# 1 0.039268 0.000451 -0.004164 0.000000 0.000000 0.000000
# 2 0.000451 0.007942 -0.002289 0.000000 0.000000 0.000000
# 3 -0.004164 -0.002289 0.007776 0.000000 0.000000 0.000000
# 4 0.000000 0.000000 0.000000 0.021134 0.000000 0.000000
# 5 0.000000 0.000000 0.000000 0.000000 0.033268 0.000000
# 6 0.000000 0.000000 0.000000 0.000000 0.000000 0.101992
#
#
# Mechanical properties :
#
#
# Convention : Reuss Voigt Hill
#
# Bulk Modulus (GPa) = 23.26612 48.32287 35.79449
# Shear Modulus (GPa) = 21.03392 34.35685 27.69539
#
# Velocity S-wave (km/s) = 3.00304 3.83802 3.44591
# Velocity P-wave (km/s) = 4.69037 6.35286 5.58384
#
# Compressibility (1/GPa) = 0.04298095
#
# Stress axis : x y z
#
# Youngs Moduli (GPa) = 25.46620 125.90927 128.60173
#
# Poissons Ratio (x) = -0.05678 0.53553
# Poissons Ratio (y) = -0.01148 0.29440
# Poissons Ratio (z) = 0.10605 0.28823
#
# Static dielectric constant tensor:
#      x y z
#    x 1.874860 0.000000 0.000000 
#    y 0.000000 1.950240 0.000000 
#    z 0.000000 0.000000 1.857220 
# 
# From -- ./inp_files/5858.got.cif
#   From: 2010.05.17/outbox.cif.g08.bks.cpg/sg63_3_cif.got.tgz:5858.got - 2010.06.03 15:47:04.
