data_PCOD9469633
_publ_section_title
;
Structure prediction by ZEFSAII (Michael W. Deem and Ramdas Pophale) SiO2 
 PCOD9469633
Probable space group: C M C M
;
_chemical_formula_sum "Si O2"
_cell_formula_units_Z 120
_cell_length_a 23.967339
_cell_length_b 19.254528
_cell_length_c 14.365208
_cell_angle_alpha 90.000000
_cell_angle_beta 90.000000
_cell_angle_gamma 90.000000
_cell_volume 6629.253313
_symmetry_space_group_name_H-M "C M C M"
_symmetry_group_IT_number 63
_symmetry_cell_setting 'orthorhombic'
loop_
_space_group_symop_operation_xyz
x,y,z
-x,-y,1/2+z
x,-y,-z
-x,y,1/2-z
-x,-y,-z
x,y,1/2-z
-x,y,z
x,-y,1/2+z
1/2+x,1/2+y,z
1/2-x,1/2-y,1/2+z
1/2+x,1/2-y,-z
1/2-x,1/2+y,1/2-z
1/2-x,1/2-y,-z
1/2+x,1/2+y,1/2-z
1/2-x,1/2+y,z
1/2+x,1/2-y,1/2+z
loop_
_atom_site_type_symbol
_atom_site_label
_atom_site_fract_x
_atom_site_fract_y
_atom_site_fract_z
Si Si1 0.439844 0.078957 0.964716
Si Si2 0.711010 0.905289 0.644585
Si Si3 0.089258 0.337222 0.645970
Si Si4 0.564277 0.460191 0.359987
Si Si5 0.646412 0.500000 0.000000
Si Si6 0.275735 0.630486 0.968447
Si Si7 0.323680 0.064284 0.638682
Si Si8 0.627259 0.684658 0.641634
O O1 0.500000 0.091795 0.916979
O O2 0.383708 0.084127 0.904060
O O3 0.437112 0.126080 0.057143
O O4 0.439656 0.000000 0.000000
O O5 0.733631 0.908855 0.750000
O O6 0.652878 0.864550 0.646671
O O7 0.751315 0.866648 0.572446
O O8 0.695245 0.984581 0.614388
O O9 0.066557 0.353551 0.750000
O O10 0.091799 0.254623 0.633707
O O11 0.567187 0.472155 0.250000
O O12 0.500000 0.464480 0.389291
O O13 0.604420 0.512689 0.414582
O O14 0.588966 0.382812 0.377413
O O15 0.686292 0.561777 0.970941
O O16 0.223203 0.615208 0.902322
O O17 0.318618 0.685910 0.925368
O O18 0.326093 0.066967 0.750000
O O19 0.646014 0.679058 0.750000
#
# Coordination Sequence:
#
# PCOD9469633 Si02
#       8
#    16  16  16  16   8  16  16  16
#     4  11  22  36  54  78 105 135 179 227 272 324
#     4  10  19  31  51  74 105 142 174 212 267 326
#     4  10  20  37  55  77 109 140 176 223 272 320
#     4   9  18  33  51  74 108 143 177 217 260 311
#     4  10  19  28  50  80 105 134 172 220 266 310
#     4  11  18  33  53  78 109 143 178 220 268 325
#     4  11  20  34  54  76 107 142 176 219 275 328
#     4   9  20  34  53  81 108 142 183 220 263 318
#
# _framework density 18.101586000000001
#
# number of rings (size 3 to 8) (size 9 to 14) (size 15 to 20)
#    0.000    1.867    4.000    0.600    0.000    2.667 
#    0.000    2.667    0.000    0.000    0.000    0.000 
#    0.000    0.000    0.000    0.000    0.000    0.000 
#
# Total GULP energy -334384.773956 kJ/mol
# GULP energy per Si atom -5573.079566 kJ/mol
# Density = 1.806039 g / cm^3
# Si number density = 18.101586 Si / 1000 Ang^3
#
#
#
# Elastic Constant Matrix: (Units=GPa)
#
#
# Indices 1 2 3 4 5 6 
#
# 1 111.3703 4.7897 46.2580 0.0000 0.0000 0.0000
# 2 4.7897 15.7674 11.6968 0.0000 0.0000 0.0000
# 3 46.2580 11.6968 90.3007 0.0000 0.0000 0.0000
# 4 0.0000 0.0000 0.0000 21.8308 0.0000 0.0000
# 5 0.0000 0.0000 0.0000 0.0000 10.9677 0.0000
# 6 0.0000 0.0000 0.0000 0.0000 0.0000 76.3980
#
#
#
# Elastic Compliance Matrix: (Units=1/GPa)
#
#
# Indices 1 2 3 4 5 6 
#
# 1 0.011419 0.000963 -0.005974 0.000000 0.000000 0.000000
# 2 0.000963 0.070245 -0.009592 0.000000 0.000000 0.000000
# 3 -0.005974 -0.009592 0.015377 0.000000 0.000000 0.000000
# 4 0.000000 0.000000 0.000000 0.045807 0.000000 0.000000
# 5 0.000000 0.000000 0.000000 0.000000 0.091177 0.000000
# 6 0.000000 0.000000 0.000000 0.000000 0.000000 0.013089
#
#
# Mechanical properties :
#
#
# Convention : Reuss Voigt Hill
#
# Bulk Modulus (GPa) = 14.74183 38.10304 26.42243
# Shear Modulus (GPa) = 16.72616 32.15222 24.43919
#
# Velocity S-wave (km/s) = 3.04306 4.21908 3.67837
# Velocity P-wave (km/s) = 4.52864 6.69548 5.71568
#
# Compressibility (1/GPa) = 0.06783420
#
# Stress axis : x y z
#
# Youngs Moduli (GPa) = 87.57248 14.23587 65.03179
#
# Poissons Ratio (x) = -0.01371 0.38853
# Poissons Ratio (y) = -0.08435 0.62381
# Poissons Ratio (z) = 0.52319 0.13656
#
# Static dielectric constant tensor:
#      x y z
#    x 1.638670 0.000000 0.000000 
#    y 0.000000 1.621930 0.000000 
#    z 0.000000 0.000000 1.654260 
# 
# From -- ./inp_files/37194.got.cif
#   From: 2010.05.17/outbox.cif.g08.bks.cpg/sg63_19_cif.got.tgz:37194.got - 2010.06.03 15:47:04.
