data_PCOD9469119
_publ_section_title
;
Structure prediction by ZEFSAII (Michael W. Deem and Ramdas Pophale) SiO2 
 PCOD9469119
Probable space group: C M C M
;
_chemical_formula_sum "Si O2"
_cell_formula_units_Z 96
_cell_length_a 7.438039
_cell_length_b 21.254426
_cell_length_c 29.097253
_cell_angle_alpha 90.000000
_cell_angle_beta 90.000000
_cell_angle_gamma 90.000000
_cell_volume 4600.021084
_symmetry_space_group_name_H-M "C M C M"
_symmetry_group_IT_number 63
_symmetry_cell_setting 'orthorhombic'
loop_
_space_group_symop_operation_xyz
x,y,z
-x,-y,1/2+z
x,-y,-z
-x,y,1/2-z
-x,-y,-z
x,y,1/2-z
-x,y,z
x,-y,1/2+z
1/2+x,1/2+y,z
1/2-x,1/2-y,1/2+z
1/2+x,1/2-y,-z
1/2-x,1/2+y,1/2-z
1/2-x,1/2-y,-z
1/2+x,1/2+y,1/2-z
1/2-x,1/2+y,z
1/2+x,1/2-y,1/2+z
loop_
_atom_site_type_symbol
_atom_site_label
_atom_site_fract_x
_atom_site_fract_y
_atom_site_fract_z
Si Si1 0.290518 0.740813 0.391230
Si Si2 0.719502 0.192373 0.698495
Si Si3 0.720615 0.620351 0.053710
Si Si4 0.217823 0.134724 0.552185
Si Si5 0.283542 0.952861 0.301145
Si Si6 0.710958 0.492311 0.099913
O O1 0.500000 0.726872 0.382691
O O2 0.213965 0.763827 0.342515
O O3 0.215785 0.679287 0.415985
O O4 0.279866 0.800718 0.424851
O O5 0.772224 0.211386 0.750000
O O6 0.500000 0.191780 0.697162
O O7 0.775767 0.119679 0.691431
O O8 0.500000 0.620711 0.053953
O O9 0.782745 0.554443 0.075252
O O10 0.773492 0.628301 0.000732
O O11 0.000000 0.136072 0.553739
O O12 0.283522 0.073773 0.580517
O O13 0.222812 0.972542 0.250000
O O14 0.500000 0.952362 0.300434
O O15 0.228545 0.992966 0.345103
O O16 0.500000 0.491191 0.088675
#
# Coordination Sequence:
#
# PCOD9469119 Si02
#       6
#    16  16  16  16  16  16
#     4  10  18  31  52  73  95 123 163 207 240 283
#     4   8  14  26  46  70  92 116 150 193 239 283
#     4   9  19  33  48  70 100 133 163 196 243 291
#     4  10  19  32  50  70  97 132 166 199 240 289
#     4   9  17  31  51  73  97 125 158 198 244 290
#     4  10  19  32  50  72  99 131 165 198 235 287
#
# _framework density 20.869468999999999
#
# number of rings (size 3 to 8) (size 9 to 14) (size 15 to 20)
#    0.000    2.667    1.667    2.000    0.000    2.333 
#    0.000    2.500    0.000    5.500    0.000    0.000 
#    0.000    0.000    0.000    0.000    0.000    0.000 
#
# Total GULP energy -267958.612807 kJ/mol
# GULP energy per Si atom -5582.471100 kJ/mol
# Density = 2.082197 g / cm^3
# Si number density = 20.869469 Si / 1000 Ang^3
#
#
#
# Elastic Constant Matrix: (Units=GPa)
#
#
# Indices 1 2 3 4 5 6 
#
# 1 60.7478 -5.2867 -10.8241 0.0000 0.0000 0.0000
# 2 -5.2867 68.9827 16.1933 0.0000 0.0000 0.0000
# 3 -10.8241 16.1933 110.6733 0.0000 0.0000 0.0000
# 4 0.0000 0.0000 0.0000 -5.8214 0.0000 0.0000
# 5 0.0000 0.0000 0.0000 0.0000 18.1232 0.0000
# 6 0.0000 0.0000 0.0000 0.0000 0.0000 -36.7130
#
#
#
# Elastic Compliance Matrix: (Units=1/GPa)
#
#
# Indices 1 2 3 4 5 6 
#
# 1 0.016811 0.000935 0.001507 0.000000 0.000000 0.000000
# 2 0.000935 0.015064 -0.002113 0.000000 0.000000 0.000000
# 3 0.001507 -0.002113 0.009492 0.000000 0.000000 0.000000
# 4 0.000000 0.000000 0.000000 -0.171780 0.000000 0.000000
# 5 0.000000 0.000000 0.000000 0.000000 0.055178 0.000000
# 6 0.000000 0.000000 0.000000 0.000000 0.000000 -0.027238
#
#
# Mechanical properties :
#
#
# Convention : Reuss Voigt Hill
#
# Bulk Modulus (GPa) = 23.79473 26.72987 25.26230
# Shear Modulus (GPa) = -56.10237 11.13918 -22.48159
#
# Velocity S-wave (km/s) = -5.19046 2.31282 -3.28571
# Velocity P-wave (km/s) = 4.94921 4.46857 1.50443
#
# Compressibility (1/GPa) = 0.04202611
#
# Stress axis : x y z
#
# Youngs Moduli (GPa) = 59.48338 66.38360 105.35006
#
# Poissons Ratio (x) = -0.06204 -0.15881
# Poissons Ratio (y) = -0.05559 0.22257
# Poissons Ratio (z) = -0.08967 0.14025
#
# Static dielectric constant tensor:
#      x y z
#    x 1.822610 0.000000 0.000000 
#    y 0.000000 1.708090 0.000000 
#    z 0.000000 0.000000 1.738360 
# 
# From -- ./inp_files/61675.got.cif
#   From: 2010.05.17/outbox.cif.g08.bks.cpg/sg63_31_cif.got.tgz:61675.got - 2010.06.03 15:47:04.
