data_PCOD9469582
_publ_section_title
;
Structure prediction by ZEFSAII (Michael W. Deem and Ramdas Pophale) SiO2 
 PCOD9469582
Probable space group: C M C M
;
_chemical_formula_sum "Si O2"
_cell_formula_units_Z 68
_cell_length_a 10.715445
_cell_length_b 18.662771
_cell_length_c 18.077510
_cell_angle_alpha 90.000000
_cell_angle_beta 90.000000
_cell_angle_gamma 90.000000
_cell_volume 3615.138573
_symmetry_space_group_name_H-M "C M C M"
_symmetry_group_IT_number 63
_symmetry_cell_setting 'orthorhombic'
loop_
_space_group_symop_operation_xyz
x,y,z
-x,-y,1/2+z
x,-y,-z
-x,y,1/2-z
-x,-y,-z
x,y,1/2-z
-x,y,z
x,-y,1/2+z
1/2+x,1/2+y,z
1/2-x,1/2-y,1/2+z
1/2+x,1/2-y,-z
1/2-x,1/2+y,1/2-z
1/2-x,1/2-y,-z
1/2+x,1/2+y,1/2-z
1/2-x,1/2+y,z
1/2+x,1/2-y,1/2+z
loop_
_atom_site_type_symbol
_atom_site_label
_atom_site_fract_x
_atom_site_fract_y
_atom_site_fract_z
Si Si1 0.000000 0.195172 0.876645
Si Si2 0.773994 0.895366 0.882421
Si Si3 0.500000 0.856225 0.904890
Si Si4 0.353006 0.703860 0.250000
Si Si5 0.697375 0.667038 0.750000
Si Si6 0.740039 0.498824 0.750000
Si Si7 0.500000 0.078187 0.250000
Si Si8 0.500000 0.585626 0.008812
O O1 0.882057 0.189090 0.821994
O O2 0.000000 0.271459 0.919301
O O3 0.000000 0.129170 0.932795
O O4 0.636082 0.892084 0.920797
O O5 0.790481 0.831221 0.822832
O O6 0.803678 0.962680 0.827356
O O7 0.878352 0.892613 0.944449
O O8 0.500000 0.868463 0.817482
O O9 0.500000 0.687556 0.250000
O O10 0.323770 0.787620 0.250000
O O11 0.716548 0.582313 0.750000
O O12 0.882849 0.473460 0.750000
O O13 0.500000 0.500000 0.000000
#
# Coordination Sequence:
#
# PCOD9469582 Si02
#       8
#     8  16   8   8   8   8   4   8
#     4  11  23  36  62  82 118 156 196 247 303 352
#     4  10  21  39  63  85 120 160 205 242 300 359
#     4  10  18  38  59  84 108 155 202 244 291 358
#     4  11  20  36  63  91 120 152 198 254 290 355
#     4  11  21  37  57  90 118 149 199 249 301 347
#     4   9  19  32  58  85 116 156 198 242 299 355
#     4   8  16  32  56  80 108 150 192 242 294 354
#     4  12  25  41  59  87 127 159 199 250 301 359
#
# _framework density 18.80979
#
# number of rings (size 3 to 8) (size 9 to 14) (size 15 to 20)
#    0.000    1.647    3.529    2.824    0.824    1.882 
#    0.000    0.588    0.000    0.000    0.000    0.000 
#    0.000    0.000    0.000    0.000    0.000    0.000 
#
# Total GULP energy -189430.488731 kJ/mol
# GULP energy per Si atom -5571.484963 kJ/mol
# Density = 1.876698 g / cm^3
# Si number density = 18.809790 Si / 1000 Ang^3
#
#
#
# Elastic Constant Matrix: (Units=GPa)
#
#
# Indices 1 2 3 4 5 6 
#
# 1 104.5431 4.8044 29.2837 0.0000 0.0000 0.0000
# 2 4.8044 108.4899 4.5534 0.0000 0.0000 0.0000
# 3 29.2837 4.5534 61.0546 0.0000 0.0000 0.0000
# 4 0.0000 0.0000 0.0000 4.9229 0.0000 0.0000
# 5 0.0000 0.0000 0.0000 0.0000 -126.0495 0.0000
# 6 0.0000 0.0000 0.0000 0.0000 0.0000 14.1630
#
#
#
# Elastic Compliance Matrix: (Units=1/GPa)
#
#
# Indices 1 2 3 4 5 6 
#
# 1 0.011058 -0.000268 -0.005284 0.000000 0.000000 0.000000
# 2 -0.000268 0.009253 -0.000562 0.000000 0.000000 0.000000
# 3 -0.005284 -0.000562 0.018955 0.000000 0.000000 0.000000
# 4 0.000000 0.000000 0.000000 0.203133 0.000000 0.000000
# 5 0.000000 0.000000 0.000000 0.000000 -0.007933 0.000000
# 6 0.000000 0.000000 0.000000 0.000000 0.000000 0.070606
#
#
# Mechanical properties :
#
#
# Convention : Reuss Voigt Hill
#
# Bulk Modulus (GPa) = 36.98335 39.04117 38.01226
# Shear Modulus (GPa) = 15.32282 -5.69631 4.81325
#
# Velocity S-wave (km/s) = 2.85725 -1.74211 1.60139
# Velocity P-wave (km/s) = 5.53079 4.09319 4.86538
#
# Compressibility (1/GPa) = 0.02703920
#
# Stress axis : x y z
#
# Youngs Moduli (GPa) = 90.43423 108.07444 52.75691
#
# Poissons Ratio (x) = 0.02896 0.27875
# Poissons Ratio (y) = 0.02423 0.02963
# Poissons Ratio (z) = 0.47782 0.06069
#
# Static dielectric constant tensor:
#      x y z
#    x 1.701910 0.000000 0.000000 
#    y 0.000000 1.673040 0.000000 
#    z 0.000000 0.000000 1.637310 
# 
# From -- ./inp_files/41973.got.cif
#   From: 2010.05.17/outbox.cif.g08.bks.cpg/sg63_21_cif.got.tgz:41973.got - 2010.06.03 15:47:04.
