data_PCOD9469273
_publ_section_title
;
Structure prediction by ZEFSAII (Michael W. Deem and Ramdas Pophale) SiO2 
 PCOD9469273
Probable space group: C M C M
;
_chemical_formula_sum "Si O2"
_cell_formula_units_Z 72
_cell_length_a 26.272947
_cell_length_b 17.534613
_cell_length_c 8.562950
_cell_angle_alpha 90.000000
_cell_angle_beta 90.000000
_cell_angle_gamma 90.000000
_cell_volume 3944.830824
_symmetry_space_group_name_H-M "C M C M"
_symmetry_group_IT_number 63
_symmetry_cell_setting 'orthorhombic'
loop_
_space_group_symop_operation_xyz
x,y,z
-x,-y,1/2+z
x,-y,-z
-x,y,1/2-z
-x,-y,-z
x,y,1/2-z
-x,y,z
x,-y,1/2+z
1/2+x,1/2+y,z
1/2-x,1/2-y,1/2+z
1/2+x,1/2-y,-z
1/2-x,1/2+y,1/2-z
1/2-x,1/2-y,-z
1/2+x,1/2+y,1/2-z
1/2-x,1/2+y,z
1/2+x,1/2-y,1/2+z
loop_
_atom_site_type_symbol
_atom_site_label
_atom_site_fract_x
_atom_site_fract_y
_atom_site_fract_z
Si Si1 0.057861 0.374782 0.565518
Si Si2 0.411575 0.700410 0.562178
Si Si3 0.500000 0.586553 0.940267
Si Si4 0.341049 0.920781 0.068926
Si Si5 0.306105 0.761535 0.564999
O O1 0.070395 0.386579 0.750000
O O2 0.063669 0.283804 0.535702
O O3 0.098254 0.416731 0.457857
O O4 0.000000 0.397689 0.538912
O O5 0.408675 0.691467 0.750000
O O6 0.449750 0.634265 0.506700
O O7 0.353124 0.708733 0.503640
O O8 0.500000 0.586248 0.750000
O O9 0.500000 0.500000 0.000000
O O10 0.328427 0.913541 0.250000
O O11 0.321180 0.847951 0.975528
O O12 0.321678 0.000000 0.000000
O O13 0.304590 0.751215 0.750000
O O14 0.250000 0.750000 0.500000
#
# Coordination Sequence:
#
# PCOD9469273 Si02
#       5
#    16  16   8  16  16
#     4   9  16  30  53  77 101 138 181 218 260 320
#     4   8  15  30  54  76 102 140 182 218 264 326
#     4  10  18  32  52  78 109 144 181 224 273 328
#     4  11  22  36  53  77 109 142 176 221 272 323
#     4  10  20  37  60  84 106 140 186 232 277 335
#
# _framework density 18.251733000000002
#
# number of rings (size 3 to 8) (size 9 to 14) (size 15 to 20)
#    0.000    2.444    1.111    4.000    0.000    0.889 
#    0.000    6.667    0.000    2.667    0.000    0.000 
#    0.000    0.000    0.000    0.000    0.000    0.000 
#
# Total GULP energy -200657.318584 kJ/mol
# GULP energy per Si atom -5573.814405 kJ/mol
# Density = 1.821019 g / cm^3
# Si number density = 18.251733 Si / 1000 Ang^3
#
#
#
# Elastic Constant Matrix: (Units=GPa)
#
#
# Indices 1 2 3 4 5 6 
#
# 1 132.5293 43.0501 18.2708 0.0000 0.0000 0.0000
# 2 43.0501 90.9134 1.7783 0.0000 0.0000 0.0000
# 3 18.2708 1.7783 23.2906 0.0000 0.0000 0.0000
# 4 0.0000 0.0000 0.0000 25.3175 0.0000 0.0000
# 5 0.0000 0.0000 0.0000 0.0000 28.8550 0.0000
# 6 0.0000 0.0000 0.0000 0.0000 0.0000 1.9056
#
#
#
# Elastic Compliance Matrix: (Units=1/GPa)
#
#
# Indices 1 2 3 4 5 6 
#
# 1 0.010093 -0.004631 -0.007564 0.000000 0.000000 0.000000
# 2 -0.004631 0.013141 0.002630 0.000000 0.000000 0.000000
# 3 -0.007564 0.002630 0.048669 0.000000 0.000000 0.000000
# 4 0.000000 0.000000 0.000000 0.039498 0.000000 0.000000
# 5 0.000000 0.000000 0.000000 0.000000 0.034656 0.000000
# 6 0.000000 0.000000 0.000000 0.000000 0.000000 0.524772
#
#
# Mechanical properties :
#
#
# Convention : Reuss Voigt Hill
#
# Bulk Modulus (GPa) = 18.94955 41.43686 30.19320
# Shear Modulus (GPa) = 7.06664 23.45789 15.26226
#
# Velocity S-wave (km/s) = 1.96981 3.58892 2.89487
# Velocity P-wave (km/s) = 3.94695 6.31870 5.26804
#
# Compressibility (1/GPa) = 0.05277170
#
# Stress axis : x y z
#
# Youngs Moduli (GPa) = 99.08217 76.09746 20.54713
#
# Poissons Ratio (x) = 0.35242 0.15541
# Poissons Ratio (y) = 0.45887 -0.05403
# Poissons Ratio (z) = 0.74943 -0.20011
#
# Static dielectric constant tensor:
#      x y z
#    x 1.671970 0.000000 0.000000 
#    y 0.000000 1.611390 0.000000 
#    z 0.000000 0.000000 1.615520 
# 
# From -- ./inp_files/11676.got.cif
#   From: 2010.05.17/outbox.cif.g08.bks.cpg/sg63_6_cif.got.tgz:11676.got - 2010.06.03 15:47:04.
