data_PCOD9469523
_publ_section_title
;
Structure prediction by ZEFSAII (Michael W. Deem and Ramdas Pophale) SiO2 
 PCOD9469523
Probable space group: C M C M
;
_chemical_formula_sum "Si O2"
_cell_formula_units_Z 80
_cell_length_a 27.067070
_cell_length_b 10.553973
_cell_length_c 15.015701
_cell_angle_alpha 90.000000
_cell_angle_beta 90.000000
_cell_angle_gamma 90.000000
_cell_volume 4289.462118
_symmetry_space_group_name_H-M "C M C M"
_symmetry_group_IT_number 63
_symmetry_cell_setting 'orthorhombic'
loop_
_space_group_symop_operation_xyz
x,y,z
-x,-y,1/2+z
x,-y,-z
-x,y,1/2-z
-x,-y,-z
x,y,1/2-z
-x,y,z
x,-y,1/2+z
1/2+x,1/2+y,z
1/2-x,1/2-y,1/2+z
1/2+x,1/2-y,-z
1/2-x,1/2+y,1/2-z
1/2-x,1/2-y,-z
1/2+x,1/2+y,1/2-z
1/2-x,1/2+y,z
1/2+x,1/2-y,1/2+z
loop_
_atom_site_type_symbol
_atom_site_label
_atom_site_fract_x
_atom_site_fract_y
_atom_site_fract_z
Si Si1 0.349363 0.520781 0.392185
Si Si2 0.798187 0.727328 0.853193
Si Si3 0.313546 0.746820 0.650028
Si Si4 0.622538 0.857917 0.003624
Si Si5 0.055380 0.873336 0.560960
O O1 0.345703 0.500000 0.500000
O O2 0.309433 0.622970 0.362544
O O3 0.342166 0.385923 0.349292
O O4 0.402414 0.582892 0.370461
O O5 0.802273 0.688693 0.750000
O O6 0.741547 0.711951 0.882837
O O7 0.838880 0.660323 0.914726
O O8 0.309144 0.799020 0.750000
O O9 0.343839 0.833769 0.583142
O O10 0.580948 0.747987 0.012963
O O11 0.602202 0.000000 0.000000
O O12 0.000000 0.843347 0.591907
O O13 0.051519 0.000000 0.500000
#
# Coordination Sequence:
#
# PCOD9469523 Si02
#       5
#    16  16  16  16  16
#     4  10  18  35  58  84 109 146 190 240 281 329
#     4  10  22  35  54  79 114 157 196 232 278 340
#     4  11  22  35  53  81 116 157 193 230 281 340
#     4  11  23  37  57  84 117 151 188 239 289 337
#     4   9  17  36  64  85 107 143 191 235 287 339
#
# _framework density 18.650355999999999
#
# number of rings (size 3 to 8) (size 9 to 14) (size 15 to 20)
#    0.000    1.800    6.000    1.200    2.800    1.200 
#    0.000    0.000    0.000   16.800    0.000    5.600 
#    0.000    0.000    0.000    0.000    0.000    0.000 
#
# Total GULP energy -222866.659810 kJ/mol
# GULP energy per Si atom -5571.666495 kJ/mol
# Density = 1.860791 g / cm^3
# Si number density = 18.650356 Si / 1000 Ang^3
#
#
#
# Elastic Constant Matrix: (Units=GPa)
#
#
# Indices 1 2 3 4 5 6 
#
# 1 115.0415 29.7338 18.6656 0.0000 0.0000 0.0000
# 2 29.7338 106.8675 8.7356 0.0000 0.0000 0.0000
# 3 18.6656 8.7356 59.4961 0.0000 0.0000 0.0000
# 4 0.0000 0.0000 0.0000 -8.0903 0.0000 0.0000
# 5 0.0000 0.0000 0.0000 0.0000 -17.6259 0.0000
# 6 0.0000 0.0000 0.0000 0.0000 0.0000 10.1691
#
#
#
# Elastic Compliance Matrix: (Units=1/GPa)
#
#
# Indices 1 2 3 4 5 6 
#
# 1 0.009777 -0.002499 -0.002700 0.000000 0.000000 0.000000
# 2 -0.002499 0.010110 -0.000700 0.000000 0.000000 0.000000
# 3 -0.002700 -0.000700 0.017758 0.000000 0.000000 0.000000
# 4 0.000000 0.000000 0.000000 -0.123606 0.000000 0.000000
# 5 0.000000 0.000000 0.000000 0.000000 -0.056735 0.000000
# 6 0.000000 0.000000 0.000000 0.000000 0.000000 0.098337
#
#
# Mechanical properties :
#
#
# Convention : Reuss Voigt Hill
#
# Bulk Modulus (GPa) = 38.69282 43.96389 41.32836
# Shear Modulus (GPa) = -208.81902 11.84193 -98.48855
#
# Velocity S-wave (km/s) = -10.59284 2.52254 -7.27479
# Velocity P-wave (km/s) = 11.34987 5.66641 6.95382
#
# Compressibility (1/GPa) = 0.02584459
#
# Stress axis : x y z
#
# Youngs Moduli (GPa) = 102.28460 98.91152 56.31340
#
# Poissons Ratio (x) = 0.24722 0.15206
# Poissons Ratio (y) = 0.25565 0.03943
# Poissons Ratio (z) = 0.27619 0.06926
#
# Static dielectric constant tensor:
#      x y z
#    x 1.657500 0.000000 0.000000 
#    y 0.000000 1.661070 0.000000 
#    z 0.000000 0.000000 1.672790 
# 
# From -- ./inp_files/37707.got.cif
#   From: 2010.05.17/outbox.cif.g08.bks.cpg/sg63_19_cif.got.tgz:37707.got - 2010.06.03 15:47:04.
