data_PCOD9469812
_publ_section_title
;
Structure prediction by ZEFSAII (Michael W. Deem and Ramdas Pophale) SiO2 
 PCOD9469812
Probable space group: C M C M
;
_chemical_formula_sum "Si O2"
_cell_formula_units_Z 96
_cell_length_a 11.749654
_cell_length_b 18.279492
_cell_length_c 17.765794
_cell_angle_alpha 90.000000
_cell_angle_beta 90.000000
_cell_angle_gamma 90.000000
_cell_volume 3815.696486
_symmetry_space_group_name_H-M "C M C M"
_symmetry_group_IT_number 63
_symmetry_cell_setting 'orthorhombic'
loop_
_space_group_symop_operation_xyz
x,y,z
-x,-y,1/2+z
x,-y,-z
-x,y,1/2-z
-x,-y,-z
x,y,1/2-z
-x,y,z
x,-y,1/2+z
1/2+x,1/2+y,z
1/2-x,1/2-y,1/2+z
1/2+x,1/2-y,-z
1/2-x,1/2+y,1/2-z
1/2-x,1/2-y,-z
1/2+x,1/2+y,1/2-z
1/2-x,1/2+y,z
1/2+x,1/2-y,1/2+z
loop_
_atom_site_type_symbol
_atom_site_label
_atom_site_fract_x
_atom_site_fract_y
_atom_site_fract_z
Si Si1 0.136406 0.982771 0.333472
Si Si2 0.000000 0.370510 0.159633
Si Si3 0.625448 0.680380 0.840699
Si Si4 0.372533 0.915582 0.973146
Si Si5 0.371693 0.389773 0.949969
Si Si6 0.334867 0.259443 0.840455
Si Si7 0.500000 0.956308 0.838561
O O1 0.182239 0.003855 0.250000
O O2 0.173476 0.900941 0.352701
O O3 0.000000 0.977572 0.325280
O O4 0.152024 0.037038 0.401955
O O5 0.105281 0.317665 0.140912
O O6 0.000000 0.456671 0.142603
O O7 0.000000 0.372771 0.250000
O O8 0.618882 0.684245 0.750000
O O9 0.500000 0.687786 0.872747
O O10 0.705109 0.746041 0.863225
O O11 0.500000 0.886697 0.999248
O O12 0.250790 0.878942 0.991060
O O13 0.393374 0.921085 0.882597
O O14 0.367160 0.000000 0.000000
O O15 0.500000 0.397382 0.984998
O O16 0.380700 0.325175 0.889210
O O17 0.346946 0.272169 0.750000
O O18 0.500000 0.945013 0.750000
#
# Coordination Sequence:
#
# PCOD9469812 Si02
#       7
#    16   8  16  16  16  16   8
#     4   8  15  27  45  73 110 145 184 238 294 340
#     4   9  18  31  49  79 118 153 185 233 298 354
#     4   8  15  27  42  63  96 145 191 227 280 349
#     4   9  22  43  62  86 118 160 192 240 309 352
#     4  11  21  33  54  83 109 151 199 241 277 347
#     4  10  19  30  46  74 119 159 182 226 302 358
#     4   9  19  37  65  95 113 143 203 255 285 345
#
# _framework density 25.159234000000001
#
# number of rings (size 3 to 8) (size 9 to 14) (size 15 to 20)
#    0.500    2.333    0.833    1.500    2.333    3.000 
#    0.000    0.000    0.000    1.000    0.000    0.000 
#    0.000    0.000    0.000    0.000    0.000    0.000 
#
# Total GULP energy -267748.856088 kJ/mol
# GULP energy per Si atom -5578.101169 kJ/mol
# Density = 2.510197 g / cm^3
# Si number density = 25.159234 Si / 1000 Ang^3
#
#
#
# Elastic Constant Matrix: (Units=GPa)
#
#
# Indices 1 2 3 4 5 6 
#
# 1 167.4468 38.0138 38.0673 0.0000 0.0000 0.0000
# 2 38.0138 43.1673 -11.1183 0.0000 0.0000 0.0000
# 3 38.0673 -11.1183 98.0782 0.0000 0.0000 0.0000
# 4 0.0000 0.0000 0.0000 14.2978 0.0000 0.0000
# 5 0.0000 0.0000 0.0000 0.0000 17.9555 0.0000
# 6 0.0000 0.0000 0.0000 0.0000 0.0000 577.0512
#
#
#
# Elastic Compliance Matrix: (Units=1/GPa)
#
#
# Indices 1 2 3 4 5 6 
#
# 1 0.009098 -0.009190 -0.004573 0.000000 0.000000 0.000000
# 2 -0.009190 0.033145 0.007324 0.000000 0.000000 0.000000
# 3 -0.004573 0.007324 0.012801 0.000000 0.000000 0.000000
# 4 0.000000 0.000000 0.000000 0.069941 0.000000 0.000000
# 5 0.000000 0.000000 0.000000 0.000000 0.055693 0.000000
# 6 0.000000 0.000000 0.000000 0.000000 0.000000 0.001733
#
#
# Mechanical properties :
#
#
# Convention : Reuss Voigt Hill
#
# Bulk Modulus (GPa) = 23.71534 48.73532 36.22533
# Shear Modulus (GPa) = 23.88426 138.10953 80.99690
#
# Velocity S-wave (km/s) = 3.08445 7.41710 5.68011
# Velocity P-wave (km/s) = 4.70443 9.63140 7.57943
#
# Compressibility (1/GPa) = 0.04216680
#
# Stress axis : x y z
#
# Youngs Moduli (GPa) = 109.91588 30.17086 78.11818
#
# Poissons Ratio (x) = 0.27726 0.35723
# Poissons Ratio (y) = 1.01008 -0.57214
# Poissons Ratio (z) = 0.50264 -0.22097
#
# Static dielectric constant tensor:
#      x y z
#    x 2.192860 0.000000 0.000000 
#    y 0.000000 1.912590 0.000000 
#    z 0.000000 0.000000 2.003780 
# 
# From -- ./inp_files/61705.got.cif
#   From: 2010.05.17/outbox.cif.g08.bks.cpg/sg63_31_cif.got.tgz:61705.got - 2010.06.03 15:47:04.
