data_PCOD9470308
_publ_section_title
;
Structure prediction by ZEFSAII (Michael W. Deem and Ramdas Pophale) SiO2 
 PCOD9470308
Probable space group: C M C M
;
_chemical_formula_sum "Si O2"
_cell_formula_units_Z 112
_cell_length_a 28.543246
_cell_length_b 17.122093
_cell_length_c 15.816139
_cell_angle_alpha 90.000000
_cell_angle_beta 90.000000
_cell_angle_gamma 90.000000
_cell_volume 7729.665232
_symmetry_space_group_name_H-M "C M C M"
_symmetry_group_IT_number 63
_symmetry_cell_setting 'orthorhombic'
loop_
_space_group_symop_operation_xyz
x,y,z
-x,-y,1/2+z
x,-y,-z
-x,y,1/2-z
-x,-y,-z
x,y,1/2-z
-x,y,z
x,-y,1/2+z
1/2+x,1/2+y,z
1/2-x,1/2-y,1/2+z
1/2+x,1/2-y,-z
1/2-x,1/2+y,1/2-z
1/2-x,1/2-y,-z
1/2+x,1/2+y,1/2-z
1/2-x,1/2+y,z
1/2+x,1/2-y,1/2+z
loop_
_atom_site_type_symbol
_atom_site_label
_atom_site_fract_x
_atom_site_fract_y
_atom_site_fract_z
Si Si1 0.552304 0.670105 0.351355
Si Si2 0.241269 0.118955 0.154546
Si Si3 0.140601 0.924156 0.442387
Si Si4 0.053712 0.986461 0.350343
Si Si5 0.848962 0.791707 0.920847
Si Si6 0.268741 0.568266 0.845062
Si Si7 0.781746 0.672685 0.986896
O O1 0.550613 0.674184 0.250000
O O2 0.500000 0.694063 0.382450
O O3 0.558803 0.578188 0.372760
O O4 0.599666 0.712278 0.380076
O O5 0.255313 0.140967 0.250000
O O6 0.191931 0.163940 0.133914
O O7 0.235650 0.025472 0.151205
O O8 0.278475 0.137538 0.080742
O O9 0.089439 0.938172 0.405770
O O10 0.145429 0.848113 0.498897
O O11 0.177046 0.917195 0.366183
O O12 0.153168 0.000000 0.500000
O O13 0.063440 0.979351 0.250000
O O14 0.000000 0.964320 0.364953
O O15 0.829422 0.708159 0.950218
O O16 0.256035 0.594212 0.750000
O O17 0.240401 0.613428 0.918450
O O18 0.750000 0.750000 0.000000
#
# Coordination Sequence:
#
# PCOD9470308 Si02
#       7
#    16  16  16  16  16  16  16
#     4   9  17  29  44  62  87 120 157 192 228 269
#     4  10  19  32  50  66  89 122 154 192 232 272
#     4  12  18  28  44  61  90 118 157 196 225 265
#     4   9  18  30  42  60  85 116 158 200 229 255
#     4  11  20  30  44  66  94 122 152 190 231 272
#     4  11  20  32  49  66  86 119 157 194 230 271
#     4  10  20  33  44  65  94 120 152 190 225 278
#
# _framework density 14.489630999999999
#
# number of rings (size 3 to 8) (size 9 to 14) (size 15 to 20)
#    0.000    1.714    5.714    2.143    0.000    6.000 
#    0.000    0.000    0.000    0.000    0.000    0.000 
#    0.000    2.286    0.000    3.143    0.000    0.714 
#
# Total GULP energy -311898.806694 kJ/mol
# GULP energy per Si atom -5569.621548 kJ/mol
# Density = 1.445665 g / cm^3
# Si number density = 14.489631 Si / 1000 Ang^3
#
#
#
# Elastic Constant Matrix: (Units=GPa)
#
#
# Indices 1 2 3 4 5 6 
#
# 1 70.1544 27.6470 37.0773 0.0000 0.0000 0.0000
# 2 27.6470 28.3638 31.8077 0.0000 0.0000 0.0000
# 3 37.0773 31.8077 94.7285 0.0000 0.0000 0.0000
# 4 0.0000 0.0000 0.0000 16.6085 0.0000 0.0000
# 5 0.0000 0.0000 0.0000 0.0000 24.2660 0.0000
# 6 0.0000 0.0000 0.0000 0.0000 0.0000 21.2795
#
#
#
# Elastic Compliance Matrix: (Units=1/GPa)
#
#
# Indices 1 2 3 4 5 6 
#
# 1 0.023484 -0.020183 -0.002415 0.000000 0.000000 0.000000
# 2 -0.020183 0.073895 -0.016913 0.000000 0.000000 0.000000
# 3 -0.002415 -0.016913 0.017181 0.000000 0.000000 0.000000
# 4 0.000000 0.000000 0.000000 0.060210 0.000000 0.000000
# 5 0.000000 0.000000 0.000000 0.000000 0.041210 0.000000
# 6 0.000000 0.000000 0.000000 0.000000 0.000000 0.046994
#
#
# Mechanical properties :
#
#
# Convention : Reuss Voigt Hill
#
# Bulk Modulus (GPa) = 28.13786 42.92341 35.53063
# Shear Modulus (GPa) = 14.13063 18.87843 16.50453
#
# Velocity S-wave (km/s) = 3.12624 3.61348 3.37865
# Velocity P-wave (km/s) = 5.70023 6.86276 6.30833
#
# Compressibility (1/GPa) = 0.03553931
#
# Stress axis : x y z
#
# Youngs Moduli (GPa) = 42.58146 13.53270 58.20500
#
# Poissons Ratio (x) = 0.27313 0.14057
# Poissons Ratio (y) = 0.85941 0.98440
# Poissons Ratio (z) = 0.10284 0.22887
#
# Static dielectric constant tensor:
#      x y z
#    x 1.494260 0.000000 0.000000 
#    y 0.000000 1.475360 0.000000 
#    z 0.000000 0.000000 1.517300 
# 
# From -- ./inp_files/38702.got.cif
#   From: 2010.05.17/outbox.cif.g08.bks.cpg/sg63_20_cif.got.tgz:38702.got - 2010.06.03 15:47:04.
