data_PCOD9470909
_publ_section_title
;
Structure prediction by ZEFSAII (Michael W. Deem and Ramdas Pophale) SiO2 
 PCOD9470909
Probable space group: C M C M
;
_chemical_formula_sum "Si O2"
_cell_formula_units_Z 80
_cell_length_a 25.455987
_cell_length_b 9.384715
_cell_length_c 18.213528
_cell_angle_alpha 90.000000
_cell_angle_beta 90.000000
_cell_angle_gamma 90.000000
_cell_volume 4351.160532
_symmetry_space_group_name_H-M "C M C M"
_symmetry_group_IT_number 63
_symmetry_cell_setting 'orthorhombic'
loop_
_space_group_symop_operation_xyz
x,y,z
-x,-y,1/2+z
x,-y,-z
-x,y,1/2-z
-x,-y,-z
x,y,1/2-z
-x,y,z
x,-y,1/2+z
1/2+x,1/2+y,z
1/2-x,1/2-y,1/2+z
1/2+x,1/2-y,-z
1/2-x,1/2+y,1/2-z
1/2-x,1/2-y,-z
1/2+x,1/2+y,1/2-z
1/2-x,1/2+y,z
1/2+x,1/2-y,1/2+z
loop_
_atom_site_type_symbol
_atom_site_label
_atom_site_fract_x
_atom_site_fract_y
_atom_site_fract_z
Si Si1 0.439603 0.399831 0.606315
Si Si2 0.803771 0.330929 0.016647
Si Si3 0.640353 0.808731 0.331146
Si Si4 0.409985 0.708390 0.548484
Si Si5 0.058195 0.436389 0.666951
O O1 0.500000 0.412791 0.630388
O O2 0.400175 0.322009 0.660918
O O3 0.416232 0.553561 0.584918
O O4 0.437542 0.307367 0.530834
O O5 0.819484 0.307951 0.101719
O O6 0.800805 0.500000 0.000000
O O7 0.750000 0.250000 0.000000
O O8 0.851016 0.259954 0.969602
O O9 0.664338 0.810009 0.250000
O O10 0.603490 0.947303 0.340047
O O11 0.435266 0.820755 0.603745
O O12 0.061844 0.375095 0.750000
O O13 0.000000 0.503076 0.660804
#
# Coordination Sequence:
#
# PCOD9470909 Si02
#       5
#    16  16  16  16  16
#     4  10  20  33  57  87 124 166 199 236 285 352
#     4  11  24  42  67  89 112 153 204 258 310 358
#     4  10  22  40  59  89 126 155 194 246 298 357
#     4  10  20  37  56  85 121 154 204 252 289 351
#     4  10  19  33  56  85 121 160 194 237 294 357
#
# _framework density 18.385898999999998
#
# number of rings (size 3 to 8) (size 9 to 14) (size 15 to 20)
#    0.000    1.800    2.000    3.000    5.600    2.000 
#    0.000    5.000    0.000    0.000    0.000    0.000 
#    0.000    0.000    0.000    0.000    0.000    0.000 
#
# Total GULP energy -223226.103185 kJ/mol
# GULP energy per Si atom -5580.652580 kJ/mol
# Density = 1.834405 g / cm^3
# Si number density = 18.385899 Si / 1000 Ang^3
#
#
#
# Elastic Constant Matrix: (Units=GPa)
#
#
# Indices 1 2 3 4 5 6 
#
# 1 132.2726 42.3915 48.3537 0.0000 0.0000 0.0000
# 2 42.3915 61.9092 31.8981 0.0000 0.0000 0.0000
# 3 48.3537 31.8981 105.2519 0.0000 0.0000 0.0000
# 4 0.0000 0.0000 0.0000 22.7678 0.0000 0.0000
# 5 0.0000 0.0000 0.0000 0.0000 28.0892 0.0000
# 6 0.0000 0.0000 0.0000 0.0000 0.0000 26.9749
#
#
#
# Elastic Compliance Matrix: (Units=1/GPa)
#
#
# Indices 1 2 3 4 5 6 
#
# 1 0.010490 -0.005569 -0.003131 0.000000 0.000000 0.000000
# 2 -0.005569 0.022099 -0.004139 0.000000 0.000000 0.000000
# 3 -0.003131 -0.004139 0.012194 0.000000 0.000000 0.000000
# 4 0.000000 0.000000 0.000000 0.043922 0.000000 0.000000
# 5 0.000000 0.000000 0.000000 0.000000 0.035601 0.000000
# 6 0.000000 0.000000 0.000000 0.000000 0.000000 0.037071
#
#
# Mechanical properties :
#
#
# Convention : Reuss Voigt Hill
#
# Bulk Modulus (GPa) = 52.34601 60.52448 56.43524
# Shear Modulus (GPa) = 25.85014 27.35241 26.60127
#
# Velocity S-wave (km/s) = 3.75370 3.86124 3.80785
# Velocity P-wave (km/s) = 6.87892 7.27113 7.07774
#
# Compressibility (1/GPa) = 0.01910365
#
# Stress axis : x y z
#
# Youngs Moduli (GPa) = 95.33176 45.25163 82.00889
#
# Poissons Ratio (x) = 0.25202 0.25678
# Poissons Ratio (y) = 0.53094 0.33941
# Poissons Ratio (z) = 0.29850 0.18728
#
# Static dielectric constant tensor:
#      x y z
#    x 1.615750 0.000000 0.000000 
#    y 0.000000 1.643330 0.000000 
#    z 0.000000 0.000000 1.648050 
# 
# From -- ./inp_files/48760.got.cif
#   From: 2010.05.17/outbox.cif.g08.bks.cpg/sg63_25_cif.got.tgz:48760.got - 2010.06.03 15:47:04.
