data_PCOD9470969
_publ_section_title
;
Structure prediction by ZEFSAII (Michael W. Deem and Ramdas Pophale) SiO2 
 PCOD9470969
Probable space group: C M C M
;
_chemical_formula_sum "Si O2"
_cell_formula_units_Z 96
_cell_length_a 26.231648
_cell_length_b 24.349355
_cell_length_c 7.622756
_cell_angle_alpha 90.000000
_cell_angle_beta 90.000000
_cell_angle_gamma 90.000000
_cell_volume 4868.834988
_symmetry_space_group_name_H-M "C M C M"
_symmetry_group_IT_number 63
_symmetry_cell_setting 'orthorhombic'
loop_
_space_group_symop_operation_xyz
x,y,z
-x,-y,1/2+z
x,-y,-z
-x,y,1/2-z
-x,-y,-z
x,y,1/2-z
-x,y,z
x,-y,1/2+z
1/2+x,1/2+y,z
1/2-x,1/2-y,1/2+z
1/2+x,1/2-y,-z
1/2-x,1/2+y,1/2-z
1/2-x,1/2-y,-z
1/2+x,1/2+y,1/2-z
1/2-x,1/2+y,z
1/2+x,1/2-y,1/2+z
loop_
_atom_site_type_symbol
_atom_site_label
_atom_site_fract_x
_atom_site_fract_y
_atom_site_fract_z
Si Si1 0.146964 0.138479 0.455536
Si Si2 0.557948 0.437633 0.538853
Si Si3 0.810059 0.252410 0.461091
Si Si4 0.742841 0.564225 0.958931
Si Si5 0.942832 0.563751 0.960725
Si Si6 0.656009 0.872097 0.035012
O O1 0.135916 0.147499 0.250000
O O2 0.098333 0.106379 0.530900
O O3 0.162595 0.197598 0.530892
O O4 0.195622 0.098509 0.467056
O O5 0.574611 0.500000 0.500000
O O6 0.556461 0.432926 0.750000
O O7 0.500000 0.430796 0.472964
O O8 0.814651 0.252167 0.250000
O O9 0.750000 0.250000 0.500000
O O10 0.833482 0.309902 0.523366
O O11 0.740736 0.571081 0.750000
O O12 0.796304 0.590183 0.020450
O O13 0.739593 0.500000 0.000000
O O14 0.944321 0.569341 0.750000
O O15 0.897292 0.602171 0.025573
O O16 0.000000 0.575807 0.027844
O O17 0.931527 0.500000 0.000000
O O18 0.655538 0.872329 0.250000
#
# Coordination Sequence:
#
# PCOD9470969 Si02
#       6
#    16  16  16  16  16  16
#     4  10  20  33  51  74  99 128 165 206 245 294
#     4   9  18  33  51  72  98 128 161 199 245 293
#     4  10  19  34  52  71  98 132 168 203 244 293
#     4  11  21  32  48  71 101 131 160 202 250 297
#     4   9  17  31  51  73  98 129 164 202 246 294
#     4   9  18  32  49  71  99 129 162 202 245 290
#
# _framework density 19.717241999999999
#
# number of rings (size 3 to 8) (size 9 to 14) (size 15 to 20)
#    0.000    2.333    1.667    1.500    0.000    2.000 
#    0.000    2.500    0.000    5.000    0.000    0.000 
#    0.000    6.667    0.000    0.000    0.000    0.000 
#
# Total GULP energy -267960.607980 kJ/mol
# GULP energy per Si atom -5582.512666 kJ/mol
# Density = 1.967236 g / cm^3
# Si number density = 19.717242 Si / 1000 Ang^3
#
#
#
# Elastic Constant Matrix: (Units=GPa)
#
#
# Indices 1 2 3 4 5 6 
#
# 1 131.3899 86.7387 -4.2697 0.0000 0.0000 0.0000
# 2 86.7387 152.7532 -8.4422 0.0000 0.0000 0.0000
# 3 -4.2697 -8.4422 41.0297 0.0000 0.0000 0.0000
# 4 0.0000 0.0000 0.0000 4.1204 0.0000 0.0000
# 5 0.0000 0.0000 0.0000 0.0000 22.4021 0.0000
# 6 0.0000 0.0000 0.0000 0.0000 0.0000 30.3334
#
#
#
# Elastic Compliance Matrix: (Units=1/GPa)
#
#
# Indices 1 2 3 4 5 6 
#
# 1 0.012176 -0.006923 -0.000157 0.000000 0.000000 0.000000
# 2 -0.006923 0.010558 0.001452 0.000000 0.000000 0.000000
# 3 -0.000157 0.001452 0.024655 0.000000 0.000000 0.000000
# 4 0.000000 0.000000 0.000000 0.242696 0.000000 0.000000
# 5 0.000000 0.000000 0.000000 0.000000 0.044639 0.000000
# 6 0.000000 0.000000 0.000000 0.000000 0.000000 0.032967
#
#
# Mechanical properties :
#
#
# Convention : Reuss Voigt Hill
#
# Bulk Modulus (GPa) = 27.67589 52.58072 40.12831
# Shear Modulus (GPa) = 12.78805 28.11425 20.45115
#
# Velocity S-wave (km/s) = 2.54947 3.78017 3.22409
# Velocity P-wave (km/s) = 4.76794 6.76596 5.85284
#
# Compressibility (1/GPa) = 0.03613254
#
# Stress axis : x y z
#
# Youngs Moduli (GPa) = 82.12987 94.71824 40.55978
#
# Poissons Ratio (x) = 0.65569 0.00638
# Poissons Ratio (y) = 0.56855 -0.05889
# Poissons Ratio (z) = 0.01292 -0.13752
#
# Static dielectric constant tensor:
#      x y z
#    x 1.684010 0.000000 0.000000 
#    y 0.000000 1.671770 0.000000 
#    z 0.000000 0.000000 1.743250 
# 
# From -- ./inp_files/10461.got.cif
#   From: 2010.05.17/outbox.cif.g08.bks.cpg/sg63_6_cif.got.tgz:10461.got - 2010.06.03 15:47:04.
