data_PCOD9470205
_publ_section_title
;
Structure prediction by ZEFSAII (Michael W. Deem and Ramdas Pophale) SiO2 
 PCOD9470205
Probable space group: C M C M
;
_chemical_formula_sum "Si O2"
_cell_formula_units_Z 96
_cell_length_a 14.447355
_cell_length_b 21.648817
_cell_length_c 14.808540
_cell_angle_alpha 90.000000
_cell_angle_beta 90.000000
_cell_angle_gamma 90.000000
_cell_volume 4631.639579
_symmetry_space_group_name_H-M "C M C M"
_symmetry_group_IT_number 63
_symmetry_cell_setting 'orthorhombic'
loop_
_space_group_symop_operation_xyz
x,y,z
-x,-y,1/2+z
x,-y,-z
-x,y,1/2-z
-x,-y,-z
x,y,1/2-z
-x,y,z
x,-y,1/2+z
1/2+x,1/2+y,z
1/2-x,1/2-y,1/2+z
1/2+x,1/2-y,-z
1/2-x,1/2+y,1/2-z
1/2-x,1/2-y,-z
1/2+x,1/2+y,1/2-z
1/2-x,1/2+y,z
1/2+x,1/2-y,1/2+z
loop_
_atom_site_type_symbol
_atom_site_label
_atom_site_fract_x
_atom_site_fract_y
_atom_site_fract_z
Si Si1 0.746123 0.604009 0.353379
Si Si2 0.103444 0.998556 0.391607
Si Si3 0.399251 0.646847 0.644304
Si Si4 0.803743 0.336681 0.359212
Si Si5 0.896210 0.791980 0.640225
Si Si6 0.608514 0.926074 0.497973
O O1 0.771906 0.617352 0.250000
O O2 0.684618 0.541653 0.355892
O O3 0.677100 0.656924 0.389059
O O4 0.834218 0.598743 0.416953
O O5 0.000000 0.020801 0.364528
O O6 0.108372 0.000000 0.500000
O O7 0.110881 0.927459 0.362526
O O8 0.403182 0.663166 0.750000
O O9 0.500000 0.663098 0.604066
O O10 0.302603 0.673700 0.610349
O O11 0.805094 0.344564 0.250000
O O12 0.863540 0.276668 0.383392
O O13 0.845508 0.395745 0.409626
O O14 0.896989 0.794891 0.750000
O O15 0.000000 0.804877 0.608845
O O16 0.500000 0.910783 0.501202
O O17 0.618150 0.000000 0.500000
#
# Coordination Sequence:
#
# PCOD9470205 Si02
#       6
#    16  16  16  16  16  16
#     4  11  22  37  58  83 116 157 194 234 289 349
#     4  10  19  31  51  81 115 146 179 226 283 340
#     4   9  17  29  48  77 110 141 174 215 268 332
#     4  10  20  38  63  86 113 152 194 239 294 351
#     4   9  19  36  59  88 117 148 194 244 286 340
#     4  11  25  42  59  84 116 149 196 253 299 348
#
# _framework density 20.727001000000001
#
# number of rings (size 3 to 8) (size 9 to 14) (size 15 to 20)
#    0.000    2.000    0.000    4.000    0.000    5.667 
#    0.000    3.333    0.000    3.000    0.000    0.000 
#    0.000    0.000    0.000    0.000    0.000    0.000 
#
# Total GULP energy -268205.679890 kJ/mol
# GULP energy per Si atom -5587.618331 kJ/mol
# Density = 2.067983 g / cm^3
# Si number density = 20.727001 Si / 1000 Ang^3
#
#
#
# Elastic Constant Matrix: (Units=GPa)
#
#
# Indices 1 2 3 4 5 6 
#
# 1 157.3223 34.1475 44.1149 0.0000 0.0000 0.0000
# 2 34.1475 33.8556 14.3714 0.0000 0.0000 0.0000
# 3 44.1149 14.3714 81.1337 0.0000 0.0000 0.0000
# 4 0.0000 0.0000 0.0000 16.7924 0.0000 0.0000
# 5 0.0000 0.0000 0.0000 0.0000 -36.7651 0.0000
# 6 0.0000 0.0000 0.0000 0.0000 0.0000 28.7983
#
#
#
# Elastic Compliance Matrix: (Units=1/GPa)
#
#
# Indices 1 2 3 4 5 6 
#
# 1 0.008994 -0.007564 -0.003550 0.000000 0.000000 0.000000
# 2 -0.007564 0.038301 -0.002671 0.000000 0.000000 0.000000
# 3 -0.003550 -0.002671 0.014729 0.000000 0.000000 0.000000
# 4 0.000000 0.000000 0.000000 0.059551 0.000000 0.000000
# 5 0.000000 0.000000 0.000000 0.000000 -0.027200 0.000000
# 6 0.000000 0.000000 0.000000 0.000000 0.000000 0.034724
#
#
# Mechanical properties :
#
#
# Convention : Reuss Voigt Hill
#
# Bulk Modulus (GPa) = 29.02632 50.84215 39.93424
# Shear Modulus (GPa) = 29.73454 13.74363 21.73908
#
# Velocity S-wave (km/s) = 3.79169 2.57782 3.24208
# Velocity P-wave (km/s) = 5.76227 5.78299 5.77264
#
# Compressibility (1/GPa) = 0.03445149
#
# Stress axis : x y z
#
# Youngs Moduli (GPa) = 111.18794 26.10921 67.89348
#
# Poissons Ratio (x) = 0.19750 0.24104
# Poissons Ratio (y) = 0.84105 0.18137
# Poissons Ratio (z) = 0.39475 0.06975
#
# Static dielectric constant tensor:
#      x y z
#    x 1.746720 0.000000 0.000000 
#    y 0.000000 1.716640 0.000000 
#    z 0.000000 0.000000 1.762100 
# 
# From -- ./inp_files/31890.got.cif
#   From: 2010.05.17/outbox.cif.g08.bks.cpg/sg63_16_cif.got.tgz:31890.got - 2010.06.03 15:47:04.
