data_PCOD9470754
_publ_section_title
;
Structure prediction by ZEFSAII (Michael W. Deem and Ramdas Pophale) SiO2 
 PCOD9470754
Probable space group: C M C M
;
_chemical_formula_sum "Si O2"
_cell_formula_units_Z 96
_cell_length_a 11.656760
_cell_length_b 33.587686
_cell_length_c 13.961386
_cell_angle_alpha 90.000000
_cell_angle_beta 90.000000
_cell_angle_gamma 90.000000
_cell_volume 5466.212033
_symmetry_space_group_name_H-M "C M C M"
_symmetry_group_IT_number 63
_symmetry_cell_setting 'orthorhombic'
loop_
_space_group_symop_operation_xyz
x,y,z
-x,-y,1/2+z
x,-y,-z
-x,y,1/2-z
-x,-y,-z
x,y,1/2-z
-x,y,z
x,-y,1/2+z
1/2+x,1/2+y,z
1/2-x,1/2-y,1/2+z
1/2+x,1/2-y,-z
1/2-x,1/2+y,1/2-z
1/2-x,1/2-y,-z
1/2+x,1/2+y,1/2-z
1/2-x,1/2+y,z
1/2+x,1/2-y,1/2+z
loop_
_atom_site_type_symbol
_atom_site_label
_atom_site_fract_x
_atom_site_fract_y
_atom_site_fract_z
Si Si1 0.768542 0.688513 0.966270
Si Si2 0.364607 0.605876 0.518653
Si Si3 0.000000 0.663217 0.864868
Si Si4 0.255644 0.961190 0.134918
Si Si5 0.500000 0.930428 0.133622
Si Si6 0.861843 0.739906 0.363781
Si Si7 0.633411 0.457809 0.863217
O O1 0.706137 0.646215 0.973572
O O2 0.886565 0.682938 0.908168
O O3 0.687621 0.719276 0.908877
O O4 0.801796 0.706286 0.070332
O O5 0.500000 0.613946 0.524701
O O6 0.326427 0.573819 0.598038
O O7 0.339508 0.582053 0.420651
O O8 0.000000 0.616259 0.891454
O O9 0.000000 0.666103 0.750000
O O10 0.256170 0.960130 0.250000
O O11 0.383697 0.951338 0.099829
O O12 0.209775 0.004602 0.107609
O O13 0.500000 0.932198 0.250000
O O14 0.836433 0.737019 0.250000
O O15 0.000000 0.738041 0.375012
O O16 0.645469 0.451732 0.750000
O O17 0.500000 0.467860 0.883333
#
# Coordination Sequence:
#
# PCOD9470754 Si02
#       7
#    16  16   8  16   8  16  16
#     4  11  22  38  61  86 115 148 188 230 281 346
#     4  11  22  35  55  82 112 144 184 234 281 329
#     4  11  20  36  58  84 116 152 188 228 276 334
#     4  10  19  33  53  79 110 147 188 229 277 331
#     4   9  18  32  52  77 111 149 185 228 276 322
#     4  10  22  41  63  87 116 148 183 231 286 339
#     4   9  19  36  55  75 105 146 189 232 277 324
#
# _framework density 17.562436000000002
#
# number of rings (size 3 to 8) (size 9 to 14) (size 15 to 20)
#    0.000    1.833    2.500    2.000    0.000    3.667 
#    0.000    2.500    0.000    0.000    0.000    0.000 
#    0.000    0.000    0.000    0.000    0.000    0.000 
#
# Total GULP energy -267894.312391 kJ/mol
# GULP energy per Si atom -5581.131508 kJ/mol
# Density = 1.752246 g / cm^3
# Si number density = 17.562436 Si / 1000 Ang^3
#
#
#
# Elastic Constant Matrix: (Units=GPa)
#
#
# Indices 1 2 3 4 5 6 
#
# 1 66.9991 34.6271 33.6597 0.0000 0.0000 0.0000
# 2 34.6271 66.3529 19.0849 0.0000 0.0000 0.0000
# 3 33.6597 19.0849 85.9336 0.0000 0.0000 0.0000
# 4 0.0000 0.0000 0.0000 20.9476 0.0000 0.0000
# 5 0.0000 0.0000 0.0000 0.0000 22.8651 0.0000
# 6 0.0000 0.0000 0.0000 0.0000 0.0000 30.9902
#
#
#
# Elastic Compliance Matrix: (Units=1/GPa)
#
#
# Indices 1 2 3 4 5 6 
#
# 1 0.023840 -0.010421 -0.007024 0.000000 0.000000 0.000000
# 2 -0.010421 0.020655 -0.000505 0.000000 0.000000 0.000000
# 3 -0.007024 -0.000505 0.014500 0.000000 0.000000 0.000000
# 4 0.000000 0.000000 0.000000 0.047738 0.000000 0.000000
# 5 0.000000 0.000000 0.000000 0.000000 0.043735 0.000000
# 6 0.000000 0.000000 0.000000 0.000000 0.000000 0.032268
#
#
# Mechanical properties :
#
#
# Convention : Reuss Voigt Hill
#
# Bulk Modulus (GPa) = 43.29945 43.78100 43.54023
# Shear Modulus (GPa) = 22.09120 23.75484 22.92302
#
# Velocity S-wave (km/s) = 3.55049 3.68175 3.61672
# Velocity P-wave (km/s) = 6.44330 6.56176 6.50280
#
# Compressibility (1/GPa) = 0.02309498
#
# Stress axis : x y z
#
# Youngs Moduli (GPa) = 41.94615 48.41529 68.96439
#
# Poissons Ratio (x) = 0.50454 0.48438
# Poissons Ratio (y) = 0.43712 0.03485
# Poissons Ratio (z) = 0.29461 0.02446
#
# Static dielectric constant tensor:
#      x y z
#    x 1.591840 0.000000 0.000000 
#    y 0.000000 1.565890 0.000000 
#    z 0.000000 0.000000 1.600910 
# 
# From -- ./inp_files/30342.got.cif
#   From: 2010.05.17/outbox.cif.g08.bks.cpg/sg63_16_cif.got.tgz:30342.got - 2010.06.03 15:47:04.
