data_PCOD9470382
_publ_section_title
;
Structure prediction by ZEFSAII (Michael W. Deem and Ramdas Pophale) SiO2 
 PCOD9470382
Probable space group: C M C M
;
_chemical_formula_sum "Si O2"
_cell_formula_units_Z 80
_cell_length_a 10.937560
_cell_length_b 18.717077
_cell_length_c 19.204775
_cell_angle_alpha 90.000000
_cell_angle_beta 90.000000
_cell_angle_gamma 90.000000
_cell_volume 3931.585266
_symmetry_space_group_name_H-M "C M C M"
_symmetry_group_IT_number 63
_symmetry_cell_setting 'orthorhombic'
loop_
_space_group_symop_operation_xyz
x,y,z
-x,-y,1/2+z
x,-y,-z
-x,y,1/2-z
-x,-y,-z
x,y,1/2-z
-x,y,z
x,-y,1/2+z
1/2+x,1/2+y,z
1/2-x,1/2-y,1/2+z
1/2+x,1/2-y,-z
1/2-x,1/2+y,1/2-z
1/2-x,1/2-y,-z
1/2+x,1/2+y,1/2-z
1/2-x,1/2+y,z
1/2+x,1/2-y,1/2+z
loop_
_atom_site_type_symbol
_atom_site_label
_atom_site_fract_x
_atom_site_fract_y
_atom_site_fract_z
Si Si1 0.351693 0.894339 0.250000
Si Si2 0.142414 0.532679 0.887545
Si Si3 0.749877 0.238108 0.392072
Si Si4 0.642065 0.853121 0.013533
Si Si5 0.500000 0.259039 0.331100
Si Si6 0.856266 0.775081 0.750000
Si Si7 0.000000 0.412482 0.667872
O O1 0.500000 0.903147 0.250000
O O2 0.301502 0.932046 0.319014
O O3 0.331003 0.810228 0.250000
O O4 0.188749 0.570576 0.957297
O O5 0.116337 0.449600 0.870815
O O6 0.000000 0.558576 0.890184
O O7 0.720680 0.181949 0.452530
O O8 0.843291 0.296729 0.422418
O O9 0.623670 0.278047 0.371295
O O10 0.796607 0.200410 0.321907
O O11 0.500000 0.856348 0.991281
O O12 0.500000 0.281378 0.250000
O O13 0.500000 0.172069 0.332050
O O14 0.000000 0.787773 0.750000
O O15 0.000000 0.434874 0.750000
#
# Coordination Sequence:
#
# PCOD9470382 Si02
#       7
#     8  16  16  16   8   8   8
#     4   9  12  22  43  69  97 111 156 210 253 284
#     4   8  13  25  45  73  94 122 160 216 261 288
#     4  11  21  32  47  70 106 144 167 201 256 320
#     4  10  19  32  51  74 103 130 171 221 261 296
#     4  11  22  35  45  71 119 153 165 191 263 343
#     4  11  20  31  51  75  97 136 179 214 251 302
#     4   9  16  27  49  73 105 141 164 217 264 311
#
# _framework density 20.348026000000001
#
# number of rings (size 3 to 8) (size 9 to 14) (size 15 to 20)
#    0.600    1.600    5.000    0.600    0.000    0.000 
#    0.000    2.000    0.000    0.000    0.000    0.000 
#    6.000    8.800    0.000    0.000    0.000    0.000 
#
# Total GULP energy -222845.347714 kJ/mol
# GULP energy per Si atom -5571.133693 kJ/mol
# Density = 2.030171 g / cm^3
# Si number density = 20.348026 Si / 1000 Ang^3
#
#
#
# Elastic Constant Matrix: (Units=GPa)
#
#
# Indices 1 2 3 4 5 6 
#
# 1 51.3378 2.0421 15.1371 0.0000 0.0000 0.0000
# 2 2.0421 66.6848 18.2456 0.0000 0.0000 0.0000
# 3 15.1371 18.2456 104.0614 0.0000 0.0000 0.0000
# 4 0.0000 0.0000 0.0000 22.5150 0.0000 0.0000
# 5 0.0000 0.0000 0.0000 0.0000 29.2690 0.0000
# 6 0.0000 0.0000 0.0000 0.0000 0.0000 14.6539
#
#
#
# Elastic Compliance Matrix: (Units=1/GPa)
#
#
# Indices 1 2 3 4 5 6 
#
# 1 0.020354 0.000196 -0.002995 0.000000 0.000000 0.000000
# 2 0.000196 0.015753 -0.002791 0.000000 0.000000 0.000000
# 3 -0.002995 -0.002791 0.010535 0.000000 0.000000 0.000000
# 4 0.000000 0.000000 0.000000 0.044415 0.000000 0.000000
# 5 0.000000 0.000000 0.000000 0.000000 0.034166 0.000000
# 6 0.000000 0.000000 0.000000 0.000000 0.000000 0.068241
#
#
# Mechanical properties :
#
#
# Convention : Reuss Voigt Hill
#
# Bulk Modulus (GPa) = 28.19838 32.54817 30.37328
# Shear Modulus (GPa) = 23.09848 25.73153 24.41500
#
# Velocity S-wave (km/s) = 3.37288 3.55994 3.46767
# Velocity P-wave (km/s) = 5.39042 5.73829 5.56707
#
# Compressibility (1/GPa) = 0.03546303
#
# Stress axis : x y z
#
# Youngs Moduli (GPa) = 49.12996 63.47812 94.92437
#
# Poissons Ratio (x) = -0.01245 0.28432
# Poissons Ratio (y) = -0.00964 0.26490
# Poissons Ratio (z) = 0.14715 0.17715
#
# Static dielectric constant tensor:
#      x y z
#    x 1.719920 0.000000 0.000000 
#    y 0.000000 1.765890 0.000000 
#    z 0.000000 0.000000 1.849210 
# 
# From -- ./inp_files/42456.got.cif
#   From: 2010.05.17/outbox.cif.g08.bks.cpg/sg63_22_cif.got.tgz:42456.got - 2010.06.03 15:47:04.
