data_PCOD9470549
_publ_section_title
;
Structure prediction by ZEFSAII (Michael W. Deem and Ramdas Pophale) SiO2 
 PCOD9470549
Probable space group: C M C M
;
_chemical_formula_sum "Si O2"
_cell_formula_units_Z 112
_cell_length_a 14.145783
_cell_length_b 15.144483
_cell_length_c 25.547598
_cell_angle_alpha 90.000000
_cell_angle_beta 90.000000
_cell_angle_gamma 90.000000
_cell_volume 5473.076486
_symmetry_space_group_name_H-M "C M C M"
_symmetry_group_IT_number 63
_symmetry_cell_setting 'orthorhombic'
loop_
_space_group_symop_operation_xyz
x,y,z
-x,-y,1/2+z
x,-y,-z
-x,y,1/2-z
-x,-y,-z
x,y,1/2-z
-x,y,z
x,-y,1/2+z
1/2+x,1/2+y,z
1/2-x,1/2-y,1/2+z
1/2+x,1/2-y,-z
1/2-x,1/2+y,1/2-z
1/2-x,1/2-y,-z
1/2+x,1/2+y,1/2-z
1/2-x,1/2+y,z
1/2+x,1/2-y,1/2+z
loop_
_atom_site_type_symbol
_atom_site_label
_atom_site_fract_x
_atom_site_fract_y
_atom_site_fract_z
Si Si1 0.884525 0.957208 0.653454
Si Si2 0.398133 0.861389 0.888107
Si Si3 0.894412 0.457369 0.056848
Si Si4 0.105774 0.928484 0.962855
Si Si5 0.264855 0.299688 0.810348
Si Si6 0.765358 0.872513 0.373921
Si Si7 0.845233 0.227569 0.968509
O O1 0.855398 0.924952 0.594804
O O2 0.848244 0.873381 0.686765
O O3 0.000000 0.969794 0.659098
O O4 0.821743 0.048065 0.656017
O O5 0.500000 0.832452 0.867523
O O6 0.398556 0.963795 0.901104
O O7 0.318220 0.838353 0.846797
O O8 0.385091 0.817517 0.945514
O O9 0.814868 0.397905 0.083366
O O10 0.000000 0.416825 0.053150
O O11 0.873229 0.500000 0.000000
O O12 0.000000 0.963034 0.954055
O O13 0.102542 0.835557 0.991205
O O14 0.155325 0.000000 0.000000
O O15 0.237473 0.289821 0.750000
O O16 0.278413 0.201964 0.835583
O O17 0.838870 0.827090 0.414114
O O18 0.750000 0.250000 0.000000
#
# Coordination Sequence:
#
# PCOD9470549 Si02
#       7
#    16  16  16  16  16  16  16
#     4  11  24  43  68 101 136 173 223 279 338 407
#     4  10  21  39  62  92 126 165 216 271 320 383
#     4  10  21  37  62  95 132 172 209 250 311 394
#     4  10  19  32  53  85 125 167 202 241 302 383
#     4  11  26  47  67  92 126 170 223 289 354 402
#     4  11  23  39  65  94 132 174 221 273 328 396
#     4  11  21  31  55  91 135 176 210 251 315 388
#
# _framework density 20.463809999999999
#
# number of rings (size 3 to 8) (size 9 to 14) (size 15 to 20)
#    0.000    1.429    2.857    3.000    2.000    4.000 
#    0.000    3.571    0.000    0.000    0.000    0.000 
#    0.000    0.000    0.000    0.000    0.000    0.000 
#
# Total GULP energy -311824.607516 kJ/mol
# GULP energy per Si atom -5568.296563 kJ/mol
# Density = 2.041723 g / cm^3
# Si number density = 20.463810 Si / 1000 Ang^3
#
#
#
# Elastic Constant Matrix: (Units=GPa)
#
#
# Indices 1 2 3 4 5 6 
#
# 1 105.0247 27.7781 21.0509 0.0000 0.0000 0.0000
# 2 27.7781 82.9425 27.0978 0.0000 0.0000 0.0000
# 3 21.0509 27.0978 93.6924 0.0000 0.0000 0.0000
# 4 0.0000 0.0000 0.0000 21.3468 0.0000 0.0000
# 5 0.0000 0.0000 0.0000 0.0000 8.1544 0.0000
# 6 0.0000 0.0000 0.0000 0.0000 0.0000 11.6966
#
#
#
# Elastic Compliance Matrix: (Units=1/GPa)
#
#
# Indices 1 2 3 4 5 6 
#
# 1 0.010635 -0.003071 -0.001501 0.000000 0.000000 0.000000
# 2 -0.003071 0.014202 -0.003417 0.000000 0.000000 0.000000
# 3 -0.001501 -0.003417 0.011999 0.000000 0.000000 0.000000
# 4 0.000000 0.000000 0.000000 0.046845 0.000000 0.000000
# 5 0.000000 0.000000 0.000000 0.000000 0.122632 0.000000
# 6 0.000000 0.000000 0.000000 0.000000 0.000000 0.085495
#
#
# Mechanical properties :
#
#
# Convention : Reuss Voigt Hill
#
# Bulk Modulus (GPa) = 47.94843 48.16815 48.05829
# Shear Modulus (GPa) = 15.88617 21.95510 18.92063
#
# Velocity S-wave (km/s) = 2.78925 3.27903 3.04401
# Velocity P-wave (km/s) = 5.81850 6.15836 5.99084
#
# Compressibility (1/GPa) = 0.02085574
#
# Stress axis : x y z
#
# Youngs Moduli (GPa) = 94.03120 70.41466 83.34113
#
# Poissons Ratio (x) = 0.21626 0.12511
# Poissons Ratio (y) = 0.28879 0.28481
# Poissons Ratio (z) = 0.14116 0.24063
#
# Static dielectric constant tensor:
#      x y z
#    x 1.908980 0.000000 0.000000 
#    y 0.000000 1.799640 0.000000 
#    z 0.000000 0.000000 1.726570 
# 
# From -- ./inp_files/69416.got.cif
#   From: 2010.05.17/outbox.cif.g08.bks.cpg/sg63_35_cif.got.tgz:69416.got - 2010.06.03 15:47:04.
