data_PCOD9470028
_publ_section_title
;
Structure prediction by ZEFSAII (Michael W. Deem and Ramdas Pophale) SiO2 
 PCOD9470028
Probable space group: C M C M
;
_chemical_formula_sum "Si O2"
_cell_formula_units_Z 116
_cell_length_a 25.033654
_cell_length_b 29.733558
_cell_length_c 7.606735
_cell_angle_alpha 90.000000
_cell_angle_beta 90.000000
_cell_angle_gamma 90.000000
_cell_volume 5661.994111
_symmetry_space_group_name_H-M "C M C M"
_symmetry_group_IT_number 63
_symmetry_cell_setting 'orthorhombic'
loop_
_space_group_symop_operation_xyz
x,y,z
-x,-y,1/2+z
x,-y,-z
-x,y,1/2-z
-x,-y,-z
x,y,1/2-z
-x,y,z
x,-y,1/2+z
1/2+x,1/2+y,z
1/2-x,1/2-y,1/2+z
1/2+x,1/2-y,-z
1/2-x,1/2+y,1/2-z
1/2-x,1/2-y,-z
1/2+x,1/2+y,1/2-z
1/2-x,1/2+y,z
1/2+x,1/2-y,1/2+z
loop_
_atom_site_type_symbol
_atom_site_label
_atom_site_fract_x
_atom_site_fract_y
_atom_site_fract_z
Si Si1 0.000000 0.171963 0.750000
Si Si2 0.193361 0.293385 0.042978
Si Si3 0.187158 0.194040 0.951627
Si Si4 0.624700 0.449297 0.960167
Si Si5 0.082601 0.144164 0.046931
Si Si6 0.656943 0.111813 0.462721
Si Si7 0.746043 0.551117 0.460900
Si Si8 0.060000 0.551559 0.461032
O O1 0.046349 0.169445 0.593763
O O2 0.199408 0.284102 0.250000
O O3 0.252494 0.307002 0.973965
O O4 0.173730 0.247189 0.958749
O O5 0.156900 0.336436 0.015673
O O6 0.189110 0.178710 0.750000
O O7 0.142263 0.164978 0.044931
O O8 0.627792 0.445496 0.750000
O O9 0.587975 0.407852 0.015788
O O10 0.685498 0.443895 0.030145
O O11 0.606530 0.500000 0.000000
O O12 0.063753 0.145581 0.250000
O O13 0.657563 0.109756 0.250000
O O14 0.710710 0.086746 0.527000
O O15 0.605390 0.084821 0.527226
O O16 0.763516 0.500000 0.500000
O O17 0.743623 0.555823 0.250000
O O18 0.074316 0.500000 0.500000
O O19 0.058143 0.556226 0.250000
O O20 0.000000 0.559681 0.529265
#
# Coordination Sequence:
#
# PCOD9470028 Si02
#       8
#     4  16  16  16  16  16  16  16
#     4  12  26  44  66  94 118 160 210 254 288 354
#     4  10  21  34  56  90 122 148 188 234 294 363
#     4  10  20  38  62  90 119 155 190 236 299 363
#     4   9  19  33  55  82 114 151 189 235 296 358
#     4  11  23  42  67  90 122 159 203 253 300 349
#     4  10  19  31  48  72 110 148 185 238 292 348
#     4   9  17  29  45  74 108 145 187 229 288 358
#     4   9  18  32  50  71  98 141 194 241 287 337
#
# _framework density 20.487480999999999
#
# number of rings (size 3 to 8) (size 9 to 14) (size 15 to 20)
#    0.000    2.207    0.690    2.276    0.966    3.862 
#    0.000    0.345    1.517    0.000    0.000    0.000 
#    0.000    0.000    0.000    0.000    0.000    0.000 
#
# Total GULP energy -323322.052515 kJ/mol
# GULP energy per Si atom -5574.518147 kJ/mol
# Density = 2.044085 g / cm^3
# Si number density = 20.487481 Si / 1000 Ang^3
#
#
#
# Elastic Constant Matrix: (Units=GPa)
#
#
# Indices 1 2 3 4 5 6 
#
# 1 26.4148 14.4907 10.9016 0.0000 0.0000 0.0000
# 2 14.4907 63.9538 -5.7999 0.0000 0.0000 0.0000
# 3 10.9016 -5.7999 75.2308 0.0000 0.0000 0.0000
# 4 0.0000 0.0000 0.0000 22.8009 0.0000 0.0000
# 5 0.0000 0.0000 0.0000 0.0000 -3.7725 0.0000
# 6 0.0000 0.0000 0.0000 0.0000 0.0000 -1.9341
#
#
#
# Elastic Compliance Matrix: (Units=1/GPa)
#
#
# Indices 1 2 3 4 5 6 
#
# 1 0.047317 -0.011423 -0.007737 0.000000 0.000000 0.000000
# 2 -0.011423 0.018504 0.003082 0.000000 0.000000 0.000000
# 3 -0.007737 0.003082 0.014651 0.000000 0.000000 0.000000
# 4 0.000000 0.000000 0.000000 0.043858 0.000000 0.000000
# 5 0.000000 0.000000 0.000000 0.000000 -0.265073 0.000000
# 6 0.000000 0.000000 0.000000 0.000000 0.000000 -0.517047
#
#
# Mechanical properties :
#
#
# Convention : Reuss Voigt Hill
#
# Bulk Modulus (GPa) = 20.69718 22.75378 21.72548
# Shear Modulus (GPa) = -8.20307 13.15265 2.47479
#
# Velocity S-wave (km/s) = -2.00316 2.53649 1.10026
# Velocity P-wave (km/s) = 2.18497 4.43945 3.49877
#
# Compressibility (1/GPa) = 0.04831575
#
# Stress axis : x y z
#
# Youngs Moduli (GPa) = 21.13394 54.04244 68.25359
#
# Poissons Ratio (x) = 0.61732 0.52810
# Poissons Ratio (y) = 0.24141 -0.21035
# Poissons Ratio (z) = 0.16352 -0.16655
#
# Static dielectric constant tensor:
#      x y z
#    x 1.740270 0.000000 0.000000 
#    y 0.000000 1.720060 0.000000 
#    z 0.000000 0.000000 1.752970 
# 
# From -- ./inp_files/10907.got.cif
#   From: 2010.05.17/outbox.cif.g08.bks.cpg/sg63_6_cif.got.tgz:10907.got - 2010.06.03 15:47:04.
