data_PCOD9470154
_publ_section_title
;
Structure prediction by ZEFSAII (Michael W. Deem and Ramdas Pophale) SiO2 
 PCOD9470154
Probable space group: C M C M
;
_chemical_formula_sum "Si O2"
_cell_formula_units_Z 96
_cell_length_a 12.208203
_cell_length_b 18.569368
_cell_length_c 19.521023
_cell_angle_alpha 90.000000
_cell_angle_beta 90.000000
_cell_angle_gamma 90.000000
_cell_volume 4425.388860
_symmetry_space_group_name_H-M "C M C M"
_symmetry_group_IT_number 63
_symmetry_cell_setting 'orthorhombic'
loop_
_space_group_symop_operation_xyz
x,y,z
-x,-y,1/2+z
x,-y,-z
-x,y,1/2-z
-x,-y,-z
x,y,1/2-z
-x,y,z
x,-y,1/2+z
1/2+x,1/2+y,z
1/2-x,1/2-y,1/2+z
1/2+x,1/2-y,-z
1/2-x,1/2+y,1/2-z
1/2-x,1/2-y,-z
1/2+x,1/2+y,1/2-z
1/2-x,1/2+y,z
1/2+x,1/2-y,1/2+z
loop_
_atom_site_type_symbol
_atom_site_label
_atom_site_fract_x
_atom_site_fract_y
_atom_site_fract_z
Si Si1 0.377607 0.053493 0.674699
Si Si2 0.875270 0.760422 0.917832
Si Si3 0.293830 0.636777 0.968941
Si Si4 0.375114 0.073559 0.067378
Si Si5 0.310328 0.804776 0.672839
Si Si6 0.339308 0.638428 0.825268
O O1 0.372717 0.017780 0.750000
O O2 0.500000 0.081916 0.665553
O O3 0.288734 0.115971 0.676524
O O4 0.357369 0.994691 0.616624
O O5 0.796105 0.696411 0.943900
O O6 0.815133 0.793115 0.851242
O O7 0.000000 0.738597 0.907599
O O8 0.867986 0.821369 0.976570
O O9 0.362821 0.611295 0.902515
O O10 0.217575 0.581201 0.009979
O O11 0.500000 0.071873 0.040220
O O12 0.363621 0.143541 0.116650
O O13 0.319860 0.832699 0.750000
O O14 0.358995 0.723918 0.672228
O O15 0.380627 0.612858 0.750000
#
# Coordination Sequence:
#
# PCOD9470154 Si02
#       6
#    16  16  16  16  16  16
#     4   9  18  31  47  70 101 135 163 193 247 306
#     4   9  17  30  47  68  99 131 158 203 257 293
#     4   9  18  30  46  71  97 127 168 203 243 300
#     4  10  19  31  50  76 106 135 162 200 248 297
#     4   9  18  31  48  73  99 129 173 209 239 288
#     4   9  18  32  46  63  94 130 163 202 242 286
#
# _framework density 21.693009
#
# number of rings (size 3 to 8) (size 9 to 14) (size 15 to 20)
#    0.000    2.833    0.000    2.000    0.000    5.333 
#    0.000    5.000    0.000    1.500    0.000   14.000 
#    0.000   16.000    0.000    0.000    0.000    0.000 
#
# Total GULP energy -267481.078754 kJ/mol
# GULP energy per Si atom -5572.522474 kJ/mol
# Density = 2.164363 g / cm^3
# Si number density = 21.693009 Si / 1000 Ang^3
#
#
#
# Elastic Constant Matrix: (Units=GPa)
#
#
# Indices 1 2 3 4 5 6 
#
# 1 83.1367 23.9335 11.3192 0.0000 0.0000 0.0000
# 2 23.9335 69.1067 25.1341 0.0000 0.0000 0.0000
# 3 11.3192 25.1341 143.0819 0.0000 0.0000 0.0000
# 4 0.0000 0.0000 0.0000 36.0148 0.0000 0.0000
# 5 0.0000 0.0000 0.0000 0.0000 -3.3518 0.0000
# 6 0.0000 0.0000 0.0000 0.0000 0.0000 3.1156
#
#
#
# Elastic Compliance Matrix: (Units=1/GPa)
#
#
# Indices 1 2 3 4 5 6 
#
# 1 0.013370 -0.004535 -0.000261 0.000000 0.000000 0.000000
# 2 -0.004535 0.016996 -0.002627 0.000000 0.000000 0.000000
# 3 -0.000261 -0.002627 0.007471 0.000000 0.000000 0.000000
# 4 0.000000 0.000000 0.000000 0.027766 0.000000 0.000000
# 5 0.000000 0.000000 0.000000 0.000000 -0.298344 0.000000
# 6 0.000000 0.000000 0.000000 0.000000 0.000000 0.320969
#
#
# Mechanical properties :
#
#
# Convention : Reuss Voigt Hill
#
# Bulk Modulus (GPa) = 43.49564 46.23321 44.86442
# Shear Modulus (GPa) = 45.15145 22.81827 33.98486
#
# Velocity S-wave (km/s) = 4.56717 3.24678 3.96236
# Velocity P-wave (km/s) = 6.92142 5.95098 6.45447
#
# Compressibility (1/GPa) = 0.02299081
#
# Stress axis : x y z
#
# Youngs Moduli (GPa) = 74.79681 58.83579 133.84925
#
# Poissons Ratio (x) = 0.26684 0.03493
# Poissons Ratio (y) = 0.33923 0.35160
# Poissons Ratio (z) = 0.01952 0.15455
#
# Static dielectric constant tensor:
#      x y z
#    x 1.763630 0.000000 0.000000 
#    y 0.000000 1.783690 0.000000 
#    z 0.000000 0.000000 1.895990 
# 
# From -- ./inp_files/52878.got.cif
#   From: 2010.05.17/outbox.cif.g08.bks.cpg/sg63_27_cif.got.tgz:52878.got - 2010.06.03 15:47:04.
