data_PCOD9470035
_publ_section_title
;
Structure prediction by ZEFSAII (Michael W. Deem and Ramdas Pophale) SiO2 
 PCOD9470035
Probable space group: C M C M
;
_chemical_formula_sum "Si O2"
_cell_formula_units_Z 80
_cell_length_a 13.669939
_cell_length_b 13.746552
_cell_length_c 18.083902
_cell_angle_alpha 90.000000
_cell_angle_beta 90.000000
_cell_angle_gamma 90.000000
_cell_volume 3398.227896
_symmetry_space_group_name_H-M "C M C M"
_symmetry_group_IT_number 63
_symmetry_cell_setting 'orthorhombic'
loop_
_space_group_symop_operation_xyz
x,y,z
-x,-y,1/2+z
x,-y,-z
-x,y,1/2-z
-x,-y,-z
x,y,1/2-z
-x,y,z
x,-y,1/2+z
1/2+x,1/2+y,z
1/2-x,1/2-y,1/2+z
1/2+x,1/2-y,-z
1/2-x,1/2+y,1/2-z
1/2-x,1/2-y,-z
1/2+x,1/2+y,1/2-z
1/2-x,1/2+y,z
1/2+x,1/2-y,1/2+z
loop_
_atom_site_type_symbol
_atom_site_label
_atom_site_fract_x
_atom_site_fract_y
_atom_site_fract_z
Si Si1 0.395376 0.250186 0.835951
Si Si2 0.000000 0.247803 0.839477
Si Si3 0.205049 0.254662 0.916357
Si Si4 0.000000 0.514982 0.165212
Si Si5 0.109308 0.013021 0.336026
Si Si6 0.196005 0.514925 0.413465
O O1 0.396290 0.225629 0.750000
O O2 0.500000 0.221411 0.870436
O O3 0.295666 0.213263 0.870244
O O4 0.393235 0.368760 0.840280
O O5 0.098813 0.219004 0.885794
O O6 0.000000 0.366562 0.838362
O O7 0.000000 0.220392 0.750000
O O8 0.198374 0.369486 0.900055
O O9 0.250000 0.250000 0.000000
O O10 0.099251 0.479137 0.127500
O O11 0.000000 0.486903 0.250000
O O12 0.126823 0.988392 0.250000
O O13 0.198976 0.978567 0.385505
O O14 0.000000 0.979447 0.356598
O O15 0.185676 0.500000 0.500000
#
# Coordination Sequence:
#
# PCOD9470035 Si02
#       6
#    16   8  16   8  16  16
#     4   8  14  26  46  69  92 119 158 204 242 280
#     4   9  18  33  53  75  97 128 173 211 241 286
#     4  10  20  31  49  75 100 130 161 205 249 295
#     4   9  17  31  53  75  93 122 167 209 240 282
#     4   8  14  26  45  68  92 121 161 202 231 270
#     4  10  19  31  48  74 101 127 155 199 251 295
#
# _framework density 23.541682000000002
#
# number of rings (size 3 to 8) (size 9 to 14) (size 15 to 20)
#    0.000    3.000    0.000    2.700    1.400    5.200 
#    0.000    0.000    0.000    4.800    0.000    0.000 
#    0.000    0.000    0.000    0.000    0.000    0.000 
#
# Total GULP energy -223308.020447 kJ/mol
# GULP energy per Si atom -5582.700511 kJ/mol
# Density = 2.348810 g / cm^3
# Si number density = 23.541682 Si / 1000 Ang^3
#
#
#
# Elastic Constant Matrix: (Units=GPa)
#
#
# Indices 1 2 3 4 5 6 
#
# 1 302.2029 36.1269 156.3361 0.0000 0.0000 0.0000
# 2 36.1269 78.5980 3.8247 0.0000 0.0000 0.0000
# 3 156.3361 3.8247 143.3126 0.0000 0.0000 0.0000
# 4 0.0000 0.0000 0.0000 22.4861 0.0000 0.0000
# 5 0.0000 0.0000 0.0000 0.0000 -144.5241 0.0000
# 6 0.0000 0.0000 0.0000 0.0000 0.0000 43.8711
#
#
#
# Elastic Compliance Matrix: (Units=1/GPa)
#
#
# Indices 1 2 3 4 5 6 
#
# 1 0.008428 -0.003431 -0.009102 0.000000 0.000000 0.000000
# 2 -0.003431 0.014136 0.003365 0.000000 0.000000 0.000000
# 3 -0.009102 0.003365 0.016817 0.000000 0.000000 0.000000
# 4 0.000000 0.000000 0.000000 0.044472 0.000000 0.000000
# 5 0.000000 0.000000 0.000000 0.000000 -0.006919 0.000000
# 6 0.000000 0.000000 0.000000 0.000000 0.000000 0.022794
#
#
# Mechanical properties :
#
#
# Convention : Reuss Voigt Hill
#
# Bulk Modulus (GPa) = 47.51493 101.85433 74.68463
# Shear Modulus (GPa) = 39.97460 6.22169 23.09814
#
# Velocity S-wave (km/s) = 4.12519 1.62744 3.13574
# Velocity P-wave (km/s) = 6.55109 6.84769 6.70103
#
# Compressibility (1/GPa) = 0.02104602
#
# Stress axis : x y z
#
# Youngs Moduli (GPa) = 118.65158 70.74035 59.46196
#
# Poissons Ratio (x) = 0.24271 0.54124
# Poissons Ratio (y) = 0.40709 -0.20012
# Poissons Ratio (z) = 1.08001 -0.23807
#
# Static dielectric constant tensor:
#      x y z
#    x 1.884530 0.000000 0.000000 
#    y 0.000000 2.061670 0.000000 
#    z 0.000000 0.000000 1.870070 
# 
# From -- ./inp_files/42438.got.cif
#   From: 2010.05.17/outbox.cif.g08.bks.cpg/sg63_22_cif.got.tgz:42438.got - 2010.06.03 15:47:04.
