data_PCOD9470224
_publ_section_title
;
Structure prediction by ZEFSAII (Michael W. Deem and Ramdas Pophale) SiO2 
 PCOD9470224
Probable space group: C M C M
;
_chemical_formula_sum "Si O2"
_cell_formula_units_Z 116
_cell_length_a 25.876358
_cell_length_b 29.554413
_cell_length_c 7.694622
_cell_angle_alpha 90.000000
_cell_angle_beta 90.000000
_cell_angle_gamma 90.000000
_cell_volume 5884.543516
_symmetry_space_group_name_H-M "C M C M"
_symmetry_group_IT_number 63
_symmetry_cell_setting 'orthorhombic'
loop_
_space_group_symop_operation_xyz
x,y,z
-x,-y,1/2+z
x,-y,-z
-x,y,1/2-z
-x,-y,-z
x,y,1/2-z
-x,y,z
x,-y,1/2+z
1/2+x,1/2+y,z
1/2-x,1/2-y,1/2+z
1/2+x,1/2-y,-z
1/2-x,1/2+y,1/2-z
1/2-x,1/2-y,-z
1/2+x,1/2+y,1/2-z
1/2-x,1/2+y,z
1/2+x,1/2-y,1/2+z
loop_
_atom_site_type_symbol
_atom_site_label
_atom_site_fract_x
_atom_site_fract_y
_atom_site_fract_z
Si Si1 0.556512 0.379277 0.041911
Si Si2 0.147601 0.948185 0.544455
Si Si3 0.778310 0.796765 0.041728
Si Si4 0.500000 0.841671 0.250000
Si Si5 0.419667 0.816048 0.548257
Si Si6 0.236219 0.552015 0.457399
Si Si7 0.604728 0.713178 0.538135
Si Si8 0.687394 0.141415 0.547192
O O1 0.553344 0.376238 0.250000
O O2 0.500000 0.393985 0.976195
O O3 0.570378 0.328911 0.977920
O O4 0.603217 0.413487 0.007449
O O5 0.152260 0.945428 0.750000
O O6 0.205326 0.938790 0.472375
O O7 0.134036 0.000000 0.500000
O O8 0.782413 0.801706 0.250000
O O9 0.836717 0.795146 0.974825
O O10 0.740226 0.835890 0.976700
O O11 0.750000 0.750000 0.000000
O O12 0.455338 0.839425 0.405161
O O13 0.437669 0.817812 0.750000
O O14 0.414838 0.763115 0.493525
O O15 0.362689 0.838109 0.543028
O O16 0.224408 0.500000 0.500000
O O17 0.236366 0.557076 0.250000
O O18 0.195949 0.588035 0.530294
O O19 0.605618 0.712548 0.750000
O O20 0.682790 0.153671 0.750000
#
# Coordination Sequence:
#
# PCOD9470224 Si02
#       8
#    16  16  16   4  16  16  16  16
#     4  10  21  37  56  78 106 148 202 259 311 361
#     4  10  21  38  58  82 111 149 195 247 307 372
#     4  10  19  31  52  80 117 157 195 245 297 361
#     4  12  26  44  60  90 122 160 218 260 302 366
#     4  11  23  41  64  88 122 165 208 260 310 360
#     4  10  21  37  60  90 123 157 193 240 305 371
#     4   9  19  36  56  80 113 158 206 246 307 366
#     4  11  21  36  59  92 128 162 204 249 301 370
#
# _framework density 19.712658999999999
#
# number of rings (size 3 to 8) (size 9 to 14) (size 15 to 20)
#    0.000    1.793    2.069    2.276    0.966    3.862 
#    1.241    0.000    0.000    0.000    0.000    0.483 
#    0.000    0.000    0.000    0.000    0.000    0.000 
#
# Total GULP energy -323354.853615 kJ/mol
# GULP energy per Si atom -5575.083683 kJ/mol
# Density = 1.966779 g / cm^3
# Si number density = 19.712659 Si / 1000 Ang^3
#
#
#
# Elastic Constant Matrix: (Units=GPa)
#
#
# Indices 1 2 3 4 5 6 
#
# 1 19.9529 12.4593 8.2914 0.0000 0.0000 0.0000
# 2 12.4593 83.0141 -6.5357 0.0000 0.0000 0.0000
# 3 8.2914 -6.5357 70.0965 0.0000 0.0000 0.0000
# 4 0.0000 0.0000 0.0000 14.3389 0.0000 0.0000
# 5 0.0000 0.0000 0.0000 0.0000 75.7696 0.0000
# 6 0.0000 0.0000 0.0000 0.0000 0.0000 29.2811
#
#
#
# Elastic Compliance Matrix: (Units=1/GPa)
#
#
# Indices 1 2 3 4 5 6 
#
# 1 0.059357 -0.009531 -0.007910 0.000000 0.000000 0.000000
# 2 -0.009531 0.013666 0.002402 0.000000 0.000000 0.000000
# 3 -0.007910 0.002402 0.015426 0.000000 0.000000 0.000000
# 4 0.000000 0.000000 0.000000 0.069741 0.000000 0.000000
# 5 0.000000 0.000000 0.000000 0.000000 0.013198 0.000000
# 6 0.000000 0.000000 0.000000 0.000000 0.000000 0.034152
#
#
# Mechanical properties :
#
#
# Convention : Reuss Voigt Hill
#
# Bulk Modulus (GPa) = 17.13241 22.38818 19.76030
# Shear Modulus (GPa) = 19.60220 34.46781 27.03501
#
# Velocity S-wave (km/s) = 3.15683 4.18606 3.70733
# Velocity P-wave (km/s) = 4.69013 5.89458 5.32651
#
# Compressibility (1/GPa) = 0.05836889
#
# Stress axis : x y z
#
# Youngs Moduli (GPa) = 16.84733 73.17563 64.82739
#
# Poissons Ratio (x) = 0.69746 0.51277
# Poissons Ratio (y) = 0.16058 -0.15569
# Poissons Ratio (z) = 0.13326 -0.17574
#
# Static dielectric constant tensor:
#      x y z
#    x 1.731090 0.000000 0.000000 
#    y 0.000000 1.670150 0.000000 
#    z 0.000000 0.000000 1.689300 
# 
# From -- ./inp_files/10912.got.cif
#   From: 2010.05.17/outbox.cif.g08.bks.cpg/sg63_6_cif.got.tgz:10912.got - 2010.06.03 15:47:04.
