data_PCOD9470675
_publ_section_title
;
Structure prediction by ZEFSAII (Michael W. Deem and Ramdas Pophale) SiO2 
 PCOD9470675
Probable space group: C M C M
;
_chemical_formula_sum "Si O2"
_cell_formula_units_Z 80
_cell_length_a 26.651368
_cell_length_b 11.458854
_cell_length_c 14.058203
_cell_angle_alpha 90.000000
_cell_angle_beta 90.000000
_cell_angle_gamma 90.000000
_cell_volume 4293.292742
_symmetry_space_group_name_H-M "C M C M"
_symmetry_group_IT_number 63
_symmetry_cell_setting 'orthorhombic'
loop_
_space_group_symop_operation_xyz
x,y,z
-x,-y,1/2+z
x,-y,-z
-x,y,1/2-z
-x,-y,-z
x,y,1/2-z
-x,y,z
x,-y,1/2+z
1/2+x,1/2+y,z
1/2-x,1/2-y,1/2+z
1/2+x,1/2-y,-z
1/2-x,1/2+y,1/2-z
1/2-x,1/2-y,-z
1/2+x,1/2+y,1/2-z
1/2-x,1/2+y,z
1/2+x,1/2-y,1/2+z
loop_
_atom_site_type_symbol
_atom_site_label
_atom_site_fract_x
_atom_site_fract_y
_atom_site_fract_z
Si Si1 0.838272 0.019893 0.137709
Si Si2 0.939705 0.444630 0.358758
Si Si3 0.804120 0.195473 0.516581
Si Si4 0.404764 0.180397 0.042912
Si Si5 0.944279 0.913221 0.363400
O O1 0.831172 0.028372 0.250000
O O2 0.808630 0.908222 0.094664
O O3 0.897341 0.997221 0.116935
O O4 0.821152 0.132734 0.080648
O O5 0.925730 0.418583 0.250000
O O6 0.918489 0.569694 0.392162
O O7 0.920523 0.352285 0.435916
O O8 0.000000 0.450383 0.365013
O O9 0.750000 0.250000 0.500000
O O10 0.845914 0.290029 0.544960
O O11 0.433767 0.293769 0.080890
O O12 0.942260 0.888021 0.250000
O O13 0.000000 0.959138 0.384771
#
# Coordination Sequence:
#
# PCOD9470675 Si02
#       5
#    16  16  16  16  16
#     4   9  20  38  57  81 109 134 169 216 261 310
#     4  10  20  33  50  77 111 141 173 214 256 306
#     4  10  22  39  56  77 105 137 176 222 263 303
#     4  10  19  33  52  75 104 140 178 215 259 308
#     4   9  16  30  55  82 107 137 170 206 255 314
#
# _framework density 18.633714999999999
#
# number of rings (size 3 to 8) (size 9 to 14) (size 15 to 20)
#    0.000    2.400    0.000    3.000    0.000    7.200 
#    0.000   12.000    0.000    2.400    0.000    0.000 
#    0.000    0.000    0.000    0.000    0.000    0.000 
#
# Total GULP energy -223317.331674 kJ/mol
# GULP energy per Si atom -5582.933292 kJ/mol
# Density = 1.859130 g / cm^3
# Si number density = 18.633715 Si / 1000 Ang^3
#
#
#
# Elastic Constant Matrix: (Units=GPa)
#
#
# Indices 1 2 3 4 5 6 
#
# 1 122.0619 38.5832 19.7618 0.0000 0.0000 0.0000
# 2 38.5832 47.4856 21.3082 0.0000 0.0000 0.0000
# 3 19.7618 21.3082 109.1950 0.0000 0.0000 0.0000
# 4 0.0000 0.0000 0.0000 13.9672 0.0000 0.0000
# 5 0.0000 0.0000 0.0000 0.0000 22.4968 0.0000
# 6 0.0000 0.0000 0.0000 0.0000 0.0000 10.1418
#
#
#
# Elastic Compliance Matrix: (Units=1/GPa)
#
#
# Indices 1 2 3 4 5 6 
#
# 1 0.011031 -0.008841 -0.000271 0.000000 0.000000 0.000000
# 2 -0.008841 0.030166 -0.004287 0.000000 0.000000 0.000000
# 3 -0.000271 -0.004287 0.010043 0.000000 0.000000 0.000000
# 4 0.000000 0.000000 0.000000 0.071596 0.000000 0.000000
# 5 0.000000 0.000000 0.000000 0.000000 0.044451 0.000000
# 6 0.000000 0.000000 0.000000 0.000000 0.000000 0.098602
#
#
# Mechanical properties :
#
#
# Convention : Reuss Voigt Hill
#
# Bulk Modulus (GPa) = 40.91168 48.67210 44.79189
# Shear Modulus (GPa) = 16.62039 22.59379 19.60709
#
# Velocity S-wave (km/s) = 2.98980 3.48591 3.24734
# Velocity P-wave (km/s) = 5.82425 6.50993 6.17661
#
# Compressibility (1/GPa) = 0.02444290
#
# Stress axis : x y z
#
# Youngs Moduli (GPa) = 90.65194 33.14945 99.56729
#
# Poissons Ratio (x) = 0.29309 0.02699
# Poissons Ratio (y) = 0.80150 0.42680
# Poissons Ratio (z) = 0.02457 0.14210
#
# Static dielectric constant tensor:
#      x y z
#    x 1.634370 0.000000 0.000000 
#    y 0.000000 1.626280 0.000000 
#    z 0.000000 0.000000 1.643820 
# 
# From -- ./inp_files/36461.got.cif
#   From: 2010.05.17/outbox.cif.g08.bks.cpg/sg63_19_cif.got.tgz:36461.got - 2010.06.03 15:47:04.
