data_PCOD9470896
_publ_section_title
;
Structure prediction by ZEFSAII (Michael W. Deem and Ramdas Pophale) SiO2 
 PCOD9470896
Probable space group: C M C M
;
_chemical_formula_sum "Si O2"
_cell_formula_units_Z 96
_cell_length_a 12.692242
_cell_length_b 21.682678
_cell_length_c 18.863359
_cell_angle_alpha 90.000000
_cell_angle_beta 90.000000
_cell_angle_gamma 90.000000
_cell_volume 5191.230283
_symmetry_space_group_name_H-M "C M C M"
_symmetry_group_IT_number 63
_symmetry_cell_setting 'orthorhombic'
loop_
_space_group_symop_operation_xyz
x,y,z
-x,-y,1/2+z
x,-y,-z
-x,y,1/2-z
-x,-y,-z
x,y,1/2-z
-x,y,z
x,-y,1/2+z
1/2+x,1/2+y,z
1/2-x,1/2-y,1/2+z
1/2+x,1/2-y,-z
1/2-x,1/2+y,1/2-z
1/2-x,1/2-y,-z
1/2+x,1/2+y,1/2-z
1/2-x,1/2+y,z
1/2+x,1/2-y,1/2+z
loop_
_atom_site_type_symbol
_atom_site_label
_atom_site_fract_x
_atom_site_fract_y
_atom_site_fract_z
Si Si1 0.119641 0.304084 0.045248
Si Si2 0.881946 0.373936 0.665765
Si Si3 0.000000 0.988510 0.335674
Si Si4 0.500000 0.345156 0.335067
Si Si5 0.673571 0.744065 0.604622
Si Si6 0.376689 0.947014 0.441279
Si Si7 0.765335 0.986537 0.835863
O O1 0.207256 0.278937 0.098589
O O2 0.137825 0.377068 0.031254
O O3 0.000000 0.297160 0.070478
O O4 0.135036 0.265256 0.973343
O O5 0.890856 0.381088 0.750000
O O6 0.842846 0.305530 0.650015
O O7 0.798527 0.425125 0.643015
O O8 0.000000 0.382754 0.634614
O O9 0.887761 0.016360 0.358305
O O10 0.000000 0.992077 0.250000
O O11 0.000000 0.916583 0.355643
O O12 0.500000 0.341301 0.250000
O O13 0.600659 0.309587 0.365274
O O14 0.500000 0.952933 0.419422
O O15 0.297606 0.959692 0.376329
O O16 0.357565 0.000000 0.500000
O O17 0.761310 0.994265 0.750000
#
# Coordination Sequence:
#
# PCOD9470896 Si02
#       7
#    16  16   8   8  16  16  16
#     4  10  21  36  52  79 114 152 186 225 282 346
#     4  10  19  33  56  84 109 136 186 246 291 331
#     4   9  20  36  53  79 115 154 187 227 288 346
#     4  11  20  34  60  85 108 142 194 251 284 324
#     4  11  20  34  57  80 111 147 187 237 282 334
#     4  10  20  35  58  83 112 146 184 234 288 341
#     4  10  20  36  57  82 113 149 189 231 283 345
#
# _framework density 18.492725
#
# number of rings (size 3 to 8) (size 9 to 14) (size 15 to 20)
#    0.000    1.833    1.667    3.000    0.000    2.333 
#    1.500    1.250    0.000    3.500    0.000    0.000 
#    0.000    0.000    0.000    0.000    0.000    0.000 
#
# Total GULP energy -267846.972385 kJ/mol
# GULP energy per Si atom -5580.145258 kJ/mol
# Density = 1.845063 g / cm^3
# Si number density = 18.492725 Si / 1000 Ang^3
#
#
#
# Elastic Constant Matrix: (Units=GPa)
#
#
# Indices 1 2 3 4 5 6 
#
# 1 174.4722 80.1955 38.3736 0.0000 0.0000 0.0000
# 2 80.1955 95.8896 8.7135 0.0000 0.0000 0.0000
# 3 38.3736 8.7135 22.8815 0.0000 0.0000 0.0000
# 4 0.0000 0.0000 0.0000 16.8592 0.0000 0.0000
# 5 0.0000 0.0000 0.0000 0.0000 25.2498 0.0000
# 6 0.0000 0.0000 0.0000 0.0000 0.0000 2.5810
#
#
#
# Elastic Compliance Matrix: (Units=1/GPa)
#
#
# Indices 1 2 3 4 5 6 
#
# 1 0.015710 -0.011130 -0.022108 0.000000 0.000000 0.000000
# 2 -0.011130 0.018687 0.011549 0.000000 0.000000 0.000000
# 3 -0.022108 0.011549 0.076381 0.000000 0.000000 0.000000
# 4 0.000000 0.000000 0.000000 0.059315 0.000000 0.000000
# 5 0.000000 0.000000 0.000000 0.000000 0.039604 0.000000
# 6 0.000000 0.000000 0.000000 0.000000 0.000000 0.387454
#
#
# Mechanical properties :
#
#
# Convention : Reuss Voigt Hill
#
# Bulk Modulus (GPa) = 14.83661 60.86762 37.85212
# Shear Modulus (GPa) = 7.54153 20.00203 13.77178
#
# Velocity S-wave (km/s) = 2.02162 3.29236 2.73190
# Velocity P-wave (km/s) = 3.67282 6.88757 5.51943
#
# Compressibility (1/GPa) = 0.06740082
#
# Stress axis : x y z
#
# Youngs Moduli (GPa) = 63.65541 53.51253 13.09223
#
# Poissons Ratio (x) = 0.59557 0.28944
# Poissons Ratio (y) = 0.70845 -0.15120
# Poissons Ratio (z) = 1.40727 -0.61799
#
# Static dielectric constant tensor:
#      x y z
#    x 1.637090 0.000000 0.000000 
#    y 0.000000 1.622800 0.000000 
#    z 0.000000 0.000000 1.655350 
# 
# From -- ./inp_files/52944.got.cif
#   From: 2010.05.17/outbox.cif.g08.bks.cpg/sg63_27_cif.got.tgz:52944.got - 2010.06.03 15:47:04.
