data_PCOD9470208
_publ_section_title
;
Structure prediction by ZEFSAII (Michael W. Deem and Ramdas Pophale) SiO2 
 PCOD9470208
Probable space group: C M C M
;
_chemical_formula_sum "Si O2"
_cell_formula_units_Z 88
_cell_length_a 17.998755
_cell_length_b 29.475472
_cell_length_c 8.832918
_cell_angle_alpha 90.000000
_cell_angle_beta 90.000000
_cell_angle_gamma 90.000000
_cell_volume 4686.055548
_symmetry_space_group_name_H-M "C M C M"
_symmetry_group_IT_number 63
_symmetry_cell_setting 'orthorhombic'
loop_
_space_group_symop_operation_xyz
x,y,z
-x,-y,1/2+z
x,-y,-z
-x,y,1/2-z
-x,-y,-z
x,y,1/2-z
-x,y,z
x,-y,1/2+z
1/2+x,1/2+y,z
1/2-x,1/2-y,1/2+z
1/2+x,1/2-y,-z
1/2-x,1/2+y,1/2-z
1/2-x,1/2-y,-z
1/2+x,1/2+y,1/2-z
1/2-x,1/2+y,z
1/2+x,1/2-y,1/2+z
loop_
_atom_site_type_symbol
_atom_site_label
_atom_site_fract_x
_atom_site_fract_y
_atom_site_fract_z
Si Si1 0.776894 0.450621 0.931613
Si Si2 0.411614 0.698557 0.070578
Si Si3 0.000000 0.050083 0.568142
Si Si4 0.145707 0.892237 0.068683
Si Si5 0.084739 0.392773 0.565497
Si Si6 0.909634 0.707383 0.424398
O O1 0.773779 0.452935 0.750000
O O2 0.857517 0.431319 0.978640
O O3 0.762985 0.500000 0.000000
O O4 0.715926 0.415489 0.991303
O O5 0.403176 0.693470 0.250000
O O6 0.500000 0.694275 0.034031
O O7 0.368424 0.658870 0.985609
O O8 0.387359 0.748751 0.019047
O O9 0.073026 0.078338 0.523972
O O10 0.000000 0.046373 0.750000
O O11 0.000000 0.000000 0.500000
O O12 0.152783 0.893737 0.250000
O O13 0.083069 0.391003 0.750000
O O14 0.112021 0.342529 0.517464
O O15 0.000000 0.400266 0.514121
O O16 0.885277 0.712709 0.250000
O O17 0.000000 0.706122 0.423323
#
# Coordination Sequence:
#
# PCOD9470208 Si02
#       6
#    16  16   8  16  16  16
#     4  11  23  39  58  82 112 145 183 229 283 334
#     4  10  19  31  51  82 116 148 181 224 275 325
#     4  10  22  36  54  76 100 136 184 232 271 318
#     4  11  22  38  56  78 108 147 192 231 274 325
#     4   8  16  34  60  86 111 143 184 227 273 330
#     4   8  14  28  53  81 108 142 182 223 268 321
#
# _framework density 18.779121
#
# number of rings (size 3 to 8) (size 9 to 14) (size 15 to 20)
#    0.000    2.364    0.909    3.273    0.000    4.000 
#    0.000    2.727    0.000    3.818    0.000    0.000 
#    0.000    0.000    0.000    0.000    0.000    0.000 
#
# Total GULP energy -245544.861519 kJ/mol
# GULP energy per Si atom -5580.565035 kJ/mol
# Density = 1.873638 g / cm^3
# Si number density = 18.779121 Si / 1000 Ang^3
#
#
#
# Elastic Constant Matrix: (Units=GPa)
#
#
# Indices 1 2 3 4 5 6 
#
# 1 58.5002 3.4040 20.8980 0.0000 0.0000 0.0000
# 2 3.4040 30.3992 19.0412 0.0000 0.0000 0.0000
# 3 20.8980 19.0412 39.9534 0.0000 0.0000 0.0000
# 4 0.0000 0.0000 0.0000 11.5435 0.0000 0.0000
# 5 0.0000 0.0000 0.0000 0.0000 16.1064 0.0000
# 6 0.0000 0.0000 0.0000 0.0000 0.0000 116.8755
#
#
#
# Elastic Compliance Matrix: (Units=1/GPa)
#
#
# Indices 1 2 3 4 5 6 
#
# 1 0.021952 0.006749 -0.014699 0.000000 0.000000 0.000000
# 2 0.006749 0.048969 -0.026868 0.000000 0.000000 0.000000
# 3 -0.014699 -0.026868 0.045522 0.000000 0.000000 0.000000
# 4 0.000000 0.000000 0.000000 0.086629 0.000000 0.000000
# 5 0.000000 0.000000 0.000000 0.000000 0.062087 0.000000
# 6 0.000000 0.000000 0.000000 0.000000 0.000000 0.008556
#
#
# Mechanical properties :
#
#
# Convention : Reuss Voigt Hill
#
# Bulk Modulus (GPa) = 21.36396 23.94880 22.65638
# Shear Modulus (GPa) = 13.92935 34.60572 24.26754
#
# Velocity S-wave (km/s) = 2.72646 4.29741 3.59870
# Velocity P-wave (km/s) = 4.61655 6.11590 5.41834
#
# Compressibility (1/GPa) = 0.04680781
#
# Stress axis : x y z
#
# Youngs Moduli (GPa) = 45.55379 20.42098 21.96722
#
# Poissons Ratio (x) = -0.13782 0.32289
# Poissons Ratio (y) = -0.30743 0.59022
# Poissons Ratio (z) = 0.66958 0.54867
#
# Static dielectric constant tensor:
#      x y z
#    x 1.654340 0.000000 0.000000 
#    y 0.000000 1.637160 0.000000 
#    z 0.000000 0.000000 1.633530 
# 
# From -- ./inp_files/6804.got.cif
#   From: 2010.05.17/outbox.cif.g08.bks.cpg/sg63_4_cif.got.tgz:6804.got - 2010.06.03 15:47:04.
