data_PCOD9470666
_publ_section_title
;
Structure prediction by ZEFSAII (Michael W. Deem and Ramdas Pophale) SiO2 
 PCOD9470666
Probable space group: C M C M
;
_chemical_formula_sum "Si O2"
_cell_formula_units_Z 112
_cell_length_a 29.619263
_cell_length_b 14.993647
_cell_length_c 13.986420
_cell_angle_alpha 90.000000
_cell_angle_beta 90.000000
_cell_angle_gamma 90.000000
_cell_volume 6211.379945
_symmetry_space_group_name_H-M "C M C M"
_symmetry_group_IT_number 63
_symmetry_cell_setting 'orthorhombic'
loop_
_space_group_symop_operation_xyz
x,y,z
-x,-y,1/2+z
x,-y,-z
-x,y,1/2-z
-x,-y,-z
x,y,1/2-z
-x,y,z
x,-y,1/2+z
1/2+x,1/2+y,z
1/2-x,1/2-y,1/2+z
1/2+x,1/2-y,-z
1/2-x,1/2+y,1/2-z
1/2-x,1/2-y,-z
1/2+x,1/2+y,1/2-z
1/2-x,1/2+y,z
1/2+x,1/2-y,1/2+z
loop_
_atom_site_type_symbol
_atom_site_label
_atom_site_fract_x
_atom_site_fract_y
_atom_site_fract_z
Si Si1 0.820044 0.966792 0.134789
Si Si2 0.121958 0.800721 0.364500
Si Si3 0.216985 0.259567 0.133370
Si Si4 0.809612 0.344146 0.867182
Si Si5 0.717731 0.964129 0.366354
Si Si6 0.869916 0.142470 0.364373
Si Si7 0.553066 0.391306 0.000136
O O1 0.819820 0.968400 0.250000
O O2 0.839095 0.871592 0.108047
O O3 0.769296 0.984474 0.106751
O O4 0.852488 0.045302 0.104392
O O5 0.116984 0.799967 0.250000
O O6 0.144470 0.707324 0.394702
O O7 0.077172 0.842336 0.410494
O O8 0.219627 0.260161 0.250000
O O9 0.263569 0.209491 0.103400
O O10 0.210780 0.362183 0.101989
O O11 0.171230 0.207346 0.108325
O O12 0.808160 0.342896 0.750000
O O13 0.809003 0.447687 0.897634
O O14 0.714305 0.961899 0.250000
O O15 0.874131 0.145821 0.250000
O O16 0.918180 0.151034 0.413379
O O17 0.500000 0.372503 0.995823
O O18 0.557512 0.500000 0.000000
#
# Coordination Sequence:
#
# PCOD9470666 Si02
#       7
#    16  16  16  16  16  16  16
#     4   9  14  23  45  72 100 135 169 195 231 287
#     4  10  19  33  52  74 102 139 171 199 246 302
#     4   9  15  24  44  74 105 139 174 202 237 290
#     4   9  15  24  44  74 105 139 174 202 237 290
#     4   9  14  22  41  73 108 141 175 204 232 280
#     4  10  19  33  52  74 102 139 171 199 246 302
#     4  11  24  38  53  75  99 125 165 218 265 303
#
# _framework density 18.031420000000001
#
# number of rings (size 3 to 8) (size 9 to 14) (size 15 to 20)
#    0.000    2.429    4.286    0.000    0.000    0.571 
#    0.000    2.143    0.000    0.857    0.000    2.000 
#    0.000    5.714    0.000    0.000    0.000    0.000 
#
# Total GULP energy -312278.736721 kJ/mol
# GULP energy per Si atom -5576.406013 kJ/mol
# Density = 1.799038 g / cm^3
# Si number density = 18.031420 Si / 1000 Ang^3
#
#
#
# Elastic Constant Matrix: (Units=GPa)
#
#
# Indices 1 2 3 4 5 6 
#
# 1 119.5207 53.8595 24.3742 0.0000 0.0000 0.0000
# 2 53.8595 117.4405 25.0900 0.0000 0.0000 0.0000
# 3 24.3742 25.0900 67.6039 0.0000 0.0000 0.0000
# 4 0.0000 0.0000 0.0000 16.2334 0.0000 0.0000
# 5 0.0000 0.0000 0.0000 0.0000 5.8634 0.0000
# 6 0.0000 0.0000 0.0000 0.0000 0.0000 20.0845
#
#
#
# Elastic Compliance Matrix: (Units=1/GPa)
#
#
# Indices 1 2 3 4 5 6 
#
# 1 0.010851 -0.004497 -0.002243 0.000000 0.000000 0.000000
# 2 -0.004497 0.011112 -0.002503 0.000000 0.000000 0.000000
# 3 -0.002243 -0.002503 0.016530 0.000000 0.000000 0.000000
# 4 0.000000 0.000000 0.000000 0.061602 0.000000 0.000000
# 5 0.000000 0.000000 0.000000 0.000000 0.170550 0.000000
# 6 0.000000 0.000000 0.000000 0.000000 0.000000 0.049790
#
#
# Mechanical properties :
#
#
# Convention : Reuss Voigt Hill
#
# Bulk Modulus (GPa) = 49.98338 56.80138 53.39238
# Shear Modulus (GPa) = 14.46808 21.85234 18.16021
#
# Velocity S-wave (km/s) = 2.83571 3.48502 3.17699
# Velocity P-wave (km/s) = 6.20500 6.91112 6.56755
#
# Compressibility (1/GPa) = 0.02000665
#
# Stress axis : x y z
#
# Youngs Moduli (GPa) = 92.16004 89.99284 60.49750
#
# Poissons Ratio (x) = 0.40470 0.13571
# Poissons Ratio (y) = 0.41445 0.15140
# Poissons Ratio (z) = 0.20673 0.22522
#
# Static dielectric constant tensor:
#      x y z
#    x 1.570890 0.000000 0.000000 
#    y 0.000000 1.646460 0.000000 
#    z 0.000000 0.000000 1.728900 
# 
# From -- ./inp_files/37982.got.cif
#   From: 2010.05.17/outbox.cif.g08.bks.cpg/sg63_19_cif.got.tgz:37982.got - 2010.06.03 15:47:04.
