data_PCOD9470290
_publ_section_title
;
Structure prediction by ZEFSAII (Michael W. Deem and Ramdas Pophale) SiO2 
 PCOD9470290
Probable space group: C M C M
;
_chemical_formula_sum "Si O2"
_cell_formula_units_Z 96
_cell_length_a 7.907868
_cell_length_b 31.881642
_cell_length_c 19.980618
_cell_angle_alpha 90.000000
_cell_angle_beta 90.000000
_cell_angle_gamma 90.000000
_cell_volume 5037.429822
_symmetry_space_group_name_H-M "C M C M"
_symmetry_group_IT_number 63
_symmetry_cell_setting 'orthorhombic'
loop_
_space_group_symop_operation_xyz
x,y,z
-x,-y,1/2+z
x,-y,-z
-x,y,1/2-z
-x,-y,-z
x,y,1/2-z
-x,y,z
x,-y,1/2+z
1/2+x,1/2+y,z
1/2-x,1/2-y,1/2+z
1/2+x,1/2-y,-z
1/2-x,1/2+y,1/2-z
1/2-x,1/2-y,-z
1/2+x,1/2+y,1/2-z
1/2-x,1/2+y,z
1/2+x,1/2-y,1/2+z
loop_
_atom_site_type_symbol
_atom_site_label
_atom_site_fract_x
_atom_site_fract_y
_atom_site_fract_z
Si Si1 0.000000 0.064739 0.949330
Si Si2 0.807316 0.580437 0.373449
Si Si3 0.317108 0.114896 0.521800
Si Si4 0.000000 0.972929 0.602003
Si Si5 0.206977 0.760353 0.173511
Si Si6 0.192306 0.330801 0.829897
Si Si7 0.298189 0.293904 0.465352
O O1 0.836879 0.093951 0.939073
O O2 0.000000 0.022707 0.906076
O O3 0.000000 0.047740 0.026762
O O4 0.823590 0.589503 0.452366
O O5 0.670764 0.544180 0.363649
O O6 0.731786 0.624384 0.346519
O O7 0.000000 0.573555 0.347219
O O8 0.500000 0.111362 0.554972
O O9 0.281603 0.163730 0.505717
O O10 0.260431 0.769592 0.250000
O O11 0.269949 0.713879 0.151474
O O12 0.252449 0.790965 0.113243
O O13 0.000000 0.757765 0.174836
O O14 0.180600 0.328064 0.750000
O O15 0.000000 0.332493 0.857628
O O16 0.500000 0.298028 0.469503
O O17 0.250000 0.250000 0.500000
#
# Coordination Sequence:
#
# PCOD9470290 Si02
#       7
#     8  16  16   8  16  16  16
#     4   9  18  34  48  70  98 126 162 200 249 300
#     4   9  17  29  46  70  98 127 159 194 242 298
#     4  10  19  32  49  70  99 132 164 202 249 298
#     4   9  18  30  49  70  96 126 157 200 245 299
#     4   8  15  28  46  68  96 134 176 212 247 294
#     4   8  13  24  43  66  94 128 163 197 237 289
#     4  11  20  30  47  74 104 133 171 214 256 302
#
# _framework density 19.057338000000001
#
# number of rings (size 3 to 8) (size 9 to 14) (size 15 to 20)
#    0.000    2.833    0.833    2.500    0.000    3.333 
#    0.000    3.750    0.000    2.000    0.000    2.333 
#    0.000    0.000    0.000    0.000    0.000    0.000 
#
# Total GULP energy -267293.876791 kJ/mol
# GULP energy per Si atom -5568.622433 kJ/mol
# Density = 1.901396 g / cm^3
# Si number density = 19.057338 Si / 1000 Ang^3
#
#
#
# Elastic Constant Matrix: (Units=GPa)
#
#
# Indices 1 2 3 4 5 6 
#
# 1 100.1461 48.1190 6.7009 0.0000 0.0000 0.0000
# 2 48.1190 75.4922 -4.3307 0.0000 0.0000 0.0000
# 3 6.7009 -4.3307 24.5734 0.0000 0.0000 0.0000
# 4 0.0000 0.0000 0.0000 22.5863 0.0000 0.0000
# 5 0.0000 0.0000 0.0000 0.0000 0.9243 0.0000
# 6 0.0000 0.0000 0.0000 0.0000 0.0000 19.0922
#
#
#
# Elastic Compliance Matrix: (Units=1/GPa)
#
#
# Indices 1 2 3 4 5 6 
#
# 1 0.015199 -0.010027 -0.005912 0.000000 0.000000 0.000000
# 2 -0.010027 0.019997 0.006258 0.000000 0.000000 0.000000
# 3 -0.005912 0.006258 0.043409 0.000000 0.000000 0.000000
# 4 0.000000 0.000000 0.000000 0.044275 0.000000 0.000000
# 5 0.000000 0.000000 0.000000 0.000000 1.081841 0.000000
# 6 0.000000 0.000000 0.000000 0.000000 0.000000 0.052378
#
#
# Mechanical properties :
#
#
# Convention : Reuss Voigt Hill
#
# Bulk Modulus (GPa) = 16.87922 33.46558 25.17240
# Shear Modulus (GPa) = 3.85741 18.50205 11.17973
#
# Velocity S-wave (km/s) = 1.42425 3.11925 2.42469
# Velocity P-wave (km/s) = 3.40308 5.52915 4.59089
#
# Compressibility (1/GPa) = 0.05924443
#
# Stress axis : x y z
#
# Youngs Moduli (GPa) = 65.79482 50.00849 23.03646
#
# Poissons Ratio (x) = 0.50143 0.13618
# Poissons Ratio (y) = 0.65972 -0.14417
# Poissons Ratio (z) = 0.38896 -0.31297
#
# Static dielectric constant tensor:
#      x y z
#    x 1.713210 0.000000 0.000000 
#    y 0.000000 1.684030 0.000000 
#    z 0.000000 0.000000 1.688930 
# 
# From -- ./inp_files/60339.got.cif
#   From: 2010.05.17/outbox.cif.g08.bks.cpg/sg63_31_cif.got.tgz:60339.got - 2010.06.03 15:47:04.
