data_PCOD9470852
_publ_section_title
;
Structure prediction by ZEFSAII (Michael W. Deem and Ramdas Pophale) SiO2 
 PCOD9470852
Probable space group: C M C M
;
_chemical_formula_sum "Si O2"
_cell_formula_units_Z 96
_cell_length_a 32.158173
_cell_length_b 16.651832
_cell_length_c 10.078686
_cell_angle_alpha 90.000000
_cell_angle_beta 90.000000
_cell_angle_gamma 90.000000
_cell_volume 5397.060705
_symmetry_space_group_name_H-M "C M C M"
_symmetry_group_IT_number 63
_symmetry_cell_setting 'orthorhombic'
loop_
_space_group_symop_operation_xyz
x,y,z
-x,-y,1/2+z
x,-y,-z
-x,y,1/2-z
-x,-y,-z
x,y,1/2-z
-x,y,z
x,-y,1/2+z
1/2+x,1/2+y,z
1/2-x,1/2-y,1/2+z
1/2+x,1/2-y,-z
1/2-x,1/2+y,1/2-z
1/2-x,1/2-y,-z
1/2+x,1/2+y,1/2-z
1/2-x,1/2+y,z
1/2+x,1/2-y,1/2+z
loop_
_atom_site_type_symbol
_atom_site_label
_atom_site_fract_x
_atom_site_fract_y
_atom_site_fract_z
Si Si1 0.180331 0.874003 0.100235
Si Si2 0.666076 0.223955 0.591241
Si Si3 0.928021 0.297902 0.410137
Si Si4 0.000000 0.578761 0.588844
Si Si5 0.884633 0.000000 0.000000
Si Si6 0.045890 0.122374 0.091978
Si Si7 0.724541 0.073165 0.595044
O O1 0.178186 0.840753 0.250000
O O2 0.226315 0.910078 0.081002
O O3 0.146174 0.944181 0.085387
O O4 0.173344 0.804508 0.992367
O O5 0.667029 0.241444 0.750000
O O6 0.620179 0.191281 0.556179
O O7 0.699830 0.155067 0.563579
O O8 0.930066 0.294078 0.250000
O O9 0.943059 0.211002 0.461212
O O10 0.959631 0.367845 0.446810
O O11 0.000000 0.500000 0.500000
O O12 0.000000 0.564681 0.750000
O O13 0.916443 0.937957 0.932679
O O14 0.042644 0.129413 0.250000
O O15 0.000000 0.097586 0.041345
O O16 0.716242 0.053942 0.750000
O O17 0.712495 0.000000 0.500000
#
# Coordination Sequence:
#
# PCOD9470852 Si02
#       7
#    16  16  16   8   8  16  16
#     4  11  23  37  55  84 119 152 190 236 289 343
#     4  10  21  38  61  84 110 149 196 238 287 346
#     4   9  17  33  57  81 105 145 186 226 274 336
#     4  10  20  36  60  85 112 142 188 235 282 340
#     4  12  21  34  56  82 116 152 194 231 282 336
#     4  10  19  33  55  82 110 146 192 232 272 329
#     4  10  22  39  58  84 114 149 192 240 291 347
#
# _framework density 17.787459999999999
#
# number of rings (size 3 to 8) (size 9 to 14) (size 15 to 20)
#    0.000    1.833    3.333    1.250    0.000    2.667 
#    0.000    0.833    0.000    0.000    0.000    0.000 
#    0.000    0.000    0.000    0.000    0.000    0.000 
#
# Total GULP energy -267581.046156 kJ/mol
# GULP energy per Si atom -5574.605128 kJ/mol
# Density = 1.774697 g / cm^3
# Si number density = 17.787460 Si / 1000 Ang^3
#
#
#
# Elastic Constant Matrix: (Units=GPa)
#
#
# Indices 1 2 3 4 5 6 
#
# 1 119.4850 56.6162 28.1919 0.0000 0.0000 0.0000
# 2 56.6162 128.8895 51.3589 0.0000 0.0000 0.0000
# 3 28.1919 51.3589 52.2121 0.0000 0.0000 0.0000
# 4 0.0000 0.0000 0.0000 30.0016 0.0000 0.0000
# 5 0.0000 0.0000 0.0000 0.0000 19.6120 0.0000
# 6 0.0000 0.0000 0.0000 0.0000 0.0000 61.0855
#
#
#
# Elastic Compliance Matrix: (Units=1/GPa)
#
#
# Indices 1 2 3 4 5 6 
#
# 1 0.010682 -0.003937 -0.001895 0.000000 0.000000 0.000000
# 2 -0.003937 0.014211 -0.011853 0.000000 0.000000 0.000000
# 3 -0.001895 -0.011853 0.031835 0.000000 0.000000 0.000000
# 4 0.000000 0.000000 0.000000 0.033332 0.000000 0.000000
# 5 0.000000 0.000000 0.000000 0.000000 0.050989 0.000000
# 6 0.000000 0.000000 0.000000 0.000000 0.000000 0.016370
#
#
# Mechanical properties :
#
#
# Convention : Reuss Voigt Hill
#
# Bulk Modulus (GPa) = 46.82076 63.65783 55.23929
# Shear Modulus (GPa) = 25.01140 33.10114 29.05627
#
# Velocity S-wave (km/s) = 3.75390 4.31852 4.04607
# Velocity P-wave (km/s) = 6.72075 7.79307 7.27669
#
# Compressibility (1/GPa) = 0.02135805
#
# Stress axis : x y z
#
# Youngs Moduli (GPa) = 93.61658 70.36753 31.41173
#
# Poissons Ratio (x) = 0.27704 0.05952
# Poissons Ratio (y) = 0.36857 0.37233
# Poissons Ratio (z) = 0.17740 0.83407
#
# Static dielectric constant tensor:
#      x y z
#    x 1.622980 0.000000 0.000000 
#    y 0.000000 1.594340 0.000000 
#    z 0.000000 0.000000 1.600710 
# 
# From -- ./inp_files/25888.got.cif
#   From: 2010.05.17/outbox.cif.g08.bks.cpg/sg63_13_cif.got.tgz:25888.got - 2010.06.03 15:47:04.
