data_PCOD9470952
_publ_section_title
;
Structure prediction by ZEFSAII (Michael W. Deem and Ramdas Pophale) SiO2 
 PCOD9470952
Probable space group: C M C M
;
_chemical_formula_sum "Si O2"
_cell_formula_units_Z 68
_cell_length_a 14.922082
_cell_length_b 10.631097
_cell_length_c 18.662670
_cell_angle_alpha 90.000000
_cell_angle_beta 90.000000
_cell_angle_gamma 90.000000
_cell_volume 2960.610532
_symmetry_space_group_name_H-M "C M C M"
_symmetry_group_IT_number 63
_symmetry_cell_setting 'orthorhombic'
loop_
_space_group_symop_operation_xyz
x,y,z
-x,-y,1/2+z
x,-y,-z
-x,y,1/2-z
-x,-y,-z
x,y,1/2-z
-x,y,z
x,-y,1/2+z
1/2+x,1/2+y,z
1/2-x,1/2-y,1/2+z
1/2+x,1/2-y,-z
1/2-x,1/2+y,1/2-z
1/2-x,1/2-y,-z
1/2+x,1/2+y,1/2-z
1/2-x,1/2+y,z
1/2+x,1/2-y,1/2+z
loop_
_atom_site_type_symbol
_atom_site_label
_atom_site_fract_x
_atom_site_fract_y
_atom_site_fract_z
Si Si1 0.094895 0.057644 0.579011
Si Si2 0.666383 0.789310 0.350729
Si Si3 0.777045 0.443102 0.867017
Si Si4 0.604863 0.172649 0.012975
Si Si5 0.500000 0.729016 0.250000
O O1 0.103423 0.204029 0.562920
O O2 0.000000 0.032244 0.616545
O O3 0.091457 0.000000 0.500000
O O4 0.179802 0.999605 0.615844
O O5 0.749837 0.694198 0.335992
O O6 0.650700 0.793425 0.437204
O O7 0.579178 0.737422 0.311851
O O8 0.678134 0.936289 0.329078
O O9 0.837253 0.420943 0.937948
O O10 0.500000 0.138596 0.000880
#
# Coordination Sequence:
#
# PCOD9470952 Si02
#       5
#    16  16  16  16   4
#     4  10  19  33  59 102 147 174 203 264 359 418
#     4  12  26  46  69  98 142 184 234 281 335 421
#     4  12  24  41  73 108 138 174 221 297 355 412
#     4  11  22  38  66 111 146 175 213 287 373 415
#     4  12  32  52  70  92 134 204 242 278 324 400
#
# _framework density 22.968236999999998
#
# number of rings (size 3 to 8) (size 9 to 14) (size 15 to 20)
#    0.000    0.706    5.882    2.824    3.294    1.882 
#    0.000    0.000    0.000    1.412    0.000    0.000 
#    0.000    0.000    0.000    0.000    0.000    0.000 
#
# Total GULP energy -189316.273540 kJ/mol
# GULP energy per Si atom -5568.125692 kJ/mol
# Density = 2.291596 g / cm^3
# Si number density = 22.968237 Si / 1000 Ang^3
#
#
#
# Elastic Constant Matrix: (Units=GPa)
#
#
# Indices 1 2 3 4 5 6 
#
# 1 103.1480 14.8096 25.0479 0.0000 0.0000 0.0000
# 2 14.8096 133.8288 15.9005 0.0000 0.0000 0.0000
# 3 25.0479 15.9005 79.2943 0.0000 0.0000 0.0000
# 4 0.0000 0.0000 0.0000 -34.6975 0.0000 0.0000
# 5 0.0000 0.0000 0.0000 0.0000 -162.7636 0.0000
# 6 0.0000 0.0000 0.0000 0.0000 0.0000 6.5774
#
#
#
# Elastic Compliance Matrix: (Units=1/GPa)
#
#
# Indices 1 2 3 4 5 6 
#
# 1 0.010582 -0.000793 -0.003184 0.000000 0.000000 0.000000
# 2 -0.000793 0.007714 -0.001296 0.000000 0.000000 0.000000
# 3 -0.003184 -0.001296 0.013877 0.000000 0.000000 0.000000
# 4 0.000000 0.000000 0.000000 -0.028820 0.000000 0.000000
# 5 0.000000 0.000000 0.000000 0.000000 -0.006144 0.000000
# 6 0.000000 0.000000 0.000000 0.000000 0.000000 0.152035
#
#
# Mechanical properties :
#
#
# Convention : Reuss Voigt Hill
#
# Bulk Modulus (GPa) = 46.23855 47.53189 46.88522
# Shear Modulus (GPa) = 29.94045 -20.80919 4.56563
#
# Velocity S-wave (km/s) = 3.61440 -3.01325 1.41142
# Velocity P-wave (km/s) = 6.13137 2.93825 4.80765
#
# Compressibility (1/GPa) = 0.02162697
#
# Stress axis : x y z
#
# Youngs Moduli (GPa) = 94.50261 129.63460 72.06230
#
# Poissons Ratio (x) = 0.10276 0.22942
# Poissons Ratio (y) = 0.07491 0.09342
# Poissons Ratio (z) = 0.30086 0.16806
#
# Static dielectric constant tensor:
#      x y z
#    x 1.860270 0.000000 0.000000 
#    y 0.000000 2.024710 0.000000 
#    z 0.000000 0.000000 0.653770 
# 
# From -- ./inp_files/53842.got.cif
#   From: 2010.05.17/outbox.cif.g08.bks.cpg/sg63_27_cif.got.tgz:53842.got - 2010.06.03 15:47:04.
