data_PCOD9470574
_publ_section_title
;
Structure prediction by ZEFSAII (Michael W. Deem and Ramdas Pophale) SiO2 
 PCOD9470574
Probable space group: C M C M
;
_chemical_formula_sum "Si O2"
_cell_formula_units_Z 96
_cell_length_a 7.821010
_cell_length_b 30.389911
_cell_length_c 19.074499
_cell_angle_alpha 90.000000
_cell_angle_beta 90.000000
_cell_angle_gamma 90.000000
_cell_volume 4533.623066
_symmetry_space_group_name_H-M "C M C M"
_symmetry_group_IT_number 63
_symmetry_cell_setting 'orthorhombic'
loop_
_space_group_symop_operation_xyz
x,y,z
-x,-y,1/2+z
x,-y,-z
-x,y,1/2-z
-x,-y,-z
x,y,1/2-z
-x,y,z
x,-y,1/2+z
1/2+x,1/2+y,z
1/2-x,1/2-y,1/2+z
1/2+x,1/2-y,-z
1/2-x,1/2+y,1/2-z
1/2-x,1/2-y,-z
1/2+x,1/2+y,1/2-z
1/2-x,1/2+y,z
1/2+x,1/2-y,1/2+z
loop_
_atom_site_type_symbol
_atom_site_label
_atom_site_fract_x
_atom_site_fract_y
_atom_site_fract_z
Si Si1 0.293080 0.095075 0.917588
Si Si2 0.702688 0.692917 0.552396
Si Si3 0.803265 0.558995 0.435252
Si Si4 0.790798 0.514237 0.671227
Si Si5 0.302097 0.370438 0.671795
Si Si6 0.802209 0.284669 0.896318
O O1 0.500000 0.096457 0.921161
O O2 0.232788 0.145184 0.915451
O O3 0.245165 0.063201 0.853941
O O4 0.228277 0.072357 0.989784
O O5 0.500000 0.699127 0.540908
O O6 0.787633 0.697016 0.475977
O O7 0.762479 0.734535 0.598469
O O8 0.728477 0.520038 0.387695
O O9 0.796941 0.601907 0.386194
O O10 0.000000 0.546387 0.449326
O O11 0.732243 0.504128 0.750000
O O12 0.000000 0.511396 0.671884
O O13 0.236607 0.378884 0.750000
O O14 0.500000 0.384061 0.668120
O O15 0.291326 0.319084 0.653111
O O16 0.000000 0.284210 0.875031
#
# Coordination Sequence:
#
# PCOD9470574 Si02
#       6
#    16  16  16  16  16  16
#     4  10  19  32  54  83 110 141 185 230 271 322
#     4  10  20  34  55  81 109 138 174 223 274 321
#     4  10  19  33  55  81 107 141 186 231 273 322
#     4   9  18  33  53  78 109 145 185 229 274 322
#     4  11  23  36  52  79 115 149 181 225 279 330
#     4  10  20  35  55  79 106 142 183 221 266 323
#
# _framework density 21.175118999999999
#
# number of rings (size 3 to 8) (size 9 to 14) (size 15 to 20)
#    0.000    2.000    1.667    2.500    0.000    6.000 
#    0.000    1.667    0.000    6.500    0.000    0.000 
#    0.000    0.000    0.000    0.000    0.000    0.000 
#
# Total GULP energy -268047.335009 kJ/mol
# GULP energy per Si atom -5584.319479 kJ/mol
# Density = 2.112692 g / cm^3
# Si number density = 21.175119 Si / 1000 Ang^3
#
#
#
# Elastic Constant Matrix: (Units=GPa)
#
#
# Indices 1 2 3 4 5 6 
#
# 1 33.2716 -2.6530 0.0711 0.0000 0.0000 0.0000
# 2 -2.6530 121.3173 10.1967 0.0000 0.0000 0.0000
# 3 0.0711 10.1967 35.9799 0.0000 0.0000 0.0000
# 4 0.0000 0.0000 0.0000 2.6850 0.0000 0.0000
# 5 0.0000 0.0000 0.0000 0.0000 7.0297 0.0000
# 6 0.0000 0.0000 0.0000 0.0000 0.0000 20.5848
#
#
#
# Elastic Compliance Matrix: (Units=1/GPa)
#
#
# Indices 1 2 3 4 5 6 
#
# 1 0.030110 0.000680 -0.000252 0.000000 0.000000 0.000000
# 2 0.000680 0.008459 -0.002399 0.000000 0.000000 0.000000
# 3 -0.000252 -0.002399 0.028474 0.000000 0.000000 0.000000
# 4 0.000000 0.000000 0.000000 0.372437 0.000000 0.000000
# 5 0.000000 0.000000 0.000000 0.000000 0.142253 0.000000
# 6 0.000000 0.000000 0.000000 0.000000 0.000000 0.048579
#
#
# Mechanical properties :
#
#
# Convention : Reuss Voigt Hill
#
# Bulk Modulus (GPa) = 15.84763 22.86650 19.35706
# Shear Modulus (GPa) = 7.63022 18.25684 12.94353
#
# Velocity S-wave (km/s) = 1.90032 2.93948 2.47505
# Velocity P-wave (km/s) = 3.50931 4.72683 4.16282
#
# Compressibility (1/GPa) = 0.06310090
#
# Stress axis : x y z
#
# Youngs Moduli (GPa) = 33.21112 118.21278 35.12023
#
# Poissons Ratio (x) = -0.08034 0.00886
# Poissons Ratio (y) = -0.02257 0.08424
# Poissons Ratio (z) = 0.00837 0.28356
#
# Static dielectric constant tensor:
#      x y z
#    x 1.856910 0.000000 0.000000 
#    y 0.000000 1.776330 0.000000 
#    z 0.000000 0.000000 1.734220 
# 
# From -- ./inp_files/51248.got.cif
#   From: 2010.05.17/outbox.cif.g08.bks.cpg/sg63_26_cif.got.tgz:51248.got - 2010.06.03 15:47:04.
