data_PCOD9470057
_publ_section_title
;
Structure prediction by ZEFSAII (Michael W. Deem and Ramdas Pophale) SiO2 
 PCOD9470057
Probable space group: C M C M
;
_chemical_formula_sum "Si O2"
_cell_formula_units_Z 116
_cell_length_a 28.524070
_cell_length_b 23.480954
_cell_length_c 7.443269
_cell_angle_alpha 90.000000
_cell_angle_beta 90.000000
_cell_angle_gamma 90.000000
_cell_volume 4985.295960
_symmetry_space_group_name_H-M "C M C M"
_symmetry_group_IT_number 63
_symmetry_cell_setting 'orthorhombic'
loop_
_space_group_symop_operation_xyz
x,y,z
-x,-y,1/2+z
x,-y,-z
-x,y,1/2-z
-x,-y,-z
x,y,1/2-z
-x,y,z
x,-y,1/2+z
1/2+x,1/2+y,z
1/2-x,1/2-y,1/2+z
1/2+x,1/2-y,-z
1/2-x,1/2+y,1/2-z
1/2-x,1/2-y,-z
1/2+x,1/2+y,1/2-z
1/2-x,1/2+y,z
1/2+x,1/2-y,1/2+z
loop_
_atom_site_type_symbol
_atom_site_label
_atom_site_fract_x
_atom_site_fract_y
_atom_site_fract_z
Si Si1 0.419940 0.937095 0.463850
Si Si2 0.653619 0.210779 0.468203
Si Si3 0.000000 0.946025 0.750000
Si Si4 0.450205 0.185242 0.043732
Si Si5 0.214878 0.937478 0.035026
Si Si6 0.349910 0.664438 0.968421
Si Si7 0.816525 0.587562 0.542623
Si Si8 0.050559 0.883839 0.459753
O O1 0.419374 0.927895 0.250000
O O2 0.446937 0.883486 0.543042
O O3 0.366146 0.933151 0.535084
O O4 0.438536 0.000000 0.500000
O O5 0.654021 0.207122 0.250000
O O6 0.599646 0.204221 0.532321
O O7 0.668375 0.273728 0.524865
O O8 0.681902 0.156289 0.535203
O O9 0.040371 0.936351 0.591473
O O10 0.450271 0.205610 0.250000
O O11 0.500000 0.201953 0.961204
O O12 0.217974 0.929740 0.250000
O O13 0.182184 0.887038 0.966679
O O14 0.267923 0.933564 0.961660
O O15 0.195354 0.000000 0.000000
O O16 0.349085 0.664958 0.750000
O O17 0.404220 0.652046 0.014176
O O18 0.817289 0.569061 0.750000
O O19 0.055342 0.900709 0.250000
O O20 0.000000 0.851521 0.475730
#
# Coordination Sequence:
#
# PCOD9470057 Si02
#       8
#    16  16   4  16  16  16  16  16
#     4  10  19  31  49  71  97 134 176 217 263 308
#     4   9  18  33  54  77 102 138 177 215 261 321
#     4   8  14  28  48  78 110 140 184 228 254 320
#     4   9  18  32  49  71  99 129 170 215 257 308
#     4  10  21  38  57  79 107 139 175 219 270 322
#     4   9  18  34  55  79 111 143 174 217 271 322
#     4   9  19  35  52  74 106 138 173 219 269 318
#     4   8  15  29  50  76 108 146 181 220 269 320
#
# _framework density 23.268428
#
# number of rings (size 3 to 8) (size 9 to 14) (size 15 to 20)
#    0.414    2.483    0.000    0.828    0.000    2.759 
#    2.483    2.759    0.000    0.414    0.000    0.000 
#    0.000    0.000    0.000    0.000    0.000    0.000 
#
# Total GULP energy -322996.371455 kJ/mol
# GULP energy per Si atom -5568.902956 kJ/mol
# Density = 2.321547 g / cm^3
# Si number density = 23.268428 Si / 1000 Ang^3
#
#
#
# Elastic Constant Matrix: (Units=GPa)
#
#
# Indices 1 2 3 4 5 6 
#
# 1 48.9568 17.7467 -4.2985 0.0000 0.0000 0.0000
# 2 17.7467 110.9024 -13.5869 0.0000 0.0000 0.0000
# 3 -4.2985 -13.5869 82.7120 0.0000 0.0000 0.0000
# 4 0.0000 0.0000 0.0000 9.9373 0.0000 0.0000
# 5 0.0000 0.0000 0.0000 0.0000 -1.0554 0.0000
# 6 0.0000 0.0000 0.0000 0.0000 0.0000 -141.5265
#
#
#
# Elastic Compliance Matrix: (Units=1/GPa)
#
#
# Indices 1 2 3 4 5 6 
#
# 1 0.021710 -0.003404 0.000569 0.000000 0.000000 0.000000
# 2 -0.003404 0.009736 0.001422 0.000000 0.000000 0.000000
# 3 0.000569 0.001422 0.012353 0.000000 0.000000 0.000000
# 4 0.000000 0.000000 0.000000 0.100631 0.000000 0.000000
# 5 0.000000 0.000000 0.000000 0.000000 -0.947525 0.000000
# 6 0.000000 0.000000 0.000000 0.000000 0.000000 -0.007066
#
#
# Mechanical properties :
#
#
# Convention : Reuss Voigt Hill
#
# Bulk Modulus (GPa) = 24.40594 26.92154 25.66374
# Shear Modulus (GPa) = -6.29979 -10.34826 -8.32402
#
# Velocity S-wave (km/s) = -1.64722 -2.11116 -1.89345
# Velocity P-wave (km/s) = 2.62562 2.37749 2.50463
#
# Compressibility (1/GPa) = 0.04097363
#
# Stress axis : x y z
#
# Youngs Moduli (GPa) = 46.06124 102.71188 80.94959
#
# Poissons Ratio (x) = 0.34967 -0.04606
# Poissons Ratio (y) = 0.15681 -0.11514
# Poissons Ratio (z) = -0.02621 -0.14610
#
# Static dielectric constant tensor:
#      x y z
#    x 1.890390 0.000000 0.000000 
#    y 0.000000 1.879270 0.000000 
#    z 0.000000 0.000000 1.899820 
# 
# From -- ./inp_files/14760.got.cif
#   From: 2010.05.17/outbox.cif.g08.bks.cpg/sg63_8_cif.got.tgz:14760.got - 2010.06.03 15:47:04.
