data_PCOD9470938
_publ_section_title
;
Structure prediction by ZEFSAII (Michael W. Deem and Ramdas Pophale) SiO2 
 PCOD9470938
Probable space group: C M C M
;
_chemical_formula_sum "Si O2"
_cell_formula_units_Z 112
_cell_length_a 25.257621
_cell_length_b 13.189716
_cell_length_c 18.274662
_cell_angle_alpha 90.000000
_cell_angle_beta 90.000000
_cell_angle_gamma 90.000000
_cell_volume 6088.036392
_symmetry_space_group_name_H-M "C M C M"
_symmetry_group_IT_number 63
_symmetry_cell_setting 'orthorhombic'
loop_
_space_group_symop_operation_xyz
x,y,z
-x,-y,1/2+z
x,-y,-z
-x,y,1/2-z
-x,-y,-z
x,y,1/2-z
-x,y,z
x,-y,1/2+z
1/2+x,1/2+y,z
1/2-x,1/2-y,1/2+z
1/2+x,1/2-y,-z
1/2-x,1/2+y,1/2-z
1/2-x,1/2-y,-z
1/2+x,1/2+y,1/2-z
1/2-x,1/2+y,z
1/2+x,1/2-y,1/2+z
loop_
_atom_site_type_symbol
_atom_site_label
_atom_site_fract_x
_atom_site_fract_y
_atom_site_fract_z
Si Si1 0.614728 0.614742 0.517440
Si Si2 0.061618 0.381476 0.337248
Si Si3 0.757041 0.071491 0.163496
Si Si4 0.440385 0.353123 0.622146
Si Si5 0.338977 0.034140 0.915937
Si Si6 0.366240 0.537834 0.666627
Si Si7 0.795996 0.755200 0.559096
O O1 0.633779 0.500000 0.500000
O O2 0.564066 0.631218 0.465755
O O3 0.612198 0.614295 0.604786
O O4 0.655757 0.692965 0.483906
O O5 0.067544 0.391726 0.250000
O O6 0.071824 0.263063 0.357580
O O7 0.104050 0.451705 0.378013
O O8 0.000000 0.402209 0.356313
O O9 0.750287 0.084317 0.250000
O O10 0.778128 0.172952 0.125089
O O11 0.702458 0.037909 0.125799
O O12 0.804459 0.989123 0.152729
O O13 0.500000 0.374987 0.647100
O O14 0.399265 0.432954 0.656379
O O15 0.312322 0.144875 0.914772
O O16 0.344347 0.000000 0.000000
O O17 0.372008 0.572673 0.750000
O O18 0.750000 0.750000 0.500000
#
# Coordination Sequence:
#
# PCOD9470938 Si02
#       7
#    16  16  16  16  16  16  16
#     4  10  19  35  55  78 114 150 199 238 293 356
#     4  10  21  39  62  88 119 152 194 255 313 355
#     4  11  23  39  59  88 120 153 195 243 294 358
#     4  10  19  33  57  87 117 153 199 247 300 360
#     4  12  24  39  64  91 120 158 203 246 294 363
#     4  10  20  33  53  79 115 156 194 241 292 347
#     4  12  22  37  60  83 117 159 196 240 302 348
#
# _framework density 18.396736000000001
#
# number of rings (size 3 to 8) (size 9 to 14) (size 15 to 20)
#    0.000    1.286    5.714    1.714    0.000    6.000 
#    0.000    0.714    0.000    0.000    0.000    0.000 
#    0.000    0.000    0.000    0.000    0.000    0.000 
#
# Total GULP energy -312518.122806 kJ/mol
# GULP energy per Si atom -5580.680764 kJ/mol
# Density = 1.835486 g / cm^3
# Si number density = 18.396736 Si / 1000 Ang^3
#
#
#
# Elastic Constant Matrix: (Units=GPa)
#
#
# Indices 1 2 3 4 5 6 
#
# 1 97.2761 19.1800 41.4248 0.0000 0.0000 0.0000
# 2 19.1800 52.5339 24.3202 0.0000 0.0000 0.0000
# 3 41.4248 24.3202 135.5985 0.0000 0.0000 0.0000
# 4 0.0000 0.0000 0.0000 24.5404 0.0000 0.0000
# 5 0.0000 0.0000 0.0000 0.0000 24.6595 0.0000
# 6 0.0000 0.0000 0.0000 0.0000 0.0000 20.4304
#
#
#
# Elastic Compliance Matrix: (Units=1/GPa)
#
#
# Indices 1 2 3 4 5 6 
#
# 1 0.012232 -0.002984 -0.003202 0.000000 0.000000 0.000000
# 2 -0.002984 0.021487 -0.002942 0.000000 0.000000 0.000000
# 3 -0.003202 -0.002942 0.008880 0.000000 0.000000 0.000000
# 4 0.000000 0.000000 0.000000 0.040749 0.000000 0.000000
# 5 0.000000 0.000000 0.000000 0.000000 0.040552 0.000000
# 6 0.000000 0.000000 0.000000 0.000000 0.000000 0.048947
#
#
# Mechanical properties :
#
#
# Convention : Reuss Voigt Hill
#
# Bulk Modulus (GPa) = 41.07792 50.58426 45.83109
# Shear Modulus (GPa) = 25.09833 27.29165 26.19499
#
# Velocity S-wave (km/s) = 3.69763 3.85581 3.77754
# Velocity P-wave (km/s) = 6.37239 6.88324 6.63273
#
# Compressibility (1/GPa) = 0.02434398
#
# Stress axis : x y z
#
# Youngs Moduli (GPa) = 81.75488 46.54039 112.60628
#
# Poissons Ratio (x) = 0.13886 0.36052
# Poissons Ratio (y) = 0.24392 0.33132
# Poissons Ratio (z) = 0.26175 0.13693
#
# Static dielectric constant tensor:
#      x y z
#    x 1.679090 0.000000 0.000000 
#    y 0.000000 1.637970 0.000000 
#    z 0.000000 0.000000 1.663840 
# 
# From -- ./inp_files/57632.got.cif
#   From: 2010.05.17/outbox.cif.g08.bks.cpg/sg63_29_cif.got.tgz:57632.got - 2010.06.03 15:47:04.
