data_PCOD9470185
_publ_section_title
;
Structure prediction by ZEFSAII (Michael W. Deem and Ramdas Pophale) SiO2 
 PCOD9470185
Probable space group: C M C M
;
_chemical_formula_sum "Si O2"
_cell_formula_units_Z 80
_cell_length_a 26.552221
_cell_length_b 19.856811
_cell_length_c 8.786831
_cell_angle_alpha 90.000000
_cell_angle_beta 90.000000
_cell_angle_gamma 90.000000
_cell_volume 4632.790164
_symmetry_space_group_name_H-M "C M C M"
_symmetry_group_IT_number 63
_symmetry_cell_setting 'orthorhombic'
loop_
_space_group_symop_operation_xyz
x,y,z
-x,-y,1/2+z
x,-y,-z
-x,y,1/2-z
-x,-y,-z
x,y,1/2-z
-x,y,z
x,-y,1/2+z
1/2+x,1/2+y,z
1/2-x,1/2-y,1/2+z
1/2+x,1/2-y,-z
1/2-x,1/2+y,1/2-z
1/2-x,1/2-y,-z
1/2+x,1/2+y,1/2-z
1/2-x,1/2+y,z
1/2+x,1/2-y,1/2+z
loop_
_atom_site_type_symbol
_atom_site_label
_atom_site_fract_x
_atom_site_fract_y
_atom_site_fract_z
Si Si1 0.354660 0.424854 0.067391
Si Si2 0.748213 0.575451 0.067783
Si Si3 0.139948 0.575158 0.067886
Si Si4 0.057600 0.177632 0.566901
Si Si5 0.558072 0.175175 0.932052
O O1 0.352082 0.429506 0.250000
O O2 0.401700 0.378345 0.023253
O O3 0.360218 0.500000 0.000000
O O4 0.302083 0.394239 0.005271
O O5 0.742612 0.572896 0.250000
O O6 0.803782 0.603286 0.031571
O O7 0.749514 0.500000 0.000000
O O8 0.136245 0.570601 0.250000
O O9 0.135682 0.500000 0.000000
O O10 0.096927 0.622886 0.003183
O O11 0.060016 0.185587 0.750000
O O12 0.068454 0.249495 0.491264
O O13 0.000000 0.158418 0.527374
O O14 0.561790 0.173473 0.750000
O O15 0.500000 0.159217 0.974700
#
# Coordination Sequence:
#
# PCOD9470185 Si02
#       5
#    16  16  16  16  16
#     4  10  19  31  51  77 103 133 168 206 250 297
#     4   9  17  30  49  73 101 132 165 202 247 295
#     4  10  20  34  54  78 103 133 168 206 248 295
#     4   9  19  36  54  72  99 135 171 207 250 299
#     4  10  21  36  54  76 101 131 167 207 253 301
#
# _framework density 17.268212999999999
#
# number of rings (size 3 to 8) (size 9 to 14) (size 15 to 20)
#    0.000    2.400    0.000    3.600    0.000    6.000 
#    0.000    1.000    0.000    0.000    0.000    0.000 
#    0.000    0.000    0.000    0.000    0.000    0.000 
#
# Total GULP energy -223003.884201 kJ/mol
# GULP energy per Si atom -5575.097105 kJ/mol
# Density = 1.722891 g / cm^3
# Si number density = 17.268213 Si / 1000 Ang^3
#
#
#
# Elastic Constant Matrix: (Units=GPa)
#
#
# Indices 1 2 3 4 5 6 
#
# 1 179.4997 99.5768 64.2745 0.0000 0.0000 0.0000
# 2 99.5768 78.9087 39.8278 0.0000 0.0000 0.0000
# 3 64.2745 39.8278 56.1320 0.0000 0.0000 0.0000
# 4 0.0000 0.0000 0.0000 25.9466 0.0000 0.0000
# 5 0.0000 0.0000 0.0000 0.0000 33.5575 0.0000
# 6 0.0000 0.0000 0.0000 0.0000 0.0000 -34.0900
#
#
#
# Elastic Compliance Matrix: (Units=1/GPa)
#
#
# Indices 1 2 3 4 5 6 
#
# 1 0.020666 -0.022021 -0.008039 0.000000 0.000000 0.000000
# 2 -0.022021 0.043209 -0.005443 0.000000 0.000000 0.000000
# 3 -0.008039 -0.005443 0.030882 0.000000 0.000000 0.000000
# 4 0.000000 0.000000 0.000000 0.038541 0.000000 0.000000
# 5 0.000000 0.000000 0.000000 0.000000 0.029800 0.000000
# 6 0.000000 0.000000 0.000000 0.000000 0.000000 -0.029334
#
#
# Mechanical properties :
#
#
# Convention : Reuss Voigt Hill
#
# Bulk Modulus (GPa) = 42.10320 80.21093 61.15707
# Shear Modulus (GPa) = 23.50899 12.47357 17.99128
#
# Velocity S-wave (km/s) = 3.69372 2.69056 3.23131
# Velocity P-wave (km/s) = 6.52888 7.49687 7.02956
#
# Compressibility (1/GPa) = 0.02375116
#
# Stress axis : x y z
#
# Youngs Moduli (GPa) = 48.38979 23.14334 32.38158
#
# Poissons Ratio (x) = 0.50964 0.26030
# Poissons Ratio (y) = 1.06559 0.17625
# Poissons Ratio (z) = 0.38898 0.12597
#
# Static dielectric constant tensor:
#      x y z
#    x 1.623660 0.000000 0.000000 
#    y 0.000000 1.551050 0.000000 
#    z 0.000000 0.000000 1.578040 
# 
# From -- ./inp_files/12039.got.cif
#   From: 2010.05.17/outbox.cif.g08.bks.cpg/sg63_7_cif.got.tgz:12039.got - 2010.06.03 15:47:04.
