data_PCOD9471635
_publ_section_title
;
Structure prediction by ZEFSAII (Michael W. Deem and Ramdas Pophale) SiO2 
 PCOD9471635
Probable space group: C M C M
;
_chemical_formula_sum "Si O2"
_cell_formula_units_Z 96
_cell_length_a 7.456754
_cell_length_b 19.742056
_cell_length_c 31.245937
_cell_angle_alpha 90.000000
_cell_angle_beta 90.000000
_cell_angle_gamma 90.000000
_cell_volume 4599.766099
_symmetry_space_group_name_H-M "C M C M"
_symmetry_group_IT_number 63
_symmetry_cell_setting 'orthorhombic'
loop_
_space_group_symop_operation_xyz
x,y,z
-x,-y,1/2+z
x,-y,-z
-x,y,1/2-z
-x,-y,-z
x,y,1/2-z
-x,y,z
x,-y,1/2+z
1/2+x,1/2+y,z
1/2-x,1/2-y,1/2+z
1/2+x,1/2-y,-z
1/2-x,1/2+y,1/2-z
1/2-x,1/2-y,-z
1/2+x,1/2+y,1/2-z
1/2-x,1/2+y,z
1/2+x,1/2-y,1/2+z
loop_
_atom_site_type_symbol
_atom_site_label
_atom_site_fract_x
_atom_site_fract_y
_atom_site_fract_z
Si Si1 0.710315 0.670542 0.371222
Si Si2 0.218565 0.578838 0.547638
Si Si3 0.713315 0.915275 0.298265
Si Si4 0.716338 0.924910 0.549756
Si Si5 0.215959 0.929510 0.701316
Si Si6 0.220273 0.676179 0.876447
O O1 0.500000 0.679071 0.361558
O O2 0.725027 0.627962 0.414723
O O3 0.785782 0.624751 0.332711
O O4 0.782542 0.746320 0.375950
O O5 0.274281 0.502150 0.559404
O O6 0.274634 0.591939 0.498673
O O7 0.277973 0.634007 0.581887
O O8 0.000000 0.578806 0.547739
O O9 0.786271 0.906856 0.250000
O O10 0.500000 0.904712 0.295779
O O11 0.780299 0.863947 0.334091
O O12 0.741005 0.993353 0.311427
O O13 0.500000 0.925095 0.549815
O O14 0.280904 0.919054 0.750000
O O15 0.000000 0.924949 0.702235
O O16 0.000000 0.675643 0.877039
#
# Coordination Sequence:
#
# PCOD9471635 Si02
#       6
#    16  16  16  16  16  16
#     4  10  20  31  45  68  96 124 151 182 226 275
#     4   8  15  29  49  69  88 118 157 190 225 271
#     4   9  17  30  51  75  92 113 153 198 229 257
#     4   9  17  31  51  70  88 116 156 195 228 267
#     4   9  18  32  48  66  91 122 151 181 223 274
#     4   9  17  29  45  67  96 124 149 183 226 271
#
# _framework density 20.870625
#
# number of rings (size 3 to 8) (size 9 to 14) (size 15 to 20)
#    0.000    3.000    0.000    2.000    0.000    3.333 
#    0.000    5.833    0.000    2.000    0.000    4.667 
#    0.000    0.000    0.000    0.000    0.000    0.000 
#
# Total GULP energy -267919.958830 kJ/mol
# GULP energy per Si atom -5581.665809 kJ/mol
# Density = 2.082312 g / cm^3
# Si number density = 20.870625 Si / 1000 Ang^3
#
#
#
# Elastic Constant Matrix: (Units=GPa)
#
#
# Indices 1 2 3 4 5 6 
#
# 1 59.1154 -2.9917 -2.9585 0.0000 0.0000 0.0000
# 2 -2.9917 205.3264 142.4731 0.0000 0.0000 0.0000
# 3 -2.9585 142.4731 143.8395 0.0000 0.0000 0.0000
# 4 0.0000 0.0000 0.0000 -16.0082 0.0000 0.0000
# 5 0.0000 0.0000 0.0000 0.0000 11.0712 0.0000
# 6 0.0000 0.0000 0.0000 0.0000 0.0000 19.3907
#
#
#
# Elastic Compliance Matrix: (Units=1/GPa)
#
#
# Indices 1 2 3 4 5 6 
#
# 1 0.016934 0.000016 0.000332 0.000000 0.000000 0.000000
# 2 0.000016 0.015575 -0.015426 0.000000 0.000000 0.000000
# 3 0.000332 -0.015426 0.022239 0.000000 0.000000 0.000000
# 4 0.000000 0.000000 0.000000 -0.062468 0.000000 0.000000
# 5 0.000000 0.000000 0.000000 0.000000 0.090324 0.000000
# 6 0.000000 0.000000 0.000000 0.000000 0.000000 0.051571
#
#
# Mechanical properties :
#
#
# Convention : Reuss Voigt Hill
#
# Bulk Modulus (GPa) = 40.66499 75.70301 58.18400
# Shear Modulus (GPa) = 28.98083 21.00796 24.99439
#
# Velocity S-wave (km/s) = 3.73043 3.17611 3.46437
# Velocity P-wave (km/s) = 6.17101 7.05702 6.62883
#
# Compressibility (1/GPa) = 0.02459118
#
# Stress axis : x y z
#
# Youngs Moduli (GPa) = 59.05446 64.20662 44.96620
#
# Poissons Ratio (x) = -0.00104 -0.01494
# Poissons Ratio (y) = -0.00096 0.69367
# Poissons Ratio (z) = -0.01962 0.99048
#
# Static dielectric constant tensor:
#      x y z
#    x 1.813860 0.000000 0.000000 
#    y 0.000000 1.705930 0.000000 
#    z 0.000000 0.000000 1.732230 
# 
# From -- ./inp_files/68297.got.cif
#   From: 2010.05.17/outbox.cif.g08.bks.cpg/sg63_35_cif.got.tgz:68297.got - 2010.06.03 15:47:04.
