data_PCOD9471948
_publ_section_title
;
Structure prediction by ZEFSAII (Michael W. Deem and Ramdas Pophale) SiO2 
 PCOD9471948
Probable space group: C M C M
;
_chemical_formula_sum "Si O2"
_cell_formula_units_Z 64
_cell_length_a 17.587437
_cell_length_b 19.491887
_cell_length_c 8.447416
_cell_angle_alpha 90.000000
_cell_angle_beta 90.000000
_cell_angle_gamma 90.000000
_cell_volume 2895.878400
_symmetry_space_group_name_H-M "C M C M"
_symmetry_group_IT_number 63
_symmetry_cell_setting 'orthorhombic'
loop_
_space_group_symop_operation_xyz
x,y,z
-x,-y,1/2+z
x,-y,-z
-x,y,1/2-z
-x,-y,-z
x,y,1/2-z
-x,y,z
x,-y,1/2+z
1/2+x,1/2+y,z
1/2-x,1/2-y,1/2+z
1/2+x,1/2-y,-z
1/2-x,1/2+y,1/2-z
1/2-x,1/2-y,-z
1/2+x,1/2+y,1/2-z
1/2-x,1/2+y,z
1/2+x,1/2-y,1/2+z
loop_
_atom_site_type_symbol
_atom_site_label
_atom_site_fract_x
_atom_site_fract_y
_atom_site_fract_z
Si Si1 0.314854 0.577445 0.062042
Si Si2 0.684304 0.177217 0.568638
Si Si3 0.086113 0.801312 0.556553
Si Si4 0.590152 0.070430 0.070521
O O1 0.315106 0.572962 0.250000
O O2 0.388974 0.621665 0.012264
O O3 0.310579 0.500000 0.000000
O O4 0.245786 0.627833 0.012624
O O5 0.706714 0.187390 0.750000
O O6 0.653314 0.249369 0.500718
O O7 0.609488 0.130548 0.549480
O O8 0.086627 0.796355 0.750000
O O9 0.000000 0.785018 0.503535
O O10 0.617985 0.083271 0.250000
O O11 0.500000 0.063474 0.080882
O O12 0.622439 0.000000 0.000000
#
# Coordination Sequence:
#
# PCOD9471948 Si02
#       4
#    16  16  16  16
#     4  11  23  40  62  88 121 158 199 246 295 351
#     4  11  21  36  60  87 117 152 193 240 293 354
#     4   9  20  39  63  90 119 154 196 245 301 356
#     4  10  20  33  50  76 112 153 196 241 290 346
#
# _framework density 22.100376000000001
#
# number of rings (size 3 to 8) (size 9 to 14) (size 15 to 20)
#    0.000    1.750    0.000    4.500    0.000    3.000 
#    0.000    3.750    0.000    8.250    0.000    0.000 
#    0.000    0.000    0.000    0.000    0.000    0.000 
#
# Total GULP energy -178476.148359 kJ/mol
# GULP energy per Si atom -5577.379636 kJ/mol
# Density = 2.205007 g / cm^3
# Si number density = 22.100376 Si / 1000 Ang^3
#
#
#
# Elastic Constant Matrix: (Units=GPa)
#
#
# Indices 1 2 3 4 5 6 
#
# 1 47.8174 42.2531 9.1738 0.0000 0.0000 0.0000
# 2 42.2531 179.2324 20.7819 0.0000 0.0000 0.0000
# 3 9.1738 20.7819 43.8449 0.0000 0.0000 0.0000
# 4 0.0000 0.0000 0.0000 5.7291 0.0000 0.0000
# 5 0.0000 0.0000 0.0000 0.0000 6.2601 0.0000
# 6 0.0000 0.0000 0.0000 0.0000 0.0000 17.3839
#
#
#
# Elastic Compliance Matrix: (Units=1/GPa)
#
#
# Indices 1 2 3 4 5 6 
#
# 1 0.026727 -0.005981 -0.002757 0.000000 0.000000 0.000000
# 2 -0.005981 0.007242 -0.002181 0.000000 0.000000 0.000000
# 3 -0.002757 -0.002181 0.024418 0.000000 0.000000 0.000000
# 4 0.000000 0.000000 0.000000 0.174548 0.000000 0.000000
# 5 0.000000 0.000000 0.000000 0.000000 0.159741 0.000000
# 6 0.000000 0.000000 0.000000 0.000000 0.000000 0.057524
#
#
# Mechanical properties :
#
#
# Convention : Reuss Voigt Hill
#
# Bulk Modulus (GPa) = 27.36089 46.14582 36.75335
# Shear Modulus (GPa) = 10.32584 19.12036 14.72310
#
# Velocity S-wave (km/s) = 2.16388 2.94455 2.58387
# Velocity P-wave (km/s) = 4.31860 5.69964 5.05650
#
# Compressibility (1/GPa) = 0.03654852
#
# Stress axis : x y z
#
# Youngs Moduli (GPa) = 37.41549 138.07834 40.95263
#
# Poissons Ratio (x) = 0.82585 0.11292
# Poissons Ratio (y) = 0.22378 0.08933
# Poissons Ratio (z) = 0.10316 0.30119
#
# Static dielectric constant tensor:
#      x y z
#    x 1.894450 0.000000 0.000000 
#    y 0.000000 1.836730 0.000000 
#    z 0.000000 0.000000 1.805860 
# 
# From -- ./inp_files/5733.got.cif
#   From: 2010.05.17/outbox.cif.g08.bks.cpg/sg63_3_cif.got.tgz:5733.got - 2010.06.03 15:47:04.
