data_PCOD9471789
_publ_section_title
;
Structure prediction by ZEFSAII (Michael W. Deem and Ramdas Pophale) SiO2 
 PCOD9471789
Probable space group: C M C M
;
_chemical_formula_sum "Si O2"
_cell_formula_units_Z 96
_cell_length_a 26.197100
_cell_length_b 23.448254
_cell_length_c 8.980573
_cell_angle_alpha 90.000000
_cell_angle_beta 90.000000
_cell_angle_gamma 90.000000
_cell_volume 5516.552749
_symmetry_space_group_name_H-M "C M C M"
_symmetry_group_IT_number 63
_symmetry_cell_setting 'orthorhombic'
loop_
_space_group_symop_operation_xyz
x,y,z
-x,-y,1/2+z
x,-y,-z
-x,y,1/2-z
-x,-y,-z
x,y,1/2-z
-x,y,z
x,-y,1/2+z
1/2+x,1/2+y,z
1/2-x,1/2-y,1/2+z
1/2+x,1/2-y,-z
1/2-x,1/2+y,1/2-z
1/2-x,1/2-y,-z
1/2+x,1/2+y,1/2-z
1/2-x,1/2+y,z
1/2+x,1/2-y,1/2+z
loop_
_atom_site_type_symbol
_atom_site_label
_atom_site_fract_x
_atom_site_fract_y
_atom_site_fract_z
Si Si1 0.559664 0.175058 0.425884
Si Si2 0.647392 0.639309 0.580946
Si Si3 0.244077 0.937815 0.430553
Si Si4 0.559504 0.699727 0.074785
Si Si5 0.347181 0.128728 0.927107
Si Si6 0.802246 0.263042 0.580726
O O1 0.570630 0.179424 0.250000
O O2 0.500000 0.160703 0.447077
O O3 0.566812 0.238602 0.495200
O O4 0.597220 0.127854 0.496743
O O5 0.634812 0.620709 0.750000
O O6 0.694655 0.600429 0.525140
O O7 0.596549 0.650092 0.485810
O O8 0.669309 0.703235 0.588915
O O9 0.243684 0.939417 0.250000
O O10 0.299406 0.911223 0.473922
O O11 0.239210 0.000000 0.500000
O O12 0.569061 0.708142 0.250000
O O13 0.500000 0.684663 0.052730
O O14 0.352437 0.124163 0.750000
O O15 0.329357 0.191127 0.978175
O O16 0.796032 0.284778 0.750000
O O17 0.750000 0.250000 0.500000
#
# Coordination Sequence:
#
# PCOD9471789 Si02
#       6
#    16  16  16  16  16  16
#     4  10  20  33  50  77 113 148 181 216 259 316
#     4  10  20  35  53  76 110 143 177 218 265 320
#     4  10  23  41  57  78 105 137 178 226 272 318
#     4  10  20  32  49  78 113 146 181 217 258 314
#     4  11  21  35  54  78 111 142 176 221 266 319
#     4  11  20  31  49  77 111 143 175 212 264 325
#
# _framework density 17.402173000000001
#
# number of rings (size 3 to 8) (size 9 to 14) (size 15 to 20)
#    0.000    1.667    3.333    2.000    0.000    4.667 
#    0.000    0.000    0.000    1.000    0.000    0.000 
#    0.000    0.000    0.000    0.000    0.000    0.000 
#
# Total GULP energy -267435.929214 kJ/mol
# GULP energy per Si atom -5571.581859 kJ/mol
# Density = 1.736256 g / cm^3
# Si number density = 17.402173 Si / 1000 Ang^3
#
#
#
# Elastic Constant Matrix: (Units=GPa)
#
#
# Indices 1 2 3 4 5 6 
#
# 1 117.7993 31.1580 57.8755 0.0000 0.0000 0.0000
# 2 31.1580 62.4322 19.5201 0.0000 0.0000 0.0000
# 3 57.8755 19.5201 58.3356 0.0000 0.0000 0.0000
# 4 0.0000 0.0000 0.0000 23.3658 0.0000 0.0000
# 5 0.0000 0.0000 0.0000 0.0000 29.3499 0.0000
# 6 0.0000 0.0000 0.0000 0.0000 0.0000 10.9483
#
#
#
# Elastic Compliance Matrix: (Units=1/GPa)
#
#
# Indices 1 2 3 4 5 6 
#
# 1 0.017273 -0.003644 -0.015918 0.000000 0.000000 0.000000
# 2 -0.003644 0.018658 -0.002628 0.000000 0.000000 0.000000
# 3 -0.015918 -0.002628 0.033814 0.000000 0.000000 0.000000
# 4 0.000000 0.000000 0.000000 0.042798 0.000000 0.000000
# 5 0.000000 0.000000 0.000000 0.000000 0.034072 0.000000
# 6 0.000000 0.000000 0.000000 0.000000 0.000000 0.091339
#
#
# Mechanical properties :
#
#
# Convention : Reuss Voigt Hill
#
# Bulk Modulus (GPa) = 39.42384 50.63050 45.02717
# Shear Modulus (GPa) = 17.19470 21.40035 19.29752
#
# Velocity S-wave (km/s) = 3.14678 3.51059 3.33365
# Velocity P-wave (km/s) = 5.99222 6.75202 6.38344
#
# Compressibility (1/GPa) = 0.02536536
#
# Stress axis : x y z
#
# Youngs Moduli (GPa) = 57.89281 53.59753 29.57361
#
# Poissons Ratio (x) = 0.19529 0.47075
# Poissons Ratio (y) = 0.21094 0.07773
# Poissons Ratio (z) = 0.92153 0.14086
#
# Static dielectric constant tensor:
#      x y z
#    x 1.693180 0.000000 0.000000 
#    y 0.000000 1.559620 0.000000 
#    z 0.000000 0.000000 1.634280 
# 
# From -- ./inp_files/12347.got.cif
#   From: 2010.05.17/outbox.cif.g08.bks.cpg/sg63_7_cif.got.tgz:12347.got - 2010.06.03 15:47:04.
