data_PCOD9471372
_publ_section_title
;
Structure prediction by ZEFSAII (Michael W. Deem and Ramdas Pophale) SiO2 
 PCOD9471372
Probable space group: C M C M
;
_chemical_formula_sum "Si O2"
_cell_formula_units_Z 36
_cell_length_a 22.712068
_cell_length_b 12.592994
_cell_length_c 5.431333
_cell_angle_alpha 90.000000
_cell_angle_beta 90.000000
_cell_angle_gamma 90.000000
_cell_volume 1553.431498
_symmetry_space_group_name_H-M "C M C M"
_symmetry_group_IT_number 63
_symmetry_cell_setting 'orthorhombic'
loop_
_space_group_symop_operation_xyz
x,y,z
-x,-y,1/2+z
x,-y,-z
-x,y,1/2-z
-x,-y,-z
x,y,1/2-z
-x,y,z
x,-y,1/2+z
1/2+x,1/2+y,z
1/2-x,1/2-y,1/2+z
1/2+x,1/2-y,-z
1/2-x,1/2+y,1/2-z
1/2-x,1/2-y,-z
1/2+x,1/2+y,1/2-z
1/2-x,1/2+y,z
1/2+x,1/2-y,1/2+z
loop_
_atom_site_type_symbol
_atom_site_label
_atom_site_fract_x
_atom_site_fract_y
_atom_site_fract_z
Si Si1 0.000000 0.929558 0.750000
Si Si2 0.875121 0.931513 0.750000
Si Si3 0.621724 0.887626 0.750000
Si Si4 0.251187 0.317559 0.750000
Si Si5 0.570750 0.870902 0.250000
O O1 0.937842 0.869816 0.750000
O O2 0.000000 0.000000 0.500000
O O3 0.813503 0.873956 0.750000
O O4 0.875858 0.000000 0.500000
O O5 0.692477 0.890539 0.750000
O O6 0.598832 0.830482 0.504153
O O7 0.592342 0.004443 0.750000
O O8 0.250000 0.250000 0.500000
O O9 0.500000 0.867387 0.250000
#
# Coordination Sequence:
#
# PCOD9471372 Si02
#       5
#     4   8   8   8   8
#     4   8  16  34  60  94 112 138 194 268 306 338
#     4  10  21  38  69  93 114 153 208 252 300 355
#     4  10  20  33  57  82 118 155 202 233 296 343
#     4  12  26  41  58  88 134 167 196 244 308 361
#     4  10  19  35  62  92 116 146 201 260 289 338
#
# _framework density 23.174500999999999
#
# number of rings (size 3 to 8) (size 9 to 14) (size 15 to 20)
#    0.000    1.778    0.000    6.000    6.222    0.000 
#    0.000    0.000   19.556    0.000    0.000    0.000 
#    0.000    0.000    0.000    0.000    0.000    0.000 
#
# Total GULP energy -100565.692087 kJ/mol
# GULP energy per Si atom -5586.982894 kJ/mol
# Density = 2.312175 g / cm^3
# Si number density = 23.174501 Si / 1000 Ang^3
#
#
#
# Elastic Constant Matrix: (Units=GPa)
#
#
# Indices 1 2 3 4 5 6 
#
# 1 314.6777 47.4030 62.1612 0.0000 0.0000 0.0000
# 2 47.4030 29.0849 27.0294 0.0000 0.0000 0.0000
# 3 62.1612 27.0294 235.4640 0.0000 0.0000 0.0000
# 4 0.0000 0.0000 0.0000 24.4253 0.0000 0.0000
# 5 0.0000 0.0000 0.0000 0.0000 43.9816 0.0000
# 6 0.0000 0.0000 0.0000 0.0000 0.0000 136.5002
#
#
#
# Elastic Compliance Matrix: (Units=1/GPa)
#
#
# Indices 1 2 3 4 5 6 
#
# 1 0.004240 -0.006571 -0.000365 0.000000 0.000000 0.000000
# 2 -0.006571 0.048672 -0.003852 0.000000 0.000000 0.000000
# 3 -0.000365 -0.003852 0.004786 0.000000 0.000000 0.000000
# 4 0.000000 0.000000 0.000000 0.040941 0.000000 0.000000
# 5 0.000000 0.000000 0.000000 0.000000 0.022737 0.000000
# 6 0.000000 0.000000 0.000000 0.000000 0.000000 0.007326
#
#
# Mechanical properties :
#
#
# Convention : Reuss Voigt Hill
#
# Bulk Modulus (GPa) = 27.68525 94.71265 61.19895
# Shear Modulus (GPa) = 30.80382 70.49031 50.64707
#
# Velocity S-wave (km/s) = 3.64979 5.52116 4.67997
# Velocity P-wave (km/s) = 5.45286 9.03340 7.46110
#
# Compressibility (1/GPa) = 0.03612031
#
# Stress axis : x y z
#
# Youngs Moduli (GPa) = 235.86073 20.54585 208.96367
#
# Poissons Ratio (x) = 0.13500 0.07627
# Poissons Ratio (y) = 1.54981 0.80502
# Poissons Ratio (z) = 0.08609 0.07915
#
# Static dielectric constant tensor:
#      x y z
#    x 1.846110 0.000000 0.000000 
#    y 0.000000 -0.998300 0.000000 
#    z 0.000000 0.000000 1.981330 
# 
# From -- ./inp_files/883.got.cif
#   From: 2010.05.17/outbox.cif.g08.bks.cpg/sg63_1_cif.got.tgz:883.got - 2010.06.03 15:47:04.
