data_PCOD9471687
_publ_section_title
;
Structure prediction by ZEFSAII (Michael W. Deem and Ramdas Pophale) SiO2 
 PCOD9471687
Probable space group: C M C M
;
_chemical_formula_sum "Si O2"
_cell_formula_units_Z 96
_cell_length_a 23.901276
_cell_length_b 25.068331
_cell_length_c 8.869660
_cell_angle_alpha 90.000000
_cell_angle_beta 90.000000
_cell_angle_gamma 90.000000
_cell_volume 5314.390704
_symmetry_space_group_name_H-M "C M C M"
_symmetry_group_IT_number 63
_symmetry_cell_setting 'orthorhombic'
loop_
_space_group_symop_operation_xyz
x,y,z
-x,-y,1/2+z
x,-y,-z
-x,y,1/2-z
-x,-y,-z
x,y,1/2-z
-x,y,z
x,-y,1/2+z
1/2+x,1/2+y,z
1/2-x,1/2-y,1/2+z
1/2+x,1/2-y,-z
1/2-x,1/2+y,1/2-z
1/2-x,1/2-y,-z
1/2+x,1/2+y,1/2-z
1/2-x,1/2+y,z
1/2+x,1/2-y,1/2+z
loop_
_atom_site_type_symbol
_atom_site_label
_atom_site_fract_x
_atom_site_fract_y
_atom_site_fract_z
Si Si1 0.935008 0.853262 0.070596
Si Si2 0.368366 0.857506 0.928400
Si Si3 0.566585 0.053638 0.920581
Si Si4 0.935442 0.736316 0.930775
Si Si5 0.224774 0.558091 0.069341
Si Si6 0.644444 0.442287 0.569678
O O1 0.926327 0.849374 0.250000
O O2 0.000000 0.868249 0.044211
O O3 0.926613 0.795393 0.995917
O O4 0.894346 0.896877 0.999775
O O5 0.363944 0.848813 0.750000
O O6 0.314104 0.892128 0.979828
O O7 0.417618 0.898033 0.972590
O O8 0.387811 0.803186 0.007296
O O9 0.588821 0.060147 0.750000
O O10 0.500000 0.050215 0.909150
O O11 0.586999 0.000000 0.000000
O O12 0.933217 0.736786 0.750000
O O13 0.000000 0.720144 0.973014
O O14 0.217964 0.553611 0.250000
O O15 0.290020 0.568595 0.035697
O O16 0.211315 0.500000 0.000000
O O17 0.630721 0.500000 0.500000
O O18 0.638055 0.444107 0.750000
#
# Coordination Sequence:
#
# PCOD9471687 Si02
#       6
#    16  16  16  16  16  16
#     4  10  21  38  60  86 114 142 174 215 265 320
#     4  11  21  33  51  75 103 138 182 226 269 319
#     4  10  20  32  45  65  95 130 171 222 277 327
#     4  10  21  37  56  79 108 143 183 226 272 321
#     4   9  20  36  54  78 108 143 182 226 272 318
#     4  10  20  37  60  85 114 145 178 216 262 317
#
# _framework density 18.064159
#
# number of rings (size 3 to 8) (size 9 to 14) (size 15 to 20)
#    0.000    2.000    0.000    3.500    0.000    8.667 
#    0.000    0.833    0.000    0.000    0.000    0.000 
#    0.000    0.000    0.000    0.000    0.000    0.000 
#
# Total GULP energy -267794.913169 kJ/mol
# GULP energy per Si atom -5579.060691 kJ/mol
# Density = 1.802304 g / cm^3
# Si number density = 18.064159 Si / 1000 Ang^3
#
#
#
# Elastic Constant Matrix: (Units=GPa)
#
#
# Indices 1 2 3 4 5 6 
#
# 1 106.5424 90.3210 57.0909 0.0000 0.0000 0.0000
# 2 90.3210 135.2507 55.0185 0.0000 0.0000 0.0000
# 3 57.0909 55.0185 63.7359 0.0000 0.0000 0.0000
# 4 0.0000 0.0000 0.0000 36.1721 0.0000 0.0000
# 5 0.0000 0.0000 0.0000 0.0000 20.8881 0.0000
# 6 0.0000 0.0000 0.0000 0.0000 0.0000 40.5756
#
#
#
# Elastic Compliance Matrix: (Units=1/GPa)
#
#
# Indices 1 2 3 4 5 6 
#
# 1 0.027615 -0.012914 -0.013588 0.000000 0.000000 0.000000
# 2 -0.012914 0.017434 -0.003482 0.000000 0.000000 0.000000
# 3 -0.013588 -0.003482 0.030867 0.000000 0.000000 0.000000
# 4 0.000000 0.000000 0.000000 0.027646 0.000000 0.000000
# 5 0.000000 0.000000 0.000000 0.000000 0.047874 0.000000
# 6 0.000000 0.000000 0.000000 0.000000 0.000000 0.024645
#
#
# Mechanical properties :
#
#
# Convention : Reuss Voigt Hill
#
# Bulk Modulus (GPa) = 62.70471 78.93218 70.81844
# Shear Modulus (GPa) = 20.71549 26.40040 23.55794
#
# Velocity S-wave (km/s) = 3.39008 3.82708 3.61519
# Velocity P-wave (km/s) = 7.07892 7.95732 7.53094
#
# Compressibility (1/GPa) = 0.01594777
#
# Stress axis : x y z
#
# Youngs Moduli (GPa) = 36.21249 57.35912 32.39684
#
# Poissons Ratio (x) = 0.74072 0.44022
# Poissons Ratio (y) = 0.46764 0.11281
# Poissons Ratio (z) = 0.49206 0.19973
#
# Static dielectric constant tensor:
#      x y z
#    x 1.638880 0.000000 0.000000 
#    y 0.000000 1.582390 0.000000 
#    z 0.000000 0.000000 1.615580 
# 
# From -- ./inp_files/10471.got.cif
#   From: 2010.05.17/outbox.cif.g08.bks.cpg/sg63_6_cif.got.tgz:10471.got - 2010.06.03 15:47:04.
