data_PCOD9471050
_publ_section_title
;
Structure prediction by ZEFSAII (Michael W. Deem and Ramdas Pophale) SiO2 
 PCOD9471050
Probable space group: C M C M
;
_chemical_formula_sum "Si O2"
_cell_formula_units_Z 100
_cell_length_a 10.223197
_cell_length_b 19.206003
_cell_length_c 27.051375
_cell_angle_alpha 90.000000
_cell_angle_beta 90.000000
_cell_angle_gamma 90.000000
_cell_volume 5311.449625
_symmetry_space_group_name_H-M "C M C M"
_symmetry_group_IT_number 63
_symmetry_cell_setting 'orthorhombic'
loop_
_space_group_symop_operation_xyz
x,y,z
-x,-y,1/2+z
x,-y,-z
-x,y,1/2-z
-x,-y,-z
x,y,1/2-z
-x,y,z
x,-y,1/2+z
1/2+x,1/2+y,z
1/2-x,1/2-y,1/2+z
1/2+x,1/2-y,-z
1/2-x,1/2+y,1/2-z
1/2-x,1/2-y,-z
1/2+x,1/2+y,1/2-z
1/2-x,1/2+y,z
1/2+x,1/2-y,1/2+z
loop_
_atom_site_type_symbol
_atom_site_label
_atom_site_fract_x
_atom_site_fract_y
_atom_site_fract_z
Si Si1 0.847860 0.794026 0.066328
Si Si2 0.276433 0.346628 0.329869
Si Si3 0.348519 0.566742 0.127587
Si Si4 0.346254 0.332951 0.954568
Si Si5 0.149101 0.203489 0.194131
Si Si6 0.000000 0.877087 0.250000
Si Si7 0.647853 0.980256 0.192050
O O1 0.816020 0.842779 0.112812
O O2 0.749367 0.728070 0.064916
O O3 0.000000 0.771216 0.070135
O O4 0.832228 0.832521 0.013722
O O5 0.243921 0.267256 0.315951
O O6 0.387573 0.373784 0.293407
O O7 0.157001 0.398150 0.319105
O O8 0.500000 0.542731 0.130472
O O9 0.318453 0.593631 0.072229
O O10 0.337065 0.638713 0.158185
O O11 0.250109 0.515017 0.154504
O O12 0.500000 0.316580 0.943376
O O13 0.168346 0.178154 0.250000
O O14 0.000000 0.229289 0.189474
O O15 0.681245 0.992908 0.250000
O O16 0.500000 0.005784 0.184187
#
# Coordination Sequence:
#
# PCOD9471050 Si02
#       7
#    16  16  16  16  16   4  16
#     4  10  20  34  59  89 119 151 191 245 292 339
#     4  12  22  37  58  85 120 152 197 241 291 348
#     4  10  21  37  61  84 115 153 195 239 287 349
#     4   9  19  37  58  87 118 153 195 235 293 349
#     4  10  19  34  55  83 111 148 191 239 287 343
#     4  12  24  36  54  92 122 160 194 244 298 352
#     4  11  25  42  59  84 116 158 197 241 296 355
#
# _framework density 18.827252000000001
#
# number of rings (size 3 to 8) (size 9 to 14) (size 15 to 20)
#    0.000    1.600    4.000    0.960    1.120    3.520 
#    1.440    0.800    0.000    3.840    0.000    0.000 
#    0.000    0.000    0.000    0.000    0.000    0.000 
#
# Total GULP energy -278354.036935 kJ/mol
# GULP energy per Si atom -5567.080739 kJ/mol
# Density = 1.878440 g / cm^3
# Si number density = 18.827252 Si / 1000 Ang^3
#
#
#
# Elastic Constant Matrix: (Units=GPa)
#
#
# Indices 1 2 3 4 5 6 
#
# 1 76.2224 14.1519 36.0560 0.0000 0.0000 0.0000
# 2 14.1519 25.8696 14.8640 0.0000 0.0000 0.0000
# 3 36.0560 14.8640 124.0484 0.0000 0.0000 0.0000
# 4 0.0000 0.0000 0.0000 19.7920 0.0000 0.0000
# 5 0.0000 0.0000 0.0000 0.0000 21.2019 0.0000
# 6 0.0000 0.0000 0.0000 0.0000 0.0000 1.8339
#
#
#
# Elastic Compliance Matrix: (Units=1/GPa)
#
#
# Indices 1 2 3 4 5 6 
#
# 1 0.016200 -0.006612 -0.003916 0.000000 0.000000 0.000000
# 2 -0.006612 0.044212 -0.003376 0.000000 0.000000 0.000000
# 3 -0.003916 -0.003376 0.009604 0.000000 0.000000 0.000000
# 4 0.000000 0.000000 0.000000 0.050525 0.000000 0.000000
# 5 0.000000 0.000000 0.000000 0.000000 0.047166 0.000000
# 6 0.000000 0.000000 0.000000 0.000000 0.000000 0.545273
#
#
# Mechanical properties :
#
#
# Convention : Reuss Voigt Hill
#
# Bulk Modulus (GPa) = 23.69222 39.58714 31.63968
# Shear Modulus (GPa) = 6.62377 19.30345 12.96361
#
# Velocity S-wave (km/s) = 1.87772 3.20549 2.62688
# Velocity P-wave (km/s) = 4.16082 5.89681 5.10318
#
# Compressibility (1/GPa) = 0.04220795
#
# Stress axis : x y z
#
# Youngs Moduli (GPa) = 61.72964 22.61822 104.12085
#
# Poissons Ratio (x) = 0.14955 0.40777
# Poissons Ratio (y) = 0.40814 0.35150
# Poissons Ratio (z) = 0.24176 0.07636
#
# Static dielectric constant tensor:
#      x y z
#    x 1.682090 0.000000 0.000000 
#    y 0.000000 1.639170 0.000000 
#    z 0.000000 0.000000 1.707320 
# 
# From -- ./inp_files/67084.got.cif
#   From: 2010.05.17/outbox.cif.g08.bks.cpg/sg63_34_cif.got.tgz:67084.got - 2010.06.03 15:47:04.
