data_PCOD9471182
_publ_section_title
;
Structure prediction by ZEFSAII (Michael W. Deem and Ramdas Pophale) SiO2 
 PCOD9471182
Probable space group: C M C M
;
_chemical_formula_sum "Si O2"
_cell_formula_units_Z 96
_cell_length_a 27.276768
_cell_length_b 9.747072
_cell_length_c 19.016900
_cell_angle_alpha 90.000000
_cell_angle_beta 90.000000
_cell_angle_gamma 90.000000
_cell_volume 5055.996991
_symmetry_space_group_name_H-M "C M C M"
_symmetry_group_IT_number 63
_symmetry_cell_setting 'orthorhombic'
loop_
_space_group_symop_operation_xyz
x,y,z
-x,-y,1/2+z
x,-y,-z
-x,y,1/2-z
-x,-y,-z
x,y,1/2-z
-x,y,z
x,-y,1/2+z
1/2+x,1/2+y,z
1/2-x,1/2-y,1/2+z
1/2+x,1/2-y,-z
1/2-x,1/2+y,1/2-z
1/2-x,1/2-y,-z
1/2+x,1/2+y,1/2-z
1/2-x,1/2+y,z
1/2+x,1/2-y,1/2+z
loop_
_atom_site_type_symbol
_atom_site_label
_atom_site_fract_x
_atom_site_fract_y
_atom_site_fract_z
Si Si1 0.947347 0.604802 0.671885
Si Si2 0.375173 0.853517 0.831671
Si Si3 0.188234 0.804697 0.835471
Si Si4 0.913855 0.152088 0.416260
Si Si5 0.721248 0.004896 0.334924
Si Si6 0.941936 0.153166 0.921875
O O1 0.943907 0.666887 0.750000
O O2 0.904106 0.497253 0.665647
O O3 0.943958 0.722994 0.615819
O O4 0.000000 0.532116 0.666783
O O5 0.370774 0.810607 0.750000
O O6 0.408615 0.747302 0.872754
O O7 0.321585 0.892003 0.860611
O O8 0.179019 0.805015 0.750000
O O9 0.139484 0.830880 0.880684
O O10 0.210679 0.653824 0.853917
O O11 0.226893 0.925934 0.851899
O O12 0.918527 0.162783 0.500241
O O13 0.936067 0.004264 0.397967
O O14 0.717585 0.006782 0.250000
O O15 0.000000 0.188101 0.923652
#
# Coordination Sequence:
#
# PCOD9471182 Si02
#       6
#    16  16  16  16  16  16
#     4  10  19  34  59  87 114 148 193 247 301 355
#     4  10  21  39  61  88 122 152 194 253 307 364
#     4  10  20  37  64  93 120 155 199 248 301 360
#     4  11  22  40  60  82 120 162 204 248 296 357
#     4   9  19  36  60  91 122 152 191 242 303 359
#     4  11  25  42  60  84 121 166 208 250 302 358
#
# _framework density 18.987352000000001
#
# number of rings (size 3 to 8) (size 9 to 14) (size 15 to 20)
#    0.000    1.833    1.667    3.000    2.333    3.000 
#    0.000    2.500    0.000    0.000    0.000    0.000 
#    0.000    0.000    0.000    0.000    0.000    0.000 
#
# Total GULP energy -267660.338327 kJ/mol
# GULP energy per Si atom -5576.257048 kJ/mol
# Density = 1.894414 g / cm^3
# Si number density = 18.987352 Si / 1000 Ang^3
#
#
#
# Elastic Constant Matrix: (Units=GPa)
#
#
# Indices 1 2 3 4 5 6 
#
# 1 113.0575 -1.0442 14.7391 0.0000 0.0000 0.0000
# 2 -1.0442 46.4097 23.8689 0.0000 0.0000 0.0000
# 3 14.7391 23.8689 34.5057 0.0000 0.0000 0.0000
# 4 0.0000 0.0000 0.0000 34.3118 0.0000 0.0000
# 5 0.0000 0.0000 0.0000 0.0000 39.2624 0.0000
# 6 0.0000 0.0000 0.0000 0.0000 0.0000 34.8703
#
#
#
# Elastic Compliance Matrix: (Units=1/GPa)
#
#
# Indices 1 2 3 4 5 6 
#
# 1 0.009753 0.003666 -0.006702 0.000000 0.000000 0.000000
# 2 0.003666 0.034825 -0.025656 0.000000 0.000000 0.000000
# 3 -0.006702 -0.025656 0.049590 0.000000 0.000000 0.000000
# 4 0.000000 0.000000 0.000000 0.029145 0.000000 0.000000
# 5 0.000000 0.000000 0.000000 0.000000 0.025470 0.000000
# 6 0.000000 0.000000 0.000000 0.000000 0.000000 0.028678
#
#
# Mechanical properties :
#
#
# Convention : Reuss Voigt Hill
#
# Bulk Modulus (GPa) = 27.18482 29.90003 28.54243
# Shear Modulus (GPa) = 20.23443 32.11615 26.17529
#
# Velocity S-wave (km/s) = 3.26802 4.11719 3.71693
# Velocity P-wave (km/s) = 5.34680 6.19541 5.78669
#
# Compressibility (1/GPa) = 0.03678523
#
# Stress axis : x y z
#
# Youngs Moduli (GPa) = 102.53625 28.71537 20.16521
#
# Poissons Ratio (x) = -0.10528 0.13515
# Poissons Ratio (y) = -0.37593 0.51735
# Poissons Ratio (z) = 0.68720 0.73671
#
# Static dielectric constant tensor:
#      x y z
#    x 1.681530 0.000000 0.000000 
#    y 0.000000 1.650880 0.000000 
#    z 0.000000 0.000000 1.753530 
# 
# From -- ./inp_files/58038.got.cif
#   From: 2010.05.17/outbox.cif.g08.bks.cpg/sg63_30_cif.got.tgz:58038.got - 2010.06.03 15:47:04.
