data_PCOD9471108
_publ_section_title
;
Structure prediction by ZEFSAII (Michael W. Deem and Ramdas Pophale) SiO2 
 PCOD9471108
Probable space group: C M C M
;
_chemical_formula_sum "Si O2"
_cell_formula_units_Z 96
_cell_length_a 8.578543
_cell_length_b 21.267557
_cell_length_c 29.012007
_cell_angle_alpha 90.000000
_cell_angle_beta 90.000000
_cell_angle_gamma 90.000000
_cell_volume 5293.085528
_symmetry_space_group_name_H-M "C M C M"
_symmetry_group_IT_number 63
_symmetry_cell_setting 'orthorhombic'
loop_
_space_group_symop_operation_xyz
x,y,z
-x,-y,1/2+z
x,-y,-z
-x,y,1/2-z
-x,-y,-z
x,y,1/2-z
-x,y,z
x,-y,1/2+z
1/2+x,1/2+y,z
1/2-x,1/2-y,1/2+z
1/2+x,1/2-y,-z
1/2-x,1/2+y,1/2-z
1/2-x,1/2-y,-z
1/2+x,1/2+y,1/2-z
1/2-x,1/2+y,z
1/2+x,1/2-y,1/2+z
loop_
_atom_site_type_symbol
_atom_site_label
_atom_site_fract_x
_atom_site_fract_y
_atom_site_fract_z
Si Si1 0.311340 0.126297 0.448706
Si Si2 0.186702 0.247149 0.105681
Si Si3 0.313499 0.555368 0.197627
Si Si4 0.309819 0.125461 0.555298
Si Si5 0.311616 0.001174 0.106647
Si Si6 0.313353 0.196381 0.302376
O O1 0.500000 0.128568 0.447616
O O2 0.248252 0.187146 0.422512
O O3 0.260691 0.125562 0.501970
O O4 0.262938 0.062488 0.422716
O O5 0.240478 0.311394 0.081393
O O6 0.244661 0.239947 0.157949
O O7 0.000000 0.246024 0.105222
O O8 0.270065 0.537078 0.250000
O O9 0.500000 0.559217 0.194935
O O10 0.250723 0.509940 0.158164
O O11 0.244841 0.625087 0.189335
O O12 0.500000 0.124983 0.555114
O O13 0.259343 0.062577 0.581749
O O14 0.500000 0.000948 0.107962
O O15 0.267285 0.213469 0.250000
O O16 0.500000 0.196584 0.305317
#
# Coordination Sequence:
#
# PCOD9471108 Si02
#       6
#    16  16  16  16  16  16
#     4  10  19  34  57  80 105 142 188 228 261 310
#     4  11  21  34  54  80 113 144 176 221 270 321
#     4  10  20  34  54  81 111 139 170 216 273 324
#     4   9  20  36  53  78 111 148 183 217 265 318
#     4  10  19  34  57  81 107 142 184 224 261 310
#     4  10  20  35  56  80 104 135 179 224 265 316
#
# _framework density 18.136869999999998
#
# number of rings (size 3 to 8) (size 9 to 14) (size 15 to 20)
#    0.000    2.000    1.667    2.500    0.000    4.000 
#    0.000    4.167    0.000    7.000    0.000    0.000 
#    0.000    0.000    0.000    0.000    0.000    0.000 
#
# Total GULP energy -268013.886630 kJ/mol
# GULP energy per Si atom -5583.622638 kJ/mol
# Density = 1.809559 g / cm^3
# Si number density = 18.136870 Si / 1000 Ang^3
#
#
#
# Elastic Constant Matrix: (Units=GPa)
#
#
# Indices 1 2 3 4 5 6 
#
# 1 19.1647 25.5659 28.4033 0.0000 0.0000 0.0000
# 2 25.5659 139.7338 87.4131 0.0000 0.0000 0.0000
# 3 28.4033 87.4131 169.0557 0.0000 0.0000 0.0000
# 4 0.0000 0.0000 0.0000 4.3735 0.0000 0.0000
# 5 0.0000 0.0000 0.0000 0.0000 27.7697 0.0000
# 6 0.0000 0.0000 0.0000 0.0000 0.0000 21.6671
#
#
#
# Elastic Compliance Matrix: (Units=1/GPa)
#
#
# Indices 1 2 3 4 5 6 
#
# 1 0.076100 -0.008758 -0.008257 0.000000 0.000000 0.000000
# 2 -0.008758 0.011586 -0.004519 0.000000 0.000000 0.000000
# 3 -0.008257 -0.004519 0.009639 0.000000 0.000000 0.000000
# 4 0.000000 0.000000 0.000000 0.228649 0.000000 0.000000
# 5 0.000000 0.000000 0.000000 0.000000 0.036011 0.000000
# 6 0.000000 0.000000 0.000000 0.000000 0.000000 0.046153
#
#
# Mechanical properties :
#
#
# Convention : Reuss Voigt Hill
#
# Bulk Modulus (GPa) = 18.43096 67.85763 43.14430
# Shear Modulus (GPa) = 10.65433 23.20017 16.92725
#
# Velocity S-wave (km/s) = 2.42635 3.58043 3.05832
# Velocity P-wave (km/s) = 4.24662 7.38837 6.02585
#
# Compressibility (1/GPa) = 0.05425653
#
# Stress axis : x y z
#
# Youngs Moduli (GPa) = 13.14056 86.31154 103.74198
#
# Poissons Ratio (x) = 0.75591 0.85663
# Poissons Ratio (y) = 0.11508 0.46884
# Poissons Ratio (z) = 0.10851 0.39007
#
# Static dielectric constant tensor:
#      x y z
#    x 1.621610 0.000000 0.000000 
#    y 0.000000 1.590410 0.000000 
#    z 0.000000 0.000000 1.623780 
# 
# From -- ./inp_files/66960.got.cif
#   From: 2010.05.17/outbox.cif.g08.bks.cpg/sg63_34_cif.got.tgz:66960.got - 2010.06.03 15:47:04.
