data_PCOD9471812
_publ_section_title
;
Structure prediction by ZEFSAII (Michael W. Deem and Ramdas Pophale) SiO2 
 PCOD9471812
Probable space group: C M C M
;
_chemical_formula_sum "Si O2"
_cell_formula_units_Z 116
_cell_length_a 7.568603
_cell_length_b 25.318479
_cell_length_c 31.068566
_cell_angle_alpha 90.000000
_cell_angle_beta 90.000000
_cell_angle_gamma 90.000000
_cell_volume 5953.529995
_symmetry_space_group_name_H-M "C M C M"
_symmetry_group_IT_number 63
_symmetry_cell_setting 'orthorhombic'
loop_
_space_group_symop_operation_xyz
x,y,z
-x,-y,1/2+z
x,-y,-z
-x,y,1/2-z
-x,-y,-z
x,y,1/2-z
-x,y,z
x,-y,1/2+z
1/2+x,1/2+y,z
1/2-x,1/2-y,1/2+z
1/2+x,1/2-y,-z
1/2-x,1/2+y,1/2-z
1/2-x,1/2-y,-z
1/2+x,1/2+y,1/2-z
1/2-x,1/2+y,z
1/2+x,1/2-y,1/2+z
loop_
_atom_site_type_symbol
_atom_site_label
_atom_site_fract_x
_atom_site_fract_y
_atom_site_fract_z
Si Si1 0.710998 0.744530 0.608953
Si Si2 0.713787 0.833683 0.957802
Si Si3 0.000000 0.552443 0.250000
Si Si4 0.705557 0.592952 0.187988
Si Si5 0.787774 0.436203 0.908333
Si Si6 0.207094 0.150593 0.947015
Si Si7 0.707455 0.533855 0.960552
Si Si8 0.211726 0.214837 0.297208
O O1 0.500000 0.744151 0.602955
O O2 0.775856 0.792736 0.578765
O O3 0.781769 0.689989 0.588935
O O4 0.740103 0.754395 0.659396
O O5 0.500000 0.832616 0.958748
O O6 0.769790 0.892572 0.943515
O O7 0.777848 0.822693 0.005957
O O8 0.156707 0.556666 0.287054
O O9 0.500000 0.587421 0.200849
O O10 0.719109 0.582593 0.137468
O O11 0.764362 0.653448 0.197366
O O12 0.724291 0.494266 0.920668
O O13 0.000000 0.435863 0.907362
O O14 0.284662 0.091716 0.951775
O O15 0.000000 0.143709 0.936720
O O16 0.500000 0.541798 0.970593
O O17 0.787044 0.500000 0.000000
O O18 0.276585 0.233398 0.250000
O O19 0.000000 0.215300 0.295843
#
# Coordination Sequence:
#
# PCOD9471812 Si02
#       8
#    16  16   4  16  16  16  16  16
#     4  10  21  35  53  78 111 147 183 231 288 349
#     4  10  20  32  51  77 113 147 184 228 285 345
#     4  12  22  36  60  86 122 160 186 240 294 366
#     4  11  22  36  57  87 122 154 191 236 291 355
#     4  11  21  34  54  84 114 149 192 239 289 346
#     4  10  21  36  53  77 107 148 198 237 281 343
#     4  10  20  35  54  76 107 149 195 242 287 338
#     4  10  21  35  53  81 110 144 185 227 281 347
#
# _framework density 19.484237
#
# number of rings (size 3 to 8) (size 9 to 14) (size 15 to 20)
#    0.000    1.655    4.138    1.034    0.966    2.759 
#    0.000    0.000    0.000    0.000    1.793    0.000 
#    0.000    0.000    0.000    0.000    0.000    0.000 
#
# Total GULP energy -323243.998618 kJ/mol
# GULP energy per Si atom -5573.172390 kJ/mol
# Density = 1.943989 g / cm^3
# Si number density = 19.484237 Si / 1000 Ang^3
#
#
#
# Elastic Constant Matrix: (Units=GPa)
#
#
# Indices 1 2 3 4 5 6 
#
# 1 61.7693 3.6170 -10.2743 0.0000 0.0000 0.0000
# 2 3.6170 107.4973 51.8885 0.0000 0.0000 0.0000
# 3 -10.2743 51.8885 125.1948 0.0000 0.0000 0.0000
# 4 0.0000 0.0000 0.0000 26.0607 0.0000 0.0000
# 5 0.0000 0.0000 0.0000 0.0000 5.6837 0.0000
# 6 0.0000 0.0000 0.0000 0.0000 0.0000 6.4757
#
#
#
# Elastic Compliance Matrix: (Units=1/GPa)
#
#
# Indices 1 2 3 4 5 6 
#
# 1 0.016610 -0.001521 0.001994 0.000000 0.000000 0.000000
# 2 -0.001521 0.011768 -0.005002 0.000000 0.000000 0.000000
# 3 0.001994 -0.005002 0.010224 0.000000 0.000000 0.000000
# 4 0.000000 0.000000 0.000000 0.038372 0.000000 0.000000
# 5 0.000000 0.000000 0.000000 0.000000 0.175942 0.000000
# 6 0.000000 0.000000 0.000000 0.000000 0.000000 0.154424
#
#
# Mechanical properties :
#
#
# Convention : Reuss Voigt Hill
#
# Bulk Modulus (GPa) = 33.84915 42.76932 38.30923
# Shear Modulus (GPa) = 11.73025 24.25937 17.99481
#
# Velocity S-wave (km/s) = 2.45631 3.53239 3.04231
# Velocity P-wave (km/s) = 5.04528 6.21574 5.66085
#
# Compressibility (1/GPa) = 0.02954284
#
# Stress axis : x y z
#
# Youngs Moduli (GPa) = 60.20489 84.97353 97.80470
#
# Poissons Ratio (x) = 0.12926 -0.19498
# Poissons Ratio (y) = 0.09158 0.48926
# Poissons Ratio (z) = -0.12002 0.42507
#
# Static dielectric constant tensor:
#      x y z
#    x 1.726510 0.000000 0.000000 
#    y 0.000000 1.705640 0.000000 
#    z 0.000000 0.000000 1.666710 
# 
# From -- ./inp_files/72084.got.cif
#   From: 2010.05.17/outbox.cif.g08.bks.cpg/sg63_37_cif.got.tgz:72084.got - 2010.06.03 15:47:04.
