data_PCOD9471129
_publ_section_title
;
Structure prediction by ZEFSAII (Michael W. Deem and Ramdas Pophale) SiO2 
 PCOD9471129
Probable space group: C M C M
;
_chemical_formula_sum "Si O2"
_cell_formula_units_Z 96
_cell_length_a 19.239109
_cell_length_b 29.802725
_cell_length_c 7.809191
_cell_angle_alpha 90.000000
_cell_angle_beta 90.000000
_cell_angle_gamma 90.000000
_cell_volume 4477.617339
_symmetry_space_group_name_H-M "C M C M"
_symmetry_group_IT_number 63
_symmetry_cell_setting 'orthorhombic'
loop_
_space_group_symop_operation_xyz
x,y,z
-x,-y,1/2+z
x,-y,-z
-x,y,1/2-z
-x,-y,-z
x,y,1/2-z
-x,y,z
x,-y,1/2+z
1/2+x,1/2+y,z
1/2-x,1/2-y,1/2+z
1/2+x,1/2-y,-z
1/2-x,1/2+y,1/2-z
1/2-x,1/2-y,-z
1/2+x,1/2+y,1/2-z
1/2-x,1/2+y,z
1/2+x,1/2-y,1/2+z
loop_
_atom_site_type_symbol
_atom_site_label
_atom_site_fract_x
_atom_site_fract_y
_atom_site_fract_z
Si Si1 0.177914 0.649937 0.045690
Si Si2 0.579033 0.776366 0.046006
Si Si3 0.309590 0.294621 0.943912
Si Si4 0.425492 0.357599 0.457027
Si Si5 0.721100 0.049719 0.546153
Si Si6 0.379357 0.452383 0.045790
O O1 0.181424 0.653267 0.250000
O O2 0.241256 0.681941 0.976017
O O3 0.107412 0.673438 0.983255
O O4 0.186476 0.597205 0.004050
O O5 0.576703 0.767400 0.250000
O O6 0.500000 0.770360 0.979504
O O7 0.640964 0.744002 0.974243
O O8 0.291608 0.279996 0.750000
O O9 0.363765 0.334927 0.944259
O O10 0.415625 0.353385 0.250000
O O11 0.500000 0.337411 0.500257
O O12 0.422823 0.409541 0.504349
O O13 0.724185 0.050524 0.750000
O O14 0.800442 0.050600 0.475078
O O15 0.691794 0.000000 0.500000
O O16 0.373496 0.450558 0.250000
O O17 0.410085 0.500000 0.000000
#
# Coordination Sequence:
#
# PCOD9471129 Si02
#       6
#    16  16  16  16  16  16
#     4  11  22  36  59  90 118 149 192 238 284 338
#     4  10  22  40  60  83 115 154 192 234 288 344
#     4  10  21  37  57  82 112 148 192 236 279 334
#     4  10  20  33  49  72 105 145 188 234 285 337
#     4  10  19  34  57  84 116 151 188 236 288 338
#     4   9  18  31  47  69  99 138 182 230 280 331
#
# _framework density 21.439975
#
# number of rings (size 3 to 8) (size 9 to 14) (size 15 to 20)
#    0.000    2.000    1.667    2.000    0.000    4.333 
#    0.000    0.000    0.000    0.500    0.000    0.000 
#    0.000    0.000    0.000    0.000    0.000    0.000 
#
# Total GULP energy -267574.080048 kJ/mol
# GULP energy per Si atom -5574.460001 kJ/mol
# Density = 2.139118 g / cm^3
# Si number density = 21.439975 Si / 1000 Ang^3
#
#
#
# Elastic Constant Matrix: (Units=GPa)
#
#
# Indices 1 2 3 4 5 6 
#
# 1 68.2980 66.5973 8.1690 0.0000 0.0000 0.0000
# 2 66.5973 147.2331 5.0655 0.0000 0.0000 0.0000
# 3 8.1690 5.0655 36.4245 0.0000 0.0000 0.0000
# 4 0.0000 0.0000 0.0000 21.2475 0.0000 0.0000
# 5 0.0000 0.0000 0.0000 0.0000 44.7060 0.0000
# 6 0.0000 0.0000 0.0000 0.0000 0.0000 27.6865
#
#
#
# Elastic Compliance Matrix: (Units=1/GPa)
#
#
# Indices 1 2 3 4 5 6 
#
# 1 0.026866 -0.012002 -0.004356 0.000000 0.000000 0.000000
# 2 -0.012002 0.012187 0.000997 0.000000 0.000000 0.000000
# 3 -0.004356 0.000997 0.028292 0.000000 0.000000 0.000000
# 4 0.000000 0.000000 0.000000 0.047064 0.000000 0.000000
# 5 0.000000 0.000000 0.000000 0.000000 0.022368 0.000000
# 6 0.000000 0.000000 0.000000 0.000000 0.000000 0.036119
#
#
# Mechanical properties :
#
#
# Convention : Reuss Voigt Hill
#
# Bulk Modulus (GPa) = 27.30593 45.73547 36.52070
# Shear Modulus (GPa) = 23.16667 30.20292 26.68479
#
# Velocity S-wave (km/s) = 3.29072 3.75736 3.53176
# Velocity P-wave (km/s) = 5.21556 6.34050 5.80534
#
# Compressibility (1/GPa) = 0.03662208
#
# Stress axis : x y z
#
# Youngs Moduli (GPa) = 37.22134 82.05698 35.34526
#
# Poissons Ratio (x) = 0.98488 0.15397
# Poissons Ratio (y) = 0.44675 -0.03524
# Poissons Ratio (z) = 0.16214 -0.08181
#
# Static dielectric constant tensor:
#      x y z
#    x 1.771030 0.000000 0.000000 
#    y 0.000000 1.820500 0.000000 
#    z 0.000000 0.000000 1.800230 
# 
# From -- ./inp_files/8566.got.cif
#   From: 2010.05.17/outbox.cif.g08.bks.cpg/sg63_5_cif.got.tgz:8566.got - 2010.06.03 15:47:04.
