data_PCOD9471944
_publ_section_title
;
Structure prediction by ZEFSAII (Michael W. Deem and Ramdas Pophale) SiO2 
 PCOD9471944
Probable space group: C M C M
;
_chemical_formula_sum "Si O2"
_cell_formula_units_Z 80
_cell_length_a 7.522927
_cell_length_b 26.624597
_cell_length_c 18.907563
_cell_angle_alpha 90.000000
_cell_angle_beta 90.000000
_cell_angle_gamma 90.000000
_cell_volume 3787.088433
_symmetry_space_group_name_H-M "C M C M"
_symmetry_group_IT_number 63
_symmetry_cell_setting 'orthorhombic'
loop_
_space_group_symop_operation_xyz
x,y,z
-x,-y,1/2+z
x,-y,-z
-x,y,1/2-z
-x,-y,-z
x,y,1/2-z
-x,y,z
x,-y,1/2+z
1/2+x,1/2+y,z
1/2-x,1/2-y,1/2+z
1/2+x,1/2-y,-z
1/2-x,1/2+y,1/2-z
1/2-x,1/2-y,-z
1/2+x,1/2+y,1/2-z
1/2-x,1/2+y,z
1/2+x,1/2-y,1/2+z
loop_
_atom_site_type_symbol
_atom_site_label
_atom_site_fract_x
_atom_site_fract_y
_atom_site_fract_z
Si Si1 0.782236 0.652272 0.168655
Si Si2 0.710865 0.848843 0.329490
Si Si3 0.216529 0.555494 0.082717
Si Si4 0.717205 0.942561 0.080446
Si Si5 0.710414 0.750821 0.916915
O O1 0.727557 0.657131 0.250000
O O2 0.724133 0.599928 0.133705
O O3 0.719304 0.699402 0.122091
O O4 0.000000 0.652127 0.167722
O O5 0.782496 0.842001 0.250000
O O6 0.500000 0.856918 0.323224
O O7 0.782181 0.897966 0.369679
O O8 0.732294 0.799564 0.377119
O O9 0.272254 0.498872 0.101881
O O10 0.000000 0.555542 0.083580
O O11 0.269536 0.565421 0.001363
O O12 0.500000 0.941997 0.081021
O O13 0.500000 0.752973 0.909694
O O14 0.750000 0.750000 0.000000
#
# Coordination Sequence:
#
# PCOD9471944 Si02
#       5
#    16  16  16  16  16
#     4   9  17  28  44  69  99 127 157 199 250 298
#     4  10  20  33  50  75 107 138 167 202 247 301
#     4   8  13  23  41  65  96 131 164 201 246 292
#     4   8  14  25  42  67  99 133 166 201 242 288
#     4  11  22  36  54  74  98 130 170 213 256 304
#
# _framework density 21.124407999999999
#
# number of rings (size 3 to 8) (size 9 to 14) (size 15 to 20)
#    0.000    2.800    0.000    3.600    0.000    5.200 
#    0.000    4.000    0.000    0.000    0.000   12.600 
#    0.000    0.000    0.000    0.000    0.000    0.000 
#
# Total GULP energy -223332.433171 kJ/mol
# GULP energy per Si atom -5583.310829 kJ/mol
# Density = 2.107633 g / cm^3
# Si number density = 21.124408 Si / 1000 Ang^3
#
#
#
# Elastic Constant Matrix: (Units=GPa)
#
#
# Indices 1 2 3 4 5 6 
#
# 1 52.1762 -0.1107 -0.7974 0.0000 0.0000 0.0000
# 2 -0.1107 210.9265 146.8392 0.0000 0.0000 0.0000
# 3 -0.7974 146.8392 191.5877 0.0000 0.0000 0.0000
# 4 0.0000 0.0000 0.0000 -9.1814 0.0000 0.0000
# 5 0.0000 0.0000 0.0000 0.0000 6.0063 0.0000
# 6 0.0000 0.0000 0.0000 0.0000 0.0000 13.2053
#
#
#
# Elastic Compliance Matrix: (Units=1/GPa)
#
#
# Indices 1 2 3 4 5 6 
#
# 1 0.019168 -0.000098 0.000155 0.000000 0.000000 0.000000
# 2 -0.000098 0.010165 -0.007791 0.000000 0.000000 0.000000
# 3 0.000155 -0.007791 0.011191 0.000000 0.000000 0.000000
# 4 0.000000 0.000000 0.000000 -0.108916 0.000000 0.000000
# 5 0.000000 0.000000 0.000000 0.000000 0.166493 0.000000
# 6 0.000000 0.000000 0.000000 0.000000 0.000000 0.075727
#
#
# Mechanical properties :
#
#
# Convention : Reuss Voigt Hill
#
# Bulk Modulus (GPa) = 39.91028 82.95030 61.43029
# Shear Modulus (GPa) = 25.29738 22.58998 23.94368
#
# Velocity S-wave (km/s) = 3.46431 3.27368 3.37034
# Velocity P-wave (km/s) = 5.91066 7.32408 6.65500
#
# Compressibility (1/GPa) = 0.02505620
#
# Stress axis : x y z
#
# Youngs Moduli (GPa) = 52.17031 98.37927 89.35377
#
# Poissons Ratio (x) = 0.00959 -0.01381
# Poissons Ratio (y) = 0.00509 0.69616
# Poissons Ratio (z) = -0.00806 0.76647
#
# Static dielectric constant tensor:
#      x y z
#    x 1.851360 0.000000 0.000000 
#    y 0.000000 1.736380 0.000000 
#    z 0.000000 0.000000 1.716590 
# 
# From -- ./inp_files/40729.got.cif
#   From: 2010.05.17/outbox.cif.g08.bks.cpg/sg63_21_cif.got.tgz:40729.got - 2010.06.03 15:47:04.
