data_PCOD9471467
_publ_section_title
;
Structure prediction by ZEFSAII (Michael W. Deem and Ramdas Pophale) SiO2 
 PCOD9471467
Probable space group: C M C M
;
_chemical_formula_sum "Si O2"
_cell_formula_units_Z 112
_cell_length_a 17.857269
_cell_length_b 19.698818
_cell_length_c 17.558762
_cell_angle_alpha 90.000000
_cell_angle_beta 90.000000
_cell_angle_gamma 90.000000
_cell_volume 6176.594648
_symmetry_space_group_name_H-M "C M C M"
_symmetry_group_IT_number 63
_symmetry_cell_setting 'orthorhombic'
loop_
_space_group_symop_operation_xyz
x,y,z
-x,-y,1/2+z
x,-y,-z
-x,y,1/2-z
-x,-y,-z
x,y,1/2-z
-x,y,z
x,-y,1/2+z
1/2+x,1/2+y,z
1/2-x,1/2-y,1/2+z
1/2+x,1/2-y,-z
1/2-x,1/2+y,1/2-z
1/2-x,1/2-y,-z
1/2+x,1/2+y,1/2-z
1/2-x,1/2+y,z
1/2+x,1/2-y,1/2+z
loop_
_atom_site_type_symbol
_atom_site_label
_atom_site_fract_x
_atom_site_fract_y
_atom_site_fract_z
Si Si1 0.326794 0.659159 0.526639
Si Si2 0.588175 0.577762 0.838697
Si Si3 0.412163 0.062218 0.056144
Si Si4 0.190221 0.501870 0.661953
Si Si5 0.414751 0.867247 0.338360
Si Si6 0.657650 0.463387 0.920891
Si Si7 0.150767 0.307202 0.026048
O O1 0.363481 0.622093 0.600391
O O2 0.340640 0.614236 0.449723
O O3 0.237353 0.669837 0.534700
O O4 0.356530 0.735119 0.514472
O O5 0.609298 0.589644 0.750000
O O6 0.500000 0.592853 0.847792
O O7 0.602590 0.498381 0.860149
O O8 0.500000 0.056901 0.066246
O O9 0.370005 0.053335 0.135553
O O10 0.389990 0.132707 0.018749
O O11 0.388572 0.000000 0.000000
O O12 0.212126 0.496839 0.750000
O O13 0.145539 0.572428 0.651100
O O14 0.261268 0.488289 0.608683
O O15 0.414611 0.849318 0.250000
O O16 0.500000 0.889630 0.358448
O O17 0.388455 0.806855 0.391875
O O18 0.639586 0.500000 0.000000
#
# Coordination Sequence:
#
# PCOD9471467 Si02
#       7
#    16  16  16  16  16  16  16
#     4  10  23  38  61  83 115 151 197 239 283 347
#     4  10  22  40  62  89 116 147 191 244 303 356
#     4  11  21  34  56  84 114 150 190 237 284 335
#     4  11  20  32  54  83 116 151 189 233 286 337
#     4  10  20  33  52  82 116 148 187 235 284 338
#     4  10  19  36  60  86 111 143 189 243 288 341
#     4  11  21  38  57  83 115 157 196 237 281 345
#
# _framework density 18.132968000000002
#
# number of rings (size 3 to 8) (size 9 to 14) (size 15 to 20)
#    0.000    1.571    2.857    3.429    0.000    6.286 
#    0.000    2.143    0.000    1.714    0.000    0.000 
#    0.000    0.000    0.000    0.000    0.000    0.000 
#
# Total GULP energy -312103.796951 kJ/mol
# GULP energy per Si atom -5573.282088 kJ/mol
# Density = 1.809170 g / cm^3
# Si number density = 18.132968 Si / 1000 Ang^3
#
#
#
# Elastic Constant Matrix: (Units=GPa)
#
#
# Indices 1 2 3 4 5 6 
#
# 1 42.4852 12.0088 15.7630 0.0000 0.0000 0.0000
# 2 12.0088 83.6331 26.7200 0.0000 0.0000 0.0000
# 3 15.7630 26.7200 73.1722 0.0000 0.0000 0.0000
# 4 0.0000 0.0000 0.0000 22.5816 0.0000 0.0000
# 5 0.0000 0.0000 0.0000 0.0000 34.2876 0.0000
# 6 0.0000 0.0000 0.0000 0.0000 0.0000 -20.3845
#
#
#
# Elastic Compliance Matrix: (Units=1/GPa)
#
#
# Indices 1 2 3 4 5 6 
#
# 1 0.025933 -0.002195 -0.004785 0.000000 0.000000 0.000000
# 2 -0.002195 0.013722 -0.004538 0.000000 0.000000 0.000000
# 3 -0.004785 -0.004538 0.016354 0.000000 0.000000 0.000000
# 4 0.000000 0.000000 0.000000 0.044284 0.000000 0.000000
# 5 0.000000 0.000000 0.000000 0.000000 0.029165 0.000000
# 6 0.000000 0.000000 0.000000 0.000000 0.000000 -0.049057
#
#
# Mechanical properties :
#
#
# Convention : Reuss Voigt Hill
#
# Bulk Modulus (GPa) = 30.32727 34.25269 32.28998
# Shear Modulus (GPa) = 43.69523 16.95020 30.32271
#
# Velocity S-wave (km/s) = 4.91421 3.06072 4.09374
# Velocity P-wave (km/s) = 6.99718 5.60548 6.33963
#
# Compressibility (1/GPa) = 0.03297363
#
# Stress axis : x y z
#
# Youngs Moduli (GPa) = 38.56032 72.87567 61.14590
#
# Poissons Ratio (x) = 0.15996 0.29259
# Poissons Ratio (y) = 0.08464 0.27748
# Poissons Ratio (z) = 0.18452 0.33071
#
# Static dielectric constant tensor:
#      x y z
#    x 1.647600 0.000000 0.000000 
#    y 0.000000 1.636580 0.000000 
#    z 0.000000 0.000000 1.668740 
# 
# From -- ./inp_files/46059.got.cif
#   From: 2010.05.17/outbox.cif.g08.bks.cpg/sg63_24_cif.got.tgz:46059.got - 2010.06.03 15:47:04.
