data_PCOD9471568
_publ_section_title
;
Structure prediction by ZEFSAII (Michael W. Deem and Ramdas Pophale) SiO2 
 PCOD9471568
Probable space group: C M C M
;
_chemical_formula_sum "Si O2"
_cell_formula_units_Z 88
_cell_length_a 27.098978
_cell_length_b 4.903394
_cell_length_c 28.187524
_cell_angle_alpha 90.000000
_cell_angle_beta 90.000000
_cell_angle_gamma 90.000000
_cell_volume 3745.472672
_symmetry_space_group_name_H-M "C M C M"
_symmetry_group_IT_number 63
_symmetry_cell_setting 'orthorhombic'
loop_
_space_group_symop_operation_xyz
x,y,z
-x,-y,1/2+z
x,-y,-z
-x,y,1/2-z
-x,-y,-z
x,y,1/2-z
-x,y,z
x,-y,1/2+z
1/2+x,1/2+y,z
1/2-x,1/2-y,1/2+z
1/2+x,1/2-y,-z
1/2-x,1/2+y,1/2-z
1/2-x,1/2-y,-z
1/2+x,1/2+y,1/2-z
1/2-x,1/2+y,z
1/2+x,1/2-y,1/2+z
loop_
_atom_site_type_symbol
_atom_site_label
_atom_site_fract_x
_atom_site_fract_y
_atom_site_fract_z
Si Si1 0.662363 0.516585 0.852327
Si Si2 0.717410 0.777291 0.939153
Si Si3 0.362906 0.500000 0.000000
Si Si4 0.339921 0.525308 0.250000
Si Si5 0.591574 0.020429 0.250000
Si Si6 0.407443 0.990552 0.145270
Si Si7 0.946319 0.690489 0.547155
O O1 0.698677 0.655340 0.889375
O O2 0.685517 0.529549 0.799811
O O3 0.639967 0.214330 0.859503
O O4 0.614080 0.706736 0.854028
O O5 0.765363 0.585409 0.946066
O O6 0.672678 0.710653 0.974098
O O7 0.399588 0.617663 0.039376
O O8 0.359124 0.834378 0.250000
O O9 0.388935 0.331245 0.250000
O O10 0.568875 0.952489 0.301914
O O11 0.439389 0.951366 0.098060
O O12 0.945120 0.500000 0.500000
O O13 0.000000 0.829398 0.547369
#
# Coordination Sequence:
#
# PCOD9471568 Si02
#       7
#    16  16   8   8   8  16  16
#     4  10  19  38  62  88 126 164 207 256 317 366
#     4  12  26  41  62  93 122 163 217 261 311 382
#     4  12  25  44  66  82 128 168 205 264 326 370
#     4   8  16  30  58  89 115 162 207 247 305 381
#     4   8  16  30  59  91 120 158 213 247 308 379
#     4  10  19  38  63  92 125 169 205 260 316 373
#     4  11  25  42  66  97 126 168 218 262 320 392
#
# _framework density 23.495032999999999
#
# number of rings (size 3 to 8) (size 9 to 14) (size 15 to 20)
#    0.000    1.636    1.818    3.000    2.545    0.000 
#    0.000    1.364    0.000    0.000    0.000    7.636 
#    0.000    0.000    0.000    0.000    0.000    0.000 
#
# Total GULP energy -245629.650500 kJ/mol
# GULP energy per Si atom -5582.492057 kJ/mol
# Density = 2.344156 g / cm^3
# Si number density = 23.495033 Si / 1000 Ang^3
#
#
#
# Elastic Constant Matrix: (Units=GPa)
#
#
# Indices 1 2 3 4 5 6 
#
# 1 73.6476 -1.7650 40.5259 0.0000 0.0000 0.0000
# 2 -1.7650 59.2355 -7.1021 0.0000 0.0000 0.0000
# 3 40.5259 -7.1021 181.0550 0.0000 0.0000 0.0000
# 4 0.0000 0.0000 0.0000 29.6270 0.0000 0.0000
# 5 0.0000 0.0000 0.0000 0.0000 28.5332 0.0000
# 6 0.0000 0.0000 0.0000 0.0000 0.0000 -1.1983
#
#
#
# Elastic Compliance Matrix: (Units=1/GPa)
#
#
# Indices 1 2 3 4 5 6 
#
# 1 0.015486 0.000046 -0.003464 0.000000 0.000000 0.000000
# 2 0.000046 0.016962 0.000655 0.000000 0.000000 0.000000
# 3 -0.003464 0.000655 0.006324 0.000000 0.000000 0.000000
# 4 0.000000 0.000000 0.000000 0.033753 0.000000 0.000000
# 5 0.000000 0.000000 0.000000 0.000000 0.035047 0.000000
# 6 0.000000 0.000000 0.000000 0.000000 0.000000 -0.834506
#
#
# Mechanical properties :
#
#
# Convention : Reuss Voigt Hill
#
# Bulk Modulus (GPa) = 30.07968 41.91729 35.99848
# Shear Modulus (GPa) = -7.03902 30.21099 11.58598
#
# Velocity S-wave (km/s) = -1.73276 3.58976 2.22305
# Velocity P-wave (km/s) = 2.97104 5.92127 4.68447
#
# Compressibility (1/GPa) = 0.03324504
#
# Stress axis : x y z
#
# Youngs Moduli (GPa) = 64.57607 58.95643 158.11984
#
# Poissons Ratio (x) = -0.00272 0.54779
# Poissons Ratio (y) = -0.00297 -0.10357
# Poissons Ratio (z) = 0.22372 -0.03862
#
# Static dielectric constant tensor:
#      x y z
#    x 1.845710 0.000000 0.000000 
#    y 0.000000 1.869580 0.000000 
#    z 0.000000 0.000000 1.995860 
# 
# From -- ./inp_files/74261.got.cif
#   From: 2010.05.17/outbox.cif.g08.bks.cpg/sg63_38_cif.got.tgz:74261.got - 2010.06.03 15:47:04.
