data_PCOD9471592
_publ_section_title
;
Structure prediction by ZEFSAII (Michael W. Deem and Ramdas Pophale) SiO2 
 PCOD9471592
Probable space group: C M C M
;
_chemical_formula_sum "Si O2"
_cell_formula_units_Z 52
_cell_length_a 14.733720
_cell_length_b 17.401247
_cell_length_c 8.620773
_cell_angle_alpha 90.000000
_cell_angle_beta 90.000000
_cell_angle_gamma 90.000000
_cell_volume 2210.237756
_symmetry_space_group_name_H-M "C M C M"
_symmetry_group_IT_number 63
_symmetry_cell_setting 'orthorhombic'
loop_
_space_group_symop_operation_xyz
x,y,z
-x,-y,1/2+z
x,-y,-z
-x,y,1/2-z
-x,-y,-z
x,y,1/2-z
-x,y,z
x,-y,1/2+z
1/2+x,1/2+y,z
1/2-x,1/2-y,1/2+z
1/2+x,1/2-y,-z
1/2-x,1/2+y,1/2-z
1/2-x,1/2-y,-z
1/2+x,1/2+y,1/2-z
1/2-x,1/2+y,z
1/2+x,1/2-y,1/2+z
loop_
_atom_site_type_symbol
_atom_site_label
_atom_site_fract_x
_atom_site_fract_y
_atom_site_fract_z
Si Si1 0.353052 0.920845 0.428359
Si Si2 0.106448 0.743066 0.428496
Si Si3 0.821912 0.890481 0.582593
Si Si4 0.500000 0.563895 0.250000
O O1 0.378040 0.914580 0.250000
O O2 0.383156 0.844348 0.517287
O O3 0.243445 0.921813 0.450316
O O4 0.388127 0.000000 0.500000
O O5 0.135527 0.753132 0.250000
O O6 0.158497 0.801806 0.540053
O O7 0.000000 0.763145 0.437681
O O8 0.772462 0.896536 0.750000
O O9 0.918765 0.928623 0.616964
#
# Coordination Sequence:
#
# PCOD9471592 Si02
#       4
#    16  16  16   4
#     4  12  26  42  62  88 124 167 206 251 308 367
#     4  11  22  39  65  95 125 160 206 254 302 359
#     4  10  19  40  65  93 122 157 202 252 301 358
#     4   8  20  36  72  88 130 152 204 250 312 344
#
# _framework density 23.526880999999999
#
# number of rings (size 3 to 8) (size 9 to 14) (size 15 to 20)
#    0.923    0.308    1.538    5.538    0.000    2.462 
#    0.000    0.769    0.000    0.000    0.000    0.000 
#    0.000    0.000    0.000    0.000    0.000    0.000 
#
# Total GULP energy -144826.188571 kJ/mol
# GULP energy per Si atom -5570.238022 kJ/mol
# Density = 2.347333 g / cm^3
# Si number density = 23.526881 Si / 1000 Ang^3
#
#
#
# Elastic Constant Matrix: (Units=GPa)
#
#
# Indices 1 2 3 4 5 6 
#
# 1 63.6124 -19.7273 -5.8622 0.0000 0.0000 0.0000
# 2 -19.7273 99.0278 19.0118 0.0000 0.0000 0.0000
# 3 -5.8622 19.0118 115.6721 0.0000 0.0000 0.0000
# 4 0.0000 0.0000 0.0000 29.3809 0.0000 0.0000
# 5 0.0000 0.0000 0.0000 0.0000 29.4406 0.0000
# 6 0.0000 0.0000 0.0000 0.0000 0.0000 -13.9042
#
#
#
# Elastic Compliance Matrix: (Units=1/GPa)
#
#
# Indices 1 2 3 4 5 6 
#
# 1 0.016766 0.003280 0.000311 0.000000 0.000000 0.000000
# 2 0.003280 0.011069 -0.001653 0.000000 0.000000 0.000000
# 3 0.000311 -0.001653 0.008933 0.000000 0.000000 0.000000
# 4 0.000000 0.000000 0.000000 0.034036 0.000000 0.000000
# 5 0.000000 0.000000 0.000000 0.000000 0.033967 0.000000
# 6 0.000000 0.000000 0.000000 0.000000 0.000000 -0.071921
#
#
# Mechanical properties :
#
#
# Convention : Reuss Voigt Hill
#
# Bulk Modulus (GPa) = 24.60428 29.46190 27.03309
# Shear Modulus (GPa) = 117.58835 27.97614 72.78225
#
# Velocity S-wave (km/s) = 7.07735 3.45209 5.56803
# Velocity P-wave (km/s) = 8.79010 5.33283 7.26997
#
# Compressibility (1/GPa) = 0.04064334
#
# Stress axis : x y z
#
# Youngs Moduli (GPa) = 59.64416 90.34230 111.95002
#
# Poissons Ratio (x) = -0.29635 -0.03477
# Poissons Ratio (y) = -0.19565 0.18506
# Poissons Ratio (z) = -0.01852 0.14934
#
# Static dielectric constant tensor:
#      x y z
#    x 1.926420 0.000000 0.000000 
#    y 0.000000 1.906780 0.000000 
#    z 0.000000 0.000000 1.851150 
# 
# From -- ./inp_files/5439.got.cif
#   From: 2010.05.17/outbox.cif.g08.bks.cpg/sg63_3_cif.got.tgz:5439.got - 2010.06.03 15:47:04.
