data_PCOD9471564
_publ_section_title
;
Structure prediction by ZEFSAII (Michael W. Deem and Ramdas Pophale) SiO2 
 PCOD9471564
Probable space group: C M C M
;
_chemical_formula_sum "Si O2"
_cell_formula_units_Z 88
_cell_length_a 27.802007
_cell_length_b 12.660451
_cell_length_c 14.415871
_cell_angle_alpha 90.000000
_cell_angle_beta 90.000000
_cell_angle_gamma 90.000000
_cell_volume 5074.184010
_symmetry_space_group_name_H-M "C M C M"
_symmetry_group_IT_number 63
_symmetry_cell_setting 'orthorhombic'
loop_
_space_group_symop_operation_xyz
x,y,z
-x,-y,1/2+z
x,-y,-z
-x,y,1/2-z
-x,-y,-z
x,y,1/2-z
-x,y,z
x,-y,1/2+z
1/2+x,1/2+y,z
1/2-x,1/2-y,1/2+z
1/2+x,1/2-y,-z
1/2-x,1/2+y,1/2-z
1/2-x,1/2-y,-z
1/2+x,1/2+y,1/2-z
1/2-x,1/2+y,z
1/2+x,1/2-y,1/2+z
loop_
_atom_site_type_symbol
_atom_site_label
_atom_site_fract_x
_atom_site_fract_y
_atom_site_fract_z
Si Si1 0.054678 0.800563 0.544811
Si Si2 0.113694 0.494995 0.750000
Si Si3 0.313646 0.328173 0.750000
Si Si4 0.943510 0.593114 0.075797
Si Si5 0.581930 0.240682 0.750000
Si Si6 0.211988 0.999548 0.602929
Si Si7 0.781581 0.588597 0.750000
Si Si8 0.879921 0.000000 0.500000
O O1 0.067907 0.702206 0.477933
O O2 0.056663 0.764007 0.652131
O O3 0.088873 0.900288 0.529529
O O4 0.000000 0.830630 0.522251
O O5 0.091858 0.435781 0.660165
O O6 0.094660 0.616193 0.750000
O O7 0.171697 0.511442 0.750000
O O8 0.371150 0.316507 0.750000
O O9 0.294550 0.390927 0.840047
O O10 0.297585 0.208363 0.750000
O O11 0.000000 0.597087 0.106412
O O12 0.940032 0.500000 0.000000
O O13 0.157078 0.034689 0.581861
O O14 0.233397 0.000000 0.500000
O O15 0.246963 0.068935 0.663537
#
# Coordination Sequence:
#
# PCOD9471564 Si02
#       8
#    16   8   8  16   8  16   8   8
#     4  11  22  37  61  93 121 155 206 251 294 359
#     4  11  22  37  60  86 126 161 198 248 297 359
#     4  10  19  38  61  82 118 146 197 243 292 356
#     4  10  21  37  58  89 126 158 194 245 303 361
#     4  11  18  35  60  90 114 157 201 246 297 344
#     4   9  20  41  60  83 116 155 190 240 302 355
#     4  10  23  38  57  94 115 148 202 255 283 351
#     4  10  21  42  62  82 118 164 197 240 306 354
#
# _framework density 17.342690000000001
#
# number of rings (size 3 to 8) (size 9 to 14) (size 15 to 20)
#    0.545    1.273    3.636    0.818    0.000    2.182 
#    6.545    1.818    0.000    2.182    0.000    0.000 
#    0.000    0.000    0.000    0.000    0.000    0.000 
#
# Total GULP energy -244951.732845 kJ/mol
# GULP energy per Si atom -5567.084837 kJ/mol
# Density = 1.730322 g / cm^3
# Si number density = 17.342690 Si / 1000 Ang^3
#
#
#
# Elastic Constant Matrix: (Units=GPa)
#
#
# Indices 1 2 3 4 5 6 
#
# 1 91.0774 41.7436 47.9784 0.0000 0.0000 0.0000
# 2 41.7436 62.0350 40.8409 0.0000 0.0000 0.0000
# 3 47.9784 40.8409 130.7712 0.0000 0.0000 0.0000
# 4 0.0000 0.0000 0.0000 10.3956 0.0000 0.0000
# 5 0.0000 0.0000 0.0000 0.0000 27.5353 0.0000
# 6 0.0000 0.0000 0.0000 0.0000 0.0000 21.2645
#
#
#
# Elastic Compliance Matrix: (Units=1/GPa)
#
#
# Indices 1 2 3 4 5 6 
#
# 1 0.016965 -0.009212 -0.003347 0.000000 0.000000 0.000000
# 2 -0.009212 0.025295 -0.004520 0.000000 0.000000 0.000000
# 3 -0.003347 -0.004520 0.010287 0.000000 0.000000 0.000000
# 4 0.000000 0.000000 0.000000 0.096194 0.000000 0.000000
# 5 0.000000 0.000000 0.000000 0.000000 0.036317 0.000000
# 6 0.000000 0.000000 0.000000 0.000000 0.000000 0.047027
#
#
# Mechanical properties :
#
#
# Convention : Reuss Voigt Hill
#
# Bulk Modulus (GPa) = 54.38439 60.55660 57.47050
# Shear Modulus (GPa) = 18.35723 22.06048 20.20885
#
# Velocity S-wave (km/s) = 3.25699 3.57043 3.41730
# Velocity P-wave (km/s) = 6.75061 7.21046 6.98432
#
# Compressibility (1/GPa) = 0.01838763
#
# Stress axis : x y z
#
# Youngs Moduli (GPa) = 58.94404 39.53423 97.21399
#
# Poissons Ratio (x) = 0.36420 0.32540
# Poissons Ratio (y) = 0.54301 0.43939
# Poissons Ratio (z) = 0.19730 0.17869
#
# Static dielectric constant tensor:
#      x y z
#    x 1.599810 0.000000 0.000000 
#    y 0.000000 1.554070 0.000000 
#    z 0.000000 0.000000 1.560040 
# 
# From -- ./inp_files/37834.got.cif
#   From: 2010.05.17/outbox.cif.g08.bks.cpg/sg63_19_cif.got.tgz:37834.got - 2010.06.03 15:47:04.
