data_PCOD9471454
_publ_section_title
;
Structure prediction by ZEFSAII (Michael W. Deem and Ramdas Pophale) SiO2 
 PCOD9471454
Probable space group: C M C M
;
_chemical_formula_sum "Si O2"
_cell_formula_units_Z 92
_cell_length_a 8.249104
_cell_length_b 24.219510
_cell_length_c 20.342089
_cell_angle_alpha 90.000000
_cell_angle_beta 90.000000
_cell_angle_gamma 90.000000
_cell_volume 4064.130843
_symmetry_space_group_name_H-M "C M C M"
_symmetry_group_IT_number 63
_symmetry_cell_setting 'orthorhombic'
loop_
_space_group_symop_operation_xyz
x,y,z
-x,-y,1/2+z
x,-y,-z
-x,y,1/2-z
-x,-y,-z
x,y,1/2-z
-x,y,z
x,-y,1/2+z
1/2+x,1/2+y,z
1/2-x,1/2-y,1/2+z
1/2+x,1/2-y,-z
1/2-x,1/2+y,1/2-z
1/2-x,1/2-y,-z
1/2+x,1/2+y,1/2-z
1/2-x,1/2+y,z
1/2+x,1/2-y,1/2+z
loop_
_atom_site_type_symbol
_atom_site_label
_atom_site_fract_x
_atom_site_fract_y
_atom_site_fract_z
Si Si1 0.500000 0.181915 0.825403
Si Si2 0.682193 0.219394 0.436288
Si Si3 0.500000 0.621675 0.250000
Si Si4 0.500000 0.305459 0.877744
Si Si5 0.685814 0.995372 0.898167
Si Si6 0.313763 0.582842 0.999354
Si Si7 0.806567 0.459512 0.750000
Si Si8 0.319160 0.338253 0.114367
O O1 0.500000 0.198242 0.750000
O O2 0.500000 0.238752 0.867527
O O3 0.663635 0.148679 0.841745
O O4 0.500000 0.196803 0.444717
O O5 0.750000 0.250000 0.500000
O O6 0.667591 0.271782 0.386622
O O7 0.829415 0.181639 0.412416
O O8 0.500000 0.661222 0.311864
O O9 0.334304 0.586375 0.250000
O O10 0.500000 0.013022 0.906184
O O11 0.718374 0.990133 0.820408
O O12 0.791941 0.038045 0.940104
O O13 0.709980 0.938250 0.938952
O O14 0.500000 0.583020 0.020556
O O15 0.278744 0.638390 0.958372
O O16 0.000000 0.442366 0.750000
O O17 0.500000 0.359285 0.131720
#
# Coordination Sequence:
#
# PCOD9471454 Si02
#       8
#     8  16   4   8  16  16   8  16
#     4  10  20  38  62  79 121 155 195 240 300 354
#     4  10  19  36  59  87 126 158 195 255 311 354
#     4  12  26  42  70  82 128 166 218 254 306 380
#     4  10  22  40  58  92 113 160 206 242 304 373
#     4  10  21  39  61  86 123 161 201 256 312 363
#     4  10  20  36  61  91 121 155 208 247 309 375
#     4  10  26  46  62  91 125 161 213 258 308 372
#     4   9  21  36  54  87 122 153 197 247 295 363
#
# _framework density 22.637066000000001
#
# number of rings (size 3 to 8) (size 9 to 14) (size 15 to 20)
#    0.000    2.087    1.304    2.087    4.870    2.435 
#    1.565    1.739    0.000    0.000    0.000    0.000 
#    0.000    0.000    0.000    0.000    0.000    0.000 
#
# Total GULP energy -256578.716108 kJ/mol
# GULP energy per Si atom -5577.798176 kJ/mol
# Density = 2.258554 g / cm^3
# Si number density = 22.637066 Si / 1000 Ang^3
#
#
#
# Elastic Constant Matrix: (Units=GPa)
#
#
# Indices 1 2 3 4 5 6 
#
# 1 179.4926 20.0227 56.6509 0.0000 0.0000 0.0000
# 2 20.0227 61.3140 8.4897 0.0000 0.0000 0.0000
# 3 56.6509 8.4897 101.3753 0.0000 0.0000 0.0000
# 4 0.0000 0.0000 0.0000 36.3619 0.0000 0.0000
# 5 0.0000 0.0000 0.0000 0.0000 25.8179 0.0000
# 6 0.0000 0.0000 0.0000 0.0000 0.0000 20.5273
#
#
#
# Elastic Compliance Matrix: (Units=1/GPa)
#
#
# Indices 1 2 3 4 5 6 
#
# 1 0.006945 -0.001751 -0.003735 0.000000 0.000000 0.000000
# 2 -0.001751 0.016942 -0.000440 0.000000 0.000000 0.000000
# 3 -0.003735 -0.000440 0.011988 0.000000 0.000000 0.000000
# 4 0.000000 0.000000 0.000000 0.027501 0.000000 0.000000
# 5 0.000000 0.000000 0.000000 0.000000 0.038733 0.000000
# 6 0.000000 0.000000 0.000000 0.000000 0.000000 0.048716
#
#
# Mechanical properties :
#
#
# Convention : Reuss Voigt Hill
#
# Bulk Modulus (GPa) = 41.62508 56.94536 49.28522
# Shear Modulus (GPa) = 29.29372 33.67600 31.48486
#
# Velocity S-wave (km/s) = 3.60121 3.86119 3.73346
# Velocity P-wave (km/s) = 5.97658 6.71482 6.35643
#
# Compressibility (1/GPa) = 0.02402398
#
# Stress axis : x y z
#
# Youngs Moduli (GPa) = 143.98296 59.02406 83.41558
#
# Poissons Ratio (x) = 0.10335 0.31152
# Poissons Ratio (y) = 0.25211 0.03673
# Poissons Ratio (z) = 0.53771 0.02599
#
# Static dielectric constant tensor:
#      x y z
#    x 1.847990 0.000000 0.000000 
#    y 0.000000 1.951720 0.000000 
#    z 0.000000 0.000000 1.827250 
# 
# From -- ./inp_files/51461.got.cif
#   From: 2010.05.17/outbox.cif.g08.bks.cpg/sg63_26_cif.got.tgz:51461.got - 2010.06.03 15:47:04.
