data_PCOD9471248
_publ_section_title
;
Structure prediction by ZEFSAII (Michael W. Deem and Ramdas Pophale) SiO2 
 PCOD9471248
Probable space group: C M C M
;
_chemical_formula_sum "Si O2"
_cell_formula_units_Z 68
_cell_length_a 12.729531
_cell_length_b 7.919587
_cell_length_c 24.380864
_cell_angle_alpha 90.000000
_cell_angle_beta 90.000000
_cell_angle_gamma 90.000000
_cell_volume 2457.898978
_symmetry_space_group_name_H-M "C M C M"
_symmetry_group_IT_number 63
_symmetry_cell_setting 'orthorhombic'
loop_
_space_group_symop_operation_xyz
x,y,z
-x,-y,1/2+z
x,-y,-z
-x,y,1/2-z
-x,-y,-z
x,y,1/2-z
-x,y,z
x,-y,1/2+z
1/2+x,1/2+y,z
1/2-x,1/2-y,1/2+z
1/2+x,1/2-y,-z
1/2-x,1/2+y,1/2-z
1/2-x,1/2-y,-z
1/2+x,1/2+y,1/2-z
1/2-x,1/2+y,z
1/2+x,1/2-y,1/2+z
loop_
_atom_site_type_symbol
_atom_site_label
_atom_site_fract_x
_atom_site_fract_y
_atom_site_fract_z
Si Si1 0.150627 0.367889 0.044317
Si Si2 0.157092 0.315142 0.668993
Si Si3 0.881142 0.139093 0.942823
Si Si4 0.500000 0.652118 0.750000
Si Si5 0.388928 0.197723 0.667680
O O1 0.265072 0.440252 0.063930
O O2 0.104639 0.316383 0.101982
O O3 0.108698 0.500000 0.000000
O O4 0.136590 0.206194 0.004680
O O5 0.127362 0.281059 0.605245
O O6 0.091728 0.178325 0.702624
O O7 0.281192 0.293782 0.679408
O O8 0.122281 0.502729 0.685865
O O9 0.000000 0.070892 0.937944
O O10 0.500000 0.270688 0.688350
#
# Coordination Sequence:
#
# PCOD9471248 Si02
#       5
#    16  16  16   4  16
#     4  10  20  32  58  92 131 171 214 251 328 394
#     4  11  24  43  72  95 131 177 227 276 343 386
#     4  10  19  35  55  88 126 173 213 264 318 396
#     4  12  24  48  74  96 126 180 224 294 338 394
#     4  11  23  45  69 103 138 177 218 277 329 408
#
# _framework density 27.665904999999999
#
# number of rings (size 3 to 8) (size 9 to 14) (size 15 to 20)
#    0.000    1.412    4.706    0.706    0.000    2.353 
#    2.118    0.000    0.000    0.000    0.000    0.000 
#    0.000    0.000    0.000    0.000    0.000    0.000 
#
# Total GULP energy -189395.177044 kJ/mol
# GULP energy per Si atom -5570.446384 kJ/mol
# Density = 2.760294 g / cm^3
# Si number density = 27.665905 Si / 1000 Ang^3
#
#
#
# Elastic Constant Matrix: (Units=GPa)
#
#
# Indices 1 2 3 4 5 6 
#
# 1 322.9201 21.9048 15.2435 0.0000 0.0000 0.0000
# 2 21.9048 26.7218 -6.6590 0.0000 0.0000 0.0000
# 3 15.2435 -6.6590 157.0463 0.0000 0.0000 0.0000
# 4 0.0000 0.0000 0.0000 -162.0845 0.0000 0.0000
# 5 0.0000 0.0000 0.0000 0.0000 -690.5804 0.0000
# 6 0.0000 0.0000 0.0000 0.0000 0.0000 -23.5472
#
#
#
# Elastic Compliance Matrix: (Units=1/GPa)
#
#
# Indices 1 2 3 4 5 6 
#
# 1 0.003309 -0.002822 -0.000441 0.000000 0.000000 0.000000
# 2 -0.002822 0.040230 0.001980 0.000000 0.000000 0.000000
# 3 -0.000441 0.001980 0.006494 0.000000 0.000000 0.000000
# 4 0.000000 0.000000 0.000000 -0.006170 0.000000 0.000000
# 5 0.000000 0.000000 0.000000 0.000000 -0.001448 0.000000
# 6 0.000000 0.000000 0.000000 0.000000 0.000000 -0.042468
#
#
# Mechanical properties :
#
#
# Convention : Reuss Voigt Hill
#
# Bulk Modulus (GPa) = 21.06779 63.07411 42.07095
# Shear Modulus (GPa) = 272.68574 -143.49581 64.59496
#
# Velocity S-wave (km/s) = 9.93870 -7.20971 4.83724
# Velocity P-wave (km/s) = 11.80404 6.81606 6.81457
#
# Compressibility (1/GPa) = 0.04746583
#
# Stress axis : x y z
#
# Youngs Moduli (GPa) = 302.20583 24.85737 153.98160
#
# Poissons Ratio (x) = 0.07016 0.06788
# Poissons Ratio (y) = 0.85294 -0.30484
# Poissons Ratio (z) = 0.13323 -0.04921
#
# Static dielectric constant tensor:
#      x y z
#    x 2.318110 0.000000 0.000000 
#    y 0.000000 2.356530 0.000000 
#    z 0.000000 0.000000 2.094430 
# 
# From -- ./inp_files/67997.got.cif
#   From: 2010.05.17/outbox.cif.g08.bks.cpg/sg63_34_cif.got.tgz:67997.got - 2010.06.03 15:47:04.
