data_PCOD9471315
_publ_section_title
;
Structure prediction by ZEFSAII (Michael W. Deem and Ramdas Pophale) SiO2 
 PCOD9471315
Probable space group: C M C M
;
_chemical_formula_sum "Si O2"
_cell_formula_units_Z 72
_cell_length_a 13.984739
_cell_length_b 28.842754
_cell_length_c 7.668577
_cell_angle_alpha 90.000000
_cell_angle_beta 90.000000
_cell_angle_gamma 90.000000
_cell_volume 3093.184847
_symmetry_space_group_name_H-M "C M C M"
_symmetry_group_IT_number 63
_symmetry_cell_setting 'orthorhombic'
loop_
_space_group_symop_operation_xyz
x,y,z
-x,-y,1/2+z
x,-y,-z
-x,y,1/2-z
-x,-y,-z
x,y,1/2-z
-x,y,z
x,-y,1/2+z
1/2+x,1/2+y,z
1/2-x,1/2-y,1/2+z
1/2+x,1/2-y,-z
1/2-x,1/2+y,1/2-z
1/2-x,1/2-y,-z
1/2+x,1/2+y,1/2-z
1/2-x,1/2+y,z
1/2+x,1/2-y,1/2+z
loop_
_atom_site_type_symbol
_atom_site_label
_atom_site_fract_x
_atom_site_fract_y
_atom_site_fract_z
Si Si1 0.113813 0.800193 0.551898
Si Si2 0.694717 0.105075 0.957146
Si Si3 0.394088 0.595742 0.550590
Si Si4 0.611207 0.799190 0.463596
Si Si5 0.500000 0.946210 0.954984
O O1 0.149090 0.806702 0.750000
O O2 0.120047 0.848293 0.450816
O O3 0.146070 0.751173 0.473205
O O4 0.000000 0.792058 0.566336
O O5 0.710635 0.109124 0.750000
O O6 0.791770 0.081397 0.029688
O O7 0.672902 0.157090 0.023531
O O8 0.597232 0.076971 0.978355
O O9 0.399354 0.578957 0.750000
O O10 0.500000 0.586725 0.471057
O O11 0.614060 0.797581 0.250000
O O12 0.500000 0.807364 0.512100
O O13 0.500000 0.060186 0.250000
O O14 0.500000 0.000000 0.000000
#
# Coordination Sequence:
#
# PCOD9471315 Si02
#       5
#    16  16  16  16   8
#     4   8  14  25  42  65  98 147 198 239 275 316
#     4  10  19  35  59  81 108 149 187 223 276 336
#     4   9  18  31  48  76 114 154 194 232 270 314
#     4   8  13  24  45  70  98 140 192 233 275 328
#     4  12  26  44  66  92 116 134 166 220 284 350
#
# _framework density 23.276979000000001
#
# number of rings (size 3 to 8) (size 9 to 14) (size 15 to 20)
#    0.000    2.889    1.111    2.333    0.000    1.778 
#    0.000    1.111    0.000    0.667    0.000    0.000 
#    0.000    0.000    0.000    0.000    0.000    0.000 
#
# Total GULP energy -200678.806152 kJ/mol
# GULP energy per Si atom -5574.411282 kJ/mol
# Density = 2.322400 g / cm^3
# Si number density = 23.276979 Si / 1000 Ang^3
#
#
#
# Elastic Constant Matrix: (Units=GPa)
#
#
# Indices 1 2 3 4 5 6 
#
# 1 196.4576 -0.7934 7.2626 0.0000 0.0000 0.0000
# 2 -0.7934 15.4902 -5.8398 0.0000 0.0000 0.0000
# 3 7.2626 -5.8398 55.1678 0.0000 0.0000 0.0000
# 4 0.0000 0.0000 0.0000 15.7968 0.0000 0.0000
# 5 0.0000 0.0000 0.0000 0.0000 7.8039 0.0000
# 6 0.0000 0.0000 0.0000 0.0000 0.0000 -2.9554
#
#
#
# Elastic Compliance Matrix: (Units=1/GPa)
#
#
# Indices 1 2 3 4 5 6 
#
# 1 0.005115 0.000008 -0.000672 0.000000 0.000000 0.000000
# 2 0.000008 0.067240 0.007117 0.000000 0.000000 0.000000
# 3 -0.000672 0.007117 0.018968 0.000000 0.000000 0.000000
# 4 0.000000 0.000000 0.000000 0.063304 0.000000 0.000000
# 5 0.000000 0.000000 0.000000 0.000000 0.128142 0.000000
# 6 0.000000 0.000000 0.000000 0.000000 0.000000 -0.338368
#
#
# Mechanical properties :
#
#
# Convention : Reuss Voigt Hill
#
# Bulk Modulus (GPa) = 9.59429 29.81939 19.70684
# Shear Modulus (GPa) = -148.10103 21.89480 -63.10311
#
# Velocity S-wave (km/s) = -7.98522 3.07028 -5.21234
# Velocity P-wave (km/s) = 8.99375 5.04057 5.26688
#
# Compressibility (1/GPa) = 0.10422869
#
# Stress axis : x y z
#
# Youngs Moduli (GPa) = 195.50147 14.87207 52.71935
#
# Poissons Ratio (x) = -0.00013 0.03545
# Poissons Ratio (y) = -0.00166 -0.37518
# Poissons Ratio (z) = 0.13147 -0.10584
#
# Static dielectric constant tensor:
#      x y z
#    x 2.075200 0.000000 0.000000 
#    y 0.000000 1.862560 0.000000 
#    z 0.000000 0.000000 1.842580 
# 
# From -- ./inp_files/4616.got.cif
#   From: 2010.05.17/outbox.cif.g08.bks.cpg/sg63_3_cif.got.tgz:4616.got - 2010.06.03 15:47:04.
