data_PCOD9471716
_publ_section_title
;
Structure prediction by ZEFSAII (Michael W. Deem and Ramdas Pophale) SiO2 
 PCOD9471716
Probable space group: C M C M
;
_chemical_formula_sum "Si O2"
_cell_formula_units_Z 96
_cell_length_a 9.272906
_cell_length_b 27.624510
_cell_length_c 24.232332
_cell_angle_alpha 90.000000
_cell_angle_beta 90.000000
_cell_angle_gamma 90.000000
_cell_volume 6207.341674
_symmetry_space_group_name_H-M "C M C M"
_symmetry_group_IT_number 63
_symmetry_cell_setting 'orthorhombic'
loop_
_space_group_symop_operation_xyz
x,y,z
-x,-y,1/2+z
x,-y,-z
-x,y,1/2-z
-x,-y,-z
x,y,1/2-z
-x,y,z
x,-y,1/2+z
1/2+x,1/2+y,z
1/2-x,1/2-y,1/2+z
1/2+x,1/2-y,-z
1/2-x,1/2+y,1/2-z
1/2-x,1/2-y,-z
1/2+x,1/2+y,1/2-z
1/2-x,1/2+y,z
1/2+x,1/2-y,1/2+z
loop_
_atom_site_type_symbol
_atom_site_label
_atom_site_fract_x
_atom_site_fract_y
_atom_site_fract_z
Si Si1 0.329571 0.273255 0.917244
Si Si2 0.670552 0.825091 0.483211
Si Si3 0.327249 0.576196 0.527064
Si Si4 0.327660 0.477937 0.912730
Si Si5 0.671892 0.812607 0.814033
Si Si6 0.672866 0.073420 0.186956
O O1 0.500000 0.283769 0.917248
O O2 0.309018 0.218829 0.940034
O O3 0.261120 0.281882 0.857653
O O4 0.248994 0.308129 0.960699
O O5 0.500000 0.830847 0.492983
O O6 0.741471 0.874745 0.463354
O O7 0.500000 0.584247 0.529861
O O8 0.290678 0.532607 0.568874
O O9 0.294462 0.555927 0.465646
O O10 0.500000 0.476020 0.904840
O O11 0.248464 0.458775 0.858938
O O12 0.702453 0.801027 0.750000
O O13 0.500000 0.806491 0.822820
O O14 0.705381 0.869649 0.822293
O O15 0.715631 0.061529 0.250000
O O16 0.500000 0.068373 0.183225
#
# Coordination Sequence:
#
# PCOD9471716 Si02
#       6
#    16  16  16  16  16  16
#     4  10  20  32  47  69  96 124 154 190 231 273
#     4  10  20  32  47  69  95 123 156 191 228 273
#     4   9  18  32  48  68  95 122 149 187 232 273
#     4   9  18  31  47  69  95 121 150 186 228 273
#     4   9  18  32  49  70  96 124 154 189 229 274
#     4   9  18  31  46  67  95 123 151 186 226 267
#
# _framework density 15.465558
#
# number of rings (size 3 to 8) (size 9 to 14) (size 15 to 20)
#    0.000    2.667    0.000    4.000    0.000    7.333 
#    0.000    3.333    0.000    1.000    0.000    0.000 
#    0.000    0.000    0.000    0.000    0.000    0.000 
#
# Total GULP energy -267680.550038 kJ/mol
# GULP energy per Si atom -5576.678126 kJ/mol
# Density = 1.543036 g / cm^3
# Si number density = 15.465558 Si / 1000 Ang^3
#
#
#
# Elastic Constant Matrix: (Units=GPa)
#
#
# Indices 1 2 3 4 5 6 
#
# 1 62.3925 57.2697 62.6311 0.0000 0.0000 0.0000
# 2 57.2697 77.8916 54.2885 0.0000 0.0000 0.0000
# 3 62.6311 54.2885 110.9505 0.0000 0.0000 0.0000
# 4 0.0000 0.0000 0.0000 18.2961 0.0000 0.0000
# 5 0.0000 0.0000 0.0000 0.0000 32.8022 0.0000
# 6 0.0000 0.0000 0.0000 0.0000 0.0000 28.4201
#
#
#
# Elastic Compliance Matrix: (Units=1/GPa)
#
#
# Indices 1 2 3 4 5 6 
#
# 1 0.075600 -0.039214 -0.023488 0.000000 0.000000 0.000000
# 2 -0.039214 0.039823 0.002651 0.000000 0.000000 0.000000
# 3 -0.023488 0.002651 0.020975 0.000000 0.000000 0.000000
# 4 0.000000 0.000000 0.000000 0.054656 0.000000 0.000000
# 5 0.000000 0.000000 0.000000 0.000000 0.030486 0.000000
# 6 0.000000 0.000000 0.000000 0.000000 0.000000 0.035186
#
#
# Mechanical properties :
#
#
# Convention : Reuss Voigt Hill
#
# Bulk Modulus (GPa) = 61.36977 66.62369 63.99673
# Shear Modulus (GPa) = 13.08001 21.04003 17.06002
#
# Velocity S-wave (km/s) = 2.91133 3.69242 3.32489
# Velocity P-wave (km/s) = 7.14625 7.83268 7.49733
#
# Compressibility (1/GPa) = 0.01629467
#
# Stress axis : x y z
#
# Youngs Moduli (GPa) = 13.22746 25.11103 47.67540
#
# Poissons Ratio (x) = 0.98471 1.11982
# Poissons Ratio (y) = 0.51870 -0.12637
# Poissons Ratio (z) = 0.31069 -0.06656
#
# Static dielectric constant tensor:
#      x y z
#    x 1.509140 0.000000 0.000000 
#    y 0.000000 1.503090 0.000000 
#    z 0.000000 0.000000 1.498170 
# 
# From -- ./inp_files/59908.got.cif
#   From: 2010.05.17/outbox.cif.g08.bks.cpg/sg63_30_cif.got.tgz:59908.got - 2010.06.03 15:47:04.
