data_PCOD9472273
_publ_section_title
;
Structure prediction by ZEFSAII (Michael W. Deem and Ramdas Pophale) SiO2 
 PCOD9472273
Probable space group: C M C M
;
_chemical_formula_sum "Si O2"
_cell_formula_units_Z 112
_cell_length_a 13.697771
_cell_length_b 16.092467
_cell_length_c 25.147164
_cell_angle_alpha 90.000000
_cell_angle_beta 90.000000
_cell_angle_gamma 90.000000
_cell_volume 5543.212692
_symmetry_space_group_name_H-M "C M C M"
_symmetry_group_IT_number 63
_symmetry_cell_setting 'orthorhombic'
loop_
_space_group_symop_operation_xyz
x,y,z
-x,-y,1/2+z
x,-y,-z
-x,y,1/2-z
-x,-y,-z
x,y,1/2-z
-x,y,z
x,-y,1/2+z
1/2+x,1/2+y,z
1/2-x,1/2-y,1/2+z
1/2+x,1/2-y,-z
1/2-x,1/2+y,1/2-z
1/2-x,1/2-y,-z
1/2+x,1/2+y,1/2-z
1/2-x,1/2+y,z
1/2+x,1/2-y,1/2+z
loop_
_atom_site_type_symbol
_atom_site_label
_atom_site_fract_x
_atom_site_fract_y
_atom_site_fract_z
Si Si1 0.249631 0.911049 0.985391
Si Si2 0.114584 0.175989 0.096004
Si Si3 0.114807 0.458905 0.887978
Si Si4 0.113474 0.133204 0.814819
Si Si5 0.885733 0.363380 0.082681
Si Si6 0.619074 0.451017 0.811054
Si Si7 0.380779 0.812636 0.689200
O O1 0.175363 0.850291 0.955848
O O2 0.330086 0.935389 0.941583
O O3 0.307913 0.873801 0.035216
O O4 0.201382 0.000000 0.000000
O O5 0.126885 0.273193 0.107828
O O6 0.142749 0.118851 0.146034
O O7 0.000000 0.161430 0.085603
O O8 0.128095 0.557205 0.879133
O O9 0.145843 0.394679 0.842783
O O10 0.000000 0.445554 0.896025
O O11 0.114351 0.135249 0.750000
O O12 0.153926 0.222702 0.832867
O O13 0.000000 0.132023 0.831790
O O14 0.154737 0.042809 0.829358
O O15 0.000000 0.368030 0.063630
O O16 0.650139 0.435615 0.750000
O O17 0.500000 0.455436 0.809291
O O18 0.348967 0.819531 0.750000
O O19 0.500000 0.808270 0.689517
#
# Coordination Sequence:
#
# PCOD9472273 Si02
#       7
#    16  16  16  16  16  16  16
#     4  10  20  35  54  74  98 131 170 217 266 304
#     4  10  20  34  53  77 105 137 170 207 255 308
#     4   9  17  31  52  76  99 129 172 213 252 304
#     4   7  10  19  38  64  95 131 165 196 236 286
#     4   9  18  34  55  76 100 133 173 213 252 302
#     4   8  14  27  47  70  99 136 174 206 238 290
#     4   8  13  23  42  71 105 134 163 208 261 303
#
# _framework density 20.204889999999999
#
# number of rings (size 3 to 8) (size 9 to 14) (size 15 to 20)
#    0.000    3.286    0.000    2.571    0.000    2.000 
#    0.000    5.714    0.000    7.714    0.000    0.000 
#    0.000    0.000    0.000    0.000    0.000    1.571 
#
# Total GULP energy -312081.460765 kJ/mol
# GULP energy per Si atom -5572.883228 kJ/mol
# Density = 2.015890 g / cm^3
# Si number density = 20.204890 Si / 1000 Ang^3
#
#
#
# Elastic Constant Matrix: (Units=GPa)
#
#
# Indices 1 2 3 4 5 6 
#
# 1 81.1388 29.2041 9.5446 0.0000 0.0000 0.0000
# 2 29.2041 206.3047 62.9691 0.0000 0.0000 0.0000
# 3 9.5446 62.9691 49.8994 0.0000 0.0000 0.0000
# 4 0.0000 0.0000 0.0000 31.9194 0.0000 0.0000
# 5 0.0000 0.0000 0.0000 0.0000 -25.7261 0.0000
# 6 0.0000 0.0000 0.0000 0.0000 0.0000 4.8649
#
#
#
# Elastic Compliance Matrix: (Units=1/GPa)
#
#
# Indices 1 2 3 4 5 6 
#
# 1 0.012988 -0.001757 -0.000267 0.000000 0.000000 0.000000
# 2 -0.001757 0.008121 -0.009913 0.000000 0.000000 0.000000
# 3 -0.000267 -0.009913 0.032600 0.000000 0.000000 0.000000
# 4 0.000000 0.000000 0.000000 0.031329 0.000000 0.000000
# 5 0.000000 0.000000 0.000000 0.000000 -0.038871 0.000000
# 6 0.000000 0.000000 0.000000 0.000000 0.000000 0.205553
#
#
# Mechanical properties :
#
#
# Convention : Reuss Voigt Hill
#
# Bulk Modulus (GPa) = 33.51576 60.08651 46.80113
# Shear Modulus (GPa) = 17.51068 17.91998 17.71533
#
# Velocity S-wave (km/s) = 2.94710 2.98134 2.96427
# Velocity P-wave (km/s) = 5.31079 6.45402 5.91011
#
# Compressibility (1/GPa) = 0.02983671
#
# Stress axis : x y z
#
# Youngs Moduli (GPa) = 76.99171 123.13020 30.67455
#
# Poissons Ratio (x) = 0.21635 0.00819
# Poissons Ratio (y) = 0.13528 0.30406
# Poissons Ratio (z) = 0.02056 1.22054
#
# Static dielectric constant tensor:
#      x y z
#    x 1.733610 0.000000 0.000000 
#    y 0.000000 1.767200 0.000000 
#    z 0.000000 0.000000 1.685460 
# 
# From -- ./inp_files/69425.got.cif
#   From: 2010.05.17/outbox.cif.g08.bks.cpg/sg63_35_cif.got.tgz:69425.got - 2010.06.03 15:47:04.
