data_PCOD9472680
_publ_section_title
;
Structure prediction by ZEFSAII (Michael W. Deem and Ramdas Pophale) SiO2 
 PCOD9472680
Probable space group: C M C M
;
_chemical_formula_sum "Si O2"
_cell_formula_units_Z 96
_cell_length_a 22.988417
_cell_length_b 24.348301
_cell_length_c 9.028103
_cell_angle_alpha 90.000000
_cell_angle_beta 90.000000
_cell_angle_gamma 90.000000
_cell_volume 5053.290131
_symmetry_space_group_name_H-M "C M C M"
_symmetry_group_IT_number 63
_symmetry_cell_setting 'orthorhombic'
loop_
_space_group_symop_operation_xyz
x,y,z
-x,-y,1/2+z
x,-y,-z
-x,y,1/2-z
-x,-y,-z
x,y,1/2-z
-x,y,z
x,-y,1/2+z
1/2+x,1/2+y,z
1/2-x,1/2-y,1/2+z
1/2+x,1/2-y,-z
1/2-x,1/2+y,1/2-z
1/2-x,1/2-y,-z
1/2+x,1/2+y,1/2-z
1/2-x,1/2+y,z
1/2+x,1/2-y,1/2+z
loop_
_atom_site_type_symbol
_atom_site_label
_atom_site_fract_x
_atom_site_fract_y
_atom_site_fract_z
Si Si1 0.237881 0.831170 0.576044
Si Si2 0.873450 0.222069 0.926922
Si Si3 0.325948 0.447167 0.921053
Si Si4 0.934062 0.106944 0.927229
Si Si5 0.431868 0.057143 0.927824
Si Si6 0.864094 0.668022 0.928095
O O1 0.242516 0.815962 0.750000
O O2 0.189438 0.794162 0.495001
O O3 0.213591 0.893252 0.567034
O O4 0.299481 0.830348 0.495631
O O5 0.868938 0.228837 0.750000
O O6 0.914725 0.169851 0.957669
O O7 0.894178 0.277939 0.003684
O O8 0.335341 0.459675 0.750000
O O9 0.299609 0.500000 0.000000
O O10 0.387082 0.431756 0.996263
O O11 0.930719 0.099586 0.750000
O O12 0.000000 0.097175 0.975914
O O13 0.428464 0.051892 0.750000
O O14 0.500000 0.064622 0.967862
O O15 0.395690 0.111183 0.970368
O O16 0.411555 0.000000 0.000000
O O17 0.862492 0.671674 0.750000
#
# Coordination Sequence:
#
# PCOD9472680 Si02
#       6
#    16  16  16  16  16  16
#     4  10  21  37  55  77 107 141 178 219 264 312
#     4  10  20  35  55  79 109 142 176 217 264 311
#     4  10  21  36  55  78 105 140 179 220 266 314
#     4   9  19  36  56  78 106 140 178 221 266 310
#     4   9  20  39  59  79 106 139 174 215 262 310
#     4  11  22  35  55  82 109 139 175 213 259 316
#
# _framework density 18.997523999999999
#
# number of rings (size 3 to 8) (size 9 to 14) (size 15 to 20)
#    0.000    2.167    0.000    2.500    0.000    6.000 
#    0.000    3.333    0.000    0.000    0.000    0.000 
#    0.000    0.000    0.000    0.000    0.000    0.000 
#
# Total GULP energy -268074.691364 kJ/mol
# GULP energy per Si atom -5584.889403 kJ/mol
# Density = 1.895428 g / cm^3
# Si number density = 18.997524 Si / 1000 Ang^3
#
#
#
# Elastic Constant Matrix: (Units=GPa)
#
#
# Indices 1 2 3 4 5 6 
#
# 1 15.7503 -3.2268 6.7271 0.0000 0.0000 0.0000
# 2 -3.2268 105.8438 40.4140 0.0000 0.0000 0.0000
# 3 6.7271 40.4140 61.8691 0.0000 0.0000 0.0000
# 4 0.0000 0.0000 0.0000 38.5669 0.0000 0.0000
# 5 0.0000 0.0000 0.0000 0.0000 22.1764 0.0000
# 6 0.0000 0.0000 0.0000 0.0000 0.0000 9.8119
#
#
#
# Elastic Compliance Matrix: (Units=1/GPa)
#
#
# Indices 1 2 3 4 5 6 
#
# 1 0.069990 0.006714 -0.011996 0.000000 0.000000 0.000000
# 2 0.006714 0.013231 -0.009373 0.000000 0.000000 0.000000
# 3 -0.011996 -0.009373 0.023590 0.000000 0.000000 0.000000
# 4 0.000000 0.000000 0.000000 0.025929 0.000000 0.000000
# 5 0.000000 0.000000 0.000000 0.000000 0.045093 0.000000
# 6 0.000000 0.000000 0.000000 0.000000 0.000000 0.101917
#
#
# Mechanical properties :
#
#
# Convention : Reuss Voigt Hill
#
# Bulk Modulus (GPa) = 12.90290 30.14354 21.52322
# Shear Modulus (GPa) = 14.93008 23.41429 19.17218
#
# Velocity S-wave (km/s) = 2.80642 3.51449 3.18023
# Velocity P-wave (km/s) = 4.16029 5.68950 4.98390
#
# Compressibility (1/GPa) = 0.07750193
#
# Stress axis : x y z
#
# Youngs Moduli (GPa) = 14.28776 75.57759 42.39070
#
# Poissons Ratio (x) = -0.50743 0.50851
# Poissons Ratio (y) = -0.09593 0.39733
# Poissons Ratio (z) = 0.17139 0.70839
#
# Static dielectric constant tensor:
#      x y z
#    x 1.639770 0.000000 0.000000 
#    y 0.000000 1.676670 0.000000 
#    z 0.000000 0.000000 1.635060 
# 
# From -- ./inp_files/10481.got.cif
#   From: 2010.05.17/outbox.cif.g08.bks.cpg/sg63_6_cif.got.tgz:10481.got - 2010.06.03 15:47:04.
