data_PCOD9472481
_publ_section_title
;
Structure prediction by ZEFSAII (Michael W. Deem and Ramdas Pophale) SiO2 
 PCOD9472481
Probable space group: C M C M
;
_chemical_formula_sum "Si O2"
_cell_formula_units_Z 88
_cell_length_a 27.799281
_cell_length_b 19.957894
_cell_length_c 7.646228
_cell_angle_alpha 90.000000
_cell_angle_beta 90.000000
_cell_angle_gamma 90.000000
_cell_volume 4242.242779
_symmetry_space_group_name_H-M "C M C M"
_symmetry_group_IT_number 63
_symmetry_cell_setting 'orthorhombic'
loop_
_space_group_symop_operation_xyz
x,y,z
-x,-y,1/2+z
x,-y,-z
-x,y,1/2-z
-x,-y,-z
x,y,1/2-z
-x,y,z
x,-y,1/2+z
1/2+x,1/2+y,z
1/2-x,1/2-y,1/2+z
1/2+x,1/2-y,-z
1/2-x,1/2+y,1/2-z
1/2-x,1/2-y,-z
1/2+x,1/2+y,1/2-z
1/2-x,1/2+y,z
1/2+x,1/2-y,1/2+z
loop_
_atom_site_type_symbol
_atom_site_label
_atom_site_fract_x
_atom_site_fract_y
_atom_site_fract_z
Si Si1 0.886008 0.301037 0.954690
Si Si2 0.554923 0.073391 0.460278
Si Si3 0.598103 0.650099 0.535058
Si Si4 0.223868 0.680263 0.541354
Si Si5 0.303988 0.578125 0.540202
Si Si6 0.000000 0.078791 0.959822
O O1 0.898894 0.296966 0.750000
O O2 0.915433 0.363563 0.029949
O O3 0.897492 0.227077 0.025645
O O4 0.829604 0.316554 0.967377
O O5 0.553376 0.078159 0.250000
O O6 0.500000 0.075108 0.526284
O O7 0.575752 0.000000 0.500000
O O8 0.598390 0.649845 0.750000
O O9 0.645622 0.609770 0.477341
O O10 0.548870 0.614572 0.477146
O O11 0.219252 0.673825 0.750000
O O12 0.250000 0.750000 0.500000
O O13 0.258404 0.620855 0.474862
O O14 0.300789 0.500000 0.500000
O O15 0.304207 0.585885 0.750000
O O16 0.000000 0.085654 0.750000
O O17 0.000000 0.000000 0.000000
#
# Coordination Sequence:
#
# PCOD9472481 Si02
#       6
#    16  16  16  16  16   8
#     4  10  20  36  58  83 112 144 187 233 276 330
#     4   9  19  35  57  83 112 149 187 228 279 334
#     4   9  18  34  55  81 110 142 181 226 271 318
#     4  11  22  38  58  81 111 146 185 228 279 329
#     4  10  21  37  56  80 110 143 181 223 269 325
#     4  10  20  34  56  80 109 146 180 224 273 320
#
# _framework density 20.743744
#
# number of rings (size 3 to 8) (size 9 to 14) (size 15 to 20)
#    0.000    2.182    1.818    1.091    1.273    2.909 
#    0.000    4.545    0.000    0.000    0.000    0.000 
#    0.000    0.000    0.000    0.000    0.000    0.000 
#
# Total GULP energy -245710.283331 kJ/mol
# GULP energy per Si atom -5584.324621 kJ/mol
# Density = 2.069653 g / cm^3
# Si number density = 20.743744 Si / 1000 Ang^3
#
#
#
# Elastic Constant Matrix: (Units=GPa)
#
#
# Indices 1 2 3 4 5 6 
#
# 1 132.6048 116.2814 -10.3869 0.0000 0.0000 0.0000
# 2 116.2814 235.3750 -5.2426 0.0000 0.0000 0.0000
# 3 -10.3869 -5.2426 36.6820 0.0000 0.0000 0.0000
# 4 0.0000 0.0000 0.0000 24.6248 0.0000 0.0000
# 5 0.0000 0.0000 0.0000 0.0000 16.7515 0.0000
# 6 0.0000 0.0000 0.0000 0.0000 0.0000 43.1781
#
#
#
# Elastic Compliance Matrix: (Units=1/GPa)
#
#
# Indices 1 2 3 4 5 6 
#
# 1 0.013606 -0.006657 0.002901 0.000000 0.000000 0.000000
# 2 -0.006657 0.007519 -0.000810 0.000000 0.000000 0.000000
# 3 0.002901 -0.000810 0.027967 0.000000 0.000000 0.000000
# 4 0.000000 0.000000 0.000000 0.040610 0.000000 0.000000
# 5 0.000000 0.000000 0.000000 0.000000 0.059696 0.000000
# 6 0.000000 0.000000 0.000000 0.000000 0.000000 0.023160
#
#
# Mechanical properties :
#
#
# Convention : Reuss Voigt Hill
#
# Bulk Modulus (GPa) = 25.02504 67.32952 46.17728
# Shear Modulus (GPa) = 25.63964 37.17820 31.40892
#
# Velocity S-wave (km/s) = 3.51952 4.23810 3.89542
# Velocity P-wave (km/s) = 5.34847 7.51511 6.52238
#
# Compressibility (1/GPa) = 0.03995997
#
# Stress axis : x y z
#
# Youngs Moduli (GPa) = 73.49616 132.99099 35.75634
#
# Poissons Ratio (x) = 0.88534 -0.10374
# Poissons Ratio (y) = 0.48928 0.02898
# Poissons Ratio (z) = -0.21323 0.10778
#
# Static dielectric constant tensor:
#      x y z
#    x 1.726650 0.000000 0.000000 
#    y 0.000000 1.717410 0.000000 
#    z 0.000000 0.000000 1.805100 
# 
# From -- ./inp_files/14241.got.cif
#   From: 2010.05.17/outbox.cif.g08.bks.cpg/sg63_8_cif.got.tgz:14241.got - 2010.06.03 15:47:04.
