data_PCOD9472799
_publ_section_title
;
Structure prediction by ZEFSAII (Michael W. Deem and Ramdas Pophale) SiO2 
 PCOD9472799
Probable space group: C M C M
;
_chemical_formula_sum "Si O2"
_cell_formula_units_Z 64
_cell_length_a 24.658620
_cell_length_b 5.247795
_cell_length_c 21.853739
_cell_angle_alpha 90.000000
_cell_angle_beta 90.000000
_cell_angle_gamma 90.000000
_cell_volume 2827.947752
_symmetry_space_group_name_H-M "C M C M"
_symmetry_group_IT_number 63
_symmetry_cell_setting 'orthorhombic'
loop_
_space_group_symop_operation_xyz
x,y,z
-x,-y,1/2+z
x,-y,-z
-x,y,1/2-z
-x,-y,-z
x,y,1/2-z
-x,y,z
x,-y,1/2+z
1/2+x,1/2+y,z
1/2-x,1/2-y,1/2+z
1/2+x,1/2-y,-z
1/2-x,1/2+y,1/2-z
1/2-x,1/2-y,-z
1/2+x,1/2+y,1/2-z
1/2-x,1/2+y,z
1/2+x,1/2-y,1/2+z
loop_
_atom_site_type_symbol
_atom_site_label
_atom_site_fract_x
_atom_site_fract_y
_atom_site_fract_z
Si Si1 0.618407 0.280775 0.181072
Si Si2 0.729407 0.929163 0.432754
Si Si3 0.000000 0.696253 0.315155
Si Si4 0.500000 0.852257 0.064326
Si Si5 0.618114 0.759855 0.104419
O O1 0.640871 0.281154 0.250000
O O2 0.554548 0.355783 0.185385
O O3 0.638267 0.502100 0.136632
O O4 0.616781 0.995799 0.152972
O O5 0.738765 0.199888 0.400726
O O6 0.752291 0.000000 0.500000
O O7 0.666946 0.850193 0.438898
O O8 0.000000 0.545860 0.250000
O O9 0.000000 0.537539 0.377032
O O10 0.559379 0.720531 0.072087
O O11 0.500000 0.000000 0.000000
#
# Coordination Sequence:
#
# PCOD9472799 Si02
#       5
#    16  16   8   8  16
#     4  10  20  35  57  83 114 152 197 238 279 342
#     4  10  21  38  60  83 109 149 198 239 279 343
#     4   8  17  34  54  80 115 162 204 232 274 348
#     4  10  21  36  57  92 128 154 184 240 310 358
#     4  11  21  37  59  86 118 152 186 237 297 350
#
# _framework density 22.631250999999999
#
# number of rings (size 3 to 8) (size 9 to 14) (size 15 to 20)
#    0.000    2.000    0.000    3.750    0.000    1.000 
#    0.000   18.750    0.000   15.000    0.000    0.000 
#    0.000    0.000    0.000    0.000    0.000    0.000 
#
# Total GULP energy -178149.792311 kJ/mol
# GULP energy per Si atom -5567.181010 kJ/mol
# Density = 2.257974 g / cm^3
# Si number density = 22.631251 Si / 1000 Ang^3
#
#
#
# Elastic Constant Matrix: (Units=GPa)
#
#
# Indices 1 2 3 4 5 6 
#
# 1 110.7082 25.6195 5.5987 0.0000 0.0000 0.0000
# 2 25.6195 100.6448 2.1586 0.0000 0.0000 0.0000
# 3 5.5987 2.1586 78.8541 0.0000 0.0000 0.0000
# 4 0.0000 0.0000 0.0000 25.6900 0.0000 0.0000
# 5 0.0000 0.0000 0.0000 0.0000 12.6613 0.0000
# 6 0.0000 0.0000 0.0000 0.0000 0.0000 23.7967
#
#
#
# Elastic Compliance Matrix: (Units=1/GPa)
#
#
# Indices 1 2 3 4 5 6 
#
# 1 0.009628 -0.002438 -0.000617 0.000000 0.000000 0.000000
# 2 -0.002438 0.010559 -0.000116 0.000000 0.000000 0.000000
# 3 -0.000617 -0.000116 0.012729 0.000000 0.000000 0.000000
# 4 0.000000 0.000000 0.000000 0.038926 0.000000 0.000000
# 5 0.000000 0.000000 0.000000 0.000000 0.078981 0.000000
# 6 0.000000 0.000000 0.000000 0.000000 0.000000 0.042023
#
#
# Mechanical properties :
#
#
# Convention : Reuss Voigt Hill
#
# Bulk Modulus (GPa) = 37.62984 39.66231 38.64607
# Shear Modulus (GPa) = 24.03340 29.55161 26.79250
#
# Velocity S-wave (km/s) = 3.26230 3.61749 3.44448
# Velocity P-wave (km/s) = 5.55460 5.91708 5.73870
#
# Compressibility (1/GPa) = 0.02657466
#
# Stress axis : x y z
#
# Youngs Moduli (GPa) = 103.86314 94.70659 78.56306
#
# Poissons Ratio (x) = 0.23086 0.04846
# Poissons Ratio (y) = 0.25318 0.00911
# Poissons Ratio (z) = 0.06407 0.01098
#
# Static dielectric constant tensor:
#      x y z
#    x 1.900620 0.000000 0.000000 
#    y 0.000000 2.008090 0.000000 
#    z 0.000000 0.000000 1.864840 
# 
# From -- ./inp_files/64855.got.cif
#   From: 2010.05.17/outbox.cif.g08.bks.cpg/sg63_33_cif.got.tgz:64855.got - 2010.06.03 15:47:04.
