data_PCOD9472608
_publ_section_title
;
Structure prediction by ZEFSAII (Michael W. Deem and Ramdas Pophale) SiO2 
 PCOD9472608
Probable space group: C M C M
;
_chemical_formula_sum "Si O2"
_cell_formula_units_Z 116
_cell_length_a 27.725941
_cell_length_b 27.497172
_cell_length_c 7.810232
_cell_angle_alpha 90.000000
_cell_angle_beta 90.000000
_cell_angle_gamma 90.000000
_cell_volume 5954.403478
_symmetry_space_group_name_H-M "C M C M"
_symmetry_group_IT_number 63
_symmetry_cell_setting 'orthorhombic'
loop_
_space_group_symop_operation_xyz
x,y,z
-x,-y,1/2+z
x,-y,-z
-x,y,1/2-z
-x,-y,-z
x,y,1/2-z
-x,y,z
x,-y,1/2+z
1/2+x,1/2+y,z
1/2-x,1/2-y,1/2+z
1/2+x,1/2-y,-z
1/2-x,1/2+y,1/2-z
1/2-x,1/2-y,-z
1/2+x,1/2+y,1/2-z
1/2-x,1/2+y,z
1/2+x,1/2-y,1/2+z
loop_
_atom_site_type_symbol
_atom_site_label
_atom_site_fract_x
_atom_site_fract_y
_atom_site_fract_z
Si Si1 0.304556 0.262483 0.954134
Si Si2 0.148848 0.136090 0.949282
Si Si3 0.401054 0.212893 0.541759
Si Si4 0.000000 0.582515 0.750000
Si Si5 0.279007 0.556192 0.543430
Si Si6 0.170826 0.556682 0.544766
Si Si7 0.053069 0.814655 0.953843
Si Si8 0.073561 0.393678 0.942279
O O1 0.308634 0.266974 0.750000
O O2 0.344959 0.222551 0.005106
O O3 0.250000 0.250000 0.000000
O O4 0.321077 0.314074 0.029192
O O5 0.143063 0.125980 0.750000
O O6 0.180160 0.092251 0.025642
O O7 0.095510 0.147018 0.016248
O O8 0.404035 0.208757 0.750000
O O9 0.428845 0.261709 0.484849
O O10 0.423872 0.164557 0.465814
O O11 0.958289 0.585176 0.596840
O O12 0.287733 0.500000 0.500000
O O13 0.278033 0.560207 0.750000
O O14 0.224911 0.569791 0.484519
O O15 0.163856 0.500000 0.500000
O O16 0.168778 0.562776 0.750000
O O17 0.128023 0.587158 0.463753
O O18 0.049568 0.809570 0.750000
O O19 0.000000 0.826753 0.022078
O O20 0.056820 0.405992 0.750000
#
# Coordination Sequence:
#
# PCOD9472608 Si02
#       8
#    16  16  16   4  16  16  16  16
#     4  10  21  35  53  78 116 158 195 236 290 345
#     4  10  20  35  53  82 120 151 192 240 289 348
#     4   9  19  36  56  79 116 156 194 248 299 341
#     4  12  26  48  62  86 126 152 192 268 296 344
#     4   9  20  36  60  89 118 155 189 237 301 351
#     4  10  20  40  64  88 120 150 190 245 297 361
#     4   9  19  35  58  82 112 157 198 239 295 342
#     4  12  25  41  66  91 115 157 202 243 310 365
#
# _framework density 19.481380000000001
#
# number of rings (size 3 to 8) (size 9 to 14) (size 15 to 20)
#    0.000    2.069    1.379    2.276    2.897    4.690 
#    0.000    0.345    0.000    0.414    0.000    0.000 
#    0.000    0.000    0.000    0.000    0.000    0.000 
#
# Total GULP energy -323189.762924 kJ/mol
# GULP energy per Si atom -5572.237292 kJ/mol
# Density = 1.943704 g / cm^3
# Si number density = 19.481380 Si / 1000 Ang^3
#
#
#
# Elastic Constant Matrix: (Units=GPa)
#
#
# Indices 1 2 3 4 5 6 
#
# 1 156.4591 45.3184 22.9111 0.0000 0.0000 0.0000
# 2 45.3184 36.5147 3.0324 0.0000 0.0000 0.0000
# 3 22.9111 3.0324 75.0911 0.0000 0.0000 0.0000
# 4 0.0000 0.0000 0.0000 22.2280 0.0000 0.0000
# 5 0.0000 0.0000 0.0000 0.0000 15.8486 0.0000
# 6 0.0000 0.0000 0.0000 0.0000 0.0000 4.7641
#
#
#
# Elastic Compliance Matrix: (Units=1/GPa)
#
#
# Indices 1 2 3 4 5 6 
#
# 1 0.010491 -0.012798 -0.002684 0.000000 0.000000 0.000000
# 2 -0.012798 0.043090 0.002165 0.000000 0.000000 0.000000
# 3 -0.002684 0.002165 0.014049 0.000000 0.000000 0.000000
# 4 0.000000 0.000000 0.000000 0.044988 0.000000 0.000000
# 5 0.000000 0.000000 0.000000 0.000000 0.063097 0.000000
# 6 0.000000 0.000000 0.000000 0.000000 0.000000 0.209904
#
#
# Mechanical properties :
#
#
# Convention : Reuss Voigt Hill
#
# Bulk Modulus (GPa) = 24.39312 45.62097 35.00705
# Shear Modulus (GPa) = 11.73930 21.68834 16.71382
#
# Velocity S-wave (km/s) = 2.45744 3.34021 2.93224
# Velocity P-wave (km/s) = 4.53877 6.19230 5.42886
#
# Compressibility (1/GPa) = 0.04099517
#
# Stress axis : x y z
#
# Youngs Moduli (GPa) = 95.31558 23.20718 71.18082
#
# Poissons Ratio (x) = 0.29701 0.19107
# Poissons Ratio (y) = 1.21985 -0.15409
# Poissons Ratio (z) = 0.25585 -0.05024
#
# Static dielectric constant tensor:
#      x y z
#    x 1.698930 0.000000 0.000000 
#    y 0.000000 1.663800 0.000000 
#    z 0.000000 0.000000 1.711640 
# 
# From -- ./inp_files/12953.got.cif
#   From: 2010.05.17/outbox.cif.g08.bks.cpg/sg63_7_cif.got.tgz:12953.got - 2010.06.03 15:47:04.
