data_PCOD9472421
_publ_section_title
;
Structure prediction by ZEFSAII (Michael W. Deem and Ramdas Pophale) SiO2 
 PCOD9472421
Probable space group: C M C M
;
_chemical_formula_sum "Si O2"
_cell_formula_units_Z 96
_cell_length_a 11.764753
_cell_length_b 19.257632
_cell_length_c 18.401726
_cell_angle_alpha 90.000000
_cell_angle_beta 90.000000
_cell_angle_gamma 90.000000
_cell_volume 4169.118668
_symmetry_space_group_name_H-M "C M C M"
_symmetry_group_IT_number 63
_symmetry_cell_setting 'orthorhombic'
loop_
_space_group_symop_operation_xyz
x,y,z
-x,-y,1/2+z
x,-y,-z
-x,y,1/2-z
-x,-y,-z
x,y,1/2-z
-x,y,z
x,-y,1/2+z
1/2+x,1/2+y,z
1/2-x,1/2-y,1/2+z
1/2+x,1/2-y,-z
1/2-x,1/2+y,1/2-z
1/2-x,1/2-y,-z
1/2+x,1/2+y,1/2-z
1/2-x,1/2+y,z
1/2+x,1/2-y,1/2+z
loop_
_atom_site_type_symbol
_atom_site_label
_atom_site_fract_x
_atom_site_fract_y
_atom_site_fract_z
Si Si1 0.746450 0.899908 0.835978
Si Si2 0.869225 0.136207 0.831505
Si Si3 0.835658 0.546264 0.832579
Si Si4 0.624123 0.577525 0.029502
Si Si5 0.868399 0.269121 0.588498
Si Si6 0.126528 0.627478 0.974284
O O1 0.765771 0.898259 0.750000
O O2 0.857203 0.914466 0.884455
O O3 0.694053 0.828143 0.865075
O O4 0.659974 0.964876 0.850406
O O5 0.856155 0.166262 0.750000
O O6 0.797234 0.066713 0.833425
O O7 0.826881 0.193160 0.888952
O O8 0.000000 0.120238 0.843410
O O9 0.875321 0.557632 0.750000
O O10 0.881585 0.599462 0.892205
O O11 0.500000 0.611450 0.010371
O O12 0.615179 0.500000 0.000000
O O13 0.751577 0.598408 0.001736
O O14 0.865997 0.293141 0.504254
O O15 0.000000 0.268554 0.611472
O O16 0.000000 0.605372 0.005437
#
# Coordination Sequence:
#
# PCOD9472421 Si02
#       6
#    16  16  16  16  16  16
#     4  10  20  34  54  85 119 154 195 245 299 357
#     4   9  18  34  56  82 115 155 197 245 302 361
#     4  10  21  35  52  82 119 158 197 244 301 361
#     4  10  20  36  56  81 116 156 194 240 298 355
#     4   9  19  35  58  86 116 154 201 251 300 356
#     4  10  21  37  58  84 117 157 200 248 300 358
#
# _framework density 23.026450000000001
#
# number of rings (size 3 to 8) (size 9 to 14) (size 15 to 20)
#    0.000    2.333    1.667    0.500    0.000    4.667 
#    0.000    3.333    0.000    4.000    0.000    4.667 
#    0.000    0.000    0.000    0.000    0.000    0.000 
#
# Total GULP energy -267250.965089 kJ/mol
# GULP energy per Si atom -5567.728439 kJ/mol
# Density = 2.297404 g / cm^3
# Si number density = 23.026450 Si / 1000 Ang^3
#
#
#
# Elastic Constant Matrix: (Units=GPa)
#
#
# Indices 1 2 3 4 5 6 
#
# 1 147.3661 30.8540 25.4066 0.0000 0.0000 0.0000
# 2 30.8540 64.3868 9.7346 0.0000 0.0000 0.0000
# 3 25.4066 9.7346 126.0773 0.0000 0.0000 0.0000
# 4 0.0000 0.0000 0.0000 34.2490 0.0000 0.0000
# 5 0.0000 0.0000 0.0000 0.0000 17.2263 0.0000
# 6 0.0000 0.0000 0.0000 0.0000 0.0000 10.7538
#
#
#
# Elastic Compliance Matrix: (Units=1/GPa)
#
#
# Indices 1 2 3 4 5 6 
#
# 1 0.007744 -0.003516 -0.001289 0.000000 0.000000 0.000000
# 2 -0.003516 0.017311 -0.000628 0.000000 0.000000 0.000000
# 3 -0.001289 -0.000628 0.008240 0.000000 0.000000 0.000000
# 4 0.000000 0.000000 0.000000 0.029198 0.000000 0.000000
# 5 0.000000 0.000000 0.000000 0.000000 0.058051 0.000000
# 6 0.000000 0.000000 0.000000 0.000000 0.000000 0.092990
#
#
# Mechanical properties :
#
#
# Convention : Reuss Voigt Hill
#
# Bulk Modulus (GPa) = 44.58593 52.20229 48.39411
# Shear Modulus (GPa) = 21.56319 30.56815 26.06567
#
# Velocity S-wave (km/s) = 3.06347 3.64747 3.36815
# Velocity P-wave (km/s) = 5.64961 6.36070 6.01567
#
# Compressibility (1/GPa) = 0.02242860
#
# Stress axis : x y z
#
# Youngs Moduli (GPa) = 129.12819 57.76675 121.36051
#
# Poissons Ratio (x) = 0.20311 0.15645
# Poissons Ratio (y) = 0.45403 0.07622
# Poissons Ratio (z) = 0.16646 0.03628
#
# Static dielectric constant tensor:
#      x y z
#    x 1.895850 0.000000 0.000000 
#    y 0.000000 1.832900 0.000000 
#    z 0.000000 0.000000 1.964830 
# 
# From -- ./inp_files/52850.got.cif
#   From: 2010.05.17/outbox.cif.g08.bks.cpg/sg63_27_cif.got.tgz:52850.got - 2010.06.03 15:47:04.
