data_PCOD9472789
_publ_section_title
;
Structure prediction by ZEFSAII (Michael W. Deem and Ramdas Pophale) SiO2 
 PCOD9472789
Probable space group: C M C M
;
_chemical_formula_sum "Si O2"
_cell_formula_units_Z 112
_cell_length_a 23.358850
_cell_length_b 15.109885
_cell_length_c 16.260019
_cell_angle_alpha 90.000000
_cell_angle_beta 90.000000
_cell_angle_gamma 90.000000
_cell_volume 5738.966181
_symmetry_space_group_name_H-M "C M C M"
_symmetry_group_IT_number 63
_symmetry_cell_setting 'orthorhombic'
loop_
_space_group_symop_operation_xyz
x,y,z
-x,-y,1/2+z
x,-y,-z
-x,y,1/2-z
-x,-y,-z
x,y,1/2-z
-x,y,z
x,-y,1/2+z
1/2+x,1/2+y,z
1/2-x,1/2-y,1/2+z
1/2+x,1/2-y,-z
1/2-x,1/2+y,1/2-z
1/2-x,1/2-y,-z
1/2+x,1/2+y,1/2-z
1/2-x,1/2+y,z
1/2+x,1/2-y,1/2+z
loop_
_atom_site_type_symbol
_atom_site_label
_atom_site_fract_x
_atom_site_fract_y
_atom_site_fract_z
Si Si1 0.258033 0.402192 0.965749
Si Si2 0.432483 0.655106 0.450724
Si Si3 0.358056 0.456650 0.656043
Si Si4 0.344686 0.348442 0.402254
Si Si5 0.567831 0.986722 0.902074
Si Si6 0.930454 0.679269 0.658292
Si Si7 0.658696 0.845379 0.655918
O O1 0.308575 0.412944 0.899035
O O2 0.204912 0.365630 0.915169
O O3 0.244003 0.500000 0.000000
O O4 0.286315 0.350002 0.042463
O O5 0.500000 0.657954 0.465092
O O6 0.415697 0.576289 0.388556
O O7 0.396625 0.644961 0.533109
O O8 0.413306 0.746980 0.407251
O O9 0.356794 0.428361 0.750000
O O10 0.347706 0.561360 0.648957
O O11 0.351459 0.259290 0.351429
O O12 0.500000 0.974632 0.885612
O O13 0.603910 0.905287 0.867186
O O14 0.587609 0.079614 0.862421
O O15 0.574622 0.000000 0.000000
O O16 0.911608 0.703809 0.750000
O O17 0.000000 0.678558 0.657299
O O18 0.676675 0.866854 0.750000
#
# Coordination Sequence:
#
# PCOD9472789 Si02
#       7
#    16  16  16  16  16  16  16
#     4   9  20  39  61  81 105 143 188 232 276 325
#     4  10  20  35  57  82 107 144 192 232 271 325
#     4  10  20  37  58  82 113 143 178 229 286 330
#     4  10  22  38  56  79 113 152 182 221 276 336
#     4  10  21  37  56  79 112 152 185 218 268 329
#     4   9  17  31  51  76 106 137 174 225 275 311
#     4  12  23  36  58  86 114 145 185 228 273 330
#
# _framework density 19.515709999999999
#
# number of rings (size 3 to 8) (size 9 to 14) (size 15 to 20)
#    0.000    2.000    0.000    4.714    0.000    4.571 
#    0.000    1.429    0.000    2.571    0.000    0.000 
#    0.000    0.000    0.000    0.000    0.000    0.000 
#
# Total GULP energy -312590.162685 kJ/mol
# GULP energy per Si atom -5581.967191 kJ/mol
# Density = 1.947129 g / cm^3
# Si number density = 19.515710 Si / 1000 Ang^3
#
#
#
# Elastic Constant Matrix: (Units=GPa)
#
#
# Indices 1 2 3 4 5 6 
#
# 1 45.5147 25.3615 7.0712 0.0000 0.0000 0.0000
# 2 25.3615 62.0029 10.8041 0.0000 0.0000 0.0000
# 3 7.0712 10.8041 70.5314 0.0000 0.0000 0.0000
# 4 0.0000 0.0000 0.0000 24.3902 0.0000 0.0000
# 5 0.0000 0.0000 0.0000 0.0000 4.3257 0.0000
# 6 0.0000 0.0000 0.0000 0.0000 0.0000 16.1043
#
#
#
# Elastic Compliance Matrix: (Units=1/GPa)
#
#
# Indices 1 2 3 4 5 6 
#
# 1 0.028540 -0.011482 -0.001103 0.000000 0.000000 0.000000
# 2 -0.011482 0.021190 -0.002095 0.000000 0.000000 0.000000
# 3 -0.001103 -0.002095 0.014610 0.000000 0.000000 0.000000
# 4 0.000000 0.000000 0.000000 0.041000 0.000000 0.000000
# 5 0.000000 0.000000 0.000000 0.000000 0.231175 0.000000
# 6 0.000000 0.000000 0.000000 0.000000 0.000000 0.062095
#
#
# Mechanical properties :
#
#
# Convention : Reuss Voigt Hill
#
# Bulk Modulus (GPa) = 28.58681 29.39139 28.98910
# Shear Modulus (GPa) = 11.37325 17.95151 14.66238
#
# Velocity S-wave (km/s) = 2.41669 3.03619 2.74398
# Velocity P-wave (km/s) = 4.73995 5.23301 4.99257
#
# Compressibility (1/GPa) = 0.03498116
#
# Stress axis : x y z
#
# Youngs Moduli (GPa) = 35.03846 47.19259 68.44858
#
# Poissons Ratio (x) = 0.54186 0.07547
# Poissons Ratio (y) = 0.40231 0.14338
# Poissons Ratio (z) = 0.03863 0.09886
#
# Static dielectric constant tensor:
#      x y z
#    x 1.683300 0.000000 0.000000 
#    y 0.000000 1.690270 0.000000 
#    z 0.000000 0.000000 1.916960 
# 
# From -- ./inp_files/36927.got.cif
#   From: 2010.05.17/outbox.cif.g08.bks.cpg/sg63_19_cif.got.tgz:36927.got - 2010.06.03 15:47:04.
