data_PCOD9472768
_publ_section_title
;
Structure prediction by ZEFSAII (Michael W. Deem and Ramdas Pophale) SiO2 
 PCOD9472768
Probable space group: C M C M
;
_chemical_formula_sum "Si O2"
_cell_formula_units_Z 96
_cell_length_a 18.432938
_cell_length_b 14.615073
_cell_length_c 14.953333
_cell_angle_alpha 90.000000
_cell_angle_beta 90.000000
_cell_angle_gamma 90.000000
_cell_volume 4028.408986
_symmetry_space_group_name_H-M "C M C M"
_symmetry_group_IT_number 63
_symmetry_cell_setting 'orthorhombic'
loop_
_space_group_symop_operation_xyz
x,y,z
-x,-y,1/2+z
x,-y,-z
-x,y,1/2-z
-x,-y,-z
x,y,1/2-z
-x,y,z
x,-y,1/2+z
1/2+x,1/2+y,z
1/2-x,1/2-y,1/2+z
1/2+x,1/2-y,-z
1/2-x,1/2+y,1/2-z
1/2-x,1/2-y,-z
1/2+x,1/2+y,1/2-z
1/2-x,1/2+y,z
1/2+x,1/2-y,1/2+z
loop_
_atom_site_type_symbol
_atom_site_label
_atom_site_fract_x
_atom_site_fract_y
_atom_site_fract_z
Si Si1 0.922193 0.675786 0.051901
Si Si2 0.898998 0.271046 0.346970
Si Si3 0.290534 0.928187 0.855023
Si Si4 0.107260 0.121941 0.583873
Si Si5 0.260325 0.129435 0.850362
Si Si6 0.615442 0.427220 0.616288
O O1 0.849022 0.625747 0.085287
O O2 0.922017 0.776787 0.097799
O O3 0.000000 0.630606 0.074996
O O4 0.922301 0.691048 0.943829
O O5 0.919317 0.314078 0.250000
O O6 0.812318 0.284803 0.353220
O O7 0.914254 0.163980 0.339634
O O8 0.299241 0.903075 0.750000
O O9 0.204022 0.923828 0.876825
O O10 0.305660 0.037055 0.865368
O O11 0.194032 0.135025 0.584152
O O12 0.089867 0.091458 0.484277
O O13 0.092747 0.030534 0.641684
O O14 0.229244 0.122326 0.750000
#
# Coordination Sequence:
#
# PCOD9472768 Si02
#       6
#    16  16  16  16  16  16
#     4  11  24  39  56  81 118 164 201 230 276 344
#     4  10  20  36  57  82 111 146 196 252 299 339
#     4  10  20  35  56  84 117 150 188 236 292 352
#     4   9  18  33  53  83 116 145 184 232 285 345
#     4   9  18  33  57  87 115 143 182 242 303 343
#     4   9  17  32  57  86 111 139 179 238 302 345
#
# _framework density 23.830746000000001
#
# number of rings (size 3 to 8) (size 9 to 14) (size 15 to 20)
#    0.000    2.333    0.000    2.500    0.000    8.000 
#    0.000    8.333    0.000    3.000    0.000    0.000 
#    0.000    0.000    0.000    0.000    0.000    0.000 
#
# Total GULP energy -267437.821267 kJ/mol
# GULP energy per Si atom -5571.621276 kJ/mol
# Density = 2.377651 g / cm^3
# Si number density = 23.830746 Si / 1000 Ang^3
#
#
#
# Elastic Constant Matrix: (Units=GPa)
#
#
# Indices 1 2 3 4 5 6 
#
# 1 105.8188 17.8572 29.6827 0.0000 0.0000 0.0000
# 2 17.8572 72.2050 21.8294 0.0000 0.0000 0.0000
# 3 29.6827 21.8294 94.0723 0.0000 0.0000 0.0000
# 4 0.0000 0.0000 0.0000 22.8663 0.0000 0.0000
# 5 0.0000 0.0000 0.0000 0.0000 -19.9735 0.0000
# 6 0.0000 0.0000 0.0000 0.0000 0.0000 -22.6394
#
#
#
# Elastic Compliance Matrix: (Units=1/GPa)
#
#
# Indices 1 2 3 4 5 6 
#
# 1 0.010564 -0.001726 -0.002933 0.000000 0.000000 0.000000
# 2 -0.001726 0.015176 -0.002977 0.000000 0.000000 0.000000
# 3 -0.002933 -0.002977 0.012246 0.000000 0.000000 0.000000
# 4 0.000000 0.000000 0.000000 0.043733 0.000000 0.000000
# 5 0.000000 0.000000 0.000000 0.000000 -0.050066 0.000000
# 6 0.000000 0.000000 0.000000 0.000000 0.000000 -0.044171
#
#
# Mechanical properties :
#
#
# Convention : Reuss Voigt Hill
#
# Bulk Modulus (GPa) = 44.02357 45.64832 44.83594
# Shear Modulus (GPa) = 484.24289 9.56580 246.90434
#
# Velocity S-wave (km/s) = 14.27032 2.00568 10.18982
# Velocity P-wave (km/s) = 17.03045 4.95586 12.54186
#
# Compressibility (1/GPa) = 0.02271511
#
# Stress axis : x y z
#
# Youngs Moduli (GPa) = 94.66078 65.89193 81.65714
#
# Poissons Ratio (x) = 0.11373 0.23948
# Poissons Ratio (y) = 0.16338 0.24310
# Poissons Ratio (z) = 0.27762 0.19616
#
# Static dielectric constant tensor:
#      x y z
#    x 1.935840 0.000000 0.000000 
#    y 0.000000 1.945470 0.000000 
#    z 0.000000 0.000000 1.946140 
# 
# From -- ./inp_files/35358.got.cif
#   From: 2010.05.17/outbox.cif.g08.bks.cpg/sg63_18_cif.got.tgz:35358.got - 2010.06.03 15:47:04.
