data_PCOD9472486
_publ_section_title
;
Structure prediction by ZEFSAII (Michael W. Deem and Ramdas Pophale) SiO2 
 PCOD9472486
Probable space group: C M C M
;
_chemical_formula_sum "Si O2"
_cell_formula_units_Z 88
_cell_length_a 12.996124
_cell_length_b 31.893161
_cell_length_c 11.353269
_cell_angle_alpha 90.000000
_cell_angle_beta 90.000000
_cell_angle_gamma 90.000000
_cell_volume 4705.787802
_symmetry_space_group_name_H-M "C M C M"
_symmetry_group_IT_number 63
_symmetry_cell_setting 'orthorhombic'
loop_
_space_group_symop_operation_xyz
x,y,z
-x,-y,1/2+z
x,-y,-z
-x,y,1/2-z
-x,-y,-z
x,y,1/2-z
-x,y,z
x,-y,1/2+z
1/2+x,1/2+y,z
1/2-x,1/2-y,1/2+z
1/2+x,1/2-y,-z
1/2-x,1/2+y,1/2-z
1/2-x,1/2-y,-z
1/2+x,1/2+y,1/2-z
1/2-x,1/2+y,z
1/2+x,1/2-y,1/2+z
loop_
_atom_site_type_symbol
_atom_site_label
_atom_site_fract_x
_atom_site_fract_y
_atom_site_fract_z
Si Si1 0.617502 0.773534 0.495501
Si Si2 0.875909 0.410431 0.250000
Si Si3 0.121149 0.450092 0.003668
Si Si4 0.189413 0.191647 0.388983
Si Si5 0.807119 0.095838 0.110872
Si Si6 0.125032 0.684220 0.750000
Si Si7 0.000000 0.035622 0.396369
O O1 0.500000 0.785632 0.517655
O O2 0.694174 0.791416 0.593002
O O3 0.625853 0.724016 0.469544
O O4 0.654241 0.793254 0.370651
O O5 0.848155 0.435015 0.366483
O O6 0.836300 0.363236 0.250000
O O7 0.000000 0.407774 0.250000
O O8 0.000000 0.440592 0.982089
O O9 0.133277 0.500000 0.000000
O O10 0.198609 0.425178 0.921057
O O11 0.159891 0.194433 0.250000
O O12 0.182155 0.143717 0.432943
O O13 0.811464 0.100575 0.250000
O O14 0.899659 0.064401 0.080202
O O15 0.000000 0.684209 0.750000
O O16 0.000000 0.024908 0.250000
O O17 0.000000 0.000000 0.500000
#
# Coordination Sequence:
#
# PCOD9472486 Si02
#       7
#    16   8  16  16  16   8   8
#     4  10  20  34  56  81 112 150 187 235 281 349
#     4   9  18  32  52  78 111 151 187 227 274 345
#     4  10  21  36  56  84 117 151 187 234 294 355
#     4  10  21  36  55  85 115 147 192 234 292 341
#     4  10  22  38  60  88 116 152 193 246 293 356
#     4   9  16  30  52  77 100 138 190 225 271 321
#     4  10  22  44  68  90 120 162 212 264 306 360
#
# _framework density 18.700377
#
# number of rings (size 3 to 8) (size 9 to 14) (size 15 to 20)
#    0.000    2.182    0.909    1.636    2.545    2.909 
#    1.636    1.818    0.000    0.000    0.000    0.000 
#    0.000    0.000    0.000    0.000    0.000    0.000 
#
# Total GULP energy -245168.187056 kJ/mol
# GULP energy per Si atom -5572.004251 kJ/mol
# Density = 1.865781 g / cm^3
# Si number density = 18.700377 Si / 1000 Ang^3
#
#
#
# Elastic Constant Matrix: (Units=GPa)
#
#
# Indices 1 2 3 4 5 6 
#
# 1 54.8837 29.4026 14.5393 0.0000 0.0000 0.0000
# 2 29.4026 144.7186 39.4914 0.0000 0.0000 0.0000
# 3 14.5393 39.4914 29.1344 0.0000 0.0000 0.0000
# 4 0.0000 0.0000 0.0000 24.4387 0.0000 0.0000
# 5 0.0000 0.0000 0.0000 0.0000 20.9161 0.0000
# 6 0.0000 0.0000 0.0000 0.0000 0.0000 -6.6681
#
#
#
# Elastic Compliance Matrix: (Units=1/GPa)
#
#
# Indices 1 2 3 4 5 6 
#
# 1 0.021460 -0.002282 -0.007617 0.000000 0.000000 0.000000
# 2 -0.002282 0.011209 -0.014055 0.000000 0.000000 0.000000
# 3 -0.007617 -0.014055 0.057176 0.000000 0.000000 0.000000
# 4 0.000000 0.000000 0.000000 0.040919 0.000000 0.000000
# 5 0.000000 0.000000 0.000000 0.000000 0.047810 0.000000
# 6 0.000000 0.000000 0.000000 0.000000 0.000000 -0.149968
#
#
# Mechanical properties :
#
#
# Convention : Reuss Voigt Hill
#
# Bulk Modulus (GPa) = 23.84447 43.95591 33.90019
# Shear Modulus (GPa) = 55.25290 17.42423 36.33857
#
# Velocity S-wave (km/s) = 5.44156 3.05578 4.41296
# Velocity P-wave (km/s) = 7.22905 6.00057 6.64327
#
# Compressibility (1/GPa) = 0.04193845
#
# Stress axis : x y z
#
# Youngs Moduli (GPa) = 46.59732 89.21510 17.48983
#
# Poissons Ratio (x) = 0.20355 0.13322
# Poissons Ratio (y) = 0.10632 0.24582
# Poissons Ratio (z) = 0.35493 1.25391
#
# Static dielectric constant tensor:
#      x y z
#    x 1.645740 0.000000 0.000000 
#    y 0.000000 1.686180 0.000000 
#    z 0.000000 0.000000 1.656280 
# 
# From -- ./inp_files/19816.got.cif
#   From: 2010.05.17/outbox.cif.g08.bks.cpg/sg63_10_cif.got.tgz:19816.got - 2010.06.03 15:47:04.
