data_PCOD9472606
_publ_section_title
;
Structure prediction by ZEFSAII (Michael W. Deem and Ramdas Pophale) SiO2 
 PCOD9472606
Probable space group: C M C M
;
_chemical_formula_sum "Si O2"
_cell_formula_units_Z 116
_cell_length_a 7.498120
_cell_length_b 31.166051
_cell_length_c 25.047145
_cell_angle_alpha 90.000000
_cell_angle_beta 90.000000
_cell_angle_gamma 90.000000
_cell_volume 5853.186922
_symmetry_space_group_name_H-M "C M C M"
_symmetry_group_IT_number 63
_symmetry_cell_setting 'orthorhombic'
loop_
_space_group_symop_operation_xyz
x,y,z
-x,-y,1/2+z
x,-y,-z
-x,y,1/2-z
-x,-y,-z
x,y,1/2-z
-x,y,z
x,-y,1/2+z
1/2+x,1/2+y,z
1/2-x,1/2-y,1/2+z
1/2+x,1/2-y,-z
1/2-x,1/2+y,1/2-z
1/2-x,1/2-y,-z
1/2+x,1/2+y,1/2-z
1/2-x,1/2+y,z
1/2+x,1/2-y,1/2+z
loop_
_atom_site_type_symbol
_atom_site_label
_atom_site_fract_x
_atom_site_fract_y
_atom_site_fract_z
Si Si1 0.500000 0.110641 0.250000
Si Si2 0.212999 0.298855 0.014979
Si Si3 0.211929 0.602726 0.810354
Si Si4 0.283320 0.189688 0.635559
Si Si5 0.716096 0.158938 0.406995
Si Si6 0.207848 0.914934 0.836918
Si Si7 0.710506 0.780031 0.810413
Si Si8 0.287129 0.490956 0.311124
O O1 0.657192 0.107556 0.296059
O O2 0.280885 0.326478 0.965066
O O3 0.000000 0.305477 0.017476
O O4 0.250000 0.250000 0.000000
O O5 0.281421 0.306452 0.074674
O O6 0.285378 0.601241 0.750000
O O7 0.279931 0.644491 0.840513
O O8 0.238213 0.555338 0.834359
O O9 0.000000 0.608542 0.806618
O O10 0.500000 0.190157 0.635222
O O11 0.229159 0.230747 0.670804
O O12 0.500000 0.161695 0.407612
O O13 0.773869 0.111429 0.391171
O O14 0.780899 0.190556 0.359014
O O15 0.000000 0.913420 0.819418
O O16 0.264226 0.964895 0.839520
O O17 0.783099 0.786242 0.750000
O O18 0.500000 0.790163 0.806426
O O19 0.215652 0.493682 0.250000
O O20 0.500000 0.491094 0.308101
#
# Coordination Sequence:
#
# PCOD9472606 Si02
#       8
#     4  16  16  16  16  16  16  16
#     4  12  22  36  60  82 124 162 186 236 286 338
#     4  10  20  36  58  79 104 141 192 245 288 339
#     4   9  18  30  50  76 107 144 183 222 281 346
#     4  10  20  35  53  78 108 141 185 238 284 338
#     4  10  21  36  54  78 109 151 194 238 291 343
#     4  11  23  36  56  86 118 155 197 233 284 345
#     4  10  21  33  50  75 109 145 181 220 278 349
#     4   9  18  32  50  78 110 141 184 231 268 331
#
# _framework density 19.818263000000002
#
# number of rings (size 3 to 8) (size 9 to 14) (size 15 to 20)
#    0.000    2.069    2.759    0.621    1.931    2.483 
#    0.000    1.379    0.000    0.828    0.000    5.793 
#    0.000    0.000    0.000    0.000    0.000    0.000 
#
# Total GULP energy -323136.088172 kJ/mol
# GULP energy per Si atom -5571.311865 kJ/mol
# Density = 1.977316 g / cm^3
# Si number density = 19.818263 Si / 1000 Ang^3
#
#
#
# Elastic Constant Matrix: (Units=GPa)
#
#
# Indices 1 2 3 4 5 6 
#
# 1 72.3645 -13.9552 5.1413 0.0000 0.0000 0.0000
# 2 -13.9552 123.1130 38.2399 0.0000 0.0000 0.0000
# 3 5.1413 38.2399 91.7900 0.0000 0.0000 0.0000
# 4 0.0000 0.0000 0.0000 26.9513 0.0000 0.0000
# 5 0.0000 0.0000 0.0000 0.0000 9.7899 0.0000
# 6 0.0000 0.0000 0.0000 0.0000 0.0000 18.6885
#
#
#
# Elastic Compliance Matrix: (Units=1/GPa)
#
#
# Indices 1 2 3 4 5 6 
#
# 1 0.014356 0.002156 -0.001702 0.000000 0.000000 0.000000
# 2 0.002156 0.009654 -0.004143 0.000000 0.000000 0.000000
# 3 -0.001702 -0.004143 0.012716 0.000000 0.000000 0.000000
# 4 0.000000 0.000000 0.000000 0.037104 0.000000 0.000000
# 5 0.000000 0.000000 0.000000 0.000000 0.102146 0.000000
# 6 0.000000 0.000000 0.000000 0.000000 0.000000 0.053509
#
#
# Mechanical properties :
#
#
# Convention : Reuss Voigt Hill
#
# Bulk Modulus (GPa) = 34.07467 38.45773 36.26620
# Shear Modulus (GPa) = 20.27218 28.27539 24.27378
#
# Velocity S-wave (km/s) = 3.20176 3.78131 3.50354
# Velocity P-wave (km/s) = 5.55871 6.20578 5.89114
#
# Compressibility (1/GPa) = 0.02934732
#
# Stress axis : x y z
#
# Youngs Moduli (GPa) = 69.65898 103.58718 78.64377
#
# Poissons Ratio (x) = -0.22333 0.13387
# Poissons Ratio (y) = -0.15018 0.32578
# Poissons Ratio (z) = 0.11858 0.42911
#
# Static dielectric constant tensor:
#      x y z
#    x 1.752820 0.000000 0.000000 
#    y 0.000000 1.723320 0.000000 
#    z 0.000000 0.000000 1.863430 
# 
# From -- ./inp_files/67695.got.cif
#   From: 2010.05.17/outbox.cif.g08.bks.cpg/sg63_34_cif.got.tgz:67695.got - 2010.06.03 15:47:04.
