data_PCOD9472861
_publ_section_title
;
Structure prediction by ZEFSAII (Michael W. Deem and Ramdas Pophale) SiO2 
 PCOD9472861
Probable space group: C M C M
;
_chemical_formula_sum "Si O2"
_cell_formula_units_Z 112
_cell_length_a 29.696789
_cell_length_b 5.083854
_cell_length_c 32.328665
_cell_angle_alpha 90.000000
_cell_angle_beta 90.000000
_cell_angle_gamma 90.000000
_cell_volume 4880.792381
_symmetry_space_group_name_H-M "C M C M"
_symmetry_group_IT_number 63
_symmetry_cell_setting 'orthorhombic'
loop_
_space_group_symop_operation_xyz
x,y,z
-x,-y,1/2+z
x,-y,-z
-x,y,1/2-z
-x,-y,-z
x,y,1/2-z
-x,y,z
x,-y,1/2+z
1/2+x,1/2+y,z
1/2-x,1/2-y,1/2+z
1/2+x,1/2-y,-z
1/2-x,1/2+y,1/2-z
1/2-x,1/2-y,-z
1/2+x,1/2+y,1/2-z
1/2-x,1/2+y,z
1/2+x,1/2-y,1/2+z
loop_
_atom_site_type_symbol
_atom_site_label
_atom_site_fract_x
_atom_site_fract_y
_atom_site_fract_z
Si Si1 0.049151 0.643368 0.704350
Si Si2 0.452613 0.461487 0.371621
Si Si3 0.723744 0.679011 0.840525
Si Si4 0.864303 0.536446 0.934216
Si Si5 0.583047 0.476799 0.044833
Si Si6 0.127458 0.394912 0.657128
Si Si7 0.274717 0.279767 0.440969
O O1 0.052493 0.766851 0.750000
O O2 0.045623 0.836951 0.665820
O O3 0.096063 0.501095 0.693950
O O4 0.000000 0.497454 0.705030
O O5 0.500000 0.307704 0.371780
O O6 0.446996 0.577437 0.417168
O O7 0.406908 0.309321 0.363347
O O8 0.739497 0.393198 0.826700
O O9 0.673774 0.766816 0.828300
O O10 0.724494 0.689109 0.890732
O O11 0.874759 0.819736 0.953547
O O12 0.861346 0.573006 0.883747
O O13 0.819953 0.382976 0.949310
O O14 0.902900 0.325094 0.946569
O O15 0.562001 0.500000 0.000000
O O16 0.264658 0.577170 0.454552
#
# Coordination Sequence:
#
# PCOD9472861 Si02
#       7
#    16  16  16  16  16  16  16
#     4  10  21  38  62  93 128 163 203 256 319 386
#     4  10  22  39  61  92 127 166 215 264 317 385
#     4   9  19  31  54  90 123 157 206 255 301 366
#     4  10  20  35  58  85 117 157 206 256 308 370
#     4  11  22  38  59  84 118 164 210 259 309 365
#     4  10  20  35  63  87 127 164 208 254 319 370
#     4   9  16  28  49  79 112 148 194 250 310 368
#
# _framework density 22.947095000000001
#
# number of rings (size 3 to 8) (size 9 to 14) (size 15 to 20)
#    0.000    2.143    1.429    1.714    2.000    4.286 
#    0.000    1.429    0.000   12.000    0.000    0.000 
#    0.000    0.000    0.000    0.000    0.000    0.000 
#
# Total GULP energy -312110.489877 kJ/mol
# GULP energy per Si atom -5573.401605 kJ/mol
# Density = 2.289487 g / cm^3
# Si number density = 22.947095 Si / 1000 Ang^3
#
#
#
# Elastic Constant Matrix: (Units=GPa)
#
#
# Indices 1 2 3 4 5 6 
#
# 1 77.2341 -18.0582 13.3412 0.0000 0.0000 0.0000
# 2 -18.0582 55.8023 2.2121 0.0000 0.0000 0.0000
# 3 13.3412 2.2121 125.0317 0.0000 0.0000 0.0000
# 4 0.0000 0.0000 0.0000 7.2152 0.0000 0.0000
# 5 0.0000 0.0000 0.0000 0.0000 4.2525 0.0000
# 6 0.0000 0.0000 0.0000 0.0000 0.0000 25.8076
#
#
#
# Elastic Compliance Matrix: (Units=1/GPa)
#
#
# Indices 1 2 3 4 5 6 
#
# 1 0.014325 0.004700 -0.001612 0.000000 0.000000 0.000000
# 2 0.004700 0.019475 -0.000846 0.000000 0.000000 0.000000
# 3 -0.001612 -0.000846 0.008185 0.000000 0.000000 0.000000
# 4 0.000000 0.000000 0.000000 0.138596 0.000000 0.000000
# 5 0.000000 0.000000 0.000000 0.000000 0.235157 0.000000
# 6 0.000000 0.000000 0.000000 0.000000 0.000000 0.038748
#
#
# Mechanical properties :
#
#
# Convention : Reuss Voigt Hill
#
# Bulk Modulus (GPa) = 21.52005 28.11760 24.81882
# Shear Modulus (GPa) = 10.74134 24.82659 17.78397
#
# Velocity S-wave (km/s) = 2.16589 3.29280 2.78690
# Velocity P-wave (km/s) = 3.95642 5.17074 4.60379
#
# Compressibility (1/GPa) = 0.04646830
#
# Stress axis : x y z
#
# Youngs Moduli (GPa) = 69.80882 51.34850 122.17615
#
# Poissons Ratio (x) = -0.24131 0.19690
# Poissons Ratio (y) = -0.32807 0.10336
# Poissons Ratio (z) = 0.11251 0.04344
#
# Static dielectric constant tensor:
#      x y z
#    x 1.953360 0.000000 0.000000 
#    y 0.000000 1.882910 0.000000 
#    z 0.000000 0.000000 1.944280 
# 
# From -- ./inp_files/74517.got.cif
#   From: 2010.05.17/outbox.cif.g08.bks.cpg/sg63_38_cif.got.tgz:74517.got - 2010.06.03 15:47:04.
