data_PCOD9472050
_publ_section_title
;
Structure prediction by ZEFSAII (Michael W. Deem and Ramdas Pophale) SiO2 
 PCOD9472050
Probable space group: C M C M
;
_chemical_formula_sum "Si O2"
_cell_formula_units_Z 96
_cell_length_a 20.697609
_cell_length_b 9.250543
_cell_length_c 22.516740
_cell_angle_alpha 90.000000
_cell_angle_beta 90.000000
_cell_angle_gamma 90.000000
_cell_volume 4311.147856
_symmetry_space_group_name_H-M "C M C M"
_symmetry_group_IT_number 63
_symmetry_cell_setting 'orthorhombic'
loop_
_space_group_symop_operation_xyz
x,y,z
-x,-y,1/2+z
x,-y,-z
-x,y,1/2-z
-x,-y,-z
x,y,1/2-z
-x,y,z
x,-y,1/2+z
1/2+x,1/2+y,z
1/2-x,1/2-y,1/2+z
1/2+x,1/2-y,-z
1/2-x,1/2+y,1/2-z
1/2-x,1/2-y,-z
1/2+x,1/2+y,1/2-z
1/2-x,1/2+y,z
1/2+x,1/2-y,1/2+z
loop_
_atom_site_type_symbol
_atom_site_label
_atom_site_fract_x
_atom_site_fract_y
_atom_site_fract_z
Si Si1 0.891716 0.932335 0.442596
Si Si2 0.575064 0.369191 0.314396
Si Si3 0.268650 0.433354 0.605580
Si Si4 0.722519 0.840145 0.184657
Si Si5 0.379056 0.911984 0.940570
Si Si6 0.599922 0.049463 0.314892
O O1 0.918273 0.955174 0.375591
O O2 0.888054 0.759397 0.449982
O O3 0.925585 0.000000 0.500000
O O4 0.822489 0.011442 0.438767
O O5 0.586050 0.442033 0.250000
O O6 0.500000 0.317508 0.314054
O O7 0.617133 0.221485 0.315804
O O8 0.281978 0.278213 0.633595
O O9 0.273547 0.543640 0.661156
O O10 0.196765 0.434960 0.577727
O O11 0.736816 0.780449 0.250000
O O12 0.658004 0.935842 0.188124
O O13 0.421695 0.963739 0.883634
O O14 0.392852 0.000000 0.000000
O O15 0.567244 0.031497 0.250000
#
# Coordination Sequence:
#
# PCOD9472050 Si02
#       6
#    16  16  16  16  16  16
#     4  11  24  36  56  89 120 156 196 244 295 344
#     4   9  19  40  67  88 108 143 193 247 300 358
#     4  11  21  35  51  80 118 165 200 233 274 339
#     4  10  20  33  52  81 119 155 192 238 287 335
#     4  10  21  36  55  78 117 161 199 233 272 340
#     4   8  17  34  56  82 107 138 185 239 284 333
#
# _framework density 22.267851
#
# number of rings (size 3 to 8) (size 9 to 14) (size 15 to 20)
#    0.000    2.167    1.667    1.000    4.667    3.667 
#    0.000    0.000    0.000    9.000    0.000    2.333 
#    0.000    0.000    0.000    0.000    0.000    0.000 
#
# Total GULP energy -267259.953017 kJ/mol
# GULP energy per Si atom -5567.915688 kJ/mol
# Density = 2.221717 g / cm^3
# Si number density = 22.267851 Si / 1000 Ang^3
#
#
#
# Elastic Constant Matrix: (Units=GPa)
#
#
# Indices 1 2 3 4 5 6 
#
# 1 57.5249 19.4387 30.5546 0.0000 0.0000 0.0000
# 2 19.4387 69.9932 53.7859 0.0000 0.0000 0.0000
# 3 30.5546 53.7859 247.0344 0.0000 0.0000 0.0000
# 4 0.0000 0.0000 0.0000 41.8450 0.0000 0.0000
# 5 0.0000 0.0000 0.0000 0.0000 -8.6661 0.0000
# 6 0.0000 0.0000 0.0000 0.0000 0.0000 -4.6996
#
#
#
# Elastic Compliance Matrix: (Units=1/GPa)
#
#
# Indices 1 2 3 4 5 6 
#
# 1 0.019631 -0.004307 -0.001490 0.000000 0.000000 0.000000
# 2 -0.004307 0.018103 -0.003409 0.000000 0.000000 0.000000
# 3 -0.001490 -0.003409 0.004975 0.000000 0.000000 0.000000
# 4 0.000000 0.000000 0.000000 0.023898 0.000000 0.000000
# 5 0.000000 0.000000 0.000000 0.000000 -0.115392 0.000000
# 6 0.000000 0.000000 0.000000 0.000000 0.000000 -0.212784
#
#
# Mechanical properties :
#
#
# Convention : Reuss Voigt Hill
#
# Bulk Modulus (GPa) = 41.15849 64.67900 52.91874
# Shear Modulus (GPa) = -21.27110 23.74741 1.23816
#
# Velocity S-wave (km/s) = -3.09405 3.26919 0.74648
# Velocity P-wave (km/s) = 2.39986 6.58476 4.95572
#
# Compressibility (1/GPa) = 0.02429633
#
# Stress axis : x y z
#
# Youngs Moduli (GPa) = 50.94069 55.24078 201.02405
#
# Poissons Ratio (x) = 0.23790 0.29960
# Poissons Ratio (y) = 0.21938 0.68524
# Poissons Ratio (z) = 0.07592 0.18830
#
# Static dielectric constant tensor:
#      x y z
#    x 1.902460 0.000000 0.000000 
#    y 0.000000 1.782720 0.000000 
#    z 0.000000 0.000000 1.917940 
# 
# From -- ./inp_files/58109.got.cif
#   From: 2010.05.17/outbox.cif.g08.bks.cpg/sg63_30_cif.got.tgz:58109.got - 2010.06.03 15:47:04.
