data_PCOD9472518
_publ_section_title
;
Structure prediction by ZEFSAII (Michael W. Deem and Ramdas Pophale) SiO2 
 PCOD9472518
Probable space group: C M C M
;
_chemical_formula_sum "Si O2"
_cell_formula_units_Z 80
_cell_length_a 8.874153
_cell_length_b 15.965726
_cell_length_c 29.556719
_cell_angle_alpha 90.000000
_cell_angle_beta 90.000000
_cell_angle_gamma 90.000000
_cell_volume 4187.663789
_symmetry_space_group_name_H-M "C M C M"
_symmetry_group_IT_number 63
_symmetry_cell_setting 'orthorhombic'
loop_
_space_group_symop_operation_xyz
x,y,z
-x,-y,1/2+z
x,-y,-z
-x,y,1/2-z
-x,-y,-z
x,y,1/2-z
-x,y,z
x,-y,1/2+z
1/2+x,1/2+y,z
1/2-x,1/2-y,1/2+z
1/2+x,1/2-y,-z
1/2-x,1/2+y,1/2-z
1/2-x,1/2-y,-z
1/2+x,1/2+y,1/2-z
1/2-x,1/2+y,z
1/2+x,1/2-y,1/2+z
loop_
_atom_site_type_symbol
_atom_site_label
_atom_site_fract_x
_atom_site_fract_y
_atom_site_fract_z
Si Si1 0.681796 0.253079 0.049716
Si Si2 0.319511 0.659128 0.800541
Si Si3 0.180065 0.407930 0.608676
Si Si4 0.819862 0.156025 0.199094
Si Si5 0.818917 0.919225 0.105149
O O1 0.500000 0.252047 0.047061
O O2 0.771398 0.328034 0.921180
O O3 0.724779 0.338233 0.075800
O O4 0.750000 0.250000 0.000000
O O5 0.289293 0.625338 0.750000
O O6 0.500000 0.674618 0.803893
O O7 0.278354 0.600968 0.842605
O O8 0.236720 0.748094 0.804888
O O9 0.244529 0.395064 0.658953
O O10 0.241744 0.495357 0.590010
O O11 0.000000 0.408741 0.610168
O O12 0.779936 0.127412 0.250000
O O13 0.000000 0.152619 0.194642
O O14 0.000000 0.928530 0.102799
#
# Coordination Sequence:
#
# PCOD9472518 Si02
#       5
#    16  16  16  16  16
#     4  10  23  43  64  86 117 153 195 245 302 357
#     4   9  17  33  58  84 117 159 196 236 288 343
#     4  11  23  40  61  89 121 155 197 244 294 352
#     4  10  20  34  56  87 121 158 200 241 285 343
#     4  10  21  39  60  88 122 156 197 242 291 353
#
# _framework density 19.103729999999999
#
# number of rings (size 3 to 8) (size 9 to 14) (size 15 to 20)
#    0.000    2.000    2.000    1.200    0.000    6.000 
#    0.000    6.000    0.000    0.000    0.000    0.000 
#    0.000    0.000    0.000    0.000    0.000    0.000 
#
# Total GULP energy -223389.634580 kJ/mol
# GULP energy per Si atom -5584.740864 kJ/mol
# Density = 1.906025 g / cm^3
# Si number density = 19.103730 Si / 1000 Ang^3
#
#
#
# Elastic Constant Matrix: (Units=GPa)
#
#
# Indices 1 2 3 4 5 6 
#
# 1 24.0885 41.8784 38.7653 0.0000 0.0000 0.0000
# 2 41.8784 152.3864 78.7550 0.0000 0.0000 0.0000
# 3 38.7653 78.7550 126.5624 0.0000 0.0000 0.0000
# 4 0.0000 0.0000 0.0000 0.3109 0.0000 0.0000
# 5 0.0000 0.0000 0.0000 0.0000 32.1995 0.0000
# 6 0.0000 0.0000 0.0000 0.0000 0.0000 29.9286
#
#
#
# Elastic Compliance Matrix: (Units=1/GPa)
#
#
# Indices 1 2 3 4 5 6 
#
# 1 0.109108 -0.018740 -0.021758 0.000000 0.000000 0.000000
# 2 -0.018740 0.012892 -0.002282 0.000000 0.000000 0.000000
# 3 -0.021758 -0.002282 0.015986 0.000000 0.000000 0.000000
# 4 0.000000 0.000000 0.000000 3.216242 0.000000 0.000000
# 5 0.000000 0.000000 0.000000 0.000000 0.031056 0.000000
# 6 0.000000 0.000000 0.000000 0.000000 0.000000 0.033413
#
#
# Mechanical properties :
#
#
# Convention : Reuss Voigt Hill
#
# Bulk Modulus (GPa) = 19.07472 69.09276 44.08374
# Shear Modulus (GPa) = 1.41976 22.06372 11.74174
#
# Velocity S-wave (km/s) = 0.86302 3.40213 2.48186
# Velocity P-wave (km/s) = 3.31656 7.18877 5.59812
#
# Compressibility (1/GPa) = 0.05242541
#
# Stress axis : x y z
#
# Youngs Moduli (GPa) = 9.16521 77.56884 62.55624
#
# Poissons Ratio (x) = 1.45365 1.36110
# Poissons Ratio (y) = 0.17176 0.14276
# Poissons Ratio (z) = 0.19942 0.17702
#
# Static dielectric constant tensor:
#      x y z
#    x 1.638310 0.000000 0.000000 
#    y 0.000000 1.665130 0.000000 
#    z 0.000000 0.000000 1.659610 
# 
# From -- ./inp_files/71597.got.cif
#   From: 2010.05.17/outbox.cif.g08.bks.cpg/sg63_36_cif.got.tgz:71597.got - 2010.06.03 15:47:04.
