data_PCOD9472271
_publ_section_title
;
Structure prediction by ZEFSAII (Michael W. Deem and Ramdas Pophale) SiO2 
 PCOD9472271
Probable space group: C M C M
;
_chemical_formula_sum "Si O2"
_cell_formula_units_Z 80
_cell_length_a 9.157340
_cell_length_b 26.864698
_cell_length_c 17.049429
_cell_angle_alpha 90.000000
_cell_angle_beta 90.000000
_cell_angle_gamma 90.000000
_cell_volume 4194.315938
_symmetry_space_group_name_H-M "C M C M"
_symmetry_group_IT_number 63
_symmetry_cell_setting 'orthorhombic'
loop_
_space_group_symop_operation_xyz
x,y,z
-x,-y,1/2+z
x,-y,-z
-x,y,1/2-z
-x,-y,-z
x,y,1/2-z
-x,y,z
x,-y,1/2+z
1/2+x,1/2+y,z
1/2-x,1/2-y,1/2+z
1/2+x,1/2-y,-z
1/2-x,1/2+y,1/2-z
1/2-x,1/2-y,-z
1/2+x,1/2+y,1/2-z
1/2-x,1/2+y,z
1/2+x,1/2-y,1/2+z
loop_
_atom_site_type_symbol
_atom_site_label
_atom_site_fract_x
_atom_site_fract_y
_atom_site_fract_z
Si Si1 0.824613 0.237196 0.581704
Si Si2 0.830859 0.975236 0.154197
Si Si3 0.335423 0.327110 0.656462
Si Si4 0.322379 0.365987 0.340569
Si Si5 0.332044 0.925194 0.654035
O O1 0.750000 0.250000 0.500000
O O2 0.764426 0.279781 0.638973
O O3 0.779654 0.182227 0.610448
O O4 0.000000 0.238993 0.577629
O O5 0.829801 0.974069 0.250000
O O6 0.776000 0.920518 0.129560
O O7 0.000000 0.981813 0.130614
O O8 0.737104 0.022423 0.128676
O O9 0.345968 0.332240 0.750000
O O10 0.500000 0.320682 0.624621
O O11 0.261951 0.377962 0.626487
O O12 0.274995 0.359801 0.250000
O O13 0.500000 0.367675 0.339600
O O14 0.328728 0.925054 0.750000
O O15 0.500000 0.920357 0.630265
#
# Coordination Sequence:
#
# PCOD9472271 Si02
#       5
#    16  16  16  16  16
#     4  11  22  36  53  73 101 136 173 212 256 304
#     4   8  13  24  44  70  98 126 158 197 240 288
#     4  10  20  34  53  77 103 132 169 211 252 296
#     4   8  15  29  51  76  99 128 167 206 245 295
#     4   9  16  26  43  71 104 133 160 194 242 296
#
# _framework density 19.073430999999999
#
# number of rings (size 3 to 8) (size 9 to 14) (size 15 to 20)
#    0.000    2.800    0.000    3.600    0.000    4.400 
#    0.000    2.000    0.000    6.000    0.000    8.400 
#    0.000    0.000    0.000    0.000    0.000    0.000 
#
# Total GULP energy -223003.017350 kJ/mol
# GULP energy per Si atom -5575.075434 kJ/mol
# Density = 1.903002 g / cm^3
# Si number density = 19.073431 Si / 1000 Ang^3
#
#
#
# Elastic Constant Matrix: (Units=GPa)
#
#
# Indices 1 2 3 4 5 6 
#
# 1 86.8380 50.1863 7.9992 0.0000 0.0000 0.0000
# 2 50.1863 137.2413 2.9384 0.0000 0.0000 0.0000
# 3 7.9992 2.9384 2.8425 0.0000 0.0000 0.0000
# 4 0.0000 0.0000 0.0000 -15.7924 0.0000 0.0000
# 5 0.0000 0.0000 0.0000 0.0000 17.0501 0.0000
# 6 0.0000 0.0000 0.0000 0.0000 0.0000 32.2862
#
#
#
# Elastic Compliance Matrix: (Units=1/GPa)
#
#
# Indices 1 2 3 4 5 6 
#
# 1 0.019518 -0.006096 -0.048625 0.000000 0.000000 0.000000
# 2 -0.006096 0.009355 0.007485 0.000000 0.000000 0.000000
# 3 -0.048625 0.007485 0.480905 0.000000 0.000000 0.000000
# 4 0.000000 0.000000 0.000000 -0.063322 0.000000 0.000000
# 5 0.000000 0.000000 0.000000 0.000000 0.058651 0.000000
# 6 0.000000 0.000000 0.000000 0.000000 0.000000 0.030973
#
#
# Mechanical properties :
#
#
# Convention : Reuss Voigt Hill
#
# Bulk Modulus (GPa) = 2.40786 38.79660 20.60223
# Shear Modulus (GPa) = 6.50205 17.76200 12.13202
#
# Velocity S-wave (km/s) = 1.84834 3.05494 2.52478
# Velocity P-wave (km/s) = 2.41253 5.72960 4.39594
#
# Compressibility (1/GPa) = 0.41530614
#
# Stress axis : x y z
#
# Youngs Moduli (GPa) = 51.23456 106.88940 2.07941
#
# Poissons Ratio (x) = 0.65163 0.10111
# Poissons Ratio (y) = 0.31234 -0.01556
# Poissons Ratio (z) = 2.49128 -0.80005
#
# Static dielectric constant tensor:
#      x y z
#    x 1.654640 0.000000 0.000000 
#    y 0.000000 1.676430 0.000000 
#    z 0.000000 0.000000 1.668710 
# 
# From -- ./inp_files/40437.got.cif
#   From: 2010.05.17/outbox.cif.g08.bks.cpg/sg63_21_cif.got.tgz:40437.got - 2010.06.03 15:47:04.
