data_PCOD9472355
_publ_section_title
;
Structure prediction by ZEFSAII (Michael W. Deem and Ramdas Pophale) SiO2 
 PCOD9472355
Probable space group: C M C M
;
_chemical_formula_sum "Si O2"
_cell_formula_units_Z 104
_cell_length_a 20.254363
_cell_length_b 12.196642
_cell_length_c 24.497973
_cell_angle_alpha 90.000000
_cell_angle_beta 90.000000
_cell_angle_gamma 90.000000
_cell_volume 6051.862014
_symmetry_space_group_name_H-M "C M C M"
_symmetry_group_IT_number 63
_symmetry_cell_setting 'orthorhombic'
loop_
_space_group_symop_operation_xyz
x,y,z
-x,-y,1/2+z
x,-y,-z
-x,y,1/2-z
-x,-y,-z
x,y,1/2-z
-x,y,z
x,-y,1/2+z
1/2+x,1/2+y,z
1/2-x,1/2-y,1/2+z
1/2+x,1/2-y,-z
1/2-x,1/2+y,1/2-z
1/2-x,1/2-y,-z
1/2+x,1/2+y,1/2-z
1/2-x,1/2+y,z
1/2+x,1/2-y,1/2+z
loop_
_atom_site_type_symbol
_atom_site_label
_atom_site_fract_x
_atom_site_fract_y
_atom_site_fract_z
Si Si1 0.000000 0.541634 0.185665
Si Si2 0.237873 0.395065 0.390180
Si Si3 0.634282 0.932431 0.856248
Si Si4 0.854357 0.809055 0.314305
Si Si5 0.500000 0.300761 0.315686
Si Si6 0.295582 0.500000 0.500000
Si Si7 0.922872 0.379644 0.973166
Si Si8 0.318588 0.268097 0.534013
O O1 0.068929 0.501720 0.162366
O O2 0.000000 0.671387 0.171087
O O3 0.000000 0.530734 0.250000
O O4 0.193932 0.483410 0.358762
O O5 0.300834 0.361161 0.354514
O O6 0.254822 0.453229 0.448274
O O7 0.198884 0.284164 0.407386
O O8 0.647173 0.823991 0.820345
O O9 0.615508 0.887948 0.916088
O O10 0.844947 0.835651 0.250000
O O11 0.928566 0.844505 0.332796
O O12 0.500000 0.307171 0.250000
O O13 0.333073 0.396336 0.525965
O O14 0.000000 0.348111 0.966239
O O15 0.921983 0.500000 0.000000
O O16 0.879609 0.299025 0.009825
O O17 0.250000 0.250000 0.500000
#
# Coordination Sequence:
#
# PCOD9472355 Si02
#       8
#     8  16  16  16   8   8  16  16
#     4   9  18  30  47  73 105 142 173 221 291 333
#     4  11  20  33  56  81 111 150 193 234 290 344
#     4  11  18  33  53  80 112 143 180 239 290 341
#     4  10  21  35  54  82 109 145 191 238 291 343
#     4   7  14  32  52  70 101 133 176 232 280 330
#     4  10  20  36  53  79 114 152 192 228 286 346
#     4  11  21  35  57  87 116 148 193 239 291 355
#     4  10  20  34  54  78 115 152 186 230 285 348
#
# _framework density 17.184794
#
# number of rings (size 3 to 8) (size 9 to 14) (size 15 to 20)
#    0.000    1.846    2.308    6.000    1.077    1.231 
#    0.000    0.385    1.692    0.000    0.000    0.000 
#    0.000    2.462    0.000    0.000    0.000    0.000 
#
# Total GULP energy -289613.421477 kJ/mol
# GULP energy per Si atom -5569.488875 kJ/mol
# Density = 1.714568 g / cm^3
# Si number density = 17.184794 Si / 1000 Ang^3
#
#
#
# Elastic Constant Matrix: (Units=GPa)
#
#
# Indices 1 2 3 4 5 6 
#
# 1 126.2743 50.8890 33.0638 0.0000 0.0000 0.0000
# 2 50.8890 74.4676 14.6426 0.0000 0.0000 0.0000
# 3 33.0638 14.6426 62.8695 0.0000 0.0000 0.0000
# 4 0.0000 0.0000 0.0000 12.6696 0.0000 0.0000
# 5 0.0000 0.0000 0.0000 0.0000 25.3846 0.0000
# 6 0.0000 0.0000 0.0000 0.0000 0.0000 88.6524
#
#
#
# Elastic Compliance Matrix: (Units=1/GPa)
#
#
# Indices 1 2 3 4 5 6 
#
# 1 0.012101 -0.007355 -0.004651 0.000000 0.000000 0.000000
# 2 -0.007355 0.018544 -0.000451 0.000000 0.000000 0.000000
# 3 -0.004651 -0.000451 0.018457 0.000000 0.000000 0.000000
# 4 0.000000 0.000000 0.000000 0.078929 0.000000 0.000000
# 5 0.000000 0.000000 0.000000 0.000000 0.039394 0.000000
# 6 0.000000 0.000000 0.000000 0.000000 0.000000 0.011280
#
#
# Mechanical properties :
#
#
# Convention : Reuss Voigt Hill
#
# Bulk Modulus (GPa) = 41.34306 51.20023 46.27164
# Shear Modulus (GPa) = 23.62036 36.34238 29.98137
#
# Velocity S-wave (km/s) = 3.71144 4.60368 4.18143
# Velocity P-wave (km/s) = 6.51740 7.62346 7.09202
#
# Compressibility (1/GPa) = 0.02418786
#
# Stress axis : x y z
#
# Youngs Moduli (GPa) = 82.63609 53.92712 54.17987
#
# Poissons Ratio (x) = 0.39664 0.25200
# Poissons Ratio (y) = 0.60780 0.02442
# Poissons Ratio (z) = 0.38435 0.02431
#
# Static dielectric constant tensor:
#      x y z
#    x 1.637030 0.000000 0.000000 
#    y 0.000000 1.575280 0.000000 
#    z 0.000000 0.000000 1.604790 
# 
# From -- ./inp_files/69986.got.cif
#   From: 2010.05.17/outbox.cif.g08.bks.cpg/sg63_35_cif.got.tgz:69986.got - 2010.06.03 15:47:04.
