data_PCOD9472821
_publ_section_title
;
Structure prediction by ZEFSAII (Michael W. Deem and Ramdas Pophale) SiO2 
 PCOD9472821
Probable space group: C M C M
;
_chemical_formula_sum "Si O2"
_cell_formula_units_Z 112
_cell_length_a 18.827211
_cell_length_b 10.814739
_cell_length_c 27.348387
_cell_angle_alpha 90.000000
_cell_angle_beta 90.000000
_cell_angle_gamma 90.000000
_cell_volume 5568.442628
_symmetry_space_group_name_H-M "C M C M"
_symmetry_group_IT_number 63
_symmetry_cell_setting 'orthorhombic'
loop_
_space_group_symop_operation_xyz
x,y,z
-x,-y,1/2+z
x,-y,-z
-x,y,1/2-z
-x,-y,-z
x,y,1/2-z
-x,y,z
x,-y,1/2+z
1/2+x,1/2+y,z
1/2-x,1/2-y,1/2+z
1/2+x,1/2-y,-z
1/2-x,1/2+y,1/2-z
1/2-x,1/2-y,-z
1/2+x,1/2+y,1/2-z
1/2-x,1/2+y,z
1/2+x,1/2-y,1/2+z
loop_
_atom_site_type_symbol
_atom_site_label
_atom_site_fract_x
_atom_site_fract_y
_atom_site_fract_z
Si Si1 0.163447 0.800164 0.616040
Si Si2 0.418673 0.103559 0.457897
Si Si3 0.085338 0.856790 0.514914
Si Si4 0.819097 0.383054 0.874181
Si Si5 0.634175 0.704722 0.802472
Si Si6 0.296708 0.104889 0.806023
Si Si7 0.080585 0.059590 0.195806
O O1 0.121874 0.811651 0.565285
O O2 0.246492 0.823897 0.606388
O O3 0.161046 0.682728 0.652800
O O4 0.130278 0.902326 0.651784
O O5 0.500000 0.107457 0.439597
O O6 0.400509 0.243415 0.476831
O O7 0.362112 0.058665 0.418147
O O8 0.417037 0.000000 0.500000
O O9 0.000000 0.859894 0.521700
O O10 0.106287 0.000000 0.500000
O O11 0.872778 0.285799 0.850110
O O12 0.796918 0.468879 0.828763
O O13 0.624905 0.769534 0.750000
O O14 0.715920 0.655616 0.804248
O O15 0.583428 0.587885 0.803214
O O16 0.323363 0.109725 0.750000
O O17 0.106290 0.100839 0.250000
O O18 0.000000 0.103936 0.189048
#
# Coordination Sequence:
#
# PCOD9472821 Si02
#       7
#    16  16  16  16  16  16  16
#     4  11  22  36  59  89 123 153 203 250 305 354
#     4  10  23  43  62  82 115 159 203 250 315 377
#     4  10  23  41  62  87 118 159 205 258 315 370
#     4  11  22  35  61  89 115 156 203 246 300 355
#     4   9  19  34  53  83 120 154 192 236 288 351
#     4  10  20  36  58  86 124 163 197 240 294 361
#     4  10  20  35  57  85 119 158 197 240 293 355
#
# _framework density 20.113343
#
# number of rings (size 3 to 8) (size 9 to 14) (size 15 to 20)
#    0.000    1.857    1.429    2.143    2.000    2.857 
#    0.000    0.714    0.000    3.000    0.000    0.000 
#    0.000    0.000    0.000    0.000    0.000    0.000 
#
# Total GULP energy -311942.899921 kJ/mol
# GULP energy per Si atom -5570.408927 kJ/mol
# Density = 2.006756 g / cm^3
# Si number density = 20.113343 Si / 1000 Ang^3
#
#
#
# Elastic Constant Matrix: (Units=GPa)
#
#
# Indices 1 2 3 4 5 6 
#
# 1 36.6272 -3.7654 35.7758 0.0000 0.0000 0.0000
# 2 -3.7654 45.4790 0.8904 0.0000 0.0000 0.0000
# 3 35.7758 0.8904 84.1714 0.0000 0.0000 0.0000
# 4 0.0000 0.0000 0.0000 30.5878 0.0000 0.0000
# 5 0.0000 0.0000 0.0000 0.0000 -13.6630 0.0000
# 6 0.0000 0.0000 0.0000 0.0000 0.0000 15.4650
#
#
#
# Elastic Compliance Matrix: (Units=1/GPa)
#
#
# Indices 1 2 3 4 5 6 
#
# 1 0.047520 0.004331 -0.020244 0.000000 0.000000 0.000000
# 2 0.004331 0.022387 -0.002078 0.000000 0.000000 0.000000
# 3 -0.020244 -0.002078 0.020507 0.000000 0.000000 0.000000
# 4 0.000000 0.000000 0.000000 0.032693 0.000000 0.000000
# 5 0.000000 0.000000 0.000000 0.000000 -0.073190 0.000000
# 6 0.000000 0.000000 0.000000 0.000000 0.000000 0.064662
#
#
# Mechanical properties :
#
#
# Convention : Reuss Voigt Hill
#
# Bulk Modulus (GPa) = 18.37098 25.78659 22.07879
# Shear Modulus (GPa) = 29.63759 15.36975 22.50367
#
# Velocity S-wave (km/s) = 3.84282 2.76734 3.34854
# Velocity P-wave (km/s) = 5.37059 4.80202 5.09424
#
# Compressibility (1/GPa) = 0.05443367
#
# Stress axis : x y z
#
# Youngs Moduli (GPa) = 21.04355 44.66798 48.76428
#
# Poissons Ratio (x) = -0.19345 0.98717
# Poissons Ratio (y) = -0.09113 0.10131
# Poissons Ratio (z) = 0.42600 0.09280
#
# Static dielectric constant tensor:
#      x y z
#    x 1.684890 0.000000 0.000000 
#    y 0.000000 1.788960 0.000000 
#    z 0.000000 0.000000 1.724940 
# 
# From -- ./inp_files/64650.got.cif
#   From: 2010.05.17/outbox.cif.g08.bks.cpg/sg63_33_cif.got.tgz:64650.got - 2010.06.03 15:47:04.
