data_PCOD9472393
_publ_section_title
;
Structure prediction by ZEFSAII (Michael W. Deem and Ramdas Pophale) SiO2 
 PCOD9472393
Probable space group: C M C M
;
_chemical_formula_sum "Si O2"
_cell_formula_units_Z 72
_cell_length_a 29.540757
_cell_length_b 14.162783
_cell_length_c 8.858666
_cell_angle_alpha 90.000000
_cell_angle_beta 90.000000
_cell_angle_gamma 90.000000
_cell_volume 3706.282755
_symmetry_space_group_name_H-M "C M C M"
_symmetry_group_IT_number 63
_symmetry_cell_setting 'orthorhombic'
loop_
_space_group_symop_operation_xyz
x,y,z
-x,-y,1/2+z
x,-y,-z
-x,y,1/2-z
-x,-y,-z
x,y,1/2-z
-x,y,z
x,-y,1/2+z
1/2+x,1/2+y,z
1/2-x,1/2-y,1/2+z
1/2+x,1/2-y,-z
1/2-x,1/2+y,1/2-z
1/2-x,1/2-y,-z
1/2+x,1/2+y,1/2-z
1/2-x,1/2+y,z
1/2+x,1/2-y,1/2+z
loop_
_atom_site_type_symbol
_atom_site_label
_atom_site_fract_x
_atom_site_fract_y
_atom_site_fract_z
Si Si1 0.054282 0.398928 0.428037
Si Si2 0.415214 0.289915 0.070030
Si Si3 0.686855 0.696975 0.568684
Si Si4 0.500000 0.603013 0.429623
Si Si5 0.272941 0.899414 0.930199
O O1 0.064373 0.500000 0.500000
O O2 0.064486 0.396979 0.250000
O O3 0.080165 0.317842 0.516795
O O4 0.000000 0.382614 0.444579
O O5 0.421380 0.296134 0.250000
O O6 0.365006 0.325688 0.032047
O O7 0.455241 0.344466 0.987428
O O8 0.693082 0.689047 0.750000
O O9 0.697339 0.806789 0.528071
O O10 0.722955 0.630132 0.487632
O O11 0.500000 0.500000 0.500000
O O12 0.500000 0.600310 0.250000
O O13 0.273387 0.907952 0.750000
O O14 0.286641 0.000000 0.000000
#
# Coordination Sequence:
#
# PCOD9472393 Si02
#       5
#    16  16  16   8  16
#     4  10  20  34  54  81 114 152 193 237 284 342
#     4  11  22  39  62  87 119 155 194 245 296 346
#     4   9  21  39  59  87 118 152 195 238 288 347
#     4  12  26  44  63  86 115 154 202 246 292 344
#     4  10  20  37  61  87 118 154 190 236 290 346
#
# _framework density 19.426473000000001
#
# number of rings (size 3 to 8) (size 9 to 14) (size 15 to 20)
#    0.000    1.778    1.111    3.000    0.000    5.333 
#    0.000    2.222    0.000    0.000    0.000    0.000 
#    0.000    0.000    0.000    0.000    0.000    0.000 
#
# Total GULP energy -201173.468120 kJ/mol
# GULP energy per Si atom -5588.151892 kJ/mol
# Density = 1.938226 g / cm^3
# Si number density = 19.426473 Si / 1000 Ang^3
#
#
#
# Elastic Constant Matrix: (Units=GPa)
#
#
# Indices 1 2 3 4 5 6 
#
# 1 87.8168 8.6156 39.0915 0.0000 0.0000 0.0000
# 2 8.6156 51.5366 10.6016 0.0000 0.0000 0.0000
# 3 39.0915 10.6016 69.8036 0.0000 0.0000 0.0000
# 4 0.0000 0.0000 0.0000 40.1340 0.0000 0.0000
# 5 0.0000 0.0000 0.0000 0.0000 21.6702 0.0000
# 6 0.0000 0.0000 0.0000 0.0000 0.0000 -877.2789
#
#
#
# Elastic Compliance Matrix: (Units=1/GPa)
#
#
# Indices 1 2 3 4 5 6 
#
# 1 0.015202 -0.000816 -0.008390 0.000000 0.000000 0.000000
# 2 -0.000816 0.020073 -0.002592 0.000000 0.000000 0.000000
# 3 -0.008390 -0.002592 0.019418 0.000000 0.000000 0.000000
# 4 0.000000 0.000000 0.000000 0.024917 0.000000 0.000000
# 5 0.000000 0.000000 0.000000 0.000000 0.046146 0.000000
# 6 0.000000 0.000000 0.000000 0.000000 0.000000 -0.001140
#
#
# Mechanical properties :
#
#
# Convention : Reuss Voigt Hill
#
# Bulk Modulus (GPa) = 32.15542 36.19715 34.17629
# Shear Modulus (GPa) = 31.53058 -153.03836 -60.75389
#
# Velocity S-wave (km/s) = 4.03311 -8.88534 -5.59836
# Velocity P-wave (km/s) = 6.18678 9.30550 4.91508
#
# Compressibility (1/GPa) = 0.03109895
#
# Stress axis : x y z
#
# Youngs Moduli (GPa) = 65.78114 49.81765 51.49898
#
# Poissons Ratio (x) = 0.04063 0.43205
# Poissons Ratio (y) = 0.05365 0.13348
# Poissons Ratio (z) = 0.55187 0.12912
#
# Static dielectric constant tensor:
#      x y z
#    x 1.691680 0.000000 0.000000 
#    y 0.000000 1.648960 0.000000 
#    z 0.000000 0.000000 1.639530 
# 
# From -- ./inp_files/13900.got.cif
#   From: 2010.05.17/outbox.cif.g08.bks.cpg/sg63_7_cif.got.tgz:13900.got - 2010.06.03 15:47:04.
