data_PCOD9472414
_publ_section_title
;
Structure prediction by ZEFSAII (Michael W. Deem and Ramdas Pophale) SiO2 
 PCOD9472414
Probable space group: C M C M
;
_chemical_formula_sum "Si O2"
_cell_formula_units_Z 96
_cell_length_a 8.200915
_cell_length_b 21.249881
_cell_length_c 29.168483
_cell_angle_alpha 90.000000
_cell_angle_beta 90.000000
_cell_angle_gamma 90.000000
_cell_volume 5083.146842
_symmetry_space_group_name_H-M "C M C M"
_symmetry_group_IT_number 63
_symmetry_cell_setting 'orthorhombic'
loop_
_space_group_symop_operation_xyz
x,y,z
-x,-y,1/2+z
x,-y,-z
-x,y,1/2-z
-x,-y,-z
x,y,1/2-z
-x,y,z
x,-y,1/2+z
1/2+x,1/2+y,z
1/2-x,1/2-y,1/2+z
1/2+x,1/2-y,-z
1/2-x,1/2+y,1/2-z
1/2-x,1/2-y,-z
1/2+x,1/2+y,1/2-z
1/2-x,1/2+y,z
1/2+x,1/2-y,1/2+z
loop_
_atom_site_type_symbol
_atom_site_label
_atom_site_fract_x
_atom_site_fract_y
_atom_site_fract_z
Si Si1 0.803499 0.428590 0.698766
Si Si2 0.194809 0.376332 0.105349
Si Si3 0.804912 0.071701 0.698149
Si Si4 0.800868 0.501442 0.052728
Si Si5 0.800399 0.372380 0.894551
Si Si6 0.194682 0.248242 0.552704
O O1 0.741589 0.414164 0.750000
O O2 0.759592 0.501153 0.688280
O O3 0.746371 0.383810 0.657776
O O4 0.000000 0.425062 0.699773
O O5 0.247998 0.382121 0.158128
O O6 0.255294 0.439564 0.079715
O O7 0.253792 0.315051 0.078618
O O8 0.000000 0.377041 0.103715
O O9 0.750427 0.088176 0.750000
O O10 0.000000 0.069472 0.697949
O O11 0.750182 0.565818 0.077111
O O12 0.000000 0.500726 0.053333
O O13 0.748961 0.500000 0.000000
O O14 0.743256 0.309152 0.919262
O O15 0.000000 0.371244 0.894449
O O16 0.250000 0.250000 0.500000
O O17 0.000000 0.251398 0.552596
#
# Coordination Sequence:
#
# PCOD9472414 Si02
#       6
#    16  16  16  16  16  16
#     4   9  16  30  55  83 107 136 180 227 271 325
#     4  11  21  36  59  83 111 147 188 234 281 334
#     4  10  20  34  54  83 118 150 180 223 281 335
#     4   9  16  28  51  79 103 133 180 230 272 320
#     4   9  17  32  53  79 107 142 185 227 271 326
#     4  11  23  39  58  79 112 152 191 233 282 340
#
# _framework density 18.885937999999999
#
# number of rings (size 3 to 8) (size 9 to 14) (size 15 to 20)
#    0.000    2.167    1.667    2.500    0.000    3.667 
#    0.000    2.500    0.000    5.000    0.000    0.000 
#    0.000    0.000    0.000    0.000    0.000    0.000 
#
# Total GULP energy -267898.868837 kJ/mol
# GULP energy per Si atom -5581.226434 kJ/mol
# Density = 1.884295 g / cm^3
# Si number density = 18.885938 Si / 1000 Ang^3
#
#
#
# Elastic Constant Matrix: (Units=GPa)
#
#
# Indices 1 2 3 4 5 6 
#
# 1 19.4241 13.4674 18.1988 0.0000 0.0000 0.0000
# 2 13.4674 143.8008 95.9777 0.0000 0.0000 0.0000
# 3 18.1988 95.9777 187.2500 0.0000 0.0000 0.0000
# 4 0.0000 0.0000 0.0000 34.8157 0.0000 0.0000
# 5 0.0000 0.0000 0.0000 0.0000 21.8501 0.0000
# 6 0.0000 0.0000 0.0000 0.0000 0.0000 21.8889
#
#
#
# Elastic Compliance Matrix: (Units=1/GPa)
#
#
# Indices 1 2 3 4 5 6 
#
# 1 0.057227 -0.002504 -0.004278 0.000000 0.000000 0.000000
# 2 -0.002504 0.010680 -0.005231 0.000000 0.000000 0.000000
# 3 -0.004278 -0.005231 0.008437 0.000000 0.000000 0.000000
# 4 0.000000 0.000000 0.000000 0.028723 0.000000 0.000000
# 5 0.000000 0.000000 0.000000 0.000000 0.045766 0.000000
# 6 0.000000 0.000000 0.000000 0.000000 0.000000 0.045685
#
#
# Mechanical properties :
#
#
# Convention : Reuss Voigt Hill
#
# Bulk Modulus (GPa) = 19.11391 67.30697 43.21044
# Shear Modulus (GPa) = 21.00984 30.56635 25.78809
#
# Velocity S-wave (km/s) = 3.33897 4.02739 3.69923
# Velocity P-wave (km/s) = 5.00077 7.57248 6.41678
#
# Compressibility (1/GPa) = 0.05231792
#
# Stress axis : x y z
#
# Youngs Moduli (GPa) = 17.47427 93.63561 118.52082
#
# Poissons Ratio (x) = 0.23445 0.50709
# Poissons Ratio (y) = 0.04375 0.61994
# Poissons Ratio (z) = 0.07476 0.48978
#
# Static dielectric constant tensor:
#      x y z
#    x 1.668350 0.000000 0.000000 
#    y 0.000000 1.600900 0.000000 
#    z 0.000000 0.000000 1.666550 
# 
# From -- ./inp_files/66982.got.cif
#   From: 2010.05.17/outbox.cif.g08.bks.cpg/sg63_34_cif.got.tgz:66982.got - 2010.06.03 15:47:04.
