data_PCOD9472589
_publ_section_title
;
Structure prediction by ZEFSAII (Michael W. Deem and Ramdas Pophale) SiO2 
 PCOD9472589
Probable space group: C M C M
;
_chemical_formula_sum "Si O2"
_cell_formula_units_Z 120
_cell_length_a 22.800600
_cell_length_b 26.391944
_cell_length_c 11.266920
_cell_angle_alpha 90.000000
_cell_angle_beta 90.000000
_cell_angle_gamma 90.000000
_cell_volume 6779.893428
_symmetry_space_group_name_H-M "C M C M"
_symmetry_group_IT_number 63
_symmetry_cell_setting 'orthorhombic'
loop_
_space_group_symop_operation_xyz
x,y,z
-x,-y,1/2+z
x,-y,-z
-x,y,1/2-z
-x,-y,-z
x,y,1/2-z
-x,y,z
x,-y,1/2+z
1/2+x,1/2+y,z
1/2-x,1/2-y,1/2+z
1/2+x,1/2-y,-z
1/2-x,1/2+y,1/2-z
1/2-x,1/2-y,-z
1/2+x,1/2+y,1/2-z
1/2-x,1/2+y,z
1/2+x,1/2-y,1/2+z
loop_
_atom_site_type_symbol
_atom_site_label
_atom_site_fract_x
_atom_site_fract_y
_atom_site_fract_z
Si Si1 0.350661 0.632642 0.113204
Si Si2 0.065638 0.421240 0.109970
Si Si3 0.787255 0.241603 0.120259
Si Si4 0.644956 0.169543 0.533007
Si Si5 0.063872 0.740017 0.112933
Si Si6 0.222941 0.408379 0.613143
Si Si7 0.430939 0.638479 0.613305
Si Si8 0.656328 0.000000 0.500000
O O1 0.373713 0.626677 0.250000
O O2 0.326497 0.690851 0.105819
O O3 0.292710 0.597877 0.101280
O O4 0.393654 0.621623 0.002114
O O5 0.060717 0.425069 0.250000
O O6 0.094330 0.367367 0.079283
O O7 0.112185 0.463215 0.069676
O O8 0.000000 0.427153 0.057477
O O9 0.756413 0.235775 0.250000
O O10 0.824789 0.293052 0.125251
O O11 0.750000 0.250000 0.000000
O O12 0.615199 0.208633 0.443701
O O13 0.692280 0.133717 0.469075
O O14 0.061119 0.725933 0.250000
O O15 0.072469 0.800284 0.107983
O O16 0.000000 0.728835 0.057229
O O17 0.207805 0.397957 0.750000
O O18 0.197224 0.462900 0.577162
O O19 0.412479 0.624078 0.750000
O O20 0.500000 0.624894 0.601848
#
# Coordination Sequence:
#
# PCOD9472589 Si02
#       8
#    16  16  16  16  16  16  16   8
#     4  10  20  35  52  78 111 143 182 225 270 327
#     4  10  21  36  53  74 101 134 175 226 278 325
#     4  11  22  34  49  73 108 148 187 225 271 329
#     4  11  19  32  50  73 104 143 181 222 268 326
#     4   9  17  28  44  68  99 139 185 223 253 294
#     4  10  21  36  54  78 104 134 175 228 285 335
#     4   9  18  33  52  76 108 147 185 217 251 302
#     4  10  21  38  60  76  97 132 176 228 286 340
#
# _framework density 17.699394000000002
#
# number of rings (size 3 to 8) (size 9 to 14) (size 15 to 20)
#    0.000    2.000    2.667    2.600    0.000    1.333 
#    0.000    1.333    0.000    6.400    0.000    0.467 
#    0.000    0.000    0.000    0.000    0.000    0.000 
#
# Total GULP energy -334105.691328 kJ/mol
# GULP energy per Si atom -5568.428189 kJ/mol
# Density = 1.765911 g / cm^3
# Si number density = 17.699394 Si / 1000 Ang^3
#
#
#
# Elastic Constant Matrix: (Units=GPa)
#
#
# Indices 1 2 3 4 5 6 
#
# 1 76.5553 31.9725 61.3171 0.0000 0.0000 0.0000
# 2 31.9725 56.2729 17.5638 0.0000 0.0000 0.0000
# 3 61.3171 17.5638 121.0267 0.0000 0.0000 0.0000
# 4 0.0000 0.0000 0.0000 -0.2267 0.0000 0.0000
# 5 0.0000 0.0000 0.0000 0.0000 27.7374 0.0000
# 6 0.0000 0.0000 0.0000 0.0000 0.0000 21.6717
#
#
#
# Elastic Compliance Matrix: (Units=1/GPa)
#
#
# Indices 1 2 3 4 5 6 
#
# 1 0.028106 -0.012071 -0.012488 0.000000 0.000000 0.000000
# 2 -0.012071 0.023798 0.002662 0.000000 0.000000 0.000000
# 3 -0.012488 0.002662 0.014203 0.000000 0.000000 0.000000
# 4 0.000000 0.000000 0.000000 -4.411481 0.000000 0.000000
# 5 0.000000 0.000000 0.000000 0.000000 0.036052 0.000000
# 6 0.000000 0.000000 0.000000 0.000000 0.000000 0.046143
#
#
# Mechanical properties :
#
#
# Convention : Reuss Voigt Hill
#
# Bulk Modulus (GPa) = 44.81616 52.84017 48.82817
# Shear Modulus (GPa) = -1.18710 19.36992 9.09141
#
# Velocity S-wave (km/s) = -0.81985 3.31174 2.26886
# Velocity P-wave (km/s) = 4.94768 6.67402 5.87461
#
# Compressibility (1/GPa) = 0.02231338
#
# Stress axis : x y z
#
# Youngs Moduli (GPa) = 35.57955 42.02008 70.40687
#
# Poissons Ratio (x) = 0.50724 0.87923
# Poissons Ratio (y) = 0.42949 -0.18743
# Poissons Ratio (z) = 0.44431 -0.11186
#
# Static dielectric constant tensor:
#      x y z
#    x 1.678180 0.000000 0.000000 
#    y 0.000000 1.061050 0.000000 
#    z 0.000000 0.000000 1.636250 
# 
# From -- ./inp_files/23191.got.cif
#   From: 2010.05.17/outbox.cif.g08.bks.cpg/sg63_12_cif.got.tgz:23191.got - 2010.06.03 15:47:04.
