data_PCOD9472802
_publ_section_title
;
Structure prediction by ZEFSAII (Michael W. Deem and Ramdas Pophale) SiO2 
 PCOD9472802
Probable space group: C M C M
;
_chemical_formula_sum "Si O2"
_cell_formula_units_Z 80
_cell_length_a 26.006361
_cell_length_b 8.998469
_cell_length_c 16.730681
_cell_angle_alpha 90.000000
_cell_angle_beta 90.000000
_cell_angle_gamma 90.000000
_cell_volume 3915.271024
_symmetry_space_group_name_H-M "C M C M"
_symmetry_group_IT_number 63
_symmetry_cell_setting 'orthorhombic'
loop_
_space_group_symop_operation_xyz
x,y,z
-x,-y,1/2+z
x,-y,-z
-x,y,1/2-z
-x,-y,-z
x,y,1/2-z
-x,y,z
x,-y,1/2+z
1/2+x,1/2+y,z
1/2-x,1/2-y,1/2+z
1/2+x,1/2-y,-z
1/2-x,1/2+y,1/2-z
1/2-x,1/2-y,-z
1/2+x,1/2+y,1/2-z
1/2-x,1/2+y,z
1/2+x,1/2-y,1/2+z
loop_
_atom_site_type_symbol
_atom_site_label
_atom_site_fract_x
_atom_site_fract_y
_atom_site_fract_z
Si Si1 0.842308 0.654647 0.340871
Si Si2 0.359258 0.118841 0.929889
Si Si3 0.941704 0.871671 0.569992
Si Si4 0.147313 0.044592 0.906990
Si Si5 0.779348 0.828605 0.657764
O O1 0.850761 0.700571 0.250000
O O2 0.866759 0.495014 0.356680
O O3 0.781013 0.653827 0.356174
O O4 0.862647 0.782915 0.398242
O O5 0.409433 0.220633 0.946437
O O6 0.311152 0.222759 0.903104
O O7 0.347343 0.000000 0.000000
O O8 0.901606 0.955456 0.627523
O O9 0.000000 0.841975 0.594474
O O10 0.944695 0.000000 0.500000
O O11 0.195979 0.990797 0.856943
O O12 0.156425 0.000000 0.000000
O O13 0.787261 0.781218 0.750000
#
# Coordination Sequence:
#
# PCOD9472802 Si02
#       5
#    16  16  16  16  16
#     4  11  22  36  55  82 119 158 189 226 283 341
#     4  11  22  35  57  88 115 142 188 243 285 324
#     4   9  19  38  61  82 107 141 185 234 286 345
#     4  10  20  35  57  84 110 143 193 240 277 325
#     4  10  21  36  54  78 115 162 194 216 268 343
#
# _framework density 20.432811999999998
#
# number of rings (size 3 to 8) (size 9 to 14) (size 15 to 20)
#    0.000    1.800    0.000    6.000    0.000    8.400 
#    0.000    1.000    0.000   22.800    0.000    0.000 
#    0.000    0.000    0.000    0.000    0.000    0.000 
#
# Total GULP energy -222752.025367 kJ/mol
# GULP energy per Si atom -5568.800634 kJ/mol
# Density = 2.038631 g / cm^3
# Si number density = 20.432812 Si / 1000 Ang^3
#
#
#
# Elastic Constant Matrix: (Units=GPa)
#
#
# Indices 1 2 3 4 5 6 
#
# 1 103.2990 38.9002 45.4263 0.0000 0.0000 0.0000
# 2 38.9002 132.8682 25.2433 0.0000 0.0000 0.0000
# 3 45.4263 25.2433 54.0231 0.0000 0.0000 0.0000
# 4 0.0000 0.0000 0.0000 28.6265 0.0000 0.0000
# 5 0.0000 0.0000 0.0000 0.0000 145.7773 0.0000
# 6 0.0000 0.0000 0.0000 0.0000 0.0000 20.6736
#
#
#
# Elastic Compliance Matrix: (Units=1/GPa)
#
#
# Indices 1 2 3 4 5 6 
#
# 1 0.015995 -0.002335 -0.012358 0.000000 0.000000 0.000000
# 2 -0.002335 0.008600 -0.002055 0.000000 0.000000 0.000000
# 3 -0.012358 -0.002055 0.029863 0.000000 0.000000 0.000000
# 4 0.000000 0.000000 0.000000 0.034933 0.000000 0.000000
# 5 0.000000 0.000000 0.000000 0.000000 0.006860 0.000000
# 6 0.000000 0.000000 0.000000 0.000000 0.000000 0.048371
#
#
# Mechanical properties :
#
#
# Convention : Reuss Voigt Hill
#
# Bulk Modulus (GPa) = 47.70863 56.59221 52.15042
# Shear Modulus (GPa) = 27.01173 51.05685 39.03429
#
# Velocity S-wave (km/s) = 3.63985 5.00419 4.37552
# Velocity P-wave (km/s) = 6.40815 7.81960 7.14879
#
# Compressibility (1/GPa) = 0.02096057
#
# Stress axis : x y z
#
# Youngs Moduli (GPa) = 62.52140 116.27460 33.48654
#
# Poissons Ratio (x) = 0.27148 0.41384
# Poissons Ratio (y) = 0.14598 0.06883
# Poissons Ratio (z) = 0.77266 0.23899
#
# Static dielectric constant tensor:
#      x y z
#    x 1.734210 0.000000 0.000000 
#    y 0.000000 1.827530 0.000000 
#    z 0.000000 0.000000 1.829250 
# 
# From -- ./inp_files/48788.got.cif
#   From: 2010.05.17/outbox.cif.g08.bks.cpg/sg63_25_cif.got.tgz:48788.got - 2010.06.03 15:47:04.
