data_PCOD9472504
_publ_section_title
;
Structure prediction by ZEFSAII (Michael W. Deem and Ramdas Pophale) SiO2 
 PCOD9472504
Probable space group: C M C M
;
_chemical_formula_sum "Si O2"
_cell_formula_units_Z 64
_cell_length_a 8.286021
_cell_length_b 22.323822
_cell_length_c 16.439508
_cell_angle_alpha 90.000000
_cell_angle_beta 90.000000
_cell_angle_gamma 90.000000
_cell_volume 3040.908808
_symmetry_space_group_name_H-M "C M C M"
_symmetry_group_IT_number 63
_symmetry_cell_setting 'orthorhombic'
loop_
_space_group_symop_operation_xyz
x,y,z
-x,-y,1/2+z
x,-y,-z
-x,y,1/2-z
-x,-y,-z
x,y,1/2-z
-x,y,z
x,-y,1/2+z
1/2+x,1/2+y,z
1/2-x,1/2-y,1/2+z
1/2+x,1/2-y,-z
1/2-x,1/2+y,1/2-z
1/2-x,1/2-y,-z
1/2+x,1/2+y,1/2-z
1/2-x,1/2+y,z
1/2+x,1/2-y,1/2+z
loop_
_atom_site_type_symbol
_atom_site_label
_atom_site_fract_x
_atom_site_fract_y
_atom_site_fract_z
Si Si1 0.316329 0.330611 0.929644
Si Si2 0.177833 0.788757 0.382507
Si Si3 0.500000 0.025643 0.907836
Si Si4 0.000000 0.353615 0.163332
Si Si5 0.320579 0.471312 0.909318
O O1 0.500000 0.318829 0.901141
O O2 0.199446 0.282928 0.887818
O O3 0.285084 0.400585 0.916894
O O4 0.314856 0.314586 0.025359
O O5 0.337019 0.815383 0.341856
O O6 0.000000 0.804108 0.349781
O O7 0.500000 0.097091 0.907100
O O8 0.666953 0.002860 0.869086
O O9 0.500000 0.000000 0.000000
O O10 0.000000 0.386302 0.250000
O O11 0.500000 0.479246 0.872727
O O12 0.330974 0.500000 0.000000
#
# Coordination Sequence:
#
# PCOD9472504 Si02
#       5
#    16  16   8   8  16
#     4   9  17  31  55  90 125 145 188 255 309 347
#     4  10  20  34  56  85 118 156 195 243 299 365
#     4  10  20  34  58  84 110 151 202 249 294 353
#     4  12  26  42  58  84 127 163 200 249 314 379
#     4   9  17  29  48  82 118 147 182 237 295 342
#
# _framework density 21.046340000000001
#
# number of rings (size 3 to 8) (size 9 to 14) (size 15 to 20)
#    0.000    2.250    1.250    3.000    3.500    3.500 
#    0.000    0.000    0.000    1.500    0.000    0.000 
#    0.000    0.000    0.000    0.000    0.000    0.000 
#
# Total GULP energy -178386.129714 kJ/mol
# GULP energy per Si atom -5574.566554 kJ/mol
# Density = 2.099844 g / cm^3
# Si number density = 21.046340 Si / 1000 Ang^3
#
#
#
# Elastic Constant Matrix: (Units=GPa)
#
#
# Indices 1 2 3 4 5 6 
#
# 1 203.6257 63.2044 15.7944 0.0000 0.0000 0.0000
# 2 63.2044 108.2131 7.7266 0.0000 0.0000 0.0000
# 3 15.7944 7.7266 20.8542 0.0000 0.0000 0.0000
# 4 0.0000 0.0000 0.0000 1.7400 0.0000 0.0000
# 5 0.0000 0.0000 0.0000 0.0000 -11.9203 0.0000
# 6 0.0000 0.0000 0.0000 0.0000 0.0000 25.5019
#
#
#
# Elastic Compliance Matrix: (Units=1/GPa)
#
#
# Indices 1 2 3 4 5 6 
#
# 1 0.006233 -0.003393 -0.003463 0.000000 0.000000 0.000000
# 2 -0.003393 0.011339 -0.001631 0.000000 0.000000 0.000000
# 3 -0.003463 -0.001631 0.051180 0.000000 0.000000 0.000000
# 4 0.000000 0.000000 0.000000 0.574718 0.000000 0.000000
# 5 0.000000 0.000000 0.000000 0.000000 -0.083890 0.000000
# 6 0.000000 0.000000 0.000000 0.000000 0.000000 0.039213
#
#
# Mechanical properties :
#
#
# Convention : Reuss Voigt Hill
#
# Bulk Modulus (GPa) = 19.31402 56.23821 37.77611
# Shear Modulus (GPa) = 7.89856 19.46215 13.68036
#
# Velocity S-wave (km/s) = 1.93935 3.04423 2.55230
# Velocity P-wave (km/s) = 3.76983 6.25585 5.16465
#
# Compressibility (1/GPa) = 0.05177585
#
# Stress axis : x y z
#
# Youngs Moduli (GPa) = 160.44078 88.18844 19.53904
#
# Poissons Ratio (x) = 0.29924 0.06767
# Poissons Ratio (y) = 0.54440 0.03188
# Poissons Ratio (z) = 0.55567 0.14387
#
# Static dielectric constant tensor:
#      x y z
#    x 1.825720 0.000000 0.000000 
#    y 0.000000 1.826780 0.000000 
#    z 0.000000 0.000000 1.754710 
# 
# From -- ./inp_files/39882.got.cif
#   From: 2010.05.17/outbox.cif.g08.bks.cpg/sg63_20_cif.got.tgz:39882.got - 2010.06.03 15:47:04.
