data_PCOD9472652
_publ_section_title
;
Structure prediction by ZEFSAII (Michael W. Deem and Ramdas Pophale) SiO2 
 PCOD9472652
Probable space group: C M C M
;
_chemical_formula_sum "Si O2"
_cell_formula_units_Z 80
_cell_length_a 15.653360
_cell_length_b 29.649428
_cell_length_c 8.008616
_cell_angle_alpha 90.000000
_cell_angle_beta 90.000000
_cell_angle_gamma 90.000000
_cell_volume 3716.904161
_symmetry_space_group_name_H-M "C M C M"
_symmetry_group_IT_number 63
_symmetry_cell_setting 'orthorhombic'
loop_
_space_group_symop_operation_xyz
x,y,z
-x,-y,1/2+z
x,-y,-z
-x,y,1/2-z
-x,-y,-z
x,y,1/2-z
-x,y,z
x,-y,1/2+z
1/2+x,1/2+y,z
1/2-x,1/2-y,1/2+z
1/2+x,1/2-y,-z
1/2-x,1/2+y,1/2-z
1/2-x,1/2-y,-z
1/2+x,1/2+y,1/2-z
1/2-x,1/2+y,z
1/2+x,1/2-y,1/2+z
loop_
_atom_site_type_symbol
_atom_site_label
_atom_site_fract_x
_atom_site_fract_y
_atom_site_fract_z
Si Si1 0.401656 0.315278 0.934901
Si Si2 0.662835 0.773610 0.556335
Si Si3 0.900633 0.370242 0.544938
Si Si4 0.774622 0.549486 0.450848
Si Si5 0.901488 0.911923 0.545135
O O1 0.363189 0.308974 0.750000
O O2 0.500000 0.327387 0.915479
O O3 0.368483 0.361853 0.010713
O O4 0.399927 0.267979 0.025651
O O5 0.669319 0.782163 0.750000
O O6 0.750000 0.750000 0.500000
O O7 0.634386 0.821481 0.482460
O O8 0.900197 0.369933 0.750000
O O9 0.837950 0.410641 0.491081
O O10 0.000000 0.375798 0.495409
O O11 0.805434 0.500000 0.500000
O O12 0.772754 0.552477 0.250000
O O13 0.675934 0.555992 0.508674
O O14 0.903356 0.910892 0.750000
O O15 0.000000 0.921702 0.490762
#
# Coordination Sequence:
#
# PCOD9472652 Si02
#       5
#    16  16  16  16  16
#     4   9  17  31  52  77 105 137 172 207 247 303
#     4  11  21  33  52  77 106 139 176 215 258 311
#     4   9  19  36  56  76 101 138 180 216 257 318
#     4  10  20  35  55  76  99 130 173 223 270 315
#     4   8  15  30  52  76 105 143 178 204 245 317
#
# _framework density 21.523288000000001
#
# number of rings (size 3 to 8) (size 9 to 14) (size 15 to 20)
#    0.000    2.600    0.000    3.600    0.000    5.200 
#    0.000    5.000    0.000    3.600    0.000    0.000 
#    0.000    0.000    0.000    0.000    0.000    0.000 
#
# Total GULP energy -222701.896100 kJ/mol
# GULP energy per Si atom -5567.547403 kJ/mol
# Density = 2.147430 g / cm^3
# Si number density = 21.523288 Si / 1000 Ang^3
#
#
#
# Elastic Constant Matrix: (Units=GPa)
#
#
# Indices 1 2 3 4 5 6 
#
# 1 110.1324 66.3913 11.2201 0.0000 0.0000 0.0000
# 2 66.3913 148.7971 2.0251 0.0000 0.0000 0.0000
# 3 11.2201 2.0251 8.0469 0.0000 0.0000 0.0000
# 4 0.0000 0.0000 0.0000 19.6742 0.0000 0.0000
# 5 0.0000 0.0000 0.0000 0.0000 7.2013 0.0000
# 6 0.0000 0.0000 0.0000 0.0000 0.0000 24.1181
#
#
#
# Elastic Compliance Matrix: (Units=1/GPa)
#
#
# Indices 1 2 3 4 5 6 
#
# 1 0.014873 -0.006376 -0.019133 0.000000 0.000000 0.000000
# 2 -0.006376 0.009477 0.006505 0.000000 0.000000 0.000000
# 3 -0.019133 0.006505 0.149311 0.000000 0.000000 0.000000
# 4 0.000000 0.000000 0.000000 0.050828 0.000000 0.000000
# 5 0.000000 0.000000 0.000000 0.000000 0.138864 0.000000
# 6 0.000000 0.000000 0.000000 0.000000 0.000000 0.041463
#
#
# Mechanical properties :
#
#
# Convention : Reuss Voigt Hill
#
# Bulk Modulus (GPa) = 7.37175 47.36104 27.36640
# Shear Modulus (GPa) = 10.24507 22.68804 16.46655
#
# Velocity S-wave (km/s) = 2.18411 3.25024 2.76897
# Velocity P-wave (km/s) = 3.12936 6.01147 4.79221
#
# Compressibility (1/GPa) = 0.13565303
#
# Stress axis : x y z
#
# Youngs Moduli (GPa) = 67.23784 105.52169 6.69743
#
# Poissons Ratio (x) = 0.67276 0.12814
# Poissons Ratio (y) = 0.42868 -0.04356
# Poissons Ratio (z) = 1.28644 -0.68638
#
# Static dielectric constant tensor:
#      x y z
#    x 1.374890 0.000000 0.000000 
#    y 0.000000 1.841290 0.000000 
#    z 0.000000 0.000000 1.794280 
# 
# From -- ./inp_files/6357.got.cif
#   From: 2010.05.17/outbox.cif.g08.bks.cpg/sg63_4_cif.got.tgz:6357.got - 2010.06.03 15:47:04.
