data_PCOD9473565
_publ_section_title
;
Structure prediction by ZEFSAII (Michael W. Deem and Ramdas Pophale) SiO2 
 PCOD9473565
Probable space group: C M C M
;
_chemical_formula_sum "Si O2"
_cell_formula_units_Z 64
_cell_length_a 12.245286
_cell_length_b 14.574306
_cell_length_c 18.518870
_cell_angle_alpha 90.000000
_cell_angle_beta 90.000000
_cell_angle_gamma 90.000000
_cell_volume 3304.998750
_symmetry_space_group_name_H-M "C M C M"
_symmetry_group_IT_number 63
_symmetry_cell_setting 'orthorhombic'
loop_
_space_group_symop_operation_xyz
x,y,z
-x,-y,1/2+z
x,-y,-z
-x,y,1/2-z
-x,-y,-z
x,y,1/2-z
-x,y,z
x,-y,1/2+z
1/2+x,1/2+y,z
1/2-x,1/2-y,1/2+z
1/2+x,1/2-y,-z
1/2-x,1/2+y,1/2-z
1/2-x,1/2-y,-z
1/2+x,1/2+y,1/2-z
1/2-x,1/2+y,z
1/2+x,1/2-y,1/2+z
loop_
_atom_site_type_symbol
_atom_site_label
_atom_site_fract_x
_atom_site_fract_y
_atom_site_fract_z
Si Si1 0.000000 0.849486 0.835574
Si Si2 0.000000 0.887804 0.494436
Si Si3 0.624634 0.969131 0.083391
Si Si4 0.283711 0.697004 0.927904
Si Si5 0.745640 0.871914 0.668068
O O1 0.876753 0.888506 0.833778
O O2 0.000000 0.804351 0.750000
O O3 0.000000 0.835666 0.926361
O O4 0.105610 0.855707 0.449057
O O5 0.000000 0.000000 0.500000
O O6 0.500000 0.957862 0.107186
O O7 0.691087 0.875919 0.091476
O O8 0.685684 0.048732 0.125366
O O9 0.624903 0.000000 0.000000
O O10 0.285955 0.774627 0.866999
O O11 0.250000 0.750000 0.000000
O O12 0.709492 0.873114 0.750000
#
# Coordination Sequence:
#
# PCOD9473565 Si02
#       5
#     8   8  16  16  16
#     4  10  20  38  66  93 131 175 222 278 336 394
#     4  12  24  42  68 102 134 178 232 286 342 407
#     4  11  24  42  68  99 136 179 226 281 341 407
#     4  12  24  40  70 102 133 180 233 282 335 414
#     4  11  25  44  67 102 142 180 225 287 348 403
#
# _framework density 19.364605999999998
#
# number of rings (size 3 to 8) (size 9 to 14) (size 15 to 20)
#    0.000    0.750    5.000    2.250    5.250    1.500 
#    0.000    1.250    0.000    0.000    0.000    0.000 
#    0.000    0.000    0.000    0.000    0.000    0.000 
#
# Total GULP energy -178204.094591 kJ/mol
# GULP energy per Si atom -5568.877956 kJ/mol
# Density = 1.932053 g / cm^3
# Si number density = 19.364606 Si / 1000 Ang^3
#
#
#
# Elastic Constant Matrix: (Units=GPa)
#
#
# Indices 1 2 3 4 5 6 
#
# 1 164.2439 80.9528 44.2837 0.0000 0.0000 0.0000
# 2 80.9528 152.3389 37.6973 0.0000 0.0000 0.0000
# 3 44.2837 37.6973 105.2540 0.0000 0.0000 0.0000
# 4 0.0000 0.0000 0.0000 26.0553 0.0000 0.0000
# 5 0.0000 0.0000 0.0000 0.0000 -42.5932 0.0000
# 6 0.0000 0.0000 0.0000 0.0000 0.0000 9.8063
#
#
#
# Elastic Compliance Matrix: (Units=1/GPa)
#
#
# Indices 1 2 3 4 5 6 
#
# 1 0.008689 -0.004074 -0.002197 0.000000 0.000000 0.000000
# 2 -0.004074 0.009112 -0.001550 0.000000 0.000000 0.000000
# 3 -0.002197 -0.001550 0.010980 0.000000 0.000000 0.000000
# 4 0.000000 0.000000 0.000000 0.038380 0.000000 0.000000
# 5 0.000000 0.000000 0.000000 0.000000 -0.023478 0.000000
# 6 0.000000 0.000000 0.000000 0.000000 0.000000 0.101975
#
#
# Mechanical properties :
#
#
# Convention : Reuss Voigt Hill
#
# Bulk Modulus (GPa) = 76.09638 83.07826 79.58732
# Shear Modulus (GPa) = 30.17895 15.91388 23.04642
#
# Velocity S-wave (km/s) = 3.95202 2.86982 3.45357
# Velocity P-wave (km/s) = 7.75929 7.34686 7.55589
#
# Compressibility (1/GPa) = 0.01314123
#
# Stress axis : x y z
#
# Youngs Moduli (GPa) = 115.09450 109.73948 91.07398
#
# Poissons Ratio (x) = 0.44702 0.20005
# Poissons Ratio (y) = 0.46884 0.14115
# Poissons Ratio (z) = 0.25281 0.17008
#
# Static dielectric constant tensor:
#      x y z
#    x 1.665950 0.000000 0.000000 
#    y 0.000000 1.751430 0.000000 
#    z 0.000000 0.000000 1.761380 
# 
# From -- ./inp_files/41547.got.cif
#   From: 2010.05.17/outbox.cif.g08.bks.cpg/sg63_21_cif.got.tgz:41547.got - 2010.06.03 15:47:04.
