data_PCOD9473667
_publ_section_title
;
Structure prediction by ZEFSAII (Michael W. Deem and Ramdas Pophale) SiO2 
 PCOD9473667
Probable space group: C M C M
;
_chemical_formula_sum "Si O2"
_cell_formula_units_Z 88
_cell_length_a 21.716019
_cell_length_b 22.392043
_cell_length_c 9.775320
_cell_angle_alpha 90.000000
_cell_angle_beta 90.000000
_cell_angle_gamma 90.000000
_cell_volume 4753.406060
_symmetry_space_group_name_H-M "C M C M"
_symmetry_group_IT_number 63
_symmetry_cell_setting 'orthorhombic'
loop_
_space_group_symop_operation_xyz
x,y,z
-x,-y,1/2+z
x,-y,-z
-x,y,1/2-z
-x,-y,-z
x,y,1/2-z
-x,y,z
x,-y,1/2+z
1/2+x,1/2+y,z
1/2-x,1/2-y,1/2+z
1/2+x,1/2-y,-z
1/2-x,1/2+y,1/2-z
1/2-x,1/2-y,-z
1/2+x,1/2+y,1/2-z
1/2-x,1/2+y,z
1/2+x,1/2-y,1/2+z
loop_
_atom_site_type_symbol
_atom_site_label
_atom_site_fract_x
_atom_site_fract_y
_atom_site_fract_z
Si Si1 0.311717 0.745768 0.090361
Si Si2 0.072611 0.099933 0.750000
Si Si3 0.426241 0.457300 0.750000
Si Si4 0.500000 0.937139 0.418819
Si Si5 0.615669 0.857227 0.091989
Si Si6 0.143432 0.116211 0.481369
Si Si7 0.732545 0.943958 0.408344
O O1 0.297773 0.760941 0.250000
O O2 0.362646 0.793118 0.036219
O O3 0.250000 0.750000 0.000000
O O4 0.338156 0.679130 0.084020
O O5 0.103092 0.126671 0.615665
O O6 0.000000 0.108293 0.750000
O O7 0.084846 0.028296 0.750000
O O8 0.500000 0.447824 0.750000
O O9 0.394639 0.426297 0.619841
O O10 0.500000 0.946298 0.250000
O O11 0.440430 0.897529 0.460423
O O12 0.500000 0.000000 0.500000
O O13 0.598398 0.845836 0.250000
O O14 0.677439 0.896654 0.087440
O O15 0.205777 0.083885 0.529348
O O16 0.743121 0.960870 0.250000
O O17 0.714742 0.000000 0.500000
#
# Coordination Sequence:
#
# PCOD9473667 Si02
#       7
#    16   8   8   8  16  16  16
#     4  11  23  42  64  89 126 163 209 261 314 376
#     4  11  24  42  63  86 128 171 202 253 321 379
#     4  11  24  44  63  92 124 161 214 263 311 369
#     4  10  20  40  68  92 126 164 203 251 310 372
#     4   9  20  39  61  90 120 163 202 248 315 366
#     4  12  23  39  62  92 121 162 213 257 313 373
#     4  11  22  36  59  89 122 154 203 261 313 373
#
# _framework density 18.513041999999999
#
# number of rings (size 3 to 8) (size 9 to 14) (size 15 to 20)
#    0.000    1.273    3.636    2.727    2.545    1.455 
#    3.273    0.909    0.000    0.000    0.000    0.000 
#    0.000    0.000    0.000    0.000    0.000    0.000 
#
# Total GULP energy -245645.266270 kJ/mol
# GULP energy per Si atom -5582.846961 kJ/mol
# Density = 1.847091 g / cm^3
# Si number density = 18.513042 Si / 1000 Ang^3
#
#
#
# Elastic Constant Matrix: (Units=GPa)
#
#
# Indices 1 2 3 4 5 6 
#
# 1 94.5379 12.6542 28.6049 0.0000 0.0000 0.0000
# 2 12.6542 66.7665 19.4620 0.0000 0.0000 0.0000
# 3 28.6049 19.4620 82.9392 0.0000 0.0000 0.0000
# 4 0.0000 0.0000 0.0000 -25.8822 0.0000 0.0000
# 5 0.0000 0.0000 0.0000 0.0000 50.1490 0.0000
# 6 0.0000 0.0000 0.0000 0.0000 0.0000 1310.4078
#
#
#
# Elastic Compliance Matrix: (Units=1/GPa)
#
#
# Indices 1 2 3 4 5 6 
#
# 1 0.011890 -0.001136 -0.003834 0.000000 0.000000 0.000000
# 2 -0.001136 0.016186 -0.003406 0.000000 0.000000 0.000000
# 3 -0.003834 -0.003406 0.014179 0.000000 0.000000 0.000000
# 4 0.000000 0.000000 0.000000 -0.038637 0.000000 0.000000
# 5 0.000000 0.000000 0.000000 0.000000 0.019941 0.000000
# 6 0.000000 0.000000 0.000000 0.000000 0.000000 0.000763
#
#
# Mechanical properties :
#
#
# Convention : Reuss Voigt Hill
#
# Bulk Modulus (GPa) = 39.21305 40.63175 39.92240
# Shear Modulus (GPa) = 100.85775 279.16975 190.01375
#
# Velocity S-wave (km/s) = 7.38902 12.29323 10.14202
# Velocity P-wave (km/s) = 9.69660 14.94970 12.59995
#
# Compressibility (1/GPa) = 0.02550171
#
# Stress axis : x y z
#
# Youngs Moduli (GPa) = 84.10474 61.78266 70.52831
#
# Poissons Ratio (x) = 0.07018 0.27042
# Poissons Ratio (y) = 0.09553 0.24024
# Poissons Ratio (z) = 0.32247 0.21045
#
# Static dielectric constant tensor:
#      x y z
#    x 1.623720 0.000000 0.000000 
#    y 0.000000 1.636200 0.000000 
#    z 0.000000 0.000000 1.633060 
# 
# From -- ./inp_files/10260.got.cif
#   From: 2010.05.17/outbox.cif.g08.bks.cpg/sg63_6_cif.got.tgz:10260.got - 2010.06.03 15:47:04.
