data_PCOD9473608
_publ_section_title
;
Structure prediction by ZEFSAII (Michael W. Deem and Ramdas Pophale) SiO2 
 PCOD9473608
Probable space group: C M C M
;
_chemical_formula_sum "Si O2"
_cell_formula_units_Z 96
_cell_length_a 14.668047
_cell_length_b 20.708451
_cell_length_c 17.564470
_cell_angle_alpha 90.000000
_cell_angle_beta 90.000000
_cell_angle_gamma 90.000000
_cell_volume 5335.252246
_symmetry_space_group_name_H-M "C M C M"
_symmetry_group_IT_number 63
_symmetry_cell_setting 'orthorhombic'
loop_
_space_group_symop_operation_xyz
x,y,z
-x,-y,1/2+z
x,-y,-z
-x,y,1/2-z
-x,-y,-z
x,y,1/2-z
-x,y,z
x,-y,1/2+z
1/2+x,1/2+y,z
1/2-x,1/2-y,1/2+z
1/2+x,1/2-y,-z
1/2-x,1/2+y,1/2-z
1/2-x,1/2-y,-z
1/2+x,1/2+y,1/2-z
1/2-x,1/2+y,z
1/2+x,1/2-y,1/2+z
loop_
_atom_site_type_symbol
_atom_site_label
_atom_site_fract_x
_atom_site_fract_y
_atom_site_fract_z
Si Si1 0.317714 0.260864 0.340683
Si Si2 0.802822 0.388708 0.340674
Si Si3 0.000000 0.663637 0.841488
Si Si4 0.190473 0.861190 0.658943
Si Si5 0.000000 0.191831 0.403667
Si Si6 0.185845 0.001682 0.090145
Si Si7 0.500000 0.448049 0.340879
Si Si8 0.000000 0.805929 0.415369
O O1 0.338475 0.260602 0.250000
O O2 0.254485 0.323390 0.355395
O O3 0.260527 0.196705 0.358695
O O4 0.409752 0.268876 0.387940
O O5 0.796347 0.401634 0.250000
O O6 0.758014 0.447539 0.385038
O O7 0.907815 0.374648 0.359763
O O8 0.000000 0.675838 0.750000
O O9 0.000000 0.732741 0.881846
O O10 0.189146 0.869989 0.750000
O O11 0.090436 0.839916 0.631232
O O12 0.215262 0.927802 0.618234
O O13 0.000000 0.184252 0.494394
O O14 0.090303 0.983951 0.130352
O O15 0.172579 0.000000 0.000000
O O16 0.500000 0.444505 0.250000
O O17 0.500000 0.375831 0.374761
#
# Coordination Sequence:
#
# PCOD9473608 Si02
#       8
#    16  16   8  16   8  16   8   8
#     4  10  21  39  64  87 119 161 206 248 291 356
#     4  10  20  39  66  90 116 159 207 251 293 352
#     4  10  20  39  66  93 114 148 216 264 286 342
#     4  11  23  40  61  88 121 160 205 252 299 354
#     4  12  23  36  60  92 128 156 188 254 320 356
#     4  12  25  40  59  91 127 161 197 249 309 366
#     4  12  22  39  64  85 118 164 210 250 288 356
#     4  12  24  36  58  96 128 158 196 244 302 368
#
# _framework density 17.993525999999999
#
# number of rings (size 3 to 8) (size 9 to 14) (size 15 to 20)
#    0.000    1.000    3.333    4.750    0.000    2.000 
#    0.000    1.250    0.000    2.000    0.000    0.000 
#    0.000    0.000    0.000    0.000    0.000    0.000 
#
# Total GULP energy -268474.360002 kJ/mol
# GULP energy per Si atom -5593.215833 kJ/mol
# Density = 1.795257 g / cm^3
# Si number density = 17.993526 Si / 1000 Ang^3
#
#
#
# Elastic Constant Matrix: (Units=GPa)
#
#
# Indices 1 2 3 4 5 6 
#
# 1 153.0130 130.7289 151.4884 0.0000 0.0000 0.0000
# 2 130.7289 286.3879 234.7361 0.0000 0.0000 0.0000
# 3 151.4884 234.7361 286.4856 0.0000 0.0000 0.0000
# 4 0.0000 0.0000 0.0000 39.9336 0.0000 0.0000
# 5 0.0000 0.0000 0.0000 0.0000 -22.7899 0.0000
# 6 0.0000 0.0000 0.0000 0.0000 0.0000 9.2261
#
#
#
# Elastic Compliance Matrix: (Units=1/GPa)
#
#
# Indices 1 2 3 4 5 6 
#
# 1 0.013804 -0.000969 -0.006505 0.000000 0.000000 0.000000
# 2 -0.000969 0.010700 -0.008255 0.000000 0.000000 0.000000
# 3 -0.006505 -0.008255 0.013694 0.000000 0.000000 0.000000
# 4 0.000000 0.000000 0.000000 0.025042 0.000000 0.000000
# 5 0.000000 0.000000 0.000000 0.000000 -0.043879 0.000000
# 6 0.000000 0.000000 0.000000 0.000000 0.000000 0.108388
#
#
# Mechanical properties :
#
#
# Convention : Reuss Voigt Hill
#
# Bulk Modulus (GPa) = 148.37361 195.53259 171.95310
# Shear Modulus (GPa) = 30.96871 19.20284 25.08577
#
# Velocity S-wave (km/s) = 4.15312 3.27036 3.73789
# Velocity P-wave (km/s) = 10.27795 11.09795 10.69581
#
# Compressibility (1/GPa) = 0.00673974
#
# Stress axis : x y z
#
# Youngs Moduli (GPa) = 72.44490 93.45524 73.02481
#
# Poissons Ratio (x) = 0.09059 0.47502
# Poissons Ratio (y) = 0.07022 0.60281
# Poissons Ratio (z) = 0.47124 0.77146
#
# Static dielectric constant tensor:
#      x y z
#    x 1.596470 0.000000 0.000000 
#    y 0.000000 1.598670 0.000000 
#    z 0.000000 0.000000 1.587060 
# 
# From -- ./inp_files/32007.got.cif
#   From: 2010.05.17/outbox.cif.g08.bks.cpg/sg63_17_cif.got.tgz:32007.got - 2010.06.03 15:47:04.
