data_PCOD9473978
_publ_section_title
;
Structure prediction by ZEFSAII (Michael W. Deem and Ramdas Pophale) SiO2 
 PCOD9473978
Probable space group: C M C M
;
_chemical_formula_sum "Si O2"
_cell_formula_units_Z 96
_cell_length_a 28.607863
_cell_length_b 14.886984
_cell_length_c 12.836663
_cell_angle_alpha 90.000000
_cell_angle_beta 90.000000
_cell_angle_gamma 90.000000
_cell_volume 5466.939638
_symmetry_space_group_name_H-M "C M C M"
_symmetry_group_IT_number 63
_symmetry_cell_setting 'orthorhombic'
loop_
_space_group_symop_operation_xyz
x,y,z
-x,-y,1/2+z
x,-y,-z
-x,y,1/2-z
-x,-y,-z
x,y,1/2-z
-x,y,z
x,-y,1/2+z
1/2+x,1/2+y,z
1/2-x,1/2-y,1/2+z
1/2+x,1/2-y,-z
1/2-x,1/2+y,1/2-z
1/2-x,1/2-y,-z
1/2+x,1/2+y,1/2-z
1/2-x,1/2+y,z
1/2+x,1/2-y,1/2+z
loop_
_atom_site_type_symbol
_atom_site_label
_atom_site_fract_x
_atom_site_fract_y
_atom_site_fract_z
Si Si1 0.895343 0.242995 0.872999
Si Si2 0.054717 0.105012 0.022806
Si Si3 0.053214 0.146175 0.250000
Si Si4 0.610419 0.100190 0.959432
Si Si5 0.715102 0.739184 0.865814
Si Si6 0.220513 0.603478 0.530782
Si Si7 0.053238 0.360557 0.250000
O O1 0.908101 0.254906 0.750000
O O2 0.840090 0.221917 0.876202
O O3 0.921912 0.163193 0.932221
O O4 0.902018 0.330245 0.947430
O O5 0.075223 0.120366 0.138999
O O6 0.000000 0.132103 0.027219
O O7 0.057552 0.000000 0.000000
O O8 0.050417 0.252998 0.250000
O O9 0.000000 0.107253 0.250000
O O10 0.666026 0.109477 0.936071
O O11 0.580739 0.114245 0.855021
O O12 0.602842 0.000000 0.000000
O O13 0.725519 0.768615 0.750000
O O14 0.744079 0.648873 0.888452
O O15 0.726164 0.825170 0.936942
O O16 0.229984 0.500000 0.500000
O O17 0.000000 0.396273 0.250000
#
# Coordination Sequence:
#
# PCOD9473978 Si02
#       7
#    16  16   8  16  16  16   8
#     4  10  21  37  55  80 117 153 184 232 286 333
#     4  10  21  36  57  81 108 144 190 235 277 336
#     4   9  18  36  56  77 106 142 184 237 281 314
#     4  10  22  38  60  86 110 147 191 232 277 339
#     4   9  19  35  54  79 114 145 178 230 280 322
#     4   9  19  36  57  83 109 144 188 228 268 334
#     4  11  22  38  60  83 114 148 186 239 288 330
#
# _framework density 17.560099000000001
#
# number of rings (size 3 to 8) (size 9 to 14) (size 15 to 20)
#    0.000    2.333    1.667    0.000    3.500    2.000 
#    3.000    0.000    0.000    0.000    0.000    0.000 
#    0.000    0.000    0.000    0.000    0.000    0.000 
#
# Total GULP energy -267299.604604 kJ/mol
# GULP energy per Si atom -5568.741763 kJ/mol
# Density = 1.752013 g / cm^3
# Si number density = 17.560099 Si / 1000 Ang^3
#
#
#
# Elastic Constant Matrix: (Units=GPa)
#
#
# Indices 1 2 3 4 5 6 
#
# 1 40.8994 44.0902 58.3666 0.0000 0.0000 0.0000
# 2 44.0902 92.3374 46.2286 0.0000 0.0000 0.0000
# 3 58.3666 46.2286 150.0657 0.0000 0.0000 0.0000
# 4 0.0000 0.0000 0.0000 20.6812 0.0000 0.0000
# 5 0.0000 0.0000 0.0000 0.0000 -28.7786 0.0000
# 6 0.0000 0.0000 0.0000 0.0000 0.0000 17.0674
#
#
#
# Elastic Compliance Matrix: (Units=1/GPa)
#
#
# Indices 1 2 3 4 5 6 
#
# 1 0.105609 -0.035308 -0.030199 0.000000 0.000000 0.000000
# 2 -0.035308 0.024609 0.006152 0.000000 0.000000 0.000000
# 3 -0.030199 0.006152 0.016514 0.000000 0.000000 0.000000
# 4 0.000000 0.000000 0.000000 0.048353 0.000000 0.000000
# 5 0.000000 0.000000 0.000000 0.000000 -0.034748 0.000000
# 6 0.000000 0.000000 0.000000 0.000000 0.000000 0.058591
#
#
# Mechanical properties :
#
#
# Convention : Reuss Voigt Hill
#
# Bulk Modulus (GPa) = 35.68623 64.51926 50.10275
# Shear Modulus (GPa) = 14.41010 10.76847 12.58929
#
# Velocity S-wave (km/s) = 2.86775 2.47905 2.68045
# Velocity P-wave (km/s) = 5.59748 6.70939 6.17850
#
# Compressibility (1/GPa) = 0.02802201
#
# Stress axis : x y z
#
# Youngs Moduli (GPa) = 9.46893 40.63508 60.55427
#
# Poissons Ratio (x) = 1.43475 1.82865
# Poissons Ratio (y) = 0.33433 -0.37251
# Poissons Ratio (z) = 0.28595 -0.24998
#
# Static dielectric constant tensor:
#      x y z
#    x 1.623930 0.000000 0.000000 
#    y 0.000000 1.563720 0.000000 
#    z 0.000000 0.000000 1.658030 
# 
# From -- ./inp_files/25878.got.cif
#   From: 2010.05.17/outbox.cif.g08.bks.cpg/sg63_13_cif.got.tgz:25878.got - 2010.06.03 15:47:04.
