data_PCOD9473196
_publ_section_title
;
Structure prediction by ZEFSAII (Michael W. Deem and Ramdas Pophale) SiO2 
 PCOD9473196
Probable space group: C M C M
;
_chemical_formula_sum "Si O2"
_cell_formula_units_Z 64
_cell_length_a 12.085206
_cell_length_b 19.131367
_cell_length_c 15.438712
_cell_angle_alpha 90.000000
_cell_angle_beta 90.000000
_cell_angle_gamma 90.000000
_cell_volume 3569.530740
_symmetry_space_group_name_H-M "C M C M"
_symmetry_group_IT_number 63
_symmetry_cell_setting 'orthorhombic'
loop_
_space_group_symop_operation_xyz
x,y,z
-x,-y,1/2+z
x,-y,-z
-x,y,1/2-z
-x,-y,-z
x,y,1/2-z
-x,y,z
x,-y,1/2+z
1/2+x,1/2+y,z
1/2-x,1/2-y,1/2+z
1/2+x,1/2-y,-z
1/2-x,1/2+y,1/2-z
1/2-x,1/2-y,-z
1/2+x,1/2+y,1/2-z
1/2-x,1/2+y,z
1/2+x,1/2-y,1/2+z
loop_
_atom_site_type_symbol
_atom_site_label
_atom_site_fract_x
_atom_site_fract_y
_atom_site_fract_z
Si Si1 0.000000 0.888174 0.054541
Si Si2 0.762267 0.831921 0.484696
Si Si3 0.631370 0.926064 0.147948
Si Si4 0.247362 0.072946 0.346168
Si Si5 0.000000 0.030972 0.372917
O O1 0.113193 0.845907 0.049559
O O2 0.000000 0.935146 0.968175
O O3 0.000000 0.946921 0.128568
O O4 0.750000 0.750000 0.500000
O O5 0.681577 0.866821 0.413886
O O6 0.741426 0.872459 0.575597
O O7 0.650041 0.910324 0.250000
O O8 0.500000 0.933116 0.134282
O O9 0.691704 0.000189 0.130101
O O10 0.287459 0.095200 0.250000
O O11 0.116927 0.056786 0.338322
#
# Coordination Sequence:
#
# PCOD9473196 Si02
#       5
#     8  16  16  16   8
#     4   9  18  34  54  86 112 142 195 233 278 344
#     4  11  23  37  58  84 122 157 186 233 288 347
#     4  10  22  40  61  85 112 149 197 240 282 338
#     4  10  20  36  60  86 111 147 194 241 285 337
#     4   9  15  32  60  84 111 137 183 248 286 319
#
# _framework density 17.929528000000001
#
# number of rings (size 3 to 8) (size 9 to 14) (size 15 to 20)
#    0.000    2.000    2.500    1.125    1.750    3.000 
#    0.000    0.625    0.000    0.000    0.000    0.000 
#    0.000    0.000    0.000    0.000    0.000    0.000 
#
# Total GULP energy -178345.705185 kJ/mol
# GULP energy per Si atom -5573.303287 kJ/mol
# Density = 1.788872 g / cm^3
# Si number density = 17.929528 Si / 1000 Ang^3
#
#
#
# Elastic Constant Matrix: (Units=GPa)
#
#
# Indices 1 2 3 4 5 6 
#
# 1 101.3737 57.5136 42.8463 0.0000 0.0000 0.0000
# 2 57.5136 146.2716 77.6759 0.0000 0.0000 0.0000
# 3 42.8463 77.6759 100.2579 0.0000 0.0000 0.0000
# 4 0.0000 0.0000 0.0000 13.2720 0.0000 0.0000
# 5 0.0000 0.0000 0.0000 0.0000 12.9531 0.0000
# 6 0.0000 0.0000 0.0000 0.0000 0.0000 11.1971
#
#
#
# Elastic Compliance Matrix: (Units=1/GPa)
#
#
# Indices 1 2 3 4 5 6 
#
# 1 0.013124 -0.003707 -0.002737 0.000000 0.000000 0.000000
# 2 -0.003707 0.012663 -0.008226 0.000000 0.000000 0.000000
# 3 -0.002737 -0.008226 0.017517 0.000000 0.000000 0.000000
# 4 0.000000 0.000000 0.000000 0.075347 0.000000 0.000000
# 5 0.000000 0.000000 0.000000 0.000000 0.077201 0.000000
# 6 0.000000 0.000000 0.000000 0.000000 0.000000 0.089309
#
#
# Mechanical properties :
#
#
# Convention : Reuss Voigt Hill
#
# Bulk Modulus (GPa) = 71.61236 78.21943 74.91589
# Shear Modulus (GPa) = 15.66630 18.80894 17.23762
#
# Velocity S-wave (km/s) = 2.95917 3.24241 3.10402
# Velocity P-wave (km/s) = 7.19050 7.59858 7.39735
#
# Compressibility (1/GPa) = 0.01396407
#
# Stress axis : x y z
#
# Youngs Moduli (GPa) = 76.19391 78.97191 57.08667
#
# Poissons Ratio (x) = 0.29276 0.15623
# Poissons Ratio (y) = 0.28247 0.46961
# Poissons Ratio (z) = 0.20852 0.64964
#
# Static dielectric constant tensor:
#      x y z
#    x 1.609050 0.000000 0.000000 
#    y 0.000000 1.578560 0.000000 
#    z 0.000000 0.000000 1.679320 
# 
# From -- ./inp_files/41781.got.cif
#   From: 2010.05.17/outbox.cif.g08.bks.cpg/sg63_21_cif.got.tgz:41781.got - 2010.06.03 15:47:04.
