data_PCOD9473262
_publ_section_title
;
Structure prediction by ZEFSAII (Michael W. Deem and Ramdas Pophale) SiO2 
 PCOD9473262
Probable space group: C M C M
;
_chemical_formula_sum "Si O2"
_cell_formula_units_Z 88
_cell_length_a 12.946527
_cell_length_b 19.112794
_cell_length_c 16.566665
_cell_angle_alpha 90.000000
_cell_angle_beta 90.000000
_cell_angle_gamma 90.000000
_cell_volume 4099.326883
_symmetry_space_group_name_H-M "C M C M"
_symmetry_group_IT_number 63
_symmetry_cell_setting 'orthorhombic'
loop_
_space_group_symop_operation_xyz
x,y,z
-x,-y,1/2+z
x,-y,-z
-x,y,1/2-z
-x,-y,-z
x,y,1/2-z
-x,y,z
x,-y,1/2+z
1/2+x,1/2+y,z
1/2-x,1/2-y,1/2+z
1/2+x,1/2-y,-z
1/2-x,1/2+y,1/2-z
1/2-x,1/2-y,-z
1/2+x,1/2+y,1/2-z
1/2-x,1/2+y,z
1/2+x,1/2-y,1/2+z
loop_
_atom_site_type_symbol
_atom_site_label
_atom_site_fract_x
_atom_site_fract_y
_atom_site_fract_z
Si Si1 0.111659 0.086302 0.250000
Si Si2 0.280213 0.151383 0.508674
Si Si3 0.185091 0.959933 0.585760
Si Si4 0.114872 0.453485 0.390823
Si Si5 0.879590 0.234145 0.593117
Si Si6 0.724650 0.788495 0.750000
Si Si7 0.614907 0.839074 0.250000
O O1 0.117615 0.041630 0.333227
O O2 0.206832 0.141276 0.250000
O O3 0.000000 0.122897 0.250000
O O4 0.205520 0.120222 0.440190
O O5 0.358304 0.088777 0.528178
O O6 0.200961 0.170488 0.580668
O O7 0.348729 0.216744 0.482507
O O8 0.155737 0.000000 0.500000
O O9 0.292607 0.992745 0.616767
O O10 0.121837 0.392134 0.324887
O O11 0.000000 0.483280 0.389052
O O12 0.847227 0.277825 0.671751
O O13 0.000000 0.215254 0.593729
O O14 0.803086 0.722557 0.750000
O O15 0.500000 0.807836 0.250000
#
# Coordination Sequence:
#
# PCOD9473262 Si02
#       7
#     8  16  16  16  16   8   8
#     4  12  26  46  68  94 131 175 223 276 337 398
#     4  10  21  40  60  93 132 159 214 268 313 403
#     4  10  23  43  68  96 133 169 222 279 323 398
#     4  10  20  37  65  92 125 167 207 263 325 380
#     4  11  23  39  63  92 127 171 208 265 334 384
#     4  12  22  44  64  92 129 164 217 273 320 399
#     4  10  20  36  62  94 124 163 210 261 323 385
#
# _framework density 21.466939
#
# number of rings (size 3 to 8) (size 9 to 14) (size 15 to 20)
#    0.000    1.455    3.636    1.636    0.000    5.091 
#    0.000    2.727    0.000    0.000    0.000    0.000 
#    0.000    0.000    0.000    0.000    0.000    0.000 
#
# Total GULP energy -245211.915754 kJ/mol
# GULP energy per Si atom -5572.998085 kJ/mol
# Density = 2.141808 g / cm^3
# Si number density = 21.466939 Si / 1000 Ang^3
#
#
#
# Elastic Constant Matrix: (Units=GPa)
#
#
# Indices 1 2 3 4 5 6 
#
# 1 127.8852 23.0367 38.9105 0.0000 0.0000 0.0000
# 2 23.0367 39.9196 2.1112 0.0000 0.0000 0.0000
# 3 38.9105 2.1112 91.5330 0.0000 0.0000 0.0000
# 4 0.0000 0.0000 0.0000 14.3246 0.0000 0.0000
# 5 0.0000 0.0000 0.0000 0.0000 14.3430 0.0000
# 6 0.0000 0.0000 0.0000 0.0000 0.0000 25.3816
#
#
#
# Elastic Compliance Matrix: (Units=1/GPa)
#
#
# Indices 1 2 3 4 5 6 
#
# 1 0.010096 -0.005606 -0.004162 0.000000 0.000000 0.000000
# 2 -0.005606 0.028194 0.001733 0.000000 0.000000 0.000000
# 3 -0.004162 0.001733 0.012654 0.000000 0.000000 0.000000
# 4 0.000000 0.000000 0.000000 0.069810 0.000000 0.000000
# 5 0.000000 0.000000 0.000000 0.000000 0.069720 0.000000
# 6 0.000000 0.000000 0.000000 0.000000 0.000000 0.039399
#
#
# Mechanical properties :
#
#
# Convention : Reuss Voigt Hill
#
# Bulk Modulus (GPa) = 28.67555 43.05053 35.86304
# Shear Modulus (GPa) = 19.41233 23.82848 21.62041
#
# Velocity S-wave (km/s) = 3.01040 3.33529 3.17700
# Velocity P-wave (km/s) = 5.04682 5.91017 5.49548
#
# Compressibility (1/GPa) = 0.03487291
#
# Stress axis : x y z
#
# Youngs Moduli (GPa) = 99.05110 35.46886 79.02341
#
# Poissons Ratio (x) = 0.19884 0.32893
# Poissons Ratio (y) = 0.55527 -0.13693
# Poissons Ratio (z) = 0.41229 -0.06146
#
# Static dielectric constant tensor:
#      x y z
#    x 1.735800 0.000000 0.000000 
#    y 0.000000 1.791710 0.000000 
#    z 0.000000 0.000000 1.928230 
# 
# From -- ./inp_files/42311.got.cif
#   From: 2010.05.17/outbox.cif.g08.bks.cpg/sg63_22_cif.got.tgz:42311.got - 2010.06.03 15:47:04.
