data_PCOD9473785
_publ_section_title
;
Structure prediction by ZEFSAII (Michael W. Deem and Ramdas Pophale) SiO2 
 PCOD9473785
Probable space group: C M C M
;
_chemical_formula_sum "Si O2"
_cell_formula_units_Z 80
_cell_length_a 26.104443
_cell_length_b 21.219824
_cell_length_c 7.716911
_cell_angle_alpha 90.000000
_cell_angle_beta 90.000000
_cell_angle_gamma 90.000000
_cell_volume 4274.641522
_symmetry_space_group_name_H-M "C M C M"
_symmetry_group_IT_number 63
_symmetry_cell_setting 'orthorhombic'
loop_
_space_group_symop_operation_xyz
x,y,z
-x,-y,1/2+z
x,-y,-z
-x,y,1/2-z
-x,-y,-z
x,y,1/2-z
-x,y,z
x,-y,1/2+z
1/2+x,1/2+y,z
1/2-x,1/2-y,1/2+z
1/2+x,1/2-y,-z
1/2-x,1/2+y,1/2-z
1/2-x,1/2-y,-z
1/2+x,1/2+y,1/2-z
1/2-x,1/2+y,z
1/2+x,1/2-y,1/2+z
loop_
_atom_site_type_symbol
_atom_site_label
_atom_site_fract_x
_atom_site_fract_y
_atom_site_fract_z
Si Si1 0.283414 0.311266 0.955436
Si Si2 0.000000 0.602770 0.048084
Si Si3 0.000000 0.243423 0.547622
Si Si4 0.888495 0.391218 0.962564
Si Si5 0.609837 0.254520 0.457413
Si Si6 0.278406 0.068670 0.458140
O O1 0.283192 0.317161 0.750000
O O2 0.255950 0.373807 0.026730
O O3 0.250000 0.250000 0.000000
O O4 0.341580 0.297644 0.007901
O O5 0.944219 0.584691 0.974626
O O6 0.000000 0.583531 0.250000
O O7 0.000000 0.679714 0.044307
O O8 0.945340 0.223507 0.471794
O O9 0.000000 0.224298 0.750000
O O10 0.890432 0.392719 0.750000
O O11 0.881611 0.317810 0.015344
O O12 0.837201 0.425799 0.021953
O O13 0.604655 0.250021 0.250000
O O14 0.280987 0.074919 0.250000
O O15 0.257471 0.000000 0.500000
#
# Coordination Sequence:
#
# PCOD9473785 Si02
#       6
#    16   8   8  16  16  16
#     4  11  21  33  50  73  99 128 164 206 248 292
#     4   7  10  18  39  64  86 119 158 190 227 269
#     4   7  12  22  43  72  99 125 153 189 235 290
#     4   8  13  25  43  65  92 122 157 196 231 274
#     4   9  15  28  49  74 100 126 159 197 239 289
#     4  10  21  35  48  66  95 128 164 202 243 290
#
# _framework density 18.715019999999999
#
# number of rings (size 3 to 8) (size 9 to 14) (size 15 to 20)
#    0.000    3.000    2.000    3.000    0.000    1.600 
#    0.000    1.000    0.000    0.000    0.000    0.700 
#    0.000    0.000    0.000    0.000    0.000    0.000 
#
# Total GULP energy -222848.287736 kJ/mol
# GULP energy per Si atom -5571.207193 kJ/mol
# Density = 1.867242 g / cm^3
# Si number density = 18.715020 Si / 1000 Ang^3
#
#
#
# Elastic Constant Matrix: (Units=GPa)
#
#
# Indices 1 2 3 4 5 6 
#
# 1 152.5114 63.3337 2.9015 0.0000 0.0000 0.0000
# 2 63.3337 95.1230 -3.5177 0.0000 0.0000 0.0000
# 3 2.9015 -3.5177 25.6028 0.0000 0.0000 0.0000
# 4 0.0000 0.0000 0.0000 9.6835 0.0000 0.0000
# 5 0.0000 0.0000 0.0000 0.0000 13.8530 0.0000
# 6 0.0000 0.0000 0.0000 0.0000 0.0000 13.2906
#
#
#
# Elastic Compliance Matrix: (Units=1/GPa)
#
#
# Indices 1 2 3 4 5 6 
#
# 1 0.009152 -0.006163 -0.001884 0.000000 0.000000 0.000000
# 2 -0.006163 0.014717 0.002720 0.000000 0.000000 0.000000
# 3 -0.001884 0.002720 0.039645 0.000000 0.000000 0.000000
# 4 0.000000 0.000000 0.000000 0.103268 0.000000 0.000000
# 5 0.000000 0.000000 0.000000 0.000000 0.072187 0.000000
# 6 0.000000 0.000000 0.000000 0.000000 0.000000 0.075241
#
#
# Mechanical properties :
#
#
# Convention : Reuss Voigt Hill
#
# Bulk Modulus (GPa) = 18.91754 44.29692 31.60723
# Shear Modulus (GPa) = 14.59922 21.40008 17.99965
#
# Velocity S-wave (km/s) = 2.79602 3.38519 3.10462
# Velocity P-wave (km/s) = 4.53363 6.24499 5.45682
#
# Compressibility (1/GPa) = 0.05286099
#
# Stress axis : x y z
#
# Youngs Moduli (GPa) = 109.26382 67.94925 25.22356
#
# Poissons Ratio (x) = 0.41879 0.04752
# Poissons Ratio (y) = 0.67342 -0.06862
# Poissons Ratio (z) = 0.20585 -0.18486
#
# Static dielectric constant tensor:
#      x y z
#    x 1.704760 0.000000 0.000000 
#    y 0.000000 1.634700 0.000000 
#    z 0.000000 0.000000 1.712510 
# 
# From -- ./inp_files/12260.got.cif
#   From: 2010.05.17/outbox.cif.g08.bks.cpg/sg63_7_cif.got.tgz:12260.got - 2010.06.03 15:47:04.
