data_PCOD9473761
_publ_section_title
;
Structure prediction by ZEFSAII (Michael W. Deem and Ramdas Pophale) SiO2 
 PCOD9473761
Probable space group: C M C M
;
_chemical_formula_sum "Si O2"
_cell_formula_units_Z 96
_cell_length_a 24.323447
_cell_length_b 13.753926
_cell_length_c 16.627125
_cell_angle_alpha 90.000000
_cell_angle_beta 90.000000
_cell_angle_gamma 90.000000
_cell_volume 5562.486452
_symmetry_space_group_name_H-M "C M C M"
_symmetry_group_IT_number 63
_symmetry_cell_setting 'orthorhombic'
loop_
_space_group_symop_operation_xyz
x,y,z
-x,-y,1/2+z
x,-y,-z
-x,y,1/2-z
-x,-y,-z
x,y,1/2-z
-x,y,z
x,-y,1/2+z
1/2+x,1/2+y,z
1/2-x,1/2-y,1/2+z
1/2+x,1/2-y,-z
1/2-x,1/2+y,1/2-z
1/2-x,1/2-y,-z
1/2+x,1/2+y,1/2-z
1/2-x,1/2+y,z
1/2+x,1/2-y,1/2+z
loop_
_atom_site_type_symbol
_atom_site_label
_atom_site_fract_x
_atom_site_fract_y
_atom_site_fract_z
Si Si1 0.280983 0.453706 0.412004
Si Si2 0.562238 0.142806 0.076629
Si Si3 0.062040 0.416405 0.110584
Si Si4 0.837921 0.758396 0.151675
Si Si5 0.772065 0.156063 0.155673
Si Si6 0.178526 0.647843 0.657159
O O1 0.287921 0.500000 0.500000
O O2 0.318122 0.361603 0.385952
O O3 0.291498 0.548186 0.358809
O O4 0.218030 0.419863 0.396161
O O5 0.500000 0.176821 0.092700
O O6 0.606622 0.215283 0.114004
O O7 0.567470 0.033460 0.111503
O O8 0.567161 0.123829 0.980832
O O9 0.114674 0.375517 0.155245
O O10 0.000000 0.392638 0.138691
O O11 0.841149 0.765195 0.250000
O O12 0.789461 0.682183 0.127289
O O13 0.769485 0.169285 0.250000
O O14 0.810998 0.242728 0.125935
O O15 0.198032 0.636588 0.750000
#
# Coordination Sequence:
#
# PCOD9473761 Si02
#       6
#    16  16  16  16  16  16
#     4  11  23  33  53  82 107 142 181 225 270 324
#     4   9  19  34  54  80 108 140 174 217 272 318
#     4   9  19  34  54  80 112 141 172 219 267 320
#     4  10  21  36  56  79 110 144 181 226 270 325
#     4   9  19  35  51  73 108 142 170 214 270 317
#     4  10  21  34  53  78 108 144 179 218 266 325
#
# _framework density 17.258469000000002
#
# number of rings (size 3 to 8) (size 9 to 14) (size 15 to 20)
#    0.000    2.333    0.000    4.500    7.000    4.000 
#    0.000    1.667    0.000    1.500    0.000    2.333 
#    0.000    0.000    0.000    0.000    0.000    0.000 
#
# Total GULP energy -267330.541482 kJ/mol
# GULP energy per Si atom -5569.386281 kJ/mol
# Density = 1.721919 g / cm^3
# Si number density = 17.258469 Si / 1000 Ang^3
#
#
#
# Elastic Constant Matrix: (Units=GPa)
#
#
# Indices 1 2 3 4 5 6 
#
# 1 118.8173 56.6666 47.7408 0.0000 0.0000 0.0000
# 2 56.6666 96.9774 34.3070 0.0000 0.0000 0.0000
# 3 47.7408 34.3070 38.0292 0.0000 0.0000 0.0000
# 4 0.0000 0.0000 0.0000 23.9574 0.0000 0.0000
# 5 0.0000 0.0000 0.0000 0.0000 37.5705 0.0000
# 6 0.0000 0.0000 0.0000 0.0000 0.0000 24.3117
#
#
#
# Elastic Compliance Matrix: (Units=1/GPa)
#
#
# Indices 1 2 3 4 5 6 
#
# 1 0.017830 -0.003672 -0.019071 0.000000 0.000000 0.000000
# 2 -0.003672 0.015901 -0.009735 0.000000 0.000000 0.000000
# 3 -0.019071 -0.009735 0.059019 0.000000 0.000000 0.000000
# 4 0.000000 0.000000 0.000000 0.041741 0.000000 0.000000
# 5 0.000000 0.000000 0.000000 0.000000 0.026617 0.000000
# 6 0.000000 0.000000 0.000000 0.000000 0.000000 0.041133
#
#
# Mechanical properties :
#
#
# Convention : Reuss Voigt Hill
#
# Bulk Modulus (GPa) = 35.97865 59.02806 47.50335
# Shear Modulus (GPa) = 18.08573 24.84188 21.46380
#
# Velocity S-wave (km/s) = 3.24069 3.79806 3.53039
# Velocity P-wave (km/s) = 5.90720 7.31507 6.64851
#
# Compressibility (1/GPa) = 0.02779426
#
# Stress axis : x y z
#
# Youngs Moduli (GPa) = 56.08423 62.88794 16.94377
#
# Poissons Ratio (x) = 0.23094 0.32313
# Poissons Ratio (y) = 0.20595 0.16495
# Poissons Ratio (z) = 1.06958 0.61221
#
# Static dielectric constant tensor:
#      x y z
#    x 1.589750 0.000000 0.000000 
#    y 0.000000 1.638550 0.000000 
#    z 0.000000 0.000000 1.586350 
# 
# From -- ./inp_files/48059.got.cif
#   From: 2010.05.17/outbox.cif.g08.bks.cpg/sg63_25_cif.got.tgz:48059.got - 2010.06.03 15:47:04.
