data_PCOD9473967
_publ_section_title
;
Structure prediction by ZEFSAII (Michael W. Deem and Ramdas Pophale) SiO2 
 PCOD9473967
Probable space group: C M C M
;
_chemical_formula_sum "Si O2"
_cell_formula_units_Z 112
_cell_length_a 22.690766
_cell_length_b 13.511352
_cell_length_c 15.038465
_cell_angle_alpha 90.000000
_cell_angle_beta 90.000000
_cell_angle_gamma 90.000000
_cell_volume 4610.536611
_symmetry_space_group_name_H-M "C M C M"
_symmetry_group_IT_number 63
_symmetry_cell_setting 'orthorhombic'
loop_
_space_group_symop_operation_xyz
x,y,z
-x,-y,1/2+z
x,-y,-z
-x,y,1/2-z
-x,-y,-z
x,y,1/2-z
-x,y,z
x,-y,1/2+z
1/2+x,1/2+y,z
1/2-x,1/2-y,1/2+z
1/2+x,1/2-y,-z
1/2-x,1/2+y,1/2-z
1/2-x,1/2-y,-z
1/2+x,1/2+y,1/2-z
1/2-x,1/2+y,z
1/2+x,1/2-y,1/2+z
loop_
_atom_site_type_symbol
_atom_site_label
_atom_site_fract_x
_atom_site_fract_y
_atom_site_fract_z
Si Si1 0.570406 0.850545 0.517273
Si Si2 0.430532 0.317364 0.155349
Si Si3 0.259188 0.757606 0.854589
Si Si4 0.120992 0.243303 0.354502
Si Si5 0.761201 0.952238 0.095752
Si Si6 0.654434 0.056105 0.350447
Si Si7 0.117310 0.023759 0.394798
O O1 0.500000 0.865945 0.517968
O O2 0.587170 0.750847 0.573420
O O3 0.592677 0.825004 0.418751
O O4 0.604430 0.932898 0.575479
O O5 0.403383 0.285212 0.250000
O O6 0.500000 0.301997 0.160281
O O7 0.418989 0.432964 0.144174
O O8 0.262583 0.732348 0.750000
O O9 0.190371 0.769730 0.876062
O O10 0.279979 0.661719 0.908502
O O11 0.299221 0.853595 0.867469
O O12 0.114064 0.265322 0.250000
O O13 0.095009 0.133275 0.374258
O O14 0.698410 0.962856 0.142965
O O15 0.815684 0.009288 0.140176
O O16 0.752067 0.000000 0.000000
O O17 0.631015 0.061704 0.250000
O O18 0.119578 0.000000 0.500000
#
# Coordination Sequence:
#
# PCOD9473967 Si02
#       7
#    16  16  16  16  16  16  16
#     4  11  24  41  62  89 124 164 216 268 314 381
#     4  10  21  36  56  83 118 162 208 256 309 367
#     4  10  22  39  62  93 128 165 207 262 320 385
#     4  11  23  40  62  88 127 170 214 267 327 390
#     4  11  23  36  61  95 129 167 209 261 322 389
#     4  11  23  40  66  97 132 172 213 263 327 389
#     4  11  21  36  58  90 125 168 211 256 309 380
#
# _framework density 24.292183000000001
#
# number of rings (size 3 to 8) (size 9 to 14) (size 15 to 20)
#    0.000    1.286    2.857    3.000    2.000    6.000 
#    0.000    0.000    0.000    3.857    0.000    4.000 
#    0.000    0.000    0.000    0.000    0.000    0.000 
#
# Total GULP energy -313503.142855 kJ/mol
# GULP energy per Si atom -5598.270408 kJ/mol
# Density = 2.423689 g / cm^3
# Si number density = 24.292183 Si / 1000 Ang^3
#
#
#
# Elastic Constant Matrix: (Units=GPa)
#
#
# Indices 1 2 3 4 5 6 
#
# 1 84.0672 4.0518 40.3654 0.0000 0.0000 0.0000
# 2 4.0518 78.5670 17.1336 0.0000 0.0000 0.0000
# 3 40.3654 17.1336 142.6728 0.0000 0.0000 0.0000
# 4 0.0000 0.0000 0.0000 20.8989 0.0000 0.0000
# 5 0.0000 0.0000 0.0000 0.0000 17.0336 0.0000
# 6 0.0000 0.0000 0.0000 0.0000 0.0000 33.6772
#
#
#
# Elastic Compliance Matrix: (Units=1/GPa)
#
#
# Indices 1 2 3 4 5 6 
#
# 1 0.013767 0.000143 -0.003912 0.000000 0.000000 0.000000
# 2 0.000143 0.013072 -0.001610 0.000000 0.000000 0.000000
# 3 -0.003912 -0.001610 0.008309 0.000000 0.000000 0.000000
# 4 0.000000 0.000000 0.000000 0.047849 0.000000 0.000000
# 5 0.000000 0.000000 0.000000 0.000000 0.058707 0.000000
# 6 0.000000 0.000000 0.000000 0.000000 0.000000 0.029694
#
#
# Mechanical properties :
#
#
# Convention : Reuss Voigt Hill
#
# Bulk Modulus (GPa) = 41.00160 47.60095 44.30127
# Shear Modulus (GPa) = 26.27618 30.57237 28.42428
#
# Velocity S-wave (km/s) = 3.29245 3.55142 3.42438
# Velocity P-wave (km/s) = 5.60078 6.03776 5.82337
#
# Compressibility (1/GPa) = 0.02438930
#
# Stress axis : x y z
#
# Youngs Moduli (GPa) = 72.63866 76.50072 120.34769
#
# Poissons Ratio (x) = -0.01095 0.47082
# Poissons Ratio (y) = -0.01040 0.19380
# Poissons Ratio (z) = 0.28417 0.12319
#
# Static dielectric constant tensor:
#      x y z
#    x 1.926550 0.000000 0.000000 
#    y 0.000000 1.957990 0.000000 
#    z 0.000000 0.000000 1.984290 
# 
# From -- ./inp_files/36869.got.cif
#   From: 2010.05.17/outbox.cif.g08.bks.cpg/sg63_19_cif.got.tgz:36869.got - 2010.06.03 15:47:04.
