data_PCOD9473922
_publ_section_title
;
Structure prediction by ZEFSAII (Michael W. Deem and Ramdas Pophale) SiO2 
 PCOD9473922
Probable space group: C M C M
;
_chemical_formula_sum "Si O2"
_cell_formula_units_Z 80
_cell_length_a 11.755241
_cell_length_b 26.100524
_cell_length_c 14.911605
_cell_angle_alpha 90.000000
_cell_angle_beta 90.000000
_cell_angle_gamma 90.000000
_cell_volume 4575.148075
_symmetry_space_group_name_H-M "C M C M"
_symmetry_group_IT_number 63
_symmetry_cell_setting 'orthorhombic'
loop_
_space_group_symop_operation_xyz
x,y,z
-x,-y,1/2+z
x,-y,-z
-x,y,1/2-z
-x,-y,-z
x,y,1/2-z
-x,y,z
x,-y,1/2+z
1/2+x,1/2+y,z
1/2-x,1/2-y,1/2+z
1/2+x,1/2-y,-z
1/2-x,1/2+y,1/2-z
1/2-x,1/2-y,-z
1/2+x,1/2+y,1/2-z
1/2-x,1/2+y,z
1/2+x,1/2-y,1/2+z
loop_
_atom_site_type_symbol
_atom_site_label
_atom_site_fract_x
_atom_site_fract_y
_atom_site_fract_z
Si Si1 0.364595 0.813401 0.750000
Si Si2 0.500000 0.969644 0.906921
Si Si3 0.000000 0.583610 0.649756
Si Si4 0.285320 0.108421 0.100969
Si Si5 0.625112 0.433738 0.750000
Si Si6 0.249066 0.619324 0.895856
Si Si7 0.128641 0.054574 0.750000
Si Si8 0.359992 0.306394 0.250000
O O1 0.500000 0.817440 0.750000
O O2 0.322975 0.842618 0.839703
O O3 0.333506 0.753772 0.750000
O O4 0.390566 0.932409 0.900815
O O5 0.500000 0.021201 0.846681
O O6 0.500000 0.000000 0.000000
O O7 0.114408 0.607083 0.608985
O O8 0.000000 0.602926 0.750000
O O9 0.189658 0.082974 0.161475
O O10 0.235484 0.121072 0.002750
O O11 0.500000 0.411368 0.750000
O O12 0.622550 0.494454 0.750000
O O13 0.307425 0.573331 0.839520
O O14 0.300739 0.666486 0.837157
O O15 0.000000 0.075510 0.750000
O O16 0.500000 0.311516 0.250000
#
# Coordination Sequence:
#
# PCOD9473922 Si02
#       8
#     8   8   8  16   8  16   8   8
#     4  10  22  43  61  85 114 151 195 254 304 355
#     4  12  22  34  58 102 126 157 195 232 303 379
#     4  12  22  32  56  93 135 154 184 238 301 364
#     4  11  23  38  62  86 124 154 195 245 297 359
#     4  10  24  38  53  80 121 167 199 229 279 356
#     4  11  21  37  59  89 117 150 194 247 295 348
#     4  10  21  36  54  83 118 158 202 228 274 340
#     4  10  23  42  65  83 108 150 209 254 300 348
#
# _framework density 17.485772999999998
#
# number of rings (size 3 to 8) (size 9 to 14) (size 15 to 20)
#    0.000    1.200    5.000    2.400    2.800    2.400 
#    0.000    2.000    8.800    0.000    0.000    0.000 
#    0.000    0.000    0.000    0.000    0.000    0.000 
#
# Total GULP energy -222714.838761 kJ/mol
# GULP energy per Si atom -5567.870969 kJ/mol
# Density = 1.744597 g / cm^3
# Si number density = 17.485773 Si / 1000 Ang^3
#
#
#
# Elastic Constant Matrix: (Units=GPa)
#
#
# Indices 1 2 3 4 5 6 
#
# 1 131.6247 48.7215 60.8326 0.0000 0.0000 0.0000
# 2 48.7215 129.1793 56.9502 0.0000 0.0000 0.0000
# 3 60.8326 56.9502 180.5070 0.0000 0.0000 0.0000
# 4 0.0000 0.0000 0.0000 17.0890 0.0000 0.0000
# 5 0.0000 0.0000 0.0000 0.0000 8.6100 0.0000
# 6 0.0000 0.0000 0.0000 0.0000 0.0000 28.6215
#
#
#
# Elastic Compliance Matrix: (Units=1/GPa)
#
#
# Indices 1 2 3 4 5 6 
#
# 1 0.009682 -0.002571 -0.002452 0.000000 0.000000 0.000000
# 2 -0.002571 0.009674 -0.002186 0.000000 0.000000 0.000000
# 3 -0.002452 -0.002186 0.007056 0.000000 0.000000 0.000000
# 4 0.000000 0.000000 0.000000 0.058517 0.000000 0.000000
# 5 0.000000 0.000000 0.000000 0.000000 0.116144 0.000000
# 6 0.000000 0.000000 0.000000 0.000000 0.000000 0.034939
#
#
# Mechanical properties :
#
#
# Convention : Reuss Voigt Hill
#
# Bulk Modulus (GPa) = 83.36583 86.03552 84.70068
# Shear Modulus (GPa) = 19.65189 29.18453 24.41821
#
# Velocity S-wave (km/s) = 3.35607 4.08983 3.74098
# Velocity P-wave (km/s) = 7.92448 8.46240 8.19786
#
# Compressibility (1/GPa) = 0.01199532
#
# Stress axis : x y z
#
# Youngs Moduli (GPa) = 103.28304 103.36478 141.72484
#
# Poissons Ratio (x) = 0.26573 0.34749
# Poissons Ratio (y) = 0.26552 0.30980
# Poissons Ratio (z) = 0.25324 0.22595
#
# Static dielectric constant tensor:
#      x y z
#    x 1.661240 0.000000 0.000000 
#    y 0.000000 1.604210 0.000000 
#    z 0.000000 0.000000 1.510520 
# 
# From -- ./inp_files/30100.got.cif
#   From: 2010.05.17/outbox.cif.g08.bks.cpg/sg63_16_cif.got.tgz:30100.got - 2010.06.03 15:47:04.
