data_PCOD9473620
_publ_section_title
;
Structure prediction by ZEFSAII (Michael W. Deem and Ramdas Pophale) SiO2 
 PCOD9473620
Probable space group: C M C M
;
_chemical_formula_sum "Si O2"
_cell_formula_units_Z 48
_cell_length_a 13.738435
_cell_length_b 7.717217
_cell_length_c 18.321459
_cell_angle_alpha 90.000000
_cell_angle_beta 90.000000
_cell_angle_gamma 90.000000
_cell_volume 1942.486596
_symmetry_space_group_name_H-M "C M C M"
_symmetry_group_IT_number 63
_symmetry_cell_setting 'orthorhombic'
loop_
_space_group_symop_operation_xyz
x,y,z
-x,-y,1/2+z
x,-y,-z
-x,y,1/2-z
-x,-y,-z
x,y,1/2-z
-x,y,z
x,-y,1/2+z
1/2+x,1/2+y,z
1/2-x,1/2-y,1/2+z
1/2+x,1/2-y,-z
1/2-x,1/2+y,1/2-z
1/2-x,1/2-y,-z
1/2+x,1/2+y,1/2-z
1/2-x,1/2+y,z
1/2+x,1/2-y,1/2+z
loop_
_atom_site_type_symbol
_atom_site_label
_atom_site_fract_x
_atom_site_fract_y
_atom_site_fract_z
Si Si1 0.820996 0.668558 0.330316
Si Si2 0.392967 0.786610 0.139843
Si Si3 0.139240 0.200658 0.515549
O O1 0.838634 0.745423 0.250000
O O2 0.703132 0.670315 0.343660
O O3 0.860915 0.473732 0.331316
O O4 0.873362 0.758792 0.399334
O O5 0.500000 0.732291 0.167112
O O6 0.404420 0.803097 0.052319
O O7 0.250000 0.250000 0.500000
O O8 0.118992 0.000000 0.500000
#
# Coordination Sequence:
#
# PCOD9473620 Si02
#       3
#    16  16  16
#     4  11  23  41  67 101 141 179 225 288 346 403
#     4  11  24  44  71 100 135 182 231 278 337 410
#     4  10  20  39  66  97 133 177 228 278 331 399
#
# _framework density 24.710595000000001
#
# number of rings (size 3 to 8) (size 9 to 14) (size 15 to 20)
#    0.000    1.333    0.000   10.000    0.000    6.000 
#    0.000    6.667    0.000    8.000    0.000    0.000 
#    0.000    0.000    0.000    0.000    0.000    0.000 
#
# Total GULP energy -133918.846935 kJ/mol
# GULP energy per Si atom -5579.951956 kJ/mol
# Density = 2.465435 g / cm^3
# Si number density = 24.710595 Si / 1000 Ang^3
#
#
#
# Elastic Constant Matrix: (Units=GPa)
#
#
# Indices 1 2 3 4 5 6 
#
# 1 132.9870 3.6216 26.8528 0.0000 0.0000 0.0000
# 2 3.6216 52.9131 41.5944 0.0000 0.0000 0.0000
# 3 26.8528 41.5944 274.5748 0.0000 0.0000 0.0000
# 4 0.0000 0.0000 0.0000 23.5199 0.0000 0.0000
# 5 0.0000 0.0000 0.0000 0.0000 13.4715 0.0000
# 6 0.0000 0.0000 0.0000 0.0000 0.0000 -97.8804
#
#
#
# Elastic Compliance Matrix: (Units=1/GPa)
#
#
# Indices 1 2 3 4 5 6 
#
# 1 0.007671 0.000073 -0.000761 0.000000 0.000000 0.000000
# 2 0.000073 0.021454 -0.003257 0.000000 0.000000 0.000000
# 3 -0.000761 -0.003257 0.004210 0.000000 0.000000 0.000000
# 4 0.000000 0.000000 0.000000 0.042517 0.000000 0.000000
# 5 0.000000 0.000000 0.000000 0.000000 0.074231 0.000000
# 6 0.000000 0.000000 0.000000 0.000000 0.000000 -0.010217
#
#
# Mechanical properties :
#
#
# Convention : Reuss Voigt Hill
#
# Bulk Modulus (GPa) = 39.30012 67.17917 53.23965
# Shear Modulus (GPa) = 32.00224 13.71593 22.85908
#
# Velocity S-wave (km/s) = 3.60263 2.35853 3.04480
# Velocity P-wave (km/s) = 5.76575 5.88747 5.82693
#
# Compressibility (1/GPa) = 0.02544521
#
# Stress axis : x y z
#
# Youngs Moduli (GPa) = 130.35655 46.61059 237.53643
#
# Poissons Ratio (x) = -0.00342 0.18085
# Poissons Ratio (y) = -0.00957 0.77371
# Poissons Ratio (z) = 0.09925 0.15182
#
# Static dielectric constant tensor:
#      x y z
#    x 1.973360 0.000000 0.000000 
#    y 0.000000 1.943730 0.000000 
#    z 0.000000 0.000000 2.040050 
# 
# From -- ./inp_files/43141.got.cif
#   From: 2010.05.17/outbox.cif.g08.bks.cpg/sg63_22_cif.got.tgz:43141.got - 2010.06.03 15:47:04.
