data_PCOD9473270
_publ_section_title
;
Structure prediction by ZEFSAII (Michael W. Deem and Ramdas Pophale) SiO2 
 PCOD9473270
Probable space group: C M C M
;
_chemical_formula_sum "Si O2"
_cell_formula_units_Z 112
_cell_length_a 14.834128
_cell_length_b 21.835522
_cell_length_c 16.922210
_cell_angle_alpha 90.000000
_cell_angle_beta 90.000000
_cell_angle_gamma 90.000000
_cell_volume 5481.288750
_symmetry_space_group_name_H-M "C M C M"
_symmetry_group_IT_number 63
_symmetry_cell_setting 'orthorhombic'
loop_
_space_group_symop_operation_xyz
x,y,z
-x,-y,1/2+z
x,-y,-z
-x,y,1/2-z
-x,-y,-z
x,y,1/2-z
-x,y,z
x,-y,1/2+z
1/2+x,1/2+y,z
1/2-x,1/2-y,1/2+z
1/2+x,1/2-y,-z
1/2-x,1/2+y,1/2-z
1/2-x,1/2-y,-z
1/2+x,1/2+y,1/2-z
1/2-x,1/2+y,z
1/2+x,1/2-y,1/2+z
loop_
_atom_site_type_symbol
_atom_site_label
_atom_site_fract_x
_atom_site_fract_y
_atom_site_fract_z
Si Si1 0.219876 0.477645 0.845065
Si Si2 0.397807 0.863036 0.846130
Si Si3 0.897405 0.408267 0.155700
Si Si4 0.103223 0.177128 0.529805
Si Si5 0.794685 0.238751 0.839175
Si Si6 0.101419 0.947219 0.934029
Si Si7 0.899781 0.728708 0.609987
O O1 0.217743 0.477676 0.750000
O O2 0.156302 0.422300 0.873947
O O3 0.175357 0.541841 0.870164
O O4 0.320105 0.464836 0.874228
O O5 0.401296 0.866515 0.750000
O O6 0.500000 0.861089 0.875865
O O7 0.345011 0.800891 0.863901
O O8 0.884036 0.394269 0.250000
O O9 0.893225 0.344810 0.108644
O O10 0.000000 0.433122 0.149071
O O11 0.173199 0.187071 0.600085
O O12 0.120722 0.117416 0.476857
O O13 0.107137 0.236193 0.472797
O O14 0.000000 0.172266 0.560266
O O15 0.821503 0.223075 0.750000
O O16 0.687905 0.249242 0.842385
O O17 0.000000 0.943255 0.899717
O O18 0.100569 0.000000 0.000000
O O19 0.000000 0.743045 0.642750
#
# Coordination Sequence:
#
# PCOD9473270 Si02
#       7
#    16  16  16  16  16  16  16
#     4  10  20  36  63  92 118 155 203 251 302 360
#     4   9  18  34  56  86 123 156 188 237 299 355
#     4   9  18  34  58  91 128 162 199 248 305 362
#     4  10  22  41  63  86 118 163 205 249 312 374
#     4  11  22  36  61  92 122 159 206 254 304 362
#     4  10  23  43  63  85 118 159 201 250 310 369
#     4  10  21  37  58  88 126 163 200 246 303 369
#
# _framework density 20.433150999999999
#
# number of rings (size 3 to 8) (size 9 to 14) (size 15 to 20)
#    0.000    2.143    0.000    2.571    2.000    3.714 
#    0.000    0.714    0.000   12.000    0.000    0.000 
#    0.000    0.000    0.000    0.000    0.000    0.000 
#
# Total GULP energy -312678.125331 kJ/mol
# GULP energy per Si atom -5583.537952 kJ/mol
# Density = 2.038664 g / cm^3
# Si number density = 20.433151 Si / 1000 Ang^3
#
#
#
# Elastic Constant Matrix: (Units=GPa)
#
#
# Indices 1 2 3 4 5 6 
#
# 1 134.9685 65.0628 31.6179 0.0000 0.0000 0.0000
# 2 65.0628 98.7416 34.3219 0.0000 0.0000 0.0000
# 3 31.6179 34.3219 30.6702 0.0000 0.0000 0.0000
# 4 0.0000 0.0000 0.0000 16.7733 0.0000 0.0000
# 5 0.0000 0.0000 0.0000 0.0000 14.1255 0.0000
# 6 0.0000 0.0000 0.0000 0.0000 0.0000 19.7722
#
#
#
# Elastic Compliance Matrix: (Units=1/GPa)
#
#
# Indices 1 2 3 4 5 6 
#
# 1 0.011393 -0.005605 -0.005473 0.000000 0.000000 0.000000
# 2 -0.005605 0.019332 -0.015856 0.000000 0.000000 0.000000
# 3 -0.005473 -0.015856 0.055991 0.000000 0.000000 0.000000
# 4 0.000000 0.000000 0.000000 0.059619 0.000000 0.000000
# 5 0.000000 0.000000 0.000000 0.000000 0.070794 0.000000
# 6 0.000000 0.000000 0.000000 0.000000 0.000000 0.050576
#
#
# Mechanical properties :
#
#
# Convention : Reuss Voigt Hill
#
# Bulk Modulus (GPa) = 30.44269 58.48729 44.46499
# Shear Modulus (GPa) = 15.03668 19.02605 17.03136
#
# Velocity S-wave (km/s) = 2.71568 3.05476 2.89020
# Velocity P-wave (km/s) = 4.97637 6.41311 5.73987
#
# Compressibility (1/GPa) = 0.03284861
#
# Stress axis : x y z
#
# Youngs Moduli (GPa) = 87.77254 51.72817 17.86015
#
# Poissons Ratio (x) = 0.28992 0.09775
# Poissons Ratio (y) = 0.49194 0.28318
# Poissons Ratio (z) = 0.48039 0.82018
#
# Static dielectric constant tensor:
#      x y z
#    x 1.738790 0.000000 0.000000 
#    y 0.000000 1.716540 0.000000 
#    z 0.000000 0.000000 1.721960 
# 
# From -- ./inp_files/32322.got.cif
#   From: 2010.05.17/outbox.cif.g08.bks.cpg/sg63_17_cif.got.tgz:32322.got - 2010.06.03 15:47:04.
