data_PCOD9473918
_publ_section_title
;
Structure prediction by ZEFSAII (Michael W. Deem and Ramdas Pophale) SiO2 
 PCOD9473918
Probable space group: C M C M
;
_chemical_formula_sum "Si O2"
_cell_formula_units_Z 96
_cell_length_a 11.217469
_cell_length_b 18.382436
_cell_length_c 23.617493
_cell_angle_alpha 90.000000
_cell_angle_beta 90.000000
_cell_angle_gamma 90.000000
_cell_volume 4870.031115
_symmetry_space_group_name_H-M "C M C M"
_symmetry_group_IT_number 63
_symmetry_cell_setting 'orthorhombic'
loop_
_space_group_symop_operation_xyz
x,y,z
-x,-y,1/2+z
x,-y,-z
-x,y,1/2-z
-x,-y,-z
x,y,1/2-z
-x,y,z
x,-y,1/2+z
1/2+x,1/2+y,z
1/2-x,1/2-y,1/2+z
1/2+x,1/2-y,-z
1/2-x,1/2+y,1/2-z
1/2-x,1/2-y,-z
1/2+x,1/2+y,1/2-z
1/2-x,1/2+y,z
1/2+x,1/2-y,1/2+z
loop_
_atom_site_type_symbol
_atom_site_label
_atom_site_fract_x
_atom_site_fract_y
_atom_site_fract_z
Si Si1 0.281004 0.611427 0.684888
Si Si2 0.865575 0.725520 0.880420
Si Si3 0.131907 0.531948 0.184755
Si Si4 0.361979 0.889482 0.479605
Si Si5 0.277987 0.385016 0.593339
Si Si6 0.628267 0.460908 0.075106
O O1 0.324031 0.615869 0.750000
O O2 0.228097 0.686933 0.661620
O O3 0.175410 0.551322 0.683488
O O4 0.366648 0.576805 0.637244
O O5 0.859057 0.681395 0.939597
O O6 0.838923 0.809063 0.893059
O O7 0.000000 0.716730 0.857975
O O8 0.132464 0.554451 0.250000
O O9 0.214530 0.583589 0.148723
O O10 0.000000 0.535187 0.160768
O O11 0.500000 0.916810 0.477511
O O12 0.318746 0.874896 0.543277
O O13 0.254204 0.938180 0.453637
O O14 0.364405 0.451844 0.577303
O O15 0.500000 0.438712 0.049487
#
# Coordination Sequence:
#
# PCOD9473918 Si02
#       6
#    16  16  16  16  16  16
#     4   9  19  37  60  82 107 146 194 237 278 333
#     4  10  21  36  54  81 115 150 190 236 286 341
#     4   9  18  34  56  81 109 143 187 237 284 332
#     4  10  22  40  61  83 111 152 199 240 279 334
#     4  11  21  34  56  84 117 151 185 232 290 344
#     4  10  22  38  59  88 118 149 187 234 289 344
#
# _framework density 19.712399000000001
#
# number of rings (size 3 to 8) (size 9 to 14) (size 15 to 20)
#    0.000    2.167    0.000    2.500    0.000    9.333 
#    0.000    8.333    0.000    3.000    0.000    0.000 
#    0.000    0.000    0.000    0.000    0.000    0.000 
#
# Total GULP energy -267572.378135 kJ/mol
# GULP energy per Si atom -5574.424544 kJ/mol
# Density = 1.966753 g / cm^3
# Si number density = 19.712399 Si / 1000 Ang^3
#
#
#
# Elastic Constant Matrix: (Units=GPa)
#
#
# Indices 1 2 3 4 5 6 
#
# 1 116.1992 27.4538 20.7550 0.0000 0.0000 0.0000
# 2 27.4538 109.8940 16.2519 0.0000 0.0000 0.0000
# 3 20.7550 16.2519 81.6902 0.0000 0.0000 0.0000
# 4 0.0000 0.0000 0.0000 18.2061 0.0000 0.0000
# 5 0.0000 0.0000 0.0000 0.0000 12.5131 0.0000
# 6 0.0000 0.0000 0.0000 0.0000 0.0000 3.5686
#
#
#
# Elastic Compliance Matrix: (Units=1/GPa)
#
#
# Indices 1 2 3 4 5 6 
#
# 1 0.009450 -0.002066 -0.001990 0.000000 0.000000 0.000000
# 2 -0.002066 0.009827 -0.001430 0.000000 0.000000 0.000000
# 3 -0.001990 -0.001430 0.013031 0.000000 0.000000 0.000000
# 4 0.000000 0.000000 0.000000 0.054927 0.000000 0.000000
# 5 0.000000 0.000000 0.000000 0.000000 0.079916 0.000000
# 6 0.000000 0.000000 0.000000 0.000000 0.000000 0.280225
#
#
# Mechanical properties :
#
#
# Convention : Reuss Voigt Hill
#
# Bulk Modulus (GPa) = 46.86951 48.52274 47.69612
# Shear Modulus (GPa) = 10.74204 23.07906 16.91055
#
# Velocity S-wave (km/s) = 2.33692 3.42539 2.93211
# Velocity P-wave (km/s) = 5.57762 6.34927 5.97591
#
# Compressibility (1/GPa) = 0.02133583
#
# Stress axis : x y z
#
# Youngs Moduli (GPa) = 105.82531 101.75621 76.73763
#
# Poissons Ratio (x) = 0.21027 0.15269
# Poissons Ratio (y) = 0.21868 0.10974
# Poissons Ratio (z) = 0.21056 0.14552
#
# Static dielectric constant tensor:
#      x y z
#    x 1.716410 0.000000 0.000000 
#    y 0.000000 1.665060 0.000000 
#    z 0.000000 0.000000 1.724200 
# 
# From -- ./inp_files/61442.got.cif
#   From: 2010.05.17/outbox.cif.g08.bks.cpg/sg63_31_cif.got.tgz:61442.got - 2010.06.03 15:47:04.
