data_PCOD9473133
_publ_section_title
;
Structure prediction by ZEFSAII (Michael W. Deem and Ramdas Pophale) SiO2 
 PCOD9473133
Probable space group: C M C M
;
_chemical_formula_sum "Si O2"
_cell_formula_units_Z 112
_cell_length_a 15.300841
_cell_length_b 14.119653
_cell_length_c 26.874721
_cell_angle_alpha 90.000000
_cell_angle_beta 90.000000
_cell_angle_gamma 90.000000
_cell_volume 5806.083673
_symmetry_space_group_name_H-M "C M C M"
_symmetry_group_IT_number 63
_symmetry_cell_setting 'orthorhombic'
loop_
_space_group_symop_operation_xyz
x,y,z
-x,-y,1/2+z
x,-y,-z
-x,y,1/2-z
-x,-y,-z
x,y,1/2-z
-x,y,z
x,-y,1/2+z
1/2+x,1/2+y,z
1/2-x,1/2-y,1/2+z
1/2+x,1/2-y,-z
1/2-x,1/2+y,1/2-z
1/2-x,1/2-y,-z
1/2+x,1/2+y,1/2-z
1/2-x,1/2+y,z
1/2+x,1/2-y,1/2+z
loop_
_atom_site_type_symbol
_atom_site_label
_atom_site_fract_x
_atom_site_fract_y
_atom_site_fract_z
Si Si1 0.600355 0.098973 0.690086
Si Si2 0.153576 0.193802 0.193245
Si Si3 0.101596 0.104486 0.554491
Si Si4 0.096116 0.905633 0.602145
Si Si5 0.734351 0.347520 0.528437
Si Si6 0.597691 0.821338 0.586547
Si Si7 0.847845 0.389994 0.807547
O O1 0.596758 0.103522 0.750000
O O2 0.500000 0.090837 0.671809
O O3 0.641979 0.198481 0.673855
O O4 0.652336 0.002319 0.679876
O O5 0.122519 0.192018 0.250000
O O6 0.100903 0.121983 0.159235
O O7 0.253009 0.158017 0.192574
O O8 0.175480 0.096847 0.512042
O O9 0.110513 0.208155 0.579022
O O10 0.000000 0.098769 0.536246
O O11 0.113435 0.015888 0.591271
O O12 0.168904 0.843399 0.574922
O O13 0.000000 0.882954 0.582417
O O14 0.750000 0.250000 0.500000
O O15 0.827481 0.373250 0.553547
O O16 0.500000 0.845288 0.569000
O O17 0.604099 0.844411 0.645174
O O18 0.882556 0.380659 0.750000
#
# Coordination Sequence:
#
# PCOD9473133 Si02
#       7
#    16  16  16  16  16  16  16
#     4   9  18  34  56  81 114 160 205 245 294 354
#     4  10  21  37  57  88 125 160 201 253 299 346
#     4   9  20  37  61  88 116 152 197 247 302 365
#     4  11  21  37  62  90 117 158 205 242 300 376
#     4  10  20  37  57  83 115 154 194 252 305 349
#     4  10  20  37  59  87 120 156 199 248 305 359
#     4  10  20  36  58  87 122 164 208 247 298 366
#
# _framework density 19.290111
#
# number of rings (size 3 to 8) (size 9 to 14) (size 15 to 20)
#    0.000    2.143    1.429    1.714    0.000    4.571 
#    0.000    2.143    0.000    4.286    0.000    0.000 
#    0.000    0.000    0.000    0.000    0.000    0.000 
#
# Total GULP energy -311787.397242 kJ/mol
# GULP energy per Si atom -5567.632094 kJ/mol
# Density = 1.924621 g / cm^3
# Si number density = 19.290111 Si / 1000 Ang^3
#
#
#
# Elastic Constant Matrix: (Units=GPa)
#
#
# Indices 1 2 3 4 5 6 
#
# 1 115.5988 49.5915 36.0723 0.0000 0.0000 0.0000
# 2 49.5915 104.0195 49.2629 0.0000 0.0000 0.0000
# 3 36.0723 49.2629 88.8953 0.0000 0.0000 0.0000
# 4 0.0000 0.0000 0.0000 32.2586 0.0000 0.0000
# 5 0.0000 0.0000 0.0000 0.0000 -22.0490 0.0000
# 6 0.0000 0.0000 0.0000 0.0000 0.0000 -8.2959
#
#
#
# Elastic Compliance Matrix: (Units=1/GPa)
#
#
# Indices 1 2 3 4 5 6 
#
# 1 0.011168 -0.004309 -0.002144 0.000000 0.000000 0.000000
# 2 -0.004309 0.014697 -0.006396 0.000000 0.000000 0.000000
# 3 -0.002144 -0.006396 0.015664 0.000000 0.000000 0.000000
# 4 0.000000 0.000000 0.000000 0.030999 0.000000 0.000000
# 5 0.000000 0.000000 0.000000 0.000000 -0.045353 0.000000
# 6 0.000000 0.000000 0.000000 0.000000 0.000000 -0.120541
#
#
# Mechanical properties :
#
#
# Convention : Reuss Voigt Hill
#
# Bulk Modulus (GPa) = 63.16825 64.26300 63.71563
# Shear Modulus (GPa) = -80.13957 11.95520 -34.09219
#
# Velocity S-wave (km/s) = -6.45249 2.49219 -4.20854
# Velocity P-wave (km/s) = 4.76395 6.45505 3.07997
#
# Compressibility (1/GPa) = 0.01583074
#
# Stress axis : x y z
#
# Youngs Moduli (GPa) = 89.53992 68.04059 63.84209
#
# Poissons Ratio (x) = 0.29320 0.13687
# Poissons Ratio (y) = 0.38584 0.40834
# Poissons Ratio (z) = 0.19196 0.43519
#
# Static dielectric constant tensor:
#      x y z
#    x 1.695480 0.000000 0.000000 
#    y 0.000000 1.666380 0.000000 
#    z 0.000000 0.000000 1.708880 
# 
# From -- ./inp_files/69370.got.cif
#   From: 2010.05.17/outbox.cif.g08.bks.cpg/sg63_35_cif.got.tgz:69370.got - 2010.06.03 15:47:04.
