data_PCOD9473954
_publ_section_title
;
Structure prediction by ZEFSAII (Michael W. Deem and Ramdas Pophale) SiO2 
 PCOD9473954
Probable space group: C M C M
;
_chemical_formula_sum "Si O2"
_cell_formula_units_Z 104
_cell_length_a 29.564452
_cell_length_b 18.434586
_cell_length_c 9.381707
_cell_angle_alpha 90.000000
_cell_angle_beta 90.000000
_cell_angle_gamma 90.000000
_cell_volume 5113.109430
_symmetry_space_group_name_H-M "C M C M"
_symmetry_group_IT_number 63
_symmetry_cell_setting 'orthorhombic'
loop_
_space_group_symop_operation_xyz
x,y,z
-x,-y,1/2+z
x,-y,-z
-x,y,1/2-z
-x,-y,-z
x,y,1/2-z
-x,y,z
x,-y,1/2+z
1/2+x,1/2+y,z
1/2-x,1/2-y,1/2+z
1/2+x,1/2-y,-z
1/2-x,1/2+y,1/2-z
1/2-x,1/2-y,-z
1/2+x,1/2+y,1/2-z
1/2-x,1/2+y,z
1/2+x,1/2-y,1/2+z
loop_
_atom_site_type_symbol
_atom_site_label
_atom_site_fract_x
_atom_site_fract_y
_atom_site_fract_z
Si Si1 0.213190 0.570576 0.914579
Si Si2 0.379358 0.075083 0.421853
Si Si3 0.293375 0.681906 0.538302
Si Si4 0.370876 0.431879 0.084457
Si Si5 0.446839 0.207440 0.083802
Si Si6 0.553635 0.354900 0.583233
Si Si7 0.249099 0.282193 0.750000
O O1 0.201872 0.552843 0.750000
O O2 0.251342 0.631394 0.911532
O O3 0.230529 0.500000 0.000000
O O4 0.168662 0.592797 0.003087
O O5 0.374586 0.066124 0.250000
O O6 0.415087 0.138979 0.446565
O O7 0.393372 0.000000 0.500000
O O8 0.338151 0.637282 0.570734
O O9 0.285366 0.696223 0.374147
O O10 0.287125 0.754929 0.626930
O O11 0.376879 0.449490 0.250000
O O12 0.350281 0.500000 0.000000
O O13 0.417346 0.411184 0.007284
O O14 0.439858 0.228947 0.250000
O O15 0.500000 0.188332 0.068245
O O16 0.437212 0.275213 0.982054
O O17 0.565612 0.357826 0.750000
O O18 0.500000 0.367885 0.569063
#
# Coordination Sequence:
#
# PCOD9473954 Si02
#       7
#    16  16  16  16  16  16   8
#     4  11  22  38  59  83 116 161 207 253 303 362
#     4  10  21  36  55  86 122 162 213 262 315 378
#     4  11  24  44  64  93 129 169 214 261 315 380
#     4  12  26  45  70 100 132 172 221 273 333 391
#     4   9  19  38  62  88 121 165 209 259 324 388
#     4  10  23  44  68  98 132 167 213 268 332 402
#     4  10  24  42  62  90 130 168 206 262 318 376
#
# _framework density 20.339873999999998
#
# number of rings (size 3 to 8) (size 9 to 14) (size 15 to 20)
#    0.000    1.538    1.538    3.231    4.308    5.231 
#    2.769    0.000    0.000    0.000    0.000    0.000 
#    0.000    0.000    0.000    0.000    0.000    0.000 
#
# Total GULP energy -289529.328146 kJ/mol
# GULP energy per Si atom -5567.871695 kJ/mol
# Density = 2.029358 g / cm^3
# Si number density = 20.339874 Si / 1000 Ang^3
#
#
#
# Elastic Constant Matrix: (Units=GPa)
#
#
# Indices 1 2 3 4 5 6 
#
# 1 50.8988 25.3649 39.0988 0.0000 0.0000 0.0000
# 2 25.3649 39.3250 34.1847 0.0000 0.0000 0.0000
# 3 39.0988 34.1847 193.8571 0.0000 0.0000 0.0000
# 4 0.0000 0.0000 0.0000 31.6246 0.0000 0.0000
# 5 0.0000 0.0000 0.0000 0.0000 24.8519 0.0000
# 6 0.0000 0.0000 0.0000 0.0000 0.0000 25.2965
#
#
#
# Elastic Compliance Matrix: (Units=1/GPa)
#
#
# Indices 1 2 3 4 5 6 
#
# 1 0.030518 -0.016929 -0.003170 0.000000 0.000000 0.000000
# 2 -0.016929 0.039424 -0.003538 0.000000 0.000000 0.000000
# 3 -0.003170 -0.003538 0.006422 0.000000 0.000000 0.000000
# 4 0.000000 0.000000 0.000000 0.031621 0.000000 0.000000
# 5 0.000000 0.000000 0.000000 0.000000 0.040238 0.000000
# 6 0.000000 0.000000 0.000000 0.000000 0.000000 0.039531
#
#
# Mechanical properties :
#
#
# Convention : Reuss Voigt Hill
#
# Bulk Modulus (GPa) = 34.37542 53.48640 43.93091
# Shear Modulus (GPa) = 20.43123 28.71677 24.57400
#
# Velocity S-wave (km/s) = 3.17281 3.76153 3.47964
# Velocity P-wave (km/s) = 5.50994 6.72450 6.14729
#
# Compressibility (1/GPa) = 0.02909055
#
# Stress axis : x y z
#
# Youngs Moduli (GPa) = 32.76730 25.36558 155.72457
#
# Poissons Ratio (x) = 0.42941 0.49364
# Poissons Ratio (y) = 0.55471 0.55089
# Poissons Ratio (z) = 0.10387 0.08973
#
# Static dielectric constant tensor:
#      x y z
#    x 1.712850 0.000000 0.000000 
#    y 0.000000 1.778910 0.000000 
#    z 0.000000 0.000000 1.693180 
# 
# From -- ./inp_files/12591.got.cif
#   From: 2010.05.17/outbox.cif.g08.bks.cpg/sg63_7_cif.got.tgz:12591.got - 2010.06.03 15:47:04.
