data_PCOD9473736
_publ_section_title
;
Structure prediction by ZEFSAII (Michael W. Deem and Ramdas Pophale) SiO2 
 PCOD9473736
Probable space group: C M C M
;
_chemical_formula_sum "Si O2"
_cell_formula_units_Z 92
_cell_length_a 22.536929
_cell_length_b 29.910517
_cell_length_c 7.823582
_cell_angle_alpha 90.000000
_cell_angle_beta 90.000000
_cell_angle_gamma 90.000000
_cell_volume 5273.807763
_symmetry_space_group_name_H-M "C M C M"
_symmetry_group_IT_number 63
_symmetry_cell_setting 'orthorhombic'
loop_
_space_group_symop_operation_xyz
x,y,z
-x,-y,1/2+z
x,-y,-z
-x,y,1/2-z
-x,-y,-z
x,y,1/2-z
-x,y,z
x,-y,1/2+z
1/2+x,1/2+y,z
1/2-x,1/2-y,1/2+z
1/2+x,1/2-y,-z
1/2-x,1/2+y,1/2-z
1/2-x,1/2-y,-z
1/2+x,1/2+y,1/2-z
1/2-x,1/2+y,z
1/2+x,1/2-y,1/2+z
loop_
_atom_site_type_symbol
_atom_site_label
_atom_site_fract_x
_atom_site_fract_y
_atom_site_fract_z
Si Si1 0.784992 0.294128 0.444039
Si Si2 0.629098 0.551869 0.043725
Si Si3 0.500000 0.447401 0.544834
Si Si4 0.584513 0.791906 0.554896
Si Si5 0.000000 0.320155 0.250000
Si Si6 0.566078 0.314447 0.453970
Si Si7 0.687452 0.637881 0.449821
O O1 0.803933 0.287645 0.250000
O O2 0.750000 0.250000 0.500000
O O3 0.845097 0.300004 0.547821
O O4 0.738254 0.334245 0.458910
O O5 0.627361 0.554583 0.250000
O O6 0.563947 0.567831 0.978635
O O7 0.677246 0.587531 0.984120
O O8 0.638350 0.500000 0.000000
O O9 0.500000 0.500000 0.500000
O O10 0.500000 0.441783 0.750000
O O11 0.565122 0.801215 0.750000
O O12 0.551092 0.817312 0.403385
O O13 0.572541 0.738972 0.520922
O O14 0.568053 0.322259 0.250000
O O15 0.500000 0.328146 0.517118
O O16 0.623280 0.338063 0.533504
O O17 0.703113 0.636814 0.250000
#
# Coordination Sequence:
#
# PCOD9473736 Si02
#       7
#    16  16   8  16   4  16  16
#     4  12  23  37  54  75 105 144 186 226 272 326
#     4   9  19  34  51  70  95 128 171 221 278 326
#     4   8  14  28  47  66  90 121 162 217 270 324
#     4  11  22  37  55  79 108 140 183 230 269 327
#     4  12  22  36  58  82 104 146 184 214 288 322
#     4  10  21  34  47  68  99 134 177 227 275 316
#     4  11  23  34  51  75 100 135 179 226 276 325
#
# _framework density 17.444700999999998
#
# number of rings (size 3 to 8) (size 9 to 14) (size 15 to 20)
#    0.000    1.565    3.478    2.348    2.435    1.739 
#    0.000    0.000    0.000    0.000    0.000    0.000 
#    0.000    0.000    0.000    0.783    4.870    1.565 
#
# Total GULP energy -256227.738045 kJ/mol
# GULP energy per Si atom -5570.168218 kJ/mol
# Density = 1.740500 g / cm^3
# Si number density = 17.444701 Si / 1000 Ang^3
#
#
#
# Elastic Constant Matrix: (Units=GPa)
#
#
# Indices 1 2 3 4 5 6 
#
# 1 117.8720 30.6928 16.2897 0.0000 0.0000 0.0000
# 2 30.6928 56.1132 4.6915 0.0000 0.0000 0.0000
# 3 16.2897 4.6915 70.4638 0.0000 0.0000 0.0000
# 4 0.0000 0.0000 0.0000 14.0464 0.0000 0.0000
# 5 0.0000 0.0000 0.0000 0.0000 25.6288 0.0000
# 6 0.0000 0.0000 0.0000 0.0000 0.0000 24.1010
#
#
#
# Elastic Compliance Matrix: (Units=1/GPa)
#
#
# Indices 1 2 3 4 5 6 
#
# 1 0.010163 -0.005393 -0.001990 0.000000 0.000000 0.000000
# 2 -0.005393 0.020782 -0.000137 0.000000 0.000000 0.000000
# 3 -0.001990 -0.000137 0.014661 0.000000 0.000000 0.000000
# 4 0.000000 0.000000 0.000000 0.071193 0.000000 0.000000
# 5 0.000000 0.000000 0.000000 0.000000 0.039019 0.000000
# 6 0.000000 0.000000 0.000000 0.000000 0.000000 0.041492
#
#
# Mechanical properties :
#
#
# Convention : Reuss Voigt Hill
#
# Bulk Modulus (GPa) = 32.71598 38.64411 35.68004
# Shear Modulus (GPa) = 22.46805 25.60691 24.03748
#
# Velocity S-wave (km/s) = 3.59271 3.83546 3.71607
# Velocity P-wave (km/s) = 6.00041 6.46644 6.23778
#
# Compressibility (1/GPa) = 0.03056611
#
# Stress axis : x y z
#
# Youngs Moduli (GPa) = 98.39597 48.11812 68.20837
#
# Poissons Ratio (x) = 0.25948 0.13576
# Poissons Ratio (y) = 0.53061 0.00935
# Poissons Ratio (z) = 0.19585 0.00659
#
# Static dielectric constant tensor:
#      x y z
#    x 2.123380 0.000000 0.000000 
#    y 0.000000 1.589060 0.000000 
#    z 0.000000 0.000000 1.609860 
# 
# From -- ./inp_files/9037.got.cif
#   From: 2010.05.17/outbox.cif.g08.bks.cpg/sg63_5_cif.got.tgz:9037.got - 2010.06.03 15:47:04.
