data_PCOD9473414
_publ_section_title
;
Structure prediction by ZEFSAII (Michael W. Deem and Ramdas Pophale) SiO2 
 PCOD9473414
Probable space group: C M C M
;
_chemical_formula_sum "Si O2"
_cell_formula_units_Z 112
_cell_length_a 14.935222
_cell_length_b 23.893524
_cell_length_c 14.114315
_cell_angle_alpha 90.000000
_cell_angle_beta 90.000000
_cell_angle_gamma 90.000000
_cell_volume 5036.765083
_symmetry_space_group_name_H-M "C M C M"
_symmetry_group_IT_number 63
_symmetry_cell_setting 'orthorhombic'
loop_
_space_group_symop_operation_xyz
x,y,z
-x,-y,1/2+z
x,-y,-z
-x,y,1/2-z
-x,-y,-z
x,y,1/2-z
-x,y,z
x,-y,1/2+z
1/2+x,1/2+y,z
1/2-x,1/2-y,1/2+z
1/2+x,1/2-y,-z
1/2-x,1/2+y,1/2-z
1/2-x,1/2-y,-z
1/2+x,1/2+y,1/2-z
1/2-x,1/2+y,z
1/2+x,1/2-y,1/2+z
loop_
_atom_site_type_symbol
_atom_site_label
_atom_site_fract_x
_atom_site_fract_y
_atom_site_fract_z
Si Si1 0.334306 0.651013 0.853732
Si Si2 0.898351 0.364874 0.552027
Si Si3 0.647777 0.092103 0.857619
Si Si4 0.597890 0.458003 0.637624
Si Si5 0.597248 0.665625 0.442782
Si Si6 0.269044 0.222219 0.359387
Si Si7 0.702989 0.028432 0.363929
O O1 0.378604 0.645563 0.750000
O O2 0.253167 0.607354 0.858317
O O3 0.287926 0.712062 0.858095
O O4 0.392858 0.647740 0.947500
O O5 0.896249 0.370914 0.438599
O O6 0.849862 0.309387 0.588508
O O7 0.839219 0.416595 0.590287
O O8 0.000000 0.368239 0.586502
O O9 0.615683 0.101007 0.750000
O O10 0.643899 0.026532 0.882941
O O11 0.596678 0.467867 0.750000
O O12 0.500000 0.477835 0.601527
O O13 0.602396 0.391579 0.616995
O O14 0.694044 0.480285 0.603789
O O15 0.500000 0.691988 0.427682
O O16 0.678343 0.705022 0.412103
O O17 0.264070 0.202895 0.250000
O O18 0.704428 0.035689 0.250000
#
# Coordination Sequence:
#
# PCOD9473414 Si02
#       7
#    16  16  16  16  16  16  16
#     4  10  22  42  64  87 124 170 210 250 302 367
#     4  12  25  40  64  92 122 163 213 269 325 374
#     4  10  22  41  64  88 122 168 211 253 310 376
#     4   9  17  32  58  92 125 158 198 248 305 362
#     4  11  21  35  62  95 124 157 198 245 309 373
#     4  11  23  42  66  91 124 161 206 265 317 369
#     4  10  20  37  62  91 128 165 204 258 310 370
#
# _framework density 22.236495000000001
#
# number of rings (size 3 to 8) (size 9 to 14) (size 15 to 20)
#    0.000    1.571    2.857    1.714    0.000    4.286 
#    0.000    3.571    0.000    7.714    0.000    0.000 
#    0.000    0.000    0.000    0.000    0.000    0.000 
#
# Total GULP energy -313032.643147 kJ/mol
# GULP energy per Si atom -5589.868628 kJ/mol
# Density = 2.218588 g / cm^3
# Si number density = 22.236495 Si / 1000 Ang^3
#
#
#
# Elastic Constant Matrix: (Units=GPa)
#
#
# Indices 1 2 3 4 5 6 
#
# 1 110.5369 -4.2297 21.3941 0.0000 0.0000 0.0000
# 2 -4.2297 51.2424 5.9608 0.0000 0.0000 0.0000
# 3 21.3941 5.9608 56.5377 0.0000 0.0000 0.0000
# 4 0.0000 0.0000 0.0000 27.6658 0.0000 0.0000
# 5 0.0000 0.0000 0.0000 0.0000 6.5685 0.0000
# 6 0.0000 0.0000 0.0000 0.0000 0.0000 -21.1514
#
#
#
# Elastic Compliance Matrix: (Units=1/GPa)
#
#
# Indices 1 2 3 4 5 6 
#
# 1 0.009842 0.001261 -0.003857 0.000000 0.000000 0.000000
# 2 0.001261 0.019919 -0.002577 0.000000 0.000000 0.000000
# 3 -0.003857 -0.002577 0.019419 0.000000 0.000000 0.000000
# 4 0.000000 0.000000 0.000000 0.036146 0.000000 0.000000
# 5 0.000000 0.000000 0.000000 0.000000 0.152241 0.000000
# 6 0.000000 0.000000 0.000000 0.000000 0.000000 -0.047278
#
#
# Mechanical properties :
#
#
# Convention : Reuss Voigt Hill
#
# Bulk Modulus (GPa) = 25.75157 29.39636 27.57396
# Shear Modulus (GPa) = 23.41059 15.62938 19.51998
#
# Velocity S-wave (km/s) = 3.24821 2.65405 2.96604
# Velocity P-wave (km/s) = 5.06692 4.75821 4.91499
#
# Compressibility (1/GPa) = 0.03883259
#
# Stress axis : x y z
#
# Youngs Moduli (GPa) = 101.61038 50.20335 51.49721
#
# Poissons Ratio (x) = -0.06331 0.19863
# Poissons Ratio (y) = -0.12813 0.13272
# Poissons Ratio (z) = 0.39191 0.12939
#
# Static dielectric constant tensor:
#      x y z
#    x 1.825530 0.000000 0.000000 
#    y 0.000000 1.768750 0.000000 
#    z 0.000000 0.000000 1.856560 
# 
# From -- ./inp_files/32360.got.cif
#   From: 2010.05.17/outbox.cif.g08.bks.cpg/sg63_17_cif.got.tgz:32360.got - 2010.06.03 15:47:04.
