data_PCOD9473245
_publ_section_title
;
Structure prediction by ZEFSAII (Michael W. Deem and Ramdas Pophale) SiO2 
 PCOD9473245
Probable space group: C M C M
;
_chemical_formula_sum "Si O2"
_cell_formula_units_Z 96
_cell_length_a 21.101687
_cell_length_b 9.002079
_cell_length_c 26.349859
_cell_angle_alpha 90.000000
_cell_angle_beta 90.000000
_cell_angle_gamma 90.000000
_cell_volume 5005.394273
_symmetry_space_group_name_H-M "C M C M"
_symmetry_group_IT_number 63
_symmetry_cell_setting 'orthorhombic'
loop_
_space_group_symop_operation_xyz
x,y,z
-x,-y,1/2+z
x,-y,-z
-x,y,1/2-z
-x,-y,-z
x,y,1/2-z
-x,y,z
x,-y,1/2+z
1/2+x,1/2+y,z
1/2-x,1/2-y,1/2+z
1/2+x,1/2-y,-z
1/2-x,1/2+y,1/2-z
1/2-x,1/2-y,-z
1/2+x,1/2+y,1/2-z
1/2-x,1/2+y,z
1/2+x,1/2-y,1/2+z
loop_
_atom_site_type_symbol
_atom_site_label
_atom_site_fract_x
_atom_site_fract_y
_atom_site_fract_z
Si Si1 0.572644 0.535165 0.844175
Si Si2 0.653195 0.514561 0.560558
Si Si3 0.070969 0.301261 0.190644
Si Si4 0.691219 0.727988 0.690013
Si Si5 0.308908 0.049402 0.642088
Si Si6 0.759131 0.267335 0.059793
O O1 0.500000 0.587530 0.839921
O O2 0.593128 0.508591 0.902784
O O3 0.577489 0.375296 0.817233
O O4 0.625402 0.642366 0.820184
O O5 0.641247 0.500000 0.500000
O O6 0.688956 0.669800 0.572746
O O7 0.702033 0.380539 0.575478
O O8 0.077368 0.335502 0.250000
O O9 0.125233 0.384159 0.160751
O O10 0.000000 0.342755 0.173940
O O11 0.697219 0.759346 0.750000
O O12 0.751067 0.630396 0.671548
O O13 0.693613 0.879366 0.658049
O O14 0.301043 0.098702 0.583357
O O15 0.750000 0.250000 0.000000
#
# Coordination Sequence:
#
# PCOD9473245 Si02
#       6
#    16  16  16  16  16  16
#     4  11  23  40  60  84 120 165 208 253 307 365
#     4  10  20  37  61  92 119 154 197 251 314 369
#     4  10  21  38  60  85 117 160 205 249 302 363
#     4  12  25  38  59  90 122 159 203 253 303 360
#     4  12  22  40  63  90 123 159 201 254 306 367
#     4  10  20  36  61  93 121 148 193 249 312 370
#
# _framework density 19.179307000000001
#
# number of rings (size 3 to 8) (size 9 to 14) (size 15 to 20)
#    0.000    1.167    3.333    4.000    0.000    2.000 
#    0.000    0.000    0.000    0.000    0.000    2.333 
#    0.000    0.000    0.000    0.000    0.000    0.000 
#
# Total GULP energy -267671.866333 kJ/mol
# GULP energy per Si atom -5576.497215 kJ/mol
# Density = 1.913565 g / cm^3
# Si number density = 19.179307 Si / 1000 Ang^3
#
#
#
# Elastic Constant Matrix: (Units=GPa)
#
#
# Indices 1 2 3 4 5 6 
#
# 1 125.4593 46.8346 30.0885 0.0000 0.0000 0.0000
# 2 46.8346 97.9081 22.5782 0.0000 0.0000 0.0000
# 3 30.0885 22.5782 92.1447 0.0000 0.0000 0.0000
# 4 0.0000 0.0000 0.0000 24.1710 0.0000 0.0000
# 5 0.0000 0.0000 0.0000 0.0000 29.8454 0.0000
# 6 0.0000 0.0000 0.0000 0.0000 0.0000 33.3396
#
#
#
# Elastic Compliance Matrix: (Units=1/GPa)
#
#
# Indices 1 2 3 4 5 6 
#
# 1 0.010124 -0.004325 -0.002246 0.000000 0.000000 0.000000
# 2 -0.004325 0.012673 -0.001693 0.000000 0.000000 0.000000
# 3 -0.002246 -0.001693 0.012001 0.000000 0.000000 0.000000
# 4 0.000000 0.000000 0.000000 0.041372 0.000000 0.000000
# 5 0.000000 0.000000 0.000000 0.000000 0.033506 0.000000
# 6 0.000000 0.000000 0.000000 0.000000 0.000000 0.029994
#
#
# Mechanical properties :
#
#
# Convention : Reuss Voigt Hill
#
# Bulk Modulus (GPa) = 54.73561 57.16828 55.95195
# Shear Modulus (GPa) = 30.80954 31.87193 31.34073
#
# Velocity S-wave (km/s) = 4.01233 4.08093 4.04677
# Velocity P-wave (km/s) = 7.07573 7.21646 7.14644
#
# Compressibility (1/GPa) = 0.01826964
#
# Stress axis : x y z
#
# Youngs Moduli (GPa) = 98.77660 78.90883 83.32798
#
# Poissons Ratio (x) = 0.34127 0.18716
# Poissons Ratio (y) = 0.42719 0.14108
# Poissons Ratio (z) = 0.22186 0.13359
#
# Static dielectric constant tensor:
#      x y z
#    x 1.653510 0.000000 0.000000 
#    y 0.000000 1.694110 0.000000 
#    z 0.000000 0.000000 1.733680 
# 
# From -- ./inp_files/70300.got.cif
#   From: 2010.05.17/outbox.cif.g08.bks.cpg/sg63_36_cif.got.tgz:70300.got - 2010.06.03 15:47:04.
