data_PCOD9473982
_publ_section_title
;
Structure prediction by ZEFSAII (Michael W. Deem and Ramdas Pophale) SiO2 
 PCOD9473982
Probable space group: C M C M
;
_chemical_formula_sum "Si O2"
_cell_formula_units_Z 88
_cell_length_a 22.661443
_cell_length_b 25.292479
_cell_length_c 8.810523
_cell_angle_alpha 90.000000
_cell_angle_beta 90.000000
_cell_angle_gamma 90.000000
_cell_volume 5049.875232
_symmetry_space_group_name_H-M "C M C M"
_symmetry_group_IT_number 63
_symmetry_cell_setting 'orthorhombic'
loop_
_space_group_symop_operation_xyz
x,y,z
-x,-y,1/2+z
x,-y,-z
-x,y,1/2-z
-x,-y,-z
x,y,1/2-z
-x,y,z
x,-y,1/2+z
1/2+x,1/2+y,z
1/2-x,1/2-y,1/2+z
1/2+x,1/2-y,-z
1/2-x,1/2+y,1/2-z
1/2-x,1/2-y,-z
1/2+x,1/2+y,1/2-z
1/2-x,1/2+y,z
1/2+x,1/2-y,1/2+z
loop_
_atom_site_type_symbol
_atom_site_label
_atom_site_fract_x
_atom_site_fract_y
_atom_site_fract_z
Si Si1 0.286213 0.557382 0.568278
Si Si2 0.647841 0.057032 0.930839
Si Si3 0.069666 0.760791 0.930933
Si Si4 0.610350 0.376362 0.932687
Si Si5 0.500000 0.559073 0.567554
Si Si6 0.568909 0.149301 0.068814
O O1 0.301742 0.500000 0.500000
O O2 0.294112 0.556712 0.750000
O O3 0.217106 0.566789 0.534515
O O4 0.328621 0.600020 0.492406
O O5 0.641470 0.054746 0.750000
O O6 0.607888 0.103342 0.997100
O O7 0.632002 0.000000 0.000000
O O8 0.075707 0.752970 0.750000
O O9 0.102490 0.814698 0.973307
O O10 0.000000 0.769129 0.963097
O O11 0.088622 0.707386 0.013996
O O12 0.605959 0.380919 0.750000
O O13 0.557382 0.409764 0.007355
O O14 0.500000 0.500000 0.500000
O O15 0.500000 0.557084 0.750000
O O16 0.572012 0.146370 0.250000
O O17 0.500000 0.143486 0.022818
#
# Coordination Sequence:
#
# PCOD9473982 Si02
#       6
#    16  16  16  16   8  16
#     4  10  21  37  56  80 108 144 186 227 275 329
#     4  10  21  38  60  83 111 145 182 223 271 329
#     4   9  18  35  56  78 108 145 183 224 273 326
#     4  11  21  36  56  80 109 144 187 230 278 329
#     4  12  24  36  52  76 110 146 185 236 283 324
#     4  10  21  36  57  86 115 142 178 223 272 327
#
# _framework density 17.426174
#
# number of rings (size 3 to 8) (size 9 to 14) (size 15 to 20)
#    0.000    1.818    0.909    3.545    0.000    5.091 
#    0.000    0.909    0.000    0.000    0.000    0.000 
#    0.000    0.000    0.000    0.000    0.000    0.000 
#
# Total GULP energy -245769.338771 kJ/mol
# GULP energy per Si atom -5585.666790 kJ/mol
# Density = 1.738651 g / cm^3
# Si number density = 17.426174 Si / 1000 Ang^3
#
#
#
# Elastic Constant Matrix: (Units=GPa)
#
#
# Indices 1 2 3 4 5 6 
#
# 1 73.6841 95.2901 49.8564 0.0000 0.0000 0.0000
# 2 95.2901 190.7918 76.8971 0.0000 0.0000 0.0000
# 3 49.8564 76.8971 74.0571 0.0000 0.0000 0.0000
# 4 0.0000 0.0000 0.0000 35.1451 0.0000 0.0000
# 5 0.0000 0.0000 0.0000 0.0000 28.8483 0.0000
# 6 0.0000 0.0000 0.0000 0.0000 0.0000 18.7048
#
#
#
# Elastic Compliance Matrix: (Units=1/GPa)
#
#
# Indices 1 2 3 4 5 6 
#
# 1 0.043389 -0.017021 -0.011537 0.000000 0.000000 0.000000
# 2 -0.017021 0.015690 -0.004833 0.000000 0.000000 0.000000
# 3 -0.011537 -0.004833 0.026289 0.000000 0.000000 0.000000
# 4 0.000000 0.000000 0.000000 0.028453 0.000000 0.000000
# 5 0.000000 0.000000 0.000000 0.000000 0.034664 0.000000
# 6 0.000000 0.000000 0.000000 0.000000 0.000000 0.053462
#
#
# Mechanical properties :
#
#
# Convention : Reuss Voigt Hill
#
# Bulk Modulus (GPa) = 53.80333 86.95781 70.38057
# Shear Modulus (GPa) = 18.18680 24.30560 21.24620
#
# Velocity S-wave (km/s) = 3.23406 3.73872 3.49551
# Velocity P-wave (km/s) = 6.69982 8.28531 7.53439
#
# Compressibility (1/GPa) = 0.01858621
#
# Stress axis : x y z
#
# Youngs Moduli (GPa) = 23.04732 63.73378 38.03928
#
# Poissons Ratio (x) = 1.08479 0.43885
# Poissons Ratio (y) = 0.39228 0.18386
# Poissons Ratio (z) = 0.26589 0.30805
#
# Static dielectric constant tensor:
#      x y z
#    x 1.578670 0.000000 0.000000 
#    y 0.000000 1.565410 0.000000 
#    z 0.000000 0.000000 1.580290 
# 
# From -- ./inp_files/8218.got.cif
#   From: 2010.05.17/outbox.cif.g08.bks.cpg/sg63_5_cif.got.tgz:8218.got - 2010.06.03 15:47:04.
