data_PCOD9473551
_publ_section_title
;
Structure prediction by ZEFSAII (Michael W. Deem and Ramdas Pophale) SiO2 
 PCOD9473551
Probable space group: C M C M
;
_chemical_formula_sum "Si O2"
_cell_formula_units_Z 64
_cell_length_a 8.953764
_cell_length_b 23.690509
_cell_length_c 15.615214
_cell_angle_alpha 90.000000
_cell_angle_beta 90.000000
_cell_angle_gamma 90.000000
_cell_volume 3312.287117
_symmetry_space_group_name_H-M "C M C M"
_symmetry_group_IT_number 63
_symmetry_cell_setting 'orthorhombic'
loop_
_space_group_symop_operation_xyz
x,y,z
-x,-y,1/2+z
x,-y,-z
-x,y,1/2-z
-x,-y,-z
x,y,1/2-z
-x,y,z
x,-y,1/2+z
1/2+x,1/2+y,z
1/2-x,1/2-y,1/2+z
1/2+x,1/2-y,-z
1/2-x,1/2+y,1/2-z
1/2-x,1/2-y,-z
1/2+x,1/2+y,1/2-z
1/2-x,1/2+y,z
1/2+x,1/2-y,1/2+z
loop_
_atom_site_type_symbol
_atom_site_label
_atom_site_fract_x
_atom_site_fract_y
_atom_site_fract_z
Si Si1 0.824241 0.692462 0.250000
Si Si2 0.322538 0.113908 0.586030
Si Si3 0.824181 0.827283 0.250000
Si Si4 0.175185 0.003106 0.852241
Si Si5 0.678160 0.626237 0.094063
O O1 0.809330 0.759878 0.250000
O O2 0.747270 0.665755 0.166704
O O3 0.000000 0.678309 0.250000
O O4 0.500000 0.119249 0.585427
O O5 0.252401 0.146794 0.666237
O O6 0.252578 0.135690 0.497712
O O7 0.274088 0.048759 0.599180
O O8 0.000000 0.842252 0.250000
O O9 0.197344 0.008714 0.750000
O O10 0.205930 0.938934 0.879004
O O11 0.000000 0.014815 0.870671
O O12 0.500000 0.634106 0.089594
#
# Coordination Sequence:
#
# PCOD9473551 Si02
#       5
#     8  16   8  16  16
#     4  11  25  44  67  94 123 158 210 269 314 359
#     4  12  25  40  63  97 129 163 207 261 313 360
#     4  11  25  46  67  88 121 168 212 257 314 375
#     4  10  20  38  64  93 127 167 206 246 305 380
#     4  11  23  42  67  94 127 170 208 247 309 380
#
# _framework density 19.321997
#
# number of rings (size 3 to 8) (size 9 to 14) (size 15 to 20)
#    0.000    1.000    2.500    4.500    0.000    8.000 
#    0.000    0.000    0.000    0.000    0.000    0.000 
#    0.000    0.000    0.000    0.000    0.000    0.000 
#
# Total GULP energy -179115.103586 kJ/mol
# GULP energy per Si atom -5597.346987 kJ/mol
# Density = 1.927802 g / cm^3
# Si number density = 19.321997 Si / 1000 Ang^3
#
#
#
# Elastic Constant Matrix: (Units=GPa)
#
#
# Indices 1 2 3 4 5 6 
#
# 1 122.0781 60.3345 62.5056 0.0000 0.0000 0.0000
# 2 60.3345 69.0414 35.6331 0.0000 0.0000 0.0000
# 3 62.5056 35.6331 131.4491 0.0000 0.0000 0.0000
# 4 0.0000 0.0000 0.0000 -5.1772 0.0000 0.0000
# 5 0.0000 0.0000 0.0000 0.0000 38.1682 0.0000
# 6 0.0000 0.0000 0.0000 0.0000 0.0000 29.6977
#
#
#
# Elastic Compliance Matrix: (Units=1/GPa)
#
#
# Indices 1 2 3 4 5 6 
#
# 1 0.016488 -0.012048 -0.004574 0.000000 0.000000 0.000000
# 2 -0.012048 0.025643 -0.001223 0.000000 0.000000 0.000000
# 3 -0.004574 -0.001223 0.010114 0.000000 0.000000 0.000000
# 4 0.000000 0.000000 0.000000 -0.193154 0.000000 0.000000
# 5 0.000000 0.000000 0.000000 0.000000 0.026200 0.000000
# 6 0.000000 0.000000 0.000000 0.000000 0.000000 0.033673
#
#
# Mechanical properties :
#
#
# Convention : Reuss Voigt Hill
#
# Bulk Modulus (GPa) = 60.40036 71.05720 65.72878
# Shear Modulus (GPa) = -125.53940 23.47742 -51.03099
#
# Velocity S-wave (km/s) = -8.06928 3.48955 -5.14472
# Velocity P-wave (km/s) = 7.44916 7.28637 1.09519
#
# Compressibility (1/GPa) = 0.01655619
#
# Stress axis : x y z
#
# Youngs Moduli (GPa) = 60.65048 38.99633 98.87235
#
# Poissons Ratio (x) = 0.46982 0.45227
# Poissons Ratio (y) = 0.73070 0.12088
# Poissons Ratio (z) = 0.27743 0.04768
#
# Static dielectric constant tensor:
#      x y z
#    x 1.642030 0.000000 0.000000 
#    y 0.000000 1.654700 0.000000 
#    z 0.000000 0.000000 1.653340 
# 
# From -- ./inp_files/27540.got.cif
#   From: 2010.05.17/outbox.cif.g08.bks.cpg/sg63_14_cif.got.tgz:27540.got - 2010.06.03 15:47:04.
