data_PCOD9473102
_publ_section_title
;
Structure prediction by ZEFSAII (Michael W. Deem and Ramdas Pophale) SiO2 
 PCOD9473102
Probable space group: C M C M
;
_chemical_formula_sum "Si O2"
_cell_formula_units_Z 64
_cell_length_a 10.219088
_cell_length_b 9.090745
_cell_length_c 33.277712
_cell_angle_alpha 90.000000
_cell_angle_beta 90.000000
_cell_angle_gamma 90.000000
_cell_volume 3091.470265
_symmetry_space_group_name_H-M "C M C M"
_symmetry_group_IT_number 63
_symmetry_cell_setting 'orthorhombic'
loop_
_space_group_symop_operation_xyz
x,y,z
-x,-y,1/2+z
x,-y,-z
-x,y,1/2-z
-x,-y,-z
x,y,1/2-z
-x,y,z
x,-y,1/2+z
1/2+x,1/2+y,z
1/2-x,1/2-y,1/2+z
1/2+x,1/2-y,-z
1/2-x,1/2+y,1/2-z
1/2-x,1/2-y,-z
1/2+x,1/2+y,1/2-z
1/2-x,1/2+y,z
1/2+x,1/2-y,1/2+z
loop_
_atom_site_type_symbol
_atom_site_label
_atom_site_fract_x
_atom_site_fract_y
_atom_site_fract_z
Si Si1 0.724245 0.888147 0.650007
Si Si2 0.150797 0.648916 0.525320
Si Si3 0.647567 0.149099 0.794952
Si Si4 0.645019 0.621427 0.595904
O O1 0.774761 0.779109 0.684238
O O2 0.652980 0.777388 0.619294
O O3 0.648497 0.013017 0.674375
O O4 0.832419 0.982935 0.625612
O O5 0.140471 0.500000 0.500000
O O6 0.250000 0.750000 0.500000
O O7 0.230619 0.619676 0.566241
O O8 0.000000 0.703349 0.531405
O O9 0.695543 0.110407 0.750000
O O10 0.500000 0.201167 0.791482
O O11 0.500000 0.610545 0.576869
#
# Coordination Sequence:
#
# PCOD9473102 Si02
#       4
#    16  16  16  16
#     4  10  22  37  57  86 120 153 198 248 296 349
#     4  11  25  43  64  91 122 156 197 244 295 354
#     4  10  20  36  58  83 115 156 199 244 295 350
#     4  11  23  39  61  88 120 158 199 245 297 353
#
# _framework density 20.702123
#
# number of rings (size 3 to 8) (size 9 to 14) (size 15 to 20)
#    0.000    1.500    0.000    4.500    0.000   12.000 
#    0.000    0.000    0.000   12.000    0.000    0.000 
#    0.000    0.000    0.000    0.000    0.000    0.000 
#
# Total GULP energy -178416.644444 kJ/mol
# GULP energy per Si atom -5575.520139 kJ/mol
# Density = 2.065500 g / cm^3
# Si number density = 20.702123 Si / 1000 Ang^3
#
#
#
# Elastic Constant Matrix: (Units=GPa)
#
#
# Indices 1 2 3 4 5 6 
#
# 1 148.0997 17.2728 36.6650 0.0000 0.0000 0.0000
# 2 17.2728 68.0366 -1.4828 0.0000 0.0000 0.0000
# 3 36.6650 -1.4828 80.6874 0.0000 0.0000 0.0000
# 4 0.0000 0.0000 0.0000 33.1396 0.0000 0.0000
# 5 0.0000 0.0000 0.0000 0.0000 20.5525 0.0000
# 6 0.0000 0.0000 0.0000 0.0000 0.0000 -6.3500
#
#
#
# Elastic Compliance Matrix: (Units=1/GPa)
#
#
# Indices 1 2 3 4 5 6 
#
# 1 0.007892 -0.002083 -0.003625 0.000000 0.000000 0.000000
# 2 -0.002083 0.015253 0.001227 0.000000 0.000000 0.000000
# 3 -0.003625 0.001227 0.014063 0.000000 0.000000 0.000000
# 4 0.000000 0.000000 0.000000 0.030175 0.000000 0.000000
# 5 0.000000 0.000000 0.000000 0.000000 0.048656 0.000000
# 6 0.000000 0.000000 0.000000 0.000000 0.000000 -0.157481
#
#
# Mechanical properties :
#
#
# Convention : Reuss Voigt Hill
#
# Bulk Modulus (GPa) = 35.40111 44.63710 40.01911
# Shear Modulus (GPa) = -216.79336 25.75967 -95.51684
#
# Velocity S-wave (km/s) = -10.24440 3.53129 -6.79991
# Velocity P-wave (km/s) = 11.08120 6.18345 6.50222
#
# Compressibility (1/GPa) = 0.02824770
#
# Stress axis : x y z
#
# Youngs Moduli (GPa) = 126.70298 65.55898 71.10787
#
# Poissons Ratio (x) = 0.13654 0.25774
# Poissons Ratio (y) = 0.26388 -0.08723
# Poissons Ratio (z) = 0.45926 -0.08042
#
# Static dielectric constant tensor:
#      x y z
#    x 1.759340 0.000000 0.000000 
#    y 0.000000 1.719870 0.000000 
#    z 0.000000 0.000000 1.792300 
# 
# From -- ./inp_files/72353.got.cif
#   From: 2010.05.17/outbox.cif.g08.bks.cpg/sg63_37_cif.got.tgz:72353.got - 2010.06.03 15:47:04.
