data_PCOD9473988
_publ_section_title
;
Structure prediction by ZEFSAII (Michael W. Deem and Ramdas Pophale) SiO2 
 PCOD9473988
Probable space group: C M C M
;
_chemical_formula_sum "Si O2"
_cell_formula_units_Z 104
_cell_length_a 23.882272
_cell_length_b 21.578096
_cell_length_c 9.876044
_cell_angle_alpha 90.000000
_cell_angle_beta 90.000000
_cell_angle_gamma 90.000000
_cell_volume 5089.460843
_symmetry_space_group_name_H-M "C M C M"
_symmetry_group_IT_number 63
_symmetry_cell_setting 'orthorhombic'
loop_
_space_group_symop_operation_xyz
x,y,z
-x,-y,1/2+z
x,-y,-z
-x,y,1/2-z
-x,-y,-z
x,y,1/2-z
-x,y,z
x,-y,1/2+z
1/2+x,1/2+y,z
1/2-x,1/2-y,1/2+z
1/2+x,1/2-y,-z
1/2-x,1/2+y,1/2-z
1/2-x,1/2-y,-z
1/2+x,1/2+y,1/2-z
1/2-x,1/2+y,z
1/2+x,1/2-y,1/2+z
loop_
_atom_site_type_symbol
_atom_site_label
_atom_site_fract_x
_atom_site_fract_y
_atom_site_fract_z
Si Si1 0.727377 0.557697 0.595243
Si Si2 0.600458 0.494478 0.750000
Si Si3 0.938253 0.666985 0.907350
Si Si4 0.065379 0.081773 0.003157
Si Si5 0.362492 0.945062 0.403263
Si Si6 0.783894 0.797924 0.405949
Si Si7 0.915050 0.780900 0.094368
O O1 0.710514 0.500000 0.500000
O O2 0.704679 0.545476 0.750000
O O3 0.795039 0.556998 0.598561
O O4 0.714246 0.628567 0.554507
O O5 0.601002 0.440517 0.869378
O O6 0.586038 0.546046 0.630218
O O7 0.929435 0.685135 0.750000
O O8 0.889672 0.619332 0.946564
O O9 0.000000 0.637123 0.915611
O O10 0.937015 0.725306 0.004233
O O11 0.000000 0.066837 0.032706
O O12 0.069363 0.154042 0.971936
O O13 0.381471 0.956599 0.250000
O O14 0.380268 0.000000 0.500000
O O15 0.761912 0.797304 0.250000
O O16 0.750000 0.750000 0.500000
O O17 0.847785 0.776563 0.404695
O O18 0.934092 0.778707 0.250000
#
# Coordination Sequence:
#
# PCOD9473988 Si02
#       7
#    16   8  16  16  16  16  16
#     4   9  18  35  57  82 112 145 182 228 279 333
#     4  10  21  36  58  80 108 154 196 234 282 332
#     4  10  22  39  58  83 116 152 192 235 277 333
#     4  11  20  36  56  81 113 149 194 237 280 333
#     4   9  18  34  58  85 112 145 182 223 275 335
#     4  10  22  41  61  83 112 148 191 237 284 342
#     4  11  24  39  56  84 114 151 191 237 291 335
#
# _framework density 20.434384000000001
#
# number of rings (size 3 to 8) (size 9 to 14) (size 15 to 20)
#    0.000    2.000    0.769    3.231    1.077    4.308 
#    2.769    3.077    0.000    0.000    0.000    0.000 
#    0.000    0.000    0.000    0.000    0.000    0.000 
#
# Total GULP energy -289523.036888 kJ/mol
# GULP energy per Si atom -5567.750709 kJ/mol
# Density = 2.038787 g / cm^3
# Si number density = 20.434384 Si / 1000 Ang^3
#
#
#
# Elastic Constant Matrix: (Units=GPa)
#
#
# Indices 1 2 3 4 5 6 
#
# 1 40.0492 15.6419 13.2637 0.0000 0.0000 0.0000
# 2 15.6419 111.5206 59.8568 0.0000 0.0000 0.0000
# 3 13.2637 59.8568 107.3170 0.0000 0.0000 0.0000
# 4 0.0000 0.0000 0.0000 39.7477 0.0000 0.0000
# 5 0.0000 0.0000 0.0000 0.0000 15.6397 0.0000
# 6 0.0000 0.0000 0.0000 0.0000 0.0000 27.5573
#
#
#
# Elastic Compliance Matrix: (Units=1/GPa)
#
#
# Indices 1 2 3 4 5 6 
#
# 1 0.026638 -0.002811 -0.001725 0.000000 0.000000 0.000000
# 2 -0.002811 0.013095 -0.006956 0.000000 0.000000 0.000000
# 3 -0.001725 -0.006956 0.013411 0.000000 0.000000 0.000000
# 4 0.000000 0.000000 0.000000 0.025159 0.000000 0.000000
# 5 0.000000 0.000000 0.000000 0.000000 0.063940 0.000000
# 6 0.000000 0.000000 0.000000 0.000000 0.000000 0.036288
#
#
# Mechanical properties :
#
#
# Convention : Reuss Voigt Hill
#
# Bulk Modulus (GPa) = 33.15533 48.49018 40.82275
# Shear Modulus (GPa) = 23.63310 27.93059 25.78184
#
# Velocity S-wave (km/s) = 3.40448 3.70109 3.55588
# Velocity P-wave (km/s) = 5.63156 6.48424 6.07288
#
# Compressibility (1/GPa) = 0.03016107
#
# Stress axis : x y z
#
# Youngs Moduli (GPa) = 37.54012 76.36567 74.56385
#
# Poissons Ratio (x) = 0.21463 0.12860
# Poissons Ratio (y) = 0.10551 0.51870
# Poissons Ratio (z) = 0.06475 0.53123
#
# Static dielectric constant tensor:
#      x y z
#    x 2.175420 0.000000 0.000000 
#    y 0.000000 1.708040 0.000000 
#    z 0.000000 0.000000 1.725960 
# 
# From -- ./inp_files/12599.got.cif
#   From: 2010.05.17/outbox.cif.g08.bks.cpg/sg63_7_cif.got.tgz:12599.got - 2010.06.03 15:47:04.
