data_PCOD9473765
_publ_section_title
;
Structure prediction by ZEFSAII (Michael W. Deem and Ramdas Pophale) SiO2 
 PCOD9473765
Probable space group: C M C M
;
_chemical_formula_sum "Si O2"
_cell_formula_units_Z 68
_cell_length_a 12.390078
_cell_length_b 14.240687
_cell_length_c 22.597457
_cell_angle_alpha 90.000000
_cell_angle_beta 90.000000
_cell_angle_gamma 90.000000
_cell_volume 3987.168138
_symmetry_space_group_name_H-M "C M C M"
_symmetry_group_IT_number 63
_symmetry_cell_setting 'orthorhombic'
loop_
_space_group_symop_operation_xyz
x,y,z
-x,-y,1/2+z
x,-y,-z
-x,y,1/2-z
-x,-y,-z
x,y,1/2-z
-x,y,z
x,-y,1/2+z
1/2+x,1/2+y,z
1/2-x,1/2-y,1/2+z
1/2+x,1/2-y,-z
1/2-x,1/2+y,1/2-z
1/2-x,1/2-y,-z
1/2+x,1/2+y,1/2-z
1/2-x,1/2+y,z
1/2+x,1/2-y,1/2+z
loop_
_atom_site_type_symbol
_atom_site_label
_atom_site_fract_x
_atom_site_fract_y
_atom_site_fract_z
Si Si1 0.500000 0.000000 0.500000
Si Si2 0.808756 0.462536 0.090107
Si Si3 0.748068 0.675525 0.409714
Si Si4 0.628390 0.194007 0.680604
Si Si5 0.125664 0.161100 0.531522
O O1 0.594839 0.044654 0.542954
O O2 0.790015 0.571747 0.102935
O O3 0.838951 0.401947 0.147408
O O4 0.702025 0.417423 0.060824
O O5 0.693057 0.725144 0.354007
O O6 0.843313 0.741989 0.435093
O O7 0.662139 0.671596 0.463517
O O8 0.654167 0.191535 0.750000
O O9 0.500000 0.208247 0.674089
O O10 0.000000 0.140275 0.536543
#
# Coordination Sequence:
#
# PCOD9473765 Si02
#       5
#     4  16  16  16  16
#     4  12  20  36  60  92 120 142 192 236 298 370
#     4  11  22  36  60  85 118 151 181 238 292 342
#     4  10  21  34  55  83 109 155 178 232 284 335
#     4  10  22  39  57  79 110 151 197 239 274 333
#     4  10  21  34  53  87 119 142 181 226 290 346
#
# _framework density 17.054711999999999
#
# number of rings (size 3 to 8) (size 9 to 14) (size 15 to 20)
#    0.000    1.647    3.529    0.706    1.647    3.765 
#    0.000    0.000    0.000   11.294    0.000    0.000 
#    0.000    0.000    0.000    0.000    0.000    0.000 
#
# Total GULP energy -189357.108285 kJ/mol
# GULP energy per Si atom -5569.326714 kJ/mol
# Density = 1.701589 g / cm^3
# Si number density = 17.054712 Si / 1000 Ang^3
#
#
#
# Elastic Constant Matrix: (Units=GPa)
#
#
# Indices 1 2 3 4 5 6 
#
# 1 115.0390 6.2559 15.6721 0.0000 0.0000 0.0000
# 2 6.2559 76.5752 -3.9973 0.0000 0.0000 0.0000
# 3 15.6721 -3.9973 83.9589 0.0000 0.0000 0.0000
# 4 0.0000 0.0000 0.0000 17.9723 0.0000 0.0000
# 5 0.0000 0.0000 0.0000 0.0000 15.1157 0.0000
# 6 0.0000 0.0000 0.0000 0.0000 0.0000 8.4181
#
#
#
# Elastic Compliance Matrix: (Units=1/GPa)
#
#
# Indices 1 2 3 4 5 6 
#
# 1 0.008971 -0.000822 -0.001714 0.000000 0.000000 0.000000
# 2 -0.000822 0.013167 0.000780 0.000000 0.000000 0.000000
# 3 -0.001714 0.000780 0.012268 0.000000 0.000000 0.000000
# 4 0.000000 0.000000 0.000000 0.055641 0.000000 0.000000
# 5 0.000000 0.000000 0.000000 0.000000 0.066156 0.000000
# 6 0.000000 0.000000 0.000000 0.000000 0.000000 0.118791
#
#
# Mechanical properties :
#
#
# Convention : Reuss Voigt Hill
#
# Bulk Modulus (GPa) = 32.36856 34.60384 33.48620
# Shear Modulus (GPa) = 17.31282 25.47738 21.39510
#
# Velocity S-wave (km/s) = 3.18957 3.86924 3.54573
# Velocity P-wave (km/s) = 5.70832 6.34786 6.03657
#
# Compressibility (1/GPa) = 0.03089418
#
# Stress axis : x y z
#
# Youngs Moduli (GPa) = 111.47170 75.94755 81.51532
#
# Poissons Ratio (x) = 0.06245 0.13969
# Poissons Ratio (y) = 0.09167 -0.06361
# Poissons Ratio (z) = 0.19103 -0.05927
#
# Static dielectric constant tensor:
#      x y z
#    x 1.553290 0.000000 0.000000 
#    y 0.000000 1.603530 0.000000 
#    z 0.000000 0.000000 1.572150 
# 
# From -- ./inp_files/52203.got.cif
#   From: 2010.05.17/outbox.cif.g08.bks.cpg/sg63_27_cif.got.tgz:52203.got - 2010.06.03 15:47:04.
