data_PCOD9473986
_publ_section_title
;
Structure prediction by ZEFSAII (Michael W. Deem and Ramdas Pophale) SiO2 
 PCOD9473986
Probable space group: C M C M
;
_chemical_formula_sum "Si O2"
_cell_formula_units_Z 100
_cell_length_a 7.615079
_cell_length_b 30.362720
_cell_length_c 19.956287
_cell_angle_alpha 90.000000
_cell_angle_beta 90.000000
_cell_angle_gamma 90.000000
_cell_volume 4614.183149
_symmetry_space_group_name_H-M "C M C M"
_symmetry_group_IT_number 63
_symmetry_cell_setting 'orthorhombic'
loop_
_space_group_symop_operation_xyz
x,y,z
-x,-y,1/2+z
x,-y,-z
-x,y,1/2-z
-x,-y,-z
x,y,1/2-z
-x,y,z
x,-y,1/2+z
1/2+x,1/2+y,z
1/2-x,1/2-y,1/2+z
1/2+x,1/2-y,-z
1/2-x,1/2+y,1/2-z
1/2-x,1/2-y,-z
1/2+x,1/2+y,1/2-z
1/2-x,1/2+y,z
1/2+x,1/2-y,1/2+z
loop_
_atom_site_type_symbol
_atom_site_label
_atom_site_fract_x
_atom_site_fract_y
_atom_site_fract_z
Si Si1 0.000000 0.988685 0.250000
Si Si2 0.791056 0.287610 0.406241
Si Si3 0.695681 0.993332 0.643642
Si Si4 0.700185 0.402446 0.594504
Si Si5 0.291952 0.931491 0.050854
Si Si6 0.787124 0.808318 0.559175
Si Si7 0.785644 0.630056 0.674758
O O1 0.846164 0.991827 0.307308
O O2 0.722193 0.237634 0.409291
O O3 0.761709 0.307417 0.480573
O O4 0.726109 0.321725 0.350614
O O5 0.000000 0.284358 0.396430
O O6 0.500000 0.007108 0.665544
O O7 0.702553 0.940996 0.633529
O O8 0.727200 0.018086 0.573216
O O9 0.500000 0.401679 0.619756
O O10 0.699891 0.416590 0.516504
O O11 0.774119 0.352970 0.594446
O O12 0.500000 0.922971 0.040052
O O13 0.234415 0.903459 0.116006
O O14 0.000000 0.808752 0.561546
O O15 0.723934 0.619385 0.750000
O O16 0.000000 0.629771 0.676327
#
# Coordination Sequence:
#
# PCOD9473986 Si02
#       7
#     4  16  16  16  16  16  16
#     4  12  26  48  66  90 120 164 216 256 304 378
#     4   9  16  30  51  77 109 148 195 244 297 360
#     4  11  25  43  66  90 123 163 206 258 311 368
#     4  11  21  36  58  88 125 158 204 262 315 365
#     4  10  21  36  57  88 120 155 201 254 310 373
#     4   9  18  30  51  80 115 145 190 249 305 353
#     4   9  17  30  51  79 114 152 199 248 302 371
#
# _framework density 21.672308999999998
#
# number of rings (size 3 to 8) (size 9 to 14) (size 15 to 20)
#    0.000    2.080    2.400    1.200    2.240    2.560 
#    0.000    0.000    1.760    1.440    0.000    0.000 
#    0.000    0.000    0.000    0.000    0.000    0.000 
#
# Total GULP energy -278759.167329 kJ/mol
# GULP energy per Si atom -5575.183347 kJ/mol
# Density = 2.162298 g / cm^3
# Si number density = 21.672309 Si / 1000 Ang^3
#
#
#
# Elastic Constant Matrix: (Units=GPa)
#
#
# Indices 1 2 3 4 5 6 
#
# 1 81.3192 6.5439 16.6345 0.0000 0.0000 0.0000
# 2 6.5439 86.5360 -15.1224 0.0000 0.0000 0.0000
# 3 16.6345 -15.1224 41.5248 0.0000 0.0000 0.0000
# 4 0.0000 0.0000 0.0000 -3.8483 0.0000 0.0000
# 5 0.0000 0.0000 0.0000 0.0000 29.3841 0.0000
# 6 0.0000 0.0000 0.0000 0.0000 0.0000 12.6538
#
#
#
# Elastic Compliance Matrix: (Units=1/GPa)
#
#
# Indices 1 2 3 4 5 6 
#
# 1 0.013756 -0.002139 -0.006290 0.000000 0.000000 0.000000
# 2 -0.002139 0.012674 0.005473 0.000000 0.000000 0.000000
# 3 -0.006290 0.005473 0.028595 0.000000 0.000000 0.000000
# 4 0.000000 0.000000 0.000000 -0.259853 0.000000 0.000000
# 5 0.000000 0.000000 0.000000 0.000000 0.034032 0.000000
# 6 0.000000 0.000000 0.000000 0.000000 0.000000 0.079027
#
#
# Mechanical properties :
#
#
# Convention : Reuss Voigt Hill
#
# Bulk Modulus (GPa) = 20.36171 25.05466 22.70819
# Shear Modulus (GPa) = -71.95725 21.05952 -25.44886
#
# Velocity S-wave (km/s) = -5.76840 3.12063 -3.43046
# Velocity P-wave (km/s) = 5.91188 4.95684 2.27816
#
# Compressibility (1/GPa) = 0.04911179
#
# Stress axis : x y z
#
# Youngs Moduli (GPa) = 72.69566 78.90158 34.97164
#
# Poissons Ratio (x) = 0.16880 0.21996
# Poissons Ratio (y) = 0.15552 -0.19139
# Poissons Ratio (z) = 0.45723 -0.43180
#
# Static dielectric constant tensor:
#      x y z
#    x 1.809900 0.000000 0.000000 
#    y 0.000000 1.850230 0.000000 
#    z 0.000000 0.000000 1.567880 
# 
# From -- ./inp_files/51671.got.cif
#   From: 2010.05.17/outbox.cif.g08.bks.cpg/sg63_26_cif.got.tgz:51671.got - 2010.06.03 15:47:04.
