data_PCOD9474744
_publ_section_title
;
Structure prediction by ZEFSAII (Michael W. Deem and Ramdas Pophale) SiO2 
 PCOD9474744
Probable space group: C M C M
;
_chemical_formula_sum "Si O2"
_cell_formula_units_Z 64
_cell_length_a 22.824875
_cell_length_b 9.751747
_cell_length_c 13.791325
_cell_angle_alpha 90.000000
_cell_angle_beta 90.000000
_cell_angle_gamma 90.000000
_cell_volume 3069.706305
_symmetry_space_group_name_H-M "C M C M"
_symmetry_group_IT_number 63
_symmetry_cell_setting 'orthorhombic'
loop_
_space_group_symop_operation_xyz
x,y,z
-x,-y,1/2+z
x,-y,-z
-x,y,1/2-z
-x,-y,-z
x,y,1/2-z
-x,y,z
x,-y,1/2+z
1/2+x,1/2+y,z
1/2-x,1/2-y,1/2+z
1/2+x,1/2-y,-z
1/2-x,1/2+y,1/2-z
1/2-x,1/2-y,-z
1/2+x,1/2+y,1/2-z
1/2-x,1/2+y,z
1/2+x,1/2-y,1/2+z
loop_
_atom_site_type_symbol
_atom_site_label
_atom_site_fract_x
_atom_site_fract_y
_atom_site_fract_z
Si Si1 0.291256 0.471485 0.362110
Si Si2 0.568227 0.785852 0.639196
Si Si3 0.158127 0.462421 0.359879
Si Si4 0.848379 0.803138 0.989991
O O1 0.303379 0.445049 0.250000
O O2 0.224072 0.519263 0.370565
O O3 0.299723 0.336256 0.427676
O O4 0.334369 0.583594 0.408600
O O5 0.575310 0.732671 0.750000
O O6 0.500000 0.817873 0.625593
O O7 0.592625 0.688759 0.554335
O O8 0.608951 0.921175 0.632480
O O9 0.154779 0.405281 0.250000
O O10 0.151742 0.342094 0.437126
#
# Coordination Sequence:
#
# PCOD9474744 Si02
#       4
#    16  16  16  16
#     4  10  23  38  56  90 127 159 198 246 305 363
#     4  10  23  42  63  89 120 157 203 253 305 357
#     4  10  22  37  58  88 125 160 196 249 303 356
#     4  11  22  36  63  87 119 161 202 247 297 357
#
# _framework density 20.848901000000001
#
# number of rings (size 3 to 8) (size 9 to 14) (size 15 to 20)
#    0.000    1.750    0.000    3.000   10.500    2.000 
#    0.000    2.500    0.000    3.750    0.000    3.500 
#    0.000    0.000    0.000    0.000    0.000    0.000 
#
# Total GULP energy -178641.312225 kJ/mol
# GULP energy per Si atom -5582.541007 kJ/mol
# Density = 2.080145 g / cm^3
# Si number density = 20.848901 Si / 1000 Ang^3
#
#
#
# Elastic Constant Matrix: (Units=GPa)
#
#
# Indices 1 2 3 4 5 6 
#
# 1 145.2902 33.6845 46.2627 0.0000 0.0000 0.0000
# 2 33.6845 46.0177 35.9492 0.0000 0.0000 0.0000
# 3 46.2627 35.9492 170.4467 0.0000 0.0000 0.0000
# 4 0.0000 0.0000 0.0000 28.2518 0.0000 0.0000
# 5 0.0000 0.0000 0.0000 0.0000 28.0887 0.0000
# 6 0.0000 0.0000 0.0000 0.0000 0.0000 18.5200
#
#
#
# Elastic Compliance Matrix: (Units=1/GPa)
#
#
# Indices 1 2 3 4 5 6 
#
# 1 0.008486 -0.005283 -0.001189 0.000000 0.000000 0.000000
# 2 -0.005283 0.029306 -0.004747 0.000000 0.000000 0.000000
# 3 -0.001189 -0.004747 0.007191 0.000000 0.000000 0.000000
# 4 0.000000 0.000000 0.000000 0.035396 0.000000 0.000000
# 5 0.000000 0.000000 0.000000 0.000000 0.035602 0.000000
# 6 0.000000 0.000000 0.000000 0.000000 0.000000 0.053996
#
#
# Mechanical properties :
#
#
# Convention : Reuss Voigt Hill
#
# Bulk Modulus (GPa) = 44.35548 65.94970 55.15259
# Shear Modulus (GPa) = 25.00875 31.36264 28.18570
#
# Velocity S-wave (km/s) = 3.46717 3.88272 3.68081
# Velocity P-wave (km/s) = 6.11141 7.19733 6.67648
#
# Compressibility (1/GPa) = 0.02254513
#
# Stress axis : x y z
#
# Youngs Moduli (GPa) = 117.83828 34.12233 139.06434
#
# Poissons Ratio (x) = 0.18026 0.16536
# Poissons Ratio (y) = 0.62253 0.66016
# Poissons Ratio (z) = 0.14012 0.16198
#
# Static dielectric constant tensor:
#      x y z
#    x 1.736620 0.000000 0.000000 
#    y 0.000000 1.792900 0.000000 
#    z 0.000000 0.000000 1.790990 
# 
# From -- ./inp_files/34914.got.cif
#   From: 2010.05.17/outbox.cif.g08.bks.cpg/sg63_18_cif.got.tgz:34914.got - 2010.06.03 15:47:04.
