data_PCOD9474020
_publ_section_title
;
Structure prediction by ZEFSAII (Michael W. Deem and Ramdas Pophale) SiO2 
 PCOD9474020
Probable space group: C M C M
;
_chemical_formula_sum "Si O2"
_cell_formula_units_Z 68
_cell_length_a 19.994687
_cell_length_b 18.502618
_cell_length_c 9.567890
_cell_angle_alpha 90.000000
_cell_angle_beta 90.000000
_cell_angle_gamma 90.000000
_cell_volume 3539.679709
_symmetry_space_group_name_H-M "C M C M"
_symmetry_group_IT_number 63
_symmetry_cell_setting 'orthorhombic'
loop_
_space_group_symop_operation_xyz
x,y,z
-x,-y,1/2+z
x,-y,-z
-x,y,1/2-z
-x,-y,-z
x,y,1/2-z
-x,y,z
x,-y,1/2+z
1/2+x,1/2+y,z
1/2-x,1/2-y,1/2+z
1/2+x,1/2-y,-z
1/2-x,1/2+y,1/2-z
1/2-x,1/2-y,-z
1/2+x,1/2+y,1/2-z
1/2-x,1/2+y,z
1/2+x,1/2-y,1/2+z
loop_
_atom_site_type_symbol
_atom_site_label
_atom_site_fract_x
_atom_site_fract_y
_atom_site_fract_z
Si Si1 0.855954 0.640949 0.916434
Si Si2 0.128403 0.194189 0.085731
Si Si3 0.761481 0.930831 0.914759
Si Si4 0.500000 0.383305 0.493010
Si Si5 0.500000 0.073592 0.914266
Si Si6 0.000000 0.003374 0.250000
O O1 0.841674 0.630836 0.750000
O O2 0.847885 0.725484 0.951668
O O3 0.932601 0.618384 0.941778
O O4 0.806824 0.593252 0.010294
O O5 0.108507 0.197717 0.250000
O O6 0.186739 0.135166 0.073133
O O7 0.065543 0.166794 0.998161
O O8 0.752750 0.947274 0.750000
O O9 0.788031 0.000000 0.000000
O O10 0.500000 0.439666 0.368806
O O11 0.500000 0.433223 0.629992
O O12 0.500000 0.055803 0.750000
O O13 0.500000 0.000000 0.000000
#
# Coordination Sequence:
#
# PCOD9474020 Si02
#       6
#    16  16  16   8   8   4
#     4  10  21  41  62  88 116 154 196 243 297 356
#     4  10  21  38  64  87 118 158 198 241 297 352
#     4  11  24  39  59  88 119 155 197 243 292 352
#     4  11  21  40  58  90 120 158 200 244 293 345
#     4  10  21  36  63  87 112 146 194 239 289 344
#     4  10  24  34  62  84 128 154 198 248 292 340
#
# _framework density 19.210778000000001
#
# number of rings (size 3 to 8) (size 9 to 14) (size 15 to 20)
#    0.000    1.647    1.176    2.824    3.294    4.706 
#    4.235    0.000    2.588    0.000    0.000    0.000 
#    0.000    0.000    0.000    0.000    0.000    0.000 
#
# Total GULP energy -189424.782053 kJ/mol
# GULP energy per Si atom -5571.317119 kJ/mol
# Density = 1.916705 g / cm^3
# Si number density = 19.210778 Si / 1000 Ang^3
#
#
#
# Elastic Constant Matrix: (Units=GPa)
#
#
# Indices 1 2 3 4 5 6 
#
# 1 56.6984 3.2659 23.1206 0.0000 0.0000 0.0000
# 2 3.2659 111.6647 39.1549 0.0000 0.0000 0.0000
# 3 23.1206 39.1549 96.3513 0.0000 0.0000 0.0000
# 4 0.0000 0.0000 0.0000 28.8462 0.0000 0.0000
# 5 0.0000 0.0000 0.0000 0.0000 22.0591 0.0000
# 6 0.0000 0.0000 0.0000 0.0000 0.0000 0.5623
#
#
#
# Elastic Compliance Matrix: (Units=1/GPa)
#
#
# Indices 1 2 3 4 5 6 
#
# 1 0.019701 0.001261 -0.005240 0.000000 0.000000 0.000000
# 2 0.001261 0.010524 -0.004579 0.000000 0.000000 0.000000
# 3 -0.005240 -0.004579 0.013497 0.000000 0.000000 0.000000
# 4 0.000000 0.000000 0.000000 0.034667 0.000000 0.000000
# 5 0.000000 0.000000 0.000000 0.000000 0.045333 0.000000
# 6 0.000000 0.000000 0.000000 0.000000 0.000000 1.778314
#
#
# Mechanical properties :
#
#
# Convention : Reuss Voigt Hill
#
# Bulk Modulus (GPa) = 37.58547 43.97747 40.78147
# Shear Modulus (GPa) = 2.59333 23.57173 13.08253
#
# Velocity S-wave (km/s) = 1.16313 3.50666 2.61243
# Velocity P-wave (km/s) = 4.62721 6.27195 5.51128
#
# Compressibility (1/GPa) = 0.02660603
#
# Stress axis : x y z
#
# Youngs Moduli (GPa) = 50.75794 95.01844 74.08999
#
# Poissons Ratio (x) = -0.11984 0.38824
# Poissons Ratio (y) = -0.06402 0.33929
# Poissons Ratio (z) = 0.26598 0.43513
#
# Static dielectric constant tensor:
#      x y z
#    x 1.676680 0.000000 0.000000 
#    y 0.000000 1.658210 0.000000 
#    z 0.000000 0.000000 1.644240 
# 
# From -- ./inp_files/7649.got.cif
#   From: 2010.05.17/outbox.cif.g08.bks.cpg/sg63_4_cif.got.tgz:7649.got - 2010.06.03 15:47:04.
