data_PCOD9474566
_publ_section_title
;
Structure prediction by ZEFSAII (Michael W. Deem and Ramdas Pophale) SiO2 
 PCOD9474566
Probable space group: C M C M
;
_chemical_formula_sum "Si O2"
_cell_formula_units_Z 72
_cell_length_a 7.776770
_cell_length_b 15.163553
_cell_length_c 25.155819
_cell_angle_alpha 90.000000
_cell_angle_beta 90.000000
_cell_angle_gamma 90.000000
_cell_volume 2966.461318
_symmetry_space_group_name_H-M "C M C M"
_symmetry_group_IT_number 63
_symmetry_cell_setting 'orthorhombic'
loop_
_space_group_symop_operation_xyz
x,y,z
-x,-y,1/2+z
x,-y,-z
-x,y,1/2-z
-x,-y,-z
x,y,1/2-z
-x,y,z
x,-y,1/2+z
1/2+x,1/2+y,z
1/2-x,1/2-y,1/2+z
1/2+x,1/2-y,-z
1/2-x,1/2+y,1/2-z
1/2-x,1/2-y,-z
1/2+x,1/2+y,1/2-z
1/2-x,1/2+y,z
1/2+x,1/2-y,1/2+z
loop_
_atom_site_type_symbol
_atom_site_label
_atom_site_fract_x
_atom_site_fract_y
_atom_site_fract_z
Si Si1 0.750000 0.750000 0.500000
Si Si2 0.208195 0.348520 0.807891
Si Si3 0.292584 0.915020 0.921907
Si Si4 0.689360 0.607951 0.924441
Si Si5 0.299830 0.144097 0.691525
O O1 0.759850 0.831737 0.543152
O O2 0.806442 0.678074 0.546188
O O3 0.252794 0.387346 0.750000
O O4 0.260333 0.399787 0.860555
O O5 0.283426 0.250120 0.809969
O O6 0.000000 0.340009 0.809893
O O7 0.500000 0.921061 0.923680
O O8 0.217493 0.007804 0.940452
O O9 0.500000 0.642815 0.940798
O O10 0.707431 0.611204 0.861100
O O11 0.234829 0.116522 0.750000
O O12 0.500000 0.117837 0.687859
#
# Coordination Sequence:
#
# PCOD9474566 Si02
#       5
#     8  16  16  16  16
#     4  12  26  46  70  94 130 182 232 284 336 400
#     4   9  18  38  68  99 134 176 221 272 334 402
#     4  11  25  45  69 102 137 179 228 278 341 406
#     4  12  27  46  70 103 136 177 229 282 342 405
#     4  10  21  39  67 102 138 178 222 272 336 405
#
# _framework density 24.271343000000002
#
# number of rings (size 3 to 8) (size 9 to 14) (size 15 to 20)
#    0.000    1.333    2.222    2.667    0.000   10.222 
#    0.000    2.222    0.000    0.000    0.000    0.000 
#    0.000    0.000    0.000    0.000    0.000    0.000 
#
# Total GULP energy -200404.887748 kJ/mol
# GULP energy per Si atom -5566.802437 kJ/mol
# Density = 2.421610 g / cm^3
# Si number density = 24.271343 Si / 1000 Ang^3
#
#
#
# Elastic Constant Matrix: (Units=GPa)
#
#
# Indices 1 2 3 4 5 6 
#
# 1 54.4119 -1.8259 12.4264 0.0000 0.0000 0.0000
# 2 -1.8259 136.8325 41.9848 0.0000 0.0000 0.0000
# 3 12.4264 41.9848 180.3684 0.0000 0.0000 0.0000
# 4 0.0000 0.0000 0.0000 -558.8641 0.0000 0.0000
# 5 0.0000 0.0000 0.0000 0.0000 -710.9073 0.0000
# 6 0.0000 0.0000 0.0000 0.0000 0.0000 16.0488
#
#
#
# Elastic Compliance Matrix: (Units=1/GPa)
#
#
# Indices 1 2 3 4 5 6 
#
# 1 0.018733 0.000696 -0.001453 0.000000 0.000000 0.000000
# 2 0.000696 0.007896 -0.001886 0.000000 0.000000 0.000000
# 3 -0.001453 -0.001886 0.006083 0.000000 0.000000 0.000000
# 4 0.000000 0.000000 0.000000 -0.001789 0.000000 0.000000
# 5 0.000000 0.000000 0.000000 0.000000 -0.001407 0.000000
# 6 0.000000 0.000000 0.000000 0.000000 0.000000 0.062310
#
#
# Mechanical properties :
#
#
# Convention : Reuss Voigt Hill
#
# Bulk Modulus (GPa) = 36.46016 52.97594 44.71805
# Shear Modulus (GPa) = 47.05663 -229.47603 -91.20970
#
# Velocity S-wave (km/s) = 4.40793 -9.73403 -6.13684
# Velocity P-wave (km/s) = 6.40007 10.22063 5.63472
#
# Compressibility (1/GPa) = 0.02742720
#
# Stress axis : x y z
#
# Youngs Moduli (GPa) = 53.38054 126.64385 164.38508
#
# Poissons Ratio (x) = -0.08810 0.23878
# Poissons Ratio (y) = -0.03714 0.31002
# Poissons Ratio (z) = 0.07754 0.23884
#
# Static dielectric constant tensor:
#      x y z
#    x 1.965990 0.000000 0.000000 
#    y 0.000000 1.846580 0.000000 
#    z 0.000000 0.000000 1.928400 
# 
# From -- ./inp_files/66329.got.cif
#   From: 2010.05.17/outbox.cif.g08.bks.cpg/sg63_34_cif.got.tgz:66329.got - 2010.06.03 15:47:04.
