data_PCOD9474850
_publ_section_title
;
Structure prediction by ZEFSAII (Michael W. Deem and Ramdas Pophale) SiO2 
 PCOD9474850
Probable space group: C M C M
;
_chemical_formula_sum "Si O2"
_cell_formula_units_Z 68
_cell_length_a 22.831700
_cell_length_b 17.499651
_cell_length_c 7.619686
_cell_angle_alpha 90.000000
_cell_angle_beta 90.000000
_cell_angle_gamma 90.000000
_cell_volume 3044.421019
_symmetry_space_group_name_H-M "C M C M"
_symmetry_group_IT_number 63
_symmetry_cell_setting 'orthorhombic'
loop_
_space_group_symop_operation_xyz
x,y,z
-x,-y,1/2+z
x,-y,-z
-x,y,1/2-z
-x,-y,-z
x,y,1/2-z
-x,y,z
x,-y,1/2+z
1/2+x,1/2+y,z
1/2-x,1/2-y,1/2+z
1/2+x,1/2-y,-z
1/2-x,1/2+y,1/2-z
1/2-x,1/2-y,-z
1/2+x,1/2+y,1/2-z
1/2-x,1/2+y,z
1/2+x,1/2-y,1/2+z
loop_
_atom_site_type_symbol
_atom_site_label
_atom_site_fract_x
_atom_site_fract_y
_atom_site_fract_z
Si Si1 0.835281 0.586056 0.539816
Si Si2 0.000000 0.000000 0.000000
Si Si3 0.587653 0.634751 0.455980
Si Si4 0.721636 0.666293 0.959693
Si Si5 0.436989 0.195192 0.964402
O O1 0.851859 0.500000 0.500000
O O2 0.833619 0.595373 0.750000
O O3 0.770771 0.607181 0.475083
O O4 0.882912 0.645685 0.470959
O O5 0.051987 0.064872 0.962140
O O6 0.571660 0.627502 0.250000
O O7 0.658093 0.643084 0.468142
O O8 0.566983 0.717388 0.522399
O O9 0.715738 0.662594 0.750000
O O10 0.750000 0.750000 0.000000
O O11 0.433973 0.197036 0.750000
O O12 0.500000 0.162200 0.013172
#
# Coordination Sequence:
#
# PCOD9474850 Si02
#       5
#    16   4  16  16  16
#     4  10  22  39  60  90 125 161 209 263 320 386
#     4  12  26  40  68 106 132 176 232 284 338 414
#     4  11  23  42  66  92 130 175 219 270 331 398
#     4  11  23  41  66  95 127 169 220 273 331 399
#     4   9  17  36  64  88 115 163 212 252 312 388
#
# _framework density 22.335937999999999
#
# number of rings (size 3 to 8) (size 9 to 14) (size 15 to 20)
#    0.000    1.647    3.529    1.059    1.647    4.235 
#    0.000    0.000    0.000    1.412    0.000    0.000 
#    0.000    0.000    0.000    0.000    0.000    0.000 
#
# Total GULP energy -189337.604993 kJ/mol
# GULP energy per Si atom -5568.753088 kJ/mol
# Density = 2.228510 g / cm^3
# Si number density = 22.335938 Si / 1000 Ang^3
#
#
#
# Elastic Constant Matrix: (Units=GPa)
#
#
# Indices 1 2 3 4 5 6 
#
# 1 213.9789 74.6537 1.9328 0.0000 0.0000 0.0000
# 2 74.6537 144.6220 -6.2800 0.0000 0.0000 0.0000
# 3 1.9328 -6.2800 55.8966 0.0000 0.0000 0.0000
# 4 0.0000 0.0000 0.0000 1.5160 0.0000 0.0000
# 5 0.0000 0.0000 0.0000 0.0000 1.1595 0.0000
# 6 0.0000 0.0000 0.0000 0.0000 0.0000 44.3922
#
#
#
# Elastic Compliance Matrix: (Units=1/GPa)
#
#
# Indices 1 2 3 4 5 6 
#
# 1 0.005716 -0.002973 -0.000532 0.000000 0.000000 0.000000
# 2 -0.002973 0.008495 0.001057 0.000000 0.000000 0.000000
# 3 -0.000532 0.001057 0.018027 0.000000 0.000000 0.000000
# 4 0.000000 0.000000 0.000000 0.659619 0.000000 0.000000
# 5 0.000000 0.000000 0.000000 0.000000 0.862472 0.000000
# 6 0.000000 0.000000 0.000000 0.000000 0.000000 0.022526
#
#
# Mechanical properties :
#
#
# Convention : Reuss Voigt Hill
#
# Bulk Modulus (GPa) = 36.57310 61.67895 49.12602
# Shear Modulus (GPa) = 3.14294 32.35960 17.75127
#
# Velocity S-wave (km/s) = 1.18751 3.81040 2.82217
# Velocity P-wave (km/s) = 4.27667 6.85806 5.71502
#
# Compressibility (1/GPa) = 0.02734250
#
# Stress axis : x y z
#
# Youngs Moduli (GPa) = 174.96136 117.71107 55.47132
#
# Poissons Ratio (x) = 0.35001 0.02949
# Poissons Ratio (y) = 0.52024 -0.05865
# Poissons Ratio (z) = 0.09303 -0.12445
#
# Static dielectric constant tensor:
#      x y z
#    x 1.907890 0.000000 0.000000 
#    y 0.000000 1.788450 0.000000 
#    z 0.000000 0.000000 1.880780 
# 
# From -- ./inp_files/7603.got.cif
#   From: 2010.05.17/outbox.cif.g08.bks.cpg/sg63_4_cif.got.tgz:7603.got - 2010.06.03 15:47:04.
