data_PCOD9474454
_publ_section_title
;
Structure prediction by ZEFSAII (Michael W. Deem and Ramdas Pophale) SiO2 
 PCOD9474454
Probable space group: C M C M
;
_chemical_formula_sum "Si O2"
_cell_formula_units_Z 116
_cell_length_a 12.810116
_cell_length_b 18.850217
_cell_length_c 24.323317
_cell_angle_alpha 90.000000
_cell_angle_beta 90.000000
_cell_angle_gamma 90.000000
_cell_volume 5873.435670
_symmetry_space_group_name_H-M "C M C M"
_symmetry_group_IT_number 63
_symmetry_cell_setting 'orthorhombic'
loop_
_space_group_symop_operation_xyz
x,y,z
-x,-y,1/2+z
x,-y,-z
-x,y,1/2-z
-x,-y,-z
x,y,1/2-z
-x,y,z
x,-y,1/2+z
1/2+x,1/2+y,z
1/2-x,1/2-y,1/2+z
1/2+x,1/2-y,-z
1/2-x,1/2+y,1/2-z
1/2-x,1/2-y,-z
1/2+x,1/2+y,1/2-z
1/2-x,1/2+y,z
1/2+x,1/2-y,1/2+z
loop_
_atom_site_type_symbol
_atom_site_label
_atom_site_fract_x
_atom_site_fract_y
_atom_site_fract_z
Si Si1 0.120339 0.690464 0.591034
Si Si2 0.000000 0.837869 0.750000
Si Si3 0.118341 0.837798 0.538174
Si Si4 0.158400 0.109713 0.159669
Si Si5 0.885262 0.338523 0.684546
Si Si6 0.789978 0.187747 0.813450
Si Si7 0.120167 0.954969 0.139592
Si Si8 0.232214 0.432816 0.036472
O O1 0.145818 0.755829 0.550308
O O2 0.195279 0.694398 0.643716
O O3 0.141243 0.615724 0.561421
O O4 0.000000 0.698328 0.606947
O O5 0.907783 0.843456 0.702016
O O6 0.121530 0.874025 0.598091
O O7 0.196546 0.879479 0.499252
O O8 0.000000 0.841249 0.516323
O O9 0.282153 0.123991 0.161715
O O10 0.134514 0.027814 0.172798
O O11 0.885360 0.351803 0.750000
O O12 0.865783 0.254576 0.676853
O O13 0.000000 0.358789 0.662659
O O14 0.755558 0.190109 0.750000
O O15 0.847586 0.114145 0.826189
O O16 0.195882 0.958590 0.087017
O O17 0.000000 0.949521 0.122268
O O18 0.200296 0.500000 0.000000
#
# Coordination Sequence:
#
# PCOD9474454 Si02
#       8
#    16   4  16  16  16  16  16  16
#     4  10  23  42  63  90 124 164 211 260 316 382
#     4  12  24  36  58  98 136 164 206 260 318 380
#     4  11  21  39  64  92 123 156 202 265 319 376
#     4  12  22  37  60  94 127 164 207 254 315 373
#     4  10  21  39  59  86 123 167 207 248 300 370
#     4  10  22  39  62  91 126 163 205 254 313 374
#     4  11  23  38  61  93 124 162 205 260 321 374
#     4  11  23  40  63  88 123 161 206 264 319 379
#
# _framework density 19.749941
#
# number of rings (size 3 to 8) (size 9 to 14) (size 15 to 20)
#    0.000    1.241    4.828    1.241    0.966    1.931 
#    0.000    3.448    0.000    0.000    0.000    0.000 
#    0.000    0.000    0.000    0.000    0.000    0.000 
#
# Total GULP energy -323543.010116 kJ/mol
# GULP energy per Si atom -5578.327761 kJ/mol
# Density = 1.970499 g / cm^3
# Si number density = 19.749941 Si / 1000 Ang^3
#
#
#
# Elastic Constant Matrix: (Units=GPa)
#
#
# Indices 1 2 3 4 5 6 
#
# 1 91.6462 16.7457 6.6302 0.0000 0.0000 0.0000
# 2 16.7457 77.2499 -7.9532 0.0000 0.0000 0.0000
# 3 6.6302 -7.9532 38.2228 0.0000 0.0000 0.0000
# 4 0.0000 0.0000 0.0000 7.2461 0.0000 0.0000
# 5 0.0000 0.0000 0.0000 0.0000 32.8599 0.0000
# 6 0.0000 0.0000 0.0000 0.0000 0.0000 6.0112
#
#
#
# Elastic Compliance Matrix: (Units=1/GPa)
#
#
# Indices 1 2 3 4 5 6 
#
# 1 0.011608 -0.002783 -0.002593 0.000000 0.000000 0.000000
# 2 -0.002783 0.013896 0.003374 0.000000 0.000000 0.000000
# 3 -0.002593 0.003374 0.027314 0.000000 0.000000 0.000000
# 4 0.000000 0.000000 0.000000 0.138005 0.000000 0.000000
# 5 0.000000 0.000000 0.000000 0.000000 0.030432 0.000000
# 6 0.000000 0.000000 0.000000 0.000000 0.000000 0.166357
#
#
# Mechanical properties :
#
#
# Convention : Reuss Voigt Hill
#
# Bulk Modulus (GPa) = 20.48580 26.44047 23.46314
# Shear Modulus (GPa) = 12.25833 22.00319 17.13076
#
# Velocity S-wave (km/s) = 2.49404 3.34142 2.94833
# Velocity P-wave (km/s) = 4.32305 5.32010 4.84728
#
# Compressibility (1/GPa) = 0.04881430
#
# Stress axis : x y z
#
# Youngs Moduli (GPa) = 86.15019 71.96478 36.61100
#
# Poissons Ratio (x) = 0.20029 0.09492
# Poissons Ratio (y) = 0.23977 -0.12353
# Poissons Ratio (z) = 0.22335 -0.24282
#
# Static dielectric constant tensor:
#      x y z
#    x 1.687540 0.000000 0.000000 
#    y 0.000000 1.721620 0.000000 
#    z 0.000000 0.000000 1.449110 
# 
# From -- ./inp_files/68497.got.cif
#   From: 2010.05.17/outbox.cif.g08.bks.cpg/sg63_35_cif.got.tgz:68497.got - 2010.06.03 15:47:04.
