data_PCOD9474633
_publ_section_title
;
Structure prediction by ZEFSAII (Michael W. Deem and Ramdas Pophale) SiO2 
 PCOD9474633
Probable space group: C M C M
;
_chemical_formula_sum "Si O2"
_cell_formula_units_Z 112
_cell_length_a 15.879200
_cell_length_b 11.862322
_cell_length_c 26.989707
_cell_angle_alpha 90.000000
_cell_angle_beta 90.000000
_cell_angle_gamma 90.000000
_cell_volume 5083.894122
_symmetry_space_group_name_H-M "C M C M"
_symmetry_group_IT_number 63
_symmetry_cell_setting 'orthorhombic'
loop_
_space_group_symop_operation_xyz
x,y,z
-x,-y,1/2+z
x,-y,-z
-x,y,1/2-z
-x,-y,-z
x,y,1/2-z
-x,y,z
x,-y,1/2+z
1/2+x,1/2+y,z
1/2-x,1/2-y,1/2+z
1/2+x,1/2-y,-z
1/2-x,1/2+y,1/2-z
1/2-x,1/2-y,-z
1/2+x,1/2+y,1/2-z
1/2-x,1/2+y,z
1/2+x,1/2-y,1/2+z
loop_
_atom_site_type_symbol
_atom_site_label
_atom_site_fract_x
_atom_site_fract_y
_atom_site_fract_z
Si Si1 0.096687 0.278807 0.657469
Si Si2 0.402341 0.328878 0.595705
Si Si3 0.600603 0.198964 0.695581
Si Si4 0.316847 0.140201 0.958729
Si Si5 0.404566 0.918597 0.556362
Si Si6 0.794493 0.529287 0.195641
Si Si7 0.173812 0.942650 0.388624
O O1 0.098594 0.349327 0.606321
O O2 0.157247 0.352114 0.691998
O O3 0.131472 0.156777 0.642852
O O4 0.000000 0.273625 0.675099
O O5 0.500000 0.300569 0.587494
O O6 0.376317 0.277855 0.649470
O O7 0.344377 0.264031 0.556818
O O8 0.390100 0.462265 0.593288
O O9 0.625389 0.244909 0.750000
O O10 0.500000 0.188582 0.694744
O O11 0.640232 0.075158 0.691568
O O12 0.228266 0.107795 0.934061
O O13 0.382532 0.049441 0.934876
O O14 0.335063 0.122390 0.016754
O O15 0.500000 0.905928 0.536571
O O16 0.753542 0.519281 0.250000
O O17 0.734342 0.509303 0.149259
#
# Coordination Sequence:
#
# PCOD9474633 Si02
#       7
#    16  16  16  16  16  16  16
#     4  11  24  45  66  89 127 170 212 256 309 378
#     4  11  22  40  62  86 125 168 206 252 310 379
#     4   9  18  34  59  88 114 151 204 254 303 364
#     4  11  21  38  65  92 126 161 210 260 317 369
#     4  10  21  40  67  97 125 164 216 266 311 370
#     4  11  23  40  65  93 124 158 204 263 316 367
#     4  12  25  41  59  98 128 164 207 257 317 376
#
# _framework density 22.030356999999999
#
# number of rings (size 3 to 8) (size 9 to 14) (size 15 to 20)
#    0.000    1.286    2.857    3.429    0.000    4.857 
#    2.571    0.000    0.000    5.143    0.000    0.000 
#    0.000    0.000    0.000    0.000    0.000    0.000 
#
# Total GULP energy -313091.727658 kJ/mol
# GULP energy per Si atom -5590.923708 kJ/mol
# Density = 2.198021 g / cm^3
# Si number density = 22.030357 Si / 1000 Ang^3
#
#
#
# Elastic Constant Matrix: (Units=GPa)
#
#
# Indices 1 2 3 4 5 6 
#
# 1 44.9485 18.3635 4.9908 0.0000 0.0000 0.0000
# 2 18.3635 97.8296 -17.5379 0.0000 0.0000 0.0000
# 3 4.9908 -17.5379 45.1947 0.0000 0.0000 0.0000
# 4 0.0000 0.0000 0.0000 -0.0880 0.0000 0.0000
# 5 0.0000 0.0000 0.0000 0.0000 2.7026 0.0000
# 6 0.0000 0.0000 0.0000 0.0000 0.0000 148.2724
#
#
#
# Elastic Compliance Matrix: (Units=1/GPa)
#
#
# Indices 1 2 3 4 5 6 
#
# 1 0.025081 -0.005594 -0.004940 0.000000 0.000000 0.000000
# 2 -0.005594 0.012234 0.005365 0.000000 0.000000 0.000000
# 3 -0.004940 0.005365 0.024754 0.000000 0.000000 0.000000
# 4 0.000000 0.000000 0.000000-11.362037 0.000000 0.000000
# 5 0.000000 0.000000 0.000000 0.000000 0.370013 0.000000
# 6 0.000000 0.000000 0.000000 0.000000 0.000000 0.006744
#
#
# Mechanical properties :
#
#
# Convention : Reuss Voigt Hill
#
# Bulk Modulus (GPa) = 19.33078 22.17839 20.75458
# Shear Modulus (GPa) = -0.45890 42.32116 20.93113
#
# Velocity S-wave (km/s) = -0.45690 4.38772 3.08572
# Velocity P-wave (km/s) = 2.91810 5.97984 4.70499
#
# Compressibility (1/GPa) = 0.05173098
#
# Stress axis : x y z
#
# Youngs Moduli (GPa) = 39.87007 81.74196 40.39756
#
# Poissons Ratio (x) = 0.45724 0.19958
# Poissons Ratio (y) = 0.22302 -0.21673
# Poissons Ratio (z) = 0.19697 -0.43855
#
# Static dielectric constant tensor:
#      x y z
#    x 1.799750 0.000000 0.000000 
#    y 0.000000 1.805430 0.000000 
#    z 0.000000 0.000000 1.849230 
# 
# From -- ./inp_files/73440.got.cif
#   From: 2010.05.17/outbox.cif.g08.bks.cpg/sg63_37_cif.got.tgz:73440.got - 2010.06.03 15:47:04.
