data_PCOD9474857
_publ_section_title
;
Structure prediction by ZEFSAII (Michael W. Deem and Ramdas Pophale) SiO2 
 PCOD9474857
Probable space group: C M C M
;
_chemical_formula_sum "Si O2"
_cell_formula_units_Z 64
_cell_length_a 11.134035
_cell_length_b 9.407622
_cell_length_c 26.943597
_cell_angle_alpha 90.000000
_cell_angle_beta 90.000000
_cell_angle_gamma 90.000000
_cell_volume 2822.201480
_symmetry_space_group_name_H-M "C M C M"
_symmetry_group_IT_number 63
_symmetry_cell_setting 'orthorhombic'
loop_
_space_group_symop_operation_xyz
x,y,z
-x,-y,1/2+z
x,-y,-z
-x,y,1/2-z
-x,-y,-z
x,y,1/2-z
-x,y,z
x,-y,1/2+z
1/2+x,1/2+y,z
1/2-x,1/2-y,1/2+z
1/2+x,1/2-y,-z
1/2-x,1/2+y,1/2-z
1/2-x,1/2-y,-z
1/2+x,1/2+y,1/2-z
1/2-x,1/2+y,z
1/2+x,1/2-y,1/2+z
loop_
_atom_site_type_symbol
_atom_site_label
_atom_site_fract_x
_atom_site_fract_y
_atom_site_fract_z
Si Si1 0.872508 0.302335 0.057026
Si Si2 0.874444 0.127190 0.961014
Si Si3 0.863274 0.458842 0.309403
Si Si4 0.634585 0.634178 0.347799
O O1 0.748961 0.379619 0.067828
O O2 0.868745 0.165659 0.092977
O O3 0.000000 0.375421 0.067352
O O4 0.872063 0.262435 0.998780
O O5 0.000000 0.133007 0.932481
O O6 0.877440 0.000000 0.000000
O O7 0.855197 0.469568 0.250000
O O8 0.750261 0.544723 0.331667
O O9 0.855213 0.293035 0.324793
O O10 0.000000 0.507109 0.323599
O O11 0.500000 0.579482 0.333772
#
# Coordination Sequence:
#
# PCOD9474857 Si02
#       4
#    16  16  16  16
#     4   9  19  34  50  76 108 142 184 228 278 332
#     4   9  18  32  51  74 106 144 183 229 275 326
#     4  10  22  40  60  85 116 148 186 235 290 347
#     4  10  22  39  61  88 118 151 192 240 287 343
#
# _framework density 22.677330999999999
#
# number of rings (size 3 to 8) (size 9 to 14) (size 15 to 20)
#    0.000    2.500    0.000    0.750    3.500    4.000 
#    0.000    0.000    0.000    0.000    0.000    0.000 
#    0.000    0.000    0.000    0.000    0.000    0.000 
#
# Total GULP energy -178390.114239 kJ/mol
# GULP energy per Si atom -5574.691070 kJ/mol
# Density = 2.262572 g / cm^3
# Si number density = 22.677331 Si / 1000 Ang^3
#
#
#
# Elastic Constant Matrix: (Units=GPa)
#
#
# Indices 1 2 3 4 5 6 
#
# 1 321.6127 77.2809 55.1430 0.0000 0.0000 0.0000
# 2 77.2809 42.7216 7.1415 0.0000 0.0000 0.0000
# 3 55.1430 7.1415 65.6021 0.0000 0.0000 0.0000
# 4 0.0000 0.0000 0.0000 25.9238 0.0000 0.0000
# 5 0.0000 0.0000 0.0000 0.0000 2.3448 0.0000
# 6 0.0000 0.0000 0.0000 0.0000 0.0000 -56.9731
#
#
#
# Elastic Compliance Matrix: (Units=1/GPa)
#
#
# Indices 1 2 3 4 5 6 
#
# 1 0.006488 -0.011025 -0.004253 0.000000 0.000000 0.000000
# 2 -0.011025 0.042577 0.004632 0.000000 0.000000 0.000000
# 3 -0.004253 0.004632 0.018314 0.000000 0.000000 0.000000
# 4 0.000000 0.000000 0.000000 0.038575 0.000000 0.000000
# 5 0.000000 0.000000 0.000000 0.000000 0.426470 0.000000
# 6 0.000000 0.000000 0.000000 0.000000 0.000000 -0.017552
#
#
# Mechanical properties :
#
#
# Convention : Reuss Voigt Hill
#
# Bulk Modulus (GPa) = 21.69806 78.78523 50.24165
# Shear Modulus (GPa) = 9.06575 13.61715 11.34145
#
# Velocity S-wave (km/s) = 2.00160 2.45312 2.23877
# Velocity P-wave (km/s) = 3.86404 6.54530 5.37456
#
# Compressibility (1/GPa) = 0.04608706
#
# Stress axis : x y z
#
# Youngs Moduli (GPa) = 154.13458 23.48695 54.60214
#
# Poissons Ratio (x) = 0.25895 0.23224
# Poissons Ratio (y) = 1.69935 -0.25294
# Poissons Ratio (z) = 0.65558 -0.10880
#
# Static dielectric constant tensor:
#      x y z
#    x 1.920590 0.000000 0.000000 
#    y 0.000000 1.865210 0.000000 
#    z 0.000000 0.000000 1.864950 
# 
# From -- ./inp_files/60860.got.cif
#   From: 2010.05.17/outbox.cif.g08.bks.cpg/sg63_31_cif.got.tgz:60860.got - 2010.06.03 15:47:04.
