data_PCOD9474657
_publ_section_title
;
Structure prediction by ZEFSAII (Michael W. Deem and Ramdas Pophale) SiO2 
 PCOD9474657
Probable space group: C M C M
;
_chemical_formula_sum "Si O2"
_cell_formula_units_Z 112
_cell_length_a 15.491670
_cell_length_b 11.152510
_cell_length_c 30.852081
_cell_angle_alpha 90.000000
_cell_angle_beta 90.000000
_cell_angle_gamma 90.000000
_cell_volume 5330.345028
_symmetry_space_group_name_H-M "C M C M"
_symmetry_group_IT_number 63
_symmetry_cell_setting 'orthorhombic'
loop_
_space_group_symop_operation_xyz
x,y,z
-x,-y,1/2+z
x,-y,-z
-x,y,1/2-z
-x,-y,-z
x,y,1/2-z
-x,y,z
x,-y,1/2+z
1/2+x,1/2+y,z
1/2-x,1/2-y,1/2+z
1/2+x,1/2-y,-z
1/2-x,1/2+y,1/2-z
1/2-x,1/2-y,-z
1/2+x,1/2+y,1/2-z
1/2-x,1/2+y,z
1/2+x,1/2-y,1/2+z
loop_
_atom_site_type_symbol
_atom_site_label
_atom_site_fract_x
_atom_site_fract_y
_atom_site_fract_z
Si Si1 0.399992 0.510910 0.127657
Si Si2 0.287688 0.391104 0.202343
Si Si3 0.594010 0.902850 0.320853
Si Si4 0.362298 0.222952 0.593418
Si Si5 0.100019 0.636462 0.498034
Si Si6 0.096399 0.682945 0.171616
Si Si7 0.841187 0.780157 0.083359
O O1 0.500000 0.505387 0.142561
O O2 0.331239 0.475125 0.165345
O O3 0.382488 0.642291 0.108857
O O4 0.385658 0.408910 0.090981
O O5 0.302154 0.442917 0.250000
O O6 0.186234 0.362175 0.197186
O O7 0.337455 0.265937 0.196772
O O8 0.500000 0.860637 0.303940
O O9 0.597756 0.866285 0.371283
O O10 0.597883 0.045539 0.315413
O O11 0.394540 0.193840 0.545474
O O12 0.259554 0.205518 0.593127
O O13 0.134953 0.500000 0.500000
O O14 0.146642 0.719184 0.462884
O O15 0.000000 0.628550 0.484302
O O16 0.118942 0.696011 0.120820
O O17 0.000000 0.730294 0.178645
#
# Coordination Sequence:
#
# PCOD9474657 Si02
#       7
#    16  16  16  16  16  16  16
#     4  11  24  43  68  97 133 178 219 266 337 409
#     4  11  24  42  68  98 130 167 218 277 330 396
#     4  11  23  42  67  95 130 173 218 268 330 397
#     4  12  24  42  65  96 136 178 219 271 335 399
#     4  11  24  40  63  96 131 175 231 286 330 379
#     4  10  21  41  69  95 126 171 216 267 328 391
#     4  11  22  39  65  93 133 173 224 270 326 391
#
# _framework density 21.011773000000002
#
# number of rings (size 3 to 8) (size 9 to 14) (size 15 to 20)
#    0.000    1.000    2.857    6.000    2.000    4.857 
#    0.000    2.857    0.000    1.714    0.000    0.000 
#    0.000    0.000    0.000    0.000    0.000    0.000 
#
# Total GULP energy -312969.282129 kJ/mol
# GULP energy per Si atom -5588.737181 kJ/mol
# Density = 2.096395 g / cm^3
# Si number density = 21.011773 Si / 1000 Ang^3
#
#
#
# Elastic Constant Matrix: (Units=GPa)
#
#
# Indices 1 2 3 4 5 6 
#
# 1 163.9560 27.7636 28.2195 0.0000 0.0000 0.0000
# 2 27.7636 63.9107 34.0716 0.0000 0.0000 0.0000
# 3 28.2195 34.0716 105.7707 0.0000 0.0000 0.0000
# 4 0.0000 0.0000 0.0000 3.3442 0.0000 0.0000
# 5 0.0000 0.0000 0.0000 0.0000 -73.1896 0.0000
# 6 0.0000 0.0000 0.0000 0.0000 0.0000 36.6231
#
#
#
# Elastic Compliance Matrix: (Units=1/GPa)
#
#
# Indices 1 2 3 4 5 6 
#
# 1 0.006674 -0.002354 -0.001022 0.000000 0.000000 0.000000
# 2 -0.002354 0.019721 -0.005725 0.000000 0.000000 0.000000
# 3 -0.001022 -0.005725 0.011571 0.000000 0.000000 0.000000
# 4 0.000000 0.000000 0.000000 0.299025 0.000000 0.000000
# 5 0.000000 0.000000 0.000000 0.000000 -0.013663 0.000000
# 6 0.000000 0.000000 0.000000 0.000000 0.000000 0.027305
#
#
# Mechanical properties :
#
#
# Convention : Reuss Voigt Hill
#
# Bulk Modulus (GPa) = 50.59657 57.08299 53.83978
# Shear Modulus (GPa) = 13.31828 9.59438 11.45633
#
# Velocity S-wave (km/s) = 2.52037 2.13918 2.33756
# Velocity P-wave (km/s) = 5.70982 5.77301 5.74150
#
# Compressibility (1/GPa) = 0.01976418
#
# Stress axis : x y z
#
# Youngs Moduli (GPa) = 149.83994 50.70624 86.42137
#
# Poissons Ratio (x) = 0.11937 0.08834
# Poissons Ratio (y) = 0.35276 0.49474
# Poissons Ratio (z) = 0.15317 0.29028
#
# Static dielectric constant tensor:
#      x y z
#    x 1.759090 0.000000 0.000000 
#    y 0.000000 1.734320 0.000000 
#    z 0.000000 0.000000 1.760450 
# 
# From -- ./inp_files/73397.got.cif
#   From: 2010.05.17/outbox.cif.g08.bks.cpg/sg63_37_cif.got.tgz:73397.got - 2010.06.03 15:47:04.
