data_PCOD9474628
_publ_section_title
;
Structure prediction by ZEFSAII (Michael W. Deem and Ramdas Pophale) SiO2 
 PCOD9474628
Probable space group: C M C M
;
_chemical_formula_sum "Si O2"
_cell_formula_units_Z 112
_cell_length_a 14.976934
_cell_length_b 15.161009
_cell_length_c 22.210650
_cell_angle_alpha 90.000000
_cell_angle_beta 90.000000
_cell_angle_gamma 90.000000
_cell_volume 5043.270819
_symmetry_space_group_name_H-M "C M C M"
_symmetry_group_IT_number 63
_symmetry_cell_setting 'orthorhombic'
loop_
_space_group_symop_operation_xyz
x,y,z
-x,-y,1/2+z
x,-y,-z
-x,y,1/2-z
-x,-y,-z
x,y,1/2-z
-x,y,z
x,-y,1/2+z
1/2+x,1/2+y,z
1/2-x,1/2-y,1/2+z
1/2+x,1/2-y,-z
1/2-x,1/2+y,1/2-z
1/2-x,1/2-y,-z
1/2+x,1/2+y,1/2-z
1/2-x,1/2+y,z
1/2+x,1/2-y,1/2+z
loop_
_atom_site_type_symbol
_atom_site_label
_atom_site_fract_x
_atom_site_fract_y
_atom_site_fract_z
Si Si1 0.100780 0.348907 0.575032
Si Si2 0.600368 0.666680 0.406190
Si Si3 0.239164 0.895469 0.494868
Si Si4 0.368405 0.509681 0.183063
Si Si5 0.399767 0.648139 0.895788
Si Si6 0.893144 0.684573 0.817273
Si Si7 0.654704 0.017792 0.181082
O O1 0.168742 0.353430 0.518628
O O2 0.105142 0.253256 0.606422
O O3 0.123164 0.419790 0.627022
O O4 0.000000 0.363527 0.553431
O O5 0.500000 0.688573 0.427087
O O6 0.665583 0.641301 0.459158
O O7 0.595986 0.581015 0.363692
O O8 0.639534 0.747028 0.366951
O O9 0.189032 0.879454 0.432269
O O10 0.251477 0.000000 0.500000
O O11 0.398806 0.530420 0.250000
O O12 0.394270 0.411036 0.163745
O O13 0.261574 0.518698 0.181454
O O14 0.500000 0.627622 0.922368
O O15 0.857148 0.703410 0.750000
O O16 0.875047 0.582702 0.830826
O O17 0.000000 0.697551 0.815271
O O18 0.624271 0.040600 0.250000
#
# Coordination Sequence:
#
# PCOD9474628 Si02
#       7
#    16  16  16  16  16  16  16
#     4  11  25  45  68  96 130 172 225 279 329 389
#     4  11  22  38  65  96 130 171 216 269 325 384
#     4  12  24  45  69  93 128 173 221 275 331 389
#     4  11  23  39  64 100 138 174 211 263 328 392
#     4  11  25  44  67  97 133 175 220 266 329 401
#     4   9  19  36  61  94 128 167 219 272 322 378
#     4  10  21  40  66  97 136 181 221 265 326 389
#
# _framework density 22.207811
#
# number of rings (size 3 to 8) (size 9 to 14) (size 15 to 20)
#    0.000    1.286    2.857    2.143    2.000    4.000 
#    2.571    1.429    0.000    0.000    0.000    0.000 
#    0.000    0.000    0.000    0.000    0.000    0.000 
#
# Total GULP energy -313077.012165 kJ/mol
# GULP energy per Si atom -5590.660932 kJ/mol
# Density = 2.215726 g / cm^3
# Si number density = 22.207811 Si / 1000 Ang^3
#
#
#
# Elastic Constant Matrix: (Units=GPa)
#
#
# Indices 1 2 3 4 5 6 
#
# 1 105.9042 -0.9214 13.4544 0.0000 0.0000 0.0000
# 2 -0.9214 55.6900 -6.6454 0.0000 0.0000 0.0000
# 3 13.4544 -6.6454 36.3218 0.0000 0.0000 0.0000
# 4 0.0000 0.0000 0.0000 33.5158 0.0000 0.0000
# 5 0.0000 0.0000 0.0000 0.0000 -339.0594 0.0000
# 6 0.0000 0.0000 0.0000 0.0000 0.0000 15.7667
#
#
#
# Elastic Compliance Matrix: (Units=1/GPa)
#
#
# Indices 1 2 3 4 5 6 
#
# 1 0.009913 -0.000280 -0.003723 0.000000 0.000000 0.000000
# 2 -0.000280 0.018365 0.003464 0.000000 0.000000 0.000000
# 3 -0.003723 0.003464 0.029545 0.000000 0.000000 0.000000
# 4 0.000000 0.000000 0.000000 0.029837 0.000000 0.000000
# 5 0.000000 0.000000 0.000000 0.000000 -0.002949 0.000000
# 6 0.000000 0.000000 0.000000 0.000000 0.000000 0.063425
#
#
# Mechanical properties :
#
#
# Convention : Reuss Voigt Hill
#
# Bulk Modulus (GPa) = 17.62312 23.29902 20.46107
# Shear Modulus (GPa) = 29.73910 -45.15346 -7.70718
#
# Velocity S-wave (km/s) = 3.66338 -4.51402 -1.86494
# Velocity P-wave (km/s) = 5.08395 4.08098 2.14385
#
# Compressibility (1/GPa) = 0.05674366
#
# Stress axis : x y z
#
# Youngs Moduli (GPa) = 100.87688 54.45066 33.84709
#
# Poissons Ratio (x) = 0.01526 0.12602
# Poissons Ratio (y) = 0.02827 -0.11724
# Poissons Ratio (z) = 0.37560 -0.18861
#
# Static dielectric constant tensor:
#      x y z
#    x 1.835380 0.000000 0.000000 
#    y 0.000000 1.782590 0.000000 
#    z 0.000000 0.000000 1.825390 
# 
# From -- ./inp_files/63009.got.cif
#   From: 2010.05.17/outbox.cif.g08.bks.cpg/sg63_32_cif.got.tgz:63009.got - 2010.06.03 15:47:04.
