data_PCOD9474336
_publ_section_title
;
Structure prediction by ZEFSAII (Michael W. Deem and Ramdas Pophale) SiO2 
 PCOD9474336
Probable space group: C M C M
;
_chemical_formula_sum "Si O2"
_cell_formula_units_Z 112
_cell_length_a 14.894775
_cell_length_b 12.475654
_cell_length_c 29.619004
_cell_angle_alpha 90.000000
_cell_angle_beta 90.000000
_cell_angle_gamma 90.000000
_cell_volume 5503.864318
_symmetry_space_group_name_H-M "C M C M"
_symmetry_group_IT_number 63
_symmetry_cell_setting 'orthorhombic'
loop_
_space_group_symop_operation_xyz
x,y,z
-x,-y,1/2+z
x,-y,-z
-x,y,1/2-z
-x,-y,-z
x,y,1/2-z
-x,y,z
x,-y,1/2+z
1/2+x,1/2+y,z
1/2-x,1/2-y,1/2+z
1/2+x,1/2-y,-z
1/2-x,1/2+y,1/2-z
1/2-x,1/2-y,-z
1/2+x,1/2+y,1/2-z
1/2-x,1/2+y,z
1/2+x,1/2-y,1/2+z
loop_
_atom_site_type_symbol
_atom_site_label
_atom_site_fract_x
_atom_site_fract_y
_atom_site_fract_z
Si Si1 0.109023 0.764243 0.017485
Si Si2 0.331323 0.450958 0.698614
Si Si3 0.604777 0.311414 0.299220
Si Si4 0.894175 0.289466 0.301414
Si Si5 0.726851 0.097716 0.968129
Si Si6 0.316093 0.034461 0.867414
Si Si7 0.396845 0.183004 0.383955
O O1 0.171409 0.869420 0.018515
O O2 0.135500 0.710325 0.065841
O O3 0.000000 0.774635 0.013515
O O4 0.154689 0.690979 0.979140
O O5 0.295032 0.448647 0.750000
O O6 0.389507 0.560167 0.695863
O O7 0.379020 0.337413 0.691262
O O8 0.257001 0.470255 0.661379
O O9 0.645246 0.283201 0.250000
O O10 0.500000 0.281242 0.297050
O O11 0.645354 0.250074 0.342300
O O12 0.863875 0.314701 0.250000
O O13 0.846820 0.365213 0.337581
O O14 0.000000 0.310578 0.303692
O O15 0.721221 0.069400 0.915693
O O16 0.699449 0.000000 0.000000
O O17 0.390676 0.943364 0.875515
O O18 0.500000 0.217932 0.385280
#
# Coordination Sequence:
#
# PCOD9474336 Si02
#       7
#    16  16  16  16  16  16  16
#     4  10  23  43  67  93 125 165 212 266 323 385
#     4  10  22  37  60  89 122 164 208 256 314 372
#     4   9  18  34  57  85 118 158 207 258 307 368
#     4  10  23  43  64  90 128 172 215 258 311 376
#     4  11  24  43  66  95 127 165 212 265 324 386
#     4  12  24  38  62  92 129 165 206 261 317 379
#     4  10  21  38  60  88 121 165 209 254 313 380
#
# _framework density 20.349337999999999
#
# number of rings (size 3 to 8) (size 9 to 14) (size 15 to 20)
#    0.000    1.714    1.429    2.143    4.000    4.571 
#    0.000    2.143    0.000    0.000    0.000    0.000 
#    0.000    0.000    0.000    0.000    0.000    0.000 
#
# Total GULP energy -312359.274407 kJ/mol
# GULP energy per Si atom -5577.844186 kJ/mol
# Density = 2.030302 g / cm^3
# Si number density = 20.349338 Si / 1000 Ang^3
#
#
#
# Elastic Constant Matrix: (Units=GPa)
#
#
# Indices 1 2 3 4 5 6 
#
# 1 68.2133 0.6577 15.9451 0.0000 0.0000 0.0000
# 2 0.6577 80.4885 25.8454 0.0000 0.0000 0.0000
# 3 15.9451 25.8454 83.8115 0.0000 0.0000 0.0000
# 4 0.0000 0.0000 0.0000 18.8409 0.0000 0.0000
# 5 0.0000 0.0000 0.0000 0.0000 28.4658 0.0000
# 6 0.0000 0.0000 0.0000 0.0000 0.0000 18.6299
#
#
#
# Elastic Compliance Matrix: (Units=1/GPa)
#
#
# Indices 1 2 3 4 5 6 
#
# 1 0.015401 0.000905 -0.003209 0.000000 0.000000 0.000000
# 2 0.000905 0.013843 -0.004441 0.000000 0.000000 0.000000
# 3 -0.003209 -0.004441 0.013912 0.000000 0.000000 0.000000
# 4 0.000000 0.000000 0.000000 0.053076 0.000000 0.000000
# 5 0.000000 0.000000 0.000000 0.000000 0.035130 0.000000
# 6 0.000000 0.000000 0.000000 0.000000 0.000000 0.053677
#
#
# Mechanical properties :
#
#
# Convention : Reuss Voigt Hill
#
# Bulk Modulus (GPa) = 33.70986 35.26777 34.48882
# Shear Modulus (GPa) = 23.99029 25.85831 24.92430
#
# Velocity S-wave (km/s) = 3.43727 3.56858 3.50354
# Velocity P-wave (km/s) = 5.68811 5.86076 5.77508
#
# Compressibility (1/GPa) = 0.02966491
#
# Stress axis : x y z
#
# Youngs Moduli (GPa) = 64.92958 72.24003 71.88293
#
# Poissons Ratio (x) = -0.06535 0.23068
# Poissons Ratio (y) = -0.05873 0.31922
# Poissons Ratio (z) = 0.20836 0.32081
#
# Static dielectric constant tensor:
#      x y z
#    x 1.754130 0.000000 0.000000 
#    y 0.000000 1.721300 0.000000 
#    z 0.000000 0.000000 1.746930 
# 
# From -- ./inp_files/73435.got.cif
#   From: 2010.05.17/outbox.cif.g08.bks.cpg/sg63_37_cif.got.tgz:73435.got - 2010.06.03 15:47:04.
