data_PCOD9474164
_publ_section_title
;
Structure prediction by ZEFSAII (Michael W. Deem and Ramdas Pophale) SiO2 
 PCOD9474164
Probable space group: C M C M
;
_chemical_formula_sum "Si O2"
_cell_formula_units_Z 80
_cell_length_a 8.711899
_cell_length_b 18.899889
_cell_length_c 25.916160
_cell_angle_alpha 90.000000
_cell_angle_beta 90.000000
_cell_angle_gamma 90.000000
_cell_volume 4267.197441
_symmetry_space_group_name_H-M "C M C M"
_symmetry_group_IT_number 63
_symmetry_cell_setting 'orthorhombic'
loop_
_space_group_symop_operation_xyz
x,y,z
-x,-y,1/2+z
x,-y,-z
-x,y,1/2-z
-x,-y,-z
x,y,1/2-z
-x,y,z
x,-y,1/2+z
1/2+x,1/2+y,z
1/2-x,1/2-y,1/2+z
1/2+x,1/2-y,-z
1/2-x,1/2+y,1/2-z
1/2-x,1/2-y,-z
1/2+x,1/2+y,1/2-z
1/2-x,1/2+y,z
1/2+x,1/2-y,1/2+z
loop_
_atom_site_type_symbol
_atom_site_label
_atom_site_fract_x
_atom_site_fract_y
_atom_site_fract_z
Si Si1 0.816349 0.083327 0.846929
Si Si2 0.316676 0.828579 0.060670
Si Si3 0.183473 0.326266 0.940841
Si Si4 0.815778 0.332010 0.250000
Si Si5 0.813198 0.168796 0.250000
Si Si6 0.314400 0.419066 0.649224
O O1 0.761817 0.117241 0.900522
O O2 0.743846 0.127745 0.800431
O O3 0.000000 0.087361 0.842947
O O4 0.771356 0.000947 0.843875
O O5 0.500000 0.831858 0.066777
O O6 0.259964 0.749061 0.072514
O O7 0.278175 0.842464 0.000624
O O8 0.243583 0.385180 0.901916
O O9 0.000000 0.319271 0.937123
O O10 0.762850 0.250234 0.250000
O O11 0.000000 0.332154 0.250000
O O12 0.764987 0.127036 0.301298
O O13 0.000000 0.168728 0.250000
O O14 0.500000 0.415444 0.645757
#
# Coordination Sequence:
#
# PCOD9474164 Si02
#       6
#    16  16  16   8   8  16
#     4  11  23  38  58  85 117 153 194 237 281 338
#     4  10  21  38  59  83 115 153 191 236 290 344
#     4  10  21  37  59  86 114 147 192 242 288 342
#     4  11  22  37  61  87 112 149 194 239 289 342
#     4   9  19  37  59  81 106 143 188 229 277 336
#     4  10  21  38  59  82 114 153 190 233 286 342
#
# _framework density 18.747667
#
# number of rings (size 3 to 8) (size 9 to 14) (size 15 to 20)
#    0.000    1.800    0.000    3.900    0.000    8.000 
#    0.000    5.500    0.000    0.000    0.000    0.000 
#    0.000    0.000    0.000    0.000    0.000    0.000 
#
# Total GULP energy -223567.116237 kJ/mol
# GULP energy per Si atom -5589.177906 kJ/mol
# Density = 1.870500 g / cm^3
# Si number density = 18.747667 Si / 1000 Ang^3
#
#
#
# Elastic Constant Matrix: (Units=GPa)
#
#
# Indices 1 2 3 4 5 6 
#
# 1 38.4068 50.0555 36.4247 0.0000 0.0000 0.0000
# 2 50.0555 185.6370 102.8280 0.0000 0.0000 0.0000
# 3 36.4247 102.8280 106.4588 0.0000 0.0000 0.0000
# 4 0.0000 0.0000 0.0000 -104.4686 0.0000 0.0000
# 5 0.0000 0.0000 0.0000 0.0000 32.5538 0.0000
# 6 0.0000 0.0000 0.0000 0.0000 0.0000 31.7898
#
#
#
# Elastic Compliance Matrix: (Units=1/GPa)
#
#
# Indices 1 2 3 4 5 6 
#
# 1 0.042769 -0.007370 -0.007515 0.000000 0.000000 0.000000
# 2 -0.007370 0.012855 -0.009895 0.000000 0.000000 0.000000
# 3 -0.007515 -0.009895 0.021522 0.000000 0.000000 0.000000
# 4 0.000000 0.000000 0.000000 -0.009572 0.000000 0.000000
# 5 0.000000 0.000000 0.000000 0.000000 0.030718 0.000000
# 6 0.000000 0.000000 0.000000 0.000000 0.000000 0.031457
#
#
# Mechanical properties :
#
#
# Convention : Reuss Voigt Hill
#
# Bulk Modulus (GPa) = 36.24938 78.79102 57.52020
# Shear Modulus (GPa) = 26.52448 1.38793 13.95621
#
# Velocity S-wave (km/s) = 3.76548 0.86135 2.73137
# Velocity P-wave (km/s) = 6.18729 6.56564 6.37927
#
# Compressibility (1/GPa) = 0.02758668
#
# Stress axis : x y z
#
# Youngs Moduli (GPa) = 23.38137 77.78971 46.46317
#
# Poissons Ratio (x) = 0.57327 0.34918
# Poissons Ratio (y) = 0.17231 0.45977
# Poissons Ratio (z) = 0.17572 0.76975
#
# Static dielectric constant tensor:
#      x y z
#    x 1.633140 0.000000 0.000000 
#    y 0.000000 1.619850 0.000000 
#    z 0.000000 0.000000 1.628380 
# 
# From -- ./inp_files/66645.got.cif
#   From: 2010.05.17/outbox.cif.g08.bks.cpg/sg63_34_cif.got.tgz:66645.got - 2010.06.03 15:47:04.
