data_PCOD9474387
_publ_section_title
;
Structure prediction by ZEFSAII (Michael W. Deem and Ramdas Pophale) SiO2 
 PCOD9474387
Probable space group: C M C M
;
_chemical_formula_sum "Si O2"
_cell_formula_units_Z 112
_cell_length_a 13.784937
_cell_length_b 15.301220
_cell_length_c 25.773886
_cell_angle_alpha 90.000000
_cell_angle_beta 90.000000
_cell_angle_gamma 90.000000
_cell_volume 5436.391795
_symmetry_space_group_name_H-M "C M C M"
_symmetry_group_IT_number 63
_symmetry_cell_setting 'orthorhombic'
loop_
_space_group_symop_operation_xyz
x,y,z
-x,-y,1/2+z
x,-y,-z
-x,y,1/2-z
-x,-y,-z
x,y,1/2-z
-x,y,z
x,-y,1/2+z
1/2+x,1/2+y,z
1/2-x,1/2-y,1/2+z
1/2+x,1/2-y,-z
1/2-x,1/2+y,1/2-z
1/2-x,1/2-y,-z
1/2+x,1/2+y,1/2-z
1/2-x,1/2+y,z
1/2+x,1/2-y,1/2+z
loop_
_atom_site_type_symbol
_atom_site_label
_atom_site_fract_x
_atom_site_fract_y
_atom_site_fract_z
Si Si1 0.104577 0.615423 0.390629
Si Si2 0.890443 0.587253 0.915732
Si Si3 0.892921 0.951494 0.945434
Si Si4 0.612748 0.470752 0.335807
Si Si5 0.206945 0.349375 0.190805
Si Si6 0.229161 0.141027 0.192084
Si Si7 0.712854 0.157739 0.483003
O O1 0.105429 0.516903 0.411658
O O2 0.186929 0.623570 0.348513
O O3 0.127965 0.670942 0.441397
O O4 0.000000 0.636860 0.368305
O O5 0.852608 0.618506 0.859453
O O6 0.000000 0.620872 0.924537
O O7 0.824166 0.609996 0.965143
O O8 0.800542 0.889324 0.952006
O O9 0.000000 0.909430 0.936177
O O10 0.878367 0.018841 0.898203
O O11 0.897747 0.000000 0.000000
O O12 0.500000 0.454161 0.322551
O O13 0.687670 0.396965 0.315958
O O14 0.646232 0.567702 0.316765
O O15 0.173567 0.372270 0.250000
O O16 0.204194 0.243714 0.187670
O O17 0.266203 0.126571 0.250000
O O18 0.750000 0.250000 0.500000
#
# Coordination Sequence:
#
# PCOD9474387 Si02
#       7
#    16  16  16  16  16  16  16
#     4  11  23  41  64  92 126 171 219 266 325 396
#     4  11  24  41  66  94 125 172 221 268 328 400
#     4  10  21  38  62  90 124 166 212 263 326 392
#     4  11  23  43  71  99 133 179 228 280 339 403
#     4  11  24  43  67  97 134 173 221 281 338 399
#     4  11  24  43  65  96 134 173 221 280 336 396
#     4  12  23  39  62  91 131 166 210 269 326 390
#
# _framework density 20.601900000000001
#
# number of rings (size 3 to 8) (size 9 to 14) (size 15 to 20)
#    0.000    1.000    2.857    3.857    0.000    5.143 
#    0.000    5.714    0.000    0.000    0.000    0.000 
#    0.000    0.000    0.000    0.000    0.000    0.000 
#
# Total GULP energy -312614.303949 kJ/mol
# GULP energy per Si atom -5582.398285 kJ/mol
# Density = 2.055501 g / cm^3
# Si number density = 20.601900 Si / 1000 Ang^3
#
#
#
# Elastic Constant Matrix: (Units=GPa)
#
#
# Indices 1 2 3 4 5 6 
#
# 1 84.8588 4.2000 19.5960 0.0000 0.0000 0.0000
# 2 4.2000 45.2007 -4.0968 0.0000 0.0000 0.0000
# 3 19.5960 -4.0968 114.4542 0.0000 0.0000 0.0000
# 4 0.0000 0.0000 0.0000 31.5718 0.0000 0.0000
# 5 0.0000 0.0000 0.0000 0.0000 10.7714 0.0000
# 6 0.0000 0.0000 0.0000 0.0000 0.0000 17.0409
#
#
#
# Elastic Compliance Matrix: (Units=1/GPa)
#
#
# Indices 1 2 3 4 5 6 
#
# 1 0.012350 -0.001344 -0.002163 0.000000 0.000000 0.000000
# 2 -0.001344 0.022342 0.001030 0.000000 0.000000 0.000000
# 3 -0.002163 0.001030 0.009144 0.000000 0.000000 0.000000
# 4 0.000000 0.000000 0.000000 0.031674 0.000000 0.000000
# 5 0.000000 0.000000 0.000000 0.000000 0.092838 0.000000
# 6 0.000000 0.000000 0.000000 0.000000 0.000000 0.058682
#
#
# Mechanical properties :
#
#
# Convention : Reuss Voigt Hill
#
# Bulk Modulus (GPa) = 25.71799 31.54578 28.63188
# Shear Modulus (GPa) = 20.41281 26.86447 23.63864
#
# Velocity S-wave (km/s) = 3.15115 3.61498 3.39101
# Velocity P-wave (km/s) = 5.07445 5.72446 5.40923
#
# Compressibility (1/GPa) = 0.03888329
#
# Stress axis : x y z
#
# Youngs Moduli (GPa) = 80.97045 44.75931 109.35842
#
# Poissons Ratio (x) = 0.06014 0.23650
# Poissons Ratio (y) = 0.10879 -0.11261
# Poissons Ratio (z) = 0.17511 -0.04609
#
# Static dielectric constant tensor:
#      x y z
#    x 1.760970 0.000000 0.000000 
#    y 0.000000 1.728780 0.000000 
#    z 0.000000 0.000000 1.737130 
# 
# From -- ./inp_files/62957.got.cif
#   From: 2010.05.17/outbox.cif.g08.bks.cpg/sg63_32_cif.got.tgz:62957.got - 2010.06.03 15:47:04.
