data_PCOD9474624
_publ_section_title
;
Structure prediction by ZEFSAII (Michael W. Deem and Ramdas Pophale) SiO2 
 PCOD9474624
Probable space group: C M C M
;
_chemical_formula_sum "Si O2"
_cell_formula_units_Z 96
_cell_length_a 22.435010
_cell_length_b 14.236780
_cell_length_c 14.120031
_cell_angle_alpha 90.000000
_cell_angle_beta 90.000000
_cell_angle_gamma 90.000000
_cell_volume 4509.970401
_symmetry_space_group_name_H-M "C M C M"
_symmetry_group_IT_number 63
_symmetry_cell_setting 'orthorhombic'
loop_
_space_group_symop_operation_xyz
x,y,z
-x,-y,1/2+z
x,-y,-z
-x,y,1/2-z
-x,-y,-z
x,y,1/2-z
-x,y,z
x,-y,1/2+z
1/2+x,1/2+y,z
1/2-x,1/2-y,1/2+z
1/2+x,1/2-y,-z
1/2-x,1/2+y,1/2-z
1/2-x,1/2-y,-z
1/2+x,1/2+y,1/2-z
1/2-x,1/2+y,z
1/2+x,1/2-y,1/2+z
loop_
_atom_site_type_symbol
_atom_site_label
_atom_site_fract_x
_atom_site_fract_y
_atom_site_fract_z
Si Si1 0.628736 0.107143 0.485192
Si Si2 0.934170 0.752338 0.362617
Si Si3 0.665269 0.407627 0.355218
Si Si4 0.367211 0.272742 0.638200
Si Si5 0.434541 0.547922 0.397057
Si Si6 0.739373 0.356471 0.967618
O O1 0.582676 0.158181 0.416270
O O2 0.632836 0.176271 0.577375
O O3 0.695866 0.105299 0.441548
O O4 0.611197 0.000000 0.500000
O O5 0.934853 0.739046 0.250000
O O6 0.879816 0.823071 0.381515
O O7 0.000000 0.788158 0.390590
O O8 0.691517 0.391417 0.250000
O O9 0.620629 0.495095 0.349527
O O10 0.711648 0.410888 0.441499
O O11 0.370336 0.255203 0.750000
O O12 0.420788 0.341434 0.605156
O O13 0.309306 0.337123 0.613081
O O14 0.434591 0.500000 0.500000
O O15 0.500000 0.530287 0.355880
O O16 0.750000 0.250000 0.000000
#
# Coordination Sequence:
#
# PCOD9474624 Si02
#       6
#    16  16  16  16  16  16
#     4  11  25  44  67  89 126 173 223 273 325 385
#     4  10  21  40  66  95 124 159 215 278 332 387
#     4  11  21  37  64  97 131 170 214 266 324 388
#     4  11  24  42  62  93 133 172 215 268 325 386
#     4  11  22  39  66  97 137 180 215 255 321 401
#     4  10  21  41  62  90 129 169 215 269 325 388
#
# _framework density 21.286169000000001
#
# number of rings (size 3 to 8) (size 9 to 14) (size 15 to 20)
#    0.000    1.333    5.000    1.000    2.333    8.333 
#    0.000    0.000    0.000    0.000    0.000    0.000 
#    0.000    0.000    0.000    0.000    0.000    0.000 
#
# Total GULP energy -267971.454373 kJ/mol
# GULP energy per Si atom -5582.738633 kJ/mol
# Density = 2.123772 g / cm^3
# Si number density = 21.286169 Si / 1000 Ang^3
#
#
#
# Elastic Constant Matrix: (Units=GPa)
#
#
# Indices 1 2 3 4 5 6 
#
# 1 63.8299 6.2301 17.9121 0.0000 0.0000 0.0000
# 2 6.2301 111.5913 10.2895 0.0000 0.0000 0.0000
# 3 17.9121 10.2895 84.1789 0.0000 0.0000 0.0000
# 4 0.0000 0.0000 0.0000 13.2174 0.0000 0.0000
# 5 0.0000 0.0000 0.0000 0.0000 -10.4228 0.0000
# 6 0.0000 0.0000 0.0000 0.0000 0.0000 21.4948
#
#
#
# Elastic Compliance Matrix: (Units=1/GPa)
#
#
# Indices 1 2 3 4 5 6 
#
# 1 0.016703 -0.000612 -0.003479 0.000000 0.000000 0.000000
# 2 -0.000612 0.009086 -0.000980 0.000000 0.000000 0.000000
# 3 -0.003479 -0.000980 0.012740 0.000000 0.000000 0.000000
# 4 0.000000 0.000000 0.000000 0.075658 0.000000 0.000000
# 5 0.000000 0.000000 0.000000 0.000000 -0.095943 0.000000
# 6 0.000000 0.000000 0.000000 0.000000 0.000000 0.046523
#
#
# Mechanical properties :
#
#
# Convention : Reuss Voigt Hill
#
# Bulk Modulus (GPa) = 35.22951 36.49593 35.86272
# Shear Modulus (GPa) = 59.26232 19.86909 39.56570
#
# Velocity S-wave (km/s) = 5.28216 3.05852 4.31600
# Velocity P-wave (km/s) = 7.33403 5.44567 6.45923
#
# Compressibility (1/GPa) = 0.02838530
#
# Stress axis : x y z
#
# Youngs Moduli (GPa) = 59.87043 110.06154 78.49502
#
# Poissons Ratio (x) = 0.06732 0.27311
# Poissons Ratio (y) = 0.03662 0.07696
# Poissons Ratio (z) = 0.20831 0.10791
#
# Static dielectric constant tensor:
#      x y z
#    x 1.810340 0.000000 0.000000 
#    y 0.000000 1.793150 0.000000 
#    z 0.000000 0.000000 1.915000 
# 
# From -- ./inp_files/35302.got.cif
#   From: 2010.05.17/outbox.cif.g08.bks.cpg/sg63_18_cif.got.tgz:35302.got - 2010.06.03 15:47:04.
