data_PCOD9474321
_publ_section_title
;
Structure prediction by ZEFSAII (Michael W. Deem and Ramdas Pophale) SiO2 
 PCOD9474321
Probable space group: C M C M
;
_chemical_formula_sum "Si O2"
_cell_formula_units_Z 96
_cell_length_a 24.342937
_cell_length_b 26.196428
_cell_length_c 8.323153
_cell_angle_alpha 90.000000
_cell_angle_beta 90.000000
_cell_angle_gamma 90.000000
_cell_volume 5307.657992
_symmetry_space_group_name_H-M "C M C M"
_symmetry_group_IT_number 63
_symmetry_cell_setting 'orthorhombic'
loop_
_space_group_symop_operation_xyz
x,y,z
-x,-y,1/2+z
x,-y,-z
-x,y,1/2-z
-x,-y,-z
x,y,1/2-z
-x,y,z
x,-y,1/2+z
1/2+x,1/2+y,z
1/2-x,1/2-y,1/2+z
1/2+x,1/2-y,-z
1/2-x,1/2+y,1/2-z
1/2-x,1/2-y,-z
1/2+x,1/2+y,1/2-z
1/2-x,1/2+y,z
1/2+x,1/2-y,1/2+z
loop_
_atom_site_type_symbol
_atom_site_label
_atom_site_fract_x
_atom_site_fract_y
_atom_site_fract_z
Si Si1 0.249428 0.191278 0.557632
Si Si2 0.937460 0.057379 0.942260
Si Si3 0.436932 0.943297 0.443991
Si Si4 0.937106 0.751662 0.946198
Si Si5 0.366458 0.348875 0.557790
Si Si6 0.132678 0.652934 0.553640
O O1 0.250349 0.192234 0.750000
O O2 0.250000 0.250000 0.500000
O O3 0.194795 0.162496 0.501754
O O4 0.305108 0.163399 0.500882
O O5 0.937460 0.057906 0.750000
O O6 0.000000 0.070099 0.998253
O O7 0.894021 0.098580 0.003123
O O8 0.925362 0.000000 0.000000
O O9 0.436958 0.942595 0.250000
O O10 0.500000 0.932941 0.496429
O O11 0.395624 0.899407 0.500734
O O12 0.422002 0.000000 0.500000
O O13 0.937450 0.751944 0.750000
O O14 0.904814 0.802002 0.999707
O O15 0.904573 0.701042 0.995674
O O16 0.000000 0.751428 0.000232
O O17 0.365789 0.347673 0.750000
O O18 0.132803 0.652224 0.750000
#
# Coordination Sequence:
#
# PCOD9474321 Si02
#       6
#    16  16  16  16  16  16
#     4  11  21  36  55  77 107 145 187 231 280 333
#     4  10  21  38  60  86 116 149 185 228 280 335
#     4   9  17  31  53  78 104 134 169 212 262 316
#     4   9  16  27  48  78 106 132 171 222 271 325
#     4  11  21  35  55  82 112 146 188 229 276 332
#     4   9  17  31  51  76 103 136 180 223 266 320
#
# _framework density 18.087074000000001
#
# number of rings (size 3 to 8) (size 9 to 14) (size 15 to 20)
#    0.000    2.167    1.667    2.500    0.000    3.667 
#    0.000    2.500    0.000    2.000    0.000    0.000 
#    0.000    0.000    0.000    0.000    0.000    0.000 
#
# Total GULP energy -267925.354613 kJ/mol
# GULP energy per Si atom -5581.778221 kJ/mol
# Density = 1.804591 g / cm^3
# Si number density = 18.087074 Si / 1000 Ang^3
#
#
#
# Elastic Constant Matrix: (Units=GPa)
#
#
# Indices 1 2 3 4 5 6 
#
# 1 195.3016 123.3225 25.7483 0.0000 0.0000 0.0000
# 2 123.3225 163.0036 22.9744 0.0000 0.0000 0.0000
# 3 25.7483 22.9744 25.0308 0.0000 0.0000 0.0000
# 4 0.0000 0.0000 0.0000 25.4851 0.0000 0.0000
# 5 0.0000 0.0000 0.0000 0.0000 21.7148 0.0000
# 6 0.0000 0.0000 0.0000 0.0000 0.0000 37.2665
#
#
#
# Elastic Compliance Matrix: (Units=1/GPa)
#
#
# Indices 1 2 3 4 5 6 
#
# 1 0.010123 -0.007111 -0.003886 0.000000 0.000000 0.000000
# 2 -0.007111 0.012041 -0.003738 0.000000 0.000000 0.000000
# 3 -0.003886 -0.003738 0.047379 0.000000 0.000000 0.000000
# 4 0.000000 0.000000 0.000000 0.039239 0.000000 0.000000
# 5 0.000000 0.000000 0.000000 0.000000 0.046052 0.000000
# 6 0.000000 0.000000 0.000000 0.000000 0.000000 0.026834
#
#
# Mechanical properties :
#
#
# Convention : Reuss Voigt Hill
#
# Bulk Modulus (GPa) = 24.95388 80.82516 52.88952
# Shear Modulus (GPa) = 22.27229 30.97932 26.62580
#
# Velocity S-wave (km/s) = 3.51293 4.14307 3.84094
# Velocity P-wave (km/s) = 5.50279 8.22621 6.99825
#
# Compressibility (1/GPa) = 0.04007393
#
# Stress axis : x y z
#
# Youngs Moduli (GPa) = 98.78811 83.04747 21.10635
#
# Poissons Ratio (x) = 0.59052 0.08203
# Poissons Ratio (y) = 0.70245 0.07889
# Poissons Ratio (z) = 0.38392 0.31039
#
# Static dielectric constant tensor:
#      x y z
#    x 1.621740 0.000000 0.000000 
#    y 0.000000 1.581060 0.000000 
#    z 0.000000 0.000000 1.636120 
# 
# From -- ./inp_files/8602.got.cif
#   From: 2010.05.17/outbox.cif.g08.bks.cpg/sg63_5_cif.got.tgz:8602.got - 2010.06.03 15:47:04.
