data_PCOD9474800
_publ_section_title
;
Structure prediction by ZEFSAII (Michael W. Deem and Ramdas Pophale) SiO2 
 PCOD9474800
Probable space group: C M C M
;
_chemical_formula_sum "Si O2"
_cell_formula_units_Z 96
_cell_length_a 22.113960
_cell_length_b 10.102484
_cell_length_c 20.796060
_cell_angle_alpha 90.000000
_cell_angle_beta 90.000000
_cell_angle_gamma 90.000000
_cell_volume 4645.963064
_symmetry_space_group_name_H-M "C M C M"
_symmetry_group_IT_number 63
_symmetry_cell_setting 'orthorhombic'
loop_
_space_group_symop_operation_xyz
x,y,z
-x,-y,1/2+z
x,-y,-z
-x,y,1/2-z
-x,-y,-z
x,y,1/2-z
-x,y,z
x,-y,1/2+z
1/2+x,1/2+y,z
1/2-x,1/2-y,1/2+z
1/2+x,1/2-y,-z
1/2-x,1/2+y,1/2-z
1/2-x,1/2-y,-z
1/2+x,1/2+y,1/2-z
1/2-x,1/2+y,z
1/2+x,1/2-y,1/2+z
loop_
_atom_site_type_symbol
_atom_site_label
_atom_site_fract_x
_atom_site_fract_y
_atom_site_fract_z
Si Si1 0.246751 0.454487 0.750000
Si Si2 0.000000 0.616794 0.552141
Si Si3 0.826895 0.798645 0.250000
Si Si4 0.500000 0.633785 0.958855
Si Si5 0.190422 0.149986 0.378917
Si Si6 0.623536 0.393394 0.114560
Si Si7 0.634702 0.906475 0.089202
Si Si8 0.188759 0.665373 0.448891
O O1 0.187135 0.359048 0.750000
O O2 0.264053 0.612520 0.750000
O O3 0.278646 0.405240 0.815140
O O4 0.000000 0.500000 0.500000
O O5 0.000000 0.749487 0.510569
O O6 0.937312 0.605843 0.590351
O O7 0.863678 0.845153 0.312973
O O8 0.558801 0.641454 0.914073
O O9 0.500000 0.500000 0.000000
O O10 0.166681 0.297691 0.367184
O O11 0.240387 0.145948 0.435751
O O12 0.136355 0.048996 0.393623
O O13 0.672222 0.311617 0.073172
O O14 0.655928 0.056721 0.096704
O O15 0.660473 0.864119 0.018449
#
# Coordination Sequence:
#
# PCOD9474800 Si02
#       8
#     8   8   8   8  16  16  16  16
#     4  10  22  38  62  84 122 156 196 244 306 366
#     4  12  20  42  59  81 121 159 204 236 293 360
#     4  10  22  41  62  90 120 161 202 256 302 366
#     4  12  24  41  63  88 123 167 205 249 299 367
#     4  11  23  38  58  90 120 154 195 248 304 364
#     4  11  23  39  62  89 121 159 210 246 302 364
#     4  11  23  37  59  87 122 159 195 246 302 358
#     4  11  21  37  58  90 122 154 192 249 301 366
#
# _framework density 20.6631
#
# number of rings (size 3 to 8) (size 9 to 14) (size 15 to 20)
#    0.000    1.000    5.000    2.500    2.333    1.667 
#    0.000    0.000    0.000    1.500    0.000    0.000 
#    0.000    0.000    0.000    0.000    0.000    0.000 
#
# Total GULP energy -268064.418729 kJ/mol
# GULP energy per Si atom -5584.675390 kJ/mol
# Density = 2.061607 g / cm^3
# Si number density = 20.663100 Si / 1000 Ang^3
#
#
#
# Elastic Constant Matrix: (Units=GPa)
#
#
# Indices 1 2 3 4 5 6 
#
# 1 97.3655 -1.2153 0.3725 0.0000 0.0000 0.0000
# 2 -1.2153 66.9208 -10.6763 0.0000 0.0000 0.0000
# 3 0.3725 -10.6763 46.9278 0.0000 0.0000 0.0000
# 4 0.0000 0.0000 0.0000 17.4976 0.0000 0.0000
# 5 0.0000 0.0000 0.0000 0.0000 -6.9941 0.0000
# 6 0.0000 0.0000 0.0000 0.0000 0.0000 31.6204
#
#
#
# Elastic Compliance Matrix: (Units=1/GPa)
#
#
# Indices 1 2 3 4 5 6 
#
# 1 0.010273 0.000180 -0.000041 0.000000 0.000000 0.000000
# 2 0.000180 0.015509 0.003527 0.000000 0.000000 0.000000
# 3 -0.000041 0.003527 0.022112 0.000000 0.000000 0.000000
# 4 0.000000 0.000000 0.000000 0.057151 0.000000 0.000000
# 5 0.000000 0.000000 0.000000 0.000000 -0.142978 0.000000
# 6 0.000000 0.000000 0.000000 0.000000 0.000000 0.031625
#
#
# Mechanical properties :
#
#
# Convention : Reuss Voigt Hill
#
# Bulk Modulus (GPa) = 18.10713 20.90845 19.50779
# Shear Modulus (GPa) = 1048.61177 23.27366 535.94272
#
# Velocity S-wave (km/s) = 22.55176 3.35974 16.12250
# Velocity P-wave (km/s) = 26.20861 5.01908 18.86906
#
# Compressibility (1/GPa) = 0.05522687
#
# Stress axis : x y z
#
# Youngs Moduli (GPa) = 97.34271 64.47880 45.22425
#
# Poissons Ratio (x) = -0.01161 0.00184
# Poissons Ratio (y) = -0.01753 -0.15950
# Poissons Ratio (z) = 0.00395 -0.22741
#
# Static dielectric constant tensor:
#      x y z
#    x 1.727700 0.000000 0.000000 
#    y 0.000000 1.775820 0.000000 
#    z 0.000000 0.000000 1.749650 
# 
# From -- ./inp_files/56624.got.cif
#   From: 2010.05.17/outbox.cif.g08.bks.cpg/sg63_29_cif.got.tgz:56624.got - 2010.06.03 15:47:04.
