data_PCOD9474377
_publ_section_title
;
Structure prediction by ZEFSAII (Michael W. Deem and Ramdas Pophale) SiO2 
 PCOD9474377
Probable space group: C M C M
;
_chemical_formula_sum "Si O2"
_cell_formula_units_Z 96
_cell_length_a 22.489417
_cell_length_b 14.552888
_cell_length_c 15.046465
_cell_angle_alpha 90.000000
_cell_angle_beta 90.000000
_cell_angle_gamma 90.000000
_cell_volume 4924.496844
_symmetry_space_group_name_H-M "C M C M"
_symmetry_group_IT_number 63
_symmetry_cell_setting 'orthorhombic'
loop_
_space_group_symop_operation_xyz
x,y,z
-x,-y,1/2+z
x,-y,-z
-x,y,1/2-z
-x,-y,-z
x,y,1/2-z
-x,y,z
x,-y,1/2+z
1/2+x,1/2+y,z
1/2-x,1/2-y,1/2+z
1/2+x,1/2-y,-z
1/2-x,1/2+y,1/2-z
1/2-x,1/2-y,-z
1/2+x,1/2+y,1/2-z
1/2-x,1/2+y,z
1/2+x,1/2-y,1/2+z
loop_
_atom_site_type_symbol
_atom_site_label
_atom_site_fract_x
_atom_site_fract_y
_atom_site_fract_z
Si Si1 0.721904 0.700380 0.915954
Si Si2 0.569344 0.157623 0.517736
Si Si3 0.669465 0.923004 0.147043
Si Si4 0.395570 0.633395 0.501207
Si Si5 0.648334 0.871863 0.850634
Si Si6 0.067987 0.999082 0.352395
O O1 0.772771 0.639599 0.870957
O O2 0.669526 0.639368 0.956566
O O3 0.690488 0.782738 0.861425
O O4 0.750000 0.750000 0.000000
O O5 0.500000 0.134723 0.529457
O O6 0.614616 0.108818 0.585782
O O7 0.579862 0.267100 0.524655
O O8 0.594706 0.134135 0.420246
O O9 0.652886 0.912405 0.250000
O O10 0.681433 0.031370 0.130699
O O11 0.431793 0.589822 0.583595
O O12 0.396643 0.571597 0.412854
O O13 0.626370 0.874529 0.750000
O O14 0.088237 0.984729 0.250000
O O15 0.000000 0.032491 0.348242
#
# Coordination Sequence:
#
# PCOD9474377 Si02
#       6
#    16  16  16  16  16  16
#     4  11  22  42  64  91 125 166 203 258 311 369
#     4  11  23  41  65  90 123 165 210 262 313 367
#     4  11  24  43  66  93 126 164 206 258 317 373
#     4  10  21  39  62  88 124 165 212 252 310 372
#     4  10  23  41  64  93 127 165 208 254 309 372
#     4  10  21  38  61  93 131 166 206 257 311 371
#
# _framework density 19.494378000000001
#
# number of rings (size 3 to 8) (size 9 to 14) (size 15 to 20)
#    0.000    1.500    3.333    3.000    0.000    8.667 
#    0.000    3.333    0.000    0.000    0.000    0.000 
#    0.000    0.000    0.000    0.000    0.000    0.000 
#
# Total GULP energy -267753.285399 kJ/mol
# GULP energy per Si atom -5578.193446 kJ/mol
# Density = 1.945001 g / cm^3
# Si number density = 19.494378 Si / 1000 Ang^3
#
#
#
# Elastic Constant Matrix: (Units=GPa)
#
#
# Indices 1 2 3 4 5 6 
#
# 1 152.3287 120.0225 128.7870 0.0000 0.0000 0.0000
# 2 120.0225 403.6276 345.6152 0.0000 0.0000 0.0000
# 3 128.7870 345.6152 424.9906 0.0000 0.0000 0.0000
# 4 0.0000 0.0000 0.0000 23.4761 0.0000 0.0000
# 5 0.0000 0.0000 0.0000 0.0000 9.3977 0.0000
# 6 0.0000 0.0000 0.0000 0.0000 0.0000 18.7731
#
#
#
# Elastic Compliance Matrix: (Units=1/GPa)
#
#
# Indices 1 2 3 4 5 6 
#
# 1 0.008977 -0.001120 -0.001810 0.000000 0.000000 0.000000
# 2 -0.001120 0.008299 -0.006409 0.000000 0.000000 0.000000
# 3 -0.001810 -0.006409 0.008114 0.000000 0.000000 0.000000
# 4 0.000000 0.000000 0.000000 0.042596 0.000000 0.000000
# 5 0.000000 0.000000 0.000000 0.000000 0.106409 0.000000
# 6 0.000000 0.000000 0.000000 0.000000 0.000000 0.053268
#
#
# Mechanical properties :
#
#
# Convention : Reuss Voigt Hill
#
# Bulk Modulus (GPa) = 148.99456 241.08849 195.04153
# Shear Modulus (GPa) = 20.11438 36.09752 28.10595
#
# Velocity S-wave (km/s) = 3.21566 4.30779 3.80115
# Velocity P-wave (km/s) = 9.50698 12.19352 10.93309
#
# Compressibility (1/GPa) = 0.00671165
#
# Stress axis : x y z
#
# Youngs Moduli (GPa) = 111.39449 120.49976 123.24747
#
# Poissons Ratio (x) = 0.13494 0.22304
# Poissons Ratio (y) = 0.12474 0.78995
# Poissons Ratio (z) = 0.20159 0.77234
#
# Static dielectric constant tensor:
#      x y z
#    x 1.660030 0.000000 0.000000 
#    y 0.000000 2.144320 0.000000 
#    z 0.000000 0.000000 1.652570 
# 
# From -- ./inp_files/35391.got.cif
#   From: 2010.05.17/outbox.cif.g08.bks.cpg/sg63_18_cif.got.tgz:35391.got - 2010.06.03 15:47:04.
