data_PCOD9474369
_publ_section_title
;
Structure prediction by ZEFSAII (Michael W. Deem and Ramdas Pophale) SiO2 
 PCOD9474369
Probable space group: C M C M
;
_chemical_formula_sum "Si O2"
_cell_formula_units_Z 104
_cell_length_a 21.903190
_cell_length_b 27.070697
_cell_length_c 8.544301
_cell_angle_alpha 90.000000
_cell_angle_beta 90.000000
_cell_angle_gamma 90.000000
_cell_volume 5066.211865
_symmetry_space_group_name_H-M "C M C M"
_symmetry_group_IT_number 63
_symmetry_cell_setting 'orthorhombic'
loop_
_space_group_symop_operation_xyz
x,y,z
-x,-y,1/2+z
x,-y,-z
-x,y,1/2-z
-x,-y,-z
x,y,1/2-z
-x,y,z
x,-y,1/2+z
1/2+x,1/2+y,z
1/2-x,1/2-y,1/2+z
1/2+x,1/2-y,-z
1/2-x,1/2+y,1/2-z
1/2-x,1/2-y,-z
1/2+x,1/2+y,1/2-z
1/2-x,1/2+y,z
1/2+x,1/2-y,1/2+z
loop_
_atom_site_type_symbol
_atom_site_label
_atom_site_fract_x
_atom_site_fract_y
_atom_site_fract_z
Si Si1 0.204868 0.446433 0.566463
Si Si2 0.315402 0.396131 0.435282
Si Si3 0.893663 0.623337 0.564398
Si Si4 0.000000 0.555020 0.437033
Si Si5 0.306022 0.716861 0.939113
Si Si6 0.569910 0.769514 0.938498
Si Si7 0.928723 0.055095 0.064092
O O1 0.186744 0.500000 0.500000
O O2 0.192206 0.445424 0.750000
O O3 0.275293 0.435750 0.528909
O O4 0.170094 0.401129 0.483884
O O5 0.304339 0.401869 0.250000
O O6 0.298710 0.340402 0.483339
O O7 0.385343 0.407097 0.474975
O O8 0.896965 0.629169 0.750000
O O9 0.942116 0.583722 0.503377
O O10 0.910533 0.675148 0.485873
O O11 0.000000 0.500000 0.500000
O O12 0.000000 0.555918 0.250000
O O13 0.305294 0.719516 0.750000
O O14 0.373125 0.735758 0.992588
O O15 0.250000 0.750000 0.000000
O O16 0.567954 0.766312 0.750000
O O17 0.500000 0.759521 0.994833
O O18 0.917219 0.056496 0.250000
O O19 0.000000 0.065813 0.037056
O O20 0.916782 0.000000 0.000000
#
# Coordination Sequence:
#
# PCOD9474369 Si02
#       7
#    16  16  16   8  16  16  16
#     4  12  25  42  63  89 123 164 208 254 310 369
#     4  11  23  40  62  91 125 160 203 255 312 371
#     4  12  24  40  61  90 124 159 204 253 306 362
#     4  12  24  40  60  86 120 160 202 248 299 356
#     4  10  23  41  63  91 122 161 207 259 316 373
#     4  10  21  40  65  91 122 163 212 260 313 373
#     4  10  21  38  61  90 124 163 205 248 302 368
#
# _framework density 20.528157
#
# number of rings (size 3 to 8) (size 9 to 14) (size 15 to 20)
#    0.000    1.077    0.769    6.231    0.000    5.846 
#    0.000    1.538    0.000    0.000    0.000    0.000 
#    0.000    0.000    0.000    0.000    0.000    0.000 
#
# Total GULP energy -290775.177209 kJ/mol
# GULP energy per Si atom -5591.830331 kJ/mol
# Density = 2.048143 g / cm^3
# Si number density = 20.528157 Si / 1000 Ang^3
#
#
#
# Elastic Constant Matrix: (Units=GPa)
#
#
# Indices 1 2 3 4 5 6 
#
# 1 96.7041 27.1173 10.4908 0.0000 0.0000 0.0000
# 2 27.1173 58.9089 -2.2122 0.0000 0.0000 0.0000
# 3 10.4908 -2.2122 27.3178 0.0000 0.0000 0.0000
# 4 0.0000 0.0000 0.0000 25.9426 0.0000 0.0000
# 5 0.0000 0.0000 0.0000 0.0000 34.7144 0.0000
# 6 0.0000 0.0000 0.0000 0.0000 0.0000 40.8423
#
#
#
# Elastic Compliance Matrix: (Units=1/GPa)
#
#
# Indices 1 2 3 4 5 6 
#
# 1 0.012601 -0.006001 -0.005325 0.000000 0.000000 0.000000
# 2 -0.006001 0.019885 0.003915 0.000000 0.000000 0.000000
# 3 -0.005325 0.003915 0.038968 0.000000 0.000000 0.000000
# 4 0.000000 0.000000 0.000000 0.038547 0.000000 0.000000
# 5 0.000000 0.000000 0.000000 0.000000 0.028807 0.000000
# 6 0.000000 0.000000 0.000000 0.000000 0.000000 0.024484
#
#
# Mechanical properties :
#
#
# Convention : Reuss Voigt Hill
#
# Bulk Modulus (GPa) = 17.65794 28.19139 22.92467
# Shear Modulus (GPa) = 25.38188 30.13552 27.75870
#
# Velocity S-wave (km/s) = 3.52012 3.83562 3.68125
# Velocity P-wave (km/s) = 5.01420 5.77744 5.40930
#
# Compressibility (1/GPa) = 0.05663174
#
# Stress axis : x y z
#
# Youngs Moduli (GPa) = 79.35769 50.29016 25.66201
#
# Poissons Ratio (x) = 0.30177 0.13665
# Poissons Ratio (y) = 0.47619 -0.10046
# Poissons Ratio (z) = 0.42259 -0.19687
#
# Static dielectric constant tensor:
#      x y z
#    x 1.780000 0.000000 0.000000 
#    y 0.000000 1.716710 0.000000 
#    z 0.000000 0.000000 1.704530 
# 
# From -- ./inp_files/8746.got.cif
#   From: 2010.05.17/outbox.cif.g08.bks.cpg/sg63_5_cif.got.tgz:8746.got - 2010.06.03 15:47:04.
