data_PCOD9474363
_publ_section_title
;
Structure prediction by ZEFSAII (Michael W. Deem and Ramdas Pophale) SiO2 
 PCOD9474363
Probable space group: C M C M
;
_chemical_formula_sum "Si O2"
_cell_formula_units_Z 112
_cell_length_a 28.454901
_cell_length_b 11.149587
_cell_length_c 16.317515
_cell_angle_alpha 90.000000
_cell_angle_beta 90.000000
_cell_angle_gamma 90.000000
_cell_volume 5176.901243
_symmetry_space_group_name_H-M "C M C M"
_symmetry_group_IT_number 63
_symmetry_cell_setting 'orthorhombic'
loop_
_space_group_symop_operation_xyz
x,y,z
-x,-y,1/2+z
x,-y,-z
-x,y,1/2-z
-x,-y,-z
x,y,1/2-z
-x,y,z
x,-y,1/2+z
1/2+x,1/2+y,z
1/2-x,1/2-y,1/2+z
1/2+x,1/2-y,-z
1/2-x,1/2+y,1/2-z
1/2-x,1/2-y,-z
1/2+x,1/2+y,1/2-z
1/2-x,1/2+y,z
1/2+x,1/2-y,1/2+z
loop_
_atom_site_type_symbol
_atom_site_label
_atom_site_fract_x
_atom_site_fract_y
_atom_site_fract_z
Si Si1 0.551296 0.431504 0.349319
Si Si2 0.053426 0.294381 0.132796
Si Si3 0.115408 0.519644 0.159229
Si Si4 0.129307 0.096955 0.342001
Si Si5 0.551216 0.180299 0.438863
Si Si6 0.726172 0.705990 0.347998
Si Si7 0.717287 0.970410 0.096201
O O1 0.553317 0.433302 0.250000
O O2 0.500000 0.487568 0.372653
O O3 0.599451 0.490270 0.382259
O O4 0.550005 0.298505 0.383993
O O5 0.075828 0.418249 0.160592
O O6 0.088148 0.193727 0.164287
O O7 0.000000 0.280055 0.158676
O O8 0.054689 0.290339 0.034109
O O9 0.118921 0.575095 0.250000
O O10 0.096264 0.608060 0.090390
O O11 0.165103 0.464808 0.134125
O O12 0.144133 0.058286 0.250000
O O13 0.174895 0.160007 0.379341
O O14 0.500000 0.117231 0.426800
O O15 0.723821 0.727597 0.250000
O O16 0.738641 0.836559 0.387083
O O17 0.758459 0.588923 0.364289
O O18 0.715846 0.000000 0.000000
#
# Coordination Sequence:
#
# PCOD9474363 Si02
#       7
#    16  16  16  16  16  16  16
#     4   9  18  35  58  86 124 169 215 264 318 384
#     4  11  22  37  60  91 128 167 209 259 320 385
#     4  12  24  40  64  92 124 168 217 268 327 393
#     4  10  21  38  61  89 124 164 212 262 318 383
#     4  10  22  38  57  88 130 171 212 265 326 392
#     4  11  24  46  72 100 135 176 224 284 346 411
#     4  12  26  47  72 100 137 175 226 285 349 413
#
# _framework density 21.634564999999998
#
# number of rings (size 3 to 8) (size 9 to 14) (size 15 to 20)
#    0.000    1.286    1.429    4.714    0.000    6.000 
#    2.571    5.000    0.000    0.000    0.000    0.000 
#    0.000    0.000    0.000    0.000    0.000    0.000 
#
# Total GULP energy -312461.033038 kJ/mol
# GULP energy per Si atom -5579.661304 kJ/mol
# Density = 2.158532 g / cm^3
# Si number density = 21.634565 Si / 1000 Ang^3
#
#
#
# Elastic Constant Matrix: (Units=GPa)
#
#
# Indices 1 2 3 4 5 6 
#
# 1 56.3929 20.3603 2.7612 0.0000 0.0000 0.0000
# 2 20.3603 76.5026 -2.8121 0.0000 0.0000 0.0000
# 3 2.7612 -2.8121 59.6389 0.0000 0.0000 0.0000
# 4 0.0000 0.0000 0.0000 -7.2221 0.0000 0.0000
# 5 0.0000 0.0000 0.0000 0.0000 21.6526 0.0000
# 6 0.0000 0.0000 0.0000 0.0000 0.0000 75.3623
#
#
#
# Elastic Compliance Matrix: (Units=1/GPa)
#
#
# Indices 1 2 3 4 5 6 
#
# 1 0.019698 -0.005285 -0.001161 0.000000 0.000000 0.000000
# 2 -0.005285 0.014512 0.000929 0.000000 0.000000 0.000000
# 3 -0.001161 0.000929 0.016865 0.000000 0.000000 0.000000
# 4 0.000000 0.000000 0.000000 -0.138464 0.000000 0.000000
# 5 0.000000 0.000000 0.000000 0.000000 0.046184 0.000000
# 6 0.000000 0.000000 0.000000 0.000000 0.000000 0.013269
#
#
# Mechanical properties :
#
#
# Convention : Reuss Voigt Hill
#
# Bulk Modulus (GPa) = 24.97469 25.90593 25.44031
# Shear Modulus (GPa) = -1406.75502 29.44022 -688.65740
#
# Velocity S-wave (km/s) = -25.52737 3.69290 -17.86070
# Velocity P-wave (km/s) = 29.27957 5.49397 20.33605
#
# Compressibility (1/GPa) = 0.04004053
#
# Stress axis : x y z
#
# Youngs Moduli (GPa) = 50.76737 68.90782 59.29393
#
# Poissons Ratio (x) = 0.36418 0.06885
# Poissons Ratio (y) = 0.26831 -0.05508
# Poissons Ratio (z) = 0.05895 -0.06401
#
# Static dielectric constant tensor:
#      x y z
#    x 1.801850 0.000000 0.000000 
#    y 0.000000 1.873020 0.000000 
#    z 0.000000 0.000000 1.731070 
# 
# From -- ./inp_files/38571.got.cif
#   From: 2010.05.17/outbox.cif.g08.bks.cpg/sg63_20_cif.got.tgz:38571.got - 2010.06.03 15:47:04.
