data_PCOD9474154
_publ_section_title
;
Structure prediction by ZEFSAII (Michael W. Deem and Ramdas Pophale) SiO2 
 PCOD9474154
Probable space group: C M C M
;
_chemical_formula_sum "Si O2"
_cell_formula_units_Z 96
_cell_length_a 21.707151
_cell_length_b 11.834941
_cell_length_c 17.565368
_cell_angle_alpha 90.000000
_cell_angle_beta 90.000000
_cell_angle_gamma 90.000000
_cell_volume 4512.593124
_symmetry_space_group_name_H-M "C M C M"
_symmetry_group_IT_number 63
_symmetry_cell_setting 'orthorhombic'
loop_
_space_group_symop_operation_xyz
x,y,z
-x,-y,1/2+z
x,-y,-z
-x,y,1/2-z
-x,-y,-z
x,y,1/2-z
-x,y,z
x,-y,1/2+z
1/2+x,1/2+y,z
1/2-x,1/2-y,1/2+z
1/2+x,1/2-y,-z
1/2-x,1/2+y,1/2-z
1/2-x,1/2-y,-z
1/2+x,1/2+y,1/2-z
1/2-x,1/2+y,z
1/2+x,1/2-y,1/2+z
loop_
_atom_site_type_symbol
_atom_site_label
_atom_site_fract_x
_atom_site_fract_y
_atom_site_fract_z
Si Si1 0.868905 0.212506 0.905753
Si Si2 0.754166 0.375505 0.045155
Si Si3 0.572632 0.522247 0.831334
Si Si4 0.569321 0.093761 0.339705
Si Si5 0.368620 0.858450 0.161279
Si Si6 0.926981 0.168918 0.432691
O O1 0.806005 0.143159 0.902484
O O2 0.874898 0.341704 0.881573
O O3 0.915574 0.151857 0.848163
O O4 0.893699 0.203512 0.990833
O O5 0.813242 0.373301 0.100614
O O6 0.752236 0.500000 0.000000
O O7 0.750000 0.250000 0.000000
O O8 0.600177 0.489375 0.750000
O O9 0.500000 0.500433 0.827847
O O10 0.594046 0.454128 0.904908
O O11 0.570694 0.119817 0.250000
O O12 0.500000 0.118490 0.369361
O O13 0.584517 0.962286 0.347193
O O14 0.348477 0.853404 0.250000
O O15 0.406324 0.748487 0.136137
O O16 0.000000 0.171965 0.445556
#
# Coordination Sequence:
#
# PCOD9474154 Si02
#       6
#    16  16  16  16  16  16
#     4  12  23  39  66  97 132 173 228 278 346 417
#     4  12  26  48  71  96 139 187 235 296 355 422
#     4  10  21  37  58  89 130 169 212 268 332 404
#     4  10  22  42  68 101 141 181 230 293 357 425
#     4  11  25  44  67  98 132 180 236 289 348 418
#     4  11  22  38  63  96 132 171 217 277 348 418
#
# _framework density 21.273800000000001
#
# number of rings (size 3 to 8) (size 9 to 14) (size 15 to 20)
#    0.000    1.000    1.667    5.500    0.000    5.667 
#    0.000    2.500    0.000    0.000    0.000    0.000 
#    0.000    0.000    0.000    0.000    0.000    0.000 
#
# Total GULP energy -267513.883657 kJ/mol
# GULP energy per Si atom -5573.205910 kJ/mol
# Density = 2.122538 g / cm^3
# Si number density = 21.273800 Si / 1000 Ang^3
#
#
#
# Elastic Constant Matrix: (Units=GPa)
#
#
# Indices 1 2 3 4 5 6 
#
# 1 62.5157 -11.1835 -0.7163 0.0000 0.0000 0.0000
# 2 -11.1835 63.7950 -5.2863 0.0000 0.0000 0.0000
# 3 -0.7163 -5.2863 52.5539 0.0000 0.0000 0.0000
# 4 0.0000 0.0000 0.0000 30.0201 0.0000 0.0000
# 5 0.0000 0.0000 0.0000 0.0000 25.8924 0.0000
# 6 0.0000 0.0000 0.0000 0.0000 0.0000 27.2653
#
#
#
# Elastic Compliance Matrix: (Units=1/GPa)
#
#
# Indices 1 2 3 4 5 6 
#
# 1 0.016528 0.002941 0.000521 0.000000 0.000000 0.000000
# 2 0.002941 0.016330 0.001683 0.000000 0.000000 0.000000
# 3 0.000521 0.001683 0.019204 0.000000 0.000000 0.000000
# 4 0.000000 0.000000 0.000000 0.033311 0.000000 0.000000
# 5 0.000000 0.000000 0.000000 0.000000 0.038621 0.000000
# 6 0.000000 0.000000 0.000000 0.000000 0.000000 0.036677
#
#
# Mechanical properties :
#
#
# Convention : Reuss Voigt Hill
#
# Bulk Modulus (GPa) = 16.03815 16.05470 16.04643
# Shear Modulus (GPa) = 29.21130 29.70561 29.45846
#
# Velocity S-wave (km/s) = 3.70957 3.74083 3.72523
# Velocity P-wave (km/s) = 5.08952 5.12069 5.10513
#
# Compressibility (1/GPa) = 0.06235133
#
# Stress axis : x y z
#
# Youngs Moduli (GPa) = 60.50339 61.23646 52.07128
#
# Poissons Ratio (x) = -0.18007 -0.02713
# Poissons Ratio (y) = -0.17792 -0.08762
# Poissons Ratio (z) = -0.03153 -0.10304
#
# Static dielectric constant tensor:
#      x y z
#    x 1.805860 0.000000 0.000000 
#    y 0.000000 1.781340 0.000000 
#    z 0.000000 0.000000 1.811830 
# 
# From -- ./inp_files/48010.got.cif
#   From: 2010.05.17/outbox.cif.g08.bks.cpg/sg63_25_cif.got.tgz:48010.got - 2010.06.03 15:47:04.
