data_PCOD9474960
_publ_section_title
;
Structure prediction by ZEFSAII (Michael W. Deem and Ramdas Pophale) SiO2 
 PCOD9474960
Probable space group: C M C M
;
_chemical_formula_sum "Si O2"
_cell_formula_units_Z 80
_cell_length_a 14.352633
_cell_length_b 12.419697
_cell_length_c 17.879491
_cell_angle_alpha 90.000000
_cell_angle_beta 90.000000
_cell_angle_gamma 90.000000
_cell_volume 3187.114980
_symmetry_space_group_name_H-M "C M C M"
_symmetry_group_IT_number 63
_symmetry_cell_setting 'orthorhombic'
loop_
_space_group_symop_operation_xyz
x,y,z
-x,-y,1/2+z
x,-y,-z
-x,y,1/2-z
-x,-y,-z
x,y,1/2-z
-x,y,z
x,-y,1/2+z
1/2+x,1/2+y,z
1/2-x,1/2-y,1/2+z
1/2+x,1/2-y,-z
1/2-x,1/2+y,1/2-z
1/2-x,1/2-y,-z
1/2+x,1/2+y,1/2-z
1/2-x,1/2+y,z
1/2+x,1/2-y,1/2+z
loop_
_atom_site_type_symbol
_atom_site_label
_atom_site_fract_x
_atom_site_fract_y
_atom_site_fract_z
Si Si1 0.637252 0.568445 0.669461
Si Si2 0.858230 0.396671 0.165863
Si Si3 0.100280 0.814148 0.015908
Si Si4 0.686609 0.660354 0.370181
Si Si5 0.396666 0.877988 0.615362
O O1 0.601819 0.606266 0.750000
O O2 0.747283 0.589524 0.667673
O O3 0.601700 0.625122 0.595142
O O4 0.632087 0.439843 0.663775
O O5 0.893608 0.416800 0.250000
O O6 0.893556 0.492692 0.113602
O O7 0.680177 0.351361 0.960152
O O8 0.133928 0.728230 0.854205
O O9 0.106474 0.688910 0.038335
O O10 0.000000 0.836662 0.980169
O O11 0.796667 0.656462 0.347155
O O12 0.500000 0.850139 0.648099
#
# Coordination Sequence:
#
# PCOD9474960 Si02
#       5
#    16  16  16  16  16
#     4  10  22  40  65  95 131 178 226 274 338 409
#     4  10  22  40  65  96 134 181 229 280 338 403
#     4  11  24  43  68 100 135 178 232 286 342 409
#     4  11  22  42  71  97 138 182 228 285 347 407
#     4  10  23  42  66  98 134 178 230 283 342 407
#
# _framework density 25.101071999999998
#
# number of rings (size 3 to 8) (size 9 to 14) (size 15 to 20)
#    0.000    1.600    2.000    1.800    0.000    5.600 
#    0.000    4.000    0.000    3.600    0.000    0.000 
#    0.000    0.000    0.000    0.000    0.000    0.000 
#
# Total GULP energy -223297.678111 kJ/mol
# GULP energy per Si atom -5582.441953 kJ/mol
# Density = 2.504394 g / cm^3
# Si number density = 25.101072 Si / 1000 Ang^3
#
#
#
# Elastic Constant Matrix: (Units=GPa)
#
#
# Indices 1 2 3 4 5 6 
#
# 1 139.8615 12.4635 29.5380 0.0000 0.0000 0.0000
# 2 12.4635 155.7454 43.5441 0.0000 0.0000 0.0000
# 3 29.5380 43.5441 110.1539 0.0000 0.0000 0.0000
# 4 0.0000 0.0000 0.0000 30.4271 0.0000 0.0000
# 5 0.0000 0.0000 0.0000 0.0000 -32.9620 0.0000
# 6 0.0000 0.0000 0.0000 0.0000 0.0000 6.0718
#
#
#
# Elastic Compliance Matrix: (Units=1/GPa)
#
#
# Indices 1 2 3 4 5 6 
#
# 1 0.007579 -0.000043 -0.002015 0.000000 0.000000 0.000000
# 2 -0.000043 0.007219 -0.002842 0.000000 0.000000 0.000000
# 3 -0.002015 -0.002842 0.010742 0.000000 0.000000 0.000000
# 4 0.000000 0.000000 0.000000 0.032865 0.000000 0.000000
# 5 0.000000 0.000000 0.000000 0.000000 -0.030338 0.000000
# 6 0.000000 0.000000 0.000000 0.000000 0.000000 0.164696
#
#
# Mechanical properties :
#
#
# Convention : Reuss Voigt Hill
#
# Bulk Modulus (GPa) = 63.53541 64.09465 63.81503
# Shear Modulus (GPa) = 24.06034 22.05506 23.05770
#
# Velocity S-wave (km/s) = 3.09939 2.96742 3.03412
# Velocity P-wave (km/s) = 6.17860 6.10990 6.14434
#
# Compressibility (1/GPa) = 0.01573925
#
# Stress axis : x y z
#
# Youngs Moduli (GPa) = 131.93636 138.52759 93.09153
#
# Poissons Ratio (x) = 0.00597 0.18762
# Poissons Ratio (y) = 0.00568 0.26457
# Poissons Ratio (z) = 0.26591 0.39370
#
# Static dielectric constant tensor:
#      x y z
#    x 1.977430 0.000000 0.000000 
#    y 0.000000 2.014020 0.000000 
#    z 0.000000 0.000000 1.971990 
# 
# From -- ./inp_files/33844.got.cif
#   From: 2010.05.17/outbox.cif.g08.bks.cpg/sg63_17_cif.got.tgz:33844.got - 2010.06.03 15:47:04.
