data_PCOD9474705
_publ_section_title
;
Structure prediction by ZEFSAII (Michael W. Deem and Ramdas Pophale) SiO2 
 PCOD9474705
Probable space group: C M C M
;
_chemical_formula_sum "Si O2"
_cell_formula_units_Z 72
_cell_length_a 17.479354
_cell_length_b 22.098491
_cell_length_c 9.164695
_cell_angle_alpha 90.000000
_cell_angle_beta 90.000000
_cell_angle_gamma 90.000000
_cell_volume 3540.022424
_symmetry_space_group_name_H-M "C M C M"
_symmetry_group_IT_number 63
_symmetry_cell_setting 'orthorhombic'
loop_
_space_group_symop_operation_xyz
x,y,z
-x,-y,1/2+z
x,-y,-z
-x,y,1/2-z
-x,-y,-z
x,y,1/2-z
-x,y,z
x,-y,1/2+z
1/2+x,1/2+y,z
1/2-x,1/2-y,1/2+z
1/2+x,1/2-y,-z
1/2-x,1/2+y,1/2-z
1/2-x,1/2-y,-z
1/2+x,1/2+y,1/2-z
1/2-x,1/2+y,z
1/2+x,1/2-y,1/2+z
loop_
_atom_site_type_symbol
_atom_site_label
_atom_site_fract_x
_atom_site_fract_y
_atom_site_fract_z
Si Si1 0.090844 0.256470 0.582982
Si Si2 0.765616 0.439808 0.422140
Si Si3 0.089535 0.599417 0.419557
Si Si4 0.650552 0.645070 0.077053
Si Si5 0.500000 0.434739 0.924153
O O1 0.112613 0.241416 0.750000
O O2 0.100713 0.328190 0.563585
O O3 0.134732 0.213459 0.472500
O O4 0.000000 0.244857 0.567550
O O5 0.734345 0.500000 0.500000
O O6 0.756984 0.443863 0.250000
O O7 0.853503 0.432633 0.470475
O O8 0.720198 0.383501 0.488921
O O9 0.108067 0.584241 0.250000
O O10 0.000000 0.586246 0.443426
O O11 0.664084 0.641395 0.250000
O O12 0.575168 0.604976 0.040417
O O13 0.500000 0.444124 0.750000
O O14 0.500000 0.500000 0.000000
#
# Coordination Sequence:
#
# PCOD9474705 Si02
#       5
#    16  16  16  16   8
#     4   9  18  35  61  92 124 158 198 244 296 353
#     4  12  26  43  62  87 119 158 202 250 304 358
#     4   9  20  41  67  93 121 155 197 247 302 359
#     4  11  22  38  59  87 122 161 203 247 297 352
#     4  10  22  36  54  82 114 156 203 244 289 344
#
# _framework density 20.338854000000001
#
# number of rings (size 3 to 8) (size 9 to 14) (size 15 to 20)
#    0.000    1.778    1.111    4.667    0.000    6.222 
#    0.000    2.222    0.000    0.000    0.000    0.000 
#    0.000    0.000    0.000    0.000    0.000    0.000 
#
# Total GULP energy -201289.627249 kJ/mol
# GULP energy per Si atom -5591.378535 kJ/mol
# Density = 2.029256 g / cm^3
# Si number density = 20.338854 Si / 1000 Ang^3
#
#
#
# Elastic Constant Matrix: (Units=GPa)
#
#
# Indices 1 2 3 4 5 6 
#
# 1 55.6006 2.8145 42.1442 0.0000 0.0000 0.0000
# 2 2.8145 30.8646 28.5861 0.0000 0.0000 0.0000
# 3 42.1442 28.5861 111.6402 0.0000 0.0000 0.0000
# 4 0.0000 0.0000 0.0000 36.1464 0.0000 0.0000
# 5 0.0000 0.0000 0.0000 0.0000 13.1635 0.0000
# 6 0.0000 0.0000 0.0000 0.0000 0.0000 27.2692
#
#
#
# Elastic Compliance Matrix: (Units=1/GPa)
#
#
# Indices 1 2 3 4 5 6 
#
# 1 0.027035 0.009159 -0.012551 0.000000 0.000000 0.000000
# 2 0.009159 0.045575 -0.015127 0.000000 0.000000 0.000000
# 3 -0.012551 -0.015127 0.017569 0.000000 0.000000 0.000000
# 4 0.000000 0.000000 0.000000 0.027665 0.000000 0.000000
# 5 0.000000 0.000000 0.000000 0.000000 0.075968 0.000000
# 6 0.000000 0.000000 0.000000 0.000000 0.000000 0.036671
#
#
# Mechanical properties :
#
#
# Convention : Reuss Voigt Hill
#
# Bulk Modulus (GPa) = 18.81802 38.35499 28.58651
# Shear Modulus (GPa) = 17.52940 23.61986 20.57463
#
# Velocity S-wave (km/s) = 2.93894 3.41151 3.18400
# Velocity P-wave (km/s) = 4.55948 5.86658 5.25384
#
# Compressibility (1/GPa) = 0.05314055
#
# Stress axis : x y z
#
# Youngs Moduli (GPa) = 36.98879 21.94191 56.91911
#
# Poissons Ratio (x) = -0.20097 0.71439
# Poissons Ratio (y) = -0.33879 0.86103
# Poissons Ratio (z) = 0.46425 0.33192
#
# Static dielectric constant tensor:
#      x y z
#    x 1.744300 0.000000 0.000000 
#    y 0.000000 1.728370 0.000000 
#    z 0.000000 0.000000 1.679520 
# 
# From -- ./inp_files/6103.got.cif
#   From: 2010.05.17/outbox.cif.g08.bks.cpg/sg63_4_cif.got.tgz:6103.got - 2010.06.03 15:47:04.
