data_PCOD9474466
_publ_section_title
;
Structure prediction by ZEFSAII (Michael W. Deem and Ramdas Pophale) SiO2 
 PCOD9474466
Probable space group: C M C M
;
_chemical_formula_sum "Si O2"
_cell_formula_units_Z 112
_cell_length_a 16.239664
_cell_length_b 12.593321
_cell_length_c 23.616655
_cell_angle_alpha 90.000000
_cell_angle_beta 90.000000
_cell_angle_gamma 90.000000
_cell_volume 4829.872855
_symmetry_space_group_name_H-M "C M C M"
_symmetry_group_IT_number 63
_symmetry_cell_setting 'orthorhombic'
loop_
_space_group_symop_operation_xyz
x,y,z
-x,-y,1/2+z
x,-y,-z
-x,y,1/2-z
-x,-y,-z
x,y,1/2-z
-x,y,z
x,-y,1/2+z
1/2+x,1/2+y,z
1/2-x,1/2-y,1/2+z
1/2+x,1/2-y,-z
1/2-x,1/2+y,1/2-z
1/2-x,1/2-y,-z
1/2+x,1/2+y,1/2-z
1/2-x,1/2+y,z
1/2+x,1/2-y,1/2+z
loop_
_atom_site_type_symbol
_atom_site_label
_atom_site_fract_x
_atom_site_fract_y
_atom_site_fract_z
Si Si1 0.406385 0.080245 0.073287
Si Si2 0.837388 0.640300 0.538093
Si Si3 0.351786 0.476402 0.685518
Si Si4 0.593639 0.236749 0.818538
Si Si5 0.592722 0.637428 0.038085
Si Si6 0.655785 0.996880 0.185637
Si Si7 0.155421 0.078880 0.924658
O O1 0.384559 0.074674 0.139497
O O2 0.342900 0.138435 0.030841
O O3 0.246466 0.877979 0.062308
O O4 0.394968 0.957156 0.055640
O O5 0.876126 0.749568 0.557813
O O6 0.000000 0.384457 0.563508
O O7 0.380944 0.495324 0.750000
O O8 0.378959 0.357410 0.667426
O O9 0.252635 0.479196 0.685706
O O10 0.373533 0.568042 0.640039
O O11 0.594391 0.239338 0.750000
O O12 0.500000 0.220166 0.837745
O O13 0.642806 0.127620 0.831092
O O14 0.500000 0.612966 0.056105
O O15 0.596096 0.634515 0.969542
O O16 0.653620 0.544857 0.057057
O O17 0.624103 0.010074 0.250000
#
# Coordination Sequence:
#
# PCOD9474466 Si02
#       7
#    16  16  16  16  16  16  16
#     4  11  21  36  60  91 123 160 208 260 313 376
#     4  11  23  42  61  90 127 167 211 257 315 378
#     4  10  22  40  60  91 130 166 202 254 318 380
#     4   9  19  37  63  93 122 158 210 261 306 362
#     4  11  24  43  67  95 128 166 211 268 319 366
#     4  10  21  39  60  90 128 166 208 261 315 372
#     4  11  23  40  64  94 124 164 213 259 313 382
#
# _framework density 23.189015000000001
#
# number of rings (size 3 to 8) (size 9 to 14) (size 15 to 20)
#    0.000    1.571    1.429    5.143    2.000    2.000 
#    2.571    0.000    0.000    0.000    0.000    0.000 
#    0.000    0.000    0.000    0.000    0.000    0.000 
#
# Total GULP energy -312853.212591 kJ/mol
# GULP energy per Si atom -5586.664511 kJ/mol
# Density = 2.313624 g / cm^3
# Si number density = 23.189015 Si / 1000 Ang^3
#
#
#
# Elastic Constant Matrix: (Units=GPa)
#
#
# Indices 1 2 3 4 5 6 
#
# 1 80.2326 17.1925 -3.4303 0.0000 0.0000 0.0000
# 2 17.1925 67.5455 -0.1566 0.0000 0.0000 0.0000
# 3 -3.4303 -0.1566 134.6747 0.0000 0.0000 0.0000
# 4 0.0000 0.0000 0.0000 35.6827 0.0000 0.0000
# 5 0.0000 0.0000 0.0000 0.0000 25.3798 0.0000
# 6 0.0000 0.0000 0.0000 0.0000 0.0000 28.9495
#
#
#
# Elastic Compliance Matrix: (Units=1/GPa)
#
#
# Indices 1 2 3 4 5 6 
#
# 1 0.013198 -0.003358 0.000332 0.000000 0.000000 0.000000
# 2 -0.003358 0.015660 -0.000067 0.000000 0.000000 0.000000
# 3 0.000332 -0.000067 0.007434 0.000000 0.000000 0.000000
# 4 0.000000 0.000000 0.000000 0.028025 0.000000 0.000000
# 5 0.000000 0.000000 0.000000 0.000000 0.039401 0.000000
# 6 0.000000 0.000000 0.000000 0.000000 0.000000 0.034543
#
#
# Mechanical properties :
#
#
# Convention : Reuss Voigt Hill
#
# Bulk Modulus (GPa) = 33.21845 34.40712 33.81278
# Shear Modulus (GPa) = 32.36634 35.92556 34.14595
#
# Velocity S-wave (km/s) = 3.74004 3.94032 3.84149
# Velocity P-wave (km/s) = 5.74515 5.96418 5.85569
#
# Compressibility (1/GPa) = 0.03010375
#
# Stress axis : x y z
#
# Youngs Moduli (GPa) = 75.77127 63.85899 134.52281
#
# Poissons Ratio (x) = 0.21447 -0.04470
# Poissons Ratio (y) = 0.25447 0.00906
# Poissons Ratio (z) = -0.02518 0.00430
#
# Static dielectric constant tensor:
#      x y z
#    x 1.804500 0.000000 0.000000 
#    y 0.000000 1.841390 0.000000 
#    z 0.000000 0.000000 2.075120 
# 
# From -- ./inp_files/69411.got.cif
#   From: 2010.05.17/outbox.cif.g08.bks.cpg/sg63_35_cif.got.tgz:69411.got - 2010.06.03 15:47:04.
