data_PCOD9474019
_publ_section_title
;
Structure prediction by ZEFSAII (Michael W. Deem and Ramdas Pophale) SiO2 
 PCOD9474019
Probable space group: C M C M
;
_chemical_formula_sum "Si O2"
_cell_formula_units_Z 68
_cell_length_a 21.343895
_cell_length_b 9.770279
_cell_length_c 13.184788
_cell_angle_alpha 90.000000
_cell_angle_beta 90.000000
_cell_angle_gamma 90.000000
_cell_volume 2749.500433
_symmetry_space_group_name_H-M "C M C M"
_symmetry_group_IT_number 63
_symmetry_cell_setting 'orthorhombic'
loop_
_space_group_symop_operation_xyz
x,y,z
-x,-y,1/2+z
x,-y,-z
-x,y,1/2-z
-x,-y,-z
x,y,1/2-z
-x,y,z
x,-y,1/2+z
1/2+x,1/2+y,z
1/2-x,1/2-y,1/2+z
1/2+x,1/2-y,-z
1/2-x,1/2+y,1/2-z
1/2-x,1/2-y,-z
1/2+x,1/2+y,1/2-z
1/2-x,1/2+y,z
1/2+x,1/2-y,1/2+z
loop_
_atom_site_type_symbol
_atom_site_label
_atom_site_fract_x
_atom_site_fract_y
_atom_site_fract_z
Si Si1 0.626720 0.985917 0.861860
Si Si2 0.427604 0.304177 0.362515
Si Si3 0.000000 0.830744 0.750000
Si Si4 0.889155 0.212864 0.085601
Si Si5 0.260097 0.376821 0.926002
O O1 0.621886 0.047776 0.750000
O O2 0.577943 0.861469 0.864474
O O3 0.695440 0.917288 0.871986
O O4 0.616532 0.120704 0.928879
O O5 0.401551 0.345533 0.250000
O O6 0.500000 0.347253 0.362740
O O7 0.398113 0.344150 0.470387
O O8 0.054561 0.823196 0.659879
O O9 0.823590 0.159932 0.130963
O O10 0.273784 0.500000 0.000000
O O11 0.250000 0.250000 0.000000
#
# Coordination Sequence:
#
# PCOD9474019 Si02
#       5
#    16  16   4  16  16
#     4  11  23  38  67 109 150 190 249 309 386 448
#     4  10  21  36  63 100 144 192 244 310 374 441
#     4  12  28  44  74 112 150 212 248 304 382 456
#     4  12  24  44  71 105 152 195 249 306 374 460
#     4  12  24  46  73 107 151 196 248 315 379 450
#
# _framework density 24.731767000000001
#
# number of rings (size 3 to 8) (size 9 to 14) (size 15 to 20)
#    0.000    0.706    7.059    0.706    3.294    0.941 
#    0.000    1.765    0.000    1.412    0.000    0.000 
#    0.000    0.000    0.000    0.000    0.000    0.000 
#
# Total GULP energy -189450.150068 kJ/mol
# GULP energy per Si atom -5572.063237 kJ/mol
# Density = 2.467548 g / cm^3
# Si number density = 24.731767 Si / 1000 Ang^3
#
#
#
# Elastic Constant Matrix: (Units=GPa)
#
#
# Indices 1 2 3 4 5 6 
#
# 1 134.6588 7.2717 34.4732 0.0000 0.0000 0.0000
# 2 7.2717 97.9126 14.0120 0.0000 0.0000 0.0000
# 3 34.4732 14.0120 171.8014 0.0000 0.0000 0.0000
# 4 0.0000 0.0000 0.0000 3.5714 0.0000 0.0000
# 5 0.0000 0.0000 0.0000 0.0000 36.6252 0.0000
# 6 0.0000 0.0000 0.0000 0.0000 0.0000 10.4165
#
#
#
# Elastic Compliance Matrix: (Units=1/GPa)
#
#
# Indices 1 2 3 4 5 6 
#
# 1 0.007841 -0.000361 -0.001544 0.000000 0.000000 0.000000
# 2 -0.000361 0.010350 -0.000772 0.000000 0.000000 0.000000
# 3 -0.001544 -0.000772 0.006193 0.000000 0.000000 0.000000
# 4 0.000000 0.000000 0.000000 0.280001 0.000000 0.000000
# 5 0.000000 0.000000 0.000000 0.000000 0.027304 0.000000
# 6 0.000000 0.000000 0.000000 0.000000 0.000000 0.096001
#
#
# Mechanical properties :
#
#
# Convention : Reuss Voigt Hill
#
# Bulk Modulus (GPa) = 52.54595 57.32073 54.93334
# Shear Modulus (GPa) = 11.37947 33.36370 22.37158
#
# Velocity S-wave (km/s) = 2.14736 3.67689 3.01087
# Velocity P-wave (km/s) = 5.23838 6.42287 5.86063
#
# Compressibility (1/GPa) = 0.01903096
#
# Stress axis : x y z
#
# Youngs Moduli (GPa) = 127.53593 96.61410 161.46223
#
# Poissons Ratio (x) = 0.03491 0.24928
# Poissons Ratio (y) = 0.04609 0.12459
# Poissons Ratio (z) = 0.19690 0.07455
#
# Static dielectric constant tensor:
#      x y z
#    x 1.949370 0.000000 0.000000 
#    y 0.000000 1.940290 0.000000 
#    z 0.000000 0.000000 2.075820 
# 
# From -- ./inp_files/34976.got.cif
#   From: 2010.05.17/outbox.cif.g08.bks.cpg/sg63_18_cif.got.tgz:34976.got - 2010.06.03 15:47:04.
