data_PCOD9474993
_publ_section_title
;
Structure prediction by ZEFSAII (Michael W. Deem and Ramdas Pophale) SiO2 
 PCOD9474993
Probable space group: C M C M
;
_chemical_formula_sum "Si O2"
_cell_formula_units_Z 100
_cell_length_a 18.486743
_cell_length_b 19.938306
_cell_length_c 14.791066
_cell_angle_alpha 90.000000
_cell_angle_beta 90.000000
_cell_angle_gamma 90.000000
_cell_volume 5451.903194
_symmetry_space_group_name_H-M "C M C M"
_symmetry_group_IT_number 63
_symmetry_cell_setting 'orthorhombic'
loop_
_space_group_symop_operation_xyz
x,y,z
-x,-y,1/2+z
x,-y,-z
-x,y,1/2-z
-x,-y,-z
x,y,1/2-z
-x,y,z
x,-y,1/2+z
1/2+x,1/2+y,z
1/2-x,1/2-y,1/2+z
1/2+x,1/2-y,-z
1/2-x,1/2+y,1/2-z
1/2-x,1/2-y,-z
1/2+x,1/2+y,1/2-z
1/2-x,1/2+y,z
1/2+x,1/2-y,1/2+z
loop_
_atom_site_type_symbol
_atom_site_label
_atom_site_fract_x
_atom_site_fract_y
_atom_site_fract_z
Si Si1 0.735872 0.095219 0.149869
Si Si2 0.769051 0.755172 0.605160
Si Si3 0.634849 0.572248 0.484118
Si Si4 0.500000 0.961355 0.250000
Si Si5 0.372337 0.985850 0.104134
Si Si6 0.920569 0.814762 0.644393
Si Si7 0.266607 0.605954 0.647845
O O1 0.764036 0.081831 0.250000
O O2 0.732780 0.175478 0.138166
O O3 0.792654 0.066556 0.077592
O O4 0.661388 0.056452 0.137935
O O5 0.750000 0.750000 0.500000
O O6 0.854168 0.766363 0.622274
O O7 0.747163 0.685516 0.648816
O O8 0.600625 0.500000 0.500000
O O9 0.588082 0.624547 0.426694
O O10 0.666333 0.596035 0.580065
O O11 0.436217 0.963632 0.170222
O O12 0.305089 0.932834 0.111438
O O13 0.393043 0.000000 0.000000
O O14 0.913561 0.836050 0.750000
O O15 0.000000 0.783952 0.634646
O O16 0.280126 0.582198 0.750000
#
# Coordination Sequence:
#
# PCOD9474993 Si02
#       7
#    16  16  16   4  16  16  16
#     4  11  19  35  61  84 116 152 202 251 289 350
#     4  11  20  37  62  91 117 156 205 251 298 354
#     4  11  20  34  61  91 116 154 194 251 296 348
#     4  12  26  40  60  82 128 168 204 250 312 394
#     4  12  22  41  59  86 123 161 203 252 309 366
#     4  10  22  41  61  87 125 160 195 242 305 370
#     4  12  21  35  59  91 121 151 201 254 302 349
#
# _framework density 18.342219
#
# number of rings (size 3 to 8) (size 9 to 14) (size 15 to 20)
#    0.000    0.800    8.000    3.120    0.000    0.960 
#    1.440    0.000    1.760    0.480    0.000    0.000 
#    0.000    0.000    0.000    0.000    0.000    0.000 
#
# Total GULP energy -278356.888247 kJ/mol
# GULP energy per Si atom -5567.137765 kJ/mol
# Density = 1.830047 g / cm^3
# Si number density = 18.342219 Si / 1000 Ang^3
#
#
#
# Elastic Constant Matrix: (Units=GPa)
#
#
# Indices 1 2 3 4 5 6 
#
# 1 68.6889 9.5848 13.6934 0.0000 0.0000 0.0000
# 2 9.5848 87.0565 3.1146 0.0000 0.0000 0.0000
# 3 13.6934 3.1146 146.6462 0.0000 0.0000 0.0000
# 4 0.0000 0.0000 0.0000 582.5105 0.0000 0.0000
# 5 0.0000 0.0000 0.0000 0.0000 26.7512 0.0000
# 6 0.0000 0.0000 0.0000 0.0000 0.0000 5.0879
#
#
#
# Elastic Compliance Matrix: (Units=1/GPa)
#
#
# Indices 1 2 3 4 5 6 
#
# 1 0.015056 -0.001609 -0.001372 0.000000 0.000000 0.000000
# 2 -0.001609 0.011667 -0.000098 0.000000 0.000000 0.000000
# 3 -0.001372 -0.000098 0.006949 0.000000 0.000000 0.000000
# 4 0.000000 0.000000 0.000000 0.001717 0.000000 0.000000
# 5 0.000000 0.000000 0.000000 0.000000 0.037381 0.000000
# 6 0.000000 0.000000 0.000000 0.000000 0.000000 0.196545
#
#
# Mechanical properties :
#
#
# Convention : Reuss Voigt Hill
#
# Bulk Modulus (GPa) = 36.34101 39.46412 37.90257
# Shear Modulus (GPa) = 17.56578 141.26985 79.41781
#
# Velocity S-wave (km/s) = 3.09798 8.78557 6.58725
# Velocity P-wave (km/s) = 5.71423 11.15693 8.86367
#
# Compressibility (1/GPa) = 0.02751712
#
# Stress axis : x y z
#
# Youngs Moduli (GPa) = 66.41729 85.70894 143.89942
#
# Poissons Ratio (x) = 0.13787 0.19739
# Poissons Ratio (y) = 0.10684 0.01404
# Poissons Ratio (z) = 0.09111 0.00836
#
# Static dielectric constant tensor:
#      x y z
#    x 1.627220 0.000000 0.000000 
#    y 0.000000 1.656850 0.000000 
#    z 0.000000 0.000000 1.668880 
# 
# From -- ./inp_files/34208.got.cif
#   From: 2010.05.17/outbox.cif.g08.bks.cpg/sg63_18_cif.got.tgz:34208.got - 2010.06.03 15:47:04.
