data_PCOD9474060
_publ_section_title
;
Structure prediction by ZEFSAII (Michael W. Deem and Ramdas Pophale) SiO2 
 PCOD9474060
Probable space group: C M C M
;
_chemical_formula_sum "Si O2"
_cell_formula_units_Z 104
_cell_length_a 20.812582
_cell_length_b 29.981115
_cell_length_c 8.600113
_cell_angle_alpha 90.000000
_cell_angle_beta 90.000000
_cell_angle_gamma 90.000000
_cell_volume 5366.336474
_symmetry_space_group_name_H-M "C M C M"
_symmetry_group_IT_number 63
_symmetry_cell_setting 'orthorhombic'
loop_
_space_group_symop_operation_xyz
x,y,z
-x,-y,1/2+z
x,-y,-z
-x,y,1/2-z
-x,-y,-z
x,y,1/2-z
-x,y,z
x,-y,1/2+z
1/2+x,1/2+y,z
1/2-x,1/2-y,1/2+z
1/2+x,1/2-y,-z
1/2-x,1/2+y,1/2-z
1/2-x,1/2-y,-z
1/2+x,1/2+y,1/2-z
1/2-x,1/2+y,z
1/2+x,1/2-y,1/2+z
loop_
_atom_site_type_symbol
_atom_site_label
_atom_site_fract_x
_atom_site_fract_y
_atom_site_fract_z
Si Si1 0.179396 0.294447 0.064783
Si Si2 0.929318 0.642638 0.062403
Si Si3 0.736590 0.452230 0.562853
Si Si4 0.826103 0.803270 0.435668
Si Si5 0.115642 0.547187 0.063341
Si Si6 0.880417 0.108751 0.436667
Si Si7 0.000000 0.051115 0.563914
O O1 0.181358 0.288179 0.250000
O O2 0.251176 0.309446 0.014517
O O3 0.127326 0.330484 0.016612
O O4 0.160949 0.247455 0.986630
O O5 0.921939 0.645356 0.250000
O O6 0.923504 0.590729 0.018359
O O7 0.000000 0.659819 0.021431
O O8 0.714375 0.500000 0.500000
O O9 0.737023 0.453342 0.750000
O O10 0.810156 0.445887 0.510370
O O11 0.686491 0.414761 0.513905
O O12 0.829890 0.807159 0.250000
O O13 0.872685 0.840190 0.509331
O O14 0.115828 0.544549 0.250000
O O15 0.092427 0.500000 0.000000
O O16 0.885888 0.107239 0.250000
O O17 0.938217 0.079552 0.506826
O O18 0.000000 0.048658 0.750000
O O19 0.000000 0.000000 0.500000
#
# Coordination Sequence:
#
# PCOD9474060 Si02
#       7
#    16  16  16  16  16  16   8
#     4  10  21  38  61  89 118 150 190 239 292 350
#     4  10  21  37  56  79 111 153 195 234 283 341
#     4   9  18  31  51  78 108 142 181 230 283 334
#     4  10  21  38  62  90 118 148 186 237 297 355
#     4   9  18  33  52  78 111 146 186 232 281 332
#     4  11  22  38  60  87 116 152 197 244 296 353
#     4  12  26  44  62  84 120 164 208 252 301 362
#
# _framework density 19.380074
#
# number of rings (size 3 to 8) (size 9 to 14) (size 15 to 20)
#    0.000    2.000    0.000    3.462    0.000    6.769 
#    1.385    3.077    0.000    0.000    0.000    0.000 
#    0.000    0.000    0.000    0.000    0.000    0.000 
#
# Total GULP energy -290350.179964 kJ/mol
# GULP energy per Si atom -5583.657307 kJ/mol
# Density = 1.933596 g / cm^3
# Si number density = 19.380074 Si / 1000 Ang^3
#
#
#
# Elastic Constant Matrix: (Units=GPa)
#
#
# Indices 1 2 3 4 5 6 
#
# 1 56.4634 53.3341 25.5150 0.0000 0.0000 0.0000
# 2 53.3341 115.9254 31.1290 0.0000 0.0000 0.0000
# 3 25.5150 31.1290 44.7885 0.0000 0.0000 0.0000
# 4 0.0000 0.0000 0.0000 36.3457 0.0000 0.0000
# 5 0.0000 0.0000 0.0000 0.0000 3.2347 0.0000
# 6 0.0000 0.0000 0.0000 0.0000 0.0000 20.1519
#
#
#
# Elastic Compliance Matrix: (Units=1/GPa)
#
#
# Indices 1 2 3 4 5 6 
#
# 1 0.035104 -0.013254 -0.010786 0.000000 0.000000 0.000000
# 2 -0.013254 0.015610 -0.003299 0.000000 0.000000 0.000000
# 3 -0.010786 -0.003299 0.030764 0.000000 0.000000 0.000000
# 4 0.000000 0.000000 0.000000 0.027514 0.000000 0.000000
# 5 0.000000 0.000000 0.000000 0.000000 0.309150 0.000000
# 6 0.000000 0.000000 0.000000 0.000000 0.000000 0.049623
#
#
# Mechanical properties :
#
#
# Convention : Reuss Voigt Hill
#
# Bulk Modulus (GPa) = 37.31250 48.57039 42.94145
# Shear Modulus (GPa) = 9.40952 19.09307 14.25130
#
# Velocity S-wave (km/s) = 2.20586 3.14218 2.71469
# Velocity P-wave (km/s) = 5.07765 6.18715 5.65965
#
# Compressibility (1/GPa) = 0.02680067
#
# Stress axis : x y z
#
# Youngs Moduli (GPa) = 28.48660 64.06202 32.50508
#
# Poissons Ratio (x) = 0.84909 0.35060
# Poissons Ratio (y) = 0.37756 0.10722
# Poissons Ratio (z) = 0.30726 0.21132
#
# Static dielectric constant tensor:
#      x y z
#    x 1.679400 0.000000 0.000000 
#    y 0.000000 1.657110 0.000000 
#    z 0.000000 0.000000 1.658310 
# 
# From -- ./inp_files/8769.got.cif
#   From: 2010.05.17/outbox.cif.g08.bks.cpg/sg63_5_cif.got.tgz:8769.got - 2010.06.03 15:47:04.
