data_PCOD9475557
_publ_section_title
;
Structure prediction by ZEFSAII (Michael W. Deem and Ramdas Pophale) SiO2 
 PCOD9475557
Probable space group: C M C M
;
_chemical_formula_sum "Si O2"
_cell_formula_units_Z 96
_cell_length_a 15.320475
_cell_length_b 17.370579
_cell_length_c 19.644597
_cell_angle_alpha 90.000000
_cell_angle_beta 90.000000
_cell_angle_gamma 90.000000
_cell_volume 5227.928617
_symmetry_space_group_name_H-M "C M C M"
_symmetry_group_IT_number 63
_symmetry_cell_setting 'orthorhombic'
loop_
_space_group_symop_operation_xyz
x,y,z
-x,-y,1/2+z
x,-y,-z
-x,y,1/2-z
-x,-y,-z
x,y,1/2-z
-x,y,z
x,-y,1/2+z
1/2+x,1/2+y,z
1/2-x,1/2-y,1/2+z
1/2+x,1/2-y,-z
1/2-x,1/2+y,1/2-z
1/2-x,1/2-y,-z
1/2+x,1/2+y,1/2-z
1/2-x,1/2+y,z
1/2+x,1/2-y,1/2+z
loop_
_atom_site_type_symbol
_atom_site_label
_atom_site_fract_x
_atom_site_fract_y
_atom_site_fract_z
Si Si1 0.745663 0.268362 0.327167
Si Si2 0.798644 0.455578 0.931627
Si Si3 0.500000 0.630607 0.017284
Si Si4 0.186300 0.942681 0.329114
Si Si5 0.400728 0.862339 0.826661
Si Si6 0.500000 0.483267 0.387967
Si Si7 0.314344 0.696747 0.044424
O O1 0.779921 0.266938 0.250000
O O2 0.707347 0.352790 0.340786
O O3 0.665684 0.208471 0.331552
O O4 0.814466 0.238226 0.382112
O O5 0.746091 0.510732 0.880998
O O6 0.876345 0.420089 0.886929
O O7 0.733028 0.385976 0.950557
O O8 0.824404 0.500000 0.000000
O O9 0.500000 0.569838 0.080769
O O10 0.411913 0.681220 0.018466
O O11 0.500000 0.575872 0.951375
O O12 0.205101 0.960169 0.250000
O O13 0.086978 0.965469 0.345640
O O14 0.389770 0.895895 0.750000
O O15 0.500000 0.835910 0.832679
O O16 0.250000 0.750000 0.000000
#
# Coordination Sequence:
#
# PCOD9475557 Si02
#       7
#    16  16   8  16  16   8  16
#     4   9  20  37  59  84 116 154 197 246 293 352
#     4  11  21  36  59  84 116 152 194 247 298 360
#     4  11  22  38  62  88 123 160 192 244 307 359
#     4  11  22  37  61  89 119 157 197 242 301 363
#     4   9  19  36  56  80 113 151 195 246 300 351
#     4  11  21  36  56  92 126 148 188 246 306 366
#     4  11  22  40  59  86 118 159 198 238 300 358
#
# _framework density 18.362912000000001
#
# number of rings (size 3 to 8) (size 9 to 14) (size 15 to 20)
#    0.000    1.667    1.667    3.750    1.167    1.000 
#    6.000    0.417    5.500    0.000    0.000    0.000 
#    0.000    0.000    0.000    0.000    0.000    0.000 
#
# Total GULP energy -267968.917294 kJ/mol
# GULP energy per Si atom -5582.685777 kJ/mol
# Density = 1.832112 g / cm^3
# Si number density = 18.362912 Si / 1000 Ang^3
#
#
#
# Elastic Constant Matrix: (Units=GPa)
#
#
# Indices 1 2 3 4 5 6 
#
# 1 73.1067 16.8582 24.9783 0.0000 0.0000 0.0000
# 2 16.8582 81.9933 55.6907 0.0000 0.0000 0.0000
# 3 24.9783 55.6907 97.3470 0.0000 0.0000 0.0000
# 4 0.0000 0.0000 0.0000 37.4180 0.0000 0.0000
# 5 0.0000 0.0000 0.0000 0.0000 16.1035 0.0000
# 6 0.0000 0.0000 0.0000 0.0000 0.0000 12.3950
#
#
#
# Elastic Compliance Matrix: (Units=1/GPa)
#
#
# Indices 1 2 3 4 5 6 
#
# 1 0.015023 -0.000770 -0.003414 0.000000 0.000000 0.000000
# 2 -0.000770 0.019986 -0.011236 0.000000 0.000000 0.000000
# 3 -0.003414 -0.011236 0.017577 0.000000 0.000000 0.000000
# 4 0.000000 0.000000 0.000000 0.026725 0.000000 0.000000
# 5 0.000000 0.000000 0.000000 0.000000 0.062098 0.000000
# 6 0.000000 0.000000 0.000000 0.000000 0.000000 0.080678
#
#
# Mechanical properties :
#
#
# Convention : Reuss Voigt Hill
#
# Bulk Modulus (GPa) = 45.98764 49.72236 47.85500
# Shear Modulus (GPa) = 19.21779 23.51129 21.36454
#
# Velocity S-wave (km/s) = 3.23856 3.58211 3.41466
# Velocity P-wave (km/s) = 6.25160 6.65169 6.45475
#
# Compressibility (1/GPa) = 0.02174497
#
# Stress axis : x y z
#
# Youngs Moduli (GPa) = 66.56591 50.03469 56.89352
#
# Poissons Ratio (x) = 0.03851 0.19426
# Poissons Ratio (y) = 0.05123 0.63927
# Poissons Ratio (z) = 0.22728 0.56220
#
# Static dielectric constant tensor:
#      x y z
#    x 1.594640 0.000000 0.000000 
#    y 0.000000 1.623880 0.000000 
#    z 0.000000 0.000000 1.668160 
# 
# From -- ./inp_files/54254.got.cif
#   From: 2010.05.17/outbox.cif.g08.bks.cpg/sg63_28_cif.got.tgz:54254.got - 2010.06.03 15:47:04.
