data_PCOD9475769
_publ_section_title
;
Structure prediction by ZEFSAII (Michael W. Deem and Ramdas Pophale) SiO2 
 PCOD9475769
Probable space group: C M C M
;
_chemical_formula_sum "Si O2"
_cell_formula_units_Z 64
_cell_length_a 10.219653
_cell_length_b 28.314747
_cell_length_c 11.624282
_cell_angle_alpha 90.000000
_cell_angle_beta 90.000000
_cell_angle_gamma 90.000000
_cell_volume 3363.682321
_symmetry_space_group_name_H-M "C M C M"
_symmetry_group_IT_number 63
_symmetry_cell_setting 'orthorhombic'
loop_
_space_group_symop_operation_xyz
x,y,z
-x,-y,1/2+z
x,-y,-z
-x,y,1/2-z
-x,-y,-z
x,y,1/2-z
-x,y,z
x,-y,1/2+z
1/2+x,1/2+y,z
1/2-x,1/2-y,1/2+z
1/2+x,1/2-y,-z
1/2-x,1/2+y,1/2-z
1/2-x,1/2-y,-z
1/2+x,1/2+y,1/2-z
1/2-x,1/2+y,z
1/2+x,1/2-y,1/2+z
loop_
_atom_site_type_symbol
_atom_site_label
_atom_site_fract_x
_atom_site_fract_y
_atom_site_fract_z
Si Si1 0.705572 0.595138 0.750000
Si Si2 0.500000 0.677756 0.750000
Si Si3 0.000000 0.794615 0.991180
Si Si4 0.500000 0.184695 0.514923
Si Si5 0.152380 0.053551 0.997454
Si Si6 0.000000 0.626223 0.750000
Si Si7 0.756413 0.852527 0.612295
O O1 0.630251 0.645219 0.750000
O O2 0.659788 0.569909 0.865607
O O3 0.862465 0.598632 0.750000
O O4 0.500000 0.705015 0.630086
O O5 0.124196 0.822978 0.942629
O O6 0.000000 0.740114 0.957109
O O7 0.500000 0.157052 0.634808
O O8 0.626042 0.169396 0.441759
O O9 0.000000 0.053332 0.035117
O O10 0.226540 0.093070 0.071735
O O11 0.202988 0.000000 0.000000
O O12 0.758291 0.849349 0.750000
#
# Coordination Sequence:
#
# PCOD9475769 Si02
#       7
#     8   4   8   8  16   4  16
#     4  12  20  44  64  98 129 169 219 279 316 386
#     4  12  20  42  72  90 132 168 224 286 314 372
#     4  12  25  44  69  98 127 176 227 271 324 380
#     4  12  27  46  65  98 131 182 217 265 332 388
#     4  11  23  41  70 101 127 170 218 272 332 384
#     4  12  24  42  72  86 134 174 226 264 322 388
#     4  12  25  45  65  98 139 170 215 274 328 391
#
# _framework density 19.026765999999999
#
# number of rings (size 3 to 8) (size 9 to 14) (size 15 to 20)
#    0.000    0.250    7.500    1.500    5.250    0.000 
#    0.000    2.500    0.000    0.000    0.000    0.000 
#    0.000    0.000    0.000    0.000    0.000    0.000 
#
# Total GULP energy -178924.804147 kJ/mol
# GULP energy per Si atom -5591.400130 kJ/mol
# Density = 1.898346 g / cm^3
# Si number density = 19.026766 Si / 1000 Ang^3
#
#
#
# Elastic Constant Matrix: (Units=GPa)
#
#
# Indices 1 2 3 4 5 6 
#
# 1 136.7139 35.9125 15.1992 0.0000 0.0000 0.0000
# 2 35.9125 111.0513 12.8310 0.0000 0.0000 0.0000
# 3 15.1992 12.8310 133.8688 0.0000 0.0000 0.0000
# 4 0.0000 0.0000 0.0000 1.1397 0.0000 0.0000
# 5 0.0000 0.0000 0.0000 0.0000 13.0424 0.0000
# 6 0.0000 0.0000 0.0000 0.0000 0.0000 -5.0598
#
#
#
# Elastic Compliance Matrix: (Units=1/GPa)
#
#
# Indices 1 2 3 4 5 6 
#
# 1 0.008053 -0.002527 -0.000672 0.000000 0.000000 0.000000
# 2 -0.002527 0.009898 -0.000662 0.000000 0.000000 0.000000
# 3 -0.000672 -0.000662 0.007610 0.000000 0.000000 0.000000
# 4 0.000000 0.000000 0.000000 0.877424 0.000000 0.000000
# 5 0.000000 0.000000 0.000000 0.000000 0.076673 0.000000
# 6 0.000000 0.000000 0.000000 0.000000 0.000000 -0.197635
#
#
# Mechanical properties :
#
#
# Convention : Reuss Voigt Hill
#
# Bulk Modulus (GPa) = 56.05407 56.61327 56.33367
# Shear Modulus (GPa) = 6.28385 23.00388 14.64386
#
# Velocity S-wave (km/s) = 1.81929 3.48088 2.77726
# Velocity P-wave (km/s) = 5.82560 6.78045 6.32108
#
# Compressibility (1/GPa) = 0.01783992
#
# Stress axis : x y z
#
# Youngs Moduli (GPa) = 124.17803 101.02665 131.41033
#
# Poissons Ratio (x) = 0.25525 0.08833
# Poissons Ratio (y) = 0.31374 0.08698
# Poissons Ratio (z) = 0.08347 0.06687
#
# Static dielectric constant tensor:
#      x y z
#    x 1.662680 0.000000 0.000000 
#    y 0.000000 1.651880 0.000000 
#    z 0.000000 0.000000 1.577060 
# 
# From -- ./inp_files/16339.got.cif
#   From: 2010.05.17/outbox.cif.g08.bks.cpg/sg63_9_cif.got.tgz:16339.got - 2010.06.03 15:47:04.
