data_PCOD9475478
_publ_section_title
;
Structure prediction by ZEFSAII (Michael W. Deem and Ramdas Pophale) SiO2 
 PCOD9475478
Probable space group: C M C M
;
_chemical_formula_sum "Si O2"
_cell_formula_units_Z 72
_cell_length_a 15.547650
_cell_length_b 7.613471
_cell_length_c 22.957842
_cell_angle_alpha 90.000000
_cell_angle_beta 90.000000
_cell_angle_gamma 90.000000
_cell_volume 2717.556086
_symmetry_space_group_name_H-M "C M C M"
_symmetry_group_IT_number 63
_symmetry_cell_setting 'orthorhombic'
loop_
_space_group_symop_operation_xyz
x,y,z
-x,-y,1/2+z
x,-y,-z
-x,y,1/2-z
-x,-y,-z
x,y,1/2-z
-x,y,z
x,-y,1/2+z
1/2+x,1/2+y,z
1/2-x,1/2-y,1/2+z
1/2+x,1/2-y,-z
1/2-x,1/2+y,1/2-z
1/2-x,1/2-y,-z
1/2+x,1/2+y,1/2-z
1/2-x,1/2+y,z
1/2+x,1/2-y,1/2+z
loop_
_atom_site_type_symbol
_atom_site_label
_atom_site_fract_x
_atom_site_fract_y
_atom_site_fract_z
Si Si1 0.318630 0.118103 0.250000
Si Si2 0.155569 0.103128 0.572038
Si Si3 0.839102 0.512712 0.123375
Si Si4 0.402291 0.810484 0.473098
Si Si5 0.124566 0.025733 0.250000
Si Si6 0.000000 0.061376 0.138536
O O1 0.344717 0.014968 0.192259
O O2 0.215529 0.124066 0.250000
O O3 0.356337 0.314711 0.250000
O O4 0.137378 0.289917 0.604561
O O5 0.244045 0.031235 0.598848
O O6 0.157713 0.170176 0.504762
O O7 0.075448 0.983060 0.588954
O O8 0.898450 0.364347 0.094521
O O9 0.500000 0.780254 0.491921
O O10 0.375815 0.000000 0.500000
O O11 0.073871 0.066202 0.309155
#
# Coordination Sequence:
#
# PCOD9475478 Si02
#       6
#     8  16  16  16   8   8
#     4  12  20  38  54  90 116 156 186 238 276 350
#     4  11  21  39  63  85 116 146 199 236 292 333
#     4  11  22  35  58  87 116 153 189 239 286 346
#     4   9  19  34  58  86 112 146 195 243 281 336
#     4  11  24  36  64  83 122 150 197 232 288 336
#     4  11  20  38  61  90 107 158 196 238 270 353
#
# _framework density 26.494394
#
# number of rings (size 3 to 8) (size 9 to 14) (size 15 to 20)
#    0.000    1.333    5.556    0.667    1.556    0.000 
#    0.000    0.000    2.444    6.667    0.000    0.000 
#    0.000    0.000    0.000    0.000    0.000    0.000 
#
# Total GULP energy -200885.607572 kJ/mol
# GULP energy per Si atom -5580.155766 kJ/mol
# Density = 2.643409 g / cm^3
# Si number density = 26.494394 Si / 1000 Ang^3
#
#
#
# Elastic Constant Matrix: (Units=GPa)
#
#
# Indices 1 2 3 4 5 6 
#
# 1 55.9855 -4.7554 -5.9854 0.0000 0.0000 0.0000
# 2 -4.7554 126.3626 -17.2883 0.0000 0.0000 0.0000
# 3 -5.9854 -17.2883 161.8934 0.0000 0.0000 0.0000
# 4 0.0000 0.0000 0.0000 30.4397 0.0000 0.0000
# 5 0.0000 0.0000 0.0000 0.0000 66.6153 0.0000
# 6 0.0000 0.0000 0.0000 0.0000 0.0000 -12.7409
#
#
#
# Elastic Compliance Matrix: (Units=1/GPa)
#
#
# Indices 1 2 3 4 5 6 
#
# 1 0.018008 0.000780 0.000749 0.000000 0.000000 0.000000
# 2 0.000780 0.008065 0.000890 0.000000 0.000000 0.000000
# 3 0.000749 0.000890 0.006300 0.000000 0.000000 0.000000
# 4 0.000000 0.000000 0.000000 0.032852 0.000000 0.000000
# 5 0.000000 0.000000 0.000000 0.000000 0.015012 0.000000
# 6 0.000000 0.000000 0.000000 0.000000 0.000000 -0.078487
#
#
# Mechanical properties :
#
#
# Convention : Reuss Voigt Hill
#
# Bulk Modulus (GPa) = 26.87350 32.02036 29.44693
# Shear Modulus (GPa) = 536.84978 41.68087 289.26533
#
# Velocity S-wave (km/s) = 14.25018 3.97066 10.46025
# Velocity P-wave (km/s) = 16.76072 5.75616 12.53107
#
# Compressibility (1/GPa) = 0.03721138
#
# Stress axis : x y z
#
# Youngs Moduli (GPa) = 55.53047 123.99450 158.73901
#
# Poissons Ratio (x) = -0.09674 -0.11891
# Poissons Ratio (y) = -0.04332 -0.14129
# Poissons Ratio (z) = -0.04160 -0.11036
#
# Static dielectric constant tensor:
#      x y z
#    x 1.969200 0.000000 0.000000 
#    y 0.000000 2.218740 0.000000 
#    z 0.000000 0.000000 2.167630 
# 
# From -- ./inp_files/68011.got.cif
#   From: 2010.05.17/outbox.cif.g08.bks.cpg/sg63_35_cif.got.tgz:68011.got - 2010.06.03 15:47:04.
