data_PCOD9475296
_publ_section_title
;
Structure prediction by ZEFSAII (Michael W. Deem and Ramdas Pophale) SiO2 
 PCOD9475296
Probable space group: C M C M
;
_chemical_formula_sum "Si O2"
_cell_formula_units_Z 60
_cell_length_a 26.705843
_cell_length_b 5.050787
_cell_length_c 17.993475
_cell_angle_alpha 90.000000
_cell_angle_beta 90.000000
_cell_angle_gamma 90.000000
_cell_volume 2427.059316
_symmetry_space_group_name_H-M "C M C M"
_symmetry_group_IT_number 63
_symmetry_cell_setting 'orthorhombic'
loop_
_space_group_symop_operation_xyz
x,y,z
-x,-y,1/2+z
x,-y,-z
-x,y,1/2-z
-x,-y,-z
x,y,1/2-z
-x,y,z
x,-y,1/2+z
1/2+x,1/2+y,z
1/2-x,1/2-y,1/2+z
1/2+x,1/2-y,-z
1/2-x,1/2+y,1/2-z
1/2-x,1/2-y,-z
1/2+x,1/2+y,1/2-z
1/2-x,1/2+y,z
1/2+x,1/2-y,1/2+z
loop_
_atom_site_type_symbol
_atom_site_label
_atom_site_fract_x
_atom_site_fract_y
_atom_site_fract_z
Si Si1 0.285162 0.392110 0.750000
Si Si2 0.446919 0.186552 0.132700
Si Si3 0.000000 0.991381 0.250000
Si Si4 0.645336 0.832311 0.123038
Si Si5 0.285154 0.000000 0.500000
Si Si6 0.087666 0.000000 0.500000
O O1 0.260999 0.682518 0.750000
O O2 0.320697 0.326894 0.680240
O O3 0.500000 0.033729 0.145579
O O4 0.456629 0.439270 0.185179
O O5 0.399348 0.013899 0.154506
O O6 0.442268 0.284285 0.048150
O O7 0.620747 0.641392 0.062011
O O8 0.681281 0.015011 0.073431
O O9 0.250000 0.750000 0.500000
#
# Coordination Sequence:
#
# PCOD9475296 Si02
#       6
#     8  16   4  16   8   8
#     4  12  31  53  81 116 157 212 266 333 393 470
#     4  10  23  45  72 111 151 201 254 321 392 475
#     4   8  22  44  68  98 154 196 246 308 388 468
#     4  12  26  47  77 110 154 200 261 325 394 469
#     4  12  25  44  74 110 149 195 250 317 384 452
#     4  12  24  42  75 114 150 199 262 321 391 472
#
# _framework density 24.721273
#
# number of rings (size 3 to 8) (size 9 to 14) (size 15 to 20)
#    0.800    0.000    2.667    3.600    3.733    4.267 
#    0.000    1.333    0.000    0.000    0.000    0.000 
#    0.000    0.000    0.000    0.000    0.000    0.000 
#
# Total GULP energy -167424.479691 kJ/mol
# GULP energy per Si atom -5580.815990 kJ/mol
# Density = 2.466501 g / cm^3
# Si number density = 24.721273 Si / 1000 Ang^3
#
#
#
# Elastic Constant Matrix: (Units=GPa)
#
#
# Indices 1 2 3 4 5 6 
#
# 1 124.4359 14.4722 13.2302 0.0000 0.0000 0.0000
# 2 14.4722 63.5062 -17.2197 0.0000 0.0000 0.0000
# 3 13.2302 -17.2197 115.1412 0.0000 0.0000 0.0000
# 4 0.0000 0.0000 0.0000 -18.6244 0.0000 0.0000
# 5 0.0000 0.0000 0.0000 0.0000 101.3221 0.0000
# 6 0.0000 0.0000 0.0000 0.0000 0.0000 23.2695
#
#
#
# Elastic Compliance Matrix: (Units=1/GPa)
#
#
# Indices 1 2 3 4 5 6 
#
# 1 0.008441 -0.002279 -0.001311 0.000000 0.000000 0.000000
# 2 -0.002279 0.017027 0.002808 0.000000 0.000000 0.000000
# 3 -0.001311 0.002808 0.009256 0.000000 0.000000 0.000000
# 4 0.000000 0.000000 0.000000 -0.053693 0.000000 0.000000
# 5 0.000000 0.000000 0.000000 0.000000 0.009870 0.000000
# 6 0.000000 0.000000 0.000000 0.000000 0.000000 0.042975
#
#
# Mechanical properties :
#
#
# Convention : Reuss Voigt Hill
#
# Bulk Modulus (GPa) = 30.15586 36.00541 33.08063
# Shear Modulus (GPa) = 107.54779 40.70015 74.12397
#
# Velocity S-wave (km/s) = 6.60292 4.06194 5.48169
# Velocity P-wave (km/s) = 8.38787 6.04941 7.31271
#
# Compressibility (1/GPa) = 0.03316105
#
# Stress axis : x y z
#
# Youngs Moduli (GPa) = 118.47410 58.72919 108.04290
#
# Poissons Ratio (x) = 0.13384 0.14161
# Poissons Ratio (y) = 0.26999 -0.30342
# Poissons Ratio (z) = 0.15528 -0.16493
#
# Static dielectric constant tensor:
#      x y z
#    x 1.985340 0.000000 0.000000 
#    y 0.000000 2.027210 0.000000 
#    z 0.000000 0.000000 1.937260 
# 
# From -- ./inp_files/48643.got.cif
#   From: 2010.05.17/outbox.cif.g08.bks.cpg/sg63_25_cif.got.tgz:48643.got - 2010.06.03 15:47:04.
