data_PCOD9475923
_publ_section_title
;
Structure prediction by ZEFSAII (Michael W. Deem and Ramdas Pophale) SiO2 
 PCOD9475923
Probable space group: C M C M
;
_chemical_formula_sum "Si O2"
_cell_formula_units_Z 80
_cell_length_a 24.409819
_cell_length_b 11.433514
_cell_length_c 14.189212
_cell_angle_alpha 90.000000
_cell_angle_beta 90.000000
_cell_angle_gamma 90.000000
_cell_volume 3960.067280
_symmetry_space_group_name_H-M "C M C M"
_symmetry_group_IT_number 63
_symmetry_cell_setting 'orthorhombic'
loop_
_space_group_symop_operation_xyz
x,y,z
-x,-y,1/2+z
x,-y,-z
-x,y,1/2-z
-x,-y,-z
x,y,1/2-z
-x,y,z
x,-y,1/2+z
1/2+x,1/2+y,z
1/2-x,1/2-y,1/2+z
1/2+x,1/2-y,-z
1/2-x,1/2+y,1/2-z
1/2-x,1/2-y,-z
1/2+x,1/2+y,1/2-z
1/2-x,1/2+y,z
1/2+x,1/2-y,1/2+z
loop_
_atom_site_type_symbol
_atom_site_label
_atom_site_fract_x
_atom_site_fract_y
_atom_site_fract_z
Si Si1 0.739001 0.510732 0.142090
Si Si2 0.062448 0.947200 0.635230
Si Si3 0.654450 0.273639 0.643380
Si Si4 0.341170 0.114837 0.471227
Si Si5 0.143223 0.845711 0.364027
O O1 0.755582 0.484487 0.250000
O O2 0.695852 0.617635 0.145718
O O3 0.789497 0.560508 0.083899
O O4 0.701989 0.401988 0.105867
O O5 0.062569 0.950359 0.750000
O O6 0.097053 0.831563 0.611512
O O7 0.000000 0.946019 0.603213
O O8 0.096476 0.062196 0.605857
O O9 0.649611 0.228020 0.750000
O O10 0.673545 0.179653 0.568447
O O11 0.364705 0.217811 0.406415
O O12 0.375902 0.000000 0.500000
O O13 0.144250 0.841642 0.250000
#
# Coordination Sequence:
#
# PCOD9475923 Si02
#       5
#    16  16  16  16  16
#     4   9  20  36  55  78 106 142 185 236 284 322
#     4   8  15  34  66  92 107 134 180 238 300 340
#     4   9  20  37  54  80 114 141 179 237 284 328
#     4  12  25  34  52  77 112 158 196 216 263 338
#     4   9  20  38  57  83 115 140 181 242 287 329
#
# _framework density 20.201677
#
# number of rings (size 3 to 8) (size 9 to 14) (size 15 to 20)
#    0.000    2.600    0.000    3.600    5.600    4.000 
#    0.000    2.000    0.000    2.400    0.000    5.600 
#    0.000    0.000    0.000    0.000    0.000    0.000 
#
# Total GULP energy -223329.319022 kJ/mol
# GULP energy per Si atom -5583.232976 kJ/mol
# Density = 2.015570 g / cm^3
# Si number density = 20.201677 Si / 1000 Ang^3
#
#
#
# Elastic Constant Matrix: (Units=GPa)
#
#
# Indices 1 2 3 4 5 6 
#
# 1 102.5894 39.8682 23.8473 0.0000 0.0000 0.0000
# 2 39.8682 120.6783 27.4505 0.0000 0.0000 0.0000
# 3 23.8473 27.4505 77.4117 0.0000 0.0000 0.0000
# 4 0.0000 0.0000 0.0000 17.6682 0.0000 0.0000
# 5 0.0000 0.0000 0.0000 0.0000 -7.4900 0.0000
# 6 0.0000 0.0000 0.0000 0.0000 0.0000 11.6896
#
#
#
# Elastic Compliance Matrix: (Units=1/GPa)
#
#
# Indices 1 2 3 4 5 6 
#
# 1 0.011581 -0.003279 -0.002405 0.000000 0.000000 0.000000
# 2 -0.003279 0.009942 -0.002515 0.000000 0.000000 0.000000
# 3 -0.002405 -0.002515 0.014551 0.000000 0.000000 0.000000
# 4 0.000000 0.000000 0.000000 0.056599 0.000000 0.000000
# 5 0.000000 0.000000 0.000000 0.000000 -0.133512 0.000000
# 6 0.000000 0.000000 0.000000 0.000000 0.000000 0.085546
#
#
# Mechanical properties :
#
#
# Convention : Reuss Voigt Hill
#
# Bulk Modulus (GPa) = 50.82525 53.66794 52.24659
# Shear Modulus (GPa) = 73.89553 18.34113 46.11833
#
# Velocity S-wave (km/s) = 6.05461 3.01641 4.78315
# Velocity P-wave (km/s) = 8.60763 6.22538 7.51155
#
# Compressibility (1/GPa) = 0.01967526
#
# Stress axis : x y z
#
# Youngs Moduli (GPa) = 86.34940 100.58435 68.72502
#
# Poissons Ratio (x) = 0.32981 0.16527
# Poissons Ratio (y) = 0.28313 0.17287
# Poissons Ratio (z) = 0.20766 0.25300
#
# Static dielectric constant tensor:
#      x y z
#    x 1.726770 0.000000 0.000000 
#    y 0.000000 1.717940 0.000000 
#    z 0.000000 0.000000 1.797300 
# 
# From -- ./inp_files/36443.got.cif
#   From: 2010.05.17/outbox.cif.g08.bks.cpg/sg63_19_cif.got.tgz:36443.got - 2010.06.03 15:47:04.
