data_PCOD9475042
_publ_section_title
;
Structure prediction by ZEFSAII (Michael W. Deem and Ramdas Pophale) SiO2 
 PCOD9475042
Probable space group: C M C M
;
_chemical_formula_sum "Si O2"
_cell_formula_units_Z 56
_cell_length_a 17.697811
_cell_length_b 15.286130
_cell_length_c 10.330024
_cell_angle_alpha 90.000000
_cell_angle_beta 90.000000
_cell_angle_gamma 90.000000
_cell_volume 2794.592132
_symmetry_space_group_name_H-M "C M C M"
_symmetry_group_IT_number 63
_symmetry_cell_setting 'orthorhombic'
loop_
_space_group_symop_operation_xyz
x,y,z
-x,-y,1/2+z
x,-y,-z
-x,y,1/2-z
-x,-y,-z
x,y,1/2-z
-x,y,z
x,-y,1/2+z
1/2+x,1/2+y,z
1/2-x,1/2-y,1/2+z
1/2+x,1/2-y,-z
1/2-x,1/2+y,1/2-z
1/2-x,1/2-y,-z
1/2+x,1/2+y,1/2-z
1/2-x,1/2+y,z
1/2+x,1/2-y,1/2+z
loop_
_atom_site_type_symbol
_atom_site_label
_atom_site_fract_x
_atom_site_fract_y
_atom_site_fract_z
Si Si1 0.304452 0.837889 0.250000
Si Si2 0.414038 0.766816 0.469162
Si Si3 0.756290 0.539569 0.250000
Si Si4 0.110650 0.067536 0.107530
Si Si5 0.843858 0.287466 0.750000
O O1 0.355516 0.816957 0.375944
O O2 0.278728 0.938601 0.250000
O O3 0.231903 0.772971 0.250000
O O4 0.500000 0.798836 0.453173
O O5 0.410624 0.665782 0.425215
O O6 0.388948 0.769543 0.618321
O O7 0.701379 0.560965 0.128412
O O8 0.821648 0.610396 0.250000
O O9 0.082092 0.043309 0.250000
O O10 0.086607 0.000000 0.000000
#
# Coordination Sequence:
#
# PCOD9475042 Si02
#       5
#     8  16   8  16   8
#     4  12  23  44  77  98 134 182 236 280 339 401
#     4  12  26  46  67 100 145 187 219 276 354 411
#     4  10  24  39  70 103 133 168 239 285 331 382
#     4  10  22  41  66 101 132 170 227 284 343 394
#     4  12  25  43  69 105 135 178 239 287 326 395
#
# _framework density 20.038703000000002
#
# number of rings (size 3 to 8) (size 9 to 14) (size 15 to 20)
#    0.857    0.000    4.286    3.429    6.000    0.571 
#    0.000    4.286    0.000    0.000    0.000    0.000 
#    0.000    0.000    0.000    0.000    0.000    0.000 
#
# Total GULP energy -156433.229356 kJ/mol
# GULP energy per Si atom -5586.901048 kJ/mol
# Density = 1.999309 g / cm^3
# Si number density = 20.038703 Si / 1000 Ang^3
#
#
#
# Elastic Constant Matrix: (Units=GPa)
#
#
# Indices 1 2 3 4 5 6 
#
# 1 83.5610 17.1193 12.4902 0.0000 0.0000 0.0000
# 2 17.1193 92.1777 10.2856 0.0000 0.0000 0.0000
# 3 12.4902 10.2856 129.1129 0.0000 0.0000 0.0000
# 4 0.0000 0.0000 0.0000 28.9743 0.0000 0.0000
# 5 0.0000 0.0000 0.0000 0.0000 55.9276 0.0000
# 6 0.0000 0.0000 0.0000 0.0000 0.0000 101.8196
#
#
#
# Elastic Compliance Matrix: (Units=1/GPa)
#
#
# Indices 1 2 3 4 5 6 
#
# 1 0.012578 -0.002220 -0.001040 0.000000 0.000000 0.000000
# 2 -0.002220 0.011338 -0.000688 0.000000 0.000000 0.000000
# 3 -0.001040 -0.000688 0.007901 0.000000 0.000000 0.000000
# 4 0.000000 0.000000 0.000000 0.034513 0.000000 0.000000
# 5 0.000000 0.000000 0.000000 0.000000 0.017880 0.000000
# 6 0.000000 0.000000 0.000000 0.000000 0.000000 0.009821
#
#
# Mechanical properties :
#
#
# Convention : Reuss Voigt Hill
#
# Bulk Modulus (GPa) = 41.80704 42.73796 42.27250
# Shear Modulus (GPa) = 45.49577 55.00807 50.25192
#
# Velocity S-wave (km/s) = 4.77004 5.24505 5.01317
# Velocity P-wave (km/s) = 7.15864 7.61936 7.39259
#
# Compressibility (1/GPa) = 0.02391942
#
# Stress axis : x y z
#
# Youngs Moduli (GPa) = 79.50682 88.20125 126.57262
#
# Poissons Ratio (x) = 0.19580 0.13162
# Poissons Ratio (y) = 0.17650 0.08714
# Poissons Ratio (z) = 0.08268 0.06072
#
# Static dielectric constant tensor:
#      x y z
#    x 1.773410 0.000000 0.000000 
#    y 0.000000 1.645170 0.000000 
#    z 0.000000 0.000000 1.734140 
# 
# From -- ./inp_files/7354.got.cif
#   From: 2010.05.17/outbox.cif.g08.bks.cpg/sg63_4_cif.got.tgz:7354.got - 2010.06.03 15:47:04.
