data_PCOD9475774
_publ_section_title
;
Structure prediction by ZEFSAII (Michael W. Deem and Ramdas Pophale) SiO2 
 PCOD9475774
Probable space group: C M C M
;
_chemical_formula_sum "Si O2"
_cell_formula_units_Z 52
_cell_length_a 7.704996
_cell_length_b 14.727557
_cell_length_c 18.076838
_cell_angle_alpha 90.000000
_cell_angle_beta 90.000000
_cell_angle_gamma 90.000000
_cell_volume 2051.283071
_symmetry_space_group_name_H-M "C M C M"
_symmetry_group_IT_number 63
_symmetry_cell_setting 'orthorhombic'
loop_
_space_group_symop_operation_xyz
x,y,z
-x,-y,1/2+z
x,-y,-z
-x,y,1/2-z
-x,-y,-z
x,y,1/2-z
-x,y,z
x,-y,1/2+z
1/2+x,1/2+y,z
1/2-x,1/2-y,1/2+z
1/2+x,1/2-y,-z
1/2-x,1/2+y,1/2-z
1/2-x,1/2-y,-z
1/2+x,1/2+y,1/2-z
1/2-x,1/2+y,z
1/2+x,1/2-y,1/2+z
loop_
_atom_site_type_symbol
_atom_site_label
_atom_site_fract_x
_atom_site_fract_y
_atom_site_fract_z
Si Si1 0.307272 0.757190 0.630509
Si Si2 0.000000 0.212041 0.250000
Si Si3 0.291059 0.934920 0.336167
Si Si4 0.701345 0.578209 0.447202
O O1 0.500000 0.770959 0.661480
O O2 0.152114 0.781181 0.685949
O O3 0.282912 0.649710 0.617740
O O4 0.290141 0.825147 0.561515
O O5 0.243956 0.921831 0.250000
O O6 0.500000 0.934783 0.340113
O O7 0.218558 0.028333 0.367512
O O8 0.778660 0.500000 0.500000
O O9 0.500000 0.590633 0.465946
#
# Coordination Sequence:
#
# PCOD9475774 Si02
#       4
#    16   4  16  16
#     4  12  24  43  71 100 138 177 221 278 342 397
#     4  12  22  44  66 106 138 174 216 288 326 414
#     4  11  23  42  68 102 136 171 223 283 337 400
#     4  11  26  46  66  96 139 184 229 279 335 402
#
# _framework density 25.349985
#
# number of rings (size 3 to 8) (size 9 to 14) (size 15 to 20)
#    0.000    0.615    4.615    2.308    2.154    5.538 
#    0.000    0.000    0.000    0.000    0.000    0.000 
#    0.000    0.000    0.000    0.000    0.000    0.000 
#
# Total GULP energy -145096.060293 kJ/mol
# GULP energy per Si atom -5580.617704 kJ/mol
# Density = 2.529229 g / cm^3
# Si number density = 25.349985 Si / 1000 Ang^3
#
#
#
# Elastic Constant Matrix: (Units=GPa)
#
#
# Indices 1 2 3 4 5 6 
#
# 1 183.5699 11.6987 22.6056 0.0000 0.0000 0.0000
# 2 11.6987 147.2118 26.8612 0.0000 0.0000 0.0000
# 3 22.6056 26.8612 53.4646 0.0000 0.0000 0.0000
# 4 0.0000 0.0000 0.0000 8.0763 0.0000 0.0000
# 5 0.0000 0.0000 0.0000 0.0000 -3.3494 0.0000
# 6 0.0000 0.0000 0.0000 0.0000 0.0000 16.1915
#
#
#
# Elastic Compliance Matrix: (Units=1/GPa)
#
#
# Indices 1 2 3 4 5 6 
#
# 1 0.005747 -0.000015 -0.002422 0.000000 0.000000 0.000000
# 2 -0.000015 0.007479 -0.003751 0.000000 0.000000 0.000000
# 3 -0.002422 -0.003751 0.021613 0.000000 0.000000 0.000000
# 4 0.000000 0.000000 0.000000 0.123820 0.000000 0.000000
# 5 0.000000 0.000000 0.000000 0.000000 -0.298562 0.000000
# 6 0.000000 0.000000 0.000000 0.000000 0.000000 0.061761
#
#
# Mechanical properties :
#
#
# Convention : Reuss Voigt Hill
#
# Bulk Modulus (GPa) = 44.52026 56.28637 50.40331
# Shear Modulus (GPa) = -85.79237 25.72241 -30.03498
#
# Velocity S-wave (km/s) = -5.82380 3.18888 -3.44584
# Velocity P-wave (km/s) = 5.25565 5.98419 2.02345
#
# Compressibility (1/GPa) = 0.02246168
#
# Stress axis : x y z
#
# Youngs Moduli (GPa) = 174.01110 133.71586 46.26892
#
# Poissons Ratio (x) = 0.00196 0.11208
# Poissons Ratio (y) = 0.00255 0.17356
# Poissons Ratio (z) = 0.42153 0.50158
#
# Static dielectric constant tensor:
#      x y z
#    x 1.887210 0.000000 0.000000 
#    y 0.000000 1.991560 0.000000 
#    z 0.000000 0.000000 1.862640 
# 
# From -- ./inp_files/50042.got.cif
#   From: 2010.05.17/outbox.cif.g08.bks.cpg/sg63_26_cif.got.tgz:50042.got - 2010.06.03 15:47:04.
