data_PCOD9475189
_publ_section_title
;
Structure prediction by ZEFSAII (Michael W. Deem and Ramdas Pophale) SiO2 
 PCOD9475189
Probable space group: C M C M
;
_chemical_formula_sum "Si O2"
_cell_formula_units_Z 52
_cell_length_a 7.722716
_cell_length_b 9.646068
_cell_length_c 27.560444
_cell_angle_alpha 90.000000
_cell_angle_beta 90.000000
_cell_angle_gamma 90.000000
_cell_volume 2053.083407
_symmetry_space_group_name_H-M "C M C M"
_symmetry_group_IT_number 63
_symmetry_cell_setting 'orthorhombic'
loop_
_space_group_symop_operation_xyz
x,y,z
-x,-y,1/2+z
x,-y,-z
-x,y,1/2-z
-x,-y,-z
x,y,1/2-z
-x,y,z
x,-y,1/2+z
1/2+x,1/2+y,z
1/2-x,1/2-y,1/2+z
1/2+x,1/2-y,-z
1/2-x,1/2+y,1/2-z
1/2-x,1/2-y,-z
1/2+x,1/2+y,1/2-z
1/2-x,1/2+y,z
1/2+x,1/2-y,1/2+z
loop_
_atom_site_type_symbol
_atom_site_label
_atom_site_fract_x
_atom_site_fract_y
_atom_site_fract_z
Si Si1 0.000000 0.504982 0.250000
Si Si2 0.310928 0.366505 0.801736
Si Si3 0.709977 0.430903 0.949926
Si Si4 0.298842 0.683401 0.610165
O O1 0.846456 0.530199 0.291910
O O2 0.313928 0.282650 0.750000
O O3 0.500000 0.434999 0.805335
O O4 0.290927 0.263403 0.846166
O O5 0.500000 0.425334 0.950276
O O6 0.764015 0.532880 0.906008
O O7 0.779907 0.280403 0.937393
O O8 0.767590 0.500000 0.000000
O O9 0.500000 0.674600 0.622405
#
# Coordination Sequence:
#
# PCOD9475189 Si02
#       4
#     4  16  16  16
#     4   8  14  32  56  86 124 154 210 240 296 372
#     4   9  17  32  58  87 123 160 199 250 305 358
#     4  10  23  40  60  87 121 159 207 259 309 365
#     4  11  21  38  61  88 122 162 203 254 307 365
#
# _framework density 25.327757999999999
#
# number of rings (size 3 to 8) (size 9 to 14) (size 15 to 20)
#    0.923    1.231    1.538    1.846    0.000    3.077 
#    0.000    1.538    0.000    1.846    0.000    0.000 
#    0.000    0.000    0.000    0.000    0.000    0.000 
#
# Total GULP energy -144873.539346 kJ/mol
# GULP energy per Si atom -5572.059206 kJ/mol
# Density = 2.527011 g / cm^3
# Si number density = 25.327758 Si / 1000 Ang^3
#
#
#
# Elastic Constant Matrix: (Units=GPa)
#
#
# Indices 1 2 3 4 5 6 
#
# 1 139.9249 8.3943 17.9670 0.0000 0.0000 0.0000
# 2 8.3943 94.3817 12.3684 0.0000 0.0000 0.0000
# 3 17.9670 12.3684 104.4681 0.0000 0.0000 0.0000
# 4 0.0000 0.0000 0.0000 38.4921 0.0000 0.0000
# 5 0.0000 0.0000 0.0000 0.0000 37.6254 0.0000
# 6 0.0000 0.0000 0.0000 0.0000 0.0000 -9.2981
#
#
#
# Elastic Compliance Matrix: (Units=1/GPa)
#
#
# Indices 1 2 3 4 5 6 
#
# 1 0.007331 -0.000494 -0.001202 0.000000 0.000000 0.000000
# 2 -0.000494 0.010796 -0.001193 0.000000 0.000000 0.000000
# 3 -0.001202 -0.001193 0.009920 0.000000 0.000000 0.000000
# 4 0.000000 0.000000 0.000000 0.025979 0.000000 0.000000
# 5 0.000000 0.000000 0.000000 0.000000 0.026578 0.000000
# 6 0.000000 0.000000 0.000000 0.000000 0.000000 -0.107549
#
#
# Mechanical properties :
#
#
# Convention : Reuss Voigt Hill
#
# Bulk Modulus (GPa) = 44.90934 46.24824 45.57879
# Shear Modulus (GPa) = -363.82380 33.36688 -165.22846
#
# Velocity S-wave (km/s) = -11.99825 3.63354 -8.08565
# Velocity P-wave (km/s) = 13.19751 5.99192 8.31479
#
# Compressibility (1/GPa) = 0.02226709
#
# Stress axis : x y z
#
# Youngs Moduli (GPa) = 136.41215 92.63031 100.80320
#
# Poissons Ratio (x) = 0.04580 0.12119
# Poissons Ratio (y) = 0.06745 0.12027
# Poissons Ratio (z) = 0.16400 0.11052
#
# Static dielectric constant tensor:
#      x y z
#    x 1.939380 0.000000 0.000000 
#    y 0.000000 1.980300 0.000000 
#    z 0.000000 0.000000 2.080380 
# 
# From -- ./inp_files/66044.got.cif
#   From: 2010.05.17/outbox.cif.g08.bks.cpg/sg63_34_cif.got.tgz:66044.got - 2010.06.03 15:47:04.
