data_PCOD9475301
_publ_section_title
;
Structure prediction by ZEFSAII (Michael W. Deem and Ramdas Pophale) SiO2 
 PCOD9475301
Probable space group: C M C M
;
_chemical_formula_sum "Si O2"
_cell_formula_units_Z 60
_cell_length_a 27.061100
_cell_length_b 11.057870
_cell_length_c 9.955282
_cell_angle_alpha 90.000000
_cell_angle_beta 90.000000
_cell_angle_gamma 90.000000
_cell_volume 2978.999928
_symmetry_space_group_name_H-M "C M C M"
_symmetry_group_IT_number 63
_symmetry_cell_setting 'orthorhombic'
loop_
_space_group_symop_operation_xyz
x,y,z
-x,-y,1/2+z
x,-y,-z
-x,y,1/2-z
-x,-y,-z
x,y,1/2-z
-x,y,z
x,-y,1/2+z
1/2+x,1/2+y,z
1/2-x,1/2-y,1/2+z
1/2+x,1/2-y,-z
1/2-x,1/2+y,1/2-z
1/2-x,1/2-y,-z
1/2+x,1/2+y,1/2-z
1/2-x,1/2+y,z
1/2+x,1/2-y,1/2+z
loop_
_atom_site_type_symbol
_atom_site_label
_atom_site_fract_x
_atom_site_fract_y
_atom_site_fract_z
Si Si1 0.607660 0.268080 0.967491
Si Si2 0.841917 0.397727 0.250000
Si Si3 0.000000 0.466093 0.750000
Si Si4 0.500000 0.185239 0.527342
Si Si5 0.169968 0.000000 0.500000
Si Si6 0.646861 0.816434 0.750000
Si Si7 0.724758 0.622588 0.750000
O O1 0.633230 0.165631 0.877221
O O2 0.549459 0.261987 0.946774
O O3 0.634938 0.394629 0.941739
O O4 0.619334 0.232692 0.120102
O O5 0.852405 0.539795 0.250000
O O6 0.783454 0.376361 0.250000
O O7 0.000000 0.573706 0.867732
O O8 0.000000 0.364350 0.626647
O O9 0.203538 0.944120 0.381996
O O10 0.701416 0.757170 0.750000
#
# Coordination Sequence:
#
# PCOD9475301 Si02
#       7
#    16   8   4   8   8   8   8
#     4  11  25  42  67  96 131 170 216 261 322 381
#     4  12  26  39  67  97 129 171 218 265 318 391
#     4  10  24  36  62  88 136 162 214 250 320 374
#     4  11  24  41  64  96 126 179 203 266 320 372
#     4  10  24  47  66  96 130 167 218 268 314 392
#     4  10  25  41  62  99 128 169 215 266 316 395
#     4  10  25  43  66  90 133 172 212 267 331 364
#
# _framework density 20.140988
#
# number of rings (size 3 to 8) (size 9 to 14) (size 15 to 20)
#    0.000    1.333    0.000    3.200   18.667    2.667 
#    0.000    0.000    0.000    6.400    0.000    0.000 
#    0.000    0.000    0.000    0.000    0.000    0.000 
#
# Total GULP energy -167260.790309 kJ/mol
# GULP energy per Si atom -5575.359677 kJ/mol
# Density = 2.009515 g / cm^3
# Si number density = 20.140988 Si / 1000 Ang^3
#
#
#
# Elastic Constant Matrix: (Units=GPa)
#
#
# Indices 1 2 3 4 5 6 
#
# 1 160.1097 19.2022 18.7695 0.0000 0.0000 0.0000
# 2 19.2022 77.5509 12.6831 0.0000 0.0000 0.0000
# 3 18.7695 12.6831 120.5650 0.0000 0.0000 0.0000
# 4 0.0000 0.0000 0.0000 30.2195 0.0000 0.0000
# 5 0.0000 0.0000 0.0000 0.0000 12.4516 0.0000
# 6 0.0000 0.0000 0.0000 0.0000 0.0000 -7.0899
#
#
#
# Elastic Compliance Matrix: (Units=1/GPa)
#
#
# Indices 1 2 3 4 5 6 
#
# 1 0.006523 -0.001475 -0.000860 0.000000 0.000000 0.000000
# 2 -0.001475 0.013454 -0.001186 0.000000 0.000000 0.000000
# 3 -0.000860 -0.001186 0.008553 0.000000 0.000000 0.000000
# 4 0.000000 0.000000 0.000000 0.033091 0.000000 0.000000
# 5 0.000000 0.000000 0.000000 0.000000 0.080311 0.000000
# 6 0.000000 0.000000 0.000000 0.000000 0.000000 -0.141046
#
#
# Mechanical properties :
#
#
# Convention : Reuss Voigt Hill
#
# Bulk Modulus (GPa) = 46.53601 51.05947 48.79774
# Shear Modulus (GPa) = 331.33289 27.62096 179.47693
#
# Velocity S-wave (km/s) = 12.83993 3.70723 9.45007
# Velocity P-wave (km/s) = 15.58762 6.61293 11.97298
#
# Compressibility (1/GPa) = 0.02148873
#
# Stress axis : x y z
#
# Youngs Moduli (GPa) = 153.29355 74.32853 116.91841
#
# Poissons Ratio (x) = 0.10960 0.10060
# Poissons Ratio (y) = 0.22604 0.13864
# Poissons Ratio (z) = 0.13190 0.08814
#
# Static dielectric constant tensor:
#      x y z
#    x 1.719770 0.000000 0.000000 
#    y 0.000000 1.691380 0.000000 
#    z 0.000000 0.000000 1.696950 
# 
# From -- ./inp_files/11507.got.cif
#   From: 2010.05.17/outbox.cif.g08.bks.cpg/sg63_6_cif.got.tgz:11507.got - 2010.06.03 15:47:04.
