data_PCOD9475372
_publ_section_title
;
Structure prediction by ZEFSAII (Michael W. Deem and Ramdas Pophale) SiO2 
 PCOD9475372
Probable space group: C M C M
;
_chemical_formula_sum "Si O2"
_cell_formula_units_Z 48
_cell_length_a 25.483001
_cell_length_b 8.397743
_cell_length_c 9.593476
_cell_angle_alpha 90.000000
_cell_angle_beta 90.000000
_cell_angle_gamma 90.000000
_cell_volume 2053.000921
_symmetry_space_group_name_H-M "C M C M"
_symmetry_group_IT_number 63
_symmetry_cell_setting 'orthorhombic'
loop_
_space_group_symop_operation_xyz
x,y,z
-x,-y,1/2+z
x,-y,-z
-x,y,1/2-z
-x,-y,-z
x,y,1/2-z
-x,y,z
x,-y,1/2+z
1/2+x,1/2+y,z
1/2-x,1/2-y,1/2+z
1/2+x,1/2-y,-z
1/2-x,1/2+y,1/2-z
1/2-x,1/2-y,-z
1/2+x,1/2+y,1/2-z
1/2-x,1/2+y,z
1/2+x,1/2-y,1/2+z
loop_
_atom_site_type_symbol
_atom_site_label
_atom_site_fract_x
_atom_site_fract_y
_atom_site_fract_z
Si Si1 0.171379 0.500000 0.000000
Si Si2 0.722236 0.804672 0.250000
Si Si3 0.907292 0.758398 0.099766
Si Si4 0.168946 0.955594 0.250000
Si Si5 0.000000 0.164814 0.415259
O O1 0.204161 0.397187 0.110694
O O2 0.133516 0.617359 0.082747
O O3 0.784941 0.823293 0.250000
O O4 0.696418 0.628144 0.250000
O O5 0.935726 0.743277 0.250000
O O6 0.870787 0.914199 0.123991
O O7 0.947254 0.754464 0.972514
O O8 0.000000 0.145787 0.250000
O O9 0.000000 0.000000 0.500000
#
# Coordination Sequence:
#
# PCOD9475372 Si02
#       5
#     8   8  16   8   8
#     4  12  26  45  76 112 158 199 254 320 386 462
#     4  12  26  48  75 114 158 201 262 305 390 460
#     4  10  25  49  73 113 148 204 257 320 382 459
#     4  10  26  49  81 108 158 204 256 319 374 470
#     4  12  28  47  78 115 152 202 264 320 393 460
#
# _framework density 23.380407000000002
#
# number of rings (size 3 to 8) (size 9 to 14) (size 15 to 20)
#    1.000    0.000    1.667    3.500    7.000    6.000 
#    0.000    0.000    0.000    0.000    0.000    0.000 
#    0.000    0.000    0.000    0.000    0.000    0.000 
#
# Total GULP energy -134074.112847 kJ/mol
# GULP energy per Si atom -5586.421369 kJ/mol
# Density = 2.332719 g / cm^3
# Si number density = 23.380407 Si / 1000 Ang^3
#
#
#
# Elastic Constant Matrix: (Units=GPa)
#
#
# Indices 1 2 3 4 5 6 
#
# 1 142.0451 39.2382 69.4130 0.0000 0.0000 0.0000
# 2 39.2382 91.0748 47.8460 0.0000 0.0000 0.0000
# 3 69.4130 47.8460 183.4055 0.0000 0.0000 0.0000
# 4 0.0000 0.0000 0.0000 29.7126 0.0000 0.0000
# 5 0.0000 0.0000 0.0000 0.0000 56.0003 0.0000
# 6 0.0000 0.0000 0.0000 0.0000 0.0000 25.3745
#
#
#
# Elastic Compliance Matrix: (Units=1/GPa)
#
#
# Indices 1 2 3 4 5 6 
#
# 1 0.009083 -0.002442 -0.002801 0.000000 0.000000 0.000000
# 2 -0.002442 0.013380 -0.002566 0.000000 0.000000 0.000000
# 3 -0.002801 -0.002566 0.007182 0.000000 0.000000 0.000000
# 4 0.000000 0.000000 0.000000 0.033656 0.000000 0.000000
# 5 0.000000 0.000000 0.000000 0.000000 0.017857 0.000000
# 6 0.000000 0.000000 0.000000 0.000000 0.000000 0.039410
#
#
# Mechanical properties :
#
#
# Convention : Reuss Voigt Hill
#
# Bulk Modulus (GPa) = 71.28955 81.05775 76.17365
# Shear Modulus (GPa) = 35.49582 39.55268 37.52425
#
# Velocity S-wave (km/s) = 3.90062 4.11749 4.01052
# Velocity P-wave (km/s) = 7.13048 7.57294 7.35504
#
# Compressibility (1/GPa) = 0.01402730
#
# Stress axis : x y z
#
# Youngs Moduli (GPa) = 110.09364 74.73650 139.24002
#
# Poissons Ratio (x) = 0.18251 0.38996
# Poissons Ratio (y) = 0.26885 0.35734
# Poissons Ratio (z) = 0.30833 0.19180
#
# Static dielectric constant tensor:
#      x y z
#    x 1.983170 0.000000 0.000000 
#    y 0.000000 1.908950 0.000000 
#    z 0.000000 0.000000 1.992290 
# 
# From -- ./inp_files/13574.got.cif
#   From: 2010.05.17/outbox.cif.g08.bks.cpg/sg63_7_cif.got.tgz:13574.got - 2010.06.03 15:47:04.
