data_PCOD9475277
_publ_section_title
;
Structure prediction by ZEFSAII (Michael W. Deem and Ramdas Pophale) SiO2 
 PCOD9475277
Probable space group: C M C M
;
_chemical_formula_sum "Si O2"
_cell_formula_units_Z 64
_cell_length_a 12.106695
_cell_length_b 31.489030
_cell_length_c 8.581577
_cell_angle_alpha 90.000000
_cell_angle_beta 90.000000
_cell_angle_gamma 90.000000
_cell_volume 3271.538141
_symmetry_space_group_name_H-M "C M C M"
_symmetry_group_IT_number 63
_symmetry_cell_setting 'orthorhombic'
loop_
_space_group_symop_operation_xyz
x,y,z
-x,-y,1/2+z
x,-y,-z
-x,y,1/2-z
-x,-y,-z
x,y,1/2-z
-x,y,z
x,-y,1/2+z
1/2+x,1/2+y,z
1/2-x,1/2-y,1/2+z
1/2+x,1/2-y,-z
1/2-x,1/2+y,1/2-z
1/2-x,1/2-y,-z
1/2+x,1/2+y,1/2-z
1/2-x,1/2+y,z
1/2+x,1/2-y,1/2+z
loop_
_atom_site_type_symbol
_atom_site_label
_atom_site_fract_x
_atom_site_fract_y
_atom_site_fract_z
Si Si1 0.129917 0.370882 0.062175
Si Si2 0.000000 0.837673 0.434684
Si Si3 0.500000 0.431996 0.934105
Si Si4 0.737638 0.544442 0.563839
Si Si5 0.220686 0.796281 0.564204
O O1 0.143158 0.366347 0.250000
O O2 0.193101 0.414056 0.014525
O O3 0.000000 0.373627 0.028298
O O4 0.186171 0.330614 0.981241
O O5 0.000000 0.882136 0.525340
O O6 0.108533 0.812192 0.483475
O O7 0.000000 0.846272 0.250000
O O8 0.500000 0.439024 0.750000
O O9 0.387835 0.450440 0.005485
O O10 0.783055 0.500000 0.500000
O O11 0.737881 0.543201 0.750000
O O12 0.206664 0.795012 0.750000
O O13 0.250000 0.750000 0.500000
#
# Coordination Sequence:
#
# PCOD9475277 Si02
#       5
#    16   8   8  16  16
#     4  10  23  44  67  92 128 172 218 267 321 381
#     4  12  24  43  69  98 132 170 214 267 326 385
#     4  12  23  39  64  96 131 166 212 265 325 391
#     4  11  23  40  64  93 129 170 215 267 322 382
#     4  12  26  44  68  98 132 172 217 266 322 383
#
# _framework density 19.562663000000001
#
# number of rings (size 3 to 8) (size 9 to 14) (size 15 to 20)
#    0.000    0.750    2.500    5.625    1.750    2.000 
#    0.000    0.000    0.000    0.000    0.000    0.000 
#    0.000    0.000    0.000    0.000    0.000    0.000 
#
# Total GULP energy -179106.462464 kJ/mol
# GULP energy per Si atom -5597.076952 kJ/mol
# Density = 1.951814 g / cm^3
# Si number density = 19.562663 Si / 1000 Ang^3
#
#
#
# Elastic Constant Matrix: (Units=GPa)
#
#
# Indices 1 2 3 4 5 6 
#
# 1 101.0721 42.2408 19.8092 0.0000 0.0000 0.0000
# 2 42.2408 155.3664 20.1582 0.0000 0.0000 0.0000
# 3 19.8092 20.1582 60.9146 0.0000 0.0000 0.0000
# 4 0.0000 0.0000 0.0000 39.5608 0.0000 0.0000
# 5 0.0000 0.0000 0.0000 0.0000 11.6225 0.0000
# 6 0.0000 0.0000 0.0000 0.0000 0.0000 39.3721
#
#
#
# Elastic Compliance Matrix: (Units=1/GPa)
#
#
# Indices 1 2 3 4 5 6 
#
# 1 0.011619 -0.002788 -0.002856 0.000000 0.000000 0.000000
# 2 -0.002788 0.007394 -0.001540 0.000000 0.000000 0.000000
# 3 -0.002856 -0.001540 0.017855 0.000000 0.000000 0.000000
# 4 0.000000 0.000000 0.000000 0.025278 0.000000 0.000000
# 5 0.000000 0.000000 0.000000 0.000000 0.086040 0.000000
# 6 0.000000 0.000000 0.000000 0.000000 0.000000 0.025399
#
#
# Mechanical properties :
#
#
# Convention : Reuss Voigt Hill
#
# Bulk Modulus (GPa) = 44.44549 53.52995 48.98772
# Shear Modulus (GPa) = 25.58157 33.78739 29.68448
#
# Velocity S-wave (km/s) = 3.62010 4.16039 3.89961
# Velocity P-wave (km/s) = 6.34369 7.10642 6.73586
#
# Compressibility (1/GPa) = 0.02249947
#
# Stress axis : x y z
#
# Youngs Moduli (GPa) = 86.06609 135.23843 56.00742
#
# Poissons Ratio (x) = 0.37710 0.15994
# Poissons Ratio (y) = 0.23999 0.08626
# Poissons Ratio (z) = 0.24578 0.20829
#
# Static dielectric constant tensor:
#      x y z
#    x 1.661690 0.000000 0.000000 
#    y 0.000000 1.681840 0.000000 
#    z 0.000000 0.000000 1.634340 
# 
# From -- ./inp_files/3189.got.cif
#   From: 2010.05.17/outbox.cif.g08.bks.cpg/sg63_2_cif.got.tgz:3189.got - 2010.06.03 15:47:04.
