data_PCOD9475291
_publ_section_title
;
Structure prediction by ZEFSAII (Michael W. Deem and Ramdas Pophale) SiO2 
 PCOD9475291
Probable space group: C M C M
;
_chemical_formula_sum "Si O2"
_cell_formula_units_Z 68
_cell_length_a 7.318395
_cell_length_b 25.346228
_cell_length_c 14.239316
_cell_angle_alpha 90.000000
_cell_angle_beta 90.000000
_cell_angle_gamma 90.000000
_cell_volume 2641.303528
_symmetry_space_group_name_H-M "C M C M"
_symmetry_group_IT_number 63
_symmetry_cell_setting 'orthorhombic'
loop_
_space_group_symop_operation_xyz
x,y,z
-x,-y,1/2+z
x,-y,-z
-x,y,1/2-z
-x,-y,-z
x,y,1/2-z
-x,y,z
x,-y,1/2+z
1/2+x,1/2+y,z
1/2-x,1/2-y,1/2+z
1/2+x,1/2-y,-z
1/2-x,1/2+y,1/2-z
1/2-x,1/2-y,-z
1/2+x,1/2+y,1/2-z
1/2-x,1/2+y,z
1/2+x,1/2-y,1/2+z
loop_
_atom_site_type_symbol
_atom_site_label
_atom_site_fract_x
_atom_site_fract_y
_atom_site_fract_z
Si Si1 0.724461 0.148096 0.350829
Si Si2 0.786425 0.763862 0.108036
Si Si3 0.788067 0.621149 0.561635
Si Si4 0.786935 0.489539 0.389071
Si Si5 0.000000 0.037416 0.250000
O O1 0.791419 0.125582 0.250000
O O2 0.500000 0.145350 0.351257
O O3 0.779964 0.209907 0.346384
O O4 0.785386 0.128584 0.454501
O O5 0.719345 0.823562 0.117247
O O6 0.000000 0.766383 0.128356
O O7 0.750000 0.750000 0.000000
O O8 0.718958 0.571175 0.619308
O O9 0.000000 0.608426 0.546546
O O10 0.777183 0.500000 0.500000
O O11 0.658971 0.527560 0.331781
O O12 0.000000 0.495277 0.360985
#
# Coordination Sequence:
#
# PCOD9475291 Si02
#       5
#    16  16  16  16   4
#     4   8  14  27  47  77 111 149 202 256 304 370
#     4   9  16  27  47  72 106 152 197 247 310 371
#     4   9  18  34  56  81 114 158 203 256 322 384
#     4  10  23  45  70  99 134 173 217 272 336 402
#     4  12  24  44  72 100 132 168 220 276 336 396
#
# _framework density 25.744862999999999
#
# number of rings (size 3 to 8) (size 9 to 14) (size 15 to 20)
#    0.000    2.824    0.000    2.824    1.647    0.000 
#    4.235    0.000    0.000   16.941    0.000    0.000 
#    0.000    0.000    0.000    0.000    0.000    0.000 
#
# Total GULP energy -189312.333527 kJ/mol
# GULP energy per Si atom -5568.009810 kJ/mol
# Density = 2.568627 g / cm^3
# Si number density = 25.744863 Si / 1000 Ang^3
#
#
#
# Elastic Constant Matrix: (Units=GPa)
#
#
# Indices 1 2 3 4 5 6 
#
# 1 114.9589 -17.3614 10.8229 0.0000 0.0000 0.0000
# 2 -17.3614 138.8794 4.7570 0.0000 0.0000 0.0000
# 3 10.8229 4.7570 112.7826 0.0000 0.0000 0.0000
# 4 0.0000 0.0000 0.0000 40.4197 0.0000 0.0000
# 5 0.0000 0.0000 0.0000 0.0000 7.0823 0.0000
# 6 0.0000 0.0000 0.0000 0.0000 0.0000 -90.7306
#
#
#
# Elastic Compliance Matrix: (Units=1/GPa)
#
#
# Indices 1 2 3 4 5 6 
#
# 1 0.008958 0.001151 -0.000908 0.000000 0.000000 0.000000
# 2 0.001151 0.007359 -0.000421 0.000000 0.000000 0.000000
# 3 -0.000908 -0.000421 0.008972 0.000000 0.000000 0.000000
# 4 0.000000 0.000000 0.000000 0.024740 0.000000 0.000000
# 5 0.000000 0.000000 0.000000 0.000000 0.141197 0.000000
# 6 0.000000 0.000000 0.000000 0.000000 0.000000 -0.011022
#
#
# Mechanical properties :
#
#
# Convention : Reuss Voigt Hill
#
# Bulk Modulus (GPa) = 40.10864 40.33977 40.22421
# Shear Modulus (GPa) = 26.47302 15.91442 21.19372
#
# Velocity S-wave (km/s) = 3.21017 2.48898 2.87230
# Velocity P-wave (km/s) = 5.41787 4.89521 5.16316
#
# Compressibility (1/GPa) = 0.02493228
#
# Stress axis : x y z
#
# Youngs Moduli (GPa) = 111.63104 135.89188 111.46381
#
# Poissons Ratio (x) = -0.15641 0.10123
# Poissons Ratio (y) = -0.12848 0.04691
# Poissons Ratio (z) = 0.10138 0.05719
#
# Static dielectric constant tensor:
#      x y z
#    x 2.049970 0.000000 0.000000 
#    y 0.000000 2.158200 0.000000 
#    z 0.000000 0.000000 2.035850 
# 
# From -- ./inp_files/27766.got.cif
#   From: 2010.05.17/outbox.cif.g08.bks.cpg/sg63_14_cif.got.tgz:27766.got - 2010.06.03 15:47:04.
