data_PCOD9475456
_publ_section_title
;
Structure prediction by ZEFSAII (Michael W. Deem and Ramdas Pophale) SiO2 
 PCOD9475456
Probable space group: C M C M
;
_chemical_formula_sum "Si O2"
_cell_formula_units_Z 96
_cell_length_a 20.542576
_cell_length_b 11.845401
_cell_length_c 20.982794
_cell_angle_alpha 90.000000
_cell_angle_beta 90.000000
_cell_angle_gamma 90.000000
_cell_volume 5105.849233
_symmetry_space_group_name_H-M "C M C M"
_symmetry_group_IT_number 63
_symmetry_cell_setting 'orthorhombic'
loop_
_space_group_symop_operation_xyz
x,y,z
-x,-y,1/2+z
x,-y,-z
-x,y,1/2-z
-x,-y,-z
x,y,1/2-z
-x,y,z
x,-y,1/2+z
1/2+x,1/2+y,z
1/2-x,1/2-y,1/2+z
1/2+x,1/2-y,-z
1/2-x,1/2+y,1/2-z
1/2-x,1/2-y,-z
1/2+x,1/2+y,1/2-z
1/2-x,1/2+y,z
1/2+x,1/2-y,1/2+z
loop_
_atom_site_type_symbol
_atom_site_label
_atom_site_fract_x
_atom_site_fract_y
_atom_site_fract_z
Si Si1 0.222889 0.330583 0.324056
Si Si2 0.070234 0.932149 0.175539
Si Si3 0.640310 0.250859 0.117114
Si Si4 0.575496 0.636198 0.497312
Si Si5 0.202350 0.471845 0.925207
Si Si6 0.659597 0.622159 0.381339
O O1 0.224566 0.368596 0.250000
O O2 0.294046 0.292343 0.348317
O O3 0.200814 0.423832 0.375781
O O4 0.179154 0.218442 0.331539
O O5 0.068069 0.951454 0.250000
O O6 0.084287 0.800864 0.162111
O O7 0.000000 0.962770 0.146227
O O8 0.126279 0.012103 0.148507
O O9 0.622166 0.314326 0.051640
O O10 0.651072 0.121302 0.099528
O O11 0.578171 0.500000 0.500000
O O12 0.500000 0.670588 0.504593
O O13 0.607392 0.670985 0.430814
O O14 0.274436 0.416260 0.917365
O O15 0.192720 0.500000 0.000000
#
# Coordination Sequence:
#
# PCOD9475456 Si02
#       6
#    16  16  16  16  16  16
#     4  11  23  38  60  88 124 167 208 255 314 378
#     4  11  22  37  58  85 119 155 196 249 303 359
#     4  11  22  37  58  87 123 154 201 250 303 368
#     4  11  20  34  59  88 118 152 194 250 311 366
#     4  11  23  39  60  88 124 163 201 253 312 365
#     4  11  21  36  59  89 121 154 198 254 308 374
#
# _framework density 18.801966
#
# number of rings (size 3 to 8) (size 9 to 14) (size 15 to 20)
#    0.000    1.000    3.333    4.500    0.000    6.000 
#    0.000    0.000    0.000   11.000    0.000    2.333 
#    0.000    0.000    0.000    0.000    0.000    0.000 
#
# Total GULP energy -267755.912440 kJ/mol
# GULP energy per Si atom -5578.248176 kJ/mol
# Density = 1.875917 g / cm^3
# Si number density = 18.801966 Si / 1000 Ang^3
#
#
#
# Elastic Constant Matrix: (Units=GPa)
#
#
# Indices 1 2 3 4 5 6 
#
# 1 59.9077 18.1533 20.9380 0.0000 0.0000 0.0000
# 2 18.1533 76.0357 29.3999 0.0000 0.0000 0.0000
# 3 20.9380 29.3999 113.9514 0.0000 0.0000 0.0000
# 4 0.0000 0.0000 0.0000 26.2245 0.0000 0.0000
# 5 0.0000 0.0000 0.0000 0.0000 30.1970 0.0000
# 6 0.0000 0.0000 0.0000 0.0000 0.0000 16.2474
#
#
#
# Elastic Compliance Matrix: (Units=1/GPa)
#
#
# Indices 1 2 3 4 5 6 
#
# 1 0.018627 -0.003470 -0.002527 0.000000 0.000000 0.000000
# 2 -0.003470 0.015256 -0.003298 0.000000 0.000000 0.000000
# 3 -0.002527 -0.003298 0.010091 0.000000 0.000000 0.000000
# 4 0.000000 0.000000 0.000000 0.038132 0.000000 0.000000
# 5 0.000000 0.000000 0.000000 0.000000 0.033116 0.000000
# 6 0.000000 0.000000 0.000000 0.000000 0.000000 0.061548
#
#
# Mechanical properties :
#
#
# Convention : Reuss Voigt Hill
#
# Bulk Modulus (GPa) = 39.39758 42.98637 41.19198
# Shear Modulus (GPa) = 24.53115 26.62734 25.57925
#
# Velocity S-wave (km/s) = 3.61600 3.76733 3.69244
# Velocity P-wave (km/s) = 6.19947 6.46807 6.33519
#
# Compressibility (1/GPa) = 0.02538227
#
# Stress axis : x y z
#
# Youngs Moduli (GPa) = 53.68509 65.55012 99.09750
#
# Poissons Ratio (x) = 0.22745 0.25046
# Poissons Ratio (y) = 0.18628 0.32686
# Poissons Ratio (z) = 0.13568 0.21621
#
# Static dielectric constant tensor:
#      x y z
#    x 1.691910 0.000000 0.000000 
#    y 0.000000 1.658380 0.000000 
#    z 0.000000 0.000000 1.700080 
# 
# From -- ./inp_files/56527.got.cif
#   From: 2010.05.17/outbox.cif.g08.bks.cpg/sg63_29_cif.got.tgz:56527.got - 2010.06.03 15:47:04.
