data_PCOD9475040
_publ_section_title
;
Structure prediction by ZEFSAII (Michael W. Deem and Ramdas Pophale) SiO2 
 PCOD9475040
Probable space group: C M C M
;
_chemical_formula_sum "Si O2"
_cell_formula_units_Z 64
_cell_length_a 11.987971
_cell_length_b 31.265493
_cell_length_c 8.797299
_cell_angle_alpha 90.000000
_cell_angle_beta 90.000000
_cell_angle_gamma 90.000000
_cell_volume 3297.314084
_symmetry_space_group_name_H-M "C M C M"
_symmetry_group_IT_number 63
_symmetry_cell_setting 'orthorhombic'
loop_
_space_group_symop_operation_xyz
x,y,z
-x,-y,1/2+z
x,-y,-z
-x,y,1/2-z
-x,-y,-z
x,y,1/2-z
-x,y,z
x,-y,1/2+z
1/2+x,1/2+y,z
1/2-x,1/2-y,1/2+z
1/2+x,1/2-y,-z
1/2-x,1/2+y,1/2-z
1/2-x,1/2-y,-z
1/2+x,1/2+y,1/2-z
1/2-x,1/2+y,z
1/2+x,1/2-y,1/2+z
loop_
_atom_site_type_symbol
_atom_site_label
_atom_site_fract_x
_atom_site_fract_y
_atom_site_fract_z
Si Si1 0.262940 0.455888 0.931246
Si Si2 0.500000 0.658999 0.072973
Si Si3 0.000000 0.932398 0.070581
Si Si4 0.867603 0.624242 0.930379
Si Si5 0.762484 0.796760 0.570187
O O1 0.264829 0.457769 0.750000
O O2 0.216510 0.500000 0.000000
O O3 0.388182 0.450359 0.994851
O O4 0.193277 0.414957 0.986436
O O5 0.500000 0.643683 0.250000
O O6 0.611084 0.686462 0.050152
O O7 0.500000 0.618262 0.963996
O O8 0.000000 0.940979 0.250000
O O9 0.846349 0.620819 0.750000
O O10 0.000000 0.622728 0.956182
O O11 0.817158 0.668564 0.991325
O O12 0.739047 0.795556 0.750000
O O13 0.750000 0.750000 0.500000
#
# Coordination Sequence:
#
# PCOD9475040 Si02
#       5
#    16   8   8  16  16
#     4  12  25  43  67  96 131 169 215 265 320 383
#     4  10  22  41  65  94 130 172 210 265 324 377
#     4  12  23  39  66  98 133 170 212 263 323 381
#     4  11  25  45  67  94 130 169 214 267 324 384
#     4  11  24  42  66  96 132 170 216 265 321 383
#
# _framework density 19.409735999999999
#
# number of rings (size 3 to 8) (size 9 to 14) (size 15 to 20)
#    0.000    0.750    2.500    5.250    1.750    3.500 
#    0.000    0.000    0.000    0.000    0.000    0.000 
#    0.000    0.000    0.000    0.000    0.000    0.000 
#
# Total GULP energy -179136.995862 kJ/mol
# GULP energy per Si atom -5598.031121 kJ/mol
# Density = 1.936556 g / cm^3
# Si number density = 19.409736 Si / 1000 Ang^3
#
#
#
# Elastic Constant Matrix: (Units=GPa)
#
#
# Indices 1 2 3 4 5 6 
#
# 1 87.5786 49.4000 80.6560 0.0000 0.0000 0.0000
# 2 49.4000 171.2310 86.0741 0.0000 0.0000 0.0000
# 3 80.6560 86.0741 169.3103 0.0000 0.0000 0.0000
# 4 0.0000 0.0000 0.0000 42.7535 0.0000 0.0000
# 5 0.0000 0.0000 0.0000 0.0000 -9.1606 0.0000
# 6 0.0000 0.0000 0.0000 0.0000 0.0000 23.8766
#
#
#
# Elastic Compliance Matrix: (Units=1/GPa)
#
#
# Indices 1 2 3 4 5 6 
#
# 1 0.020575 -0.001355 -0.009113 0.000000 0.000000 0.000000
# 2 -0.001355 0.007934 -0.003388 0.000000 0.000000 0.000000
# 3 -0.009113 -0.003388 0.011970 0.000000 0.000000 0.000000
# 4 0.000000 0.000000 0.000000 0.023390 0.000000 0.000000
# 5 0.000000 0.000000 0.000000 0.000000 -0.109164 0.000000
# 6 0.000000 0.000000 0.000000 0.000000 0.000000 0.041882
#
#
# Mechanical properties :
#
#
# Convention : Reuss Voigt Hill
#
# Bulk Modulus (GPa) = 78.32448 95.59778 86.96113
# Shear Modulus (GPa) = 175.10553 25.62657 100.36605
#
# Velocity S-wave (km/s) = 9.50848 3.63753 7.19871
# Velocity P-wave (km/s) = 12.68814 8.18545 10.67686
#
# Compressibility (1/GPa) = 0.01276740
#
# Stress axis : x y z
#
# Youngs Moduli (GPa) = 48.60278 126.03850 83.54420
#
# Poissons Ratio (x) = 0.17081 0.76130
# Poissons Ratio (y) = 0.06587 0.28304
# Poissons Ratio (z) = 0.44289 0.42701
#
# Static dielectric constant tensor:
#      x y z
#    x 1.654300 0.000000 0.000000 
#    y 0.000000 1.657330 0.000000 
#    z 0.000000 0.000000 1.653480 
# 
# From -- ./inp_files/3125.got.cif
#   From: 2010.05.17/outbox.cif.g08.bks.cpg/sg63_2_cif.got.tgz:3125.got - 2010.06.03 15:47:04.
