data_PCOD9475807
_publ_section_title
;
Structure prediction by ZEFSAII (Michael W. Deem and Ramdas Pophale) SiO2 
 PCOD9475807
Probable space group: C M C M
;
_chemical_formula_sum "Si O2"
_cell_formula_units_Z 68
_cell_length_a 7.769198
_cell_length_b 26.000156
_cell_length_c 14.831078
_cell_angle_alpha 90.000000
_cell_angle_beta 90.000000
_cell_angle_gamma 90.000000
_cell_volume 2995.883095
_symmetry_space_group_name_H-M "C M C M"
_symmetry_group_IT_number 63
_symmetry_cell_setting 'orthorhombic'
loop_
_space_group_symop_operation_xyz
x,y,z
-x,-y,1/2+z
x,-y,-z
-x,y,1/2-z
-x,-y,-z
x,y,1/2-z
-x,y,z
x,-y,1/2+z
1/2+x,1/2+y,z
1/2-x,1/2-y,1/2+z
1/2+x,1/2-y,-z
1/2-x,1/2+y,1/2-z
1/2-x,1/2-y,-z
1/2+x,1/2+y,1/2-z
1/2-x,1/2+y,z
1/2+x,1/2-y,1/2+z
loop_
_atom_site_type_symbol
_atom_site_label
_atom_site_fract_x
_atom_site_fract_y
_atom_site_fract_z
Si Si1 0.205861 0.574467 0.750000
Si Si2 0.295732 0.551490 0.548863
Si Si3 0.796130 0.614466 0.386115
Si Si4 0.500000 0.420176 0.750000
Si Si5 0.702685 0.768966 0.901584
Si Si6 0.798773 0.310722 0.250000
O O1 0.260369 0.550210 0.655181
O O2 0.280364 0.632688 0.750000
O O3 0.000000 0.573979 0.750000
O O4 0.231492 0.500000 0.500000
O O5 0.500000 0.554972 0.537759
O O6 0.215541 0.598160 0.491395
O O7 0.655767 0.582699 0.328496
O O8 0.733964 0.673893 0.377027
O O9 0.000000 0.609410 0.359527
O O10 0.500000 0.774323 0.896141
O O11 0.756190 0.724352 0.834535
O O12 0.750000 0.750000 0.000000
O O13 0.000000 0.319806 0.250000
#
# Coordination Sequence:
#
# PCOD9475807 Si02
#       6
#     8  16  16   4  16   8
#     4  11  25  45  70 103 141 184 236 294 354 429
#     4  11  25  47  74 105 141 186 240 294 359 434
#     4  11  25  44  68 104 143 186 244 293 356 430
#     4  12  24  42  70  94 138 190 226 296 360 404
#     4  11  24  39  62  96 134 178 231 285 341 419
#     4  11  24  40  64  96 134 179 229 279 338 412
#
# _framework density 22.697814000000001
#
# number of rings (size 3 to 8) (size 9 to 14) (size 15 to 20)
#    0.000    0.941    1.176    4.588    4.941   12.235 
#    0.000    0.000    0.000    0.000    0.000    0.000 
#    0.000    0.000    0.000    0.000    0.000    0.000 
#
# Total GULP energy -189611.651862 kJ/mol
# GULP energy per Si atom -5576.813290 kJ/mol
# Density = 2.264615 g / cm^3
# Si number density = 22.697814 Si / 1000 Ang^3
#
#
#
# Elastic Constant Matrix: (Units=GPa)
#
#
# Indices 1 2 3 4 5 6 
#
# 1 98.3324 4.7662 18.1038 0.0000 0.0000 0.0000
# 2 4.7662 98.7548 47.6841 0.0000 0.0000 0.0000
# 3 18.1038 47.6841 193.0520 0.0000 0.0000 0.0000
# 4 0.0000 0.0000 0.0000 31.1435 0.0000 0.0000
# 5 0.0000 0.0000 0.0000 0.0000 53.3907 0.0000
# 6 0.0000 0.0000 0.0000 0.0000 0.0000 10.4308
#
#
#
# Elastic Compliance Matrix: (Units=1/GPa)
#
#
# Indices 1 2 3 4 5 6 
#
# 1 0.010348 -0.000035 -0.000962 0.000000 0.000000 0.000000
# 2 -0.000035 0.011497 -0.002837 0.000000 0.000000 0.000000
# 3 -0.000962 -0.002837 0.005971 0.000000 0.000000 0.000000
# 4 0.000000 0.000000 0.000000 0.032109 0.000000 0.000000
# 5 0.000000 0.000000 0.000000 0.000000 0.018730 0.000000
# 6 0.000000 0.000000 0.000000 0.000000 0.000000 0.095870
#
#
# Mechanical properties :
#
#
# Convention : Reuss Voigt Hill
#
# Bulk Modulus (GPa) = 49.62842 59.02749 54.32795
# Shear Modulus (GPa) = 26.46772 40.29868 33.38320
#
# Velocity S-wave (km/s) = 3.41851 4.21817 3.83922
# Velocity P-wave (km/s) = 6.12323 7.05594 6.60606
#
# Compressibility (1/GPa) = 0.02014975
#
# Stress axis : x y z
#
# Youngs Moduli (GPa) = 96.63370 86.97584 167.48205
#
# Poissons Ratio (x) = 0.00305 0.16108
# Poissons Ratio (y) = 0.00339 0.47508
# Poissons Ratio (z) = 0.09294 0.24672
#
# Static dielectric constant tensor:
#      x y z
#    x 1.832470 0.000000 0.000000 
#    y 0.000000 1.948670 0.000000 
#    z 0.000000 0.000000 1.843470 
# 
# From -- ./inp_files/27802.got.cif
#   From: 2010.05.17/outbox.cif.g08.bks.cpg/sg63_14_cif.got.tgz:27802.got - 2010.06.03 15:47:04.
