data_PCOD9475707
_publ_section_title
;
Structure prediction by ZEFSAII (Michael W. Deem and Ramdas Pophale) SiO2 
 PCOD9475707
Probable space group: C M C M
;
_chemical_formula_sum "Si O2"
_cell_formula_units_Z 68
_cell_length_a 21.027056
_cell_length_b 20.825890
_cell_length_c 8.778583
_cell_angle_alpha 90.000000
_cell_angle_beta 90.000000
_cell_angle_gamma 90.000000
_cell_volume 3844.204309
_symmetry_space_group_name_H-M "C M C M"
_symmetry_group_IT_number 63
_symmetry_cell_setting 'orthorhombic'
loop_
_space_group_symop_operation_xyz
x,y,z
-x,-y,1/2+z
x,-y,-z
-x,y,1/2-z
-x,-y,-z
x,y,1/2-z
-x,y,z
x,-y,1/2+z
1/2+x,1/2+y,z
1/2-x,1/2-y,1/2+z
1/2+x,1/2-y,-z
1/2-x,1/2+y,1/2-z
1/2-x,1/2-y,-z
1/2+x,1/2+y,1/2-z
1/2-x,1/2+y,z
1/2+x,1/2-y,1/2+z
loop_
_atom_site_type_symbol
_atom_site_label
_atom_site_fract_x
_atom_site_fract_y
_atom_site_fract_z
Si Si1 0.927568 0.757091 0.069317
Si Si2 0.301309 0.199478 0.568549
Si Si3 0.603534 0.608997 0.073702
Si Si4 0.751073 0.930372 0.931732
Si Si5 0.500000 0.500000 0.500000
O O1 0.921123 0.746594 0.250000
O O2 0.000000 0.740352 0.024075
O O3 0.871623 0.720399 0.982713
O O4 0.916505 0.832124 0.032385
O O5 0.295428 0.201284 0.750000
O O6 0.250000 0.250000 0.500000
O O7 0.286413 0.128666 0.506018
O O8 0.602341 0.631063 0.250000
O O9 0.674542 0.585227 0.038814
O O10 0.555029 0.551294 0.052124
O O11 0.741523 0.930843 0.750000
O O12 0.735528 0.000000 0.000000
#
# Coordination Sequence:
#
# PCOD9475707 Si02
#       5
#    16  16  16  16   4
#     4  11  24  40  61  89 122 160 205 255 309 367
#     4  12  24  40  64  92 123 162 210 262 313 369
#     4  11  23  36  55  82 118 166 209 247 294 355
#     4  11  23  40  60  88 123 162 208 257 308 367
#     4  12  22  36  52  82 126 168 212 242 290 356
#
# _framework density 17.688966000000001
#
# number of rings (size 3 to 8) (size 9 to 14) (size 15 to 20)
#    0.000    0.706    4.706    3.882    0.000    4.235 
#    0.000    0.000    0.000    0.706    0.000    0.000 
#    0.000    0.000    0.000    0.000    0.000    0.000 
#
# Total GULP energy -189573.840455 kJ/mol
# GULP energy per Si atom -5575.701190 kJ/mol
# Density = 1.764871 g / cm^3
# Si number density = 17.688966 Si / 1000 Ang^3
#
#
#
# Elastic Constant Matrix: (Units=GPa)
#
#
# Indices 1 2 3 4 5 6 
#
# 1 110.0781 66.6236 64.9193 0.0000 0.0000 0.0000
# 2 66.6236 109.5933 64.0766 0.0000 0.0000 0.0000
# 3 64.9193 64.0766 93.1953 0.0000 0.0000 0.0000
# 4 0.0000 0.0000 0.0000 23.3341 0.0000 0.0000
# 5 0.0000 0.0000 0.0000 0.0000 26.5224 0.0000
# 6 0.0000 0.0000 0.0000 0.0000 0.0000 25.9284
#
#
#
# Elastic Compliance Matrix: (Units=1/GPa)
#
#
# Indices 1 2 3 4 5 6 
#
# 1 0.017398 -0.005837 -0.008106 0.000000 0.000000 0.000000
# 2 -0.005837 0.017217 -0.007771 0.000000 0.000000 0.000000
# 3 -0.008106 -0.007771 0.021720 0.000000 0.000000 0.000000
# 4 0.000000 0.000000 0.000000 0.042856 0.000000 0.000000
# 5 0.000000 0.000000 0.000000 0.000000 0.037704 0.000000
# 6 0.000000 0.000000 0.000000 0.000000 0.000000 0.038568
#
#
# Mechanical properties :
#
#
# Convention : Reuss Voigt Hill
#
# Bulk Modulus (GPa) = 77.48459 78.23398 77.85929
# Shear Modulus (GPa) = 22.40214 22.97345 22.68779
#
# Velocity S-wave (km/s) = 3.56258 3.60772 3.58522
# Velocity P-wave (km/s) = 7.79882 7.85352 7.82622
#
# Compressibility (1/GPa) = 0.01290579
#
# Stress axis : x y z
#
# Youngs Moduli (GPa) = 57.47842 58.08255 46.04060
#
# Poissons Ratio (x) = 0.33903 0.37320
# Poissons Ratio (y) = 0.33551 0.35780
# Poissons Ratio (z) = 0.46592 0.45138
#
# Static dielectric constant tensor:
#      x y z
#    x 1.594480 0.000000 0.000000 
#    y 0.000000 1.574050 0.000000 
#    z 0.000000 0.000000 1.606620 
# 
# From -- ./inp_files/5884.got.cif
#   From: 2010.05.17/outbox.cif.g08.bks.cpg/sg63_3_cif.got.tgz:5884.got - 2010.06.03 15:47:04.
