data_PCOD9475465
_publ_section_title
;
Structure prediction by ZEFSAII (Michael W. Deem and Ramdas Pophale) SiO2 
 PCOD9475465
Probable space group: C M C M
;
_chemical_formula_sum "Si O2"
_cell_formula_units_Z 80
_cell_length_a 16.315084
_cell_length_b 19.046987
_cell_length_c 11.209765
_cell_angle_alpha 90.000000
_cell_angle_beta 90.000000
_cell_angle_gamma 90.000000
_cell_volume 3483.470265
_symmetry_space_group_name_H-M "C M C M"
_symmetry_group_IT_number 63
_symmetry_cell_setting 'orthorhombic'
loop_
_space_group_symop_operation_xyz
x,y,z
-x,-y,1/2+z
x,-y,-z
-x,y,1/2-z
-x,-y,-z
x,y,1/2-z
-x,y,z
x,-y,1/2+z
1/2+x,1/2+y,z
1/2-x,1/2-y,1/2+z
1/2+x,1/2-y,-z
1/2-x,1/2+y,1/2-z
1/2-x,1/2-y,-z
1/2+x,1/2+y,1/2-z
1/2-x,1/2+y,z
1/2+x,1/2-y,1/2+z
loop_
_atom_site_type_symbol
_atom_site_label
_atom_site_fract_x
_atom_site_fract_y
_atom_site_fract_z
Si Si1 0.158671 0.433477 0.036640
Si Si2 0.098835 0.821095 0.750000
Si Si3 0.334606 0.454202 0.112794
Si Si4 0.907444 0.323181 0.612467
Si Si5 0.594754 0.843842 0.250000
Si Si6 0.329992 0.696789 0.002785
O O1 0.237471 0.468310 0.100156
O O2 0.127181 0.380962 0.134423
O O3 0.105224 0.500000 0.000000
O O4 0.159899 0.381219 0.924131
O O5 0.112031 0.737465 0.750000
O O6 0.145836 0.839710 0.628330
O O7 0.000000 0.836611 0.750000
O O8 0.362585 0.468620 0.250000
O O9 0.371275 0.500000 0.000000
O O10 0.333118 0.369875 0.086516
O O11 0.896009 0.304180 0.750000
O O12 0.898809 0.252644 0.535710
O O13 0.000000 0.351504 0.596133
O O14 0.500000 0.853339 0.250000
O O15 0.250000 0.750000 0.000000
#
# Coordination Sequence:
#
# PCOD9475465 Si02
#       6
#    16   8  16  16   8  16
#     4  11  23  38  57  85 129 175 223 266 329 397
#     4  11  24  42  67 100 137 178 227 292 358 415
#     4  11  25  44  68  99 136 172 222 284 347 404
#     4  11  24  40  60  91 131 172 220 280 341 401
#     4  11  20  36  57  80 122 172 221 262 315 385
#     4  12  24  40  71  99 132 172 234 279 340 408
#
# _framework density 22.965603999999999
#
# number of rings (size 3 to 8) (size 9 to 14) (size 15 to 20)
#    0.000    0.800    5.000    1.800    5.600    2.400 
#    0.000    0.000    0.000    2.400    0.000    0.000 
#    0.000    0.000    0.000    0.000    0.000    0.000 
#
# Total GULP energy -222707.989717 kJ/mol
# GULP energy per Si atom -5567.699743 kJ/mol
# Density = 2.291333 g / cm^3
# Si number density = 22.965604 Si / 1000 Ang^3
#
#
#
# Elastic Constant Matrix: (Units=GPa)
#
#
# Indices 1 2 3 4 5 6 
#
# 1 45.3004 -12.6335 15.3670 0.0000 0.0000 0.0000
# 2 -12.6335 104.6803 19.1192 0.0000 0.0000 0.0000
# 3 15.3670 19.1192 147.0946 0.0000 0.0000 0.0000
# 4 0.0000 0.0000 0.0000 -61.2200 0.0000 0.0000
# 5 0.0000 0.0000 0.0000 0.0000 52.1366 0.0000
# 6 0.0000 0.0000 0.0000 0.0000 0.0000 7.6291
#
#
#
# Elastic Compliance Matrix: (Units=1/GPa)
#
#
# Indices 1 2 3 4 5 6 
#
# 1 0.024038 0.003441 -0.002959 0.000000 0.000000 0.000000
# 2 0.003441 0.010278 -0.001695 0.000000 0.000000 0.000000
# 3 -0.002959 -0.001695 0.007328 0.000000 0.000000 0.000000
# 4 0.000000 0.000000 0.000000 -0.016335 0.000000 0.000000
# 5 0.000000 0.000000 0.000000 0.000000 0.019180 0.000000
# 6 0.000000 0.000000 0.000000 0.000000 0.000000 0.131076
#
#
# Mechanical properties :
#
#
# Convention : Reuss Voigt Hill
#
# Bulk Modulus (GPa) = 25.49798 37.86453 31.68125
# Shear Modulus (GPa) = 26.16922 18.05732 22.11327
#
# Velocity S-wave (km/s) = 3.37930 2.80710 3.10641
# Velocity P-wave (km/s) = 5.13352 5.19901 5.16637
#
# Compressibility (1/GPa) = 0.03921880
#
# Stress axis : x y z
#
# Youngs Moduli (GPa) = 41.60036 97.29620 136.46656
#
# Poissons Ratio (x) = -0.33484 0.40375
# Poissons Ratio (y) = -0.14317 0.23137
# Poissons Ratio (z) = 0.12308 0.16496
#
# Static dielectric constant tensor:
#      x y z
#    x 2.003100 0.000000 0.000000 
#    y 0.000000 1.916980 0.000000 
#    z 0.000000 0.000000 1.959360 
# 
# From -- ./inp_files/21038.got.cif
#   From: 2010.05.17/outbox.cif.g08.bks.cpg/sg63_11_cif.got.tgz:21038.got - 2010.06.03 15:47:04.
