data_PCOD9475219
_publ_section_title
;
Structure prediction by ZEFSAII (Michael W. Deem and Ramdas Pophale) SiO2 
 PCOD9475219
Probable space group: C M C M
;
_chemical_formula_sum "Si O2"
_cell_formula_units_Z 96
_cell_length_a 11.586702
_cell_length_b 25.140928
_cell_length_c 18.173668
_cell_angle_alpha 90.000000
_cell_angle_beta 90.000000
_cell_angle_gamma 90.000000
_cell_volume 5293.997498
_symmetry_space_group_name_H-M "C M C M"
_symmetry_group_IT_number 63
_symmetry_cell_setting 'orthorhombic'
loop_
_space_group_symop_operation_xyz
x,y,z
-x,-y,1/2+z
x,-y,-z
-x,y,1/2-z
-x,-y,-z
x,y,1/2-z
-x,y,z
x,-y,1/2+z
1/2+x,1/2+y,z
1/2-x,1/2-y,1/2+z
1/2+x,1/2-y,-z
1/2-x,1/2+y,1/2-z
1/2-x,1/2-y,-z
1/2+x,1/2+y,1/2-z
1/2-x,1/2+y,z
1/2+x,1/2-y,1/2+z
loop_
_atom_site_type_symbol
_atom_site_label
_atom_site_fract_x
_atom_site_fract_y
_atom_site_fract_z
Si Si1 0.731704 0.448958 0.837704
Si Si2 0.500000 0.507461 0.660906
Si Si3 0.859549 0.154653 0.087994
Si Si4 0.135704 0.532366 0.924530
Si Si5 0.000000 0.129170 0.837698
Si Si6 0.637659 0.767303 0.334368
Si Si7 0.729167 0.355198 0.422176
O O1 0.731821 0.443681 0.750000
O O2 0.615147 0.478765 0.863396
O O3 0.715850 0.391534 0.873738
O O4 0.832440 0.488551 0.862965
O O5 0.500000 0.506619 0.750000
O O6 0.500000 0.567782 0.637326
O O7 0.837686 0.209481 0.131132
O O8 0.000000 0.144371 0.090561
O O9 0.815190 0.156701 0.004333
O O10 0.213153 0.585756 0.919031
O O11 0.000000 0.546529 0.921893
O O12 0.158482 0.500000 0.000000
O O13 0.117235 0.151026 0.870706
O O14 0.000000 0.132195 0.750000
O O15 0.681989 0.772290 0.250000
O O16 0.500000 0.771930 0.330602
O O17 0.683034 0.812457 0.389058
#
# Coordination Sequence:
#
# PCOD9475219 Si02
#       7
#    16   8  16  16   8  16  16
#     4  11  21  36  61  91 124 156 196 248 304 362
#     4   9  18  31  53  89 121 149 181 230 296 353
#     4  11  22  38  62  94 122 154 201 250 308 363
#     4  11  24  40  59  86 123 165 203 245 298 363
#     4  11  22  35  57  91 126 155 193 247 299 351
#     4  10  23  42  63  87 118 157 204 253 299 356
#     4  12  22  39  63  90 121 159 203 247 302 363
#
# _framework density 18.133744
#
# number of rings (size 3 to 8) (size 9 to 14) (size 15 to 20)
#    0.000    1.167    5.000    2.000    0.000    1.667 
#    0.000    2.500    1.833    0.000    0.000    0.000 
#    0.000    0.000    0.000    0.000    0.000    0.000 
#
# Total GULP energy -267775.258344 kJ/mol
# GULP energy per Si atom -5578.651216 kJ/mol
# Density = 1.809247 g / cm^3
# Si number density = 18.133744 Si / 1000 Ang^3
#
#
#
# Elastic Constant Matrix: (Units=GPa)
#
#
# Indices 1 2 3 4 5 6 
#
# 1 52.7641 20.1604 20.6096 0.0000 0.0000 0.0000
# 2 20.1604 84.3186 30.8552 0.0000 0.0000 0.0000
# 3 20.6096 30.8552 107.2895 0.0000 0.0000 0.0000
# 4 0.0000 0.0000 0.0000 25.1199 0.0000 0.0000
# 5 0.0000 0.0000 0.0000 0.0000 18.2909 0.0000
# 6 0.0000 0.0000 0.0000 0.0000 0.0000 12.0131
#
#
#
# Elastic Compliance Matrix: (Units=1/GPa)
#
#
# Indices 1 2 3 4 5 6 
#
# 1 0.021683 -0.004091 -0.002989 0.000000 0.000000 0.000000
# 2 -0.004091 0.014026 -0.003248 0.000000 0.000000 0.000000
# 3 -0.002989 -0.003248 0.010829 0.000000 0.000000 0.000000
# 4 0.000000 0.000000 0.000000 0.039809 0.000000 0.000000
# 5 0.000000 0.000000 0.000000 0.000000 0.054672 0.000000
# 6 0.000000 0.000000 0.000000 0.000000 0.000000 0.083242
#
#
# Mechanical properties :
#
#
# Convention : Reuss Voigt Hill
#
# Bulk Modulus (GPa) = 38.63522 43.06920 40.85221
# Shear Modulus (GPa) = 19.72049 22.60126 21.16088
#
# Velocity S-wave (km/s) = 3.30131 3.53422 3.41975
# Velocity P-wave (km/s) = 5.99028 6.36056 6.17819
#
# Compressibility (1/GPa) = 0.02588312
#
# Stress axis : x y z
#
# Youngs Moduli (GPa) = 46.11991 71.29408 92.34649
#
# Poissons Ratio (x) = 0.29164 0.27599
# Poissons Ratio (y) = 0.18866 0.29995
# Poissons Ratio (z) = 0.13784 0.23157
#
# Static dielectric constant tensor:
#      x y z
#    x 1.644600 0.000000 0.000000 
#    y 0.000000 1.613610 0.000000 
#    z 0.000000 0.000000 1.619370 
# 
# From -- ./inp_files/42544.got.cif
#   From: 2010.05.17/outbox.cif.g08.bks.cpg/sg63_22_cif.got.tgz:42544.got - 2010.06.03 15:47:04.
