data_PCOD9475911
_publ_section_title
;
Structure prediction by ZEFSAII (Michael W. Deem and Ramdas Pophale) SiO2 
 PCOD9475911
Probable space group: C M C M
;
_chemical_formula_sum "Si O2"
_cell_formula_units_Z 88
_cell_length_a 17.436524
_cell_length_b 16.422973
_cell_length_c 15.587390
_cell_angle_alpha 90.000000
_cell_angle_beta 90.000000
_cell_angle_gamma 90.000000
_cell_volume 4463.598187
_symmetry_space_group_name_H-M "C M C M"
_symmetry_group_IT_number 63
_symmetry_cell_setting 'orthorhombic'
loop_
_space_group_symop_operation_xyz
x,y,z
-x,-y,1/2+z
x,-y,-z
-x,y,1/2-z
-x,-y,-z
x,y,1/2-z
-x,y,z
x,-y,1/2+z
1/2+x,1/2+y,z
1/2-x,1/2-y,1/2+z
1/2+x,1/2-y,-z
1/2-x,1/2+y,1/2-z
1/2-x,1/2-y,-z
1/2+x,1/2+y,1/2-z
1/2-x,1/2+y,z
1/2+x,1/2-y,1/2+z
loop_
_atom_site_type_symbol
_atom_site_label
_atom_site_fract_x
_atom_site_fract_y
_atom_site_fract_z
Si Si1 0.301152 0.457160 0.846331
Si Si2 0.088847 0.171931 0.410002
Si Si3 0.410551 0.393772 0.395055
Si Si4 0.809289 0.500000 0.000000
Si Si5 0.593049 0.215628 0.341004
Si Si6 0.408462 0.851308 0.475161
O O1 0.269603 0.466554 0.750000
O O2 0.350732 0.374734 0.852339
O O3 0.359662 0.531382 0.866138
O O4 0.242234 0.461039 0.925124
O O5 0.093421 0.127514 0.503521
O O6 0.106284 0.267594 0.423863
O O7 0.000000 0.164669 0.381728
O O8 0.500000 0.409238 0.374834
O O9 0.384886 0.310002 0.350359
O O10 0.861237 0.431452 0.045874
O O11 0.620253 0.182127 0.250000
O O12 0.500000 0.215781 0.341296
O O13 0.614255 0.168957 0.426528
O O14 0.500000 0.865812 0.471177
#
# Coordination Sequence:
#
# PCOD9475911 Si02
#       6
#    16  16  16   8  16  16
#     4  12  24  37  55  86 124 166 198 229 297 364
#     4   9  18  37  63  89 115 147 195 248 294 346
#     4   9  16  31  56  85 119 154 190 238 292 345
#     4  12  25  42  59  82 128 156 198 252 291 356
#     4   8  14  27  52  87 115 137 183 246 296 343
#     4   9  20  39  66  86 106 153 204 251 306 343
#
# _framework density 19.715036999999999
#
# number of rings (size 3 to 8) (size 9 to 14) (size 15 to 20)
#    0.000    2.364    1.818    3.545    0.000    5.091 
#    0.000    0.909    0.000    2.727    0.000    0.000 
#    0.000    0.000    0.000    0.000    0.000    0.000 
#
# Total GULP energy -245461.447939 kJ/mol
# GULP energy per Si atom -5578.669271 kJ/mol
# Density = 1.967016 g / cm^3
# Si number density = 19.715037 Si / 1000 Ang^3
#
#
#
# Elastic Constant Matrix: (Units=GPa)
#
#
# Indices 1 2 3 4 5 6 
#
# 1 59.7983 57.5108 20.7252 0.0000 0.0000 0.0000
# 2 57.5108 81.8779 8.4951 0.0000 0.0000 0.0000
# 3 20.7252 8.4951 50.7093 0.0000 0.0000 0.0000
# 4 0.0000 0.0000 0.0000 -0.8233 0.0000 0.0000
# 5 0.0000 0.0000 0.0000 0.0000 -5.1368 0.0000
# 6 0.0000 0.0000 0.0000 0.0000 0.0000 2.4773
#
#
#
# Elastic Compliance Matrix: (Units=1/GPa)
#
#
# Indices 1 2 3 4 5 6 
#
# 1 0.066525 -0.044683 -0.019704 0.000000 0.000000 0.000000
# 2 -0.044683 0.042441 0.011152 0.000000 0.000000 0.000000
# 3 -0.019704 0.011152 0.025905 0.000000 0.000000 0.000000
# 4 0.000000 0.000000 0.000000 -1.214560 0.000000 0.000000
# 5 0.000000 0.000000 0.000000 0.000000 -0.194673 0.000000
# 6 0.000000 0.000000 0.000000 0.000000 0.000000 0.403659
#
#
# Mechanical properties :
#
#
# Convention : Reuss Voigt Hill
#
# Bulk Modulus (GPa) = 35.20791 40.64973 37.92882
# Shear Modulus (GPa) = -6.62458 6.34708 -0.13875
#
# Velocity S-wave (km/s) = -1.83506 1.79622 -0.26558
# Velocity P-wave (km/s) = 3.66159 4.99653 4.38021
#
# Compressibility (1/GPa) = 0.02840271
#
# Stress axis : x y z
#
# Youngs Moduli (GPa) = 15.03184 23.56193 38.60257
#
# Poissons Ratio (x) = 1.05282 0.76062
# Poissons Ratio (y) = 0.67167 -0.43050
# Poissons Ratio (z) = 0.29618 -0.26277
#
# Static dielectric constant tensor:
#      x y z
#    x 1.680950 0.000000 0.000000 
#    y 0.000000 1.692120 0.000000 
#    z 0.000000 0.000000 1.726390 
# 
# From -- ./inp_files/45526.got.cif
#   From: 2010.05.17/outbox.cif.g08.bks.cpg/sg63_23_cif.got.tgz:45526.got - 2010.06.03 15:47:04.
