data_PCOD9475609
_publ_section_title
;
Structure prediction by ZEFSAII (Michael W. Deem and Ramdas Pophale) SiO2 
 PCOD9475609
Probable space group: C M C M
;
_chemical_formula_sum "Si O2"
_cell_formula_units_Z 80
_cell_length_a 27.308170
_cell_length_b 17.747405
_cell_length_c 7.555296
_cell_angle_alpha 90.000000
_cell_angle_beta 90.000000
_cell_angle_gamma 90.000000
_cell_volume 3661.667806
_symmetry_space_group_name_H-M "C M C M"
_symmetry_group_IT_number 63
_symmetry_cell_setting 'orthorhombic'
loop_
_space_group_symop_operation_xyz
x,y,z
-x,-y,1/2+z
x,-y,-z
-x,y,1/2-z
-x,-y,-z
x,y,1/2-z
-x,y,z
x,-y,1/2+z
1/2+x,1/2+y,z
1/2-x,1/2-y,1/2+z
1/2+x,1/2-y,-z
1/2-x,1/2+y,1/2-z
1/2-x,1/2-y,-z
1/2+x,1/2+y,1/2-z
1/2-x,1/2+y,z
1/2+x,1/2-y,1/2+z
loop_
_atom_site_type_symbol
_atom_site_label
_atom_site_fract_x
_atom_site_fract_y
_atom_site_fract_z
Si Si1 0.052312 0.703969 0.460803
Si Si2 0.764230 0.419253 0.458254
Si Si3 0.842908 0.294149 0.539566
Si Si4 0.052879 0.113385 0.539537
Si Si5 0.340873 0.379274 0.467330
O O1 0.050950 0.688179 0.250000
O O2 0.104610 0.676642 0.531568
O O3 0.053605 0.795257 0.477709
O O4 0.000000 0.678074 0.535634
O O5 0.787225 0.500000 0.500000
O O6 0.758815 0.413234 0.250000
O O7 0.798178 0.349833 0.510665
O O8 0.709030 0.416768 0.533322
O O9 0.848847 0.287274 0.750000
O O10 0.835482 0.208528 0.477762
O O11 0.052048 0.097181 0.750000
O O12 0.106325 0.089777 0.469692
O O13 0.000000 0.087709 0.465493
O O14 0.342698 0.381982 0.250000
#
# Coordination Sequence:
#
# PCOD9475609 Si02
#       5
#    16  16  16  16  16
#     4   7  10  18  37  67  96 115 133 166 215 266
#     4  11  22  34  46  62  89 123 157 190 225 265
#     4   9  16  29  50  73  94 115 144 183 225 268
#     4   7   9  16  34  62  92 115 137 171 215 260
#     4   8  15  27  45  69  93 117 147 184 223 265
#
# _framework density 21.847967000000001
#
# number of rings (size 3 to 8) (size 9 to 14) (size 15 to 20)
#    0.000    3.600    0.000    4.800    0.000    0.000 
#    0.000    1.000    0.000    1.800    0.000    0.000 
#    0.000    5.600    0.000    0.000    0.000    0.200 
#
# Total GULP energy -222756.299996 kJ/mol
# GULP energy per Si atom -5568.907500 kJ/mol
# Density = 2.179824 g / cm^3
# Si number density = 21.847967 Si / 1000 Ang^3
#
#
#
# Elastic Constant Matrix: (Units=GPa)
#
#
# Indices 1 2 3 4 5 6 
#
# 1 168.4659 48.6331 3.9128 0.0000 0.0000 0.0000
# 2 48.6331 68.0379 -5.0953 0.0000 0.0000 0.0000
# 3 3.9128 -5.0953 48.5778 0.0000 0.0000 0.0000
# 4 0.0000 0.0000 0.0000 -6.5201 0.0000 0.0000
# 5 0.0000 0.0000 0.0000 0.0000 -0.0780 0.0000
# 6 0.0000 0.0000 0.0000 0.0000 0.0000 -26.8580
#
#
#
# Elastic Compliance Matrix: (Units=1/GPa)
#
#
# Indices 1 2 3 4 5 6 
#
# 1 0.007546 -0.005482 -0.001183 0.000000 0.000000 0.000000
# 2 -0.005482 0.018797 0.002413 0.000000 0.000000 0.000000
# 3 -0.001183 0.002413 0.020934 0.000000 0.000000 0.000000
# 4 0.000000 0.000000 0.000000 -0.153372 0.000000 0.000000
# 5 0.000000 0.000000 0.000000 0.000000-12.815199 0.000000
# 6 0.000000 0.000000 0.000000 0.000000 0.000000 -0.037233
#
#
# Mechanical properties :
#
#
# Convention : Reuss Voigt Hill
#
# Bulk Modulus (GPa) = 25.79110 42.22031 34.00570
# Shear Modulus (GPa) = -0.38649 9.15084 4.38218
#
# Velocity S-wave (km/s) = -0.42105 2.04878 1.41778
# Velocity P-wave (km/s) = 3.40500 4.99632 4.27535
#
# Compressibility (1/GPa) = 0.03877307
#
# Stress axis : x y z
#
# Youngs Moduli (GPa) = 132.51891 53.19915 47.76935
#
# Poissons Ratio (x) = 0.29166 0.05651
# Poissons Ratio (y) = 0.72653 -0.11528
# Poissons Ratio (z) = 0.15675 -0.12838
#
# Static dielectric constant tensor:
#      x y z
#    x 1.918200 0.000000 0.000000 
#    y 0.000000 1.704180 0.000000 
#    z 0.000000 0.000000 1.845410 
# 
# From -- ./inp_files/12029.got.cif
#   From: 2010.05.17/outbox.cif.g08.bks.cpg/sg63_7_cif.got.tgz:12029.got - 2010.06.03 15:47:04.
