data_PCOD9476063
_publ_section_title
;
Structure prediction by ZEFSAII (Michael W. Deem and Ramdas Pophale) SiO2 
 PCOD9476063
Probable space group: C M C M
;
_chemical_formula_sum "Si O2"
_cell_formula_units_Z 48
_cell_length_a 24.000000
_cell_length_b 27.000000
_cell_length_c 9.000000
_cell_angle_alpha 90.000000
_cell_angle_beta 90.000000
_cell_angle_gamma 90.000000
_cell_volume 5832.000000
_symmetry_space_group_name_H-M "C M C M"
_symmetry_group_IT_number 63
_symmetry_cell_setting 'orthorhombic'
loop_
_space_group_symop_operation_xyz
x,y,z
-x,-y,1/2+z
x,-y,-z
-x,y,1/2-z
-x,-y,-z
x,y,1/2-z
-x,y,z
x,-y,1/2+z
1/2+x,1/2+y,z
1/2-x,1/2-y,1/2+z
1/2+x,1/2-y,-z
1/2-x,1/2+y,1/2-z
1/2-x,1/2-y,-z
1/2+x,1/2+y,1/2-z
1/2-x,1/2+y,z
1/2+x,1/2-y,1/2+z
loop_
_atom_site_type_symbol
_atom_site_label
_atom_site_fract_x
_atom_site_fract_y
_atom_site_fract_z
Si Si1 0.739261 0.300325 0.581457
Si Si2 0.850912 0.636130 0.082002
Si Si3 0.434801 0.317945 0.071315
Si Si4 0.832167 0.118871 0.573406
Si Si5 0.933894 0.711525 0.572780
Si Si6 0.763596 0.553939 0.430093
O O1 0.716608 0.296291 0.750000
O O2 0.750000 0.250000 0.500000
O O3 0.798549 0.327022 0.592243
O O4 0.700464 0.331844 0.473936
O O5 0.871753 0.626455 0.250000
O O6 0.818069 0.587007 0.025256
O O7 0.897662 0.665777 0.990558
O O8 0.430079 0.311832 0.250000
O O9 0.500000 0.326530 0.034626
O O10 0.395359 0.364847 0.031531
O O11 0.418070 0.265202 0.997554
O O12 0.830039 0.109252 0.750000
O O13 0.794704 0.077856 0.488965
O O14 0.926533 0.714272 0.750000
O O15 0.000000 0.704441 0.540813
O O16 0.768793 0.500000 0.500000
O O17 0.762087 0.553835 0.250000
#
# Coordination Sequence:
#
# PCOD9476063 Si02
#       6
#    16  16  16  16  16  16
#     4  10  19  29  42  65  97 128 160 198 241 290
#     4   9  19  33  48  68  94 126 161 196 238 291
#     4   9  18  32  49  70 100 138 173 202 235 281
#     4  10  19  31  49  72  97 127 163 201 244 292
#     4  10  20  31  46  72 103 134 168 204 239 278
#     4  10  21  37  56  77  99 123 157 202 253 303
#
# _framework density 8.2304530000000007
#
# number of rings (size 3 to 8) (size 9 to 14) (size 15 to 20)
#    0.000    2.333    0.000    4.000    0.000   10.333 
#    0.000    0.000    0.000    1.000    0.000    0.000 
#    0.000    0.000    0.000    0.000    0.000    0.000 
#
# Total GULP energy -267225.866669 kJ/mol
# GULP energy per Si atom -5567.205556 kJ/mol
# Density = 0.821172 g / cm^3
# Si number density = 8.230453 Si / 1000 Ang^3
#
#
#
# Elastic Constant Matrix: (Units=GPa)
#
#
# Indices 1 2 3 4 5 6 
#
# 1 71.1830 22.3562 24.0873 0.0000 0.0000 0.0000
# 2 22.3562 80.4080 19.0816 0.0000 0.0000 0.0000
# 3 24.0873 19.0816 46.1220 0.0000 0.0000 0.0000
# 4 0.0000 0.0000 0.0000 20.0814 0.0000 0.0000
# 5 0.0000 0.0000 0.0000 0.0000 26.2658 0.0000
# 6 0.0000 0.0000 0.0000 0.0000 0.0000 23.2382
#
#
#
# Elastic Compliance Matrix: (Units=1/GPa)
#
#
# Indices 1 2 3 4 5 6 
#
# 1 0.017703 -0.003025 -0.007994 0.000000 0.000000 0.000000
# 2 -0.003025 0.014307 -0.004339 0.000000 0.000000 0.000000
# 3 -0.007994 -0.004339 0.027652 0.000000 0.000000 0.000000
# 4 0.000000 0.000000 0.000000 0.049797 0.000000 0.000000
# 5 0.000000 0.000000 0.000000 0.000000 0.038072 0.000000
# 6 0.000000 0.000000 0.000000 0.000000 0.000000 0.043033
#
#
# Mechanical properties :
#
#
# Convention : Reuss Voigt Hill
#
# Bulk Modulus (GPa) = 34.54765 36.52922 35.53843
# Shear Modulus (GPa) = 21.65152 22.72962 22.19057
#
# Velocity S-wave (km/s) = 3.63068 3.71998 3.67560
# Velocity P-wave (km/s) = 6.21362 6.37892 6.29681
#
# Compressibility (1/GPa) = 0.02894553
#
# Stress axis : x y z
#
# Youngs Moduli (GPa) = 56.48607 69.89373 36.16397
#
# Poissons Ratio (x) = 0.21143 0.28910
# Poissons Ratio (y) = 0.17088 0.15693
# Poissons Ratio (z) = 0.45156 0.30330
#
# Static dielectric constant tensor:
#      x y z
#    x 1.569450 0.000000 0.000000 
#    y 0.000000 1.534440 0.000000 
#    z 0.000000 0.000000 1.567660 
# 
# From -- ./inp_files/8601.got.cif
#   From: 2010.05.17/outbox.ucp.g08.bks.cvg/sg63_5_cif.got.tgz:8601.got - 2010.06.11 16:32:19.
