data_PCOD9476421
_publ_section_title
;
Structure prediction by ZEFSAII (Michael W. Deem and Ramdas Pophale) SiO2 
 PCOD9476421
Probable space group: C M C A
;
_chemical_formula_sum "Si O2"
_cell_formula_units_Z 80
_cell_length_a 8.424248
_cell_length_b 29.007686
_cell_length_c 18.435853
_cell_angle_alpha 90.000000
_cell_angle_beta 90.000000
_cell_angle_gamma 90.000000
_cell_volume 4505.131434
_symmetry_space_group_name_H-M "C M C A"
_symmetry_group_IT_number 64
_symmetry_cell_setting 'orthorhombic'
loop_
_space_group_symop_operation_xyz
x,y,z
-x,1/2-y,1/2+z
x,-y,-z
-x,1/2+y,1/2-z
-x,-y,-z
x,1/2+y,1/2-z
-x,y,z
x,1/2-y,1/2+z
1/2+x,1/2+y,z
1/2-x,-y,1/2+z
1/2+x,1/2-y,-z
1/2-x,y,1/2-z
1/2-x,1/2-y,-z
1/2+x,y,1/2-z
1/2-x,1/2+y,z
1/2+x,-y,1/2+z
loop_
_atom_site_type_symbol
_atom_site_label
_atom_site_fract_x
_atom_site_fract_y
_atom_site_fract_z
Si Si1 0.687367 0.800438 0.018687
Si Si2 0.686207 0.394104 0.978615
Si Si3 0.184644 0.830692 0.173596
Si Si4 0.814133 0.924373 0.367907
Si Si5 0.691243 0.480614 0.580011
O O1 0.500000 0.803299 0.007202
O O2 0.726482 0.811383 0.102976
O O3 0.750000 0.750000 0.000000
O O4 0.772002 0.840421 0.971218
O O5 0.500000 0.398685 0.996182
O O6 0.730991 0.430322 0.915709
O O7 0.791854 0.409845 0.047645
O O8 0.250000 0.813034 0.250000
O O9 0.211825 0.886067 0.172210
O O10 0.000000 0.820602 0.165938
O O11 0.000000 0.919996 0.348831
O O12 0.764894 0.978030 0.365125
O O13 0.737445 0.500000 0.500000
O O14 0.500000 0.476587 0.581543
#
# Coordination Sequence:
#
# PCOD9476421 Si02
#       5
#    16  16  16  16  16
#     4  11  21  35  52  72  99 130 167 213 263 309
#     4  10  17  25  40  64  92 122 156 194 238 286
#     4  11  21  34  51  73 100 131 166 204 251 305
#     4   9  16  27  42  62  90 123 156 191 233 281
#     4   8  14  24  38  58  87 121 152 183 223 270
#
# _framework density 17.757528000000001
#
# number of rings (size 3 to 8) (size 9 to 14) (size 15 to 20)
#    0.000    2.200    0.000    9.600    0.000    4.400 
#    0.000    0.000    0.000    0.000    0.000    1.400 
#    0.000    6.400    0.000    0.000    0.000    0.000 
#
# Total GULP energy -222808.136973 kJ/mol
# GULP energy per Si atom -5570.203424 kJ/mol
# Density = 1.771711 g / cm^3
# Si number density = 17.757528 Si / 1000 Ang^3
#
#
#
# Elastic Constant Matrix: (Units=GPa)
#
#
# Indices 1 2 3 4 5 6 
#
# 1 58.4963 11.4982 0.5662 0.0000 0.0000 0.0000
# 2 11.4982 128.2442 17.9428 0.0000 0.0000 0.0000
# 3 0.5662 17.9428 27.4343 0.0000 0.0000 0.0000
# 4 0.0000 0.0000 0.0000 7.2544 0.0000 0.0000
# 5 0.0000 0.0000 0.0000 0.0000 15.2938 0.0000
# 6 0.0000 0.0000 0.0000 0.0000 0.0000 30.4205
#
#
#
# Elastic Compliance Matrix: (Units=1/GPa)
#
#
# Indices 1 2 3 4 5 6 
#
# 1 0.017415 -0.001663 0.000728 0.000000 0.000000 0.000000
# 2 -0.001663 0.008742 -0.005683 0.000000 0.000000 0.000000
# 3 0.000728 -0.005683 0.040153 0.000000 0.000000 0.000000
# 4 0.000000 0.000000 0.000000 0.137848 0.000000 0.000000
# 5 0.000000 0.000000 0.000000 0.000000 0.065386 0.000000
# 6 0.000000 0.000000 0.000000 0.000000 0.000000 0.032873
#
#
# Mechanical properties :
#
#
# Convention : Reuss Voigt Hill
#
# Bulk Modulus (GPa) = 18.84177 30.46545 24.65361
# Shear Modulus (GPa) = 14.99955 22.87157 18.93556
#
# Velocity S-wave (km/s) = 2.90950 3.59276 3.26903
# Velocity P-wave (km/s) = 4.68194 5.86550 5.30682
#
# Compressibility (1/GPa) = 0.05307358
#
# Stress axis : x y z
#
# Youngs Moduli (GPa) = 57.42177 114.39181 24.90497
#
# Poissons Ratio (x) = 0.19027 -0.01814
# Poissons Ratio (y) = 0.09551 0.14154
# Poissons Ratio (z) = -0.04183 0.65010
#
# Static dielectric constant tensor:
#      x y z
#    x 1.615940 0.000000 0.000000 
#    y 0.000000 1.677950 0.000000 
#    z 0.000000 0.000000 1.638080 
# 
# From -- ./inp_files/29976.got.cif
#   From: 2010.05.17/outbox.cif.g08.bks.cpg/sg64_15_cif.got.tgz:29976.got - 2010.06.03 16:29:19.
