data_PCOD9476409
_publ_section_title
;
Structure prediction by ZEFSAII (Michael W. Deem and Ramdas Pophale) SiO2 
 PCOD9476409
Probable space group: C M C A
;
_chemical_formula_sum "Si O2"
_cell_formula_units_Z 88
_cell_length_a 20.043188
_cell_length_b 11.612187
_cell_length_c 18.707039
_cell_angle_alpha 90.000000
_cell_angle_beta 90.000000
_cell_angle_gamma 90.000000
_cell_volume 4353.974415
_symmetry_space_group_name_H-M "C M C A"
_symmetry_group_IT_number 64
_symmetry_cell_setting 'orthorhombic'
loop_
_space_group_symop_operation_xyz
x,y,z
-x,1/2-y,1/2+z
x,-y,-z
-x,1/2+y,1/2-z
-x,-y,-z
x,1/2+y,1/2-z
-x,y,z
x,1/2-y,1/2+z
1/2+x,1/2+y,z
1/2-x,-y,1/2+z
1/2+x,1/2-y,-z
1/2-x,y,1/2-z
1/2-x,1/2-y,-z
1/2+x,y,1/2-z
1/2-x,1/2+y,z
1/2+x,-y,1/2+z
loop_
_atom_site_type_symbol
_atom_site_label
_atom_site_fract_x
_atom_site_fract_y
_atom_site_fract_z
Si Si1 0.077129 0.515509 0.854844
Si Si2 0.148401 0.720203 0.120438
Si Si3 0.800243 0.129612 0.131658
Si Si4 0.326065 0.076133 0.728306
Si Si5 0.852801 0.827427 0.458322
Si Si6 0.736728 0.500000 0.000000
O O1 0.097512 0.381432 0.859095
O O2 0.125207 0.571151 0.795477
O O3 0.094684 0.579199 0.929668
O O4 0.000000 0.529505 0.837611
O O5 0.222720 0.667239 0.132997
O O6 0.147360 0.834025 0.168955
O O7 0.137028 0.734258 0.034830
O O8 0.842308 0.237509 0.105493
O O9 0.821067 0.055001 0.199046
O O10 0.805224 0.041971 0.065808
O O11 0.250000 0.109627 0.750000
O O12 0.784594 0.898895 0.471054
#
# Coordination Sequence:
#
# PCOD9476409 Si02
#       6
#    16  16  16  16  16   8
#     4  12  27  45  65  94 135 181 227 273 333 412
#     4  11  23  41  67  96 130 174 223 275 330 390
#     4  11  20  35  65 100 131 166 210 276 337 383
#     4  12  25  42  66 101 138 177 222 277 342 400
#     4  11  21  40  66  98 133 171 223 278 330 389
#     4  10  16  36  59 104 133 158 214 270 334 382
#
# _framework density 20.211418999999999
#
# number of rings (size 3 to 8) (size 9 to 14) (size 15 to 20)
#    0.000    0.727    5.455    5.455    5.091    2.182 
#    0.000    0.000    0.000    0.000    0.000    5.091 
#    0.000    0.000    0.000    0.000    0.000    0.000 
#
# Total GULP energy -245815.761531 kJ/mol
# GULP energy per Si atom -5586.721853 kJ/mol
# Density = 2.016542 g / cm^3
# Si number density = 20.211419 Si / 1000 Ang^3
#
#
#
# Elastic Constant Matrix: (Units=GPa)
#
#
# Indices 1 2 3 4 5 6 
#
# 1 91.4989 18.4972 48.0838 0.0000 0.0000 0.0000
# 2 18.4972 81.0576 56.3923 0.0000 0.0000 0.0000
# 3 48.0838 56.3923 114.1327 0.0000 0.0000 0.0000
# 4 0.0000 0.0000 0.0000 54.0653 0.0000 0.0000
# 5 0.0000 0.0000 0.0000 0.0000 7.7025 0.0000
# 6 0.0000 0.0000 0.0000 0.0000 0.0000 5.8338
#
#
#
# Elastic Compliance Matrix: (Units=1/GPa)
#
#
# Indices 1 2 3 4 5 6 
#
# 1 0.014140 0.001398 -0.006648 0.000000 0.000000 0.000000
# 2 0.001398 0.018937 -0.009946 0.000000 0.000000 0.000000
# 3 -0.006648 -0.009946 0.016477 0.000000 0.000000 0.000000
# 4 0.000000 0.000000 0.000000 0.018496 0.000000 0.000000
# 5 0.000000 0.000000 0.000000 0.000000 0.129829 0.000000
# 6 0.000000 0.000000 0.000000 0.000000 0.000000 0.171415
#
#
# Mechanical properties :
#
#
# Convention : Reuss Voigt Hill
#
# Bulk Modulus (GPa) = 52.18441 59.18176 55.68308
# Shear Modulus (GPa) = 12.31306 24.43469 18.37387
#
# Velocity S-wave (km/s) = 2.47090 3.48077 3.01837
# Velocity P-wave (km/s) = 5.83231 6.74532 6.30536
#
# Compressibility (1/GPa) = 0.01916281
#
# Stress axis : x y z
#
# Youngs Moduli (GPa) = 70.72102 52.80602 60.69145
#
# Poissons Ratio (x) = -0.07384 0.40348
# Poissons Ratio (y) = -0.09890 0.60363
# Poissons Ratio (z) = 0.47016 0.52520
#
# Static dielectric constant tensor:
#      x y z
#    x 1.666670 0.000000 0.000000 
#    y 0.000000 1.794230 0.000000 
#    z 0.000000 0.000000 1.782250 
# 
# From -- ./inp_files/34121.got.cif
#   From: 2010.05.17/outbox.cif.g08.bks.cpg/sg64_18_cif.got.tgz:34121.got - 2010.06.03 16:29:19.
