data_PCOD9476590
_publ_section_title
;
Structure prediction by ZEFSAII (Michael W. Deem and Ramdas Pophale) SiO2 
 PCOD9476590
Probable space group: C M C A
;
_chemical_formula_sum "Si O2"
_cell_formula_units_Z 56
_cell_length_a 23.064857
_cell_length_b 23.252508
_cell_length_c 5.185511
_cell_angle_alpha 90.000000
_cell_angle_beta 90.000000
_cell_angle_gamma 90.000000
_cell_volume 2781.071335
_symmetry_space_group_name_H-M "C M C A"
_symmetry_group_IT_number 64
_symmetry_cell_setting 'orthorhombic'
loop_
_space_group_symop_operation_xyz
x,y,z
-x,1/2-y,1/2+z
x,-y,-z
-x,1/2+y,1/2-z
-x,-y,-z
x,1/2+y,1/2-z
-x,y,z
x,1/2-y,1/2+z
1/2+x,1/2+y,z
1/2-x,-y,1/2+z
1/2+x,1/2-y,-z
1/2-x,y,1/2-z
1/2-x,1/2-y,-z
1/2+x,y,1/2-z
1/2-x,1/2+y,z
1/2+x,-y,1/2+z
loop_
_atom_site_type_symbol
_atom_site_label
_atom_site_fract_x
_atom_site_fract_y
_atom_site_fract_z
Si Si1 0.376516 0.661474 0.669104
Si Si2 0.687962 0.560883 0.889591
Si Si3 0.312329 0.176738 0.337421
Si Si4 0.500000 0.288905 0.214477
O O1 0.357182 0.594938 0.705873
O O2 0.359544 0.681909 0.385896
O O3 0.442163 0.674243 0.739737
O O4 0.335969 0.693983 0.881252
O O5 0.750000 0.554158 0.750000
O O6 0.668900 0.500000 0.000000
O O7 0.804835 0.607997 0.385644
O O8 0.250000 0.199507 0.250000
O O9 0.500000 0.238949 0.431348
#
# Coordination Sequence:
#
# PCOD9476590 Si02
#       4
#    16  16  16   8
#     4  10  22  37  61  91 123 161 208 262 307 356
#     4  10  20  31  61  97 135 167 199 230 298 382
#     4  10  17  35  58  89 128 160 192 244 304 372
#     4  12  26  48  71  85 109 165 232 272 314 370
#
# _framework density 20.136123999999999
#
# number of rings (size 3 to 8) (size 9 to 14) (size 15 to 20)
#    1.714    0.000    2.857    3.429    0.000    0.000 
#    0.000    0.714    0.000   30.857    0.000    0.000 
#    0.000    0.000    0.000    0.000    0.000    0.000 
#
# Total GULP energy -156150.051102 kJ/mol
# GULP energy per Si atom -5576.787539 kJ/mol
# Density = 2.009029 g / cm^3
# Si number density = 20.136124 Si / 1000 Ang^3
#
#
#
# Elastic Constant Matrix: (Units=GPa)
#
#
# Indices 1 2 3 4 5 6 
#
# 1 77.3076 -2.4130 -15.8940 0.0000 0.0000 0.0000
# 2 -2.4130 103.7727 -15.1636 0.0000 0.0000 0.0000
# 3 -15.8940 -15.1636 76.5997 0.0000 0.0000 0.0000
# 4 0.0000 0.0000 0.0000 -4.2226 0.0000 0.0000
# 5 0.0000 0.0000 0.0000 0.0000 30.3172 0.0000
# 6 0.0000 0.0000 0.0000 0.0000 0.0000 17.2357
#
#
#
# Elastic Compliance Matrix: (Units=1/GPa)
#
#
# Indices 1 2 3 4 5 6 
#
# 1 0.013568 0.000749 0.002963 0.000000 0.000000 0.000000
# 2 0.000749 0.009965 0.002128 0.000000 0.000000 0.000000
# 3 0.002963 0.002128 0.014091 0.000000 0.000000 0.000000
# 4 0.000000 0.000000 0.000000 -0.236823 0.000000 0.000000
# 5 0.000000 0.000000 0.000000 0.000000 0.032985 0.000000
# 6 0.000000 0.000000 0.000000 0.000000 0.000000 0.058019
#
#
# Mechanical properties :
#
#
# Convention : Reuss Voigt Hill
#
# Bulk Modulus (GPa) = 20.28250 21.19321 20.73786
# Shear Modulus (GPa) = -48.33696 28.07610 -10.13043
#
# Velocity S-wave (km/s) = -4.90482 3.73810 -2.24542
# Velocity P-wave (km/s) = 4.68847 5.40176 1.89701
#
# Compressibility (1/GPa) = 0.04930358
#
# Stress axis : x y z
#
# Youngs Moduli (GPa) = 73.70296 100.35336 70.96721
#
# Poissons Ratio (x) = -0.07512 -0.21031
# Poissons Ratio (y) = -0.05517 -0.15101
# Poissons Ratio (z) = -0.21842 -0.21354
#
# Static dielectric constant tensor:
#      x y z
#    x 1.678230 0.000000 0.000000 
#    y 0.000000 1.757330 0.000000 
#    z 0.000000 0.000000 1.738410 
# 
# From -- ./inp_files/1743.got.cif
#   From: 2010.05.17/outbox.cif.g08.bks.cpg/sg64_1_cif.got.tgz:1743.got - 2010.06.03 16:29:19.
