data_PCOD9476684
_publ_section_title
;
Structure prediction by ZEFSAII (Michael W. Deem and Ramdas Pophale) SiO2 
 PCOD9476684
Probable space group: C M C A
;
_chemical_formula_sum "Si O2"
_cell_formula_units_Z 64
_cell_length_a 22.505531
_cell_length_b 13.012271
_cell_length_c 8.798113
_cell_angle_alpha 90.000000
_cell_angle_beta 90.000000
_cell_angle_gamma 90.000000
_cell_volume 2576.510397
_symmetry_space_group_name_H-M "C M C A"
_symmetry_group_IT_number 64
_symmetry_cell_setting 'orthorhombic'
loop_
_space_group_symop_operation_xyz
x,y,z
-x,1/2-y,1/2+z
x,-y,-z
-x,1/2+y,1/2-z
-x,-y,-z
x,1/2+y,1/2-z
-x,y,z
x,1/2-y,1/2+z
1/2+x,1/2+y,z
1/2-x,-y,1/2+z
1/2+x,1/2-y,-z
1/2-x,y,1/2-z
1/2-x,1/2-y,-z
1/2+x,y,1/2-z
1/2-x,1/2+y,z
1/2+x,-y,1/2+z
loop_
_atom_site_type_symbol
_atom_site_label
_atom_site_fract_x
_atom_site_fract_y
_atom_site_fract_z
Si Si1 0.933917 0.792977 0.348798
Si Si2 0.564480 0.044286 0.330031
Si Si3 0.188414 0.895780 0.798047
Si Si4 0.647131 0.278264 0.085826
O O1 0.937253 0.668956 0.338488
O O2 0.886618 0.805994 0.481126
O O3 0.905699 0.826958 0.189378
O O4 0.000000 0.827986 0.383751
O O5 0.500000 0.015978 0.260530
O O6 0.630761 0.034516 0.261889
O O7 0.564560 0.000000 0.500000
O O8 0.250000 0.946739 0.750000
O O9 0.185598 0.789895 0.700043
O O10 0.180621 0.857334 0.973959
#
# Coordination Sequence:
#
# PCOD9476684 Si02
#       4
#    16  16  16  16
#     4   9  15  25  44  70  97 124 159 203 245 289
#     4   8  15  28  46  67  89 119 160 199 233 274
#     4  10  18  29  47  70  99 130 161 199 245 297
#     4   8  16  26  40  66  95 126 159 194 242 294
#
# _framework density 24.839798999999999
#
# number of rings (size 3 to 8) (size 9 to 14) (size 15 to 20)
#    0.000    3.750    0.000    1.500    0.000    2.000 
#    0.000    0.000    0.000   18.000    0.000   84.000 
#    0.000  353.000    0.000    0.000    0.000    0.500 
#
# Total GULP energy -178296.015754 kJ/mol
# GULP energy per Si atom -5571.750492 kJ/mol
# Density = 2.478326 g / cm^3
# Si number density = 24.839799 Si / 1000 Ang^3
#
#
#
# Elastic Constant Matrix: (Units=GPa)
#
#
# Indices 1 2 3 4 5 6 
#
# 1 228.7768 3.7866 38.3741 0.0000 0.0000 0.0000
# 2 3.7866 71.1643 4.2975 0.0000 0.0000 0.0000
# 3 38.3741 4.2975 101.1764 0.0000 0.0000 0.0000
# 4 0.0000 0.0000 0.0000 25.1482 0.0000 0.0000
# 5 0.0000 0.0000 0.0000 0.0000 27.5903 0.0000
# 6 0.0000 0.0000 0.0000 0.0000 0.0000 -7.9846
#
#
#
# Elastic Compliance Matrix: (Units=1/GPa)
#
#
# Indices 1 2 3 4 5 6 
#
# 1 0.004669 -0.000142 -0.001765 0.000000 0.000000 0.000000
# 2 -0.000142 0.014092 -0.000545 0.000000 0.000000 0.000000
# 3 -0.001765 -0.000545 0.010576 0.000000 0.000000 0.000000
# 4 0.000000 0.000000 0.000000 0.039764 0.000000 0.000000
# 5 0.000000 0.000000 0.000000 0.000000 0.036245 0.000000
# 6 0.000000 0.000000 0.000000 0.000000 0.000000 -0.125241
#
#
# Mechanical properties :
#
#
# Convention : Reuss Voigt Hill
#
# Bulk Modulus (GPa) = 40.92508 54.89267 47.90887
# Shear Modulus (GPa) = -730.35060 32.59473 -348.87794
#
# Velocity S-wave (km/s) = -17.16574 3.62636 -11.86407
# Velocity P-wave (km/s) = 19.40031 6.29925 12.97481
#
# Compressibility (1/GPa) = 0.02443490
#
# Stress axis : x y z
#
# Youngs Moduli (GPa) = 214.15675 70.96006 94.55101
#
# Poissons Ratio (x) = 0.01007 0.16688
# Poissons Ratio (y) = 0.03038 0.05151
# Poissons Ratio (z) = 0.37799 0.03866
#
# Static dielectric constant tensor:
#      x y z
#    x 2.128200 0.000000 0.000000 
#    y 0.000000 1.993420 0.000000 
#    z 0.000000 0.000000 1.974950 
# 
# From -- ./inp_files/8976.got.cif
#   From: 2010.05.17/outbox.cif.g08.bks.cpg/sg64_5_cif.got.tgz:8976.got - 2010.06.03 16:29:19.
