data_PCOD9476697
_publ_section_title
;
Structure prediction by ZEFSAII (Michael W. Deem and Ramdas Pophale) SiO2 
 PCOD9476697
Probable space group: C M C A
;
_chemical_formula_sum "Si O2"
_cell_formula_units_Z 128
_cell_length_a 15.126092
_cell_length_b 18.889401
_cell_length_c 21.215243
_cell_angle_alpha 90.000000
_cell_angle_beta 90.000000
_cell_angle_gamma 90.000000
_cell_volume 6061.679001
_symmetry_space_group_name_H-M "C M C A"
_symmetry_group_IT_number 64
_symmetry_cell_setting 'orthorhombic'
loop_
_space_group_symop_operation_xyz
x,y,z
-x,1/2-y,1/2+z
x,-y,-z
-x,1/2+y,1/2-z
-x,-y,-z
x,1/2+y,1/2-z
-x,y,z
x,1/2-y,1/2+z
1/2+x,1/2+y,z
1/2-x,-y,1/2+z
1/2+x,1/2-y,-z
1/2-x,y,1/2-z
1/2-x,1/2-y,-z
1/2+x,y,1/2-z
1/2-x,1/2+y,z
1/2+x,-y,1/2+z
loop_
_atom_site_type_symbol
_atom_site_label
_atom_site_fract_x
_atom_site_fract_y
_atom_site_fract_z
Si Si1 0.654049 0.158800 0.566162
Si Si2 0.599344 0.432679 0.963009
Si Si3 0.892644 0.899028 0.697221
Si Si4 0.399203 0.083141 0.331075
Si Si5 0.347308 0.938790 0.173532
Si Si6 0.337606 0.921183 0.031962
Si Si7 0.136656 0.919122 0.190306
Si Si8 0.604240 0.813010 0.925711
O O1 0.593682 0.132103 0.509590
O O2 0.743684 0.116330 0.548298
O O3 0.613737 0.132922 0.633011
O O4 0.660920 0.242549 0.564427
O O5 0.500000 0.456421 0.944847
O O6 0.646817 0.410078 0.898751
O O7 0.637458 0.500000 0.000000
O O8 0.859756 0.883115 0.768090
O O9 0.869327 0.847044 0.641133
O O10 0.000000 0.902219 0.700041
O O11 0.860109 0.977460 0.681447
O O12 0.500000 0.110614 0.335655
O O13 0.399524 0.998204 0.320883
O O14 0.379472 0.922665 0.102632
O O15 0.242773 0.924574 0.181393
O O16 0.386606 0.902141 0.236873
O O17 0.382911 0.870279 0.980940
O O18 0.334196 0.000000 0.000000
O O19 0.500000 0.794066 0.922846
#
# Coordination Sequence:
#
# PCOD9476697 Si02
#       8
#    16  16  16  16  16  16  16  16
#     4  11  22  36  56  83 118 155 189 233 297 357
#     4  10  18  29  49  80 115 149 190 234 281 340
#     4   9  18  34  54  77 107 145 191 237 283 334
#     4   9  17  29  49  78 109 142 190 241 279 327
#     4   9  18  34  56  83 111 139 191 244 283 326
#     4  11  22  38  62  89 116 150 198 250 288 339
#     4   9  18  32  55  81 111 147 182 237 287 341
#     4  11  24  40  58  83 120 160 194 235 295 356
#
# _framework density 21.116261999999999
#
# number of rings (size 3 to 8) (size 9 to 14) (size 15 to 20)
#    0.000    2.125    2.500    1.125    1.750    1.250 
#    0.000    1.250    0.000   13.500    0.000    0.000 
#    0.000    0.000    0.000    0.000    0.000    0.000 
#
# Total GULP energy -356528.293085 kJ/mol
# GULP energy per Si atom -5570.754579 kJ/mol
# Density = 2.106820 g / cm^3
# Si number density = 21.116262 Si / 1000 Ang^3
#
#
#
# Elastic Constant Matrix: (Units=GPa)
#
#
# Indices 1 2 3 4 5 6 
#
# 1 26.3285 -2.2643 10.7613 0.0000 0.0000 0.0000
# 2 -2.2643 92.6608 67.8590 0.0000 0.0000 0.0000
# 3 10.7613 67.8590 231.7443 0.0000 0.0000 0.0000
# 4 0.0000 0.0000 0.0000 21.2065 0.0000 0.0000
# 5 0.0000 0.0000 0.0000 0.0000 43.9387 0.0000
# 6 0.0000 0.0000 0.0000 0.0000 0.0000 17.4557
#
#
#
# Elastic Compliance Matrix: (Units=1/GPa)
#
#
# Indices 1 2 3 4 5 6 
#
# 1 0.039330 0.002926 -0.002683 0.000000 0.000000 0.000000
# 2 0.002926 0.013956 -0.004222 0.000000 0.000000 0.000000
# 3 -0.002683 -0.004222 0.005676 0.000000 0.000000 0.000000
# 4 0.000000 0.000000 0.000000 0.047155 0.000000 0.000000
# 5 0.000000 0.000000 0.000000 0.000000 0.022759 0.000000
# 6 0.000000 0.000000 0.000000 0.000000 0.000000 0.057288
#
#
# Mechanical properties :
#
#
# Convention : Reuss Voigt Hill
#
# Bulk Modulus (GPa) = 19.60673 55.93841 37.77257
# Shear Modulus (GPa) = 23.68275 34.81201 29.24738
#
# Velocity S-wave (km/s) = 3.35257 4.06469 3.72568
# Velocity P-wave (km/s) = 4.92865 6.96973 6.03609
#
# Compressibility (1/GPa) = 0.05100288
#
# Stress axis : x y z
#
# Youngs Moduli (GPa) = 25.42592 71.65495 176.17769
#
# Poissons Ratio (x) = -0.20967 0.47271
# Poissons Ratio (y) = -0.07440 0.74389
# Poissons Ratio (z) = 0.06822 0.30255
#
# Static dielectric constant tensor:
#      x y z
#    x 1.858770 0.000000 0.000000 
#    y 0.000000 1.710480 0.000000 
#    z 0.000000 0.000000 1.866450 
# 
# From -- ./inp_files/40547.got.cif
#   From: 2010.05.17/outbox.cif.g08.bks.cpg/sg64_21_cif.got.tgz:40547.got - 2010.06.03 16:29:19.
