data_PCOD9476594
_publ_section_title
;
Structure prediction by ZEFSAII (Michael W. Deem and Ramdas Pophale) SiO2 
 PCOD9476594
Probable space group: C M C A
;
_chemical_formula_sum "Si O2"
_cell_formula_units_Z 80
_cell_length_a 14.785283
_cell_length_b 26.123284
_cell_length_c 9.370889
_cell_angle_alpha 90.000000
_cell_angle_beta 90.000000
_cell_angle_gamma 90.000000
_cell_volume 3619.413543
_symmetry_space_group_name_H-M "C M C A"
_symmetry_group_IT_number 64
_symmetry_cell_setting 'orthorhombic'
loop_
_space_group_symop_operation_xyz
x,y,z
-x,1/2-y,1/2+z
x,-y,-z
-x,1/2+y,1/2-z
-x,-y,-z
x,1/2+y,1/2-z
-x,y,z
x,1/2-y,1/2+z
1/2+x,1/2+y,z
1/2-x,-y,1/2+z
1/2+x,1/2-y,-z
1/2-x,y,1/2-z
1/2-x,1/2-y,-z
1/2+x,y,1/2-z
1/2-x,1/2+y,z
1/2+x,-y,1/2+z
loop_
_atom_site_type_symbol
_atom_site_label
_atom_site_fract_x
_atom_site_fract_y
_atom_site_fract_z
Si Si1 0.000000 0.587655 0.998502
Si Si2 0.500000 0.497813 0.266425
Si Si3 0.682141 0.731292 0.878101
Si Si4 0.137942 0.844370 0.642354
Si Si5 0.154231 0.636218 0.452994
Si Si6 0.680327 0.466046 0.122119
O O1 0.000000 0.544169 0.121451
O O2 0.916792 0.625769 0.022343
O O3 0.000000 0.555801 0.853878
O O4 0.592279 0.496676 0.176491
O O5 0.750000 0.715806 0.750000
O O6 0.627071 0.782917 0.843235
O O7 0.750000 0.750000 0.000000
O O8 0.628777 0.684222 0.947011
O O9 0.109325 0.866012 0.797382
O O10 0.241608 0.854894 0.597984
O O11 0.148915 0.585932 0.547385
O O12 0.750000 0.456844 0.250000
O O13 0.727897 0.500000 0.000000
#
# Coordination Sequence:
#
# PCOD9476594 Si02
#       6
#     8   8  16  16  16  16
#     4  11  24  42  69  85 140 167 223 260 356 406
#     4  11  27  48  63  99 136 179 214 292 343 402
#     4  10  17  35  62  92 125 165 217 264 328 385
#     4  10  20  38  63  96 121 180 213 273 327 402
#     4  10  21  38  67  95 133 167 229 270 325 397
#     4  12  27  43  71 103 135 177 230 278 341 404
#
# _framework density 22.103028999999999
#
# number of rings (size 3 to 8) (size 9 to 14) (size 15 to 20)
#    0.000    1.400    4.000    3.300    8.400    2.400 
#    0.000    2.000    0.000    0.000    0.000    0.000 
#    0.000    0.000    0.000    0.000    0.000    0.000 
#
# Total GULP energy -223365.712600 kJ/mol
# GULP energy per Si atom -5584.142815 kJ/mol
# Density = 2.205272 g / cm^3
# Si number density = 22.103029 Si / 1000 Ang^3
#
#
#
# Elastic Constant Matrix: (Units=GPa)
#
#
# Indices 1 2 3 4 5 6 
#
# 1 48.7071 -7.3688 -0.5845 0.0000 0.0000 0.0000
# 2 -7.3688 87.8088 14.1005 0.0000 0.0000 0.0000
# 3 -0.5845 14.1005 101.9819 0.0000 0.0000 0.0000
# 4 0.0000 0.0000 0.0000 43.9093 0.0000 0.0000
# 5 0.0000 0.0000 0.0000 0.0000 13.9985 0.0000
# 6 0.0000 0.0000 0.0000 0.0000 0.0000 2.9043
#
#
#
# Elastic Compliance Matrix: (Units=1/GPa)
#
#
# Indices 1 2 3 4 5 6 
#
# 1 0.020796 0.001765 -0.000125 0.000000 0.000000 0.000000
# 2 0.001765 0.011797 -0.001621 0.000000 0.000000 0.000000
# 3 -0.000125 -0.001621 0.010029 0.000000 0.000000 0.000000
# 4 0.000000 0.000000 0.000000 0.022774 0.000000 0.000000
# 5 0.000000 0.000000 0.000000 0.000000 0.071436 0.000000
# 6 0.000000 0.000000 0.000000 0.000000 0.000000 0.344312
#
#
# Mechanical properties :
#
#
# Convention : Reuss Voigt Hill
#
# Bulk Modulus (GPa) = 23.44053 27.86582 25.65317
# Shear Modulus (GPa) = 10.09436 27.65248 18.87342
#
# Velocity S-wave (km/s) = 2.13936 3.54089 2.92530
# Velocity P-wave (km/s) = 4.09031 5.41773 4.80013
#
# Compressibility (1/GPa) = 0.04266115
#
# Stress axis : x y z
#
# Youngs Moduli (GPa) = 48.08512 84.76866 99.71018
#
# Poissons Ratio (x) = -0.14964 0.01245
# Poissons Ratio (y) = -0.08488 0.16163
# Poissons Ratio (z) = 0.00601 0.13741
#
# Static dielectric constant tensor:
#      x y z
#    x 1.784050 0.000000 0.000000 
#    y 0.000000 1.836690 0.000000 
#    z 0.000000 0.000000 1.823760 
# 
# From -- ./inp_files/7187.got.cif
#   From: 2010.05.17/outbox.cif.g08.bks.cpg/sg64_4_cif.got.tgz:7187.got - 2010.06.03 16:29:19.
