data_PCOD9476352
_publ_section_title
;
Structure prediction by ZEFSAII (Michael W. Deem and Ramdas Pophale) SiO2 
 PCOD9476352
Probable space group: C M C A
;
_chemical_formula_sum "Si O2"
_cell_formula_units_Z 48
_cell_length_a 28.503124
_cell_length_b 16.290608
_cell_length_c 5.233159
_cell_angle_alpha 90.000000
_cell_angle_beta 90.000000
_cell_angle_gamma 90.000000
_cell_volume 2429.929569
_symmetry_space_group_name_H-M "C M C A"
_symmetry_group_IT_number 64
_symmetry_cell_setting 'orthorhombic'
loop_
_space_group_symop_operation_xyz
x,y,z
-x,1/2-y,1/2+z
x,-y,-z
-x,1/2+y,1/2-z
-x,-y,-z
x,1/2+y,1/2-z
-x,y,z
x,1/2-y,1/2+z
1/2+x,1/2+y,z
1/2-x,-y,1/2+z
1/2+x,1/2-y,-z
1/2-x,y,1/2-z
1/2-x,1/2-y,-z
1/2+x,y,1/2-z
1/2-x,1/2+y,z
1/2+x,-y,1/2+z
loop_
_atom_site_type_symbol
_atom_site_label
_atom_site_fract_x
_atom_site_fract_y
_atom_site_fract_z
Si Si1 0.728946 0.843162 0.495102
Si Si2 0.380036 0.198297 0.557578
Si Si3 0.946673 0.445495 0.245269
O O1 0.750000 0.881711 0.750000
O O2 0.750000 0.750000 0.500000
O O3 0.673725 0.832797 0.454684
O O4 0.750000 0.886648 0.250000
O O5 0.387418 0.229054 0.266547
O O6 0.412907 0.127794 0.671339
O O7 0.948932 0.500000 0.500000
O O8 0.000000 0.416467 0.185976
O O9 0.931303 0.500000 0.000000
#
# Coordination Sequence:
#
# PCOD9476352 Si02
#       3
#    16  16  16
#     4  10  16  30  49  81 118 149 174 226 287 354
#     4  12  21  33  61  94 112 146 204 253 285 344
#     4  10  23  43  60  79 119 166 195 237 313 372
#
# _framework density 19.753661000000001
#
# number of rings (size 3 to 8) (size 9 to 14) (size 15 to 20)
#    0.000    1.333    6.667    2.000    0.000    1.333 
#    0.000    0.000    0.000    4.000    0.000    0.000 
#    0.000    0.000    0.000    0.000    0.000    0.000 
#
# Total GULP energy -133671.424112 kJ/mol
# GULP energy per Si atom -5569.642671 kJ/mol
# Density = 1.970870 g / cm^3
# Si number density = 19.753661 Si / 1000 Ang^3
#
#
#
# Elastic Constant Matrix: (Units=GPa)
#
#
# Indices 1 2 3 4 5 6 
#
# 1 114.3759 51.9360 15.1100 0.0000 0.0000 0.0000
# 2 51.9360 41.8469 14.4204 0.0000 0.0000 0.0000
# 3 15.1100 14.4204 168.4586 0.0000 0.0000 0.0000
# 4 0.0000 0.0000 0.0000 19.8285 0.0000 0.0000
# 5 0.0000 0.0000 0.0000 0.0000 29.9276 0.0000
# 6 0.0000 0.0000 0.0000 0.0000 0.0000 -50.4778
#
#
#
# Elastic Compliance Matrix: (Units=1/GPa)
#
#
# Indices 1 2 3 4 5 6 
#
# 1 0.020052 -0.025004 0.000342 0.000000 0.000000 0.000000
# 2 -0.025004 0.055802 -0.002534 0.000000 0.000000 0.000000
# 3 0.000342 -0.002534 0.006122 0.000000 0.000000 0.000000
# 4 0.000000 0.000000 0.000000 0.050432 0.000000 0.000000
# 5 0.000000 0.000000 0.000000 0.000000 0.033414 0.000000
# 6 0.000000 0.000000 0.000000 0.000000 0.000000 -0.019811
#
#
# Mechanical properties :
#
#
# Convention : Reuss Voigt Hill
#
# Bulk Modulus (GPa) = 36.25284 54.17936 45.21610
# Shear Modulus (GPa) = 23.85505 16.06998 19.96251
#
# Velocity S-wave (km/s) = 3.47886 2.85532 3.18240
# Velocity P-wave (km/s) = 5.87613 6.19334 6.03682
#
# Compressibility (1/GPa) = 0.02758404
#
# Stress axis : x y z
#
# Youngs Moduli (GPa) = 49.87085 17.92045 163.33379
#
# Poissons Ratio (x) = 0.44808 -0.05583
# Poissons Ratio (y) = 1.24697 0.41389
# Poissons Ratio (z) = -0.01705 0.04541
#
# Static dielectric constant tensor:
#      x y z
#    x 1.655460 0.000000 0.000000 
#    y 0.000000 1.655670 0.000000 
#    z 0.000000 0.000000 1.663450 
# 
# From -- ./inp_files/2542.got.cif
#   From: 2010.05.17/outbox.cif.g08.bks.cpg/sg64_2_cif.got.tgz:2542.got - 2010.06.03 16:29:19.
