data_PCOD9476570
_publ_section_title
;
Structure prediction by ZEFSAII (Michael W. Deem and Ramdas Pophale) SiO2 
 PCOD9476570
Probable space group: C M C A
;
_chemical_formula_sum "Si O2"
_cell_formula_units_Z 96
_cell_length_a 18.958702
_cell_length_b 16.721311
_cell_length_c 19.032597
_cell_angle_alpha 90.000000
_cell_angle_beta 90.000000
_cell_angle_gamma 90.000000
_cell_volume 6033.606411
_symmetry_space_group_name_H-M "C M C A"
_symmetry_group_IT_number 64
_symmetry_cell_setting 'orthorhombic'
loop_
_space_group_symop_operation_xyz
x,y,z
-x,1/2-y,1/2+z
x,-y,-z
-x,1/2+y,1/2-z
-x,-y,-z
x,1/2+y,1/2-z
-x,y,z
x,1/2-y,1/2+z
1/2+x,1/2+y,z
1/2-x,-y,1/2+z
1/2+x,1/2-y,-z
1/2-x,y,1/2-z
1/2-x,1/2-y,-z
1/2+x,y,1/2-z
1/2-x,1/2+y,z
1/2+x,-y,1/2+z
loop_
_atom_site_type_symbol
_atom_site_label
_atom_site_fract_x
_atom_site_fract_y
_atom_site_fract_z
Si Si1 0.328030 0.618278 0.283356
Si Si2 0.083539 0.160380 0.149336
Si Si3 0.826993 0.197274 0.583184
Si Si4 0.818374 0.958207 0.926400
Si Si5 0.202110 0.182166 0.429082
Si Si6 0.720469 0.554426 0.677071
O O1 0.250000 0.636157 0.250000
O O2 0.384836 0.643758 0.226428
O O3 0.336996 0.663969 0.356629
O O4 0.324894 0.523549 0.300321
O O5 0.119849 0.240047 0.118148
O O6 0.113780 0.086838 0.103444
O O7 0.000000 0.165438 0.148692
O O8 0.842414 0.184393 0.500533
O O9 0.749241 0.238508 0.580947
O O10 0.820547 0.117481 0.629130
O O11 0.758656 0.889958 0.936935
O O12 0.784635 0.018634 0.869608
O O13 0.831437 0.000000 0.000000
O O14 0.750000 0.590328 0.750000
#
# Coordination Sequence:
#
# PCOD9476570 Si02
#       6
#    16  16  16  16  16  16
#     4  10  17  35  54  78 102 141 189 228 266 313
#     4  11  23  38  52  76 120 155 174 211 281 346
#     4  10  19  31  52  83 108 140 174 226 281 312
#     4  10  17  33  55  82 110 136 183 227 275 315
#     4   9  18  30  53  83 107 133 181 234 266 314
#     4  10  18  29  56  86 104 127 180 245 266 301
#
# _framework density 15.910882000000001
#
# number of rings (size 3 to 8) (size 9 to 14) (size 15 to 20)
#    0.000    2.000    8.333    0.000    2.333    0.333 
#    0.000    1.667    0.000    0.000    0.000    3.500 
#    0.000    0.000    0.000    0.000    0.000    0.000 
#
# Total GULP energy -267493.777729 kJ/mol
# GULP energy per Si atom -5572.787036 kJ/mol
# Density = 1.587467 g / cm^3
# Si number density = 15.910882 Si / 1000 Ang^3
#
#
#
# Elastic Constant Matrix: (Units=GPa)
#
#
# Indices 1 2 3 4 5 6 
#
# 1 82.0088 35.4428 49.3851 0.0000 0.0000 0.0000
# 2 35.4428 54.5246 56.7715 0.0000 0.0000 0.0000
# 3 49.3851 56.7715 162.2575 0.0000 0.0000 0.0000
# 4 0.0000 0.0000 0.0000 33.7559 0.0000 0.0000
# 5 0.0000 0.0000 0.0000 0.0000 12.8375 0.0000
# 6 0.0000 0.0000 0.0000 0.0000 0.0000 7.9399
#
#
#
# Elastic Compliance Matrix: (Units=1/GPa)
#
#
# Indices 1 2 3 4 5 6 
#
# 1 0.017404 -0.009120 -0.002106 0.000000 0.000000 0.000000
# 2 -0.009120 0.033630 -0.008991 0.000000 0.000000 0.000000
# 3 -0.002106 -0.008991 0.009950 0.000000 0.000000 0.000000
# 4 0.000000 0.000000 0.000000 0.029624 0.000000 0.000000
# 5 0.000000 0.000000 0.000000 0.000000 0.077897 0.000000
# 6 0.000000 0.000000 0.000000 0.000000 0.000000 0.125947
#
#
# Mechanical properties :
#
#
# Convention : Reuss Voigt Hill
#
# Bulk Modulus (GPa) = 48.66296 64.66553 56.66425
# Shear Modulus (GPa) = 14.63121 21.38609 18.00865
#
# Velocity S-wave (km/s) = 3.03573 3.67020 3.36794
# Velocity P-wave (km/s) = 6.55276 7.66101 7.12845
#
# Compressibility (1/GPa) = 0.02054951
#
# Stress axis : x y z
#
# Youngs Moduli (GPa) = 57.45937 29.73533 100.50472
#
# Poissons Ratio (x) = 0.27119 0.21166
# Poissons Ratio (y) = 0.52404 0.90362
# Poissons Ratio (z) = 0.12101 0.26734
#
# Static dielectric constant tensor:
#      x y z
#    x 1.488000 0.000000 0.000000 
#    y 0.000000 1.551690 0.000000 
#    z 0.000000 0.000000 1.563310 
# 
# From -- ./inp_files/33516.got.cif
#   From: 2010.05.17/outbox.cif.g08.bks.cpg/sg64_17_cif.got.tgz:33516.got - 2010.06.03 16:29:19.
