data_PCOD9476787
_publ_section_title
;
Structure prediction by ZEFSAII (Michael W. Deem and Ramdas Pophale) SiO2 
 PCOD9476787
Probable space group: C M C A
;
_chemical_formula_sum "Si O2"
_cell_formula_units_Z 88
_cell_length_a 18.822487
_cell_length_b 14.469833
_cell_length_c 15.909460
_cell_angle_alpha 90.000000
_cell_angle_beta 90.000000
_cell_angle_gamma 90.000000
_cell_volume 4333.072581
_symmetry_space_group_name_H-M "C M C A"
_symmetry_group_IT_number 64
_symmetry_cell_setting 'orthorhombic'
loop_
_space_group_symop_operation_xyz
x,y,z
-x,1/2-y,1/2+z
x,-y,-z
-x,1/2+y,1/2-z
-x,-y,-z
x,1/2+y,1/2-z
-x,y,z
x,1/2-y,1/2+z
1/2+x,1/2+y,z
1/2-x,-y,1/2+z
1/2+x,1/2-y,-z
1/2-x,y,1/2-z
1/2-x,1/2-y,-z
1/2+x,y,1/2-z
1/2-x,1/2+y,z
1/2+x,-y,1/2+z
loop_
_atom_site_type_symbol
_atom_site_label
_atom_site_fract_x
_atom_site_fract_y
_atom_site_fract_z
Si Si1 0.580477 0.162448 0.593786
Si Si2 0.782308 0.238819 0.336975
Si Si3 0.689705 0.019329 0.181939
Si Si4 0.581456 0.468996 0.816352
Si Si5 0.240844 0.000000 0.500000
Si Si6 0.662530 0.335978 0.933556
O O1 0.500000 0.191972 0.614940
O O2 0.645367 0.210082 0.641696
O O3 0.598739 0.184946 0.496941
O O4 0.584429 0.053641 0.617215
O O5 0.750000 0.272236 0.250000
O O6 0.800632 0.129978 0.328923
O O7 0.718021 0.241880 0.404626
O O8 0.750000 0.990197 0.250000
O O9 0.616022 0.999631 0.228673
O O10 0.699375 0.982145 0.087453
O O11 0.500000 0.441424 0.806922
O O12 0.629289 0.386154 0.852379
O O13 0.290731 0.087164 0.481211
#
# Coordination Sequence:
#
# PCOD9476787 Si02
#       6
#    16  16  16  16   8  16
#     4  11  23  36  55  90 122 148 187 247 307 344
#     4  10  21  38  57  82 118 155 198 230 290 360
#     4  10  18  37  59  87 116 153 201 233 286 348
#     4  11  21  36  61  86 115 149 191 247 295 339
#     4  10  18  30  64  88 110 146 194 248 274 326
#     4  11  18  38  60  88 112 151 202 246 285 343
#
# _framework density 20.308914000000001
#
# number of rings (size 3 to 8) (size 9 to 14) (size 15 to 20)
#    0.000    1.455    7.273    1.091    0.000    4.364 
#    0.000    0.455    0.000    5.455    0.000    0.000 
#    0.000    0.000    0.000    0.000    0.000    0.000 
#
# Total GULP energy -245606.772146 kJ/mol
# GULP energy per Si atom -5581.972094 kJ/mol
# Density = 2.026269 g / cm^3
# Si number density = 20.308914 Si / 1000 Ang^3
#
#
#
# Elastic Constant Matrix: (Units=GPa)
#
#
# Indices 1 2 3 4 5 6 
#
# 1 156.5694 26.2675 57.4652 0.0000 0.0000 0.0000
# 2 26.2675 35.7082 -1.4200 0.0000 0.0000 0.0000
# 3 57.4652 -1.4200 125.8618 0.0000 0.0000 0.0000
# 4 0.0000 0.0000 0.0000 8.6878 0.0000 0.0000
# 5 0.0000 0.0000 0.0000 0.0000 23.9483 0.0000
# 6 0.0000 0.0000 0.0000 0.0000 0.0000 23.2128
#
#
#
# Elastic Compliance Matrix: (Units=1/GPa)
#
#
# Indices 1 2 3 4 5 6 
#
# 1 0.009088 -0.006853 -0.004227 0.000000 0.000000 0.000000
# 2 -0.006853 0.033186 0.003503 0.000000 0.000000 0.000000
# 3 -0.004227 0.003503 0.009915 0.000000 0.000000 0.000000
# 4 0.000000 0.000000 0.000000 0.115104 0.000000 0.000000
# 5 0.000000 0.000000 0.000000 0.000000 0.041757 0.000000
# 6 0.000000 0.000000 0.000000 0.000000 0.000000 0.043080
#
#
# Mechanical properties :
#
#
# Convention : Reuss Voigt Hill
#
# Bulk Modulus (GPa) = 27.00150 53.64053 40.32101
# Shear Modulus (GPa) = 17.88096 26.89156 22.38626
#
# Velocity S-wave (km/s) = 2.97045 3.64280 3.32367
# Velocity P-wave (km/s) = 5.00890 6.64552 5.88439
#
# Compressibility (1/GPa) = 0.03703498
#
# Stress axis : x y z
#
# Youngs Moduli (GPa) = 110.03479 30.13358 100.86199
#
# Poissons Ratio (x) = 0.20652 0.42631
# Poissons Ratio (y) = 0.75411 -0.35337
# Poissons Ratio (z) = 0.46508 -0.10557
#
# Static dielectric constant tensor:
#      x y z
#    x 1.715400 0.000000 0.000000 
#    y 0.000000 1.736070 0.000000 
#    z 0.000000 0.000000 1.825850 
# 
# From -- ./inp_files/33130.got.cif
#   From: 2010.05.17/outbox.cif.g08.bks.cpg/sg64_17_cif.got.tgz:33130.got - 2010.06.03 16:29:19.
