data_PCOD9476016
_publ_section_title
;
Structure prediction by ZEFSAII (Michael W. Deem and Ramdas Pophale) SiO2 
 PCOD9476016
Probable space group: C M C M
;
_chemical_formula_sum "Si O2"
_cell_formula_units_Z 96
_cell_length_a 7.305196
_cell_length_b 30.873287
_cell_length_c 19.583877
_cell_angle_alpha 90.000000
_cell_angle_beta 90.000000
_cell_angle_gamma 90.000000
_cell_volume 4416.857781
_symmetry_space_group_name_H-M "C M C M"
_symmetry_group_IT_number 63
_symmetry_cell_setting 'orthorhombic'
loop_
_space_group_symop_operation_xyz
x,y,z
-x,-y,1/2+z
x,-y,-z
-x,y,1/2-z
-x,-y,-z
x,y,1/2-z
-x,y,z
x,-y,1/2+z
1/2+x,1/2+y,z
1/2-x,1/2-y,1/2+z
1/2+x,1/2-y,-z
1/2-x,1/2+y,1/2-z
1/2-x,1/2-y,-z
1/2+x,1/2+y,1/2-z
1/2-x,1/2+y,z
1/2+x,1/2-y,1/2+z
loop_
_atom_site_type_symbol
_atom_site_label
_atom_site_fract_x
_atom_site_fract_y
_atom_site_fract_z
Si Si1 0.276707 0.910722 0.573454
Si Si2 0.276614 0.984870 0.671857
Si Si3 0.222717 0.435347 0.422919
Si Si4 0.286978 0.185352 0.452740
Si Si5 0.720618 0.224393 0.903844
Si Si6 0.222831 0.642297 0.825821
O O1 0.500000 0.910875 0.574966
O O2 0.219169 0.939832 0.637150
O O3 0.221265 0.932774 0.501701
O O4 0.214013 0.860792 0.571568
O O5 0.216907 0.990275 0.750000
O O6 0.500000 0.985889 0.672896
O O7 0.218827 0.023584 0.621536
O O8 0.279747 0.391946 0.383018
O O9 0.000000 0.435997 0.423710
O O10 0.500000 0.177124 0.467421
O O11 0.211129 0.203971 0.524225
O O12 0.275157 0.225539 0.400968
O O13 0.500000 0.224555 0.905209
O O14 0.778648 0.190803 0.846019
O O15 0.282371 0.629982 0.750000
O O16 0.000000 0.641481 0.825969
#
# Coordination Sequence:
#
# PCOD9476016 Si02
#       6
#    16  16  16  16  16  16
#     4   9  15  24  37  53  76 107 139 169 203 247
#     4   9  16  23  32  50  78 110 138 164 201 251
#     4   9  14  22  35  53  75 103 138 171 204 247
#     4   9  16  27  43  61  82 111 143 172 206 249
#     4   9  16  27  42  61  84 108 139 176 212 248
#     4   9  15  23  37  57  81 106 133 172 218 253
#
# _framework density 21.734908999999998
#
# number of rings (size 3 to 8) (size 9 to 14) (size 15 to 20)
#    0.000    3.000    1.667    1.000    0.000    4.000 
#    0.000    0.833    0.000    1.500    0.000    0.000 
#    0.000    4.000    0.000    1.333    0.000    0.000 
#
# Total GULP energy -267895.442107 kJ/mol
# GULP energy per Si atom -5581.155044 kJ/mol
# Density = 2.168544 g / cm^3
# Si number density = 21.734909 Si / 1000 Ang^3
#
#
#
# Elastic Constant Matrix: (Units=GPa)
#
#
# Indices 1 2 3 4 5 6 
#
# 1 85.1360 -2.3953 -1.9219 0.0000 0.0000 0.0000
# 2 -2.3953 150.9437 37.9527 0.0000 0.0000 0.0000
# 3 -1.9219 37.9527 58.6422 0.0000 0.0000 0.0000
# 4 0.0000 0.0000 0.0000 24.0150 0.0000 0.0000
# 5 0.0000 0.0000 0.0000 0.0000 -12.2180 0.0000
# 6 0.0000 0.0000 0.0000 0.0000 0.0000 0.6476
#
#
#
# Elastic Compliance Matrix: (Units=1/GPa)
#
#
# Indices 1 2 3 4 5 6 
#
# 1 0.011756 0.000107 0.000316 0.000000 0.000000 0.000000
# 2 0.000107 0.007914 -0.005118 0.000000 0.000000 0.000000
# 3 0.000316 -0.005118 0.020375 0.000000 0.000000 0.000000
# 4 0.000000 0.000000 0.000000 0.041641 0.000000 0.000000
# 5 0.000000 0.000000 0.000000 0.000000 -0.081846 0.000000
# 6 0.000000 0.000000 0.000000 0.000000 0.000000 1.544220
#
#
# Mechanical properties :
#
#
# Convention : Reuss Voigt Hill
#
# Bulk Modulus (GPa) = 32.62121 40.22143 36.42132
# Shear Modulus (GPa) = 3.19761 19.89467 11.54614
#
# Velocity S-wave (km/s) = 1.21424 3.02873 2.30733
# Velocity P-wave (km/s) = 4.12397 5.54766 4.88793
#
# Compressibility (1/GPa) = 0.03065490
#
# Stress axis : x y z
#
# Youngs Moduli (GPa) = 85.06254 126.36544 49.07902
#
# Poissons Ratio (x) = -0.01354 -0.01551
# Poissons Ratio (y) = -0.00911 0.25119
# Poissons Ratio (z) = -0.02688 0.64675
#
# Static dielectric constant tensor:
#      x y z
#    x 2.369840 0.000000 0.000000 
#    y 0.000000 1.786440 0.000000 
#    z 0.000000 0.000000 1.740940 
# 
# From -- ./inp_files/42658.got.cif
#   From: 2010.05.17/outbox.cif.g08.bks.cpg/sg63_22_cif.got.tgz:42658.got - 2010.06.03 15:47:04.
