data_PCOD9476354
_publ_section_title
;
Structure prediction by ZEFSAII (Michael W. Deem and Ramdas Pophale) SiO2 
 PCOD9476354
Probable space group: C M C A
;
_chemical_formula_sum "Si O2"
_cell_formula_units_Z 80
_cell_length_a 20.687489
_cell_length_b 7.246432
_cell_length_c 23.758740
_cell_angle_alpha 90.000000
_cell_angle_beta 90.000000
_cell_angle_gamma 90.000000
_cell_volume 3561.684172
_symmetry_space_group_name_H-M "C M C A"
_symmetry_group_IT_number 64
_symmetry_cell_setting 'orthorhombic'
loop_
_space_group_symop_operation_xyz
x,y,z
-x,1/2-y,1/2+z
x,-y,-z
-x,1/2+y,1/2-z
-x,-y,-z
x,1/2+y,1/2-z
-x,y,z
x,1/2-y,1/2+z
1/2+x,1/2+y,z
1/2-x,-y,1/2+z
1/2+x,1/2-y,-z
1/2-x,y,1/2-z
1/2-x,1/2-y,-z
1/2+x,y,1/2-z
1/2-x,1/2+y,z
1/2+x,-y,1/2+z
loop_
_atom_site_type_symbol
_atom_site_label
_atom_site_fract_x
_atom_site_fract_y
_atom_site_fract_z
Si Si1 0.142544 0.268806 0.202890
Si Si2 0.198881 0.022951 0.114210
Si Si3 0.500000 0.123528 0.301428
Si Si4 0.139611 0.827505 0.667011
Si Si5 0.695404 0.652584 0.538784
Si Si6 0.500000 0.304646 0.670159
O O1 0.163090 0.469581 0.182549
O O2 0.068823 0.216999 0.184059
O O3 0.138896 0.265053 0.270496
O O4 0.192733 0.128160 0.173892
O O5 0.330404 0.322372 0.125859
O O6 0.165084 0.172989 0.072012
O O7 0.265968 0.970755 0.084460
O O8 0.500000 0.111925 0.233366
O O9 0.500000 0.916639 0.324318
O O10 0.067257 0.860013 0.644064
O O11 0.659563 0.500000 0.500000
O O12 0.750000 0.750000 0.500000
#
# Coordination Sequence:
#
# PCOD9476354 Si02
#       6
#    16  16   8  16  16   8
#     4  11  20  34  55  87 129 163 194 226 270 349
#     4  11  22  39  62  87 110 152 197 245 299 354
#     4  10  16  30  50  81 123 167 197 226 259 321
#     4  11  20  34  55  87 129 163 194 226 271 348
#     4   9  22  44  64  79 104 135 197 269 314 344
#     4  10  16  30  50  81 123 167 197 226 258 322
#
# _framework density 22.461283000000002
#
# number of rings (size 3 to 8) (size 9 to 14) (size 15 to 20)
#    0.000    1.600    4.000    4.200    5.600    0.000 
#    0.000    3.000    0.000    0.000    0.000   28.000 
#    0.000    0.000    0.000    0.000    0.000    0.000 
#
# Total GULP energy -223005.606472 kJ/mol
# GULP energy per Si atom -5575.140162 kJ/mol
# Density = 2.241016 g / cm^3
# Si number density = 22.461283 Si / 1000 Ang^3
#
#
#
# Elastic Constant Matrix: (Units=GPa)
#
#
# Indices 1 2 3 4 5 6 
#
# 1 42.0455 18.8460 23.4661 0.0000 0.0000 0.0000
# 2 18.8460 139.6419 7.7112 0.0000 0.0000 0.0000
# 3 23.4661 7.7112 50.9844 0.0000 0.0000 0.0000
# 4 0.0000 0.0000 0.0000 57.8386 0.0000 0.0000
# 5 0.0000 0.0000 0.0000 0.0000 -6.0393 0.0000
# 6 0.0000 0.0000 0.0000 0.0000 0.0000 23.9333
#
#
#
# Elastic Compliance Matrix: (Units=1/GPa)
#
#
# Indices 1 2 3 4 5 6 
#
# 1 0.033835 -0.003738 -0.015008 0.000000 0.000000 0.000000
# 2 -0.003738 0.007634 0.000566 0.000000 0.000000 0.000000
# 3 -0.015008 0.000566 0.026436 0.000000 0.000000 0.000000
# 4 0.000000 0.000000 0.000000 0.017289 0.000000 0.000000
# 5 0.000000 0.000000 0.000000 0.000000 -0.165581 0.000000
# 6 0.000000 0.000000 0.000000 0.000000 0.000000 0.041783
#
#
# Mechanical properties :
#
#
# Convention : Reuss Voigt Hill
#
# Bulk Modulus (GPa) = 31.69991 36.96872 34.33431
# Shear Modulus (GPa) = 604.55593 27.32309 315.93951
#
# Velocity S-wave (km/s) = 16.42373 3.49155 11.87287
# Velocity P-wave (km/s) = 19.33380 5.72269 14.25737
#
# Compressibility (1/GPa) = 0.03154583
#
# Stress axis : x y z
#
# Youngs Moduli (GPa) = 29.55528 130.98664 37.82770
#
# Poissons Ratio (x) = 0.48958 0.56770
# Poissons Ratio (y) = 0.11047 -0.02140
# Poissons Ratio (z) = 0.44355 -0.07409
#
# Static dielectric constant tensor:
#      x y z
#    x 1.992910 0.000000 0.000000 
#    y 0.000000 1.906120 0.000000 
#    z 0.000000 0.000000 1.925200 
# 
# From -- ./inp_files/46565.got.cif
#   From: 2010.05.17/outbox.cif.g08.bks.cpg/sg64_24_cif.got.tgz:46565.got - 2010.06.03 16:29:19.
