data_PCOD9476211
_publ_section_title
;
Structure prediction by ZEFSAII (Michael W. Deem and Ramdas Pophale) SiO2 
 PCOD9476211
Probable space group: C M C M
;
_chemical_formula_sum "Si O2"
_cell_formula_units_Z 48
_cell_length_a 9.000000
_cell_length_b 27.000000
_cell_length_c 21.000000
_cell_angle_alpha 90.000000
_cell_angle_beta 90.000000
_cell_angle_gamma 90.000000
_cell_volume 5103.000000
_symmetry_space_group_name_H-M "C M C M"
_symmetry_group_IT_number 63
_symmetry_cell_setting 'orthorhombic'
loop_
_space_group_symop_operation_xyz
x,y,z
-x,-y,1/2+z
x,-y,-z
-x,y,1/2-z
-x,-y,-z
x,y,1/2-z
-x,y,z
x,-y,1/2+z
1/2+x,1/2+y,z
1/2-x,1/2-y,1/2+z
1/2+x,1/2-y,-z
1/2-x,1/2+y,1/2-z
1/2-x,1/2-y,-z
1/2+x,1/2+y,1/2-z
1/2-x,1/2+y,z
1/2+x,1/2-y,1/2+z
loop_
_atom_site_type_symbol
_atom_site_label
_atom_site_fract_x
_atom_site_fract_y
_atom_site_fract_z
Si Si1 0.676418 0.430980 0.584469
Si Si2 0.328388 0.931793 0.049777
Si Si3 0.322456 0.825396 0.586986
Si Si4 0.820278 0.490949 0.324568
Si Si5 0.323082 0.735371 0.823651
Si Si6 0.329676 0.812740 0.445656
O O1 0.500000 0.437251 0.585116
O O2 0.739360 0.446184 0.514349
O O3 0.726278 0.374376 0.592264
O O4 0.750658 0.460478 0.642936
O O5 0.500000 0.947540 0.040847
O O6 0.279165 0.951310 0.119561
O O7 0.325815 0.872421 0.052869
O O8 0.300030 0.790456 0.647834
O O9 0.281658 0.800225 0.518748
O O10 0.000000 0.662994 0.417527
O O11 0.774939 0.482622 0.250000
O O12 0.000000 0.493991 0.323791
O O13 0.269194 0.729095 0.750000
O O14 0.500000 0.726459 0.822447
O O15 0.255509 0.703449 0.881827
O O16 0.500000 0.795488 0.438863
#
# Coordination Sequence:
#
# PCOD9476211 Si02
#       6
#    16  16  16  16  16  16
#     4  11  22  35  55  83 111 138 173 221 274 320
#     4   9  19  37  59  81 105 138 182 222 257 310
#     4   9  19  37  57  76 102 139 183 222 256 306
#     4  10  21  37  57  79 106 144 184 219 259 311
#     4  10  21  35  52  77 108 140 173 212 262 319
#     4   9  18  33  55  80 104 134 174 221 264 303
#
# _framework density 9.4062319999999993
#
# number of rings (size 3 to 8) (size 9 to 14) (size 15 to 20)
#    0.000    2.333    0.000    3.500    0.000    8.000 
#    0.000    3.333    0.000    0.000    0.000    0.000 
#    0.000    0.000    0.000    0.000    0.000    0.000 
#
# Total GULP energy -267340.364465 kJ/mol
# GULP energy per Si atom -5569.590926 kJ/mol
# Density = 0.938482 g / cm^3
# Si number density = 9.406232 Si / 1000 Ang^3
#
#
#
# Elastic Constant Matrix: (Units=GPa)
#
#
# Indices 1 2 3 4 5 6 
#
# 1 12.8939 0.0464 14.3398 0.0000 0.0000 0.0000
# 2 0.0464 15.5936 -8.8511 0.0000 0.0000 0.0000
# 3 14.3398 -8.8511 139.2124 0.0000 0.0000 0.0000
# 4 0.0000 0.0000 0.0000 23.3342 0.0000 0.0000
# 5 0.0000 0.0000 0.0000 0.0000 29.6010 0.0000
# 6 0.0000 0.0000 0.0000 0.0000 0.0000 15.3780
#
#
#
# Elastic Compliance Matrix: (Units=1/GPa)
#
#
# Indices 1 2 3 4 5 6 
#
# 1 0.088062 -0.005613 -0.009428 0.000000 0.000000 0.000000
# 2 -0.005613 0.066888 0.004831 0.000000 0.000000 0.000000
# 3 -0.009428 0.004831 0.008462 0.000000 0.000000 0.000000
# 4 0.000000 0.000000 0.000000 0.042856 0.000000 0.000000
# 5 0.000000 0.000000 0.000000 0.000000 0.033783 0.000000
# 6 0.000000 0.000000 0.000000 0.000000 0.000000 0.065028
#
#
# Mechanical properties :
#
#
# Convention : Reuss Voigt Hill
#
# Bulk Modulus (GPa) = 6.99347 19.86335 13.42841
# Shear Modulus (GPa) = 13.39906 24.47364 18.93635
#
# Velocity S-wave (km/s) = 2.67169 3.61075 3.17611
# Velocity P-wave (km/s) = 3.63906 5.28818 4.53914
#
# Compressibility (1/GPa) = 0.14299045
#
# Stress axis : x y z
#
# Youngs Moduli (GPa) = 11.35569 14.95046 118.18168
#
# Poissons Ratio (x) = 0.08392 1.11420
# Poissons Ratio (y) = 0.06374 -0.57092
# Poissons Ratio (z) = 0.10706 -0.07222
#
# Static dielectric constant tensor:
#      x y z
#    x 1.647200 0.000000 0.000000 
#    y 0.000000 1.715090 0.000000 
#    z 0.000000 0.000000 1.639480 
# 
# From -- ./inp_files/51289.got.cif
#   From: 2010.05.17/outbox.ucp.g08.bks.cvg/sg63_26_cif.got.tgz:51289.got - 2010.06.11 16:32:19.
