data_PCOD9476668
_publ_section_title
;
Structure prediction by ZEFSAII (Michael W. Deem and Ramdas Pophale) SiO2 
 PCOD9476668
Probable space group: C M C A
;
_chemical_formula_sum "Si O2"
_cell_formula_units_Z 104
_cell_length_a 26.222429
_cell_length_b 8.598517
_cell_length_c 26.256422
_cell_angle_alpha 90.000000
_cell_angle_beta 90.000000
_cell_angle_gamma 90.000000
_cell_volume 5920.140534
_symmetry_space_group_name_H-M "C M C A"
_symmetry_group_IT_number 64
_symmetry_cell_setting 'orthorhombic'
loop_
_space_group_symop_operation_xyz
x,y,z
-x,1/2-y,1/2+z
x,-y,-z
-x,1/2+y,1/2-z
-x,-y,-z
x,1/2+y,1/2-z
-x,y,z
x,1/2-y,1/2+z
1/2+x,1/2+y,z
1/2-x,-y,1/2+z
1/2+x,1/2-y,-z
1/2-x,y,1/2-z
1/2-x,1/2-y,-z
1/2+x,y,1/2-z
1/2-x,1/2+y,z
1/2+x,-y,1/2+z
loop_
_atom_site_type_symbol
_atom_site_label
_atom_site_fract_x
_atom_site_fract_y
_atom_site_fract_z
Si Si1 0.250000 0.650898 0.750000
Si Si2 0.297517 0.890662 0.681164
Si Si3 0.226015 0.123452 0.962528
Si Si4 0.610126 0.451162 0.206889
Si Si5 0.500000 0.552937 0.322343
Si Si6 0.615068 0.085952 0.179570
Si Si7 0.500000 0.597341 0.781534
Si Si8 0.791723 0.606939 0.104467
O O1 0.291369 0.759445 0.723574
O O2 0.274478 0.544914 0.792786
O O3 0.355190 0.937452 0.672371
O O4 0.259617 0.851865 0.635954
O O5 0.194288 0.231018 0.923712
O O6 0.270711 0.027763 0.933128
O O7 0.250000 0.250000 0.000000
O O8 0.198906 0.000000 0.000000
O O9 0.618073 0.269556 0.194085
O O10 0.620137 0.494023 0.266556
O O11 0.550787 0.481282 0.198302
O O12 0.441589 0.549980 0.344119
O O13 0.500000 0.421837 0.279086
O O14 0.500000 0.721865 0.295184
O O15 0.662593 0.055160 0.141738
#
# Coordination Sequence:
#
# PCOD9476668 Si02
#       8
#     8  16  16  16   8  16   8  16
#     4  10  20  28  36  58  98 134 150 170 224 266
#     4  11  19  28  41  64  95 126 156 191 221 262
#     4   9  20  37  52  68  91 114 141 186 244 306
#     4  10  18  29  42  62  97 135 168 198 225 253
#     4   8  16  30  44  62  90 126 169 205 225 247
#     4  10  19  30  46  68  96 132 168 197 224 262
#     4   8  16  28  42  56  82 134 179 197 220 257
#     4  11  20  31  50  73  92 118 157 193 237 289
#
# _framework density 17.567150000000002
#
# number of rings (size 3 to 8) (size 9 to 14) (size 15 to 20)
#    0.000    2.154    0.000    5.538    0.000    1.231 
#    0.000    0.000    0.000    0.000    0.000    5.385 
#    0.000    4.923    0.000    0.923    0.000    0.000 
#
# Total GULP energy -289614.822195 kJ/mol
# GULP energy per Si atom -5569.515811 kJ/mol
# Density = 1.752717 g / cm^3
# Si number density = 17.567150 Si / 1000 Ang^3
#
#
#
# Elastic Constant Matrix: (Units=GPa)
#
#
# Indices 1 2 3 4 5 6 
#
# 1 95.6307 15.2810 28.5359 0.0000 0.0000 0.0000
# 2 15.2810 53.7691 11.8570 0.0000 0.0000 0.0000
# 3 28.5359 11.8570 46.8385 0.0000 0.0000 0.0000
# 4 0.0000 0.0000 0.0000 31.9214 0.0000 0.0000
# 5 0.0000 0.0000 0.0000 0.0000 9.2004 0.0000
# 6 0.0000 0.0000 0.0000 0.0000 0.0000 19.4866
#
#
#
# Elastic Compliance Matrix: (Units=1/GPa)
#
#
# Indices 1 2 3 4 5 6 
#
# 1 0.012993 -0.002062 -0.007394 0.000000 0.000000 0.000000
# 2 -0.002062 0.020025 -0.003813 0.000000 0.000000 0.000000
# 3 -0.007394 -0.003813 0.026820 0.000000 0.000000 0.000000
# 4 0.000000 0.000000 0.000000 0.031327 0.000000 0.000000
# 5 0.000000 0.000000 0.000000 0.000000 0.108691 0.000000
# 6 0.000000 0.000000 0.000000 0.000000 0.000000 0.051317
#
#
# Mechanical properties :
#
#
# Convention : Reuss Voigt Hill
#
# Bulk Modulus (GPa) = 30.03006 34.17622 32.10314
# Shear Modulus (GPa) = 17.31245 21.49265 19.40255
#
# Velocity S-wave (km/s) = 3.14268 3.50159 3.32698
# Velocity P-wave (km/s) = 5.50455 5.98707 5.75087
#
# Compressibility (1/GPa) = 0.03329997
#
# Stress axis : x y z
#
# Youngs Moduli (GPa) = 76.96673 49.93791 37.28609
#
# Poissons Ratio (x) = 0.10297 0.27568
# Poissons Ratio (y) = 0.15871 0.14217
# Poissons Ratio (z) = 0.56906 0.19041
#
# Static dielectric constant tensor:
#      x y z
#    x 1.689260 0.000000 0.000000 
#    y 0.000000 1.653650 0.000000 
#    z 0.000000 0.000000 1.629410 
# 
# From -- ./inp_files/51234.got.cif
#   From: 2010.05.17/outbox.cif.g08.bks.cpg/sg64_26_cif.got.tgz:51234.got - 2010.06.03 16:29:19.
