data_PCOD9476503
_publ_section_title
;
Structure prediction by ZEFSAII (Michael W. Deem and Ramdas Pophale) SiO2 
 PCOD9476503
Probable space group: C M C A
;
_chemical_formula_sum "Si O2"
_cell_formula_units_Z 112
_cell_length_a 11.638628
_cell_length_b 25.881419
_cell_length_c 19.997907
_cell_angle_alpha 90.000000
_cell_angle_beta 90.000000
_cell_angle_gamma 90.000000
_cell_volume 6023.853695
_symmetry_space_group_name_H-M "C M C A"
_symmetry_group_IT_number 64
_symmetry_cell_setting 'orthorhombic'
loop_
_space_group_symop_operation_xyz
x,y,z
-x,1/2-y,1/2+z
x,-y,-z
-x,1/2+y,1/2-z
-x,-y,-z
x,1/2+y,1/2-z
-x,y,z
x,1/2-y,1/2+z
1/2+x,1/2+y,z
1/2-x,-y,1/2+z
1/2+x,1/2-y,-z
1/2-x,y,1/2-z
1/2-x,1/2-y,-z
1/2+x,y,1/2-z
1/2-x,1/2+y,z
1/2+x,-y,1/2+z
loop_
_atom_site_type_symbol
_atom_site_label
_atom_site_fract_x
_atom_site_fract_y
_atom_site_fract_z
Si Si1 0.125826 0.148734 0.276879
Si Si2 0.632242 0.499928 0.580854
Si Si3 0.370196 0.302351 0.938485
Si Si4 0.377614 0.727847 0.769876
Si Si5 0.296348 0.709495 0.909769
Si Si6 0.634053 0.615076 0.569031
Si Si7 0.295109 0.389971 0.585974
O O1 0.250000 0.128556 0.250000
O O2 0.124979 0.209972 0.262123
O O3 0.133231 0.137918 0.356156
O O4 0.000000 0.128601 0.253008
O O5 0.630809 0.500000 0.500000
O O6 0.500000 0.491084 0.602763
O O7 0.666907 0.558477 0.597262
O O8 0.707281 0.450932 0.602131
O O9 0.500000 0.294130 0.917062
O O10 0.284772 0.259996 0.908309
O O11 0.324006 0.358876 0.919046
O O12 0.357521 0.294565 0.018392
O O13 0.500000 0.709696 0.739094
O O14 0.250000 0.708570 0.750000
O O15 0.379654 0.714548 0.848066
O O16 0.214274 0.659973 0.904202
O O17 0.500000 0.623640 0.582867
O O18 0.649573 0.615098 0.487968
#
# Coordination Sequence:
#
# PCOD9476503 Si02
#       7
#    16  16  16  16  16  16  16
#     4  10  20  33  48  70  97 132 169 208 252 300
#     4   8  14  26  46  73  98 123 158 202 244 293
#     4  10  20  30  46  74 104 132 163 200 250 309
#     4  10  21  36  52  72 100 136 176 214 251 302
#     4  10  19  33  48  72 101 135 161 203 252 304
#     4   9  17  28  49  78 103 128 166 209 252 302
#     4  10  17  30  49  71 100 133 163 204 258 305
#
# _framework density 18.592749000000001
#
# number of rings (size 3 to 8) (size 9 to 14) (size 15 to 20)
#    0.000    2.429    1.429    3.000    0.000    1.714 
#    0.000    0.000    0.000   12.429    0.000    2.000 
#    0.000    0.000    0.000    0.000    0.000    0.000 
#
# Total GULP energy -311876.406999 kJ/mol
# GULP energy per Si atom -5569.221554 kJ/mol
# Density = 1.855043 g / cm^3
# Si number density = 18.592749 Si / 1000 Ang^3
#
#
#
# Elastic Constant Matrix: (Units=GPa)
#
#
# Indices 1 2 3 4 5 6 
#
# 1 134.8856 31.0980 27.8302 0.0000 0.0000 0.0000
# 2 31.0980 78.2139 4.5176 0.0000 0.0000 0.0000
# 3 27.8302 4.5176 28.2384 0.0000 0.0000 0.0000
# 4 0.0000 0.0000 0.0000 11.2052 0.0000 0.0000
# 5 0.0000 0.0000 0.0000 0.0000 -77.7263 0.0000
# 6 0.0000 0.0000 0.0000 0.0000 0.0000 55.9821
#
#
#
# Elastic Compliance Matrix: (Units=1/GPa)
#
#
# Indices 1 2 3 4 5 6 
#
# 1 0.010173 -0.003498 -0.009467 0.000000 0.000000 0.000000
# 2 -0.003498 0.014108 0.001191 0.000000 0.000000 0.000000
# 3 -0.009467 0.001191 0.044552 0.000000 0.000000 0.000000
# 4 0.000000 0.000000 0.000000 0.089244 0.000000 0.000000
# 5 0.000000 0.000000 0.000000 0.000000 -0.012866 0.000000
# 6 0.000000 0.000000 0.000000 0.000000 0.000000 0.017863
#
#
# Mechanical properties :
#
#
# Convention : Reuss Voigt Hill
#
# Bulk Modulus (GPa) = 22.08251 40.91440 31.49845
# Shear Modulus (GPa) = 24.78710 9.75166 17.26938
#
# Velocity S-wave (km/s) = 3.65521 2.29265 3.05097
# Velocity P-wave (km/s) = 5.45131 5.39089 5.42118
#
# Compressibility (1/GPa) = 0.04528472
#
# Stress axis : x y z
#
# Youngs Moduli (GPa) = 98.29538 70.88394 22.44558
#
# Poissons Ratio (x) = 0.24796 0.21249
# Poissons Ratio (y) = 0.34385 -0.02673
# Poissons Ratio (z) = 0.93054 -0.08440
#
# Static dielectric constant tensor:
#      x y z
#    x 1.675990 0.000000 0.000000 
#    y 0.000000 1.644380 0.000000 
#    z 0.000000 0.000000 1.672820 
# 
# From -- ./inp_files/38569.got.cif
#   From: 2010.05.17/outbox.cif.g08.bks.cpg/sg64_20_cif.got.tgz:38569.got - 2010.06.03 16:29:19.
