data_PCOD9476642
_publ_section_title
;
Structure prediction by ZEFSAII (Michael W. Deem and Ramdas Pophale) SiO2 
 PCOD9476642
Probable space group: C M C A
;
_chemical_formula_sum "Si O2"
_cell_formula_units_Z 96
_cell_length_a 8.733265
_cell_length_b 23.622113
_cell_length_c 27.089194
_cell_angle_alpha 90.000000
_cell_angle_beta 90.000000
_cell_angle_gamma 90.000000
_cell_volume 5588.451222
_symmetry_space_group_name_H-M "C M C A"
_symmetry_group_IT_number 64
_symmetry_cell_setting 'orthorhombic'
loop_
_space_group_symop_operation_xyz
x,y,z
-x,1/2-y,1/2+z
x,-y,-z
-x,1/2+y,1/2-z
-x,-y,-z
x,1/2+y,1/2-z
-x,y,z
x,1/2-y,1/2+z
1/2+x,1/2+y,z
1/2-x,-y,1/2+z
1/2+x,1/2-y,-z
1/2-x,y,1/2-z
1/2-x,1/2-y,-z
1/2+x,y,1/2-z
1/2-x,1/2+y,z
1/2+x,-y,1/2+z
loop_
_atom_site_type_symbol
_atom_site_label
_atom_site_fract_x
_atom_site_fract_y
_atom_site_fract_z
Si Si1 0.316991 0.240974 0.445940
Si Si2 0.671900 0.758989 0.797633
Si Si3 0.672896 0.646455 0.381561
Si Si4 0.817018 0.571023 0.697124
Si Si5 0.680652 0.831345 0.137249
Si Si6 0.814561 0.944890 0.696448
O O1 0.500000 0.241910 0.446941
O O2 0.250000 0.250000 0.500000
O O3 0.264183 0.180470 0.423463
O O4 0.268390 0.293380 0.409898
O O5 0.500000 0.737359 0.788445
O O6 0.750000 0.784521 0.750000
O O7 0.662258 0.806428 0.838914
O O8 0.781307 0.709950 0.817191
O O9 0.500000 0.633638 0.399312
O O10 0.734648 0.592615 0.350979
O O11 0.750000 0.592063 0.750000
O O12 0.767966 0.611658 0.652146
O O13 0.744787 0.508838 0.690196
O O14 0.000000 0.567544 0.700878
O O15 0.500000 0.842214 0.133159
O O16 0.750000 0.925501 0.750000
O O17 0.000000 0.942878 0.698573
#
# Coordination Sequence:
#
# PCOD9476642 Si02
#       6
#    16  16  16  16  16  16
#     4  10  21  36  57  79 101 128 162 207 259 309
#     4  10  18  28  43  67  98 130 161 198 241 291
#     4   9  19  33  50  72 100 132 167 204 247 296
#     4  11  21  33  50  73 103 140 175 210 246 290
#     4  10  20  34  50  71  97 129 166 204 247 298
#     4  10  19  32  50  74 105 141 175 209 244 290
#
# _framework density 17.178284000000001
#
# number of rings (size 3 to 8) (size 9 to 14) (size 15 to 20)
#    0.000    2.000    0.000    5.500    0.000    4.000 
#    0.000    0.000    0.000    1.000    0.000    7.000 
#    0.000    0.000    0.000    0.000    0.000    0.000 
#
# Total GULP energy -267469.845489 kJ/mol
# GULP energy per Si atom -5572.288448 kJ/mol
# Density = 1.713919 g / cm^3
# Si number density = 17.178284 Si / 1000 Ang^3
#
#
#
# Elastic Constant Matrix: (Units=GPa)
#
#
# Indices 1 2 3 4 5 6 
#
# 1 61.8677 20.9965 42.0663 0.0000 0.0000 0.0000
# 2 20.9965 86.3051 44.9895 0.0000 0.0000 0.0000
# 3 42.0663 44.9895 86.2395 0.0000 0.0000 0.0000
# 4 0.0000 0.0000 0.0000 23.6925 0.0000 0.0000
# 5 0.0000 0.0000 0.0000 0.0000 26.5380 0.0000
# 6 0.0000 0.0000 0.0000 0.0000 0.0000 22.4911
#
#
#
# Elastic Compliance Matrix: (Units=1/GPa)
#
#
# Indices 1 2 3 4 5 6 
#
# 1 0.024193 0.000365 -0.011992 0.000000 0.000000 0.000000
# 2 0.000365 0.015920 -0.008483 0.000000 0.000000 0.000000
# 3 -0.011992 -0.008483 0.021871 0.000000 0.000000 0.000000
# 4 0.000000 0.000000 0.000000 0.042207 0.000000 0.000000
# 5 0.000000 0.000000 0.000000 0.000000 0.037682 0.000000
# 6 0.000000 0.000000 0.000000 0.000000 0.000000 0.044462
#
#
# Mechanical properties :
#
#
# Convention : Reuss Voigt Hill
#
# Bulk Modulus (GPa) = 45.94661 50.05745 48.00203
# Shear Modulus (GPa) = 21.38493 22.96832 22.17662
#
# Velocity S-wave (km/s) = 3.53212 3.66054 3.59690
# Velocity P-wave (km/s) = 6.59086 6.86071 6.72714
#
# Compressibility (1/GPa) = 0.02176439
#
# Stress axis : x y z
#
# Youngs Moduli (GPa) = 41.33405 62.81314 45.72353
#
# Poissons Ratio (x) = -0.02294 0.54830
# Poissons Ratio (y) = -0.01510 0.38789
# Poissons Ratio (z) = 0.49566 0.53287
#
# Static dielectric constant tensor:
#      x y z
#    x 1.598540 0.000000 0.000000 
#    y 0.000000 1.603630 0.000000 
#    z 0.000000 0.000000 1.600800 
# 
# From -- ./inp_files/43206.got.cif
#   From: 2010.05.17/outbox.cif.g08.bks.cpg/sg64_22_cif.got.tgz:43206.got - 2010.06.03 16:29:19.
