data_PCOD9476643
_publ_section_title
;
Structure prediction by ZEFSAII (Michael W. Deem and Ramdas Pophale) SiO2 
 PCOD9476643
Probable space group: C M C A
;
_chemical_formula_sum "Si O2"
_cell_formula_units_Z 128
_cell_length_a 7.412428
_cell_length_b 30.279548
_cell_length_c 29.095238
_cell_angle_alpha 90.000000
_cell_angle_beta 90.000000
_cell_angle_gamma 90.000000
_cell_volume 6530.279803
_symmetry_space_group_name_H-M "C M C A"
_symmetry_group_IT_number 64
_symmetry_cell_setting 'orthorhombic'
loop_
_space_group_symop_operation_xyz
x,y,z
-x,1/2-y,1/2+z
x,-y,-z
-x,1/2+y,1/2-z
-x,-y,-z
x,1/2+y,1/2-z
-x,y,z
x,1/2-y,1/2+z
1/2+x,1/2+y,z
1/2-x,-y,1/2+z
1/2+x,1/2-y,-z
1/2-x,y,1/2-z
1/2-x,1/2-y,-z
1/2+x,y,1/2-z
1/2-x,1/2+y,z
1/2+x,-y,1/2+z
loop_
_atom_site_type_symbol
_atom_site_label
_atom_site_fract_x
_atom_site_fract_y
_atom_site_fract_z
Si Si1 0.284350 0.174379 0.075276
Si Si2 0.779920 0.924823 0.574611
Si Si3 0.214874 0.765384 0.385908
Si Si4 0.718975 0.422718 0.469613
Si Si5 0.284037 0.324676 0.302715
Si Si6 0.779112 0.015345 0.613947
Si Si7 0.780249 0.678618 0.971729
Si Si8 0.215551 0.575052 0.802703
O O1 0.500000 0.171258 0.071739
O O2 0.219867 0.124884 0.086409
O O3 0.244651 0.213253 0.110534
O O4 0.218296 0.187300 0.023918
O O5 0.725736 0.933802 0.521640
O O6 0.000000 0.924719 0.575060
O O7 0.720980 0.964916 0.606703
O O8 0.284669 0.790678 0.340949
O O9 0.285305 0.788276 0.432619
O O10 0.000000 0.771925 0.386301
O O11 0.500000 0.423847 0.469524
O O12 0.778288 0.456064 0.430333
O O13 0.769799 0.371925 0.459986
O O14 0.500000 0.326907 0.307714
O O15 0.250000 0.311654 0.250000
O O16 0.214741 0.374831 0.309581
O O17 0.717599 0.040387 0.659728
O O18 0.000000 0.015241 0.614213
O O19 0.000000 0.680390 0.972217
O O20 0.250000 0.562367 0.750000
O O21 0.000000 0.577341 0.808630
#
# Coordination Sequence:
#
# PCOD9476643 Si02
#       8
#    16  16  16  16  16  16  16  16
#     4   9  17  28  41  60  88 118 144 171 205 241
#     4   8  14  23  36  58  87 114 139 170 205 239
#     4  10  18  28  44  63  83 110 144 176 207 247
#     4   8  12  19  34  59  89 113 134 166 207 246
#     4   9  18  31  46  65  87 109 134 169 213 256
#     4   9  14  21  38  62  85 110 139 169 204 246
#     4   8  14  24  38  59  88 116 139 168 206 247
#     4   9  17  29  45  65  88 110 133 165 207 253
#
# _framework density 19.600997
#
# number of rings (size 3 to 8) (size 9 to 14) (size 15 to 20)
#    0.000    3.250    0.000    3.000    0.000    5.000 
#    0.000    0.000    0.000    1.500    0.000    7.000 
#    0.000    5.000    0.000    0.000    0.000    0.000 
#
# Total GULP energy -356995.590385 kJ/mol
# GULP energy per Si atom -5578.056100 kJ/mol
# Density = 1.955638 g / cm^3
# Si number density = 19.600997 Si / 1000 Ang^3
#
#
#
# Elastic Constant Matrix: (Units=GPa)
#
#
# Indices 1 2 3 4 5 6 
#
# 1 63.3491 2.5457 2.9907 0.0000 0.0000 0.0000
# 2 2.5457 157.3613 119.9030 0.0000 0.0000 0.0000
# 3 2.9907 119.9030 124.0968 0.0000 0.0000 0.0000
# 4 0.0000 0.0000 0.0000 30.0983 0.0000 0.0000
# 5 0.0000 0.0000 0.0000 0.0000 -9.2889 0.0000
# 6 0.0000 0.0000 0.0000 0.0000 0.0000 7.2359
#
#
#
# Elastic Compliance Matrix: (Units=1/GPa)
#
#
# Indices 1 2 3 4 5 6 
#
# 1 0.015804 0.000131 -0.000507 0.000000 0.000000 0.000000
# 2 0.000131 0.024091 -0.023280 0.000000 0.000000 0.000000
# 3 -0.000507 -0.023280 0.030564 0.000000 0.000000 0.000000
# 4 0.000000 0.000000 0.000000 0.033224 0.000000 0.000000
# 5 0.000000 0.000000 0.000000 0.000000 -0.107655 0.000000
# 6 0.000000 0.000000 0.000000 0.000000 0.000000 0.138199
#
#
# Mechanical properties :
#
#
# Convention : Reuss Voigt Hill
#
# Bulk Modulus (GPa) = 43.20391 66.18730 54.69560
# Shear Modulus (GPa) = 26.41902 20.23358 23.32630
#
# Velocity S-wave (km/s) = 3.67528 3.21639 3.45346
# Velocity P-wave (km/s) = 6.33244 6.90175 6.62321
#
# Compressibility (1/GPa) = 0.02314606
#
# Stress axis : x y z
#
# Youngs Moduli (GPa) = 63.27413 41.50852 32.71809
#
# Poissons Ratio (x) = -0.00544 0.01660
# Poissons Ratio (y) = -0.00829 0.76169
# Poissons Ratio (z) = 0.03211 0.96634
#
# Static dielectric constant tensor:
#      x y z
#    x 1.782830 0.000000 0.000000 
#    y 0.000000 1.691920 0.000000 
#    z 0.000000 0.000000 1.662270 
# 
# From -- ./inp_files/44683.got.cif
#   From: 2010.05.17/outbox.cif.g08.bks.cpg/sg64_23_cif.got.tgz:44683.got - 2010.06.03 16:29:19.
