data_PCOD9476417
_publ_section_title
;
Structure prediction by ZEFSAII (Michael W. Deem and Ramdas Pophale) SiO2 
 PCOD9476417
Probable space group: C M C A
;
_chemical_formula_sum "Si O2"
_cell_formula_units_Z 64
_cell_length_a 14.701017
_cell_length_b 34.316647
_cell_length_c 5.419650
_cell_angle_alpha 90.000000
_cell_angle_beta 90.000000
_cell_angle_gamma 90.000000
_cell_volume 2734.157120
_symmetry_space_group_name_H-M "C M C A"
_symmetry_group_IT_number 64
_symmetry_cell_setting 'orthorhombic'
loop_
_space_group_symop_operation_xyz
x,y,z
-x,1/2-y,1/2+z
x,-y,-z
-x,1/2+y,1/2-z
-x,-y,-z
x,1/2+y,1/2-z
-x,y,z
x,1/2-y,1/2+z
1/2+x,1/2+y,z
1/2-x,-y,1/2+z
1/2+x,1/2-y,-z
1/2-x,y,1/2-z
1/2-x,1/2-y,-z
1/2+x,y,1/2-z
1/2-x,1/2+y,z
1/2+x,-y,1/2+z
loop_
_atom_site_type_symbol
_atom_site_label
_atom_site_fract_x
_atom_site_fract_y
_atom_site_fract_z
Si Si1 0.357570 0.647878 0.235510
Si Si2 0.856136 0.887219 0.260260
Si Si3 0.390020 0.021569 0.751273
Si Si4 0.645321 0.263958 0.948676
O O1 0.250000 0.638154 0.250000
O O2 0.395102 0.633815 0.497594
O O3 0.362384 0.693371 0.169519
O O4 0.396820 0.625635 0.000310
O O5 0.750000 0.875027 0.250000
O O6 0.861417 0.933639 0.272677
O O7 0.500000 0.020954 0.747398
O O8 0.359448 0.000000 0.500000
O O9 0.359729 0.000000 0.000000
O O10 0.606882 0.237278 0.726919
O O11 0.750000 0.250000 0.000000
#
# Coordination Sequence:
#
# PCOD9476417 Si02
#       4
#    16  16  16  16
#     4  10  18  29  43  68 107 139 163 199 257 297
#     4  10  21  32  49  75 106 136 158 209 256 312
#     4  10  21  38  58  76  97 129 173 215 250 301
#     4  10  17  24  41  63  95 143 169 202 235 298
#
# _framework density 23.407578000000001
#
# number of rings (size 3 to 8) (size 9 to 14) (size 15 to 20)
#    0.000    2.000    2.500    3.000    7.000    1.000 
#    0.000    0.000    0.000    0.000    0.000    0.000 
#    0.000   20.000    0.000    0.000    0.000    0.000 
#
# Total GULP energy -178657.554268 kJ/mol
# GULP energy per Si atom -5583.048571 kJ/mol
# Density = 2.335430 g / cm^3
# Si number density = 23.407578 Si / 1000 Ang^3
#
#
#
# Elastic Constant Matrix: (Units=GPa)
#
#
# Indices 1 2 3 4 5 6 
#
# 1 86.8972 -9.3286 15.5101 0.0000 0.0000 0.0000
# 2 -9.3286 129.7586 106.1936 0.0000 0.0000 0.0000
# 3 15.5101 106.1936 295.3706 0.0000 0.0000 0.0000
# 4 0.0000 0.0000 0.0000 55.6702 0.0000 0.0000
# 5 0.0000 0.0000 0.0000 0.0000 -24.4014 0.0000
# 6 0.0000 0.0000 0.0000 0.0000 0.0000 116.1379
#
#
#
# Elastic Compliance Matrix: (Units=1/GPa)
#
#
# Indices 1 2 3 4 5 6 
#
# 1 0.011954 0.001946 -0.001327 0.000000 0.000000 0.000000
# 2 0.001946 0.011236 -0.004142 0.000000 0.000000 0.000000
# 3 -0.001327 -0.004142 0.004944 0.000000 0.000000 0.000000
# 4 0.000000 0.000000 0.000000 0.017963 0.000000 0.000000
# 5 0.000000 0.000000 0.000000 0.000000 -0.040981 0.000000
# 6 0.000000 0.000000 0.000000 0.000000 0.000000 0.008610
#
#
# Mechanical properties :
#
#
# Convention : Reuss Voigt Hill
#
# Bulk Modulus (GPa) = 47.42237 81.86409 64.64323
# Shear Modulus (GPa) = 179.84173 56.12477 117.98325
#
# Velocity S-wave (km/s) = 8.77481 4.90196 7.10727
# Velocity P-wave (km/s) = 11.08903 8.19074 9.74820
#
# Compressibility (1/GPa) = 0.02108710
#
# Stress axis : x y z
#
# Youngs Moduli (GPa) = 83.65693 88.99844 202.25004
#
# Poissons Ratio (x) = -0.17315 0.26842
# Poissons Ratio (y) = -0.16275 0.83769
# Poissons Ratio (z) = 0.11103 0.36862
#
# Static dielectric constant tensor:
#      x y z
#    x 2.085310 0.000000 0.000000 
#    y 0.000000 1.890590 0.000000 
#    z 0.000000 0.000000 1.939430 
# 
# From -- ./inp_files/1334.got.cif
#   From: 2010.05.17/outbox.cif.g08.bks.cpg/sg64_1_cif.got.tgz:1334.got - 2010.06.03 16:29:19.
