data_PCOD9476654
_publ_section_title
;
Structure prediction by ZEFSAII (Michael W. Deem and Ramdas Pophale) SiO2 
 PCOD9476654
Probable space group: C M C A
;
_chemical_formula_sum "Si O2"
_cell_formula_units_Z 128
_cell_length_a 22.999971
_cell_length_b 12.742228
_cell_length_c 24.082517
_cell_angle_alpha 90.000000
_cell_angle_beta 90.000000
_cell_angle_gamma 90.000000
_cell_volume 7057.884317
_symmetry_space_group_name_H-M "C M C A"
_symmetry_group_IT_number 64
_symmetry_cell_setting 'orthorhombic'
loop_
_space_group_symop_operation_xyz
x,y,z
-x,1/2-y,1/2+z
x,-y,-z
-x,1/2+y,1/2-z
-x,-y,-z
x,1/2+y,1/2-z
-x,y,z
x,1/2-y,1/2+z
1/2+x,1/2+y,z
1/2-x,-y,1/2+z
1/2+x,1/2-y,-z
1/2-x,y,1/2-z
1/2-x,1/2-y,-z
1/2+x,y,1/2-z
1/2-x,1/2+y,z
1/2+x,-y,1/2+z
loop_
_atom_site_type_symbol
_atom_site_label
_atom_site_fract_x
_atom_site_fract_y
_atom_site_fract_z
Si Si1 0.123531 0.406730 0.958816
Si Si2 0.321904 0.736648 0.308982
Si Si3 0.331087 0.094150 0.379186
Si Si4 0.807720 0.706834 0.817821
Si Si5 0.104518 0.561773 0.556182
Si Si6 0.202729 0.977086 0.642058
Si Si7 0.314020 0.206620 0.496183
Si Si8 0.436783 0.753143 0.881348
O O1 0.175584 0.443923 0.917472
O O2 0.145318 0.307650 0.994899
O O3 0.076006 0.358121 0.917063
O O4 0.106523 0.500000 0.000000
O O5 0.259846 0.770744 0.335143
O O6 0.317375 0.786294 0.248130
O O7 0.317857 0.609824 0.312923
O O8 0.380796 0.763790 0.341601
O O9 0.342810 0.193026 0.340126
O O10 0.319442 0.148828 0.438155
O O11 0.383104 0.015529 0.392821
O O12 0.272780 0.033419 0.360161
O O13 0.819315 0.592113 0.841752
O O14 0.086661 0.500000 0.500000
O O15 0.165517 0.620270 0.540875
O O16 0.064260 0.655702 0.576011
O O17 0.250000 0.250000 0.500000
O O18 0.500000 0.759048 0.853900
#
# Coordination Sequence:
#
# PCOD9476654 Si02
#       8
#    16  16  16  16  16  16  16  16
#     4  10  20  31  50  80 110 143 185 222 267 328
#     4   9  21  36  50  77 103 134 183 221 273 330
#     4  10  19  29  48  76 112 146 175 209 270 326
#     4  10  20  33  54  78 108 139 168 225 281 339
#     4   9  20  32  48  78 107 140 179 221 259 319
#     4  10  19  30  49  75 109 144 170 208 271 332
#     4  10  18  28  46  74 117 152 177 205 261 335
#     4  10  21  39  58  74 102 145 192 235 265 320
#
# _framework density 18.135746999999999
#
# number of rings (size 3 to 8) (size 9 to 14) (size 15 to 20)
#    0.000    2.250    1.250    1.500    5.250    5.500 
#    0.000    0.000    0.000    6.750    0.000    0.000 
#    0.000    0.000    0.000    0.000    0.000    0.000 
#
# Total GULP energy -356461.576668 kJ/mol
# GULP energy per Si atom -5569.712135 kJ/mol
# Density = 1.809447 g / cm^3
# Si number density = 18.135747 Si / 1000 Ang^3
#
#
#
# Elastic Constant Matrix: (Units=GPa)
#
#
# Indices 1 2 3 4 5 6 
#
# 1 62.9076 6.7547 13.3856 0.0000 0.0000 0.0000
# 2 6.7547 105.0175 23.8095 0.0000 0.0000 0.0000
# 3 13.3856 23.8095 39.9822 0.0000 0.0000 0.0000
# 4 0.0000 0.0000 0.0000 21.2755 0.0000 0.0000
# 5 0.0000 0.0000 0.0000 0.0000 11.4758 0.0000
# 6 0.0000 0.0000 0.0000 0.0000 0.0000 1.9145
#
#
#
# Elastic Compliance Matrix: (Units=1/GPa)
#
#
# Indices 1 2 3 4 5 6 
#
# 1 0.017120 0.000229 -0.005868 0.000000 0.000000 0.000000
# 2 0.000229 0.011012 -0.006634 0.000000 0.000000 0.000000
# 3 -0.005868 -0.006634 0.030926 0.000000 0.000000 0.000000
# 4 0.000000 0.000000 0.000000 0.047002 0.000000 0.000000
# 5 0.000000 0.000000 0.000000 0.000000 0.087140 0.000000
# 6 0.000000 0.000000 0.000000 0.000000 0.000000 0.522328
#
#
# Mechanical properties :
#
#
# Convention : Reuss Voigt Hill
#
# Bulk Modulus (GPa) = 28.97536 32.86742 30.92139
# Shear Modulus (GPa) = 6.65266 17.86367 12.25817
#
# Velocity S-wave (km/s) = 1.91735 3.14187 2.60265
# Velocity P-wave (km/s) = 4.57310 5.59680 5.11065
#
# Compressibility (1/GPa) = 0.03451208
#
# Stress axis : x y z
#
# Youngs Moduli (GPa) = 58.40998 90.81362 32.33486
#
# Poissons Ratio (x) = -0.02082 0.18975
# Poissons Ratio (y) = -0.01339 0.21451
# Poissons Ratio (z) = 0.34276 0.60247
#
# Static dielectric constant tensor:
#      x y z
#    x 1.631900 0.000000 0.000000 
#    y 0.000000 1.674090 0.000000 
#    z 0.000000 0.000000 1.620680 
# 
# From -- ./inp_files/46739.got.cif
#   From: 2010.05.17/outbox.cif.g08.bks.cpg/sg64_24_cif.got.tgz:46739.got - 2010.06.03 16:29:19.
