data_PCOD9476075
_publ_section_title
;
Structure prediction by ZEFSAII (Michael W. Deem and Ramdas Pophale) SiO2 
 PCOD9476075
Probable space group: C M C M
;
_chemical_formula_sum "Si O2"
_cell_formula_units_Z 48
_cell_length_a 21.000000
_cell_length_b 27.000000
_cell_length_c 9.000000
_cell_angle_alpha 90.000000
_cell_angle_beta 90.000000
_cell_angle_gamma 90.000000
_cell_volume 5103.000000
_symmetry_space_group_name_H-M "C M C M"
_symmetry_group_IT_number 63
_symmetry_cell_setting 'orthorhombic'
loop_
_space_group_symop_operation_xyz
x,y,z
-x,-y,1/2+z
x,-y,-z
-x,y,1/2-z
-x,-y,-z
x,y,1/2-z
-x,y,z
x,-y,1/2+z
1/2+x,1/2+y,z
1/2-x,1/2-y,1/2+z
1/2+x,1/2-y,-z
1/2-x,1/2+y,1/2-z
1/2-x,1/2-y,-z
1/2+x,1/2+y,1/2-z
1/2-x,1/2+y,z
1/2+x,1/2-y,1/2+z
loop_
_atom_site_type_symbol
_atom_site_label
_atom_site_fract_x
_atom_site_fract_y
_atom_site_fract_z
Si Si1 0.709055 0.291860 0.578867
Si Si2 0.928235 0.333867 0.573554
Si Si3 0.570231 0.273830 0.929020
Si Si4 0.700939 0.887503 0.578927
Si Si5 0.429857 0.555120 0.428193
Si Si6 0.804671 0.053589 0.925337
O O1 0.701913 0.276447 0.750000
O O2 0.750000 0.250000 0.500000
O O3 0.636849 0.298082 0.519587
O O4 0.752543 0.340133 0.576093
O O5 0.921361 0.321776 0.750000
O O6 0.923464 0.283405 0.480058
O O7 0.870069 0.370315 0.537643
O O8 0.000000 0.353948 0.552030
O O9 0.567876 0.277877 0.750000
O O10 0.500000 0.290964 0.984050
O O11 0.700316 0.906381 0.750000
O O12 0.737049 0.923440 0.467861
O O13 0.433086 0.500000 0.500000
O O14 0.421878 0.551777 0.250000
O O15 0.500000 0.578107 0.455891
O O16 0.366973 0.579176 0.499386
O O17 0.814119 0.051319 0.750000
O O18 0.803947 0.000000 0.000000
#
# Coordination Sequence:
#
# PCOD9476075 Si02
#       6
#    16  16  16  16  16  16
#     4  10  19  31  49  73 103 137 171 211 256 303
#     4   9  17  30  50  75 102 134 171 211 256 306
#     4   9  17  29  46  70 102 138 174 211 250 298
#     4  10  20  34  51  75 106 137 173 217 262 314
#     4   9  16  28  49  75 101 130 165 206 252 302
#     4  11  22  36  55  77 103 136 174 220 267 315
#
# _framework density 9.4062319999999993
#
# number of rings (size 3 to 8) (size 9 to 14) (size 15 to 20)
#    0.000    2.333    1.667    3.000    0.000    2.333 
#    0.000    0.833    0.000    3.500    0.000    0.000 
#    0.000    0.000    0.000    0.000    0.000    0.000 
#
# Total GULP energy -267341.389817 kJ/mol
# GULP energy per Si atom -5569.612288 kJ/mol
# Density = 0.938482 g / cm^3
# Si number density = 9.406232 Si / 1000 Ang^3
#
#
#
# Elastic Constant Matrix: (Units=GPa)
#
#
# Indices 1 2 3 4 5 6 
#
# 1 183.5725 27.5764 32.8445 0.0000 0.0000 0.0000
# 2 27.5764 26.0213 16.5236 0.0000 0.0000 0.0000
# 3 32.8445 16.5236 54.5845 0.0000 0.0000 0.0000
# 4 0.0000 0.0000 0.0000 13.6685 0.0000 0.0000
# 5 0.0000 0.0000 0.0000 0.0000 28.4893 0.0000
# 6 0.0000 0.0000 0.0000 0.0000 0.0000 10.7361
#
#
#
# Elastic Compliance Matrix: (Units=1/GPa)
#
#
# Indices 1 2 3 4 5 6 
#
# 1 0.006711 -0.005630 -0.002334 0.000000 0.000000 0.000000
# 2 -0.005630 0.052298 -0.012444 0.000000 0.000000 0.000000
# 3 -0.002334 -0.012444 0.023491 0.000000 0.000000 0.000000
# 4 0.000000 0.000000 0.000000 0.073161 0.000000 0.000000
# 5 0.000000 0.000000 0.000000 0.000000 0.035101 0.000000
# 6 0.000000 0.000000 0.000000 0.000000 0.000000 0.093144
#
#
# Mechanical properties :
#
#
# Convention : Reuss Voigt Hill
#
# Bulk Modulus (GPa) = 23.98922 46.45192 35.22057
# Shear Modulus (GPa) = 14.76599 23.06103 18.91351
#
# Velocity S-wave (km/s) = 2.80465 3.50499 3.17420
# Velocity P-wave (km/s) = 4.82365 6.41293 5.67421
#
# Compressibility (1/GPa) = 0.04168539
#
# Stress axis : x y z
#
# Youngs Moduli (GPa) = 149.01577 19.12112 42.56874
#
# Poissons Ratio (x) = 0.10765 0.09934
# Poissons Ratio (y) = 0.83893 0.52972
# Poissons Ratio (z) = 0.34776 0.23794
#
# Static dielectric constant tensor:
#      x y z
#    x 1.729900 0.000000 0.000000 
#    y 0.000000 1.708280 0.000000 
#    z 0.000000 0.000000 1.641990 
# 
# From -- ./inp_files/8657.got.cif
#   From: 2010.05.17/outbox.ucp.g08.bks.cvg/sg63_5_cif.got.tgz:8657.got - 2010.06.11 16:32:19.
