data_PCOD9476321
_publ_section_title
;
Structure prediction by ZEFSAII (Michael W. Deem and Ramdas Pophale) SiO2 
 PCOD9476321
Probable space group: C M C A
;
_chemical_formula_sum "Si O2"
_cell_formula_units_Z 128
_cell_length_a 14.420781
_cell_length_b 23.491451
_cell_length_c 18.818006
_cell_angle_alpha 90.000000
_cell_angle_beta 90.000000
_cell_angle_gamma 90.000000
_cell_volume 6374.883124
_symmetry_space_group_name_H-M "C M C A"
_symmetry_group_IT_number 64
_symmetry_cell_setting 'orthorhombic'
loop_
_space_group_symop_operation_xyz
x,y,z
-x,1/2-y,1/2+z
x,-y,-z
-x,1/2+y,1/2-z
-x,-y,-z
x,1/2+y,1/2-z
-x,y,z
x,1/2-y,1/2+z
1/2+x,1/2+y,z
1/2-x,-y,1/2+z
1/2+x,1/2-y,-z
1/2-x,y,1/2-z
1/2-x,1/2-y,-z
1/2+x,y,1/2-z
1/2-x,1/2+y,z
1/2+x,-y,1/2+z
loop_
_atom_site_type_symbol
_atom_site_label
_atom_site_fract_x
_atom_site_fract_y
_atom_site_fract_z
Si Si1 0.888325 0.760469 0.939333
Si Si2 0.355289 0.231841 0.273882
Si Si3 0.105124 0.881965 0.691665
Si Si4 0.886665 0.929350 0.109404
Si Si5 0.387280 0.888030 0.541332
Si Si6 0.613703 0.454697 0.818189
Si Si7 0.605664 0.306768 0.151093
Si Si8 0.886164 0.805554 0.569126
O O1 0.864388 0.759712 0.856966
O O2 0.857148 0.822517 0.967798
O O3 0.000000 0.760793 0.943805
O O4 0.858106 0.707507 0.988379
O O5 0.250000 0.227367 0.250000
O O6 0.399114 0.173683 0.243366
O O7 0.395106 0.285739 0.231773
O O8 0.145772 0.931055 0.741761
O O9 0.147512 0.857930 0.617968
O O10 0.000000 0.899464 0.674434
O O11 0.853526 0.868859 0.140575
O O12 0.000000 0.931770 0.111351
O O13 0.855602 0.983156 0.155459
O O14 0.859945 0.926580 0.026102
O O15 0.500000 0.887980 0.541605
O O16 0.359064 0.912397 0.617647
O O17 0.500000 0.454207 0.815482
O O18 0.500000 0.311551 0.124317
O O19 0.644571 0.252556 0.108846
O O20 0.000000 0.808277 0.572751
#
# Coordination Sequence:
#
# PCOD9476321 Si02
#       8
#    16  16  16  16  16  16  16  16
#     4  10  16  27  46  66  88 122 155 185 233 282
#     4  11  21  30  42  62  88 118 151 193 229 274
#     4   9  16  29  45  63  89 122 152 181 221 273
#     4   9  15  23  39  65  93 116 141 178 222 271
#     4   9  14  21  36  64  96 118 138 172 218 275
#     4   9  15  22  38  65  94 119 141 170 217 272
#     4   9  16  29  45  62  85 114 147 186 228 270
#     4   8  14  24  43  64  83 113 154 188 219 267
#
# _framework density 20.078800999999999
#
# number of rings (size 3 to 8) (size 9 to 14) (size 15 to 20)
#    0.000    2.750    2.500    2.250    0.000    1.500 
#    0.000    2.500    0.000    0.750    0.000    0.875 
#    0.000    6.000    0.000    0.000    0.000    0.000 
#
# Total GULP energy -356554.061569 kJ/mol
# GULP energy per Si atom -5571.157212 kJ/mol
# Density = 2.003310 g / cm^3
# Si number density = 20.078801 Si / 1000 Ang^3
#
#
#
# Elastic Constant Matrix: (Units=GPa)
#
#
# Indices 1 2 3 4 5 6 
#
# 1 35.0467 -18.4809 -24.4317 0.0000 0.0000 0.0000
# 2 -18.4809 19.6419 0.3498 0.0000 0.0000 0.0000
# 3 -24.4317 0.3498 67.6766 0.0000 0.0000 0.0000
# 4 0.0000 0.0000 0.0000 35.4860 0.0000 0.0000
# 5 0.0000 0.0000 0.0000 0.0000 9.9347 0.0000
# 6 0.0000 0.0000 0.0000 0.0000 0.0000 -16.7080
#
#
#
# Elastic Compliance Matrix: (Units=1/GPa)
#
#
# Indices 1 2 3 4 5 6 
#
# 1 0.110213 0.102999 0.039255 0.000000 0.000000 0.000000
# 2 0.102999 0.147174 0.036423 0.000000 0.000000 0.000000
# 3 0.039255 0.036423 0.028759 0.000000 0.000000 0.000000
# 4 0.000000 0.000000 0.000000 0.028180 0.000000 0.000000
# 5 0.000000 0.000000 0.000000 0.000000 0.100657 0.000000
# 6 0.000000 0.000000 0.000000 0.000000 0.000000 -0.059852
#
#
# Mechanical properties :
#
#
# Convention : Reuss Voigt Hill
#
# Bulk Modulus (GPa) = 1.55400 4.13772 2.84586
# Shear Modulus (GPa) = 23.55408 16.73776 20.14592
#
# Velocity S-wave (km/s) = 3.42874 2.89035 3.17099
# Velocity P-wave (km/s) = 4.05594 3.63374 3.85063
#
# Compressibility (1/GPa) = 0.64350149
#
# Stress axis : x y z
#
# Youngs Moduli (GPa) = 9.07335 6.79466 34.77132
#
# Poissons Ratio (x) = -0.69985 -1.36496
# Poissons Ratio (y) = -0.93455 -1.26647
# Poissons Ratio (z) = -0.35618 -0.24748
#
# Static dielectric constant tensor:
#      x y z
#    x 1.773570 0.000000 0.000000 
#    y 0.000000 1.726060 0.000000 
#    z 0.000000 0.000000 1.758610 
# 
# From -- ./inp_files/34703.got.cif
#   From: 2010.05.17/outbox.cif.g08.bks.cpg/sg64_18_cif.got.tgz:34703.got - 2010.06.03 16:29:19.
