data_PCOD9477303
_publ_section_title
;
Structure prediction by ZEFSAII (Michael W. Deem and Ramdas Pophale) SiO2 
 PCOD9477303
Probable space group: C M C A
;
_chemical_formula_sum "Si O2"
_cell_formula_units_Z 80
_cell_length_a 7.549097
_cell_length_b 27.612989
_cell_length_c 18.498584
_cell_angle_alpha 90.000000
_cell_angle_beta 90.000000
_cell_angle_gamma 90.000000
_cell_volume 3856.087780
_symmetry_space_group_name_H-M "C M C A"
_symmetry_group_IT_number 64
_symmetry_cell_setting 'orthorhombic'
loop_
_space_group_symop_operation_xyz
x,y,z
-x,1/2-y,1/2+z
x,-y,-z
-x,1/2+y,1/2-z
-x,-y,-z
x,1/2+y,1/2-z
-x,y,z
x,1/2-y,1/2+z
1/2+x,1/2+y,z
1/2-x,-y,1/2+z
1/2+x,1/2-y,-z
1/2-x,y,1/2-z
1/2-x,1/2-y,-z
1/2+x,y,1/2-z
1/2-x,1/2+y,z
1/2+x,-y,1/2+z
loop_
_atom_site_type_symbol
_atom_site_label
_atom_site_fract_x
_atom_site_fract_y
_atom_site_fract_z
Si Si1 0.287654 0.211625 0.663932
Si Si2 0.712488 0.815603 0.836180
Si Si3 0.713314 0.606041 0.835420
Si Si4 0.705599 0.485321 0.076530
Si Si5 0.711338 0.420663 0.664696
O O1 0.500000 0.211917 0.654163
O O2 0.250000 0.211781 0.750000
O O3 0.219730 0.263622 0.635356
O O4 0.220467 0.159086 0.639102
O O5 0.500000 0.815729 0.845135
O O6 0.750000 0.815639 0.750000
O O7 0.777802 0.867954 0.862909
O O8 0.500000 0.606891 0.841152
O O9 0.750000 0.599839 0.750000
O O10 0.782730 0.560860 0.881442
O O11 0.500000 0.472603 0.062443
O O12 0.710980 0.532792 0.126032
O O13 0.788018 0.500000 0.000000
O O14 0.500000 0.422258 0.654828
O O15 0.750000 0.423192 0.750000
#
# Coordination Sequence:
#
# PCOD9477303 Si02
#       5
#    16  16  16  16  16
#     4   8  13  23  40  63  89 113 139 175 220 266
#     4   8  14  24  40  64  91 115 140 175 219 266
#     4   9  17  29  47  69  90 115 148 186 227 270
#     4  10  21  35  48  64  90 124 160 196 233 273
#     4  10  19  31  49  72  95 120 151 186 226 272
#
# _framework density 20.746416
#
# number of rings (size 3 to 8) (size 9 to 14) (size 15 to 20)
#    0.000    3.000    0.000    1.200    0.000    3.600 
#    0.000    0.000    0.000    1.200    0.000    0.000 
#    0.000    0.000    0.000    0.000    0.000    1.400 
#
# Total GULP energy -222716.709136 kJ/mol
# GULP energy per Si atom -5567.917728 kJ/mol
# Density = 2.069920 g / cm^3
# Si number density = 20.746416 Si / 1000 Ang^3
#
#
#
# Elastic Constant Matrix: (Units=GPa)
#
#
# Indices 1 2 3 4 5 6 
#
# 1 54.3130 -15.0067 -10.1790 0.0000 0.0000 0.0000
# 2 -15.0067 175.9124 28.6200 0.0000 0.0000 0.0000
# 3 -10.1790 28.6200 29.5330 0.0000 0.0000 0.0000
# 4 0.0000 0.0000 0.0000 -9.4427 0.0000 0.0000
# 5 0.0000 0.0000 0.0000 0.0000 5.6161 0.0000
# 6 0.0000 0.0000 0.0000 0.0000 0.0000 24.8634
#
#
#
# Elastic Compliance Matrix: (Units=1/GPa)
#
#
# Indices 1 2 3 4 5 6 
#
# 1 0.019753 0.000685 0.006144 0.000000 0.000000 0.000000
# 2 0.000685 0.006772 -0.006327 0.000000 0.000000 0.000000
# 3 0.006144 -0.006327 0.042109 0.000000 0.000000 0.000000
# 4 0.000000 0.000000 0.000000 -0.105902 0.000000 0.000000
# 5 0.000000 0.000000 0.000000 0.000000 0.178061 0.000000
# 6 0.000000 0.000000 0.000000 0.000000 0.000000 0.040220
#
#
# Mechanical properties :
#
#
# Convention : Reuss Voigt Hill
#
# Bulk Modulus (GPa) = 14.35975 29.62523 21.99249
# Shear Modulus (GPa) = 24.60381 21.29564 22.94973
#
# Velocity S-wave (km/s) = 3.44747 3.20734 3.32957
# Velocity P-wave (km/s) = 4.77319 5.29403 5.04034
#
# Compressibility (1/GPa) = 0.06963911
#
# Stress axis : x y z
#
# Youngs Moduli (GPa) = 50.62618 147.65665 23.74779
#
# Poissons Ratio (x) = -0.10122 -0.14590
# Poissons Ratio (y) = -0.03470 0.15025
# Poissons Ratio (z) = -0.31104 0.93420
#
# Static dielectric constant tensor:
#      x y z
#    x 1.841100 0.000000 0.000000 
#    y 0.000000 1.837990 0.000000 
#    z 0.000000 0.000000 1.671770 
# 
# From -- ./inp_files/29736.got.cif
#   From: 2010.05.17/outbox.cif.g08.bks.cpg/sg64_15_cif.got.tgz:29736.got - 2010.06.03 16:29:19.
