data_PCOD9477381
_publ_section_title
;
Structure prediction by ZEFSAII (Michael W. Deem and Ramdas Pophale) SiO2 
 PCOD9477381
Probable space group: C M C A
;
_chemical_formula_sum "Si O2"
_cell_formula_units_Z 120
_cell_length_a 19.395818
_cell_length_b 16.574299
_cell_length_c 21.593060
_cell_angle_alpha 90.000000
_cell_angle_beta 90.000000
_cell_angle_gamma 90.000000
_cell_volume 6941.566060
_symmetry_space_group_name_H-M "C M C A"
_symmetry_group_IT_number 64
_symmetry_cell_setting 'orthorhombic'
loop_
_space_group_symop_operation_xyz
x,y,z
-x,1/2-y,1/2+z
x,-y,-z
-x,1/2+y,1/2-z
-x,-y,-z
x,1/2+y,1/2-z
-x,y,z
x,1/2-y,1/2+z
1/2+x,1/2+y,z
1/2-x,-y,1/2+z
1/2+x,1/2-y,-z
1/2-x,y,1/2-z
1/2-x,1/2-y,-z
1/2+x,y,1/2-z
1/2-x,1/2+y,z
1/2+x,-y,1/2+z
loop_
_atom_site_type_symbol
_atom_site_label
_atom_site_fract_x
_atom_site_fract_y
_atom_site_fract_z
Si Si1 0.581080 0.754309 0.418466
Si Si2 0.195405 0.329073 0.154371
Si Si3 0.678192 0.274469 0.966482
Si Si4 0.167417 0.474593 0.230811
Si Si5 0.750000 0.777401 0.750000
Si Si6 0.778564 0.545383 0.437082
Si Si7 0.167208 0.379943 0.846290
Si Si8 0.847027 0.404084 0.360051
O O1 0.500000 0.742889 0.422892
O O2 0.618085 0.756586 0.485103
O O3 0.615855 0.681572 0.379407
O O4 0.599109 0.840821 0.387455
O O5 0.171260 0.278794 0.095537
O O6 0.161060 0.412583 0.173812
O O7 0.192800 0.277707 0.217611
O O8 0.275699 0.352622 0.143903
O O9 0.684282 0.369592 0.951559
O O10 0.750000 0.250000 0.000000
O O11 0.250000 0.483401 0.250000
O O12 0.138621 0.558161 0.204952
O O13 0.134768 0.438184 0.292503
O O14 0.778908 0.828126 0.693586
O O15 0.757381 0.500000 0.500000
O O16 0.712547 0.569565 0.395638
O O17 0.827468 0.481901 0.401417
#
# Coordination Sequence:
#
# PCOD9477381 Si02
#       8
#    16  16  16  16   8  16  16  16
#     4  12  26  43  60  85 129 176 209 247 316 385
#     4  11  18  30  57  89 123 149 191 256 308 353
#     4  12  21  37  58  88 118 155 214 259 297 356
#     4  10  19  31  56  96 125 144 187 258 320 357
#     4  12  16  30  56  96 120 146 190 254 318 358
#     4  12  20  31  59  95 119 147 203 265 314 345
#     4  12  21  33  59  93 128 154 198 264 312 366
#     4  11  19  37  56  92 124 155 198 254 315 360
#
# _framework density 17.287165999999999
#
# number of rings (size 3 to 8) (size 9 to 14) (size 15 to 20)
#    0.000    0.533   12.000    0.000    0.000    0.000 
#    0.000    2.000    0.000    6.800    0.000    0.000 
#    0.000    0.000    0.000    0.000    0.000    0.000 
#
# Total GULP energy -334638.731580 kJ/mol
# GULP energy per Si atom -5577.312193 kJ/mol
# Density = 1.724782 g / cm^3
# Si number density = 17.287166 Si / 1000 Ang^3
#
#
#
# Elastic Constant Matrix: (Units=GPa)
#
#
# Indices 1 2 3 4 5 6 
#
# 1 63.6766 35.1677 40.1165 0.0000 0.0000 0.0000
# 2 35.1677 134.9472 67.1994 0.0000 0.0000 0.0000
# 3 40.1165 67.1994 121.7879 0.0000 0.0000 0.0000
# 4 0.0000 0.0000 0.0000 50.4005 0.0000 0.0000
# 5 0.0000 0.0000 0.0000 0.0000 11.4055 0.0000
# 6 0.0000 0.0000 0.0000 0.0000 0.0000 6.1872
#
#
#
# Elastic Compliance Matrix: (Units=1/GPa)
#
#
# Indices 1 2 3 4 5 6 
#
# 1 0.020523 -0.002733 -0.005252 0.000000 0.000000 0.000000
# 2 -0.002733 0.010582 -0.004939 0.000000 0.000000 0.000000
# 3 -0.005252 -0.004939 0.012666 0.000000 0.000000 0.000000
# 4 0.000000 0.000000 0.000000 0.019841 0.000000 0.000000
# 5 0.000000 0.000000 0.000000 0.000000 0.087677 0.000000
# 6 0.000000 0.000000 0.000000 0.000000 0.000000 0.161625
#
#
# Mechanical properties :
#
#
# Convention : Reuss Voigt Hill
#
# Bulk Modulus (GPa) = 55.79355 67.26432 61.52894
# Shear Modulus (GPa) = 14.50392 25.46051 19.98222
#
# Velocity S-wave (km/s) = 2.89969 3.84187 3.40354
# Velocity P-wave (km/s) = 6.59966 7.65992 7.14947
#
# Compressibility (1/GPa) = 0.01792322
#
# Stress axis : x y z
#
# Youngs Moduli (GPa) = 48.72692 94.50260 78.95164
#
# Poissons Ratio (x) = 0.25826 0.41466
# Poissons Ratio (y) = 0.13316 0.38990
# Poissons Ratio (z) = 0.25592 0.46670
#
# Static dielectric constant tensor:
#      x y z
#    x 1.570420 0.000000 0.000000 
#    y 0.000000 1.656420 0.000000 
#    z 0.000000 0.000000 1.616920 
# 
# From -- ./inp_files/46441.got.cif
#   From: 2010.05.17/outbox.cif.g08.bks.cpg/sg64_24_cif.got.tgz:46441.got - 2010.06.03 16:29:19.
