data_PCOD9477825
_publ_section_title
;
Structure prediction by ZEFSAII (Michael W. Deem and Ramdas Pophale) SiO2 
 PCOD9477825
Probable space group: C M C A
;
_chemical_formula_sum "Si O2"
_cell_formula_units_Z 96
_cell_length_a 16.168115
_cell_length_b 29.499263
_cell_length_c 11.640806
_cell_angle_alpha 90.000000
_cell_angle_beta 90.000000
_cell_angle_gamma 90.000000
_cell_volume 5552.053047
_symmetry_space_group_name_H-M "C M C A"
_symmetry_group_IT_number 64
_symmetry_cell_setting 'orthorhombic'
loop_
_space_group_symop_operation_xyz
x,y,z
-x,1/2-y,1/2+z
x,-y,-z
-x,1/2+y,1/2-z
-x,-y,-z
x,1/2+y,1/2-z
-x,y,z
x,1/2-y,1/2+z
1/2+x,1/2+y,z
1/2-x,-y,1/2+z
1/2+x,1/2-y,-z
1/2-x,y,1/2-z
1/2-x,1/2-y,-z
1/2+x,y,1/2-z
1/2-x,1/2+y,z
1/2+x,-y,1/2+z
loop_
_atom_site_type_symbol
_atom_site_label
_atom_site_fract_x
_atom_site_fract_y
_atom_site_fract_z
Si Si1 0.321499 0.424958 0.472120
Si Si2 0.160702 0.127121 0.884931
Si Si3 0.000000 0.921117 0.036668
Si Si4 0.740187 0.219731 0.884580
Si Si5 0.403882 0.848644 0.138424
Si Si6 0.166757 0.987853 0.679649
Si Si7 0.500000 0.011919 0.320868
O O1 0.235160 0.405670 0.422715
O O2 0.386603 0.384335 0.462419
O O3 0.348883 0.467541 0.396166
O O4 0.314217 0.445093 0.598617
O O5 0.194592 0.178205 0.900187
O O6 0.135071 0.126903 0.751004
O O7 0.080306 0.110447 0.952528
O O8 0.000000 0.959455 0.136829
O O9 0.000000 0.952567 0.925059
O O10 0.750000 0.237313 0.750000
O O11 0.650027 0.195980 0.884253
O O12 0.750000 0.250000 0.000000
O O13 0.500000 0.839869 0.156732
O O14 0.250000 0.996758 0.750000
O O15 0.084611 0.980328 0.752581
#
# Coordination Sequence:
#
# PCOD9477825 Si02
#       7
#    16  16   8  16  16  16   8
#     4  10  21  33  55  74 112 149 195 231 287 333
#     4  10  19  36  61  85 105 150 194 245 279 343
#     4  11  20  36  56  80 110 148 205 238 288 329
#     4   9  20  40  62  88 119 146 187 233 302 359
#     4  10  19  34  59  88 109 144 191 243 276 337
#     4  11  22  35  49  77 112 153 194 241 286 335
#     4  11  24  33  52  78 118 157 193 245 290 340
#
# _framework density 17.290901000000002
#
# number of rings (size 3 to 8) (size 9 to 14) (size 15 to 20)
#    0.000    1.833    0.833    5.500    2.333    3.333 
#    1.500    6.667    0.000    0.000    0.000    0.000 
#    0.000    0.000    0.000    0.000    0.000    0.000 
#
# Total GULP energy -267490.044096 kJ/mol
# GULP energy per Si atom -5572.709252 kJ/mol
# Density = 1.725155 g / cm^3
# Si number density = 17.290901 Si / 1000 Ang^3
#
#
#
# Elastic Constant Matrix: (Units=GPa)
#
#
# Indices 1 2 3 4 5 6 
#
# 1 131.5029 29.6154 39.1837 0.0000 0.0000 0.0000
# 2 29.6154 61.2735 39.4261 0.0000 0.0000 0.0000
# 3 39.1837 39.4261 80.2092 0.0000 0.0000 0.0000
# 4 0.0000 0.0000 0.0000 33.9589 0.0000 0.0000
# 5 0.0000 0.0000 0.0000 0.0000 14.5583 0.0000
# 6 0.0000 0.0000 0.0000 0.0000 0.0000 13.3558
#
#
#
# Elastic Compliance Matrix: (Units=1/GPa)
#
#
# Indices 1 2 3 4 5 6 
#
# 1 0.009107 -0.002251 -0.003343 0.000000 0.000000 0.000000
# 2 -0.002251 0.024426 -0.010907 0.000000 0.000000 0.000000
# 3 -0.003343 -0.010907 0.019461 0.000000 0.000000 0.000000
# 4 0.000000 0.000000 0.000000 0.029447 0.000000 0.000000
# 5 0.000000 0.000000 0.000000 0.000000 0.068689 0.000000
# 6 0.000000 0.000000 0.000000 0.000000 0.000000 0.074874
#
#
# Mechanical properties :
#
#
# Convention : Reuss Voigt Hill
#
# Bulk Modulus (GPa) = 50.01487 54.38179 52.19833
# Shear Modulus (GPa) = 18.82029 23.35865 21.08947
#
# Velocity S-wave (km/s) = 3.30275 3.67948 3.49619
# Velocity P-wave (km/s) = 6.59792 7.04065 6.82288
#
# Compressibility (1/GPa) = 0.01999406
#
# Stress axis : x y z
#
# Youngs Moduli (GPa) = 109.80141 40.93965 51.38362
#
# Poissons Ratio (x) = 0.09216 0.17176
# Poissons Ratio (y) = 0.24717 0.56043
# Poissons Ratio (z) = 0.36702 0.44652
#
# Static dielectric constant tensor:
#      x y z
#    x 1.571890 0.000000 0.000000 
#    y 0.000000 1.574090 0.000000 
#    z 0.000000 0.000000 1.626680 
# 
# From -- ./inp_files/14897.got.cif
#   From: 2010.05.17/outbox.cif.g08.bks.cpg/sg64_8_cif.got.tgz:14897.got - 2010.06.03 16:29:19.
