data_PCOD9477143
_publ_section_title
;
Structure prediction by ZEFSAII (Michael W. Deem and Ramdas Pophale) SiO2 
 PCOD9477143
Probable space group: C M C A
;
_chemical_formula_sum "Si O2"
_cell_formula_units_Z 64
_cell_length_a 17.674472
_cell_length_b 7.235033
_cell_length_c 17.840092
_cell_angle_alpha 90.000000
_cell_angle_beta 90.000000
_cell_angle_gamma 90.000000
_cell_volume 2281.308690
_symmetry_space_group_name_H-M "C M C A"
_symmetry_group_IT_number 64
_symmetry_cell_setting 'orthorhombic'
loop_
_space_group_symop_operation_xyz
x,y,z
-x,1/2-y,1/2+z
x,-y,-z
-x,1/2+y,1/2-z
-x,-y,-z
x,1/2+y,1/2-z
-x,y,z
x,1/2-y,1/2+z
1/2+x,1/2+y,z
1/2-x,-y,1/2+z
1/2+x,1/2-y,-z
1/2-x,y,1/2-z
1/2-x,1/2-y,-z
1/2+x,y,1/2-z
1/2-x,1/2+y,z
1/2+x,-y,1/2+z
loop_
_atom_site_type_symbol
_atom_site_label
_atom_site_fract_x
_atom_site_fract_y
_atom_site_fract_z
Si Si1 0.000000 0.646301 0.238627
Si Si2 0.834648 0.339506 0.265392
Si Si3 0.680143 0.373762 0.069017
Si Si4 0.500000 0.308029 0.380184
Si Si5 0.652140 0.046978 0.903338
O O1 0.918494 0.746880 0.229199
O O2 0.000000 0.623799 0.329627
O O3 0.000000 0.480561 0.179456
O O4 0.750000 0.250175 0.250000
O O5 0.831229 0.447310 0.345141
O O6 0.839830 0.446083 0.186603
O O7 0.648506 0.166451 0.073706
O O8 0.771521 0.363994 0.065312
O O9 0.653898 0.500000 0.000000
O O10 0.422881 0.340582 0.423360
#
# Coordination Sequence:
#
# PCOD9477143 Si02
#       5
#     8  16  16   8  16
#     4  10  18  38  60  88 129 158 211 274 319 369
#     4   9  20  36  61  91 119 162 213 258 319 372
#     4  11  22  40  64  96 129 169 214 267 322 387
#     4  10  20  40  59  90 127 162 210 274 321 375
#     4  10  22  40  63  89 128 164 219 265 322 383
#
# _framework density 28.054072999999999
#
# number of rings (size 3 to 8) (size 9 to 14) (size 15 to 20)
#    0.000    2.000    2.500    0.750    0.000    9.000 
#    9.000    3.125    0.000    0.000    0.000    0.000 
#    0.000    0.000    0.000    0.000    0.000    0.000 
#
# Total GULP energy -178768.830930 kJ/mol
# GULP energy per Si atom -5586.525967 kJ/mol
# Density = 2.799022 g / cm^3
# Si number density = 28.054073 Si / 1000 Ang^3
#
#
#
# Elastic Constant Matrix: (Units=GPa)
#
#
# Indices 1 2 3 4 5 6 
#
# 1 210.9924 52.6299 40.0235 0.0000 0.0000 0.0000
# 2 52.6299 75.9113 35.8987 0.0000 0.0000 0.0000
# 3 40.0235 35.8987 187.0526 0.0000 0.0000 0.0000
# 4 0.0000 0.0000 0.0000 44.3134 0.0000 0.0000
# 5 0.0000 0.0000 0.0000 0.0000 45.7384 0.0000
# 6 0.0000 0.0000 0.0000 0.0000 0.0000 58.2517
#
#
#
# Elastic Compliance Matrix: (Units=1/GPa)
#
#
# Indices 1 2 3 4 5 6 
#
# 1 0.005775 -0.003761 -0.000514 0.000000 0.000000 0.000000
# 2 -0.003761 0.016937 -0.002446 0.000000 0.000000 0.000000
# 3 -0.000514 -0.002446 0.005925 0.000000 0.000000 0.000000
# 4 0.000000 0.000000 0.000000 0.022567 0.000000 0.000000
# 5 0.000000 0.000000 0.000000 0.000000 0.021863 0.000000
# 6 0.000000 0.000000 0.000000 0.000000 0.000000 0.017167
#
#
# Mechanical properties :
#
#
# Convention : Reuss Voigt Hill
#
# Bulk Modulus (GPa) = 65.80422 81.22896 73.51659
# Shear Modulus (GPa) = 45.98051 52.68765 49.33408
#
# Velocity S-wave (km/s) = 4.05284 4.33838 4.19804
# Velocity P-wave (km/s) = 6.73853 7.35613 7.05409
#
# Compressibility (1/GPa) = 0.01519659
#
# Stress axis : x y z
#
# Youngs Moduli (GPa) = 173.15681 59.04099 168.76340
#
# Poissons Ratio (x) = 0.22205 0.08673
# Poissons Ratio (y) = 0.65123 0.41277
# Poissons Ratio (z) = 0.08899 0.14441
#
# Static dielectric constant tensor:
#      x y z
#    x 2.173800 0.000000 0.000000 
#    y 0.000000 2.459200 0.000000 
#    z 0.000000 0.000000 2.288170 
# 
# From -- ./inp_files/32797.got.cif
#   From: 2010.05.17/outbox.cif.g08.bks.cpg/sg64_17_cif.got.tgz:32797.got - 2010.06.03 16:29:19.
