data_PCOD9477863
_publ_section_title
;
Structure prediction by ZEFSAII (Michael W. Deem and Ramdas Pophale) SiO2 
 PCOD9477863
Probable space group: C M C A
;
_chemical_formula_sum "Si O2"
_cell_formula_units_Z 80
_cell_length_a 16.279624
_cell_length_b 13.526578
_cell_length_c 14.805082
_cell_angle_alpha 90.000000
_cell_angle_beta 90.000000
_cell_angle_gamma 90.000000
_cell_volume 3260.191632
_symmetry_space_group_name_H-M "C M C A"
_symmetry_group_IT_number 64
_symmetry_cell_setting 'orthorhombic'
loop_
_space_group_symop_operation_xyz
x,y,z
-x,1/2-y,1/2+z
x,-y,-z
-x,1/2+y,1/2-z
-x,-y,-z
x,1/2+y,1/2-z
-x,y,z
x,1/2-y,1/2+z
1/2+x,1/2+y,z
1/2-x,-y,1/2+z
1/2+x,1/2-y,-z
1/2-x,y,1/2-z
1/2-x,1/2-y,-z
1/2+x,y,1/2-z
1/2-x,1/2+y,z
1/2+x,-y,1/2+z
loop_
_atom_site_type_symbol
_atom_site_label
_atom_site_fract_x
_atom_site_fract_y
_atom_site_fract_z
Si Si1 0.318152 0.484440 0.674288
Si Si2 0.000000 0.555356 0.177382
Si Si3 0.719963 0.000000 0.500000
Si Si4 0.000000 0.838123 0.280992
Si Si5 0.500000 0.826038 0.996757
Si Si6 0.160072 0.202392 0.011150
Si Si7 0.164763 0.720165 0.798494
O O1 0.250000 0.469003 0.750000
O O2 0.401841 0.425761 0.693725
O O3 0.278401 0.459712 0.578465
O O4 0.331349 0.604457 0.668151
O O5 0.000000 0.453259 0.235531
O O6 0.000000 0.579058 0.068896
O O7 0.665210 0.907111 0.470547
O O8 0.000000 0.838876 0.393083
O O9 0.919789 0.784896 0.244112
O O10 0.582990 0.764858 0.976646
O O11 0.150088 0.205416 0.119515
O O12 0.250000 0.250000 0.000000
O O13 0.250000 0.740021 0.750000
#
# Coordination Sequence:
#
# PCOD9477863 Si02
#       7
#    16   8   8   8   8  16  16
#     4  10  22  39  64 105 135 174 226 280 344 403
#     4  10  19  34  69  97 130 169 221 290 331 391
#     4  12  24  40  70  94 138 188 224 286 344 402
#     4   8  17  30  58  99 128 161 219 276 324 397
#     4  10  21  37  61  95 128 167 226 276 336 398
#     4  11  22  40  61  93 129 170 227 279 334 415
#     4   9  18  36  61  89 134 172 210 275 338 394
#
# _framework density 24.538435
#
# number of rings (size 3 to 8) (size 9 to 14) (size 15 to 20)
#    0.000    2.000    2.000    1.500    5.600    1.200 
#    0.000    3.000    0.000    4.800    0.000    0.000 
#    0.000    0.000    0.000    0.000    0.000    0.000 
#
# Total GULP energy -223016.185745 kJ/mol
# GULP energy per Si atom -5575.404644 kJ/mol
# Density = 2.448258 g / cm^3
# Si number density = 24.538435 Si / 1000 Ang^3
#
#
#
# Elastic Constant Matrix: (Units=GPa)
#
#
# Indices 1 2 3 4 5 6 
#
# 1 200.9738 11.3787 40.6706 0.0000 0.0000 0.0000
# 2 11.3787 100.1833 -0.0591 0.0000 0.0000 0.0000
# 3 40.6706 -0.0591 68.9290 0.0000 0.0000 0.0000
# 4 0.0000 0.0000 0.0000 26.4890 0.0000 0.0000
# 5 0.0000 0.0000 0.0000 0.0000 31.1304 0.0000
# 6 0.0000 0.0000 0.0000 0.0000 0.0000 -13.9765
#
#
#
# Elastic Compliance Matrix: (Units=1/GPa)
#
#
# Indices 1 2 3 4 5 6 
#
# 1 0.005692 -0.000649 -0.003359 0.000000 0.000000 0.000000
# 2 -0.000649 0.010056 0.000391 0.000000 0.000000 0.000000
# 3 -0.003359 0.000391 0.016490 0.000000 0.000000 0.000000
# 4 0.000000 0.000000 0.000000 0.037752 0.000000 0.000000
# 5 0.000000 0.000000 0.000000 0.000000 0.032123 0.000000
# 6 0.000000 0.000000 0.000000 0.000000 0.000000 -0.071549
#
#
# Mechanical properties :
#
#
# Convention : Reuss Voigt Hill
#
# Bulk Modulus (GPa) = 39.99193 52.67406 46.33300
# Shear Modulus (GPa) = 108.38608 29.93499 69.16054
#
# Velocity S-wave (km/s) = 6.65326 3.49653 5.31467
# Velocity P-wave (km/s) = 8.68068 6.14927 7.52222
#
# Compressibility (1/GPa) = 0.02500504
#
# Stress axis : x y z
#
# Youngs Moduli (GPa) = 175.67641 99.44714 60.64259
#
# Poissons Ratio (x) = 0.06449 0.20371
# Poissons Ratio (y) = 0.11393 -0.02373
# Poissons Ratio (z) = 0.59013 -0.03891
#
# Static dielectric constant tensor:
#      x y z
#    x 2.015610 0.000000 0.000000 
#    y 0.000000 2.006530 0.000000 
#    z 0.000000 0.000000 2.045750 
# 
# From -- ./inp_files/33064.got.cif
#   From: 2010.05.17/outbox.cif.g08.bks.cpg/sg64_17_cif.got.tgz:33064.got - 2010.06.03 16:29:19.
