data_PCOD9477980
_publ_section_title
;
Structure prediction by ZEFSAII (Michael W. Deem and Ramdas Pophale) SiO2 
 PCOD9477980
Probable space group: C M C A
;
_chemical_formula_sum "Si O2"
_cell_formula_units_Z 80
_cell_length_a 25.727860
_cell_length_b 10.175751
_cell_length_c 11.207234
_cell_angle_alpha 90.000000
_cell_angle_beta 90.000000
_cell_angle_gamma 90.000000
_cell_volume 2934.057191
_symmetry_space_group_name_H-M "C M C A"
_symmetry_group_IT_number 64
_symmetry_cell_setting 'orthorhombic'
loop_
_space_group_symop_operation_xyz
x,y,z
-x,1/2-y,1/2+z
x,-y,-z
-x,1/2+y,1/2-z
-x,-y,-z
x,1/2+y,1/2-z
-x,y,z
x,1/2-y,1/2+z
1/2+x,1/2+y,z
1/2-x,-y,1/2+z
1/2+x,1/2-y,-z
1/2-x,y,1/2-z
1/2-x,1/2-y,-z
1/2+x,y,1/2-z
1/2-x,1/2+y,z
1/2+x,-y,1/2+z
loop_
_atom_site_type_symbol
_atom_site_label
_atom_site_fract_x
_atom_site_fract_y
_atom_site_fract_z
Si Si1 0.155394 0.538273 0.635069
Si Si2 0.169345 0.322854 0.946092
Si Si3 0.442820 0.363610 0.863032
Si Si4 0.720415 0.184271 0.351452
Si Si5 0.559319 0.177365 0.096220
O O1 0.172400 0.500000 0.500000
O O2 0.159614 0.692725 0.634966
O O3 0.098398 0.479747 0.646702
O O4 0.192573 0.441695 0.707936
O O5 0.229755 0.362895 0.928990
O O6 0.115216 0.397008 0.921119
O O7 0.176419 0.267143 0.081150
O O8 0.500000 0.423267 0.867815
O O9 0.440016 0.284019 0.737433
O O10 0.436801 0.280180 0.985072
O O11 0.750000 0.265029 0.250000
O O12 0.500000 0.120437 0.082582
#
# Coordination Sequence:
#
# PCOD9477980 Si02
#       5
#    16  16  16  16  16
#     4  10  19  36  56  87 118 155 211 258 294 364
#     4  10  21  35  58  86 120 157 205 254 306 365
#     4  10  20  35  60  90 122 160 202 255 308 362
#     4  10  20  35  54  81 119 158 197 255 308 361
#     4  10  20  36  60  91 121 158 204 250 307 366
#
# _framework density 27.265999000000001
#
# number of rings (size 3 to 8) (size 9 to 14) (size 15 to 20)
#    0.000    2.000    4.000    1.200    0.000    2.000 
#    0.000    0.000    0.000    1.200    0.000    5.600 
#    0.000    0.000    0.000    0.000    0.000    0.000 
#
# Total GULP energy -222678.056959 kJ/mol
# GULP energy per Si atom -5566.951424 kJ/mol
# Density = 2.720394 g / cm^3
# Si number density = 27.265999 Si / 1000 Ang^3
#
#
#
# Elastic Constant Matrix: (Units=GPa)
#
#
# Indices 1 2 3 4 5 6 
#
# 1 251.7801 17.4497 34.3565 0.0000 0.0000 0.0000
# 2 17.4497 30.0388 23.5028 0.0000 0.0000 0.0000
# 3 34.3565 23.5028 148.3319 0.0000 0.0000 0.0000
# 4 0.0000 0.0000 0.0000 16.7775 0.0000 0.0000
# 5 0.0000 0.0000 0.0000 0.0000 55.2867 0.0000
# 6 0.0000 0.0000 0.0000 0.0000 0.0000 8.0777
#
#
#
# Elastic Compliance Matrix: (Units=1/GPa)
#
#
# Indices 1 2 3 4 5 6 
#
# 1 0.004196 -0.001914 -0.000668 0.000000 0.000000 0.000000
# 2 -0.001914 0.038875 -0.005716 0.000000 0.000000 0.000000
# 3 -0.000668 -0.005716 0.007802 0.000000 0.000000 0.000000
# 4 0.000000 0.000000 0.000000 0.059604 0.000000 0.000000
# 5 0.000000 0.000000 0.000000 0.000000 0.018088 0.000000
# 6 0.000000 0.000000 0.000000 0.000000 0.000000 0.123798
#
#
# Mechanical properties :
#
#
# Convention : Reuss Voigt Hill
#
# Bulk Modulus (GPa) = 29.17611 64.52986 46.85298
# Shear Modulus (GPa) = 17.83270 39.68452 28.75861
#
# Velocity S-wave (km/s) = 2.56017 3.81919 3.25120
# Velocity P-wave (km/s) = 4.41170 6.57011 5.59596
#
# Compressibility (1/GPa) = 0.03427462
#
# Stress axis : x y z
#
# Youngs Moduli (GPa) = 238.34487 25.72372 128.16922
#
# Poissons Ratio (x) = 0.04924 0.08568
# Poissons Ratio (y) = 0.45624 0.73264
# Poissons Ratio (z) = 0.15933 0.14704
#
# Static dielectric constant tensor:
#      x y z
#    x 2.150710 0.000000 0.000000 
#    y 0.000000 2.309280 0.000000 
#    z 0.000000 0.000000 2.372700 
# 
# From -- ./inp_files/18056.got.cif
#   From: 2010.05.17/outbox.cif.g08.bks.cpg/sg64_10_cif.got.tgz:18056.got - 2010.06.03 16:29:19.
