data_PCOD9477808
_publ_section_title
;
Structure prediction by ZEFSAII (Michael W. Deem and Ramdas Pophale) SiO2 
 PCOD9477808
Probable space group: C M C A
;
_chemical_formula_sum "Si O2"
_cell_formula_units_Z 112
_cell_length_a 15.430189
_cell_length_b 32.452085
_cell_length_c 11.993928
_cell_angle_alpha 90.000000
_cell_angle_beta 90.000000
_cell_angle_gamma 90.000000
_cell_volume 6005.861156
_symmetry_space_group_name_H-M "C M C A"
_symmetry_group_IT_number 64
_symmetry_cell_setting 'orthorhombic'
loop_
_space_group_symop_operation_xyz
x,y,z
-x,1/2-y,1/2+z
x,-y,-z
-x,1/2+y,1/2-z
-x,-y,-z
x,1/2+y,1/2-z
-x,y,z
x,1/2-y,1/2+z
1/2+x,1/2+y,z
1/2-x,-y,1/2+z
1/2+x,1/2-y,-z
1/2-x,y,1/2-z
1/2-x,1/2-y,-z
1/2+x,y,1/2-z
1/2-x,1/2+y,z
1/2+x,-y,1/2+z
loop_
_atom_site_type_symbol
_atom_site_label
_atom_site_fract_x
_atom_site_fract_y
_atom_site_fract_z
Si Si1 0.715665 0.813596 0.483795
Si Si2 0.249961 0.902729 0.382847
Si Si3 0.102919 0.450934 0.512757
Si Si4 0.604846 0.415756 0.745607
Si Si5 0.098628 0.326346 0.699434
Si Si6 0.822469 0.262362 0.847644
Si Si7 0.603120 0.451053 0.510379
O O1 0.745416 0.856596 0.432612
O O2 0.650963 0.820108 0.586586
O O3 0.793582 0.788467 0.543443
O O4 0.670534 0.783968 0.392440
O O5 0.250000 0.901244 0.250000
O O6 0.334270 0.927050 0.428756
O O7 0.164545 0.926400 0.426449
O O8 0.113310 0.500000 0.500000
O O9 0.128744 0.436629 0.637589
O O10 0.000000 0.441469 0.496629
O O11 0.500000 0.416885 0.741883
O O12 0.633447 0.368155 0.743840
O O13 0.633395 0.438496 0.634455
O O14 0.104373 0.288204 0.784366
O O15 0.000000 0.333896 0.668519
O O16 0.750000 0.262054 0.750000
O O17 0.612913 0.500000 0.500000
O O18 0.500000 0.558526 0.503794
#
# Coordination Sequence:
#
# PCOD9477808 Si02
#       7
#    16  16  16  16  16  16  16
#     4  10  20  37  56  81 116 154 193 240 296 361
#     4  12  25  38  59  90 124 164 207 245 306 383
#     4  10  22  40  62  88 120 160 205 256 307 363
#     4   9  18  36  62  87 114 153 202 252 303 359
#     4  10  19  34  58  88 115 147 196 247 298 357
#     4   9  19  35  58  80 108 149 190 239 296 347
#     4  10  23  42  62  87 120 158 205 265 322 368
#
# _framework density 18.64845
#
# number of rings (size 3 to 8) (size 9 to 14) (size 15 to 20)
#    0.000    2.000    1.429    1.714    2.000    1.714 
#    0.000    0.000    0.000   10.286    0.000    0.000 
#    0.000    0.000    0.000    0.000    0.000    0.000 
#
# Total GULP energy -312356.949462 kJ/mol
# GULP energy per Si atom -5577.802669 kJ/mol
# Density = 1.860600 g / cm^3
# Si number density = 18.648450 Si / 1000 Ang^3
#
#
#
# Elastic Constant Matrix: (Units=GPa)
#
#
# Indices 1 2 3 4 5 6 
#
# 1 66.3082 48.2579 39.2210 0.0000 0.0000 0.0000
# 2 48.2579 131.2226 58.1168 0.0000 0.0000 0.0000
# 3 39.2210 58.1168 127.4991 0.0000 0.0000 0.0000
# 4 0.0000 0.0000 0.0000 41.5072 0.0000 0.0000
# 5 0.0000 0.0000 0.0000 0.0000 17.4470 0.0000
# 6 0.0000 0.0000 0.0000 0.0000 0.0000 -37.6144
#
#
#
# Elastic Compliance Matrix: (Units=1/GPa)
#
#
# Indices 1 2 3 4 5 6 
#
# 1 0.022012 -0.006385 -0.003861 0.000000 0.000000 0.000000
# 2 -0.006385 0.011400 -0.003232 0.000000 0.000000 0.000000
# 3 -0.003861 -0.003232 0.010504 0.000000 0.000000 0.000000
# 4 0.000000 0.000000 0.000000 0.024092 0.000000 0.000000
# 5 0.000000 0.000000 0.000000 0.000000 0.057317 0.000000
# 6 0.000000 0.000000 0.000000 0.000000 0.000000 -0.026586
#
#
# Mechanical properties :
#
#
# Convention : Reuss Voigt Hill
#
# Bulk Modulus (GPa) = 58.96262 68.46903 63.71583
# Shear Modulus (GPa) = 38.06654 16.23023 27.14839
#
# Velocity S-wave (km/s) = 4.52294 2.95333 3.81963
# Velocity P-wave (km/s) = 7.67871 6.95880 7.32760
#
# Compressibility (1/GPa) = 0.01695990
#
# Stress axis : x y z
#
# Youngs Moduli (GPa) = 45.43052 87.71662 95.20000
#
# Poissons Ratio (x) = 0.56007 0.36754
# Poissons Ratio (y) = 0.29008 0.30772
# Poissons Ratio (z) = 0.17540 0.28353
#
# Static dielectric constant tensor:
#      x y z
#    x 1.658500 0.000000 0.000000 
#    y 0.000000 1.662530 0.000000 
#    z 0.000000 0.000000 1.647270 
# 
# From -- ./inp_files/15020.got.cif
#   From: 2010.05.17/outbox.cif.g08.bks.cpg/sg64_8_cif.got.tgz:15020.got - 2010.06.03 16:29:19.
