data_PCOD9477404
_publ_section_title
;
Structure prediction by ZEFSAII (Michael W. Deem and Ramdas Pophale) SiO2 
 PCOD9477404
Probable space group: C M C A
;
_chemical_formula_sum "Si O2"
_cell_formula_units_Z 96
_cell_length_a 8.738559
_cell_length_b 26.243144
_cell_length_c 25.697582
_cell_angle_alpha 90.000000
_cell_angle_beta 90.000000
_cell_angle_gamma 90.000000
_cell_volume 5893.156125
_symmetry_space_group_name_H-M "C M C A"
_symmetry_group_IT_number 64
_symmetry_cell_setting 'orthorhombic'
loop_
_space_group_symop_operation_xyz
x,y,z
-x,1/2-y,1/2+z
x,-y,-z
-x,1/2+y,1/2-z
-x,-y,-z
x,1/2+y,1/2-z
-x,y,z
x,1/2-y,1/2+z
1/2+x,1/2+y,z
1/2-x,-y,1/2+z
1/2+x,1/2-y,-z
1/2-x,y,1/2-z
1/2-x,1/2-y,-z
1/2+x,y,1/2-z
1/2-x,1/2+y,z
1/2+x,-y,1/2+z
loop_
_atom_site_type_symbol
_atom_site_label
_atom_site_fract_x
_atom_site_fract_y
_atom_site_fract_z
Si Si1 0.324448 0.061685 0.004201
Si Si2 0.184414 0.360034 0.308599
Si Si3 0.184392 0.940828 0.388915
Si Si4 0.318753 0.554443 0.112438
Si Si5 0.315807 0.636115 0.308529
Si Si6 0.816278 0.752004 0.691892
O O1 0.500000 0.078333 0.012794
O O2 0.225504 0.073934 0.054605
O O3 0.270560 0.078336 0.947014
O O4 0.326654 0.000000 0.000000
O O5 0.250000 0.364469 0.250000
O O6 0.252355 0.403440 0.345195
O O7 0.227929 0.303376 0.330019
O O8 0.000000 0.363817 0.306704
O O9 0.000000 0.942929 0.387869
O O10 0.247840 0.997940 0.381745
O O11 0.500000 0.551218 0.117818
O O12 0.249693 0.592306 0.154997
O O13 0.500000 0.632765 0.306432
O O14 0.250000 0.631709 0.250000
O O15 0.271871 0.692678 0.330156
O O16 0.750000 0.752053 0.750000
O O17 0.000000 0.751972 0.694641
#
# Coordination Sequence:
#
# PCOD9477404 Si02
#       6
#    16  16  16  16  16  16
#     4   8  16  32  51  69  92 124 161 198 237 283
#     4  10  19  32  50  74 101 128 160 197 239 285
#     4  10  20  34  51  72  98 129 162 196 239 287
#     4  11  21  32  49  74 100 127 160 198 240 285
#     4  10  19  33  51  72  99 129 161 197 239 286
#     4   8  16  30  49  70  93 124 160 197 235 279
#
# _framework density 16.290081000000001
#
# number of rings (size 3 to 8) (size 9 to 14) (size 15 to 20)
#    0.000    2.500    0.000    4.000    0.000    5.667 
#    0.000    3.333    0.000    1.000    0.000    0.000 
#    0.000    0.000    0.000    0.000    0.000    0.000 
#
# Total GULP energy -267323.877933 kJ/mol
# GULP energy per Si atom -5569.247457 kJ/mol
# Density = 1.625300 g / cm^3
# Si number density = 16.290081 Si / 1000 Ang^3
#
#
#
# Elastic Constant Matrix: (Units=GPa)
#
#
# Indices 1 2 3 4 5 6 
#
# 1 71.2666 48.4849 45.9478 0.0000 0.0000 0.0000
# 2 48.4849 120.0636 72.6677 0.0000 0.0000 0.0000
# 3 45.9478 72.6677 100.8462 0.0000 0.0000 0.0000
# 4 0.0000 0.0000 0.0000 -4.1057 0.0000 0.0000
# 5 0.0000 0.0000 0.0000 0.0000 24.2716 0.0000
# 6 0.0000 0.0000 0.0000 0.0000 0.0000 13.1101
#
#
#
# Elastic Compliance Matrix: (Units=1/GPa)
#
#
# Indices 1 2 3 4 5 6 
#
# 1 0.021349 -0.004849 -0.006233 0.000000 0.000000 0.000000
# 2 -0.004849 0.015872 -0.009228 0.000000 0.000000 0.000000
# 3 -0.006233 -0.009228 0.019406 0.000000 0.000000 0.000000
# 4 0.000000 0.000000 0.000000 -0.243562 0.000000 0.000000
# 5 0.000000 0.000000 0.000000 0.000000 0.041200 0.000000
# 6 0.000000 0.000000 0.000000 0.000000 0.000000 0.076277
#
#
# Mechanical properties :
#
#
# Convention : Reuss Voigt Hill
#
# Bulk Modulus (GPa) = 62.47241 69.59745 66.03493
# Shear Modulus (GPa) = -212.75508 14.99358 -98.88075
#
# Velocity S-wave (km/s) = -11.44061 3.03712 -7.79947
# Velocity P-wave (km/s) = 11.66549 7.42397 6.36271
#
# Compressibility (1/GPa) = 0.01600707
#
# Stress axis : x y z
#
# Youngs Moduli (GPa) = 46.83965 63.00356 51.53157
#
# Poissons Ratio (x) = 0.30549 0.32121
# Poissons Ratio (y) = 0.22712 0.47553
# Poissons Ratio (z) = 0.29197 0.58139
#
# Static dielectric constant tensor:
#      x y z
#    x 1.547760 0.000000 0.000000 
#    y 0.000000 1.562810 0.000000 
#    z 0.000000 0.000000 1.532820 
# 
# From -- ./inp_files/42986.got.cif
#   From: 2010.05.17/outbox.cif.g08.bks.cpg/sg64_22_cif.got.tgz:42986.got - 2010.06.03 16:29:19.
