data_PCOD9477178
_publ_section_title
;
Structure prediction by ZEFSAII (Michael W. Deem and Ramdas Pophale) SiO2 
 PCOD9477178
Probable space group: C M C A
;
_chemical_formula_sum "Si O2"
_cell_formula_units_Z 96
_cell_length_a 8.633438
_cell_length_b 23.654409
_cell_length_c 27.357673
_cell_angle_alpha 90.000000
_cell_angle_beta 90.000000
_cell_angle_gamma 90.000000
_cell_volume 5586.953162
_symmetry_space_group_name_H-M "C M C A"
_symmetry_group_IT_number 64
_symmetry_cell_setting 'orthorhombic'
loop_
_space_group_symop_operation_xyz
x,y,z
-x,1/2-y,1/2+z
x,-y,-z
-x,1/2+y,1/2-z
-x,-y,-z
x,1/2+y,1/2-z
-x,y,z
x,1/2-y,1/2+z
1/2+x,1/2+y,z
1/2-x,-y,1/2+z
1/2+x,1/2-y,-z
1/2-x,y,1/2-z
1/2-x,1/2-y,-z
1/2+x,y,1/2-z
1/2-x,1/2+y,z
1/2+x,-y,1/2+z
loop_
_atom_site_type_symbol
_atom_site_label
_atom_site_fract_x
_atom_site_fract_y
_atom_site_fract_z
Si Si1 0.324883 0.150223 0.122073
Si Si2 0.173616 0.251064 0.798671
Si Si3 0.682318 0.664211 0.632618
Si Si4 0.813516 0.756431 0.945643
Si Si5 0.187501 0.563854 0.802992
Si Si6 0.685062 0.436925 0.802942
O O1 0.500000 0.133124 0.108256
O O2 0.335042 0.198785 0.162978
O O3 0.242763 0.184339 0.078197
O O4 0.238344 0.100118 0.150587
O O5 0.250000 0.273247 0.750000
O O6 0.284175 0.203688 0.820878
O O7 0.000000 0.228742 0.790771
O O8 0.500000 0.657848 0.623905
O O9 0.743251 0.702582 0.587522
O O10 0.740404 0.603515 0.651731
O O11 0.000000 0.755894 0.945055
O O12 0.750000 0.750000 0.000000
O O13 0.250000 0.584303 0.750000
O O14 0.249480 0.500324 0.808861
O O15 0.000000 0.563775 0.801250
O O16 0.500000 0.437489 0.799816
O O17 0.750000 0.416293 0.750000
#
# Coordination Sequence:
#
# PCOD9477178 Si02
#       6
#    16  16  16  16  16  16
#     4  10  20  34  51  73  99 131 168 208 252 301
#     4  10  19  28  43  67  97 129 161 197 242 292
#     4   9  19  33  50  71  98 130 166 205 248 297
#     4  10  20  36  56  79 103 130 165 209 260 312
#     4  10  19  32  49  72 102 138 173 206 242 288
#     4  11  21  33  50  74 104 140 175 209 246 292
#
# _framework density 17.18289
#
# number of rings (size 3 to 8) (size 9 to 14) (size 15 to 20)
#    0.000    2.000    0.000    5.500    0.000    6.667 
#    0.000    0.000    0.000    1.000    0.000    7.000 
#    0.000    0.000    0.000    0.000    0.000    0.000 
#
# Total GULP energy -267388.026003 kJ/mol
# GULP energy per Si atom -5570.583875 kJ/mol
# Density = 1.714378 g / cm^3
# Si number density = 17.182890 Si / 1000 Ang^3
#
#
#
# Elastic Constant Matrix: (Units=GPa)
#
#
# Indices 1 2 3 4 5 6 
#
# 1 54.7348 20.2022 43.2031 0.0000 0.0000 0.0000
# 2 20.2022 85.9938 52.8312 0.0000 0.0000 0.0000
# 3 43.2031 52.8312 97.4478 0.0000 0.0000 0.0000
# 4 0.0000 0.0000 0.0000 25.8942 0.0000 0.0000
# 5 0.0000 0.0000 0.0000 0.0000 25.1780 0.0000
# 6 0.0000 0.0000 0.0000 0.0000 0.0000 19.0344
#
#
#
# Elastic Compliance Matrix: (Units=1/GPa)
#
#
# Indices 1 2 3 4 5 6 
#
# 1 0.028249 0.001586 -0.013384 0.000000 0.000000 0.000000
# 2 0.001586 0.017525 -0.010205 0.000000 0.000000 0.000000
# 3 -0.013384 -0.010205 0.021728 0.000000 0.000000 0.000000
# 4 0.000000 0.000000 0.000000 0.038619 0.000000 0.000000
# 5 0.000000 0.000000 0.000000 0.000000 0.039717 0.000000
# 6 0.000000 0.000000 0.000000 0.000000 0.000000 0.052537
#
#
# Mechanical properties :
#
#
# Convention : Reuss Voigt Hill
#
# Bulk Modulus (GPa) = 42.55781 52.29435 47.42608
# Shear Modulus (GPa) = 19.98310 22.15064 21.06687
#
# Velocity S-wave (km/s) = 3.41393 3.59431 3.50528
# Velocity P-wave (km/s) = 6.35305 6.90836 6.63652
#
# Compressibility (1/GPa) = 0.02349745
#
# Stress axis : x y z
#
# Youngs Moduli (GPa) = 35.40003 57.05998 46.02364
#
# Poissons Ratio (x) = -0.09051 0.61597
# Poissons Ratio (y) = -0.05615 0.46965
# Poissons Ratio (z) = 0.47379 0.58227
#
# Static dielectric constant tensor:
#      x y z
#    x 1.614950 0.000000 0.000000 
#    y 0.000000 1.601340 0.000000 
#    z 0.000000 0.000000 1.655870 
# 
# From -- ./inp_files/48020.got.cif
#   From: 2010.05.17/outbox.cif.g08.bks.cpg/sg64_25_cif.got.tgz:48020.got - 2010.06.03 16:29:19.
