data_PCOD9477642
_publ_section_title
;
Structure prediction by ZEFSAII (Michael W. Deem and Ramdas Pophale) SiO2 
 PCOD9477642
Probable space group: C M C A
;
_chemical_formula_sum "Si O2"
_cell_formula_units_Z 128
_cell_length_a 18.228033
_cell_length_b 17.184775
_cell_length_c 24.117688
_cell_angle_alpha 90.000000
_cell_angle_beta 90.000000
_cell_angle_gamma 90.000000
_cell_volume 7554.736635
_symmetry_space_group_name_H-M "C M C A"
_symmetry_group_IT_number 64
_symmetry_cell_setting 'orthorhombic'
loop_
_space_group_symop_operation_xyz
x,y,z
-x,1/2-y,1/2+z
x,-y,-z
-x,1/2+y,1/2-z
-x,-y,-z
x,1/2+y,1/2-z
-x,y,z
x,1/2-y,1/2+z
1/2+x,1/2+y,z
1/2-x,-y,1/2+z
1/2+x,1/2-y,-z
1/2-x,y,1/2-z
1/2-x,1/2-y,-z
1/2+x,y,1/2-z
1/2-x,1/2+y,z
1/2+x,-y,1/2+z
loop_
_atom_site_type_symbol
_atom_site_label
_atom_site_fract_x
_atom_site_fract_y
_atom_site_fract_z
Si Si1 0.283684 0.605703 0.188052
Si Si2 0.913333 0.500315 0.812012
Si Si3 0.683144 0.939472 0.287865
Si Si4 0.911156 0.141265 0.609558
Si Si5 0.586536 0.722032 0.193163
Si Si6 0.588239 0.592046 0.489834
Si Si7 0.356396 0.149637 0.126913
Si Si8 0.414068 0.798860 0.315166
O O1 0.250000 0.614158 0.250000
O O2 0.288011 0.513091 0.177210
O O3 0.361883 0.647517 0.188394
O O4 0.228214 0.645982 0.145352
O O5 0.873070 0.521627 0.755661
O O6 0.888610 0.563268 0.857909
O O7 0.894759 0.415069 0.833812
O O8 0.000000 0.508287 0.804607
O O9 0.750000 0.908025 0.250000
O O10 0.640047 0.872130 0.319035
O O11 0.890652 0.215489 0.646252
O O12 0.888244 0.136523 0.545814
O O13 0.000000 0.139839 0.608824
O O14 0.500000 0.704087 0.187138
O O15 0.595713 0.762847 0.253196
O O16 0.600601 0.500000 0.500000
O O17 0.500000 0.601137 0.481589
O O18 0.628235 0.623502 0.435569
O O19 0.391465 0.232254 0.141793
O O20 0.500000 0.819741 0.320721
#
# Coordination Sequence:
#
# PCOD9477642 Si02
#       8
#    16  16  16  16  16  16  16  16
#     4  11  22  38  52  80 112 152 192 231 291 344
#     4  11  18  31  54  77 109 145 186 230 273 343
#     4  11  22  35  50  76 111 152 190 224 280 340
#     4   9  18  32  54  83 107 140 187 229 282 340
#     4  10  20  36  57  79 108 148 194 238 280 342
#     4  10  19  33  56  83 114 152 189 237 294 341
#     4  12  22  35  53  84 119 147 186 233 293 347
#     4  11  22  33  53  82 113 150 188 233 283 338
#
# _framework density 16.943012
#
# number of rings (size 3 to 8) (size 9 to 14) (size 15 to 20)
#    0.000    1.375    6.250    1.500    1.750    2.000 
#    0.000    0.625    0.000    0.000    0.000    0.000 
#    0.000    4.500    0.000    0.000    0.000    0.000 
#
# Total GULP energy -357307.307950 kJ/mol
# GULP energy per Si atom -5582.926687 kJ/mol
# Density = 1.690445 g / cm^3
# Si number density = 16.943012 Si / 1000 Ang^3
#
#
#
# Elastic Constant Matrix: (Units=GPa)
#
#
# Indices 1 2 3 4 5 6 
#
# 1 67.7363 25.0293 5.1073 0.0000 0.0000 0.0000
# 2 25.0293 74.6790 10.9630 0.0000 0.0000 0.0000
# 3 5.1073 10.9630 62.0450 0.0000 0.0000 0.0000
# 4 0.0000 0.0000 0.0000 25.3299 0.0000 0.0000
# 5 0.0000 0.0000 0.0000 0.0000 14.7034 0.0000
# 6 0.0000 0.0000 0.0000 0.0000 0.0000 31.4450
#
#
#
# Elastic Compliance Matrix: (Units=1/GPa)
#
#
# Indices 1 2 3 4 5 6 
#
# 1 0.016860 -0.005592 -0.000400 0.000000 0.000000 0.000000
# 2 -0.005592 0.015602 -0.002296 0.000000 0.000000 0.000000
# 3 -0.000400 -0.002296 0.016556 0.000000 0.000000 0.000000
# 4 0.000000 0.000000 0.000000 0.039479 0.000000 0.000000
# 5 0.000000 0.000000 0.000000 0.000000 0.068012 0.000000
# 6 0.000000 0.000000 0.000000 0.000000 0.000000 0.031802
#
#
# Mechanical properties :
#
#
# Convention : Reuss Voigt Hill
#
# Bulk Modulus (GPa) = 30.82502 31.85109 31.33806
# Shear Modulus (GPa) = 23.18036 25.18637 24.18337
#
# Velocity S-wave (km/s) = 3.70285 3.85974 3.78211
# Velocity P-wave (km/s) = 6.04270 6.22119 6.13260
#
# Compressibility (1/GPa) = 0.03244118
#
# Stress axis : x y z
#
# Youngs Moduli (GPa) = 59.31348 64.09452 60.40102
#
# Poissons Ratio (x) = 0.35841 0.02415
# Poissons Ratio (y) = 0.33168 0.13871
# Poissons Ratio (z) = 0.02371 0.14719
#
# Static dielectric constant tensor:
#      x y z
#    x 1.592470 0.000000 0.000000 
#    y 0.000000 1.592570 0.000000 
#    z 0.000000 0.000000 1.561180 
# 
# From -- ./inp_files/46003.got.cif
#   From: 2010.05.17/outbox.cif.g08.bks.cpg/sg64_24_cif.got.tgz:46003.got - 2010.06.03 16:29:19.
