data_PCOD9477785
_publ_section_title
;
Structure prediction by ZEFSAII (Michael W. Deem and Ramdas Pophale) SiO2 
 PCOD9477785
Probable space group: C M C A
;
_chemical_formula_sum "Si O2"
_cell_formula_units_Z 112
_cell_length_a 25.714599
_cell_length_b 13.991669
_cell_length_c 15.597984
_cell_angle_alpha 90.000000
_cell_angle_beta 90.000000
_cell_angle_gamma 90.000000
_cell_volume 5612.001123
_symmetry_space_group_name_H-M "C M C A"
_symmetry_group_IT_number 64
_symmetry_cell_setting 'orthorhombic'
loop_
_space_group_symop_operation_xyz
x,y,z
-x,1/2-y,1/2+z
x,-y,-z
-x,1/2+y,1/2-z
-x,-y,-z
x,1/2+y,1/2-z
-x,y,z
x,1/2-y,1/2+z
1/2+x,1/2+y,z
1/2-x,-y,1/2+z
1/2+x,1/2-y,-z
1/2-x,y,1/2-z
1/2-x,1/2-y,-z
1/2+x,y,1/2-z
1/2-x,1/2+y,z
1/2+x,-y,1/2+z
loop_
_atom_site_type_symbol
_atom_site_label
_atom_site_fract_x
_atom_site_fract_y
_atom_site_fract_z
Si Si1 0.635529 0.429440 0.076203
Si Si2 0.055653 0.115026 0.569775
Si Si3 0.091401 0.743832 0.780471
Si Si4 0.308883 0.614638 0.751070
Si Si5 0.868964 0.023639 0.355526
Si Si6 0.097225 0.222379 0.410981
Si Si7 0.937881 0.547787 0.310910
O O1 0.675824 0.423962 0.154913
O O2 0.623796 0.318868 0.054236
O O3 0.583412 0.475887 0.117562
O O4 0.651592 0.500000 0.000000
O O5 0.059441 0.178324 0.655373
O O6 0.104776 0.045799 0.576027
O O7 0.061166 0.179477 0.484940
O O8 0.000000 0.064931 0.570698
O O9 0.148720 0.696608 0.771772
O O10 0.072089 0.751714 0.681752
O O11 0.087597 0.847896 0.822590
O O12 0.250000 0.648400 0.750000
O O13 0.319014 0.527718 0.684642
O O14 0.912550 0.019062 0.279760
O O15 0.865098 0.132998 0.385456
O O16 0.000000 0.552963 0.308325
#
# Coordination Sequence:
#
# PCOD9477785 Si02
#       7
#    16  16  16  16  16  16  16
#     4  10  21  37  56  84 119 149 194 247 285 343
#     4  11  21  33  54  83 116 156 194 234 293 355
#     4   9  20  37  56  83 117 147 192 244 281 342
#     4   9  19  40  66  86 111 153 194 238 301 351
#     4   9  20  36  54  82 116 147 194 247 283 342
#     4  10  21  36  54  79 115 154 191 238 289 338
#     4  10  19  34  57  82 117 163 195 228 288 349
#
# _framework density 19.957231
#
# number of rings (size 3 to 8) (size 9 to 14) (size 15 to 20)
#    0.000    2.286    0.000    3.000    0.000    4.857 
#    0.000   19.286    0.000   15.429    0.000    0.000 
#    0.000    0.000    0.000    0.000    0.000    0.000 
#
# Total GULP energy -312083.529466 kJ/mol
# GULP energy per Si atom -5572.920169 kJ/mol
# Density = 1.991181 g / cm^3
# Si number density = 19.957231 Si / 1000 Ang^3
#
#
#
# Elastic Constant Matrix: (Units=GPa)
#
#
# Indices 1 2 3 4 5 6 
#
# 1 99.3857 15.9913 19.1253 0.0000 0.0000 0.0000
# 2 15.9913 110.6884 20.3024 0.0000 0.0000 0.0000
# 3 19.1253 20.3024 68.8093 0.0000 0.0000 0.0000
# 4 0.0000 0.0000 0.0000 40.6340 0.0000 0.0000
# 5 0.0000 0.0000 0.0000 0.0000 -2.2913 0.0000
# 6 0.0000 0.0000 0.0000 0.0000 0.0000 18.3589
#
#
#
# Elastic Compliance Matrix: (Units=1/GPa)
#
#
# Indices 1 2 3 4 5 6 
#
# 1 0.010747 -0.001062 -0.002674 0.000000 0.000000 0.000000
# 2 -0.001062 0.009656 -0.002554 0.000000 0.000000 0.000000
# 3 -0.002674 -0.002554 0.016030 0.000000 0.000000 0.000000
# 4 0.000000 0.000000 0.000000 0.024610 0.000000 0.000000
# 5 0.000000 0.000000 0.000000 0.000000 -0.436431 0.000000
# 6 0.000000 0.000000 0.000000 0.000000 0.000000 0.054469
#
#
# Mechanical properties :
#
#
# Convention : Reuss Voigt Hill
#
# Bulk Modulus (GPa) = 41.92274 43.30238 42.61256
# Shear Modulus (GPa) = -16.64517 26.23795 4.79639
#
# Velocity S-wave (km/s) = -2.89111 3.62983 1.55195
# Velocity P-wave (km/s) = 3.14757 6.26994 4.96082
#
# Compressibility (1/GPa) = 0.02385340
#
# Stress axis : x y z
#
# Youngs Moduli (GPa) = 93.04702 103.55980 62.38463
#
# Poissons Ratio (x) = 0.11001 0.16680
# Poissons Ratio (y) = 0.09884 0.15932
# Poissons Ratio (z) = 0.24878 0.26448
#
# Static dielectric constant tensor:
#      x y z
#    x 1.646520 0.000000 0.000000 
#    y 0.000000 1.788110 0.000000 
#    z 0.000000 0.000000 1.762060 
# 
# From -- ./inp_files/28101.got.cif
#   From: 2010.05.17/outbox.cif.g08.bks.cpg/sg64_15_cif.got.tgz:28101.got - 2010.06.03 16:29:19.
