data_PCOD9477941
_publ_section_title
;
Structure prediction by ZEFSAII (Michael W. Deem and Ramdas Pophale) SiO2 
 PCOD9477941
Probable space group: C M C A
;
_chemical_formula_sum "Si O2"
_cell_formula_units_Z 120
_cell_length_a 23.005680
_cell_length_b 12.719930
_cell_length_c 18.838858
_cell_angle_alpha 90.000000
_cell_angle_beta 90.000000
_cell_angle_gamma 90.000000
_cell_volume 5512.827058
_symmetry_space_group_name_H-M "C M C A"
_symmetry_group_IT_number 64
_symmetry_cell_setting 'orthorhombic'
loop_
_space_group_symop_operation_xyz
x,y,z
-x,1/2-y,1/2+z
x,-y,-z
-x,1/2+y,1/2-z
-x,-y,-z
x,1/2+y,1/2-z
-x,y,z
x,1/2-y,1/2+z
1/2+x,1/2+y,z
1/2-x,-y,1/2+z
1/2+x,1/2-y,-z
1/2-x,y,1/2-z
1/2-x,1/2-y,-z
1/2+x,y,1/2-z
1/2-x,1/2+y,z
1/2+x,-y,1/2+z
loop_
_atom_site_type_symbol
_atom_site_label
_atom_site_fract_x
_atom_site_fract_y
_atom_site_fract_z
Si Si1 0.930468 0.297171 0.405414
Si Si2 0.140880 0.006832 0.084892
Si Si3 0.671454 0.000000 0.000000
Si Si4 0.371126 0.626022 0.304368
Si Si5 0.744419 0.104681 0.106094
Si Si6 0.566349 0.287353 0.928281
Si Si7 0.303399 0.260177 0.303555
Si Si8 0.888803 0.418819 0.140765
O O1 0.896283 0.406174 0.392364
O O2 0.903935 0.210612 0.353192
O O3 0.920207 0.265340 0.488207
O O4 0.000000 0.308610 0.395873
O O5 0.205518 0.017379 0.116541
O O6 0.105407 0.114633 0.095054
O O7 0.148891 0.000000 0.000000
O O8 0.714211 0.090092 0.030225
O O9 0.631974 0.963836 0.064945
O O10 0.308674 0.598502 0.339502
O O11 0.350661 0.681664 0.232332
O O12 0.407580 0.517596 0.310708
O O13 0.777412 0.212246 0.123909
O O14 0.500000 0.323214 0.925915
O O15 0.573182 0.182527 0.881013
O O16 0.250000 0.271225 0.250000
O O17 0.334587 0.367981 0.318943
#
# Coordination Sequence:
#
# PCOD9477941 Si02
#       8
#    16  16   8  16  16  16  16  16
#     4  10  22  41  65  93 130 174 220 271 317 380
#     4  10  19  35  60  97 127 160 204 260 327 381
#     4  10  22  34  59 102 131 162 194 264 330 396
#     4  10  24  40  59  91 125 169 219 257 312 381
#     4  10  19  37  60  95 131 159 205 259 327 382
#     4  10  20  37  62  93 126 164 213 268 333 381
#     4  10  23  41  60  87 127 184 214 259 312 388
#     4  11  22  40  61  90 132 164 212 267 325 391
#
# _framework density 21.767416999999998
#
# number of rings (size 3 to 8) (size 9 to 14) (size 15 to 20)
#    0.000    1.867    2.000    2.000    0.000   10.667 
#    0.000    2.333    0.000    0.000    0.000    0.000 
#    0.000    0.000    0.000    0.000    0.000    0.000 
#
# Total GULP energy -334735.936984 kJ/mol
# GULP energy per Si atom -5578.932283 kJ/mol
# Density = 2.171787 g / cm^3
# Si number density = 21.767417 Si / 1000 Ang^3
#
#
#
# Elastic Constant Matrix: (Units=GPa)
#
#
# Indices 1 2 3 4 5 6 
#
# 1 80.2997 12.6233 6.9026 0.0000 0.0000 0.0000
# 2 12.6233 81.7879 10.1749 0.0000 0.0000 0.0000
# 3 6.9026 10.1749 45.0888 0.0000 0.0000 0.0000
# 4 0.0000 0.0000 0.0000 12.9020 0.0000 0.0000
# 5 0.0000 0.0000 0.0000 0.0000 17.1906 0.0000
# 6 0.0000 0.0000 0.0000 0.0000 0.0000 2.8168
#
#
#
# Elastic Compliance Matrix: (Units=1/GPa)
#
#
# Indices 1 2 3 4 5 6 
#
# 1 0.012870 -0.001792 -0.001566 0.000000 0.000000 0.000000
# 2 -0.001792 0.012829 -0.002621 0.000000 0.000000 0.000000
# 3 -0.001566 -0.002621 0.023010 0.000000 0.000000 0.000000
# 4 0.000000 0.000000 0.000000 0.077508 0.000000 0.000000
# 5 0.000000 0.000000 0.000000 0.000000 0.058171 0.000000
# 6 0.000000 0.000000 0.000000 0.000000 0.000000 0.355018
#
#
# Mechanical properties :
#
#
# Convention : Reuss Voigt Hill
#
# Bulk Modulus (GPa) = 27.20945 29.61979 28.41462
# Shear Modulus (GPa) = 8.87134 18.41358 13.64246
#
# Velocity S-wave (km/s) = 2.02098 2.91163 2.50619
# Velocity P-wave (km/s) = 4.23946 4.99404 4.63214
#
# Compressibility (1/GPa) = 0.03675194
#
# Stress axis : x y z
#
# Youngs Moduli (GPa) = 77.70261 77.94663 43.46015
#
# Poissons Ratio (x) = 0.13964 0.06806
# Poissons Ratio (y) = 0.13920 0.11390
# Poissons Ratio (z) = 0.12168 0.20428
#
# Static dielectric constant tensor:
#      x y z
#    x 1.792590 0.000000 0.000000 
#    y 0.000000 1.828610 0.000000 
#    z 0.000000 0.000000 1.839780 
# 
# From -- ./inp_files/41596.got.cif
#   From: 2010.05.17/outbox.cif.g08.bks.cpg/sg64_21_cif.got.tgz:41596.got - 2010.06.03 16:29:19.
