data_PCOD9477703
_publ_section_title
;
Structure prediction by ZEFSAII (Michael W. Deem and Ramdas Pophale) SiO2 
 PCOD9477703
Probable space group: C M C A
;
_chemical_formula_sum "Si O2"
_cell_formula_units_Z 80
_cell_length_a 13.999670
_cell_length_b 14.407223
_cell_length_c 20.918025
_cell_angle_alpha 90.000000
_cell_angle_beta 90.000000
_cell_angle_gamma 90.000000
_cell_volume 4219.089660
_symmetry_space_group_name_H-M "C M C A"
_symmetry_group_IT_number 64
_symmetry_cell_setting 'orthorhombic'
loop_
_space_group_symop_operation_xyz
x,y,z
-x,1/2-y,1/2+z
x,-y,-z
-x,1/2+y,1/2-z
-x,-y,-z
x,1/2+y,1/2-z
-x,y,z
x,1/2-y,1/2+z
1/2+x,1/2+y,z
1/2-x,-y,1/2+z
1/2+x,1/2-y,-z
1/2-x,y,1/2-z
1/2-x,1/2-y,-z
1/2+x,y,1/2-z
1/2-x,1/2+y,z
1/2+x,-y,1/2+z
loop_
_atom_site_type_symbol
_atom_site_label
_atom_site_fract_x
_atom_site_fract_y
_atom_site_fract_z
Si Si1 0.385236 0.133055 0.792372
Si Si2 0.887679 0.941644 0.648392
Si Si3 0.611920 0.768914 0.337018
Si Si4 0.205083 0.778672 0.415499
Si Si5 0.754330 0.093476 0.471539
O O1 0.500000 0.136780 0.791411
O O2 0.355547 0.170087 0.723125
O O3 0.350043 0.195577 0.851297
O O4 0.356492 0.027456 0.807885
O O5 0.877931 0.840206 0.679929
O O6 0.826297 0.938430 0.583994
O O7 0.000000 0.954089 0.633320
O O8 0.500000 0.785943 0.351287
O O9 0.682630 0.785406 0.396012
O O10 0.189846 0.852327 0.471898
O O11 0.188978 0.674356 0.440875
O O12 0.708670 0.000000 0.500000
#
# Coordination Sequence:
#
# PCOD9477703 Si02
#       5
#    16  16  16  16  16
#     4  10  19  34  56  82 108 135 177 223 264 314
#     4   9  18  33  55  80 103 136 177 225 270 300
#     4   9  19  36  54  77 108 138 175 218 264 318
#     4  10  20  34  54  79 107 140 175 215 271 308
#     4  10  19  34  52  76 107 139 174 220 256 314
#
# _framework density 18.961435999999999
#
# number of rings (size 3 to 8) (size 9 to 14) (size 15 to 20)
#    0.000    2.400    2.000    0.600    0.000    1.200 
#    3.600    5.000    0.000    1.200    0.000    0.000 
#    0.000    0.000    0.000    0.000    0.000    0.000 
#
# Total GULP energy -222957.557609 kJ/mol
# GULP energy per Si atom -5573.938940 kJ/mol
# Density = 1.891828 g / cm^3
# Si number density = 18.961436 Si / 1000 Ang^3
#
#
#
# Elastic Constant Matrix: (Units=GPa)
#
#
# Indices 1 2 3 4 5 6 
#
# 1 25.3395 17.4160 13.2607 0.0000 0.0000 0.0000
# 2 17.4160 112.0620 39.5361 0.0000 0.0000 0.0000
# 3 13.2607 39.5361 78.3681 0.0000 0.0000 0.0000
# 4 0.0000 0.0000 0.0000 41.7567 0.0000 0.0000
# 5 0.0000 0.0000 0.0000 0.0000 15.8288 0.0000
# 6 0.0000 0.0000 0.0000 0.0000 0.0000 18.0146
#
#
#
# Elastic Compliance Matrix: (Units=1/GPa)
#
#
# Indices 1 2 3 4 5 6 
#
# 1 0.045774 -0.005330 -0.005056 0.000000 0.000000 0.000000
# 2 -0.005330 0.011476 -0.004888 0.000000 0.000000 0.000000
# 3 -0.005056 -0.004888 0.016082 0.000000 0.000000 0.000000
# 4 0.000000 0.000000 0.000000 0.023948 0.000000 0.000000
# 5 0.000000 0.000000 0.000000 0.000000 0.063176 0.000000
# 6 0.000000 0.000000 0.000000 0.000000 0.000000 0.055511
#
#
# Mechanical properties :
#
#
# Convention : Reuss Voigt Hill
#
# Bulk Modulus (GPa) = 23.37362 39.57724 31.47543
# Shear Modulus (GPa) = 19.17351 24.82380 21.99866
#
# Velocity S-wave (km/s) = 3.18336 3.62217 3.40984
# Velocity P-wave (km/s) = 5.08581 6.19769 5.66907
#
# Compressibility (1/GPa) = 0.04278328
#
# Stress axis : x y z
#
# Youngs Moduli (GPa) = 21.84663 87.13490 62.18200
#
# Poissons Ratio (x) = 0.46442 0.31442
# Poissons Ratio (y) = 0.11644 0.30394
# Poissons Ratio (z) = 0.11047 0.42591
#
# Static dielectric constant tensor:
#      x y z
#    x 1.660640 0.000000 0.000000 
#    y 0.000000 1.689710 0.000000 
#    z 0.000000 0.000000 1.644170 
# 
# From -- ./inp_files/32985.got.cif
#   From: 2010.05.17/outbox.cif.g08.bks.cpg/sg64_17_cif.got.tgz:32985.got - 2010.06.03 16:29:19.
