data_PCOD9477347
_publ_section_title
;
Structure prediction by ZEFSAII (Michael W. Deem and Ramdas Pophale) SiO2 
 PCOD9477347
Probable space group: C M C A
;
_chemical_formula_sum "Si O2"
_cell_formula_units_Z 88
_cell_length_a 17.887068
_cell_length_b 23.915858
_cell_length_c 10.346167
_cell_angle_alpha 90.000000
_cell_angle_beta 90.000000
_cell_angle_gamma 90.000000
_cell_volume 4425.930687
_symmetry_space_group_name_H-M "C M C A"
_symmetry_group_IT_number 64
_symmetry_cell_setting 'orthorhombic'
loop_
_space_group_symop_operation_xyz
x,y,z
-x,1/2-y,1/2+z
x,-y,-z
-x,1/2+y,1/2-z
-x,-y,-z
x,1/2+y,1/2-z
-x,y,z
x,1/2-y,1/2+z
1/2+x,1/2+y,z
1/2-x,-y,1/2+z
1/2+x,1/2-y,-z
1/2-x,y,1/2-z
1/2-x,1/2-y,-z
1/2+x,y,1/2-z
1/2-x,1/2+y,z
1/2+x,-y,1/2+z
loop_
_atom_site_type_symbol
_atom_site_label
_atom_site_fract_x
_atom_site_fract_y
_atom_site_fract_z
Si Si1 0.764404 0.296147 0.891952
Si Si2 0.415059 0.015554 0.214527
Si Si3 0.696806 0.382301 0.058949
Si Si4 0.415325 0.635044 0.413888
Si Si5 0.641123 0.394508 0.323145
Si Si6 0.632817 0.000000 0.500000
O O1 0.750000 0.273125 0.750000
O O2 0.848202 0.321594 0.889402
O O3 0.750000 0.250000 0.000000
O O4 0.704293 0.344195 0.932535
O O5 0.500000 0.004176 0.171390
O O6 0.394183 0.075263 0.152796
O O7 0.365352 0.962028 0.177791
O O8 0.412614 0.014736 0.370529
O O9 0.637986 0.371720 0.176009
O O10 0.778352 0.377679 0.121946
O O11 0.682823 0.445958 0.023091
O O12 0.500000 0.649441 0.370763
O O13 0.415441 0.626745 0.569040
#
# Coordination Sequence:
#
# PCOD9477347 Si02
#       6
#    16  16  16  16  16   8
#     4  11  25  42  68  88 118 160 210 264 319 368
#     4  10  19  31  50  81 121 161 193 231 295 369
#     4   9  20  34  54  85 118 150 200 246 299 357
#     4  10  21  37  60  88 122 157 204 254 310 375
#     4   9  18  31  54  84 121 155 188 240 289 360
#     4  10  19  32  52  80 119 156 196 240 298 364
#
# _framework density 19.882823999999999
#
# number of rings (size 3 to 8) (size 9 to 14) (size 15 to 20)
#    0.000    2.182    0.000    2.455   10.182    1.455 
#    0.000    0.909    0.000    3.273    0.000    0.000 
#    0.000    0.000    0.000    0.000    0.000    0.000 
#
# Total GULP energy -245079.890336 kJ/mol
# GULP energy per Si atom -5569.997508 kJ/mol
# Density = 1.983757 g / cm^3
# Si number density = 19.882824 Si / 1000 Ang^3
#
#
#
# Elastic Constant Matrix: (Units=GPa)
#
#
# Indices 1 2 3 4 5 6 
#
# 1 54.9535 26.8301 23.2941 0.0000 0.0000 0.0000
# 2 26.8301 54.1088 27.1851 0.0000 0.0000 0.0000
# 3 23.2941 27.1851 113.0175 0.0000 0.0000 0.0000
# 4 0.0000 0.0000 0.0000 32.7911 0.0000 0.0000
# 5 0.0000 0.0000 0.0000 0.0000 19.6508 0.0000
# 6 0.0000 0.0000 0.0000 0.0000 0.0000 10.1107
#
#
#
# Elastic Compliance Matrix: (Units=1/GPa)
#
#
# Indices 1 2 3 4 5 6 
#
# 1 0.024582 -0.010969 -0.002428 0.000000 0.000000 0.000000
# 2 -0.010969 0.025917 -0.003973 0.000000 0.000000 0.000000
# 3 -0.002428 -0.003973 0.010304 0.000000 0.000000 0.000000
# 4 0.000000 0.000000 0.000000 0.030496 0.000000 0.000000
# 5 0.000000 0.000000 0.000000 0.000000 0.050888 0.000000
# 6 0.000000 0.000000 0.000000 0.000000 0.000000 0.098905
#
#
# Mechanical properties :
#
#
# Convention : Reuss Voigt Hill
#
# Bulk Modulus (GPa) = 38.36980 41.85535 40.11258
# Shear Modulus (GPa) = 17.57344 22.16190 19.86767
#
# Velocity S-wave (km/s) = 2.97619 3.34222 3.16450
# Velocity P-wave (km/s) = 5.58123 5.99922 5.79400
#
# Compressibility (1/GPa) = 0.02606216
#
# Stress axis : x y z
#
# Youngs Moduli (GPa) = 40.68029 38.58540 97.04662
#
# Poissons Ratio (x) = 0.42325 0.23564
# Poissons Ratio (y) = 0.44623 0.38557
# Poissons Ratio (z) = 0.09877 0.15330
#
# Static dielectric constant tensor:
#      x y z
#    x 1.704320 0.000000 0.000000 
#    y 0.000000 1.707040 0.000000 
#    z 0.000000 0.000000 1.784270 
# 
# From -- ./inp_files/16023.got.cif
#   From: 2010.05.17/outbox.cif.g08.bks.cpg/sg64_9_cif.got.tgz:16023.got - 2010.06.03 16:29:19.
