data_PCOD9477580
_publ_section_title
;
Structure prediction by ZEFSAII (Michael W. Deem and Ramdas Pophale) SiO2 
 PCOD9477580
Probable space group: C M C A
;
_chemical_formula_sum "Si O2"
_cell_formula_units_Z 96
_cell_length_a 7.674242
_cell_length_b 27.394955
_cell_length_c 27.204074
_cell_angle_alpha 90.000000
_cell_angle_beta 90.000000
_cell_angle_gamma 90.000000
_cell_volume 5719.262487
_symmetry_space_group_name_H-M "C M C A"
_symmetry_group_IT_number 64
_symmetry_cell_setting 'orthorhombic'
loop_
_space_group_symop_operation_xyz
x,y,z
-x,1/2-y,1/2+z
x,-y,-z
-x,1/2+y,1/2-z
-x,-y,-z
x,1/2+y,1/2-z
-x,y,z
x,1/2-y,1/2+z
1/2+x,1/2+y,z
1/2-x,-y,1/2+z
1/2+x,1/2-y,-z
1/2-x,y,1/2-z
1/2-x,1/2-y,-z
1/2+x,y,1/2-z
1/2-x,1/2+y,z
1/2+x,-y,1/2+z
loop_
_atom_site_type_symbol
_atom_site_label
_atom_site_fract_x
_atom_site_fract_y
_atom_site_fract_z
Si Si1 0.791538 0.821905 0.692758
Si Si2 0.286976 0.348384 0.060647
Si Si3 0.195785 0.599597 0.385968
Si Si4 0.296730 0.807684 0.544007
Si Si5 0.000000 0.961844 0.573415
Si Si6 0.697307 0.763930 0.373774
Si Si7 0.500000 0.927705 0.040100
O O1 0.750000 0.822813 0.750000
O O2 0.722255 0.869051 0.663648
O O3 0.720831 0.772412 0.666471
O O4 0.000000 0.822103 0.685581
O O5 0.500000 0.355706 0.060765
O O6 0.232618 0.315743 0.107661
O O7 0.171218 0.396616 0.055013
O O8 0.244711 0.316553 0.011824
O O9 0.218429 0.640421 0.428490
O O10 0.334347 0.558108 0.396827
O O11 0.000000 0.580642 0.387940
O O12 0.500000 0.793250 0.545583
O O13 0.194667 0.769440 0.577084
O O14 0.000000 0.937887 0.518664
O O15 0.000000 0.019599 0.565671
O O16 0.500000 0.773778 0.357477
#
# Coordination Sequence:
#
# PCOD9477580 Si02
#       7
#    16  16  16  16   8  16   8
#     4  10  19  33  53  82 116 140 171 212 262 327
#     4  10  20  34  47  72 105 139 182 220 250 304
#     4  10  19  34  54  75 108 141 173 220 269 313
#     4   9  17  27  45  72 100 139 174 206 248 304
#     4  11  22  38  52  79 100 142 186 221 275 324
#     4   9  19  30  47  70 104 144 174 209 256 306
#     4  11  24  34  56  73 104 144 182 225 270 310
#
# _framework density 16.785381999999998
#
# number of rings (size 3 to 8) (size 9 to 14) (size 15 to 20)
#    0.000    2.167    2.500    1.000    3.500    1.333 
#    0.000    1.667    0.000    0.000    0.000    1.167 
#    0.000    0.000    0.000    0.000    0.000    0.000 
#
# Total GULP energy -267550.372185 kJ/mol
# GULP energy per Si atom -5573.966087 kJ/mol
# Density = 1.674718 g / cm^3
# Si number density = 16.785382 Si / 1000 Ang^3
#
#
#
# Elastic Constant Matrix: (Units=GPa)
#
#
# Indices 1 2 3 4 5 6 
#
# 1 65.8697 35.6821 18.2497 0.0000 0.0000 0.0000
# 2 35.6821 77.6992 47.5196 0.0000 0.0000 0.0000
# 3 18.2497 47.5196 93.7700 0.0000 0.0000 0.0000
# 4 0.0000 0.0000 0.0000 13.2429 0.0000 0.0000
# 5 0.0000 0.0000 0.0000 0.0000 15.3258 0.0000
# 6 0.0000 0.0000 0.0000 0.0000 0.0000 10.2639
#
#
#
# Elastic Compliance Matrix: (Units=1/GPa)
#
#
# Indices 1 2 3 4 5 6 
#
# 1 0.020290 -0.010003 0.001120 0.000000 0.000000 0.000000
# 2 -0.010003 0.023582 -0.010004 0.000000 0.000000 0.000000
# 3 0.001120 -0.010004 0.015516 0.000000 0.000000 0.000000
# 4 0.000000 0.000000 0.000000 0.075512 0.000000 0.000000
# 5 0.000000 0.000000 0.000000 0.000000 0.065249 0.000000
# 6 0.000000 0.000000 0.000000 0.000000 0.000000 0.097429
#
#
# Mechanical properties :
#
#
# Convention : Reuss Voigt Hill
#
# Bulk Modulus (GPa) = 46.26437 48.91574 47.59005
# Shear Modulus (GPa) = 14.59616 16.82569 15.71093
#
# Velocity S-wave (km/s) = 2.95206 3.16951 3.06271
# Velocity P-wave (km/s) = 6.26432 6.52683 6.39692
#
# Compressibility (1/GPa) = 0.02161491
#
# Stress axis : x y z
#
# Youngs Moduli (GPa) = 49.28604 42.40532 64.44983
#
# Poissons Ratio (x) = 0.42418 -0.07220
# Poissons Ratio (y) = 0.49300 0.64474
# Poissons Ratio (z) = -0.05522 0.42421
#
# Static dielectric constant tensor:
#      x y z
#    x 1.603410 0.000000 0.000000 
#    y 0.000000 1.557030 0.000000 
#    z 0.000000 0.000000 1.561550 
# 
# From -- ./inp_files/48418.got.cif
#   From: 2010.05.17/outbox.cif.g08.bks.cpg/sg64_25_cif.got.tgz:48418.got - 2010.06.03 16:29:19.
