data_PCOD9477824
_publ_section_title
;
Structure prediction by ZEFSAII (Michael W. Deem and Ramdas Pophale) SiO2 
 PCOD9477824
Probable space group: C M C A
;
_chemical_formula_sum "Si O2"
_cell_formula_units_Z 80
_cell_length_a 17.595517
_cell_length_b 15.285513
_cell_length_c 15.798932
_cell_angle_alpha 90.000000
_cell_angle_beta 90.000000
_cell_angle_gamma 90.000000
_cell_volume 4249.225515
_symmetry_space_group_name_H-M "C M C A"
_symmetry_group_IT_number 64
_symmetry_cell_setting 'orthorhombic'
loop_
_space_group_symop_operation_xyz
x,y,z
-x,1/2-y,1/2+z
x,-y,-z
-x,1/2+y,1/2-z
-x,-y,-z
x,1/2+y,1/2-z
-x,y,z
x,1/2-y,1/2+z
1/2+x,1/2+y,z
1/2-x,-y,1/2+z
1/2+x,1/2-y,-z
1/2-x,y,1/2-z
1/2-x,1/2-y,-z
1/2+x,y,1/2-z
1/2-x,1/2+y,z
1/2+x,-y,1/2+z
loop_
_atom_site_type_symbol
_atom_site_label
_atom_site_fract_x
_atom_site_fract_y
_atom_site_fract_z
Si Si1 0.587183 0.731666 0.566408
Si Si2 0.828453 0.402916 0.504972
Si Si3 0.086092 0.573092 0.063104
Si Si4 0.758463 0.324225 0.155564
Si Si5 0.782775 0.876343 0.661104
O O1 0.500000 0.733699 0.599419
O O2 0.613624 0.825710 0.530763
O O3 0.587916 0.663262 0.488820
O O4 0.653792 0.697317 0.629564
O O5 0.862307 0.500000 0.500000
O O6 0.783035 0.376990 0.419349
O O7 0.767655 0.404024 0.581307
O O8 0.135024 0.584234 0.145951
O O9 0.000000 0.547979 0.082437
O O10 0.118143 0.500000 0.000000
O O11 0.750000 0.362718 0.250000
O O12 0.717721 0.229143 0.159328
O O13 0.750000 0.904848 0.750000
#
# Coordination Sequence:
#
# PCOD9477824 Si02
#       5
#    16  16  16  16  16
#     4  10  20  38  60  83 116 152 196 247 294 354
#     4  11  21  37  58  84 122 161 199 240 292 358
#     4  10  19  34  59  87 117 151 193 250 310 353
#     4  10  20  37  59  88 114 154 203 248 299 354
#     4  10  19  35  57  86 116 152 199 247 301 349
#
# _framework density 18.82696
#
# number of rings (size 3 to 8) (size 9 to 14) (size 15 to 20)
#    0.000    1.800    4.000    1.800    0.000    1.200 
#    0.000   10.000    0.000    0.000    0.000    0.000 
#    0.000    0.000    0.000    0.000    0.000    0.000 
#
# Total GULP energy -223144.033428 kJ/mol
# GULP energy per Si atom -5578.600836 kJ/mol
# Density = 1.878411 g / cm^3
# Si number density = 18.826960 Si / 1000 Ang^3
#
#
#
# Elastic Constant Matrix: (Units=GPa)
#
#
# Indices 1 2 3 4 5 6 
#
# 1 108.2005 26.3027 55.2454 0.0000 0.0000 0.0000
# 2 26.3027 89.3989 20.4111 0.0000 0.0000 0.0000
# 3 55.2454 20.4111 138.0112 0.0000 0.0000 0.0000
# 4 0.0000 0.0000 0.0000 -4.4228 0.0000 0.0000
# 5 0.0000 0.0000 0.0000 0.0000 23.0291 0.0000
# 6 0.0000 0.0000 0.0000 0.0000 0.0000 12.6914
#
#
#
# Elastic Compliance Matrix: (Units=1/GPa)
#
#
# Indices 1 2 3 4 5 6 
#
# 1 0.012154 -0.002551 -0.004488 0.000000 0.000000 0.000000
# 2 -0.002551 0.012112 -0.000770 0.000000 0.000000 0.000000
# 3 -0.004488 -0.000770 0.009156 0.000000 0.000000 0.000000
# 4 0.000000 0.000000 0.000000 -0.226104 0.000000 0.000000
# 5 0.000000 0.000000 0.000000 0.000000 0.043423 0.000000
# 6 0.000000 0.000000 0.000000 0.000000 0.000000 0.078794
#
#
# Mechanical properties :
#
#
# Convention : Reuss Voigt Hill
#
# Bulk Modulus (GPa) = 56.16738 59.94763 58.05751
# Shear Modulus (GPa) = -102.22454 21.83631 -40.19412
#
# Velocity S-wave (km/s) = -7.37664 3.40934 -4.62554
# Velocity P-wave (km/s) = 6.53106 6.88539 1.54173
#
# Compressibility (1/GPa) = 0.01780393
#
# Stress axis : x y z
#
# Youngs Moduli (GPa) = 82.27980 82.56100 109.21665
#
# Poissons Ratio (x) = 0.21063 0.49014
# Poissons Ratio (y) = 0.20991 0.08411
# Poissons Ratio (z) = 0.36925 0.06358
#
# Static dielectric constant tensor:
#      x y z
#    x 1.678750 0.000000 0.000000 
#    y 0.000000 1.673000 0.000000 
#    z 0.000000 0.000000 1.650990 
# 
# From -- ./inp_files/25310.got.cif
#   From: 2010.05.17/outbox.cif.g08.bks.cpg/sg64_13_cif.got.tgz:25310.got - 2010.06.03 16:29:19.
