data_PCOD9477314
_publ_section_title
;
Structure prediction by ZEFSAII (Michael W. Deem and Ramdas Pophale) SiO2 
 PCOD9477314
Probable space group: C M C A
;
_chemical_formula_sum "Si O2"
_cell_formula_units_Z 96
_cell_length_a 8.667485
_cell_length_b 27.787862
_cell_length_c 24.553862
_cell_angle_alpha 90.000000
_cell_angle_beta 90.000000
_cell_angle_gamma 90.000000
_cell_volume 5913.819198
_symmetry_space_group_name_H-M "C M C A"
_symmetry_group_IT_number 64
_symmetry_cell_setting 'orthorhombic'
loop_
_space_group_symop_operation_xyz
x,y,z
-x,1/2-y,1/2+z
x,-y,-z
-x,1/2+y,1/2-z
-x,-y,-z
x,1/2+y,1/2-z
-x,y,z
x,1/2-y,1/2+z
1/2+x,1/2+y,z
1/2-x,-y,1/2+z
1/2+x,1/2-y,-z
1/2-x,y,1/2-z
1/2-x,1/2-y,-z
1/2+x,y,1/2-z
1/2-x,1/2+y,z
1/2+x,-y,1/2+z
loop_
_atom_site_type_symbol
_atom_site_label
_atom_site_fract_x
_atom_site_fract_y
_atom_site_fract_z
Si Si1 0.816329 0.070687 0.976588
Si Si2 0.184319 0.021244 0.417846
Si Si3 0.185239 0.678075 0.308172
Si Si4 0.183864 0.174522 0.524860
Si Si5 0.185385 0.434361 0.691007
Si Si6 0.313771 0.226488 0.419495
O O1 0.000000 0.065358 0.976093
O O2 0.741733 0.031325 0.936559
O O3 0.754201 0.057361 0.036843
O O4 0.766927 0.124636 0.962619
O O5 0.244686 0.035764 0.358630
O O6 0.000000 0.023393 0.420235
O O7 0.250000 0.693930 0.250000
O O8 0.229084 0.622037 0.316636
O O9 0.235415 0.709418 0.359804
O O10 0.000000 0.679775 0.305645
O O11 0.236979 0.193597 0.465737
O O12 0.222498 0.218230 0.565934
O O13 0.000000 0.167357 0.525192
O O14 0.250000 0.449152 0.750000
O O15 0.000000 0.437775 0.690545
O O16 0.500000 0.220864 0.423835
#
# Coordination Sequence:
#
# PCOD9477314 Si02
#       6
#    16  16  16  16  16  16
#     4  11  21  34  51  72 100 132 164 200 247 300
#     4  11  21  34  52  75 100 127 163 205 249 295
#     4   9  18  31  48  70  97 128 160 195 235 282
#     4  10  19  31  49  73  99 128 164 202 242 290
#     4  10  19  32  50  74 103 134 166 200 242 291
#     4   9  18  32  49  71 100 131 161 198 245 291
#
# _framework density 16.233163999999999
#
# number of rings (size 3 to 8) (size 9 to 14) (size 15 to 20)
#    0.000    2.000    0.000    6.000    0.000    3.333 
#    0.000    0.000    0.000    1.000    0.000    4.667 
#    0.000    0.000    0.000    0.000    0.000    0.000 
#
# Total GULP energy -267958.931286 kJ/mol
# GULP energy per Si atom -5582.477735 kJ/mol
# Density = 1.619622 g / cm^3
# Si number density = 16.233164 Si / 1000 Ang^3
#
#
#
# Elastic Constant Matrix: (Units=GPa)
#
#
# Indices 1 2 3 4 5 6 
#
# 1 73.5308 30.3904 40.0013 0.0000 0.0000 0.0000
# 2 30.3904 73.3318 55.9645 0.0000 0.0000 0.0000
# 3 40.0013 55.9645 146.6556 0.0000 0.0000 0.0000
# 4 0.0000 0.0000 0.0000 17.7307 0.0000 0.0000
# 5 0.0000 0.0000 0.0000 0.0000 27.8413 0.0000
# 6 0.0000 0.0000 0.0000 0.0000 0.0000 24.3399
#
#
#
# Elastic Compliance Matrix: (Units=1/GPa)
#
#
# Indices 1 2 3 4 5 6 
#
# 1 0.017177 -0.004999 -0.002778 0.000000 0.000000 0.000000
# 2 -0.004999 0.020695 -0.006534 0.000000 0.000000 0.000000
# 3 -0.002778 -0.006534 0.010070 0.000000 0.000000 0.000000
# 4 0.000000 0.000000 0.000000 0.056399 0.000000 0.000000
# 5 0.000000 0.000000 0.000000 0.000000 0.035918 0.000000
# 6 0.000000 0.000000 0.000000 0.000000 0.000000 0.041085
#
#
# Mechanical properties :
#
#
# Convention : Reuss Voigt Hill
#
# Bulk Modulus (GPa) = 51.75729 60.69230 56.22480
# Shear Modulus (GPa) = 23.10502 25.12650 24.11576
#
# Velocity S-wave (km/s) = 3.77679 3.93854 3.85851
# Velocity P-wave (km/s) = 7.13945 7.62573 7.38659
#
# Compressibility (1/GPa) = 0.01932095
#
# Stress axis : x y z
#
# Youngs Moduli (GPa) = 58.21837 48.32190 99.30891
#
# Poissons Ratio (x) = 0.24155 0.27583
# Poissons Ratio (y) = 0.29102 0.64886
# Poissons Ratio (z) = 0.16170 0.31572
#
# Static dielectric constant tensor:
#      x y z
#    x 1.542240 0.000000 0.000000 
#    y 0.000000 1.536780 0.000000 
#    z 0.000000 0.000000 1.523520 
# 
# From -- ./inp_files/43192.got.cif
#   From: 2010.05.17/outbox.cif.g08.bks.cpg/sg64_22_cif.got.tgz:43192.got - 2010.06.03 16:29:19.
