data_PCOD9477103
_publ_section_title
;
Structure prediction by ZEFSAII (Michael W. Deem and Ramdas Pophale) SiO2 
 PCOD9477103
Probable space group: C M C A
;
_chemical_formula_sum "Si O2"
_cell_formula_units_Z 112
_cell_length_a 16.095396
_cell_length_b 14.377568
_cell_length_c 27.164635
_cell_angle_alpha 90.000000
_cell_angle_beta 90.000000
_cell_angle_gamma 90.000000
_cell_volume 6286.240185
_symmetry_space_group_name_H-M "C M C A"
_symmetry_group_IT_number 64
_symmetry_cell_setting 'orthorhombic'
loop_
_space_group_symop_operation_xyz
x,y,z
-x,1/2-y,1/2+z
x,-y,-z
-x,1/2+y,1/2-z
-x,-y,-z
x,1/2+y,1/2-z
-x,y,z
x,1/2-y,1/2+z
1/2+x,1/2+y,z
1/2-x,-y,1/2+z
1/2+x,1/2-y,-z
1/2-x,y,1/2-z
1/2-x,1/2-y,-z
1/2+x,y,1/2-z
1/2-x,1/2+y,z
1/2+x,-y,1/2+z
loop_
_atom_site_type_symbol
_atom_site_label
_atom_site_fract_x
_atom_site_fract_y
_atom_site_fract_z
Si Si1 0.307360 0.867936 0.702170
Si Si2 0.756028 0.895762 0.126148
Si Si3 0.094604 0.939595 0.191266
Si Si4 0.686518 0.239664 0.955412
Si Si5 0.095744 0.396425 0.978006
Si Si6 0.245630 0.104150 0.403539
Si Si7 0.163847 0.661647 0.780726
O O1 0.250000 0.882418 0.750000
O O2 0.250310 0.863042 0.653197
O O3 0.354256 0.769411 0.707527
O O4 0.366629 0.956978 0.696131
O O5 0.844218 0.885817 0.153663
O O6 0.731580 0.818258 0.087375
O O7 0.686513 0.892528 0.169319
O O8 0.757364 0.994065 0.098947
O O9 0.101513 0.890006 0.244452
O O10 0.000000 0.942214 0.174686
O O11 0.679971 0.342107 0.931953
O O12 0.750000 0.250000 0.000000
O O13 0.612741 0.179140 0.978715
O O14 0.160476 0.378906 0.933516
O O15 0.000000 0.392027 0.962146
O O16 0.111485 0.500000 0.000000
O O17 0.250000 0.663321 0.750000
#
# Coordination Sequence:
#
# PCOD9477103 Si02
#       7
#    16  16  16  16  16  16  16
#     4  10  19  35  60  82 111 147 195 229 269 342
#     4  10  18  36  57  80 110 146 193 229 270 346
#     4  10  21  35  52  81 115 149 181 229 285 326
#     4  10  20  34  57  83 108 148 190 222 282 347
#     4  10  20  36  57  87 119 142 182 250 300 325
#     4  10  19  34  60  83 110 153 193 224 281 347
#     4   9  18  34  57  78 109 147 190 230 269 325
#
# _framework density 17.816690999999999
#
# number of rings (size 3 to 8) (size 9 to 14) (size 15 to 20)
#    0.000    2.143    2.857    2.143    0.000    0.571 
#    0.000    9.286    0.000    0.000    0.000   12.000 
#    0.000    0.000    0.000    0.000    0.000    0.000 
#
# Total GULP energy -311878.233536 kJ/mol
# GULP energy per Si atom -5569.254170 kJ/mol
# Density = 1.777614 g / cm^3
# Si number density = 17.816691 Si / 1000 Ang^3
#
#
#
# Elastic Constant Matrix: (Units=GPa)
#
#
# Indices 1 2 3 4 5 6 
#
# 1 75.0901 7.4043 34.5835 0.0000 0.0000 0.0000
# 2 7.4043 71.3931 17.2456 0.0000 0.0000 0.0000
# 3 34.5835 17.2456 97.8718 0.0000 0.0000 0.0000
# 4 0.0000 0.0000 0.0000 32.7872 0.0000 0.0000
# 5 0.0000 0.0000 0.0000 0.0000 15.1461 0.0000
# 6 0.0000 0.0000 0.0000 0.0000 0.0000 -6.6695
#
#
#
# Elastic Compliance Matrix: (Units=1/GPa)
#
#
# Indices 1 2 3 4 5 6 
#
# 1 0.015912 -0.000305 -0.005569 0.000000 0.000000 0.000000
# 2 -0.000305 0.014635 -0.002471 0.000000 0.000000 0.000000
# 3 -0.005569 -0.002471 0.012621 0.000000 0.000000 0.000000
# 4 0.000000 0.000000 0.000000 0.030500 0.000000 0.000000
# 5 0.000000 0.000000 0.000000 0.000000 0.066024 0.000000
# 6 0.000000 0.000000 0.000000 0.000000 0.000000 -0.149937
#
#
# Mechanical properties :
#
#
# Convention : Reuss Voigt Hill
#
# Bulk Modulus (GPa) = 37.76678 40.31356 39.04017
# Shear Modulus (GPa) = 327.42005 20.59420 174.00713
#
# Velocity S-wave (km/s) = 13.57094 3.40353 9.89329
# Velocity P-wave (km/s) = 16.33414 6.17425 12.34758
#
# Compressibility (1/GPa) = 0.02647830
#
# Stress axis : x y z
#
# Youngs Moduli (GPa) = 62.84465 68.32702 79.23508
#
# Poissons Ratio (x) = 0.02084 0.44125
# Poissons Ratio (y) = 0.01917 0.19580
# Poissons Ratio (z) = 0.34998 0.16884
#
# Static dielectric constant tensor:
#      x y z
#    x 1.533160 0.000000 0.000000 
#    y 0.000000 1.661190 0.000000 
#    z 0.000000 0.000000 1.625650 
# 
# From -- ./inp_files/50081.got.cif
#   From: 2010.05.17/outbox.cif.g08.bks.cpg/sg64_26_cif.got.tgz:50081.got - 2010.06.03 16:29:19.
