data_PCOD9477304
_publ_section_title
;
Structure prediction by ZEFSAII (Michael W. Deem and Ramdas Pophale) SiO2 
 PCOD9477304
Probable space group: C M C A
;
_chemical_formula_sum "Si O2"
_cell_formula_units_Z 96
_cell_length_a 7.598797
_cell_length_b 20.823379
_cell_length_c 28.922241
_cell_angle_alpha 90.000000
_cell_angle_beta 90.000000
_cell_angle_gamma 90.000000
_cell_volume 4576.442255
_symmetry_space_group_name_H-M "C M C A"
_symmetry_group_IT_number 64
_symmetry_cell_setting 'orthorhombic'
loop_
_space_group_symop_operation_xyz
x,y,z
-x,1/2-y,1/2+z
x,-y,-z
-x,1/2+y,1/2-z
-x,-y,-z
x,1/2+y,1/2-z
-x,y,z
x,1/2-y,1/2+z
1/2+x,1/2+y,z
1/2-x,-y,1/2+z
1/2+x,1/2-y,-z
1/2-x,y,1/2-z
1/2-x,1/2-y,-z
1/2+x,y,1/2-z
1/2-x,1/2+y,z
1/2+x,-y,1/2+z
loop_
_atom_site_type_symbol
_atom_site_label
_atom_site_fract_x
_atom_site_fract_y
_atom_site_fract_z
Si Si1 0.792980 0.735969 0.197154
Si Si2 0.789465 0.038606 0.802332
Si Si3 0.214297 0.413398 0.458694
Si Si4 0.288891 0.403580 0.839432
Si Si5 0.283992 0.153135 0.631175
Si Si6 0.785506 0.439106 0.560056
O O1 0.750000 0.753211 0.250000
O O2 0.749425 0.662406 0.186207
O O3 0.718758 0.784009 0.158200
O O4 0.000000 0.742210 0.193472
O O5 0.750000 0.057083 0.750000
O O6 0.727616 0.091901 0.838300
O O7 0.000000 0.036637 0.807381
O O8 0.721208 0.967302 0.813628
O O9 0.272759 0.361062 0.421305
O O10 0.263129 0.485370 0.441779
O O11 0.273354 0.407642 0.511793
O O12 0.000000 0.412533 0.459282
O O13 0.500000 0.408684 0.841167
O O14 0.224863 0.406692 0.892535
O O15 0.500000 0.154171 0.630507
O O16 0.000000 0.437798 0.560012
#
# Coordination Sequence:
#
# PCOD9477304 Si02
#       6
#    16  16  16  16  16  16
#     4  11  23  37  52  70  98 138 173 205 250 302
#     4  10  19  31  49  72  96 123 161 210 255 291
#     4   8  12  23  46  76 104 127 159 203 251 294
#     4  10  19  33  52  76 104 131 164 207 251 295
#     4   9  17  31  49  71  99 129 164 207 252 295
#     4   8  13  23  46  78 105 128 158 203 250 292
#
# _framework density 20.976993
#
# number of rings (size 3 to 8) (size 9 to 14) (size 15 to 20)
#    0.000    2.667    1.667    2.500    0.000    2.000 
#    0.000    1.667    0.000    0.000    0.000    4.667 
#    0.000    0.000    0.000    0.000    0.000    0.000 
#
# Total GULP energy -267822.933854 kJ/mol
# GULP energy per Si atom -5579.644455 kJ/mol
# Density = 2.092925 g / cm^3
# Si number density = 20.976993 Si / 1000 Ang^3
#
#
#
# Elastic Constant Matrix: (Units=GPa)
#
#
# Indices 1 2 3 4 5 6 
#
# 1 42.6004 0.9572 -1.4528 0.0000 0.0000 0.0000
# 2 0.9572 32.1851 -24.2135 0.0000 0.0000 0.0000
# 3 -1.4528 -24.2135 68.5988 0.0000 0.0000 0.0000
# 4 0.0000 0.0000 0.0000 33.2773 0.0000 0.0000
# 5 0.0000 0.0000 0.0000 0.0000 1.2642 0.0000
# 6 0.0000 0.0000 0.0000 0.0000 0.0000 -1.2556
#
#
#
# Elastic Compliance Matrix: (Units=1/GPa)
#
#
# Indices 1 2 3 4 5 6 
#
# 1 0.023496 -0.000442 0.000342 0.000000 0.000000 0.000000
# 2 -0.000442 0.042312 0.014926 0.000000 0.000000 0.000000
# 3 0.000342 0.014926 0.019853 0.000000 0.000000 0.000000
# 4 0.000000 0.000000 0.000000 0.030051 0.000000 0.000000
# 5 0.000000 0.000000 0.000000 0.000000 0.791016 0.000000
# 6 0.000000 0.000000 0.000000 0.000000 0.000000 -0.796410
#
#
# Mechanical properties :
#
#
# Convention : Reuss Voigt Hill
#
# Bulk Modulus (GPa) = 8.67209 10.44067 9.55638
# Shear Modulus (GPa) = 41.98048 17.86340 29.92194
#
# Velocity S-wave (km/s) = 4.47840 2.92133 3.78089
# Velocity P-wave (km/s) = 5.55738 4.04561 4.86063
#
# Compressibility (1/GPa) = 0.11531248
#
# Stress axis : x y z
#
# Youngs Moduli (GPa) = 42.56131 23.63378 50.36995
#
# Poissons Ratio (x) = 0.01044 -0.01721
# Poissons Ratio (y) = 0.01880 -0.75181
# Poissons Ratio (z) = -0.01454 -0.35275
#
# Static dielectric constant tensor:
#      x y z
#    x 1.794110 0.000000 0.000000 
#    y 0.000000 1.761240 0.000000 
#    z 0.000000 0.000000 1.768870 
# 
# From -- ./inp_files/48084.got.cif
#   From: 2010.05.17/outbox.cif.g08.bks.cpg/sg64_25_cif.got.tgz:48084.got - 2010.06.03 16:29:19.
