data_PCOD9477216
_publ_section_title
;
Structure prediction by ZEFSAII (Michael W. Deem and Ramdas Pophale) SiO2 
 PCOD9477216
Probable space group: C M C A
;
_chemical_formula_sum "Si O2"
_cell_formula_units_Z 128
_cell_length_a 21.738330
_cell_length_b 28.552176
_cell_length_c 13.144647
_cell_angle_alpha 90.000000
_cell_angle_beta 90.000000
_cell_angle_gamma 90.000000
_cell_volume 8158.575125
_symmetry_space_group_name_H-M "C M C A"
_symmetry_group_IT_number 64
_symmetry_cell_setting 'orthorhombic'
loop_
_space_group_symop_operation_xyz
x,y,z
-x,1/2-y,1/2+z
x,-y,-z
-x,1/2+y,1/2-z
-x,-y,-z
x,1/2+y,1/2-z
-x,y,z
x,1/2-y,1/2+z
1/2+x,1/2+y,z
1/2-x,-y,1/2+z
1/2+x,1/2-y,-z
1/2-x,y,1/2-z
1/2-x,1/2-y,-z
1/2+x,y,1/2-z
1/2-x,1/2+y,z
1/2+x,-y,1/2+z
loop_
_atom_site_type_symbol
_atom_site_label
_atom_site_fract_x
_atom_site_fract_y
_atom_site_fract_z
Si Si1 0.694482 0.675053 0.175933
Si Si2 0.878326 0.667421 0.883639
Si Si3 0.425437 0.434657 0.409663
Si Si4 0.928292 0.127356 0.247858
Si Si5 0.254757 0.803264 0.460381
Si Si6 0.842339 0.769239 0.208253
Si Si7 0.425891 0.963814 0.861722
Si Si8 0.567498 0.294388 0.582187
O O1 0.750000 0.657153 0.250000
O O2 0.628169 0.650087 0.186601
O O3 0.683987 0.728628 0.216584
O O4 0.715794 0.672319 0.059246
O O5 0.895811 0.613353 0.873153
O O6 0.810440 0.674505 0.931622
O O7 0.880008 0.695705 0.779001
O O8 0.922111 0.691820 0.966317
O O9 0.500000 0.430202 0.405865
O O10 0.407325 0.444436 0.527302
O O11 0.406459 0.482233 0.351044
O O12 0.911028 0.074220 0.276520
O O13 0.928810 0.158005 0.351752
O O14 0.000000 0.129587 0.209596
O O15 0.250000 0.750000 0.500000
O O16 0.294019 0.798920 0.357356
O O17 0.882333 0.740761 0.126251
O O18 0.500000 0.965086 0.865772
O O19 0.500000 0.273973 0.597833
#
# Coordination Sequence:
#
# PCOD9477216 Si02
#       8
#    16  16  16  16  16  16  16  16
#     4  11  19  31  51  74  98 128 177 212 248 299
#     4  12  20  30  51  70  97 132 171 202 250 298
#     4   9  17  28  47  77 103 127 155 199 256 309
#     4   9  17  30  50  74 101 131 162 206 259 306
#     4  12  20  34  49  67  95 131 175 216 238 286
#     4  11  21  34  47  68  95 135 171 206 242 293
#     4   8  14  28  49  74 103 125 155 198 248 309
#     4  10  19  30  45  70 101 127 157 200 248 294
#
# _framework density 15.689014
#
# number of rings (size 3 to 8) (size 9 to 14) (size 15 to 20)
#    0.000    1.750    5.000    2.250    0.000    1.000 
#    0.000    3.125    0.000    1.500    0.000    0.000 
#    0.000    3.000    0.000    0.000    0.000    0.000 
#
# Total GULP energy -356417.532835 kJ/mol
# GULP energy per Si atom -5569.023951 kJ/mol
# Density = 1.565330 g / cm^3
# Si number density = 15.689014 Si / 1000 Ang^3
#
#
#
# Elastic Constant Matrix: (Units=GPa)
#
#
# Indices 1 2 3 4 5 6 
#
# 1 59.9258 30.1020 8.4934 0.0000 0.0000 0.0000
# 2 30.1020 92.7805 15.4968 0.0000 0.0000 0.0000
# 3 8.4934 15.4968 44.1753 0.0000 0.0000 0.0000
# 4 0.0000 0.0000 0.0000 14.3060 0.0000 0.0000
# 5 0.0000 0.0000 0.0000 0.0000 18.7541 0.0000
# 6 0.0000 0.0000 0.0000 0.0000 0.0000 16.4029
#
#
#
# Elastic Compliance Matrix: (Units=1/GPa)
#
#
# Indices 1 2 3 4 5 6 
#
# 1 0.020052 -0.006227 -0.001671 0.000000 0.000000 0.000000
# 2 -0.006227 0.013382 -0.003497 0.000000 0.000000 0.000000
# 3 -0.001671 -0.003497 0.024185 0.000000 0.000000 0.000000
# 4 0.000000 0.000000 0.000000 0.069901 0.000000 0.000000
# 5 0.000000 0.000000 0.000000 0.000000 0.053322 0.000000
# 6 0.000000 0.000000 0.000000 0.000000 0.000000 0.060965
#
#
# Mechanical properties :
#
#
# Convention : Reuss Voigt Hill
#
# Bulk Modulus (GPa) = 28.71123 33.89622 31.30372
# Shear Modulus (GPa) = 18.10237 19.41188 18.75713
#
# Velocity S-wave (km/s) = 3.40048 3.52133 3.46144
# Velocity P-wave (km/s) = 5.81013 6.17940 5.99761
#
# Compressibility (1/GPa) = 0.03482958
#
# Stress axis : x y z
#
# Youngs Moduli (GPa) = 49.87064 74.72459 41.34747
#
# Poissons Ratio (x) = 0.46528 0.06909
# Poissons Ratio (y) = 0.31052 0.14461
# Poissons Ratio (z) = 0.08333 0.26135
#
# Static dielectric constant tensor:
#      x y z
#    x 1.553160 0.000000 0.000000 
#    y 0.000000 1.528270 0.000000 
#    z 0.000000 0.000000 1.527700 
# 
# From -- ./inp_files/18748.got.cif
#   From: 2010.05.17/outbox.cif.g08.bks.cpg/sg64_10_cif.got.tgz:18748.got - 2010.06.03 16:29:19.
