data_PCOD9478086
_publ_section_title
;
Structure prediction by ZEFSAII (Michael W. Deem and Ramdas Pophale) SiO2 
 PCOD9478086
Probable space group: C M C A
;
_chemical_formula_sum "Si O2"
_cell_formula_units_Z 96
_cell_length_a 18.044228
_cell_length_b 14.861758
_cell_length_c 18.370758
_cell_angle_alpha 90.000000
_cell_angle_beta 90.000000
_cell_angle_gamma 90.000000
_cell_volume 4926.466880
_symmetry_space_group_name_H-M "C M C A"
_symmetry_group_IT_number 64
_symmetry_cell_setting 'orthorhombic'
loop_
_space_group_symop_operation_xyz
x,y,z
-x,1/2-y,1/2+z
x,-y,-z
-x,1/2+y,1/2-z
-x,-y,-z
x,1/2+y,1/2-z
-x,y,z
x,1/2-y,1/2+z
1/2+x,1/2+y,z
1/2-x,-y,1/2+z
1/2+x,1/2-y,-z
1/2-x,y,1/2-z
1/2-x,1/2-y,-z
1/2+x,y,1/2-z
1/2-x,1/2+y,z
1/2+x,-y,1/2+z
loop_
_atom_site_type_symbol
_atom_site_label
_atom_site_fract_x
_atom_site_fract_y
_atom_site_fract_z
Si Si1 0.198790 0.175285 0.038080
Si Si2 0.916583 0.357452 0.833202
Si Si3 0.413660 0.833820 0.409686
Si Si4 0.320598 0.151506 0.298773
Si Si5 0.290846 0.437967 0.177288
Si Si6 0.686998 0.018790 0.073973
O O1 0.127680 0.158490 0.987281
O O2 0.250000 0.250000 0.000000
O O3 0.178692 0.196649 0.122089
O O4 0.249016 0.086492 0.046486
O O5 0.911492 0.269820 0.884018
O O6 0.890873 0.332283 0.752171
O O7 0.861055 0.430760 0.865821
O O8 0.000000 0.391343 0.833244
O O9 0.500000 0.862206 0.411571
O O10 0.362965 0.887102 0.351562
O O11 0.250000 0.179926 0.250000
O O12 0.312014 0.043221 0.310127
O O13 0.250000 0.404664 0.250000
O O14 0.228885 0.437872 0.113796
O O15 0.642639 0.000000 0.000000
#
# Coordination Sequence:
#
# PCOD9478086 Si02
#       6
#    16  16  16  16  16  16
#     4  11  20  36  64  88 116 165 202 246 292 366
#     4  11  23  41  60  85 124 158 196 257 308 355
#     4  11  24  39  58  93 128 156 194 255 315 352
#     4  10  19  37  62  86 115 156 210 246 294 362
#     4  10  20  38  60  87 117 157 203 245 290 369
#     4  11  20  38  64  88 114 155 210 246 299 362
#
# _framework density 19.486581000000001
#
# number of rings (size 3 to 8) (size 9 to 14) (size 15 to 20)
#    0.000    1.333    8.333    0.000    0.000    3.667 
#    0.000    5.833    0.000    0.000    0.000    0.000 
#    0.000    0.000    0.000    0.000    0.000    0.000 
#
# Total GULP energy -267886.743961 kJ/mol
# GULP energy per Si atom -5580.973833 kJ/mol
# Density = 1.944223 g / cm^3
# Si number density = 19.486581 Si / 1000 Ang^3
#
#
#
# Elastic Constant Matrix: (Units=GPa)
#
#
# Indices 1 2 3 4 5 6 
#
# 1 141.5029 23.7541 61.9191 0.0000 0.0000 0.0000
# 2 23.7541 26.8102 7.6758 0.0000 0.0000 0.0000
# 3 61.9191 7.6758 160.2486 0.0000 0.0000 0.0000
# 4 0.0000 0.0000 0.0000 23.8717 0.0000 0.0000
# 5 0.0000 0.0000 0.0000 0.0000 28.1870 0.0000
# 6 0.0000 0.0000 0.0000 0.0000 0.0000 11.2760
#
#
#
# Elastic Compliance Matrix: (Units=1/GPa)
#
#
# Indices 1 2 3 4 5 6 
#
# 1 0.009878 -0.007766 -0.003445 0.000000 0.000000 0.000000
# 2 -0.007766 0.043923 0.000897 0.000000 0.000000 0.000000
# 3 -0.003445 0.000897 0.007528 0.000000 0.000000 0.000000
# 4 0.000000 0.000000 0.000000 0.041891 0.000000 0.000000
# 5 0.000000 0.000000 0.000000 0.000000 0.035477 0.000000
# 6 0.000000 0.000000 0.000000 0.000000 0.000000 0.088684
#
#
# Mechanical properties :
#
#
# Convention : Reuss Voigt Hill
#
# Bulk Modulus (GPa) = 24.56897 57.25111 40.91004
# Shear Modulus (GPa) = 19.11489 28.34779 23.73134
#
# Velocity S-wave (km/s) = 3.13537 3.81824 3.49353
# Velocity P-wave (km/s) = 5.07375 6.99157 6.10840
#
# Compressibility (1/GPa) = 0.04070175
#
# Stress axis : x y z
#
# Youngs Moduli (GPa) = 101.23475 22.76712 132.83010
#
# Poissons Ratio (x) = 0.17680 0.45758
# Poissons Ratio (y) = 0.78617 -0.11912
# Poissons Ratio (z) = 0.34874 -0.02042
#
# Static dielectric constant tensor:
#      x y z
#    x 1.671760 0.000000 0.000000 
#    y 0.000000 1.704510 0.000000 
#    z 0.000000 0.000000 2.627490 
# 
# From -- ./inp_files/33279.got.cif
#   From: 2010.05.17/outbox.cif.g08.bks.cpg/sg64_17_cif.got.tgz:33279.got - 2010.06.03 16:29:19.
