data_PCOD9478944
_publ_section_title
;
Structure prediction by ZEFSAII (Michael W. Deem and Ramdas Pophale) SiO2 
 PCOD9478944
Probable space group: C M C A
;
_chemical_formula_sum "Si O2"
_cell_formula_units_Z 72
_cell_length_a 9.227538
_cell_length_b 15.597823
_cell_length_c 22.800027
_cell_angle_alpha 90.000000
_cell_angle_beta 90.000000
_cell_angle_gamma 90.000000
_cell_volume 3281.596588
_symmetry_space_group_name_H-M "C M C A"
_symmetry_group_IT_number 64
_symmetry_cell_setting 'orthorhombic'
loop_
_space_group_symop_operation_xyz
x,y,z
-x,1/2-y,1/2+z
x,-y,-z
-x,1/2+y,1/2-z
-x,-y,-z
x,1/2+y,1/2-z
-x,y,z
x,1/2-y,1/2+z
1/2+x,1/2+y,z
1/2-x,-y,1/2+z
1/2+x,1/2-y,-z
1/2-x,y,1/2-z
1/2-x,1/2-y,-z
1/2+x,y,1/2-z
1/2-x,1/2+y,z
1/2+x,-y,1/2+z
loop_
_atom_site_type_symbol
_atom_site_label
_atom_site_fract_x
_atom_site_fract_y
_atom_site_fract_z
Si Si1 0.159174 0.534586 0.697840
Si Si2 0.672154 0.660144 0.015307
Si Si3 0.829494 0.409418 0.089878
Si Si4 0.668958 0.216893 0.358872
Si Si5 0.250000 0.133913 0.250000
O O1 0.250000 0.579978 0.750000
O O2 0.251409 0.533852 0.638751
O O3 0.144784 0.437725 0.722146
O O4 0.000000 0.571717 0.688675
O O5 0.500000 0.664539 0.003188
O O6 0.688946 0.654047 0.085353
O O7 0.750000 0.750000 0.000000
O O8 0.748795 0.592843 0.972484
O O9 0.812999 0.313229 0.116935
O O10 0.000000 0.427803 0.083732
O O11 0.500000 0.212422 0.339659
O O12 0.775616 0.193762 0.305932
#
# Coordination Sequence:
#
# PCOD9478944 Si02
#       5
#    16  16  16  16   8
#     4  10  22  38  57  79 111 151 189 229 282 336
#     4   9  17  33  57  84 116 148 186 235 288 340
#     4  10  20  36  61  87 115 148 190 237 283 339
#     4   9  19  36  57  85 114 148 187 232 284 336
#     4  10  22  36  56  80 112 150 188 238 278 338
#
# _framework density 21.940539000000001
#
# number of rings (size 3 to 8) (size 9 to 14) (size 15 to 20)
#    0.667    1.778    0.000    4.000    1.556    0.000 
#    0.000   13.333    0.000    5.333    0.000    0.000 
#    0.000    0.000    0.000    0.000    0.000    0.000 
#
# Total GULP energy -200440.533224 kJ/mol
# GULP energy per Si atom -5567.792590 kJ/mol
# Density = 2.189060 g / cm^3
# Si number density = 21.940539 Si / 1000 Ang^3
#
#
#
# Elastic Constant Matrix: (Units=GPa)
#
#
# Indices 1 2 3 4 5 6 
#
# 1 121.9402 38.5263 50.5474 0.0000 0.0000 0.0000
# 2 38.5263 45.2044 43.9316 0.0000 0.0000 0.0000
# 3 50.5474 43.9316 97.5838 0.0000 0.0000 0.0000
# 4 0.0000 0.0000 0.0000 -9.8278 0.0000 0.0000
# 5 0.0000 0.0000 0.0000 0.0000 -14.9230 0.0000
# 6 0.0000 0.0000 0.0000 0.0000 0.0000 6.6094
#
#
#
# Elastic Compliance Matrix: (Units=1/GPa)
#
#
# Indices 1 2 3 4 5 6 
#
# 1 0.011631 -0.007214 -0.002777 0.000000 0.000000 0.000000
# 2 -0.007214 0.043803 -0.015983 0.000000 0.000000 0.000000
# 3 -0.002777 -0.015983 0.018882 0.000000 0.000000 0.000000
# 4 0.000000 0.000000 0.000000 -0.101752 0.000000 0.000000
# 5 0.000000 0.000000 0.000000 0.000000 -0.067011 0.000000
# 6 0.000000 0.000000 0.000000 0.000000 0.000000 0.151299
#
#
# Mechanical properties :
#
#
# Convention : Reuss Voigt Hill
#
# Bulk Modulus (GPa) = 44.70782 58.97100 51.83941
# Shear Modulus (GPa) = 43.00855 5.15327 24.08091
#
# Velocity S-wave (km/s) = 4.43225 1.53422 3.31653
# Velocity P-wave (km/s) = 6.82746 5.48402 6.19228
#
# Compressibility (1/GPa) = 0.02236745
#
# Stress axis : x y z
#
# Youngs Moduli (GPa) = 85.97617 22.82948 52.96146
#
# Poissons Ratio (x) = 0.16469 0.14708
# Poissons Ratio (y) = 0.62022 0.84649
# Poissons Ratio (z) = 0.23877 0.36489
#
# Static dielectric constant tensor:
#      x y z
#    x 1.769020 0.000000 0.000000 
#    y 0.000000 1.915480 0.000000 
#    z 0.000000 0.000000 1.861470 
# 
# From -- ./inp_files/42721.got.cif
#   From: 2010.05.17/outbox.cif.g08.bks.cpg/sg64_22_cif.got.tgz:42721.got - 2010.06.03 16:29:19.
