data_PCOD9478875
_publ_section_title
;
Structure prediction by ZEFSAII (Michael W. Deem and Ramdas Pophale) SiO2 
 PCOD9478875
Probable space group: C M C A
;
_chemical_formula_sum "Si O2"
_cell_formula_units_Z 112
_cell_length_a 23.455648
_cell_length_b 12.497101
_cell_length_c 18.439663
_cell_angle_alpha 90.000000
_cell_angle_beta 90.000000
_cell_angle_gamma 90.000000
_cell_volume 5405.174198
_symmetry_space_group_name_H-M "C M C A"
_symmetry_group_IT_number 64
_symmetry_cell_setting 'orthorhombic'
loop_
_space_group_symop_operation_xyz
x,y,z
-x,1/2-y,1/2+z
x,-y,-z
-x,1/2+y,1/2-z
-x,-y,-z
x,1/2+y,1/2-z
-x,y,z
x,1/2-y,1/2+z
1/2+x,1/2+y,z
1/2-x,-y,1/2+z
1/2+x,1/2-y,-z
1/2-x,y,1/2-z
1/2-x,1/2-y,-z
1/2+x,y,1/2-z
1/2-x,1/2+y,z
1/2+x,-y,1/2+z
loop_
_atom_site_type_symbol
_atom_site_label
_atom_site_fract_x
_atom_site_fract_y
_atom_site_fract_z
Si Si1 0.641921 0.171498 0.233072
Si Si2 0.730616 0.508260 0.326076
Si Si3 0.091733 0.176848 0.880456
Si Si4 0.067053 0.184951 0.048221
Si Si5 0.365212 0.151410 0.851978
Si Si6 0.562327 0.484409 0.241674
Si Si7 0.835498 0.010712 0.079447
O O1 0.605182 0.219531 0.166701
O O2 0.654234 0.263460 0.290832
O O3 0.694558 0.110805 0.198271
O O4 0.604390 0.081787 0.273204
O O5 0.750000 0.455144 0.250000
O O6 0.688678 0.425865 0.368104
O O7 0.786060 0.548635 0.367975
O O8 0.059805 0.096772 0.825657
O O9 0.148819 0.108025 0.894050
O O10 0.066953 0.194820 0.960417
O O11 0.101461 0.283457 0.085405
O O12 0.000000 0.175928 0.071767
O O13 0.107137 0.081972 0.067466
O O14 0.411145 0.078202 0.809664
O O15 0.500000 0.526228 0.257868
O O16 0.809559 0.000000 0.000000
#
# Coordination Sequence:
#
# PCOD9478875 Si02
#       7
#    16  16  16  16  16  16  16
#     4  10  22  38  60  89 118 156 204 250 302 361
#     4  11  22  39  61  87 121 159 205 254 301 360
#     4  10  22  39  58  87 119 155 199 246 302 359
#     4  11  23  40  63  91 123 161 204 249 303 364
#     4  10  22  38  58  87 121 158 201 250 304 360
#     4  10  20  36  58  85 119 155 196 250 305 360
#     4  10  23  39  58  87 118 153 195 244 302 352
#
# _framework density 20.720886
#
# number of rings (size 3 to 8) (size 9 to 14) (size 15 to 20)
#    0.000    1.714    0.000    5.143    0.000   12.857 
#    0.000    5.000    0.000    4.286    0.000    0.000 
#    0.000    0.000    0.000    0.000    0.000    0.000 
#
# Total GULP energy -312426.780091 kJ/mol
# GULP energy per Si atom -5579.049644 kJ/mol
# Density = 2.067372 g / cm^3
# Si number density = 20.720886 Si / 1000 Ang^3
#
#
#
# Elastic Constant Matrix: (Units=GPa)
#
#
# Indices 1 2 3 4 5 6 
#
# 1 136.8013 32.5586 37.6933 0.0000 0.0000 0.0000
# 2 32.5586 48.4151 21.7126 0.0000 0.0000 0.0000
# 3 37.6933 21.7126 96.1464 0.0000 0.0000 0.0000
# 4 0.0000 0.0000 0.0000 20.9658 0.0000 0.0000
# 5 0.0000 0.0000 0.0000 0.0000 -2.5522 0.0000
# 6 0.0000 0.0000 0.0000 0.0000 0.0000 6.7986
#
#
#
# Elastic Compliance Matrix: (Units=1/GPa)
#
#
# Indices 1 2 3 4 5 6 
#
# 1 0.009197 -0.005082 -0.002458 0.000000 0.000000 0.000000
# 2 -0.005082 0.025791 -0.003832 0.000000 0.000000 0.000000
# 3 -0.002458 -0.003832 0.012230 0.000000 0.000000 0.000000
# 4 0.000000 0.000000 0.000000 0.047697 0.000000 0.000000
# 5 0.000000 0.000000 0.000000 0.000000 -0.391821 0.000000
# 6 0.000000 0.000000 0.000000 0.000000 0.000000 0.147089
#
#
# Mechanical properties :
#
#
# Convention : Reuss Voigt Hill
#
# Bulk Modulus (GPa) = 40.86066 51.69909 46.27988
# Shear Modulus (GPa) = -42.04643 17.66900 -12.18871
#
# Velocity S-wave (km/s) = -4.50953 2.92330 -2.42798
# Velocity P-wave (km/s) = 2.71148 6.03313 3.81094
#
# Compressibility (1/GPa) = 0.02447342
#
# Stress axis : x y z
#
# Youngs Moduli (GPa) = 108.73501 38.77311 81.76845
#
# Poissons Ratio (x) = 0.19706 0.20096
# Poissons Ratio (y) = 0.55264 0.31332
# Poissons Ratio (z) = 0.26724 0.14857
#
# Static dielectric constant tensor:
#      x y z
#    x 1.751200 0.000000 0.000000 
#    y 0.000000 1.727290 0.000000 
#    z 0.000000 0.000000 1.778450 
# 
# From -- ./inp_files/41503.got.cif
#   From: 2010.05.17/outbox.cif.g08.bks.cpg/sg64_21_cif.got.tgz:41503.got - 2010.06.03 16:29:19.
