data_PCOD9478432
_publ_section_title
;
Structure prediction by ZEFSAII (Michael W. Deem and Ramdas Pophale) SiO2 
 PCOD9478432
Probable space group: C M C A
;
_chemical_formula_sum "Si O2"
_cell_formula_units_Z 112
_cell_length_a 14.055072
_cell_length_b 28.384740
_cell_length_c 14.521859
_cell_angle_alpha 90.000000
_cell_angle_beta 90.000000
_cell_angle_gamma 90.000000
_cell_volume 5793.489322
_symmetry_space_group_name_H-M "C M C A"
_symmetry_group_IT_number 64
_symmetry_cell_setting 'orthorhombic'
loop_
_space_group_symop_operation_xyz
x,y,z
-x,1/2-y,1/2+z
x,-y,-z
-x,1/2+y,1/2-z
-x,-y,-z
x,1/2+y,1/2-z
-x,y,z
x,1/2-y,1/2+z
1/2+x,1/2+y,z
1/2-x,-y,1/2+z
1/2+x,1/2-y,-z
1/2-x,y,1/2-z
1/2-x,1/2-y,-z
1/2+x,y,1/2-z
1/2-x,1/2+y,z
1/2+x,-y,1/2+z
loop_
_atom_site_type_symbol
_atom_site_label
_atom_site_fract_x
_atom_site_fract_y
_atom_site_fract_z
Si Si1 0.613346 0.344289 0.708990
Si Si2 0.387558 0.550338 0.248594
Si Si3 0.744105 0.534221 0.087215
Si Si4 0.614947 0.259235 0.220388
Si Si5 0.112412 0.314886 0.107755
Si Si6 0.740197 0.360381 0.530435
Si Si7 0.387716 0.280370 0.011449
O O1 0.500000 0.343247 0.690293
O O2 0.632243 0.393011 0.762017
O O3 0.639356 0.293892 0.752447
O O4 0.670474 0.347410 0.614464
O O5 0.500000 0.543543 0.254032
O O6 0.340825 0.525263 0.160495
O O7 0.335678 0.535817 0.343910
O O8 0.729511 0.586279 0.045934
O O9 0.751800 0.500000 0.000000
O O10 0.500000 0.260542 0.221559
O O11 0.644996 0.298911 0.291492
O O12 0.643697 0.268583 0.115831
O O13 0.000000 0.327182 0.107509
O O14 0.177191 0.353947 0.061247
O O15 0.123087 0.267336 0.046721
O O16 0.825987 0.323448 0.525230
O O17 0.500000 0.292138 0.010882
#
# Coordination Sequence:
#
# PCOD9478432 Si02
#       7
#    16  16  16  16  16  16  16
#     4   9  17  33  57  84 114 144 186 246 292 334
#     4   9  20  40  66  93 118 151 196 248 312 370
#     4  10  23  42  62  91 126 151 196 261 310 355
#     4   9  18  32  50  75 115 155 185 233 284 324
#     4  10  20  34  53  79 113 152 190 233 286 344
#     4  11  21  35  55  82 108 155 197 232 292 350
#     4  10  21  36  49  76 119 153 193 238 278 342
#
# _framework density 19.332045000000001
#
# number of rings (size 3 to 8) (size 9 to 14) (size 15 to 20)
#    0.000    2.286    1.429    0.857    2.000    2.286 
#    0.000    2.857    0.000    1.714    0.000    0.000 
#    0.000    0.000    0.000    0.000    0.000    0.000 
#
# Total GULP energy -312736.279347 kJ/mol
# GULP energy per Si atom -5584.576417 kJ/mol
# Density = 1.928804 g / cm^3
# Si number density = 19.332045 Si / 1000 Ang^3
#
#
#
# Elastic Constant Matrix: (Units=GPa)
#
#
# Indices 1 2 3 4 5 6 
#
# 1 108.8994 27.4093 34.6775 0.0000 0.0000 0.0000
# 2 27.4093 58.1608 38.8223 0.0000 0.0000 0.0000
# 3 34.6775 38.8223 101.3208 0.0000 0.0000 0.0000
# 4 0.0000 0.0000 0.0000 33.4700 0.0000 0.0000
# 5 0.0000 0.0000 0.0000 0.0000 22.3312 0.0000
# 6 0.0000 0.0000 0.0000 0.0000 0.0000 17.6501
#
#
#
# Elastic Compliance Matrix: (Units=1/GPa)
#
#
# Indices 1 2 3 4 5 6 
#
# 1 0.010820 -0.003530 -0.002351 0.000000 0.000000 0.000000
# 2 -0.003530 0.024254 -0.008085 0.000000 0.000000 0.000000
# 3 -0.002351 -0.008085 0.013772 0.000000 0.000000 0.000000
# 4 0.000000 0.000000 0.000000 0.029878 0.000000 0.000000
# 5 0.000000 0.000000 0.000000 0.000000 0.044780 0.000000
# 6 0.000000 0.000000 0.000000 0.000000 0.000000 0.056657
#
#
# Mechanical properties :
#
#
# Convention : Reuss Voigt Hill
#
# Bulk Modulus (GPa) = 47.81353 52.24436 50.02894
# Shear Modulus (GPa) = 23.24896 25.85506 24.55201
#
# Velocity S-wave (km/s) = 3.47163 3.66104 3.56760
# Velocity P-wave (km/s) = 6.39188 6.70480 6.55021
#
# Compressibility (1/GPa) = 0.02091458
#
# Stress axis : x y z
#
# Youngs Moduli (GPa) = 92.42341 41.23019 72.61097
#
# Poissons Ratio (x) = 0.14554 0.17068
# Poissons Ratio (y) = 0.32626 0.58707
# Poissons Ratio (z) = 0.21725 0.33335
#
# Static dielectric constant tensor:
#      x y z
#    x 1.718430 0.000000 0.000000 
#    y 0.000000 1.650750 0.000000 
#    z 0.000000 0.000000 1.691690 
# 
# From -- ./inp_files/24421.got.cif
#   From: 2010.05.17/outbox.cif.g08.bks.cpg/sg64_13_cif.got.tgz:24421.got - 2010.06.03 16:29:19.
