data_PCOD9478343
_publ_section_title
;
Structure prediction by ZEFSAII (Michael W. Deem and Ramdas Pophale) SiO2 
 PCOD9478343
Probable space group: C M C A
;
_chemical_formula_sum "Si O2"
_cell_formula_units_Z 80
_cell_length_a 17.055502
_cell_length_b 22.413273
_cell_length_c 9.299786
_cell_angle_alpha 90.000000
_cell_angle_beta 90.000000
_cell_angle_gamma 90.000000
_cell_volume 3555.025683
_symmetry_space_group_name_H-M "C M C A"
_symmetry_group_IT_number 64
_symmetry_cell_setting 'orthorhombic'
loop_
_space_group_symop_operation_xyz
x,y,z
-x,1/2-y,1/2+z
x,-y,-z
-x,1/2+y,1/2-z
-x,-y,-z
x,1/2+y,1/2-z
-x,y,z
x,1/2-y,1/2+z
1/2+x,1/2+y,z
1/2-x,-y,1/2+z
1/2+x,1/2-y,-z
1/2-x,y,1/2-z
1/2-x,1/2-y,-z
1/2+x,y,1/2-z
1/2-x,1/2+y,z
1/2+x,-y,1/2+z
loop_
_atom_site_type_symbol
_atom_site_label
_atom_site_fract_x
_atom_site_fract_y
_atom_site_fract_z
Si Si1 0.834830 0.786443 0.311998
Si Si2 0.406258 0.113583 0.618681
Si Si3 0.411925 0.965630 0.132382
Si Si4 0.083406 0.846670 0.546986
Si Si5 0.834380 0.856376 0.817895
O O1 0.750000 0.801740 0.250000
O O2 0.891915 0.824878 0.209167
O O3 0.848782 0.806545 0.477065
O O4 0.843142 0.715578 0.313944
O O5 0.500000 0.108204 0.592589
O O6 0.379952 0.055286 0.712783
O O7 0.356348 0.119227 0.473227
O O8 0.500000 0.991889 0.152802
O O9 0.421884 0.900963 0.061560
O O10 0.370613 0.000000 0.000000
O O11 0.102332 0.874992 0.699528
O O12 0.000000 0.813781 0.549900
O O13 0.750000 0.872077 0.750000
#
# Coordination Sequence:
#
# PCOD9478343 Si02
#       5
#    16  16  16  16  16
#     4  10  20  34  51  74 108 153 195 229 280 342
#     4  10  20  33  53  81 109 144 194 243 283 333
#     4   8  16  34  57  78 102 134 177 232 292 348
#     4  10  20  33  53  79 104 138 185 234 284 334
#     4  11  22  34  49  74 114 155 188 230 284 340
#
# _framework density 22.503354000000002
#
# number of rings (size 3 to 8) (size 9 to 14) (size 15 to 20)
#    0.000    2.200    0.000    4.800    0.000    8.000 
#    0.000    1.000    0.000   12.000    0.000    0.000 
#    0.000    0.000    0.000    0.000    0.000   10.400 
#
# Total GULP energy -222825.997981 kJ/mol
# GULP energy per Si atom -5570.649950 kJ/mol
# Density = 2.245214 g / cm^3
# Si number density = 22.503354 Si / 1000 Ang^3
#
#
#
# Elastic Constant Matrix: (Units=GPa)
#
#
# Indices 1 2 3 4 5 6 
#
# 1 69.4244 27.9068 49.6037 0.0000 0.0000 0.0000
# 2 27.9068 14.6615 30.0196 0.0000 0.0000 0.0000
# 3 49.6037 30.0196 193.9630 0.0000 0.0000 0.0000
# 4 0.0000 0.0000 0.0000 34.3928 0.0000 0.0000
# 5 0.0000 0.0000 0.0000 0.0000 52.9451 0.0000
# 6 0.0000 0.0000 0.0000 0.0000 0.0000 18.3016
#
#
#
# Elastic Compliance Matrix: (Units=1/GPa)
#
#
# Indices 1 2 3 4 5 6 
#
# 1 0.062981 -0.127212 0.003582 0.000000 0.000000 0.000000
# 2 -0.127212 0.356797 -0.022688 0.000000 0.000000 0.000000
# 3 0.003582 -0.022688 0.007751 0.000000 0.000000 0.000000
# 4 0.000000 0.000000 0.000000 0.029076 0.000000 0.000000
# 5 0.000000 0.000000 0.000000 0.000000 0.018888 0.000000
# 6 0.000000 0.000000 0.000000 0.000000 0.000000 0.054640
#
#
# Mechanical properties :
#
#
# Convention : Reuss Voigt Hill
#
# Bulk Modulus (GPa) = 7.41335 54.78989 31.10162
# Shear Modulus (GPa) = 5.76213 32.49582 19.12898
#
# Velocity S-wave (km/s) = 1.60191 3.80418 2.91872
# Velocity P-wave (km/s) = 2.59287 6.61029 5.02091
#
# Compressibility (1/GPa) = 0.13489172
#
# Stress axis : x y z
#
# Youngs Moduli (GPa) = 15.87783 2.80271 129.01488
#
# Poissons Ratio (x) = 0.35654 -0.46214
# Poissons Ratio (y) = 2.01986 2.92715
# Poissons Ratio (z) = -0.05688 0.06359
#
# Static dielectric constant tensor:
#      x y z
#    x 1.894810 0.000000 0.000000 
#    y 0.000000 1.949000 0.000000 
#    z 0.000000 0.000000 1.974220 
# 
# From -- ./inp_files/7068.got.cif
#   From: 2010.05.17/outbox.cif.g08.bks.cpg/sg64_4_cif.got.tgz:7068.got - 2010.06.03 16:29:19.
