data_PCOD9478264
_publ_section_title
;
Structure prediction by ZEFSAII (Michael W. Deem and Ramdas Pophale) SiO2 
 PCOD9478264
Probable space group: C M C A
;
_chemical_formula_sum "Si O2"
_cell_formula_units_Z 104
_cell_length_a 7.751829
_cell_length_b 24.430545
_cell_length_c 28.896100
_cell_angle_alpha 90.000000
_cell_angle_beta 90.000000
_cell_angle_gamma 90.000000
_cell_volume 5472.384081
_symmetry_space_group_name_H-M "C M C A"
_symmetry_group_IT_number 64
_symmetry_cell_setting 'orthorhombic'
loop_
_space_group_symop_operation_xyz
x,y,z
-x,1/2-y,1/2+z
x,-y,-z
-x,1/2+y,1/2-z
-x,-y,-z
x,1/2+y,1/2-z
-x,y,z
x,1/2-y,1/2+z
1/2+x,1/2+y,z
1/2-x,-y,1/2+z
1/2+x,1/2-y,-z
1/2-x,y,1/2-z
1/2-x,1/2-y,-z
1/2+x,y,1/2-z
1/2-x,1/2+y,z
1/2+x,-y,1/2+z
loop_
_atom_site_type_symbol
_atom_site_label
_atom_site_fract_x
_atom_site_fract_y
_atom_site_fract_z
Si Si1 0.000000 0.540627 0.930387
Si Si2 0.797604 0.055143 0.178903
Si Si3 0.500000 0.584234 0.467052
Si Si4 0.204775 0.332959 0.195678
Si Si5 0.699015 0.369388 0.909140
Si Si6 0.198740 0.559056 0.642101
Si Si7 0.750000 0.862766 0.750000
Si Si8 0.203322 0.788573 0.670090
O O1 0.167522 0.555370 0.899933
O O2 0.000000 0.476078 0.943185
O O3 0.000000 0.573386 0.978449
O O4 0.782843 0.081115 0.127996
O O5 0.685254 0.091870 0.213006
O O6 0.000000 0.062477 0.192569
O O7 0.755925 0.991592 0.176101
O O8 0.666981 0.617281 0.449318
O O9 0.250000 0.333019 0.250000
O O10 0.286045 0.384281 0.169258
O O11 0.264038 0.275559 0.173828
O O12 0.000000 0.337346 0.190999
O O13 0.500000 0.366445 0.923900
O O14 0.746838 0.316080 0.878532
O O15 0.000000 0.550063 0.627357
O O16 0.690567 0.819312 0.710839
O O17 0.000000 0.799017 0.679509
#
# Coordination Sequence:
#
# PCOD9478264 Si02
#       8
#     8  16   8  16  16  16   8  16
#     4  11  24  42  66  95 126 162 204 260 319 385
#     4   9  19  34  53  82 122 162 201 246 301 360
#     4  11  22  40  68  99 124 158 206 252 325 390
#     4  12  25  41  61  89 127 172 223 263 297 363
#     4  10  20  37  61  92 127 160 199 255 315 374
#     4  11  23  43  63  87 125 169 211 257 311 368
#     4  10  20  32  54  84 124 166 204 256 302 358
#     4  11  21  36  60  90 125 165 212 260 311 360
#
# _framework density 19.004512999999999
#
# number of rings (size 3 to 8) (size 9 to 14) (size 15 to 20)
#    0.000    1.385    3.846    2.308    1.077    1.846 
#    1.385    1.538    0.000    0.923    0.000    0.000 
#    0.000    0.000    0.000    0.000    0.000    0.000 
#
# Total GULP energy -289912.800997 kJ/mol
# GULP energy per Si atom -5575.246173 kJ/mol
# Density = 1.896126 g / cm^3
# Si number density = 19.004513 Si / 1000 Ang^3
#
#
#
# Elastic Constant Matrix: (Units=GPa)
#
#
# Indices 1 2 3 4 5 6 
#
# 1 114.2792 20.8591 17.5426 0.0000 0.0000 0.0000
# 2 20.8591 152.3256 34.2520 0.0000 0.0000 0.0000
# 3 17.5426 34.2520 31.0208 0.0000 0.0000 0.0000
# 4 0.0000 0.0000 0.0000 22.7692 0.0000 0.0000
# 5 0.0000 0.0000 0.0000 0.0000 12.2666 0.0000
# 6 0.0000 0.0000 0.0000 0.0000 0.0000 0.5634
#
#
#
# Elastic Compliance Matrix: (Units=1/GPa)
#
#
# Indices 1 2 3 4 5 6 
#
# 1 0.009584 -0.000125 -0.005282 0.000000 0.000000 0.000000
# 2 -0.000125 0.008735 -0.009574 0.000000 0.000000 0.000000
# 3 -0.005282 -0.009574 0.045795 0.000000 0.000000 0.000000
# 4 0.000000 0.000000 0.000000 0.043919 0.000000 0.000000
# 5 0.000000 0.000000 0.000000 0.000000 0.081522 0.000000
# 6 0.000000 0.000000 0.000000 0.000000 0.000000 1.774811
#
#
# Mechanical properties :
#
#
# Convention : Reuss Voigt Hill
#
# Bulk Modulus (GPa) = 29.28101 49.21476 39.24789
# Shear Modulus (GPa) = 2.49288 22.11798 12.30543
#
# Velocity S-wave (km/s) = 1.14655 3.41519 2.54736
# Velocity P-wave (km/s) = 4.14652 6.44236 5.41745
#
# Compressibility (1/GPa) = 0.03415183
#
# Stress axis : x y z
#
# Youngs Moduli (GPa) = 104.33932 114.48459 21.83640
#
# Poissons Ratio (x) = 0.01427 0.11535
# Poissons Ratio (y) = 0.01301 0.20907
# Poissons Ratio (z) = 0.55115 1.09609
#
# Static dielectric constant tensor:
#      x y z
#    x 1.753650 0.000000 0.000000 
#    y 0.000000 1.659480 0.000000 
#    z 0.000000 0.000000 1.623720 
# 
# From -- ./inp_files/48292.got.cif
#   From: 2010.05.17/outbox.cif.g08.bks.cpg/sg64_25_cif.got.tgz:48292.got - 2010.06.03 16:29:19.
