data_PCOD9478237
_publ_section_title
;
Structure prediction by ZEFSAII (Michael W. Deem and Ramdas Pophale) SiO2 
 PCOD9478237
Probable space group: C M C A
;
_chemical_formula_sum "Si O2"
_cell_formula_units_Z 80
_cell_length_a 7.695945
_cell_length_b 26.733997
_cell_length_c 20.661450
_cell_angle_alpha 90.000000
_cell_angle_beta 90.000000
_cell_angle_gamma 90.000000
_cell_volume 4250.956363
_symmetry_space_group_name_H-M "C M C A"
_symmetry_group_IT_number 64
_symmetry_cell_setting 'orthorhombic'
loop_
_space_group_symop_operation_xyz
x,y,z
-x,1/2-y,1/2+z
x,-y,-z
-x,1/2+y,1/2-z
-x,-y,-z
x,1/2+y,1/2-z
-x,y,z
x,1/2-y,1/2+z
1/2+x,1/2+y,z
1/2-x,-y,1/2+z
1/2+x,1/2-y,-z
1/2-x,y,1/2-z
1/2-x,1/2-y,-z
1/2+x,y,1/2-z
1/2-x,1/2+y,z
1/2+x,-y,1/2+z
loop_
_atom_site_type_symbol
_atom_site_label
_atom_site_fract_x
_atom_site_fract_y
_atom_site_fract_z
Si Si1 0.793676 0.151744 0.597948
Si Si2 0.708890 0.942520 0.175400
Si Si3 0.713089 0.366282 0.549774
Si Si4 0.287622 0.477842 0.569809
Si Si5 0.705873 0.759755 0.924501
O O1 0.725641 0.111046 0.648515
O O2 0.728777 0.139547 0.525216
O O3 0.766315 0.210250 0.612503
O O4 0.000000 0.144774 0.594178
O O5 0.500000 0.942308 0.170172
O O6 0.750000 0.950435 0.250000
O O7 0.772030 0.986085 0.127322
O O8 0.500000 0.365893 0.549474
O O9 0.768339 0.420210 0.575400
O O10 0.771136 0.316218 0.587571
O O11 0.235625 0.500000 0.500000
O O12 0.500000 0.477953 0.570048
O O13 0.500000 0.760774 0.917831
O O14 0.750000 0.750000 0.000000
#
# Coordination Sequence:
#
# PCOD9478237 Si02
#       5
#    16  16  16  16  16
#     4   9  16  28  45  66  92 121 154 192 235 282
#     4  10  20  32  49  71  96 126 158 198 244 293
#     4   8  13  23  42  69  93 113 149 195 233 272
#     4   9  14  25  48  72  91 118 160 202 234 274
#     4   9  16  25  41  67  96 122 148 187 233 279
#
# _framework density 18.819295
#
# number of rings (size 3 to 8) (size 9 to 14) (size 15 to 20)
#    0.000    3.000    2.000    1.800    0.000    0.800 
#    0.000    0.000    0.000    7.800    0.000    5.600 
#    0.000    0.000    0.000    0.000    0.000    0.000 
#
# Total GULP energy -222749.836882 kJ/mol
# GULP energy per Si atom -5568.745922 kJ/mol
# Density = 1.877646 g / cm^3
# Si number density = 18.819295 Si / 1000 Ang^3
#
#
#
# Elastic Constant Matrix: (Units=GPa)
#
#
# Indices 1 2 3 4 5 6 
#
# 1 27.2825 5.1801 4.4324 0.0000 0.0000 0.0000
# 2 5.1801 226.0196 87.1303 0.0000 0.0000 0.0000
# 3 4.4324 87.1303 96.6208 0.0000 0.0000 0.0000
# 4 0.0000 0.0000 0.0000 20.5958 0.0000 0.0000
# 5 0.0000 0.0000 0.0000 0.0000 14.0620 0.0000
# 6 0.0000 0.0000 0.0000 0.0000 0.0000 12.3253
#
#
#
# Elastic Compliance Matrix: (Units=1/GPa)
#
#
# Indices 1 2 3 4 5 6 
#
# 1 0.036942 -0.000296 -0.001427 0.000000 0.000000 0.000000
# 2 -0.000296 0.006784 -0.006104 0.000000 0.000000 0.000000
# 3 -0.001427 -0.006104 0.015920 0.000000 0.000000 0.000000
# 4 0.000000 0.000000 0.000000 0.048554 0.000000 0.000000
# 5 0.000000 0.000000 0.000000 0.000000 0.071114 0.000000
# 6 0.000000 0.000000 0.000000 0.000000 0.000000 0.081134
#
#
# Mechanical properties :
#
#
# Convention : Reuss Voigt Hill
#
# Bulk Modulus (GPa) = 22.73256 60.37872 41.55564
# Shear Modulus (GPa) = 17.19586 26.27528 21.73557
#
# Velocity S-wave (km/s) = 3.02609 3.74061 3.40216
# Velocity P-wave (km/s) = 4.93105 7.12807 6.12881
#
# Compressibility (1/GPa) = 0.04398976
#
# Stress axis : x y z
#
# Youngs Moduli (GPa) = 27.06965 147.39581 62.81374
#
# Poissons Ratio (x) = 0.04369 0.08966
# Poissons Ratio (y) = 0.00802 0.38344
# Poissons Ratio (z) = 0.03864 0.89977
#
# Static dielectric constant tensor:
#      x y z
#    x 1.711170 0.000000 0.000000 
#    y 0.000000 1.715810 0.000000 
#    z 0.000000 0.000000 1.607210 
# 
# From -- ./inp_files/29993.got.cif
#   From: 2010.05.17/outbox.cif.g08.bks.cpg/sg64_15_cif.got.tgz:29993.got - 2010.06.03 16:29:19.
