data_PCOD9478746
_publ_section_title
;
Structure prediction by ZEFSAII (Michael W. Deem and Ramdas Pophale) SiO2 
 PCOD9478746
Probable space group: C M C A
;
_chemical_formula_sum "Si O2"
_cell_formula_units_Z 96
_cell_length_a 18.364540
_cell_length_b 11.901575
_cell_length_c 23.404775
_cell_angle_alpha 90.000000
_cell_angle_beta 90.000000
_cell_angle_gamma 90.000000
_cell_volume 5115.510291
_symmetry_space_group_name_H-M "C M C A"
_symmetry_group_IT_number 64
_symmetry_cell_setting 'orthorhombic'
loop_
_space_group_symop_operation_xyz
x,y,z
-x,1/2-y,1/2+z
x,-y,-z
-x,1/2+y,1/2-z
-x,-y,-z
x,1/2+y,1/2-z
-x,y,z
x,1/2-y,1/2+z
1/2+x,1/2+y,z
1/2-x,-y,1/2+z
1/2+x,1/2-y,-z
1/2-x,y,1/2-z
1/2-x,1/2-y,-z
1/2+x,y,1/2-z
1/2-x,1/2+y,z
1/2+x,-y,1/2+z
loop_
_atom_site_type_symbol
_atom_site_label
_atom_site_fract_x
_atom_site_fract_y
_atom_site_fract_z
Si Si1 0.152167 0.783958 0.051511
Si Si2 0.174421 0.422073 0.162212
Si Si3 0.162495 0.514726 0.636610
Si Si4 0.416759 0.854355 0.853942
Si Si5 0.181726 0.278736 0.577746
Si Si6 0.084860 0.644513 0.728472
O O1 0.095425 0.707508 0.085687
O O2 0.231641 0.730359 0.065103
O O3 0.151459 0.906184 0.081076
O O4 0.143700 0.788588 0.983773
O O5 0.260644 0.446149 0.164131
O O6 0.135377 0.540102 0.151362
O O7 0.161426 0.334505 0.110951
O O8 0.139033 0.370238 0.218876
O O9 0.166349 0.386799 0.616698
O O10 0.101565 0.545574 0.682972
O O11 0.500000 0.890097 0.847100
O O12 0.400541 0.759865 0.806042
O O13 0.000000 0.642428 0.745634
#
# Coordination Sequence:
#
# PCOD9478746 Si02
#       6
#    16  16  16  16  16  16
#     4   9  19  37  59  87 119 155 192 239 301 348
#     4  11  22  37  58  90 117 152 202 242 292 352
#     4  10  20  38  61  89 116 154 198 247 291 347
#     4  10  21  40  60  82 121 160 196 242 303 357
#     4  10  20  35  61  89 118 149 198 248 286 349
#     4  10  23  41  59  81 117 160 195 240 297 353
#
# _framework density 18.766456999999999
#
# number of rings (size 3 to 8) (size 9 to 14) (size 15 to 20)
#    0.000    2.000    1.667    1.500    2.333    0.667 
#    0.000    4.167    0.000    4.000    0.000    0.000 
#    0.000    0.000    0.000    0.000    0.000    0.000 
#
# Total GULP energy -267997.359241 kJ/mol
# GULP energy per Si atom -5583.278318 kJ/mol
# Density = 1.872374 g / cm^3
# Si number density = 18.766457 Si / 1000 Ang^3
#
#
#
# Elastic Constant Matrix: (Units=GPa)
#
#
# Indices 1 2 3 4 5 6 
#
# 1 42.5255 25.7965 31.4159 0.0000 0.0000 0.0000
# 2 25.7965 71.0879 19.8731 0.0000 0.0000 0.0000
# 3 31.4159 19.8731 100.6281 0.0000 0.0000 0.0000
# 4 0.0000 0.0000 0.0000 12.8270 0.0000 0.0000
# 5 0.0000 0.0000 0.0000 0.0000 16.7252 0.0000
# 6 0.0000 0.0000 0.0000 0.0000 0.0000 22.2052
#
#
#
# Elastic Compliance Matrix: (Units=1/GPa)
#
#
# Indices 1 2 3 4 5 6 
#
# 1 0.037034 -0.010803 -0.009428 0.000000 0.000000 0.000000
# 2 -0.010803 0.018040 -0.000190 0.000000 0.000000 0.000000
# 3 -0.009428 -0.000190 0.012919 0.000000 0.000000 0.000000
# 4 0.000000 0.000000 0.000000 0.077960 0.000000 0.000000
# 5 0.000000 0.000000 0.000000 0.000000 0.059790 0.000000
# 6 0.000000 0.000000 0.000000 0.000000 0.000000 0.045035
#
#
# Mechanical properties :
#
#
# Convention : Reuss Voigt Hill
#
# Bulk Modulus (GPa) = 36.83275 40.93472 38.88374
# Shear Modulus (GPa) = 16.62947 19.49522 18.06234
#
# Velocity S-wave (km/s) = 2.98002 3.22659 3.10575
# Velocity P-wave (km/s) = 5.61339 5.97840 5.79877
#
# Compressibility (1/GPa) = 0.02714975
#
# Stress axis : x y z
#
# Youngs Moduli (GPa) = 27.00232 55.43089 77.40747
#
# Poissons Ratio (x) = 0.59883 0.72983
# Poissons Ratio (y) = 0.29171 0.01472
# Poissons Ratio (z) = 0.25459 0.01054
#
# Static dielectric constant tensor:
#      x y z
#    x 1.634700 0.000000 0.000000 
#    y 0.000000 1.629350 0.000000 
#    z 0.000000 0.000000 1.642070 
# 
# From -- ./inp_files/40832.got.cif
#   From: 2010.05.17/outbox.cif.g08.bks.cpg/sg64_21_cif.got.tgz:40832.got - 2010.06.03 16:29:19.
