data_PCOD9478546
_publ_section_title
;
Structure prediction by ZEFSAII (Michael W. Deem and Ramdas Pophale) SiO2 
 PCOD9478546
Probable space group: C M C A
;
_chemical_formula_sum "Si O2"
_cell_formula_units_Z 96
_cell_length_a 20.193986
_cell_length_b 7.402288
_cell_length_c 28.178517
_cell_angle_alpha 90.000000
_cell_angle_beta 90.000000
_cell_angle_gamma 90.000000
_cell_volume 4212.172631
_symmetry_space_group_name_H-M "C M C A"
_symmetry_group_IT_number 64
_symmetry_cell_setting 'orthorhombic'
loop_
_space_group_symop_operation_xyz
x,y,z
-x,1/2-y,1/2+z
x,-y,-z
-x,1/2+y,1/2-z
-x,-y,-z
x,1/2+y,1/2-z
-x,y,z
x,1/2-y,1/2+z
1/2+x,1/2+y,z
1/2-x,-y,1/2+z
1/2+x,1/2-y,-z
1/2-x,y,1/2-z
1/2-x,1/2-y,-z
1/2+x,y,1/2-z
1/2-x,1/2+y,z
1/2+x,-y,1/2+z
loop_
_atom_site_type_symbol
_atom_site_label
_atom_site_fract_x
_atom_site_fract_y
_atom_site_fract_z
Si Si1 0.869287 0.996783 0.388929
Si Si2 0.500000 0.445466 0.054070
Si Si3 0.925018 0.072117 0.293057
Si Si4 0.857965 0.433761 0.405141
Si Si5 0.000000 0.019196 0.443586
Si Si6 0.576528 0.997196 0.313794
Si Si7 0.728111 0.606570 0.538921
O O1 0.880773 0.976421 0.332840
O O2 0.854718 0.211997 0.399468
O O3 0.936087 0.947551 0.416614
O O4 0.813559 0.876671 0.413597
O O5 0.572004 0.497879 0.073308
O O6 0.500000 0.232952 0.064673
O O7 0.500000 0.500000 0.000000
O O8 0.928596 0.280051 0.308772
O O9 0.000000 0.996014 0.294844
O O10 0.904958 0.067449 0.238254
O O11 0.866250 0.520508 0.352920
O O12 0.796645 0.475663 0.439626
O O13 0.000000 0.000000 0.500000
O O14 0.500000 0.057091 0.325646
O O15 0.682815 0.500000 0.500000
O O16 0.750000 0.750000 0.500000
#
# Coordination Sequence:
#
# PCOD9478546 Si02
#       7
#    16   8  16  16   8  16  16
#     4  10  20  38  60  85 112 155 200 235 291 353
#     4  10  20  36  57  86 114 146 195 248 288 336
#     4   9  17  34  59  87 116 145 184 238 295 347
#     4  10  20  38  61  83 115 157 194 236 298 349
#     4  10  20  34  59  82 112 150 195 244 286 342
#     4   9  17  34  59  86 115 147 184 236 296 351
#     4  12  24  41  59  82 117 160 197 239 289 350
#
# _framework density 22.791087999999998
#
# number of rings (size 3 to 8) (size 9 to 14) (size 15 to 20)
#    0.000    2.000    3.333    1.000    2.333    0.000 
#    3.000    0.833    0.000    4.000    0.000    0.000 
#    0.000    0.000    0.000    0.000    0.000    0.000 
#
# Total GULP energy -267393.140757 kJ/mol
# GULP energy per Si atom -5570.690432 kJ/mol
# Density = 2.273921 g / cm^3
# Si number density = 22.791088 Si / 1000 Ang^3
#
#
#
# Elastic Constant Matrix: (Units=GPa)
#
#
# Indices 1 2 3 4 5 6 
#
# 1 102.5660 4.9328 61.5380 0.0000 0.0000 0.0000
# 2 4.9328 39.3610 7.2239 0.0000 0.0000 0.0000
# 3 61.5380 7.2239 170.5652 0.0000 0.0000 0.0000
# 4 0.0000 0.0000 0.0000 32.8615 0.0000 0.0000
# 5 0.0000 0.0000 0.0000 0.0000 44.5121 0.0000
# 6 0.0000 0.0000 0.0000 0.0000 0.0000 12.8750
#
#
#
# Elastic Compliance Matrix: (Units=1/GPa)
#
#
# Indices 1 2 3 4 5 6 
#
# 1 0.012465 -0.000743 -0.004466 0.000000 0.000000 0.000000
# 2 -0.000743 0.025649 -0.000818 0.000000 0.000000 0.000000
# 3 -0.004466 -0.000818 0.007509 0.000000 0.000000 0.000000
# 4 0.000000 0.000000 0.000000 0.030431 0.000000 0.000000
# 5 0.000000 0.000000 0.000000 0.000000 0.022466 0.000000
# 6 0.000000 0.000000 0.000000 0.000000 0.000000 0.077670
#
#
# Mechanical properties :
#
#
# Convention : Reuss Voigt Hill
#
# Bulk Modulus (GPa) = 29.78906 51.09794 40.44350
# Shear Modulus (GPa) = 25.07119 33.96956 29.52038
#
# Velocity S-wave (km/s) = 3.32029 3.86486 3.60288
# Velocity P-wave (km/s) = 5.27238 6.51037 5.92380
#
# Compressibility (1/GPa) = 0.03356937
#
# Stress axis : x y z
#
# Youngs Moduli (GPa) = 80.22515 38.98767 133.17851
#
# Poissons Ratio (x) = 0.02895 0.59474
# Poissons Ratio (y) = 0.05957 0.10900
# Poissons Ratio (z) = 0.35827 0.03191
#
# Static dielectric constant tensor:
#      x y z
#    x 2.100280 0.000000 0.000000 
#    y 0.000000 2.127110 0.000000 
#    z 0.000000 0.000000 1.859960 
# 
# From -- ./inp_files/46313.got.cif
#   From: 2010.05.17/outbox.cif.g08.bks.cpg/sg64_24_cif.got.tgz:46313.got - 2010.06.03 16:29:19.
