data_PCOD9478076
_publ_section_title
;
Structure prediction by ZEFSAII (Michael W. Deem and Ramdas Pophale) SiO2 
 PCOD9478076
Probable space group: C M C A
;
_chemical_formula_sum "Si O2"
_cell_formula_units_Z 112
_cell_length_a 14.476609
_cell_length_b 14.594971
_cell_length_c 24.473171
_cell_angle_alpha 90.000000
_cell_angle_beta 90.000000
_cell_angle_gamma 90.000000
_cell_volume 5170.830785
_symmetry_space_group_name_H-M "C M C A"
_symmetry_group_IT_number 64
_symmetry_cell_setting 'orthorhombic'
loop_
_space_group_symop_operation_xyz
x,y,z
-x,1/2-y,1/2+z
x,-y,-z
-x,1/2+y,1/2-z
-x,-y,-z
x,1/2+y,1/2-z
-x,y,z
x,1/2-y,1/2+z
1/2+x,1/2+y,z
1/2-x,-y,1/2+z
1/2+x,1/2-y,-z
1/2-x,y,1/2-z
1/2-x,1/2-y,-z
1/2+x,y,1/2-z
1/2-x,1/2+y,z
1/2+x,-y,1/2+z
loop_
_atom_site_type_symbol
_atom_site_label
_atom_site_fract_x
_atom_site_fract_y
_atom_site_fract_z
Si Si1 0.097243 0.852754 0.665564
Si Si2 0.603075 0.100737 0.975721
Si Si3 0.390189 0.061050 0.394503
Si Si4 0.642302 0.975546 0.733952
Si Si5 0.271370 0.820237 0.929208
Si Si6 0.329878 0.169713 0.712404
Si Si7 0.762999 0.610198 0.599532
O O1 0.178993 0.867666 0.622928
O O2 0.108806 0.749549 0.688064
O O3 0.000000 0.862322 0.635280
O O4 0.098078 0.916521 0.718217
O O5 0.500000 0.140846 0.970874
O O6 0.659589 0.090596 0.919688
O O7 0.673061 0.151272 0.017081
O O8 0.594473 0.000000 0.000000
O O9 0.500000 0.059902 0.405939
O O10 0.333968 0.144711 0.422836
O O11 0.378480 0.060165 0.327729
O O12 0.335840 0.969547 0.415571
O O13 0.750000 0.969754 0.750000
O O14 0.616840 0.083347 0.737312
O O15 0.284295 0.711738 0.922629
O O16 0.250000 0.212008 0.750000
O O17 0.272927 0.121256 0.663938
#
# Coordination Sequence:
#
# PCOD9478076 Si02
#       7
#    16  16  16  16  16  16  16
#     4  11  22  36  60  92 127 168 216 258 310 387
#     4  11  23  42  68  94 127 168 212 265 329 395
#     4  11  23  41  66  95 128 170 219 268 321 382
#     4  10  19  37  60  84 126 171 204 256 322 372
#     4  11  23  42  66  93 132 170 214 270 328 382
#     4   9  21  37  61  87 125 168 206 260 317 374
#     4  10  23  43  66  91 129 172 212 269 326 385
#
# _framework density 21.659963999999999
#
# number of rings (size 3 to 8) (size 9 to 14) (size 15 to 20)
#    0.000    1.571    2.857    1.714    2.000    6.857 
#    0.000    2.143    0.000    0.000    0.000    0.000 
#    0.000    0.000    0.000    0.000    0.000    0.000 
#
# Total GULP energy -312500.338053 kJ/mol
# GULP energy per Si atom -5580.363180 kJ/mol
# Density = 2.161066 g / cm^3
# Si number density = 21.659964 Si / 1000 Ang^3
#
#
#
# Elastic Constant Matrix: (Units=GPa)
#
#
# Indices 1 2 3 4 5 6 
#
# 1 156.4260 14.9902 36.3640 0.0000 0.0000 0.0000
# 2 14.9902 52.2402 28.9141 0.0000 0.0000 0.0000
# 3 36.3640 28.9141 51.0378 0.0000 0.0000 0.0000
# 4 0.0000 0.0000 0.0000 20.0996 0.0000 0.0000
# 5 0.0000 0.0000 0.0000 0.0000 21.4215 0.0000
# 6 0.0000 0.0000 0.0000 0.0000 0.0000 55.6864
#
#
#
# Elastic Compliance Matrix: (Units=1/GPa)
#
#
# Indices 1 2 3 4 5 6 
#
# 1 0.007714 0.001207 -0.006180 0.000000 0.000000 0.000000
# 2 0.001207 0.028075 -0.016765 0.000000 0.000000 0.000000
# 3 -0.006180 -0.016765 0.033494 0.000000 0.000000 0.000000
# 4 0.000000 0.000000 0.000000 0.049752 0.000000 0.000000
# 5 0.000000 0.000000 0.000000 0.000000 0.046682 0.000000
# 6 0.000000 0.000000 0.000000 0.000000 0.000000 0.017958
#
#
# Mechanical properties :
#
#
# Convention : Reuss Voigt Hill
#
# Bulk Modulus (GPa) = 38.74887 46.69339 42.72113
# Shear Modulus (GPa) = 21.20855 31.40387 26.30621
#
# Velocity S-wave (km/s) = 3.13255 3.81183 3.48876
# Velocity P-wave (km/s) = 5.56887 6.40138 5.99958
#
# Compressibility (1/GPa) = 0.02580721
#
# Stress axis : x y z
#
# Youngs Moduli (GPa) = 129.63913 35.61845 29.85587
#
# Poissons Ratio (x) = -0.04299 0.18450
# Poissons Ratio (y) = -0.15647 0.50054
# Poissons Ratio (z) = 0.80113 0.59715
#
# Static dielectric constant tensor:
#      x y z
#    x 1.806990 0.000000 0.000000 
#    y 0.000000 1.832110 0.000000 
#    z 0.000000 0.000000 1.822990 
# 
# From -- ./inp_files/45225.got.cif
#   From: 2010.05.17/outbox.cif.g08.bks.cpg/sg64_23_cif.got.tgz:45225.got - 2010.06.03 16:29:19.
