data_PCOD9478232
_publ_section_title
;
Structure prediction by ZEFSAII (Michael W. Deem and Ramdas Pophale) SiO2 
 PCOD9478232
Probable space group: C M C A
;
_chemical_formula_sum "Si O2"
_cell_formula_units_Z 68
_cell_length_a 13.872368
_cell_length_b 37.607140
_cell_length_c 5.362437
_cell_angle_alpha 90.000000
_cell_angle_beta 90.000000
_cell_angle_gamma 90.000000
_cell_volume 2797.583841
_symmetry_space_group_name_H-M "C M C A"
_symmetry_group_IT_number 64
_symmetry_cell_setting 'orthorhombic'
loop_
_space_group_symop_operation_xyz
x,y,z
-x,1/2-y,1/2+z
x,-y,-z
-x,1/2+y,1/2-z
-x,-y,-z
x,1/2+y,1/2-z
-x,y,z
x,1/2-y,1/2+z
1/2+x,1/2+y,z
1/2-x,-y,1/2+z
1/2+x,1/2-y,-z
1/2-x,y,1/2-z
1/2-x,1/2-y,-z
1/2+x,y,1/2-z
1/2-x,1/2+y,z
1/2+x,-y,1/2+z
loop_
_atom_site_type_symbol
_atom_site_label
_atom_site_fract_x
_atom_site_fract_y
_atom_site_fract_z
Si Si1 0.109157 0.035646 0.097930
Si Si2 0.500000 0.000000 0.000000
Si Si3 0.381798 0.885117 0.600264
Si Si4 0.116589 0.155546 0.599957
Si Si5 0.356784 0.763011 0.189764
O O1 0.151975 0.074225 0.069732
O O2 0.000000 0.035323 0.961519
O O3 0.082125 0.026950 0.381449
O O4 0.158966 0.000000 0.000000
O O5 0.500000 0.887282 0.606899
O O6 0.354290 0.862370 0.359831
O O7 0.352155 0.866591 0.857980
O O8 0.147154 0.196473 0.600997
O O9 0.000000 0.155900 0.595293
O O10 0.400827 0.759647 0.465467
O O11 0.250000 0.748933 0.250000
#
# Coordination Sequence:
#
# PCOD9478232 Si02
#       5
#    16   4  16  16  16
#     4   8  15  21  35  56  85 129 165 191 227 274
#     4   8  14  20  36  54  84 128 174 188 226 276
#     4   9  18  28  43  64 101 132 160 195 240 285
#     4  10  20  32  48  73  99 130 156 193 244 290
#     4  10  21  37  56  74  95 124 159 200 240 285
#
# _framework density 24.306688999999999
#
# number of rings (size 3 to 8) (size 9 to 14) (size 15 to 20)
#    0.706    2.118    0.000    1.412    3.294    0.941 
#    0.000    0.000    0.000    0.000    0.000    0.000 
#    0.000    3.765    0.000    0.000    0.000    0.000 
#
# Total GULP energy -189286.955047 kJ/mol
# GULP energy per Si atom -5567.263384 kJ/mol
# Density = 2.425137 g / cm^3
# Si number density = 24.306689 Si / 1000 Ang^3
#
#
#
# Elastic Constant Matrix: (Units=GPa)
#
#
# Indices 1 2 3 4 5 6 
#
# 1 75.0026 -8.6701 11.2635 0.0000 0.0000 0.0000
# 2 -8.6701 210.6481 80.2114 0.0000 0.0000 0.0000
# 3 11.2635 80.2114 154.4239 0.0000 0.0000 0.0000
# 4 0.0000 0.0000 0.0000 49.4004 0.0000 0.0000
# 5 0.0000 0.0000 0.0000 0.0000 2.4782 0.0000
# 6 0.0000 0.0000 0.0000 0.0000 0.0000 21.6855
#
#
#
# Elastic Compliance Matrix: (Units=1/GPa)
#
#
# Indices 1 2 3 4 5 6 
#
# 1 0.013711 0.001178 -0.001612 0.000000 0.000000 0.000000
# 2 0.001178 0.006019 -0.003212 0.000000 0.000000 0.000000
# 3 -0.001612 -0.003212 0.008262 0.000000 0.000000 0.000000
# 4 0.000000 0.000000 0.000000 0.020243 0.000000 0.000000
# 5 0.000000 0.000000 0.000000 0.000000 0.403521 0.000000
# 6 0.000000 0.000000 0.000000 0.000000 0.000000 0.046114
#
#
# Mechanical properties :
#
#
# Convention : Reuss Voigt Hill
#
# Bulk Modulus (GPa) = 48.31025 67.29824 57.80424
# Shear Modulus (GPa) = 9.76445 38.53080 24.14762
#
# Velocity S-wave (km/s) = 2.00647 3.98577 3.15533
# Velocity P-wave (km/s) = 5.02855 6.99493 6.09161
#
# Compressibility (1/GPa) = 0.02069954
#
# Stress axis : x y z
#
# Youngs Moduli (GPa) = 72.93337 166.14203 121.03875
#
# Poissons Ratio (x) = -0.19575 0.19512
# Poissons Ratio (y) = -0.08593 0.38881
# Poissons Ratio (z) = 0.11757 0.53370
#
# Static dielectric constant tensor:
#      x y z
#    x 2.011410 0.000000 0.000000 
#    y 0.000000 1.820950 0.000000 
#    z 0.000000 0.000000 1.976330 
# 
# From -- ./inp_files/1931.got.cif
#   From: 2010.05.17/outbox.cif.g08.bks.cpg/sg64_1_cif.got.tgz:1931.got - 2010.06.03 16:29:19.
