data_PCOD9478676
_publ_section_title
;
Structure prediction by ZEFSAII (Michael W. Deem and Ramdas Pophale) SiO2 
 PCOD9478676
Probable space group: C M C A
;
_chemical_formula_sum "Si O2"
_cell_formula_units_Z 96
_cell_length_a 9.015839
_cell_length_b 29.569910
_cell_length_c 18.532433
_cell_angle_alpha 90.000000
_cell_angle_beta 90.000000
_cell_angle_gamma 90.000000
_cell_volume 4940.701193
_symmetry_space_group_name_H-M "C M C A"
_symmetry_group_IT_number 64
_symmetry_cell_setting 'orthorhombic'
loop_
_space_group_symop_operation_xyz
x,y,z
-x,1/2-y,1/2+z
x,-y,-z
-x,1/2+y,1/2-z
-x,-y,-z
x,1/2+y,1/2-z
-x,y,z
x,1/2-y,1/2+z
1/2+x,1/2+y,z
1/2-x,-y,1/2+z
1/2+x,1/2-y,-z
1/2-x,y,1/2-z
1/2-x,1/2-y,-z
1/2+x,y,1/2-z
1/2-x,1/2+y,z
1/2+x,-y,1/2+z
loop_
_atom_site_type_symbol
_atom_site_label
_atom_site_fract_x
_atom_site_fract_y
_atom_site_fract_z
Si Si1 0.825089 0.720814 0.603072
Si Si2 0.176247 0.985349 0.825729
Si Si3 0.177303 0.091417 0.412143
Si Si4 0.672251 0.444021 0.428532
Si Si5 0.324639 0.688036 0.062417
Si Si6 0.327165 0.361025 0.321084
O O1 0.744346 0.769055 0.603597
O O2 0.805340 0.699867 0.522568
O O3 0.753547 0.685110 0.657198
O O4 0.000000 0.726125 0.615709
O O5 0.250000 0.998977 0.750000
O O6 0.243042 0.937267 0.850299
O O7 0.000000 0.983735 0.818827
O O8 0.225090 0.020586 0.887580
O O9 0.206581 0.065788 0.488274
O O10 0.241549 0.141767 0.419050
O O11 0.000000 0.092547 0.401850
O O12 0.500000 0.459419 0.423266
O O13 0.684739 0.396724 0.385920
O O14 0.500000 0.683937 0.076287
O O15 0.500000 0.352900 0.307310
O O16 0.250000 0.380392 0.250000
#
# Coordination Sequence:
#
# PCOD9478676 Si02
#       6
#    16  16  16  16  16  16
#     4  10  20  35  57  85 119 158 199 244 296 353
#     4  12  26  43  63  88 121 161 204 250 305 364
#     4  11  22  40  65  93 124 158 201 251 303 359
#     4  10  22  40  63  91 122 159 201 250 304 361
#     4  10  20  35  59  89 120 154 198 246 294 350
#     4  11  22  37  57  86 123 163 204 250 307 363
#
# _framework density 19.430440999999998
#
# number of rings (size 3 to 8) (size 9 to 14) (size 15 to 20)
#    0.000    1.333    1.667    4.500    0.000    7.333 
#    0.000    0.833    0.000    0.000    0.000    0.000 
#    0.000    0.000    0.000    0.000    0.000    0.000 
#
# Total GULP energy -268445.541264 kJ/mol
# GULP energy per Si atom -5592.615443 kJ/mol
# Density = 1.938622 g / cm^3
# Si number density = 19.430441 Si / 1000 Ang^3
#
#
#
# Elastic Constant Matrix: (Units=GPa)
#
#
# Indices 1 2 3 4 5 6 
#
# 1 111.5854 62.6825 30.2348 0.0000 0.0000 0.0000
# 2 62.6825 103.2355 10.8084 0.0000 0.0000 0.0000
# 3 30.2348 10.8084 41.2630 0.0000 0.0000 0.0000
# 4 0.0000 0.0000 0.0000 12.2047 0.0000 0.0000
# 5 0.0000 0.0000 0.0000 0.0000 27.5390 0.0000
# 6 0.0000 0.0000 0.0000 0.0000 0.0000 39.1697
#
#
#
# Elastic Compliance Matrix: (Units=1/GPa)
#
#
# Indices 1 2 3 4 5 6 
#
# 1 0.016789 -0.009157 -0.009903 0.000000 0.000000 0.000000
# 2 -0.009157 0.014954 0.002793 0.000000 0.000000 0.000000
# 3 -0.009903 0.002793 0.030760 0.000000 0.000000 0.000000
# 4 0.000000 0.000000 0.000000 0.081936 0.000000 0.000000
# 5 0.000000 0.000000 0.000000 0.000000 0.036312 0.000000
# 6 0.000000 0.000000 0.000000 0.000000 0.000000 0.025530
#
#
# Mechanical properties :
#
#
# Convention : Reuss Voigt Hill
#
# Bulk Modulus (GPa) = 33.36951 51.50393 42.43672
# Shear Modulus (GPa) = 20.09600 25.93989 23.01794
#
# Velocity S-wave (km/s) = 3.21947 3.65775 3.44558
# Velocity P-wave (km/s) = 5.57056 6.66357 6.14143
#
# Compressibility (1/GPa) = 0.02996748
#
# Stress axis : x y z
#
# Youngs Moduli (GPa) = 59.56237 66.87055 32.50999
#
# Poissons Ratio (x) = 0.61235 0.32196
# Poissons Ratio (y) = 0.54542 -0.09079
# Poissons Ratio (z) = 0.58987 -0.18675
#
# Static dielectric constant tensor:
#      x y z
#    x 1.641190 0.000000 0.000000 
#    y 0.000000 1.665310 0.000000 
#    z 0.000000 0.000000 1.673830 
# 
# From -- ./inp_files/37013.got.cif
#   From: 2010.05.17/outbox.cif.g08.bks.cpg/sg64_19_cif.got.tgz:37013.got - 2010.06.03 16:29:19.
