data_PCOD9478486
_publ_section_title
;
Structure prediction by ZEFSAII (Michael W. Deem and Ramdas Pophale) SiO2 
 PCOD9478486
Probable space group: C M C A
;
_chemical_formula_sum "Si O2"
_cell_formula_units_Z 112
_cell_length_a 16.040062
_cell_length_b 29.292784
_cell_length_c 12.158554
_cell_angle_alpha 90.000000
_cell_angle_beta 90.000000
_cell_angle_gamma 90.000000
_cell_volume 5712.794735
_symmetry_space_group_name_H-M "C M C A"
_symmetry_group_IT_number 64
_symmetry_cell_setting 'orthorhombic'
loop_
_space_group_symop_operation_xyz
x,y,z
-x,1/2-y,1/2+z
x,-y,-z
-x,1/2+y,1/2-z
-x,-y,-z
x,1/2+y,1/2-z
-x,y,z
x,1/2-y,1/2+z
1/2+x,1/2+y,z
1/2-x,-y,1/2+z
1/2+x,1/2-y,-z
1/2-x,y,1/2-z
1/2-x,1/2-y,-z
1/2+x,y,1/2-z
1/2-x,1/2+y,z
1/2+x,-y,1/2+z
loop_
_atom_site_type_symbol
_atom_site_label
_atom_site_fract_x
_atom_site_fract_y
_atom_site_fract_z
Si Si1 0.093215 0.974875 0.657821
Si Si2 0.096509 0.345945 0.208234
Si Si3 0.811406 0.230396 0.847639
Si Si4 0.821558 0.685832 0.011942
Si Si5 0.237637 0.908899 0.567695
Si Si6 0.316002 0.062548 0.832607
Si Si7 0.905697 0.459685 0.586539
O O1 0.168030 0.941112 0.624154
O O2 0.090181 0.978558 0.790019
O O3 0.000000 0.961244 0.620316
O O4 0.118336 0.025879 0.622823
O O5 0.130593 0.306608 0.288257
O O6 0.143322 0.393871 0.225957
O O7 0.000000 0.352871 0.225723
O O8 0.114256 0.331167 0.081452
O O9 0.750000 0.247237 0.750000
O O10 0.851799 0.273169 0.910178
O O11 0.755426 0.204575 0.938593
O O12 0.789115 0.643305 0.083266
O O13 0.230633 0.918079 0.437847
O O14 0.332200 0.922605 0.593482
O O15 0.250000 0.039962 0.750000
O O16 0.884010 0.500000 0.500000
O O17 0.000000 0.443286 0.557942
#
# Coordination Sequence:
#
# PCOD9478486 Si02
#       7
#    16  16  16  16  16  16  16
#     4  11  23  36  54  82 115 150 190 234 282 341
#     4  10  20  34  55  84 114 143 181 232 289 347
#     4   9  18  37  59  80 104 139 188 235 279 341
#     4   9  20  36  57  80 109 145 185 232 290 346
#     4  11  21  35  57  82 112 151 189 233 289 349
#     4  11  21  36  57  80 109 148 192 232 279 338
#     4  10  21  37  55  78 111 150 193 241 287 336
#
# _framework density 19.605115999999999
#
# number of rings (size 3 to 8) (size 9 to 14) (size 15 to 20)
#    0.000    1.857    0.000    6.000    0.000    5.143 
#    0.000    4.286    0.000    6.857    0.000    0.000 
#    0.000    0.000    0.000    0.000    0.000    0.000 
#
# Total GULP energy -312447.564985 kJ/mol
# GULP energy per Si atom -5579.420803 kJ/mol
# Density = 1.956049 g / cm^3
# Si number density = 19.605116 Si / 1000 Ang^3
#
#
#
# Elastic Constant Matrix: (Units=GPa)
#
#
# Indices 1 2 3 4 5 6 
#
# 1 96.6826 28.7422 14.7205 0.0000 0.0000 0.0000
# 2 28.7422 95.3513 21.4641 0.0000 0.0000 0.0000
# 3 14.7205 21.4641 44.8314 0.0000 0.0000 0.0000
# 4 0.0000 0.0000 0.0000 33.6425 0.0000 0.0000
# 5 0.0000 0.0000 0.0000 0.0000 17.2165 0.0000
# 6 0.0000 0.0000 0.0000 0.0000 0.0000 9.4287
#
#
#
# Elastic Compliance Matrix: (Units=1/GPa)
#
#
# Indices 1 2 3 4 5 6 
#
# 1 0.011585 -0.002954 -0.002390 0.000000 0.000000 0.000000
# 2 -0.002954 0.012508 -0.005018 0.000000 0.000000 0.000000
# 3 -0.002390 -0.005018 0.025493 0.000000 0.000000 0.000000
# 4 0.000000 0.000000 0.000000 0.029724 0.000000 0.000000
# 5 0.000000 0.000000 0.000000 0.000000 0.058084 0.000000
# 6 0.000000 0.000000 0.000000 0.000000 0.000000 0.106059
#
#
# Mechanical properties :
#
#
# Convention : Reuss Voigt Hill
#
# Bulk Modulus (GPa) = 34.64813 40.74653 37.69733
# Shear Modulus (GPa) = 18.26166 23.52013 20.89090
#
# Velocity S-wave (km/s) = 3.05532 3.46742 3.26787
# Velocity P-wave (km/s) = 5.49163 6.07119 5.78867
#
# Compressibility (1/GPa) = 0.02886159
#
# Stress axis : x y z
#
# Youngs Moduli (GPa) = 86.31701 79.95075 39.22641
#
# Poissons Ratio (x) = 0.23620 0.09374
# Poissons Ratio (y) = 0.25500 0.19685
# Poissons Ratio (z) = 0.20626 0.40122
#
# Static dielectric constant tensor:
#      x y z
#    x 1.695940 0.000000 0.000000 
#    y 0.000000 1.710160 0.000000 
#    z 0.000000 0.000000 1.423020 
# 
# From -- ./inp_files/14925.got.cif
#   From: 2010.05.17/outbox.cif.g08.bks.cpg/sg64_8_cif.got.tgz:14925.got - 2010.06.03 16:29:19.
