data_PCOD9478946
_publ_section_title
;
Structure prediction by ZEFSAII (Michael W. Deem and Ramdas Pophale) SiO2 
 PCOD9478946
Probable space group: C M C A
;
_chemical_formula_sum "Si O2"
_cell_formula_units_Z 96
_cell_length_a 17.897827
_cell_length_b 15.108272
_cell_length_c 18.555955
_cell_angle_alpha 90.000000
_cell_angle_beta 90.000000
_cell_angle_gamma 90.000000
_cell_volume 5017.627438
_symmetry_space_group_name_H-M "C M C A"
_symmetry_group_IT_number 64
_symmetry_cell_setting 'orthorhombic'
loop_
_space_group_symop_operation_xyz
x,y,z
-x,1/2-y,1/2+z
x,-y,-z
-x,1/2+y,1/2-z
-x,-y,-z
x,1/2+y,1/2-z
-x,y,z
x,1/2-y,1/2+z
1/2+x,1/2+y,z
1/2-x,-y,1/2+z
1/2+x,1/2-y,-z
1/2-x,y,1/2-z
1/2-x,1/2-y,-z
1/2+x,y,1/2-z
1/2-x,1/2+y,z
1/2+x,-y,1/2+z
loop_
_atom_site_type_symbol
_atom_site_label
_atom_site_fract_x
_atom_site_fract_y
_atom_site_fract_z
Si Si1 0.417438 0.758072 0.990535
Si Si2 0.586826 0.710170 0.821864
Si Si3 0.197940 0.906102 0.532420
Si Si4 0.174778 0.383569 0.796854
Si Si5 0.410560 0.492948 0.196846
Si Si6 0.370706 0.579759 0.048756
O O1 0.500000 0.799410 0.997092
O O2 0.410261 0.722032 0.908544
O O3 0.351187 0.827803 0.001704
O O4 0.412293 0.672354 0.040823
O O5 0.500000 0.722436 0.800313
O O6 0.637856 0.786704 0.788970
O O7 0.610170 0.610528 0.803168
O O8 0.187774 0.900243 0.618582
O O9 0.286902 0.900211 0.520574
O O10 0.173467 0.000000 0.500000
O O11 0.250000 0.389112 0.750000
O O12 0.117719 0.456566 0.766990
O O13 0.500000 0.498221 0.188559
O O14 0.373090 0.542447 0.129161
O O15 0.402572 0.500000 0.000000
#
# Coordination Sequence:
#
# PCOD9478946 Si02
#       6
#    16  16  16  16  16  16
#     4  10  20  36  61  88 121 158 199 250 298 356
#     4   9  20  38  59  85 118 159 196 241 304 354
#     4  10  23  42  62  86 122 164 203 247 303 362
#     4  11  22  41  60  87 119 160 202 244 301 364
#     4  11  22  38  62  89 120 157 201 254 301 356
#     4  11  20  36  61  92 121 152 198 250 304 359
#
# _framework density 19.132548
#
# number of rings (size 3 to 8) (size 9 to 14) (size 15 to 20)
#    0.000    1.667    3.333    1.500    0.000    2.333 
#    3.000    0.000    0.000    0.000    0.000    0.000 
#    0.000    0.000    0.000    0.000    0.000    0.000 
#
# Total GULP energy -267993.946753 kJ/mol
# GULP energy per Si atom -5583.207224 kJ/mol
# Density = 1.908900 g / cm^3
# Si number density = 19.132548 Si / 1000 Ang^3
#
#
#
# Elastic Constant Matrix: (Units=GPa)
#
#
# Indices 1 2 3 4 5 6 
#
# 1 76.2479 58.3200 1.8489 0.0000 0.0000 0.0000
# 2 58.3200 132.0385 18.9316 0.0000 0.0000 0.0000
# 3 1.8489 18.9316 29.3230 0.0000 0.0000 0.0000
# 4 0.0000 0.0000 0.0000 28.6254 0.0000 0.0000
# 5 0.0000 0.0000 0.0000 0.0000 4.4244 0.0000
# 6 0.0000 0.0000 0.0000 0.0000 0.0000 25.8692
#
#
#
# Elastic Compliance Matrix: (Units=1/GPa)
#
#
# Indices 1 2 3 4 5 6 
#
# 1 0.020452 -0.009751 0.005006 0.000000 0.000000 0.000000
# 2 -0.009751 0.012995 -0.007775 0.000000 0.000000 0.000000
# 3 0.005006 -0.007775 0.038807 0.000000 0.000000 0.000000
# 4 0.000000 0.000000 0.000000 0.034934 0.000000 0.000000
# 5 0.000000 0.000000 0.000000 0.000000 0.226017 0.000000
# 6 0.000000 0.000000 0.000000 0.000000 0.000000 0.038656
#
#
# Mechanical properties :
#
#
# Convention : Reuss Voigt Hill
#
# Bulk Modulus (GPa) = 21.18022 43.97894 32.57958
# Shear Modulus (GPa) = 12.11706 22.35106 17.23406
#
# Velocity S-wave (km/s) = 2.51932 3.42163 3.00454
# Velocity P-wave (km/s) = 4.42232 6.21663 5.39460
#
# Compressibility (1/GPa) = 0.04721386
#
# Stress axis : x y z
#
# Youngs Moduli (GPa) = 48.89437 76.95013 25.76840
#
# Poissons Ratio (x) = 0.75037 -0.12900
# Poissons Ratio (y) = 0.47678 0.20036
# Poissons Ratio (z) = -0.24477 0.59831
#
# Static dielectric constant tensor:
#      x y z
#    x 1.676880 0.000000 0.000000 
#    y 0.000000 1.645780 0.000000 
#    z 0.000000 0.000000 1.666670 
# 
# From -- ./inp_files/39243.got.cif
#   From: 2010.05.17/outbox.cif.g08.bks.cpg/sg64_20_cif.got.tgz:39243.got - 2010.06.03 16:29:19.
