data_PCOD9478336
_publ_section_title
;
Structure prediction by ZEFSAII (Michael W. Deem and Ramdas Pophale) SiO2 
 PCOD9478336
Probable space group: C M C A
;
_chemical_formula_sum "Si O2"
_cell_formula_units_Z 128
_cell_length_a 22.114477
_cell_length_b 27.984394
_cell_length_c 9.644767
_cell_angle_alpha 90.000000
_cell_angle_beta 90.000000
_cell_angle_gamma 90.000000
_cell_volume 5968.762796
_symmetry_space_group_name_H-M "C M C A"
_symmetry_group_IT_number 64
_symmetry_cell_setting 'orthorhombic'
loop_
_space_group_symop_operation_xyz
x,y,z
-x,1/2-y,1/2+z
x,-y,-z
-x,1/2+y,1/2-z
-x,-y,-z
x,1/2+y,1/2-z
-x,y,z
x,1/2-y,1/2+z
1/2+x,1/2+y,z
1/2-x,-y,1/2+z
1/2+x,1/2-y,-z
1/2-x,y,1/2-z
1/2-x,1/2-y,-z
1/2+x,y,1/2-z
1/2-x,1/2+y,z
1/2+x,-y,1/2+z
loop_
_atom_site_type_symbol
_atom_site_label
_atom_site_fract_x
_atom_site_fract_y
_atom_site_fract_z
Si Si1 0.384683 0.928933 0.804655
Si Si2 0.926906 0.031873 0.710067
Si Si3 0.684625 0.841284 0.814275
Si Si4 0.812358 0.264216 0.335350
Si Si5 0.570424 0.723872 0.636567
Si Si6 0.066081 0.619713 0.959735
Si Si7 0.382447 0.318779 0.965437
Si Si8 0.429163 0.080736 0.499846
O O1 0.331056 0.894925 0.863547
O O2 0.436631 0.899292 0.883965
O O3 0.391241 0.929258 0.638642
O O4 0.392756 0.984378 0.837937
O O5 0.902541 0.077765 0.626225
O O6 0.000000 0.023989 0.688507
O O7 0.918492 0.045632 0.871459
O O8 0.750000 0.845022 0.750000
O O9 0.686108 0.790287 0.892043
O O10 0.636125 0.832462 0.690817
O O11 0.750000 0.269945 0.250000
O O12 0.873636 0.271848 0.244253
O O13 0.821526 0.302204 0.457089
O O14 0.500000 0.722538 0.687697
O O15 0.583677 0.674603 0.554220
O O16 0.576543 0.771599 0.544126
O O17 0.000000 0.619365 0.893957
O O18 0.413279 0.364219 0.036910
O O19 0.500000 0.077282 0.464094
#
# Coordination Sequence:
#
# PCOD9478336 Si02
#       8
#    16  16  16  16  16  16  16  16
#     4  11  20  33  55  77 102 139 188 236 278 333
#     4  10  20  34  53  77 108 145 181 223 277 337
#     4   9  21  37  54  77 104 139 184 234 283 333
#     4  10  21  37  58  82 112 154 197 236 280 345
#     4  10  21  35  54  84 120 153 186 234 293 345
#     4  10  20  33  52  81 114 145 180 227 282 339
#     4  10  20  35  56  82 111 148 186 229 283 342
#     4  10  20  34  53  80 113 146 181 223 279 343
#
# _framework density 21.444980999999999
#
# number of rings (size 3 to 8) (size 9 to 14) (size 15 to 20)
#    0.000    2.000    0.000    3.750    0.000    9.500 
#    0.000    3.750    0.000    9.000    0.000    0.000 
#    0.000    0.000    0.000    0.000    0.000    0.000 
#
# Total GULP energy -356286.400934 kJ/mol
# GULP energy per Si atom -5566.975015 kJ/mol
# Density = 2.139617 g / cm^3
# Si number density = 21.444981 Si / 1000 Ang^3
#
#
#
# Elastic Constant Matrix: (Units=GPa)
#
#
# Indices 1 2 3 4 5 6 
#
# 1 41.6309 7.5628 2.2278 0.0000 0.0000 0.0000
# 2 7.5628 141.4903 14.2660 0.0000 0.0000 0.0000
# 3 2.2278 14.2660 52.1200 0.0000 0.0000 0.0000
# 4 0.0000 0.0000 0.0000 29.3405 0.0000 0.0000
# 5 0.0000 0.0000 0.0000 0.0000 23.8709 0.0000
# 6 0.0000 0.0000 0.0000 0.0000 0.0000 -21.6499
#
#
#
# Elastic Compliance Matrix: (Units=1/GPa)
#
#
# Indices 1 2 3 4 5 6 
#
# 1 0.024281 -0.001227 -0.000702 0.000000 0.000000 0.000000
# 2 -0.001227 0.007330 -0.001954 0.000000 0.000000 0.000000
# 3 -0.000702 -0.001954 0.019751 0.000000 0.000000 0.000000
# 4 0.000000 0.000000 0.000000 0.034083 0.000000 0.000000
# 5 0.000000 0.000000 0.000000 0.000000 0.041892 0.000000
# 6 0.000000 0.000000 0.000000 0.000000 0.000000 -0.046190
#
#
# Mechanical properties :
#
#
# Convention : Reuss Voigt Hill
#
# Bulk Modulus (GPa) = 22.93756 31.48382 27.21069
# Shear Modulus (GPa) = 48.33451 20.39128 34.36289
#
# Velocity S-wave (km/s) = 4.75266 3.08696 4.00731
# Velocity P-wave (km/s) = 6.39033 5.23630 5.84188
#
# Compressibility (1/GPa) = 0.04359662
#
# Stress axis : x y z
#
# Youngs Moduli (GPa) = 41.18434 136.42153 50.62953
#
# Poissons Ratio (x) = 0.16740 0.03554
# Poissons Ratio (y) = 0.05054 0.09893
# Poissons Ratio (z) = 0.02891 0.26656
#
# Static dielectric constant tensor:
#      x y z
#    x 1.947630 0.000000 0.000000 
#    y 0.000000 1.844520 0.000000 
#    z 0.000000 0.000000 1.881260 
# 
# From -- ./inp_files/18675.got.cif
#   From: 2010.05.17/outbox.cif.g08.bks.cpg/sg64_10_cif.got.tgz:18675.got - 2010.06.03 16:29:19.
