data_PCOD9478988
_publ_section_title
;
Structure prediction by ZEFSAII (Michael W. Deem and Ramdas Pophale) SiO2 
 PCOD9478988
Probable space group: C M C A
;
_chemical_formula_sum "Si O2"
_cell_formula_units_Z 112
_cell_length_a 15.348271
_cell_length_b 15.265579
_cell_length_c 23.546387
_cell_angle_alpha 90.000000
_cell_angle_beta 90.000000
_cell_angle_gamma 90.000000
_cell_volume 5516.924207
_symmetry_space_group_name_H-M "C M C A"
_symmetry_group_IT_number 64
_symmetry_cell_setting 'orthorhombic'
loop_
_space_group_symop_operation_xyz
x,y,z
-x,1/2-y,1/2+z
x,-y,-z
-x,1/2+y,1/2-z
-x,-y,-z
x,1/2+y,1/2-z
-x,y,z
x,1/2-y,1/2+z
1/2+x,1/2+y,z
1/2-x,-y,1/2+z
1/2+x,1/2-y,-z
1/2-x,y,1/2-z
1/2-x,1/2-y,-z
1/2+x,y,1/2-z
1/2-x,1/2+y,z
1/2+x,-y,1/2+z
loop_
_atom_site_type_symbol
_atom_site_label
_atom_site_fract_x
_atom_site_fract_y
_atom_site_fract_z
Si Si1 0.222224 0.214457 0.438815
Si Si2 0.855243 0.474829 0.259065
Si Si3 0.899350 0.047926 0.439649
Si Si4 0.405423 0.220364 0.382235
Si Si5 0.173708 0.677603 0.664310
Si Si6 0.598830 0.679926 0.250695
Si Si7 0.863150 0.100577 0.645368
O O1 0.250000 0.250000 0.500000
O O2 0.158601 0.133276 0.444439
O O3 0.314596 0.188427 0.408827
O O4 0.168771 0.283399 0.399220
O O5 0.750000 0.474789 0.250000
O O6 0.874366 0.410407 0.312595
O O7 0.879192 0.577018 0.256034
O O8 0.900815 0.428508 0.205458
O O9 0.000000 0.065158 0.423303
O O10 0.899435 0.000000 0.500000
O O11 0.856716 0.985244 0.392525
O O12 0.500000 0.182288 0.399911
O O13 0.399112 0.212496 0.314127
O O14 0.408234 0.324969 0.391936
O O15 0.156024 0.757978 0.708086
O O16 0.272871 0.645393 0.662645
O O17 0.500000 0.687921 0.272584
#
# Coordination Sequence:
#
# PCOD9478988 Si02
#       7
#    16  16  16  16  16  16  16
#     4  11  25  42  67  98 134 179 234 285 354 423
#     4  10  22  34  60  90 124 168 215 274 340 409
#     4  11  24  43  69 102 135 173 233 298 351 414
#     4  10  22  40  63  89 130 174 220 277 340 416
#     4  10  22  40  62  92 134 175 222 281 344 418
#     4  11  24  39  61  96 133 178 228 281 349 419
#     4  10  20  36  63  92 125 168 215 273 346 397
#
# _framework density 20.301168000000001
#
# number of rings (size 3 to 8) (size 9 to 14) (size 15 to 20)
#    0.000    1.571    1.429    3.000   10.000    5.143 
#    0.000    0.000    0.000    0.429    0.000    0.000 
#    0.000    0.000    0.000    0.000    0.000    0.000 
#
# Total GULP energy -312008.305050 kJ/mol
# GULP energy per Si atom -5571.576876 kJ/mol
# Density = 2.025496 g / cm^3
# Si number density = 20.301168 Si / 1000 Ang^3
#
#
#
# Elastic Constant Matrix: (Units=GPa)
#
#
# Indices 1 2 3 4 5 6 
#
# 1 109.2294 54.4407 32.8713 0.0000 0.0000 0.0000
# 2 54.4407 143.0564 48.0972 0.0000 0.0000 0.0000
# 3 32.8713 48.0972 98.5298 0.0000 0.0000 0.0000
# 4 0.0000 0.0000 0.0000 34.8560 0.0000 0.0000
# 5 0.0000 0.0000 0.0000 0.0000 24.7544 0.0000
# 6 0.0000 0.0000 0.0000 0.0000 0.0000 18.8000
#
#
#
# Elastic Compliance Matrix: (Units=1/GPa)
#
#
# Indices 1 2 3 4 5 6 
#
# 1 0.011637 -0.003736 -0.002058 0.000000 0.000000 0.000000
# 2 -0.003736 0.009562 -0.003421 0.000000 0.000000 0.000000
# 3 -0.002058 -0.003421 0.012506 0.000000 0.000000 0.000000
# 4 0.000000 0.000000 0.000000 0.028689 0.000000 0.000000
# 5 0.000000 0.000000 0.000000 0.000000 0.040397 0.000000
# 6 0.000000 0.000000 0.000000 0.000000 0.000000 0.053192
#
#
# Mechanical properties :
#
#
# Convention : Reuss Voigt Hill
#
# Bulk Modulus (GPa) = 65.47467 69.07045 67.27256
# Shear Modulus (GPa) = 27.85419 30.04250 28.94835
#
# Velocity S-wave (km/s) = 3.70814 3.85104 3.78027
# Velocity P-wave (km/s) = 7.11726 7.33967 7.22932
#
# Compressibility (1/GPa) = 0.01527308
#
# Stress axis : x y z
#
# Youngs Moduli (GPa) = 85.93502 104.57570 79.96138
#
# Poissons Ratio (x) = 0.39073 0.16458
# Poissons Ratio (y) = 0.32109 0.27358
# Poissons Ratio (z) = 0.17688 0.35779
#
# Static dielectric constant tensor:
#      x y z
#    x 1.784980 0.000000 0.000000 
#    y 0.000000 1.794530 0.000000 
#    z 0.000000 0.000000 1.784850 
# 
# From -- ./inp_files/45271.got.cif
#   From: 2010.05.17/outbox.cif.g08.bks.cpg/sg64_23_cif.got.tgz:45271.got - 2010.06.03 16:29:19.
