data_PCOD9478194
_publ_section_title
;
Structure prediction by ZEFSAII (Michael W. Deem and Ramdas Pophale) SiO2 
 PCOD9478194
Probable space group: C M C A
;
_chemical_formula_sum "Si O2"
_cell_formula_units_Z 116
_cell_length_a 27.824324
_cell_length_b 9.355879
_cell_length_c 20.996145
_cell_angle_alpha 90.000000
_cell_angle_beta 90.000000
_cell_angle_gamma 90.000000
_cell_volume 5465.737643
_symmetry_space_group_name_H-M "C M C A"
_symmetry_group_IT_number 64
_symmetry_cell_setting 'orthorhombic'
loop_
_space_group_symop_operation_xyz
x,y,z
-x,1/2-y,1/2+z
x,-y,-z
-x,1/2+y,1/2-z
-x,-y,-z
x,1/2+y,1/2-z
-x,y,z
x,1/2-y,1/2+z
1/2+x,1/2+y,z
1/2-x,-y,1/2+z
1/2+x,1/2-y,-z
1/2-x,y,1/2-z
1/2-x,1/2-y,-z
1/2+x,y,1/2-z
1/2-x,1/2+y,z
1/2+x,-y,1/2+z
loop_
_atom_site_type_symbol
_atom_site_label
_atom_site_fract_x
_atom_site_fract_y
_atom_site_fract_z
Si Si1 0.131282 0.155398 0.970463
Si Si2 0.376956 0.390520 0.243649
Si Si3 0.342288 0.406808 0.441259
Si Si4 0.943955 0.855684 0.753779
Si Si5 0.696685 0.706402 0.854060
Si Si6 0.713889 0.965322 0.168155
Si Si7 0.500000 0.000000 0.000000
Si Si8 0.423931 0.379864 0.603089
O O1 0.178816 0.164088 0.924984
O O2 0.089777 0.224902 0.926257
O O3 0.135072 0.266554 0.028918
O O4 0.123638 0.000000 0.000000
O O5 0.408799 0.522100 0.219739
O O6 0.417290 0.289309 0.275065
O O7 0.351676 0.300792 0.188149
O O8 0.331544 0.439499 0.285736
O O9 0.323869 0.500000 0.500000
O O10 0.299883 0.372982 0.393963
O O11 0.377792 0.514810 0.403675
O O12 0.941382 0.869541 0.676023
O O13 0.000000 0.863537 0.772348
O O14 0.733414 0.596923 0.820044
O O15 0.716460 0.867015 0.848066
O O16 0.540739 0.048144 0.052540
#
# Coordination Sequence:
#
# PCOD9478194 Si02
#       8
#    16  16  16  16  16  16   4  16
#     4  11  23  41  65  98 140 182 213 278 355 402
#     4  12  24  47  70  94 141 181 218 295 344 401
#     4  10  19  42  68  88 132 176 221 272 338 405
#     4  12  25  44  73 102 131 174 235 286 346 405
#     4  12  27  45  67 103 138 183 230 286 343 409
#     4  12  26  44  70  99 133 184 240 276 343 418
#     4  12  20  36  86  96 116 184 242 264 340 418
#     4  11  20  43  69  97 129 177 225 282 331 413
#
# _framework density 21.223119000000001
#
# number of rings (size 3 to 8) (size 9 to 14) (size 15 to 20)
#    0.000    0.552    9.655    0.828    3.862    2.207 
#    0.000    0.345    0.000    0.000    0.000    0.000 
#    0.000    0.000    0.000    0.000    0.000    0.000 
#
# Total GULP energy -322918.444737 kJ/mol
# GULP energy per Si atom -5567.559392 kJ/mol
# Density = 2.117481 g / cm^3
# Si number density = 21.223119 Si / 1000 Ang^3
#
#
#
# Elastic Constant Matrix: (Units=GPa)
#
#
# Indices 1 2 3 4 5 6 
#
# 1 111.1067 6.6452 13.4784 0.0000 0.0000 0.0000
# 2 6.6452 92.7640 1.2487 0.0000 0.0000 0.0000
# 3 13.4784 1.2487 42.8423 0.0000 0.0000 0.0000
# 4 0.0000 0.0000 0.0000 22.0343 0.0000 0.0000
# 5 0.0000 0.0000 0.0000 0.0000 19.3627 0.0000
# 6 0.0000 0.0000 0.0000 0.0000 0.0000 -38.7614
#
#
#
# Elastic Compliance Matrix: (Units=1/GPa)
#
#
# Indices 1 2 3 4 5 6 
#
# 1 0.009395 -0.000633 -0.002937 0.000000 0.000000 0.000000
# 2 -0.000633 0.010827 -0.000116 0.000000 0.000000 0.000000
# 3 -0.002937 -0.000116 0.024269 0.000000 0.000000 0.000000
# 4 0.000000 0.000000 0.000000 0.045384 0.000000 0.000000
# 5 0.000000 0.000000 0.000000 0.000000 0.051646 0.000000
# 6 0.000000 0.000000 0.000000 0.000000 0.000000 -0.025799
#
#
# Mechanical properties :
#
#
# Convention : Reuss Voigt Hill
#
# Bulk Modulus (GPa) = 26.94205 32.16196 29.55200
# Shear Modulus (GPa) = 36.90943 15.54985 26.22964
#
# Velocity S-wave (km/s) = 4.17479 2.70975 3.51935
# Velocity P-wave (km/s) = 5.99673 4.99774 5.51988
#
# Compressibility (1/GPa) = 0.03711670
#
# Stress axis : x y z
#
# Youngs Moduli (GPa) = 106.44474 92.36181 41.20508
#
# Poissons Ratio (x) = 0.05851 0.12102
# Poissons Ratio (y) = 0.06743 0.00479
# Poissons Ratio (z) = 0.31264 0.01074
#
# Static dielectric constant tensor:
#      x y z
#    x 1.781170 0.000000 0.000000 
#    y 0.000000 1.795360 0.000000 
#    z 0.000000 0.000000 1.823280 
# 
# From -- ./inp_files/46934.got.cif
#   From: 2010.05.17/outbox.cif.g08.bks.cpg/sg64_24_cif.got.tgz:46934.got - 2010.06.03 16:29:19.
