data_PCOD9478869
_publ_section_title
;
Structure prediction by ZEFSAII (Michael W. Deem and Ramdas Pophale) SiO2 
 PCOD9478869
Probable space group: C M C A
;
_chemical_formula_sum "Si O2"
_cell_formula_units_Z 80
_cell_length_a 25.443500
_cell_length_b 9.035141
_cell_length_c 18.636640
_cell_angle_alpha 90.000000
_cell_angle_beta 90.000000
_cell_angle_gamma 90.000000
_cell_volume 4284.295355
_symmetry_space_group_name_H-M "C M C A"
_symmetry_group_IT_number 64
_symmetry_cell_setting 'orthorhombic'
loop_
_space_group_symop_operation_xyz
x,y,z
-x,1/2-y,1/2+z
x,-y,-z
-x,1/2+y,1/2-z
-x,-y,-z
x,1/2+y,1/2-z
-x,y,z
x,1/2-y,1/2+z
1/2+x,1/2+y,z
1/2-x,-y,1/2+z
1/2+x,1/2-y,-z
1/2-x,y,1/2-z
1/2-x,1/2-y,-z
1/2+x,y,1/2-z
1/2-x,1/2+y,z
1/2+x,-y,1/2+z
loop_
_atom_site_type_symbol
_atom_site_label
_atom_site_fract_x
_atom_site_fract_y
_atom_site_fract_z
Si Si1 0.688522 0.641526 0.050150
Si Si2 0.392462 0.471098 0.670207
Si Si3 0.500000 0.977755 0.672745
Si Si4 0.894336 0.828141 0.827846
Si Si5 0.692835 0.872967 0.942514
Si Si6 0.500000 0.836291 0.833201
O O1 0.653153 0.631327 0.119873
O O2 0.748138 0.684183 0.074650
O O3 0.691414 0.500000 0.000000
O O4 0.664178 0.755319 0.993000
O O5 0.386020 0.397204 0.748729
O O6 0.399058 0.649122 0.676420
O O7 0.341886 0.428772 0.622895
O O8 0.445169 0.398092 0.635869
O O9 0.500000 0.156976 0.671728
O O10 0.552931 0.905878 0.641844
O O11 0.500000 0.913464 0.754254
O O12 0.701156 0.000000 0.000000
#
# Coordination Sequence:
#
# PCOD9478869 Si02
#       6
#    16  16   8  16  16   8
#     4  10  23  39  64  84 120 154 198 237 296 343
#     4  11  22  38  63  86 121 150 201 237 293 343
#     4  10  20  36  58  84 120 149 195 233 301 340
#     4  11  22  39  60  91 115 157 192 246 285 349
#     4  10  21  43  60  86 115 160 192 238 289 355
#     4  10  20  36  58  86 114 158 185 243 291 349
#
# _framework density 18.67285
#
# number of rings (size 3 to 8) (size 9 to 14) (size 15 to 20)
#    0.000    1.600    2.000    5.400    5.600    0.800 
#    0.000    4.000    0.000    0.000    0.000    0.000 
#    0.000    0.000    0.000    0.000    0.000    0.000 
#
# Total GULP energy -222711.815398 kJ/mol
# GULP energy per Si atom -5567.795385 kJ/mol
# Density = 1.863035 g / cm^3
# Si number density = 18.672850 Si / 1000 Ang^3
#
#
#
# Elastic Constant Matrix: (Units=GPa)
#
#
# Indices 1 2 3 4 5 6 
#
# 1 129.0587 29.4027 64.1095 0.0000 0.0000 0.0000
# 2 29.4027 126.6094 34.2925 0.0000 0.0000 0.0000
# 3 64.1095 34.2925 75.3578 0.0000 0.0000 0.0000
# 4 0.0000 0.0000 0.0000 26.9001 0.0000 0.0000
# 5 0.0000 0.0000 0.0000 0.0000 -121.2565 0.0000
# 6 0.0000 0.0000 0.0000 0.0000 0.0000 27.9481
#
#
#
# Elastic Compliance Matrix: (Units=1/GPa)
#
#
# Indices 1 2 3 4 5 6 
#
# 1 0.013420 -0.000028 -0.011404 0.000000 0.000000 0.000000
# 2 -0.000028 0.009009 -0.004076 0.000000 0.000000 0.000000
# 3 -0.011404 -0.004076 0.024827 0.000000 0.000000 0.000000
# 4 0.000000 0.000000 0.000000 0.037175 0.000000 0.000000
# 5 0.000000 0.000000 0.000000 0.000000 -0.008247 0.000000
# 6 0.000000 0.000000 0.000000 0.000000 0.000000 0.035781
#
#
# Mechanical properties :
#
#
# Convention : Reuss Voigt Hill
#
# Bulk Modulus (GPa) = 61.57741 65.18169 63.37955
# Shear Modulus (GPa) = 33.69466 0.26644 16.98055
#
# Velocity S-wave (km/s) = 4.25252 0.37815 3.01885
# Velocity P-wave (km/s) = 7.56045 5.93074 6.79463
#
# Compressibility (1/GPa) = 0.01623972
#
# Stress axis : x y z
#
# Youngs Moduli (GPa) = 74.51795 111.00350 40.27942
#
# Poissons Ratio (x) = 0.00307 0.45934
# Poissons Ratio (y) = 0.00206 0.16418
# Poissons Ratio (z) = 0.84980 0.45245
#
# Static dielectric constant tensor:
#      x y z
#    x 1.712560 0.000000 0.000000 
#    y 0.000000 1.595210 0.000000 
#    z 0.000000 0.000000 1.603750 
# 
# From -- ./inp_files/41328.got.cif
#   From: 2010.05.17/outbox.cif.g08.bks.cpg/sg64_21_cif.got.tgz:41328.got - 2010.06.03 16:29:19.
