data_PCOD9478133
_publ_section_title
;
Structure prediction by ZEFSAII (Michael W. Deem and Ramdas Pophale) SiO2 
 PCOD9478133
Probable space group: C M C A
;
_chemical_formula_sum "Si O2"
_cell_formula_units_Z 112
_cell_length_a 15.221121
_cell_length_b 15.443971
_cell_length_c 23.295491
_cell_angle_alpha 90.000000
_cell_angle_beta 90.000000
_cell_angle_gamma 90.000000
_cell_volume 5476.177094
_symmetry_space_group_name_H-M "C M C A"
_symmetry_group_IT_number 64
_symmetry_cell_setting 'orthorhombic'
loop_
_space_group_symop_operation_xyz
x,y,z
-x,1/2-y,1/2+z
x,-y,-z
-x,1/2+y,1/2-z
-x,-y,-z
x,1/2+y,1/2-z
-x,y,z
x,1/2-y,1/2+z
1/2+x,1/2+y,z
1/2-x,-y,1/2+z
1/2+x,1/2-y,-z
1/2-x,y,1/2-z
1/2-x,1/2-y,-z
1/2+x,y,1/2-z
1/2-x,1/2+y,z
1/2+x,-y,1/2+z
loop_
_atom_site_type_symbol
_atom_site_label
_atom_site_fract_x
_atom_site_fract_y
_atom_site_fract_z
Si Si1 0.273023 0.292413 0.560466
Si Si2 0.850809 0.430766 0.259697
Si Si3 0.901179 0.050618 0.440518
Si Si4 0.396751 0.206813 0.380086
Si Si5 0.104605 0.724138 0.658268
Si Si6 0.602479 0.630692 0.246695
Si Si7 0.900284 0.098471 0.633077
O O1 0.250000 0.250000 0.500000
O O2 0.342919 0.367135 0.550224
O O3 0.183167 0.334869 0.585506
O O4 0.326488 0.232335 0.606075
O O5 0.750000 0.407038 0.250000
O O6 0.885344 0.369134 0.310325
O O7 0.856917 0.535344 0.262870
O O8 0.899334 0.405015 0.201179
O O9 0.000000 0.076617 0.422298
O O10 0.906309 0.000000 0.500000
O O11 0.857860 0.986633 0.393502
O O12 0.500000 0.194238 0.396867
O O13 0.390647 0.181064 0.313498
O O14 0.370969 0.307868 0.386654
O O15 0.130420 0.803035 0.702656
O O16 0.000000 0.734020 0.644241
O O17 0.500000 0.612976 0.258416
O O18 0.000000 0.092797 0.611578
#
# Coordination Sequence:
#
# PCOD9478133 Si02
#       7
#    16  16  16  16  16  16  16
#     4  12  26  42  64  96 131 173 225 277 340 402
#     4  12  24  34  61  98 134 174 213 265 329 402
#     4  10  22  41  69  98 125 164 225 289 336 385
#     4  10  22  41  65  91 128 171 215 269 338 407
#     4  11  24  44  69  98 138 177 224 282 342 412
#     4  10  22  40  63  95 132 174 215 269 338 404
#     4  10  19  38  63  89 122 163 213 272 329 385
#
# _framework density 20.452224999999999
#
# number of rings (size 3 to 8) (size 9 to 14) (size 15 to 20)
#    0.000    1.286    1.429    4.286    4.000    4.571 
#    0.000    0.000    0.000    0.429    0.000    0.000 
#    0.000    0.000    0.000    0.000    0.000    0.000 
#
# Total GULP energy -312391.628915 kJ/mol
# GULP energy per Si atom -5578.421945 kJ/mol
# Density = 2.040567 g / cm^3
# Si number density = 20.452225 Si / 1000 Ang^3
#
#
#
# Elastic Constant Matrix: (Units=GPa)
#
#
# Indices 1 2 3 4 5 6 
#
# 1 111.9317 27.9320 38.2431 0.0000 0.0000 0.0000
# 2 27.9320 96.0219 20.6211 0.0000 0.0000 0.0000
# 3 38.2431 20.6211 91.8523 0.0000 0.0000 0.0000
# 4 0.0000 0.0000 0.0000 34.8416 0.0000 0.0000
# 5 0.0000 0.0000 0.0000 0.0000 28.9948 0.0000
# 6 0.0000 0.0000 0.0000 0.0000 0.0000 967.7750
#
#
#
# Elastic Compliance Matrix: (Units=1/GPa)
#
#
# Indices 1 2 3 4 5 6 
#
# 1 0.010880 -0.002303 -0.004013 0.000000 0.000000 0.000000
# 2 -0.002303 0.011429 -0.001607 0.000000 0.000000 0.000000
# 3 -0.004013 -0.001607 0.012919 0.000000 0.000000 0.000000
# 4 0.000000 0.000000 0.000000 0.028701 0.000000 0.000000
# 5 0.000000 0.000000 0.000000 0.000000 0.034489 0.000000
# 6 0.000000 0.000000 0.000000 0.000000 0.000000 0.001033
#
#
# Mechanical properties :
#
#
# Convention : Reuss Voigt Hill
#
# Bulk Modulus (GPa) = 51.59452 52.59982 52.09717
# Shear Modulus (GPa) = 41.06520 220.52294 130.79407
#
# Velocity S-wave (km/s) = 4.48578 10.39507 8.00561
# Velocity P-wave (km/s) = 7.21881 13.03269 10.53475
#
# Compressibility (1/GPa) = 0.01938190
#
# Stress axis : x y z
#
# Youngs Moduli (GPa) = 91.91375 87.49397 77.40798
#
# Poissons Ratio (x) = 0.20151 0.31062
# Poissons Ratio (y) = 0.21168 0.12440
# Poissons Ratio (z) = 0.36883 0.14061
#
# Static dielectric constant tensor:
#      x y z
#    x 1.741580 0.000000 0.000000 
#    y 0.000000 1.782870 0.000000 
#    z 0.000000 0.000000 1.748260 
# 
# From -- ./inp_files/45269.got.cif
#   From: 2010.05.17/outbox.cif.g08.bks.cpg/sg64_23_cif.got.tgz:45269.got - 2010.06.03 16:29:19.
