data_PCOD9478839
_publ_section_title
;
Structure prediction by ZEFSAII (Michael W. Deem and Ramdas Pophale) SiO2 
 PCOD9478839
Probable space group: C M C A
;
_chemical_formula_sum "Si O2"
_cell_formula_units_Z 128
_cell_length_a 23.878050
_cell_length_b 22.453252
_cell_length_c 11.932659
_cell_angle_alpha 90.000000
_cell_angle_beta 90.000000
_cell_angle_gamma 90.000000
_cell_volume 6397.574292
_symmetry_space_group_name_H-M "C M C A"
_symmetry_group_IT_number 64
_symmetry_cell_setting 'orthorhombic'
loop_
_space_group_symop_operation_xyz
x,y,z
-x,1/2-y,1/2+z
x,-y,-z
-x,1/2+y,1/2-z
-x,-y,-z
x,1/2+y,1/2-z
-x,y,z
x,1/2-y,1/2+z
1/2+x,1/2+y,z
1/2-x,-y,1/2+z
1/2+x,1/2-y,-z
1/2-x,y,1/2-z
1/2-x,1/2-y,-z
1/2+x,y,1/2-z
1/2-x,1/2+y,z
1/2+x,-y,1/2+z
loop_
_atom_site_type_symbol
_atom_site_label
_atom_site_fract_x
_atom_site_fract_y
_atom_site_fract_z
Si Si1 0.643883 0.293955 0.473364
Si Si2 0.935301 0.811382 0.678329
Si Si3 0.823918 0.551059 0.701139
Si Si4 0.380741 0.341588 0.918677
Si Si5 0.938559 0.582362 0.606624
Si Si6 0.558745 0.686436 0.720120
Si Si7 0.776975 0.104602 0.579790
Si Si8 0.724292 0.577295 0.139983
O O1 0.609703 0.320626 0.579489
O O2 0.640524 0.221840 0.469720
O O3 0.608812 0.310917 0.363962
O O4 0.701800 0.329247 0.453012
O O5 0.911532 0.832193 0.798936
O O6 0.937999 0.740011 0.692243
O O7 0.000000 0.832030 0.659111
O O8 0.884124 0.545195 0.641825
O O9 0.818290 0.571470 0.831189
O O10 0.784064 0.599588 0.638931
O O11 0.796316 0.487453 0.677758
O O12 0.327473 0.383440 0.900190
O O13 0.422510 0.376288 0.001515
O O14 0.942085 0.626304 0.712281
O O15 0.000000 0.554101 0.591806
O O16 0.500000 0.695033 0.656034
O O17 0.768376 0.072366 0.460871
O O18 0.750000 0.607277 0.250000
#
# Coordination Sequence:
#
# PCOD9478839 Si02
#       8
#    16  16  16  16  16  16  16  16
#     4  11  21  37  59  93 129 165 208 263 314 386
#     4  10  20  36  57  88 129 173 212 250 319 393
#     4  11  24  44  69  91 122 165 221 273 308 379
#     4  11  24  39  60  95 136 167 209 265 330 380
#     4  11  21  40  67  95 124 162 210 266 319 370
#     4   9  18  32  56  85 121 165 207 247 300 374
#     4  11  23  41  66  93 123 165 217 262 316 375
#     4  12  25  44  66  91 126 175 218 264 326 393
#
# _framework density 20.007581999999999
#
# number of rings (size 3 to 8) (size 9 to 14) (size 15 to 20)
#    0.000    1.250    5.000    1.875    0.000    1.500 
#    2.250    1.875    0.000    0.000    0.000    1.750 
#    0.000    0.000    0.000    0.000    0.000    0.000 
#
# Total GULP energy -356652.307706 kJ/mol
# GULP energy per Si atom -5572.692308 kJ/mol
# Density = 1.996204 g / cm^3
# Si number density = 20.007582 Si / 1000 Ang^3
#
#
#
# Elastic Constant Matrix: (Units=GPa)
#
#
# Indices 1 2 3 4 5 6 
#
# 1 113.8891 37.4387 30.9944 0.0000 0.0000 0.0000
# 2 37.4387 53.1283 24.5152 0.0000 0.0000 0.0000
# 3 30.9944 24.5152 97.6541 0.0000 0.0000 0.0000
# 4 0.0000 0.0000 0.0000 9.9116 0.0000 0.0000
# 5 0.0000 0.0000 0.0000 0.0000 9.2147 0.0000
# 6 0.0000 0.0000 0.0000 0.0000 0.0000 4.4069
#
#
#
# Elastic Compliance Matrix: (Units=1/GPa)
#
#
# Indices 1 2 3 4 5 6 
#
# 1 0.011720 -0.007399 -0.001862 0.000000 0.000000 0.000000
# 2 -0.007399 0.025960 -0.004169 0.000000 0.000000 0.000000
# 3 -0.001862 -0.004169 0.011878 0.000000 0.000000 0.000000
# 4 0.000000 0.000000 0.000000 0.100892 0.000000 0.000000
# 5 0.000000 0.000000 0.000000 0.000000 0.108522 0.000000
# 6 0.000000 0.000000 0.000000 0.000000 0.000000 0.226919
#
#
# Mechanical properties :
#
#
# Convention : Reuss Voigt Hill
#
# Bulk Modulus (GPa) = 44.05813 50.06314 47.06063
# Shear Modulus (GPa) = 9.60953 16.15483 12.88218
#
# Velocity S-wave (km/s) = 2.19394 2.84462 2.54020
# Velocity P-wave (km/s) = 5.33726 5.98879 5.67239
#
# Compressibility (1/GPa) = 0.02269729
#
# Stress axis : x y z
#
# Youngs Moduli (GPa) = 85.32677 38.52055 84.19112
#
# Poissons Ratio (x) = 0.28503 0.15678
# Poissons Ratio (y) = 0.63137 0.35096
# Poissons Ratio (z) = 0.15889 0.16058
#
# Static dielectric constant tensor:
#      x y z
#    x 1.567690 0.000000 0.000000 
#    y 0.000000 1.708010 0.000000 
#    z 0.000000 0.000000 1.732850 
# 
# From -- ./inp_files/18710.got.cif
#   From: 2010.05.17/outbox.cif.g08.bks.cpg/sg64_10_cif.got.tgz:18710.got - 2010.06.03 16:29:19.
