data_PCOD9478962
_publ_section_title
;
Structure prediction by ZEFSAII (Michael W. Deem and Ramdas Pophale) SiO2 
 PCOD9478962
Probable space group: C M C A
;
_chemical_formula_sum "Si O2"
_cell_formula_units_Z 80
_cell_length_a 12.249083
_cell_length_b 15.155054
_cell_length_c 21.047281
_cell_angle_alpha 90.000000
_cell_angle_beta 90.000000
_cell_angle_gamma 90.000000
_cell_volume 3907.122833
_symmetry_space_group_name_H-M "C M C A"
_symmetry_group_IT_number 64
_symmetry_cell_setting 'orthorhombic'
loop_
_space_group_symop_operation_xyz
x,y,z
-x,1/2-y,1/2+z
x,-y,-z
-x,1/2+y,1/2-z
-x,-y,-z
x,1/2+y,1/2-z
-x,y,z
x,1/2-y,1/2+z
1/2+x,1/2+y,z
1/2-x,-y,1/2+z
1/2+x,1/2-y,-z
1/2-x,y,1/2-z
1/2-x,1/2-y,-z
1/2+x,y,1/2-z
1/2-x,1/2+y,z
1/2+x,-y,1/2+z
loop_
_atom_site_type_symbol
_atom_site_label
_atom_site_fract_x
_atom_site_fract_y
_atom_site_fract_z
Si Si1 0.125287 0.904995 0.520436
Si Si2 0.215437 0.981446 0.177583
Si Si3 0.500000 0.123471 0.466273
Si Si4 0.706780 0.667604 0.116302
Si Si5 0.125764 0.151061 0.620548
Si Si6 0.000000 0.566522 0.603787
O O1 0.186721 0.853695 0.575381
O O2 0.127585 0.849937 0.455781
O O3 0.000000 0.922190 0.539143
O O4 0.176419 0.000000 0.500000
O O5 0.250000 0.966740 0.250000
O O6 0.317261 0.939813 0.140110
O O7 0.107309 0.934385 0.148299
O O8 0.197466 0.085438 0.164347
O O9 0.392559 0.162438 0.434030
O O10 0.500000 0.132107 0.542839
O O11 0.500000 0.024636 0.436577
O O12 0.694383 0.764903 0.144949
O O13 0.000000 0.155736 0.641705
#
# Coordination Sequence:
#
# PCOD9478962 Si02
#       6
#    16  16   8  16  16   8
#     4  10  20  36  61  96 132 165 203 259 330 397
#     4  11  25  42  66  89 126 176 222 265 312 379
#     4   9  18  34  65  94 124 157 203 273 324 381
#     4  11  21  40  65  97 126 169 212 265 327 390
#     4  11  23  41  65  96 130 168 208 262 331 389
#     4   9  20  38  61  94 123 161 216 262 320 375
#
# _framework density 20.475425000000001
#
# number of rings (size 3 to 8) (size 9 to 14) (size 15 to 20)
#    0.000    1.600    3.000    1.800    4.200    0.800 
#    1.800    0.000    0.000    0.000    0.000    0.000 
#    0.000    0.000    0.000    0.000    0.000    0.000 
#
# Total GULP energy -223080.633198 kJ/mol
# GULP energy per Si atom -5577.015830 kJ/mol
# Density = 2.042882 g / cm^3
# Si number density = 20.475425 Si / 1000 Ang^3
#
#
#
# Elastic Constant Matrix: (Units=GPa)
#
#
# Indices 1 2 3 4 5 6 
#
# 1 81.7942 13.8121 29.5397 0.0000 0.0000 0.0000
# 2 13.8121 78.8284 -13.8629 0.0000 0.0000 0.0000
# 3 29.5397 -13.8629 93.4216 0.0000 0.0000 0.0000
# 4 0.0000 0.0000 0.0000 10.8490 0.0000 0.0000
# 5 0.0000 0.0000 0.0000 0.0000 21.4278 0.0000
# 6 0.0000 0.0000 0.0000 0.0000 0.0000 54.9451
#
#
#
# Elastic Compliance Matrix: (Units=1/GPa)
#
#
# Indices 1 2 3 4 5 6 
#
# 1 0.014675 -0.003478 -0.005156 0.000000 0.000000 0.000000
# 2 -0.003478 0.013850 0.003155 0.000000 0.000000 0.000000
# 3 -0.005156 0.003155 0.012803 0.000000 0.000000 0.000000
# 4 0.000000 0.000000 0.000000 0.092174 0.000000 0.000000
# 5 0.000000 0.000000 0.000000 0.000000 0.046668 0.000000
# 6 0.000000 0.000000 0.000000 0.000000 0.000000 0.018200
#
#
# Mechanical properties :
#
#
# Convention : Reuss Voigt Hill
#
# Bulk Modulus (GPa) = 32.92834 34.78022 33.85428
# Shear Modulus (GPa) = 22.78391 32.41473 27.59932
#
# Velocity S-wave (km/s) = 3.33940 3.98314 3.67539
# Velocity P-wave (km/s) = 5.56647 6.17876 5.88059
#
# Compressibility (1/GPa) = 0.03036898
#
# Stress axis : x y z
#
# Youngs Moduli (GPa) = 68.14131 72.20175 78.10793
#
# Poissons Ratio (x) = 0.25113 0.40276
# Poissons Ratio (y) = 0.23701 -0.24643
# Poissons Ratio (z) = 0.35137 -0.22780
#
# Static dielectric constant tensor:
#      x y z
#    x 1.744050 0.000000 0.000000 
#    y 0.000000 1.813290 0.000000 
#    z 0.000000 0.000000 1.748280 
# 
# From -- ./inp_files/38028.got.cif
#   From: 2010.05.17/outbox.cif.g08.bks.cpg/sg64_20_cif.got.tgz:38028.got - 2010.06.03 16:29:19.
