data_PCOD9478094
_publ_section_title
;
Structure prediction by ZEFSAII (Michael W. Deem and Ramdas Pophale) SiO2 
 PCOD9478094
Probable space group: C M C A
;
_chemical_formula_sum "Si O2"
_cell_formula_units_Z 112
_cell_length_a 24.367367
_cell_length_b 13.719446
_cell_length_c 16.229197
_cell_angle_alpha 90.000000
_cell_angle_beta 90.000000
_cell_angle_gamma 90.000000
_cell_volume 5425.530522
_symmetry_space_group_name_H-M "C M C A"
_symmetry_group_IT_number 64
_symmetry_cell_setting 'orthorhombic'
loop_
_space_group_symop_operation_xyz
x,y,z
-x,1/2-y,1/2+z
x,-y,-z
-x,1/2+y,1/2-z
-x,-y,-z
x,1/2+y,1/2-z
-x,y,z
x,1/2-y,1/2+z
1/2+x,1/2+y,z
1/2-x,-y,1/2+z
1/2+x,1/2-y,-z
1/2-x,y,1/2-z
1/2-x,1/2-y,-z
1/2+x,y,1/2-z
1/2-x,1/2+y,z
1/2+x,-y,1/2+z
loop_
_atom_site_type_symbol
_atom_site_label
_atom_site_fract_x
_atom_site_fract_y
_atom_site_fract_z
Si Si1 0.151257 0.770368 0.138411
Si Si2 0.058621 0.215596 0.629004
Si Si3 0.829520 0.262169 0.545589
Si Si4 0.803027 0.555023 0.926478
Si Si5 0.119389 0.568343 0.770175
Si Si6 0.248209 0.117557 0.155247
Si Si7 0.063353 0.864158 0.722432
O O1 0.143594 0.863817 0.197774
O O2 0.202842 0.698282 0.154741
O O3 0.098180 0.701577 0.157500
O O4 0.161354 0.804335 0.044959
O O5 0.110464 0.224327 0.570641
O O6 0.068229 0.124124 0.688602
O O7 0.060316 0.304600 0.692624
O O8 0.000000 0.211276 0.586286
O O9 0.791656 0.164296 0.542824
O O10 0.804826 0.328645 0.617773
O O11 0.835731 0.564406 0.842061
O O12 0.757113 0.476254 0.903081
O O13 0.835395 0.500000 0.000000
O O14 0.098107 0.460228 0.755679
O O15 0.250000 0.084176 0.250000
O O16 0.000000 0.882482 0.695994
#
# Coordination Sequence:
#
# PCOD9478094 Si02
#       7
#    16  16  16  16  16  16  16
#     4  11  23  42  63  93 134 171 217 270 337 396
#     4   9  20  38  62  89 123 166 212 268 324 382
#     4  11  24  43  63  95 135 170 218 278 332 403
#     4  11  22  40  65  89 126 164 211 269 326 377
#     4  10  20  37  65  94 124 168 216 265 328 390
#     4  12  24  42  64  92 129 172 222 272 334 404
#     4  10  19  37  63  93 128 168 221 272 319 389
#
# _framework density 20.643142000000001
#
# number of rings (size 3 to 8) (size 9 to 14) (size 15 to 20)
#    0.000    1.429    2.857    3.429    0.000    2.857 
#    0.000    0.714    0.000    6.429    0.000    0.000 
#    0.000    0.000    0.000    0.000    0.000    0.000 
#
# Total GULP energy -312272.863480 kJ/mol
# GULP energy per Si atom -5576.301134 kJ/mol
# Density = 2.059616 g / cm^3
# Si number density = 20.643142 Si / 1000 Ang^3
#
#
#
# Elastic Constant Matrix: (Units=GPa)
#
#
# Indices 1 2 3 4 5 6 
#
# 1 71.6855 9.9170 23.3371 0.0000 0.0000 0.0000
# 2 9.9170 100.1149 32.8530 0.0000 0.0000 0.0000
# 3 23.3371 32.8530 107.1735 0.0000 0.0000 0.0000
# 4 0.0000 0.0000 0.0000 26.6307 0.0000 0.0000
# 5 0.0000 0.0000 0.0000 0.0000 13.5931 0.0000
# 6 0.0000 0.0000 0.0000 0.0000 0.0000 -0.6432
#
#
#
# Elastic Compliance Matrix: (Units=1/GPa)
#
#
# Indices 1 2 3 4 5 6 
#
# 1 0.015033 -0.000461 -0.003132 0.000000 0.000000 0.000000
# 2 -0.000461 0.011120 -0.003308 0.000000 0.000000 0.000000
# 3 -0.003132 -0.003308 0.011027 0.000000 0.000000 0.000000
# 4 0.000000 0.000000 0.000000 0.037551 0.000000 0.000000
# 5 0.000000 0.000000 0.000000 0.000000 0.073567 0.000000
# 6 0.000000 0.000000 0.000000 0.000000 0.000000 -1.554778
#
#
# Mechanical properties :
#
#
# Convention : Reuss Voigt Hill
#
# Bulk Modulus (GPa) = 42.77782 45.68758 44.23270
# Shear Modulus (GPa) = -3.61041 22.10726 9.24843
#
# Velocity S-wave (km/s) = -1.32392 3.27605 2.11893
# Velocity P-wave (km/s) = 4.29308 6.04071 5.24026
#
# Compressibility (1/GPa) = 0.02337660
#
# Stress axis : x y z
#
# Youngs Moduli (GPa) = 66.51908 89.92947 90.68829
#
# Poissons Ratio (x) = 0.04149 0.28404
# Poissons Ratio (y) = 0.03069 0.30002
# Poissons Ratio (z) = 0.20834 0.29751
#
# Static dielectric constant tensor:
#      x y z
#    x 1.782490 0.000000 0.000000 
#    y 0.000000 1.784990 0.000000 
#    z 0.000000 0.000000 1.742150 
# 
# From -- ./inp_files/28063.got.cif
#   From: 2010.05.17/outbox.cif.g08.bks.cpg/sg64_15_cif.got.tgz:28063.got - 2010.06.03 16:29:19.
