data_PCOD9478970
_publ_section_title
;
Structure prediction by ZEFSAII (Michael W. Deem and Ramdas Pophale) SiO2 
 PCOD9478970
Probable space group: C M C A
;
_chemical_formula_sum "Si O2"
_cell_formula_units_Z 88
_cell_length_a 14.306207
_cell_length_b 10.422048
_cell_length_c 25.088753
_cell_angle_alpha 90.000000
_cell_angle_beta 90.000000
_cell_angle_gamma 90.000000
_cell_volume 3740.732471
_symmetry_space_group_name_H-M "C M C A"
_symmetry_group_IT_number 64
_symmetry_cell_setting 'orthorhombic'
loop_
_space_group_symop_operation_xyz
x,y,z
-x,1/2-y,1/2+z
x,-y,-z
-x,1/2+y,1/2-z
-x,-y,-z
x,1/2+y,1/2-z
-x,y,z
x,1/2-y,1/2+z
1/2+x,1/2+y,z
1/2-x,-y,1/2+z
1/2+x,1/2-y,-z
1/2-x,y,1/2-z
1/2-x,1/2-y,-z
1/2+x,y,1/2-z
1/2-x,1/2+y,z
1/2+x,-y,1/2+z
loop_
_atom_site_type_symbol
_atom_site_label
_atom_site_fract_x
_atom_site_fract_y
_atom_site_fract_z
Si Si1 0.366629 0.406780 0.374898
Si Si2 0.000000 0.716617 0.949344
Si Si3 0.165439 0.352364 0.493105
Si Si4 0.863735 0.147979 0.185553
Si Si5 0.137058 0.348369 0.807544
Si Si6 0.358841 0.394428 0.124818
O O1 0.418819 0.387660 0.429997
O O2 0.394210 0.281117 0.340573
O O3 0.393945 0.534594 0.344091
O O4 0.254603 0.403223 0.378264
O O5 0.083653 0.817097 0.966110
O O6 0.197985 0.500000 0.500000
O O7 0.250000 0.250000 0.500000
O O8 0.118563 0.348223 0.434395
O O9 0.893701 0.135395 0.246721
O O10 0.750617 0.148782 0.189615
O O11 0.891225 0.030839 0.147455
O O12 0.111682 0.212511 0.832729
#
# Coordination Sequence:
#
# PCOD9478970 Si02
#       6
#    16   8  16  16  16  16
#     4  10  20  36  62  89 131 175 220 274 337 402
#     4  12  25  46  67  98 133 182 229 282 345 402
#     4  12  27  46  72  99 134 182 237 288 346 408
#     4   9  17  33  61  95 129 171 218 272 331 408
#     4   9  18  33  60  97 130 167 221 273 334 401
#     4  10  20  37  64  94 133 172 222 280 337 402
#
# _framework density 23.524802999999999
#
# number of rings (size 3 to 8) (size 9 to 14) (size 15 to 20)
#    0.000    1.818    1.818    2.455    5.091    4.364 
#    0.000    5.000    0.000    2.182    0.000    0.000 
#    0.000    0.000    0.000    0.000    0.000    0.000 
#
# Total GULP energy -245043.688565 kJ/mol
# GULP energy per Si atom -5569.174740 kJ/mol
# Density = 2.347126 g / cm^3
# Si number density = 23.524803 Si / 1000 Ang^3
#
#
#
# Elastic Constant Matrix: (Units=GPa)
#
#
# Indices 1 2 3 4 5 6 
#
# 1 147.4172 33.4282 -4.4104 0.0000 0.0000 0.0000
# 2 33.4282 108.2084 7.8528 0.0000 0.0000 0.0000
# 3 -4.4104 7.8528 73.9739 0.0000 0.0000 0.0000
# 4 0.0000 0.0000 0.0000 33.8481 0.0000 0.0000
# 5 0.0000 0.0000 0.0000 0.0000 -32.4767 0.0000
# 6 0.0000 0.0000 0.0000 0.0000 0.0000 -15.7130
#
#
#
# Elastic Compliance Matrix: (Units=1/GPa)
#
#
# Indices 1 2 3 4 5 6 
#
# 1 0.007328 -0.002313 0.000683 0.000000 0.000000 0.000000
# 2 -0.002313 0.010044 -0.001204 0.000000 0.000000 0.000000
# 3 0.000683 -0.001204 0.013687 0.000000 0.000000 0.000000
# 4 0.000000 0.000000 0.000000 0.029544 0.000000 0.000000
# 5 0.000000 0.000000 0.000000 0.000000 -0.030791 0.000000
# 6 0.000000 0.000000 0.000000 0.000000 0.000000 -0.063642
#
#
# Mechanical properties :
#
#
# Convention : Reuss Voigt Hill
#
# Bulk Modulus (GPa) = 39.38766 44.81562 42.10164
# Shear Modulus (GPa) = -253.83959 16.64695 -118.59632
#
# Velocity S-wave (km/s) = -10.39890 2.66302 -7.10794
# Velocity P-wave (km/s) = 11.28732 5.34297 7.03051
#
# Compressibility (1/GPa) = 0.02538866
#
# Stress axis : x y z
#
# Youngs Moduli (GPa) = 136.45377 99.56686 73.06307
#
# Poissons Ratio (x) = 0.23035 -0.04987
# Poissons Ratio (y) = 0.31568 0.08798
# Poissons Ratio (z) = -0.09313 0.11989
#
# Static dielectric constant tensor:
#      x y z
#    x 1.956190 0.000000 0.000000 
#    y 0.000000 1.822750 0.000000 
#    z 0.000000 0.000000 1.930530 
# 
# From -- ./inp_files/45044.got.cif
#   From: 2010.05.17/outbox.cif.g08.bks.cpg/sg64_23_cif.got.tgz:45044.got - 2010.06.03 16:29:19.
