data_PCOD9478637
_publ_section_title
;
Structure prediction by ZEFSAII (Michael W. Deem and Ramdas Pophale) SiO2 
 PCOD9478637
Probable space group: C M C A
;
_chemical_formula_sum "Si O2"
_cell_formula_units_Z 80
_cell_length_a 12.496178
_cell_length_b 12.519344
_cell_length_c 22.323928
_cell_angle_alpha 90.000000
_cell_angle_beta 90.000000
_cell_angle_gamma 90.000000
_cell_volume 3492.443500
_symmetry_space_group_name_H-M "C M C A"
_symmetry_group_IT_number 64
_symmetry_cell_setting 'orthorhombic'
loop_
_space_group_symop_operation_xyz
x,y,z
-x,1/2-y,1/2+z
x,-y,-z
-x,1/2+y,1/2-z
-x,-y,-z
x,1/2+y,1/2-z
-x,y,z
x,1/2-y,1/2+z
1/2+x,1/2+y,z
1/2-x,-y,1/2+z
1/2+x,1/2-y,-z
1/2-x,y,1/2-z
1/2-x,1/2-y,-z
1/2+x,y,1/2-z
1/2-x,1/2+y,z
1/2+x,-y,1/2+z
loop_
_atom_site_type_symbol
_atom_site_label
_atom_site_fract_x
_atom_site_fract_y
_atom_site_fract_z
Si Si1 0.388910 0.230375 0.948275
Si Si2 0.157662 0.184252 0.921773
Si Si3 0.125027 0.026388 0.756685
Si Si4 0.344872 0.545118 0.108330
Si Si5 0.383423 0.389108 0.638384
O O1 0.500000 0.173873 0.935785
O O2 0.285414 0.174618 0.922543
O O3 0.390289 0.347327 0.918705
O O4 0.375105 0.251844 0.018866
O O5 0.126169 0.260104 0.866632
O O6 0.118356 0.063991 0.922327
O O7 0.250000 0.077663 0.750000
O O8 0.000000 0.076039 0.751800
O O9 0.128918 0.973449 0.822090
O O10 0.124901 0.937098 0.704739
O O11 0.217157 0.563978 0.103022
O O12 0.500000 0.417690 0.614191
#
# Coordination Sequence:
#
# PCOD9478637 Si02
#       5
#    16  16  16  16  16
#     4  10  21  36  54  81 115 145 182 233 281 334
#     4  10  21  36  56  82 110 147 189 227 280 343
#     4   9  18  34  54  77 109 147 185 231 285 337
#     4  10  20  35  56  82 111 144 187 237 286 336
#     4   9  19  36  55  77 109 146 185 230 280 339
#
# _framework density 22.906597999999999
#
# number of rings (size 3 to 8) (size 9 to 14) (size 15 to 20)
#    0.000    2.400    0.000    1.800    0.000    4.800 
#    0.000   15.000    0.000   14.400    0.000    0.000 
#    0.000    0.000    0.000    0.000    0.000    0.000 
#
# Total GULP energy -222770.206539 kJ/mol
# GULP energy per Si atom -5569.255163 kJ/mol
# Density = 2.285446 g / cm^3
# Si number density = 22.906598 Si / 1000 Ang^3
#
#
#
# Elastic Constant Matrix: (Units=GPa)
#
#
# Indices 1 2 3 4 5 6 
#
# 1 238.0227 3.4359 8.2463 0.0000 0.0000 0.0000
# 2 3.4359 48.9760 6.2218 0.0000 0.0000 0.0000
# 3 8.2463 6.2218 14.3045 0.0000 0.0000 0.0000
# 4 0.0000 0.0000 0.0000 1.5447 0.0000 0.0000
# 5 0.0000 0.0000 0.0000 0.0000 1.8764 0.0000
# 6 0.0000 0.0000 0.0000 0.0000 0.0000 -76.8885
#
#
#
# Elastic Compliance Matrix: (Units=1/GPa)
#
#
# Indices 1 2 3 4 5 6 
#
# 1 0.004287 0.000014 -0.002477 0.000000 0.000000 0.000000
# 2 0.000014 0.021612 -0.009408 0.000000 0.000000 0.000000
# 3 -0.002477 -0.009408 0.075428 0.000000 0.000000 0.000000
# 4 0.000000 0.000000 0.000000 0.647375 0.000000 0.000000
# 5 0.000000 0.000000 0.000000 0.000000 0.532930 0.000000
# 6 0.000000 0.000000 0.000000 0.000000 0.000000 -0.013006
#
#
# Mechanical properties :
#
#
# Convention : Reuss Voigt Hill
#
# Bulk Modulus (GPa) = 12.88928 37.45680 25.17304
# Shear Modulus (GPa) = 3.79296 4.19980 3.99638
#
# Velocity S-wave (km/s) = 1.28819 1.35552 1.32228
# Velocity P-wave (km/s) = 2.80208 4.34020 3.65302
#
# Compressibility (1/GPa) = 0.07758383
#
# Stress axis : x y z
#
# Youngs Moduli (GPa) = 233.26838 46.26966 13.25763
#
# Poissons Ratio (x) = -0.00065 0.03284
# Poissons Ratio (y) = -0.00326 0.12473
# Poissons Ratio (z) = 0.57790 0.43533
#
# Static dielectric constant tensor:
#      x y z
#    x 2.016410 0.000000 0.000000 
#    y 0.000000 1.811960 0.000000 
#    z 0.000000 0.000000 1.825330 
# 
# From -- ./inp_files/43922.got.cif
#   From: 2010.05.17/outbox.cif.g08.bks.cpg/sg64_22_cif.got.tgz:43922.got - 2010.06.03 16:29:19.
