data_PCOD9478675
_publ_section_title
;
Structure prediction by ZEFSAII (Michael W. Deem and Ramdas Pophale) SiO2 
 PCOD9478675
Probable space group: C M C A
;
_chemical_formula_sum "Si O2"
_cell_formula_units_Z 88
_cell_length_a 13.018182
_cell_length_b 32.113496
_cell_length_c 11.829300
_cell_angle_alpha 90.000000
_cell_angle_beta 90.000000
_cell_angle_gamma 90.000000
_cell_volume 4945.349298
_symmetry_space_group_name_H-M "C M C A"
_symmetry_group_IT_number 64
_symmetry_cell_setting 'orthorhombic'
loop_
_space_group_symop_operation_xyz
x,y,z
-x,1/2-y,1/2+z
x,-y,-z
-x,1/2+y,1/2-z
-x,-y,-z
x,1/2+y,1/2-z
-x,y,z
x,1/2-y,1/2+z
1/2+x,1/2+y,z
1/2-x,-y,1/2+z
1/2+x,1/2-y,-z
1/2-x,y,1/2-z
1/2-x,1/2-y,-z
1/2+x,y,1/2-z
1/2-x,1/2+y,z
1/2+x,-y,1/2+z
loop_
_atom_site_type_symbol
_atom_site_label
_atom_site_fract_x
_atom_site_fract_y
_atom_site_fract_z
Si Si1 0.618012 0.131263 0.066901
Si Si2 0.878823 0.453404 0.543725
Si Si3 0.785628 0.786527 0.628962
Si Si4 0.877220 0.202384 0.932903
Si Si5 0.219956 0.886467 0.121552
Si Si6 0.250000 0.581944 0.250000
O O1 0.500000 0.119740 0.063976
O O2 0.633607 0.180825 0.078725
O O3 0.674251 0.109746 0.173114
O O4 0.677623 0.118290 0.953865
O O5 0.859049 0.500000 0.500000
O O6 0.845559 0.421050 0.445558
O O7 0.815410 0.443756 0.657812
O O8 0.000000 0.448597 0.566035
O O9 0.750000 0.801379 0.750000
O O10 0.836568 0.741239 0.640448
O O11 0.685401 0.788833 0.548899
O O12 0.839474 0.157861 0.885980
O O13 0.000000 0.202824 0.945732
O O14 0.250000 0.896420 0.250000
#
# Coordination Sequence:
#
# PCOD9478675 Si02
#       6
#    16  16  16  16  16   8
#     4  10  20  35  57  85 114 152 191 230 283 332
#     4  10  22  39  63  89 113 149 190 232 291 350
#     4  10  20  36  52  80 113 147 192 239 279 328
#     4  10  21  35  54  80 112 151 192 234 284 336
#     4  10  22  39  58  83 117 151 188 239 282 342
#     4  10  20  38  60  86 120 146 182 246 280 336
#
# _framework density 17.794495999999999
#
# number of rings (size 3 to 8) (size 9 to 14) (size 15 to 20)
#    0.000    2.000    0.909    2.182    1.273    2.909 
#    0.000    0.000    0.000    2.727    0.000    0.000 
#    0.000    0.000    0.000    0.000    0.000    0.000 
#
# Total GULP energy -245427.351668 kJ/mol
# GULP energy per Si atom -5577.894356 kJ/mol
# Density = 1.775400 g / cm^3
# Si number density = 17.794496 Si / 1000 Ang^3
#
#
#
# Elastic Constant Matrix: (Units=GPa)
#
#
# Indices 1 2 3 4 5 6 
#
# 1 146.6133 56.5041 52.8997 0.0000 0.0000 0.0000
# 2 56.5041 122.3887 46.8713 0.0000 0.0000 0.0000
# 3 52.8997 46.8713 114.9914 0.0000 0.0000 0.0000
# 4 0.0000 0.0000 0.0000 21.9569 0.0000 0.0000
# 5 0.0000 0.0000 0.0000 0.0000 10.6288 0.0000
# 6 0.0000 0.0000 0.0000 0.0000 0.0000 13.4508
#
#
#
# Elastic Compliance Matrix: (Units=1/GPa)
#
#
# Indices 1 2 3 4 5 6 
#
# 1 0.009053 -0.003063 -0.002916 0.000000 0.000000 0.000000
# 2 -0.003063 0.010718 -0.002960 0.000000 0.000000 0.000000
# 3 -0.002916 -0.002960 0.011244 0.000000 0.000000 0.000000
# 4 0.000000 0.000000 0.000000 0.045544 0.000000 0.000000
# 5 0.000000 0.000000 0.000000 0.000000 0.094084 0.000000
# 6 0.000000 0.000000 0.000000 0.000000 0.000000 0.074345
#
#
# Mechanical properties :
#
#
# Convention : Reuss Voigt Hill
#
# Bulk Modulus (GPa) = 76.11589 77.39374 76.75482
# Shear Modulus (GPa) = 18.70938 24.38853 21.54896
#
# Velocity S-wave (km/s) = 3.24607 3.70613 3.48370
# Velocity P-wave (km/s) = 7.54434 7.86774 7.70774
#
# Compressibility (1/GPa) = 0.01313786
#
# Stress axis : x y z
#
# Youngs Moduli (GPa) = 110.45667 93.29871 88.93329
#
# Poissons Ratio (x) = 0.28576 0.25936
# Poissons Ratio (y) = 0.33831 0.26323
# Poissons Ratio (z) = 0.32213 0.27615
#
# Static dielectric constant tensor:
#      x y z
#    x 1.577080 0.000000 0.000000 
#    y 0.000000 1.616430 0.000000 
#    z 0.000000 0.000000 1.591520 
# 
# From -- ./inp_files/13305.got.cif
#   From: 2010.05.17/outbox.cif.g08.bks.cpg/sg64_7_cif.got.tgz:13305.got - 2010.06.03 16:29:19.
