data_PCOD9478615
_publ_section_title
;
Structure prediction by ZEFSAII (Michael W. Deem and Ramdas Pophale) SiO2 
 PCOD9478615
Probable space group: C M C A
;
_chemical_formula_sum "Si O2"
_cell_formula_units_Z 116
_cell_length_a 7.739845
_cell_length_b 25.173647
_cell_length_c 27.252092
_cell_angle_alpha 90.000000
_cell_angle_beta 90.000000
_cell_angle_gamma 90.000000
_cell_volume 5309.801035
_symmetry_space_group_name_H-M "C M C A"
_symmetry_group_IT_number 64
_symmetry_cell_setting 'orthorhombic'
loop_
_space_group_symop_operation_xyz
x,y,z
-x,1/2-y,1/2+z
x,-y,-z
-x,1/2+y,1/2-z
-x,-y,-z
x,1/2+y,1/2-z
-x,y,z
x,1/2-y,1/2+z
1/2+x,1/2+y,z
1/2-x,-y,1/2+z
1/2+x,1/2-y,-z
1/2-x,y,1/2-z
1/2-x,1/2-y,-z
1/2+x,y,1/2-z
1/2-x,1/2+y,z
1/2+x,-y,1/2+z
loop_
_atom_site_type_symbol
_atom_site_label
_atom_site_fract_x
_atom_site_fract_y
_atom_site_fract_z
Si Si1 0.287460 0.921213 0.987100
Si Si2 0.206791 0.801190 0.532309
Si Si3 0.202225 0.455944 0.304215
Si Si4 0.500000 0.000000 0.500000
Si Si5 0.291132 0.663012 0.805606
Si Si6 0.701910 0.739688 0.364581
Si Si7 0.298675 0.952866 0.877814
Si Si8 0.704237 0.141687 0.305291
O O1 0.500000 0.928070 0.994081
O O2 0.242215 0.858482 0.989370
O O3 0.230943 0.938990 0.931668
O O4 0.156818 0.957658 0.017807
O O5 0.250000 0.750000 0.500000
O O6 0.277111 0.788094 0.586817
O O7 0.000000 0.806290 0.536313
O O8 0.250000 0.477273 0.250000
O O9 0.279158 0.396982 0.311121
O O10 0.236493 0.496072 0.348159
O O11 0.000000 0.448175 0.301849
O O12 0.500000 0.662720 0.809936
O O13 0.250000 0.680227 0.750000
O O14 0.222772 0.704931 0.845349
O O15 0.500000 0.749200 0.375422
O O16 0.714691 0.697517 0.320796
O O17 0.500000 0.960088 0.885247
O O18 0.267857 0.902829 0.842722
O O19 0.500000 0.146193 0.309884
O O20 0.750000 0.126999 0.250000
#
# Coordination Sequence:
#
# PCOD9478615 Si02
#       8
#    16  16  16   4  16  16  16  16
#     4  10  24  46  69 102 137 173 221 286 353 414
#     4  10  22  42  68  95 132 171 217 282 348 419
#     4  10  20  35  55  84 122 167 217 260 308 374
#     4  12  26  44  80  98 132 180 222 278 340 434
#     4   9  19  35  56  82 120 163 207 255 307 372
#     4  10  20  39  61  88 123 163 204 259 325 377
#     4  11  22  40  63  87 126 165 204 263 327 385
#     4  12  24  36  58  91 127 166 214 259 313 394
#
# _framework density 21.846392000000002
#
# number of rings (size 3 to 8) (size 9 to 14) (size 15 to 20)
#    0.000    1.655    1.379    3.103    2.897    2.759 
#    2.483    0.000    0.000    0.000    0.000    0.000 
#    0.000    0.000    0.000    0.000    0.000    0.000 
#
# Total GULP energy -323214.877957 kJ/mol
# GULP energy per Si atom -5572.670310 kJ/mol
# Density = 2.179667 g / cm^3
# Si number density = 21.846392 Si / 1000 Ang^3
#
#
#
# Elastic Constant Matrix: (Units=GPa)
#
#
# Indices 1 2 3 4 5 6 
#
# 1 53.3680 12.9125 -7.2836 0.0000 0.0000 0.0000
# 2 12.9125 130.2252 16.9941 0.0000 0.0000 0.0000
# 3 -7.2836 16.9941 32.3263 0.0000 0.0000 0.0000
# 4 0.0000 0.0000 0.0000 -134.9017 0.0000 0.0000
# 5 0.0000 0.0000 0.0000 0.0000 7.1813 0.0000
# 6 0.0000 0.0000 0.0000 0.0000 0.0000 104.2982
#
#
#
# Elastic Compliance Matrix: (Units=1/GPa)
#
#
# Indices 1 2 3 4 5 6 
#
# 1 0.020236 -0.002793 0.006028 0.000000 0.000000 0.000000
# 2 -0.002793 0.008630 -0.005166 0.000000 0.000000 0.000000
# 3 0.006028 -0.005166 0.035009 0.000000 0.000000 0.000000
# 4 0.000000 0.000000 0.000000 -0.007413 0.000000 0.000000
# 5 0.000000 0.000000 0.000000 0.000000 0.139250 0.000000
# 6 0.000000 0.000000 0.000000 0.000000 0.000000 0.009588
#
#
# Mechanical properties :
#
#
# Convention : Reuss Voigt Hill
#
# Bulk Modulus (GPa) = 16.66329 29.01839 22.84084
# Shear Modulus (GPa) = 21.81810 8.20200 15.01005
#
# Velocity S-wave (km/s) = 3.16366 1.93973 2.62405
# Velocity P-wave (km/s) = 4.58138 4.28118 4.43382
#
# Compressibility (1/GPa) = 0.06001217
#
# Stress axis : x y z
#
# Youngs Moduli (GPa) = 49.41611 115.87283 28.56434
#
# Poissons Ratio (x) = 0.32365 -0.17218
# Poissons Ratio (y) = 0.13803 0.14757
# Poissons Ratio (z) = -0.29788 0.59863
#
# Static dielectric constant tensor:
#      x y z
#    x 1.824370 0.000000 0.000000 
#    y 0.000000 1.577280 0.000000 
#    z 0.000000 0.000000 1.808440 
# 
# From -- ./inp_files/48592.got.cif
#   From: 2010.05.17/outbox.cif.g08.bks.cpg/sg64_25_cif.got.tgz:48592.got - 2010.06.03 16:29:19.
