data_PCOD9478991
_publ_section_title
;
Structure prediction by ZEFSAII (Michael W. Deem and Ramdas Pophale) SiO2 
 PCOD9478991
Probable space group: C M C A
;
_chemical_formula_sum "Si O2"
_cell_formula_units_Z 56
_cell_length_a 11.101148
_cell_length_b 14.456192
_cell_length_c 14.801255
_cell_angle_alpha 90.000000
_cell_angle_beta 90.000000
_cell_angle_gamma 90.000000
_cell_volume 2375.310241
_symmetry_space_group_name_H-M "C M C A"
_symmetry_group_IT_number 64
_symmetry_cell_setting 'orthorhombic'
loop_
_space_group_symop_operation_xyz
x,y,z
-x,1/2-y,1/2+z
x,-y,-z
-x,1/2+y,1/2-z
-x,-y,-z
x,1/2+y,1/2-z
-x,y,z
x,1/2-y,1/2+z
1/2+x,1/2+y,z
1/2-x,-y,1/2+z
1/2+x,1/2-y,-z
1/2-x,y,1/2-z
1/2-x,1/2-y,-z
1/2+x,y,1/2-z
1/2-x,1/2+y,z
1/2+x,-y,1/2+z
loop_
_atom_site_type_symbol
_atom_site_label
_atom_site_fract_x
_atom_site_fract_y
_atom_site_fract_z
Si Si1 0.126078 0.259364 0.739515
Si Si2 0.745668 0.000000 0.500000
Si Si3 0.363807 0.463367 0.688508
Si Si4 0.132066 0.305928 0.528690
O O1 0.250000 0.204973 0.750000
O O2 0.133111 0.351011 0.801658
O O3 0.123941 0.295920 0.636898
O O4 0.000000 0.210339 0.757611
O O5 0.829907 0.994219 0.588042
O O6 0.661177 0.089682 0.498759
O O7 0.500000 0.493256 0.713541
O O8 0.250000 0.491469 0.750000
O O9 0.250000 0.250000 0.500000
O O10 0.000000 0.275800 0.493077
#
# Coordination Sequence:
#
# PCOD9478991 Si02
#       4
#    16   8  16  16
#     4   9  17  36  62  90 128 178 220 270 342 405
#     4  12  22  42  74 106 138 186 236 290 354 420
#     4  10  20  36  64 100 136 181 231 282 347 414
#     4  11  25  43  68 102 139 182 235 291 351 419
#
# _framework density 23.575869999999998
#
# number of rings (size 3 to 8) (size 9 to 14) (size 15 to 20)
#    0.000    1.714    5.714    0.857    0.000    4.571 
#    0.000    1.429    0.000    0.000    0.000    0.000 
#    0.000    0.000    0.000    0.000    0.000    0.000 
#
# Total GULP energy -156387.374847 kJ/mol
# GULP energy per Si atom -5585.263387 kJ/mol
# Density = 2.352221 g / cm^3
# Si number density = 23.575870 Si / 1000 Ang^3
#
#
#
# Elastic Constant Matrix: (Units=GPa)
#
#
# Indices 1 2 3 4 5 6 
#
# 1 321.9345 43.6507 54.7267 0.0000 0.0000 0.0000
# 2 43.6507 78.3675 -2.4395 0.0000 0.0000 0.0000
# 3 54.7267 -2.4395 95.0690 0.0000 0.0000 0.0000
# 4 0.0000 0.0000 0.0000 -14.6124 0.0000 0.0000
# 5 0.0000 0.0000 0.0000 0.0000 30.7761 0.0000
# 6 0.0000 0.0000 0.0000 0.0000 0.0000 -17.7387
#
#
#
# Elastic Compliance Matrix: (Units=1/GPa)
#
#
# Indices 1 2 3 4 5 6 
#
# 1 0.003781 -0.002175 -0.002232 0.000000 0.000000 0.000000
# 2 -0.002175 0.014022 0.001612 0.000000 0.000000 0.000000
# 3 -0.002232 0.001612 0.011845 0.000000 0.000000 0.000000
# 4 0.000000 0.000000 0.000000 -0.068435 0.000000 0.000000
# 5 0.000000 0.000000 0.000000 0.000000 0.032493 0.000000
# 6 0.000000 0.000000 0.000000 0.000000 0.000000 -0.056374
#
#
# Mechanical properties :
#
#
# Convention : Reuss Voigt Hill
#
# Bulk Modulus (GPa) = 41.56795 76.36077 58.96436
# Shear Modulus (GPa) = -101.91917 26.31387 -37.80265
#
# Velocity S-wave (km/s) = -6.58211 3.34449 -4.00865
# Velocity P-wave (km/s) = 6.33211 6.88286 1.90763
#
# Compressibility (1/GPa) = 0.02405699
#
# Stress axis : x y z
#
# Youngs Moduli (GPa) = 264.50719 71.31544 84.42395
#
# Poissons Ratio (x) = 0.15513 0.18845
# Poissons Ratio (y) = 0.57538 -0.13609
# Poissons Ratio (z) = 0.59042 -0.11496
#
# Static dielectric constant tensor:
#      x y z
#    x 1.983470 0.000000 0.000000 
#    y 0.000000 1.814960 0.000000 
#    z 0.000000 0.000000 1.882610 
# 
# From -- ./inp_files/21732.got.cif
#   From: 2010.05.17/outbox.cif.g08.bks.cpg/sg64_11_cif.got.tgz:21732.got - 2010.06.03 16:29:19.
