data_PCOD9479407
_publ_section_title
;
Structure prediction by ZEFSAII (Michael W. Deem and Ramdas Pophale) SiO2 
 PCOD9479407
Probable space group: C M C A
;
_chemical_formula_sum "Si O2"
_cell_formula_units_Z 64
_cell_length_a 13.538826
_cell_length_b 12.514638
_cell_length_c 16.535780
_cell_angle_alpha 90.000000
_cell_angle_beta 90.000000
_cell_angle_gamma 90.000000
_cell_volume 2801.715185
_symmetry_space_group_name_H-M "C M C A"
_symmetry_group_IT_number 64
_symmetry_cell_setting 'orthorhombic'
loop_
_space_group_symop_operation_xyz
x,y,z
-x,1/2-y,1/2+z
x,-y,-z
-x,1/2+y,1/2-z
-x,-y,-z
x,1/2+y,1/2-z
-x,y,z
x,1/2-y,1/2+z
1/2+x,1/2+y,z
1/2-x,-y,1/2+z
1/2+x,1/2-y,-z
1/2-x,y,1/2-z
1/2-x,1/2-y,-z
1/2+x,y,1/2-z
1/2-x,1/2+y,z
1/2+x,-y,1/2+z
loop_
_atom_site_type_symbol
_atom_site_label
_atom_site_fract_x
_atom_site_fract_y
_atom_site_fract_z
Si Si1 0.883506 0.660656 0.983072
Si Si2 0.610285 0.010831 0.310731
Si Si3 0.615787 0.889605 0.461387
Si Si4 0.319920 0.520488 0.368869
O O1 0.822815 0.592744 0.917109
O O2 0.000000 0.656598 0.960897
O O3 0.849856 0.781567 0.997663
O O4 0.871142 0.600812 0.068997
O O5 0.500000 0.055409 0.328292
O O6 0.617360 0.901876 0.363979
O O7 0.623247 0.002093 0.215194
O O8 0.711472 0.064155 0.342944
O O9 0.500000 0.889477 0.481304
O O10 0.655382 0.000000 0.500000
#
# Coordination Sequence:
#
# PCOD9479407 Si02
#       4
#    16  16  16  16
#     4  10  20  39  65  91 127 167 212 264 311 373
#     4  10  21  40  60  88 131 164 205 262 314 378
#     4   9  20  39  61  88 125 169 207 253 317 376
#     4  10  21  38  63  98 121 163 214 258 321 380
#
# _framework density 22.843150000000001
#
# number of rings (size 3 to 8) (size 9 to 14) (size 15 to 20)
#    0.000    2.250    0.000    3.000    3.500    1.000 
#    4.500    2.500    0.000    0.000    0.000    0.000 
#    0.000    0.000    0.000    0.000    0.000    0.000 
#
# Total GULP energy -178377.533681 kJ/mol
# GULP energy per Si atom -5574.297928 kJ/mol
# Density = 2.279116 g / cm^3
# Si number density = 22.843150 Si / 1000 Ang^3
#
#
#
# Elastic Constant Matrix: (Units=GPa)
#
#
# Indices 1 2 3 4 5 6 
#
# 1 155.6381 5.2078 23.7050 0.0000 0.0000 0.0000
# 2 5.2078 111.9715 37.6333 0.0000 0.0000 0.0000
# 3 23.7050 37.6333 166.8357 0.0000 0.0000 0.0000
# 4 0.0000 0.0000 0.0000 13.3372 0.0000 0.0000
# 5 0.0000 0.0000 0.0000 0.0000 35.0675 0.0000
# 6 0.0000 0.0000 0.0000 0.0000 0.0000 12.6920
#
#
#
# Elastic Compliance Matrix: (Units=1/GPa)
#
#
# Indices 1 2 3 4 5 6 
#
# 1 0.006567 0.000009 -0.000935 0.000000 0.000000 0.000000
# 2 0.000009 0.009663 -0.002181 0.000000 0.000000 0.000000
# 3 -0.000935 -0.002181 0.006619 0.000000 0.000000 0.000000
# 4 0.000000 0.000000 0.000000 0.074978 0.000000 0.000000
# 5 0.000000 0.000000 0.000000 0.000000 0.028516 0.000000
# 6 0.000000 0.000000 0.000000 0.000000 0.000000 0.078790
#
#
# Mechanical properties :
#
#
# Convention : Reuss Voigt Hill
#
# Bulk Modulus (GPa) = 60.11464 63.05973 61.58719
# Shear Modulus (GPa) = 23.05281 36.74597 29.89939
#
# Velocity S-wave (km/s) = 3.18020 4.01511 3.62180
# Velocity P-wave (km/s) = 6.31334 7.01144 6.67153
#
# Compressibility (1/GPa) = 0.01663488
#
# Stress axis : x y z
#
# Youngs Moduli (GPa) = 152.26978 103.48242 151.08545
#
# Poissons Ratio (x) = -0.00092 0.14128
# Poissons Ratio (y) = -0.00135 0.32953
# Poissons Ratio (z) = 0.14239 0.22570
#
# Static dielectric constant tensor:
#      x y z
#    x 1.972390 0.000000 0.000000 
#    y 0.000000 1.848190 0.000000 
#    z 0.000000 0.000000 1.857640 
# 
# From -- ./inp_files/31636.got.cif
#   From: 2010.05.17/outbox.cif.g08.bks.cpg/sg64_16_cif.got.tgz:31636.got - 2010.06.03 16:29:19.
