data_PCOD9479242
_publ_section_title
;
Structure prediction by ZEFSAII (Michael W. Deem and Ramdas Pophale) SiO2 
 PCOD9479242
Probable space group: C M C A
;
_chemical_formula_sum "Si O2"
_cell_formula_units_Z 80
_cell_length_a 26.080133
_cell_length_b 10.548955
_cell_length_c 13.564906
_cell_angle_alpha 90.000000
_cell_angle_beta 90.000000
_cell_angle_gamma 90.000000
_cell_volume 3731.951836
_symmetry_space_group_name_H-M "C M C A"
_symmetry_group_IT_number 64
_symmetry_cell_setting 'orthorhombic'
loop_
_space_group_symop_operation_xyz
x,y,z
-x,1/2-y,1/2+z
x,-y,-z
-x,1/2+y,1/2-z
-x,-y,-z
x,1/2+y,1/2-z
-x,y,z
x,1/2-y,1/2+z
1/2+x,1/2+y,z
1/2-x,-y,1/2+z
1/2+x,1/2-y,-z
1/2-x,y,1/2-z
1/2-x,1/2-y,-z
1/2+x,y,1/2-z
1/2-x,1/2+y,z
1/2+x,-y,1/2+z
loop_
_atom_site_type_symbol
_atom_site_label
_atom_site_fract_x
_atom_site_fract_y
_atom_site_fract_z
Si Si1 0.560288 0.079202 0.130116
Si Si2 0.116241 0.332703 0.044853
Si Si3 0.280527 0.946350 0.350335
Si Si4 0.863886 0.376561 0.708846
Si Si5 0.792766 0.328668 0.901280
O O1 0.500000 0.057968 0.126265
O O2 0.577096 0.182680 0.047556
O O3 0.581829 0.113687 0.236562
O O4 0.591783 0.951750 0.102007
O O5 0.169076 0.361787 0.989220
O O6 0.128614 0.220737 0.119902
O O7 0.250000 0.916903 0.250000
O O8 0.338516 0.992448 0.329150
O O9 0.252118 0.069848 0.392127
O O10 0.277651 0.817793 0.411139
O O11 0.824433 0.334782 0.796565
#
# Coordination Sequence:
#
# PCOD9479242 Si02
#       5
#    16  16  16  16  16
#     4  10  22  40  65  93 121 162 216 270 325 384
#     4  10  21  39  61  88 123 161 205 262 318 382
#     4  10  20  38  61  91 131 175 219 264 312 376
#     4  10  21  38  62  87 126 167 211 267 324 376
#     4  10  22  38  61  91 128 173 218 260 312 377
#
# _framework density 21.436502999999998
#
# number of rings (size 3 to 8) (size 9 to 14) (size 15 to 20)
#    0.000    2.000    0.000    4.200    0.000    9.600 
#    0.000   10.000    0.000    1.200    0.000   12.600 
#    0.000    0.000    0.000    0.000    0.000    0.000 
#
# Total GULP energy -223593.662738 kJ/mol
# GULP energy per Si atom -5589.841568 kJ/mol
# Density = 2.138771 g / cm^3
# Si number density = 21.436503 Si / 1000 Ang^3
#
#
#
# Elastic Constant Matrix: (Units=GPa)
#
#
# Indices 1 2 3 4 5 6 
#
# 1 102.2922 43.8106 45.4360 0.0000 0.0000 0.0000
# 2 43.8106 121.0584 57.3283 0.0000 0.0000 0.0000
# 3 45.4360 57.3283 92.5436 0.0000 0.0000 0.0000
# 4 0.0000 0.0000 0.0000 28.5251 0.0000 0.0000
# 5 0.0000 0.0000 0.0000 0.0000 17.4411 0.0000
# 6 0.0000 0.0000 0.0000 0.0000 0.0000 19.4210
#
#
#
# Elastic Compliance Matrix: (Units=1/GPa)
#
#
# Indices 1 2 3 4 5 6 
#
# 1 0.012967 -0.002374 -0.004896 0.000000 0.000000 0.000000
# 2 -0.002374 0.012125 -0.006345 0.000000 0.000000 0.000000
# 3 -0.004896 -0.006345 0.017140 0.000000 0.000000 0.000000
# 4 0.000000 0.000000 0.000000 0.035057 0.000000 0.000000
# 5 0.000000 0.000000 0.000000 0.000000 0.057336 0.000000
# 6 0.000000 0.000000 0.000000 0.000000 0.000000 0.051491
#
#
# Mechanical properties :
#
#
# Convention : Reuss Voigt Hill
#
# Bulk Modulus (GPa) = 66.65993 67.67156 67.16574
# Shear Modulus (GPa) = 22.89942 24.36538 23.63240
#
# Velocity S-wave (km/s) = 3.27195 3.37505 3.32390
# Velocity P-wave (km/s) = 6.74078 6.84287 6.79202
#
# Compressibility (1/GPa) = 0.01500152
#
# Stress axis : x y z
#
# Youngs Moduli (GPa) = 77.11620 82.47736 58.34326
#
# Poissons Ratio (x) = 0.19584 0.28563
# Poissons Ratio (y) = 0.18311 0.37019
# Poissons Ratio (z) = 0.37754 0.52332
#
# Static dielectric constant tensor:
#      x y z
#    x 1.759140 0.000000 0.000000 
#    y 0.000000 1.786890 0.000000 
#    z 0.000000 0.000000 1.848220 
# 
# From -- ./inp_files/27076.got.cif
#   From: 2010.05.17/outbox.cif.g08.bks.cpg/sg64_14_cif.got.tgz:27076.got - 2010.06.03 16:29:19.
