data_PCOD9479346
_publ_section_title
;
Structure prediction by ZEFSAII (Michael W. Deem and Ramdas Pophale) SiO2 
 PCOD9479346
Probable space group: C M C A
;
_chemical_formula_sum "Si O2"
_cell_formula_units_Z 72
_cell_length_a 23.889712
_cell_length_b 16.684558
_cell_length_c 8.895151
_cell_angle_alpha 90.000000
_cell_angle_beta 90.000000
_cell_angle_gamma 90.000000
_cell_volume 3545.511881
_symmetry_space_group_name_H-M "C M C A"
_symmetry_group_IT_number 64
_symmetry_cell_setting 'orthorhombic'
loop_
_space_group_symop_operation_xyz
x,y,z
-x,1/2-y,1/2+z
x,-y,-z
-x,1/2+y,1/2-z
-x,-y,-z
x,1/2+y,1/2-z
-x,y,z
x,1/2-y,1/2+z
1/2+x,1/2+y,z
1/2-x,-y,1/2+z
1/2+x,1/2-y,-z
1/2-x,y,1/2-z
1/2-x,1/2-y,-z
1/2+x,y,1/2-z
1/2-x,1/2+y,z
1/2+x,-y,1/2+z
loop_
_atom_site_type_symbol
_atom_site_label
_atom_site_fract_x
_atom_site_fract_y
_atom_site_fract_z
Si Si1 0.356808 0.000000 0.000000
Si Si2 0.935787 0.711811 0.456607
Si Si3 0.826954 0.209318 0.868759
Si Si4 0.792521 0.348387 0.056759
Si Si5 0.436198 0.629877 0.367246
O O1 0.395682 0.944919 0.894304
O O2 0.315878 0.063484 0.922597
O O3 0.885460 0.680716 0.561927
O O4 0.933432 0.807388 0.492622
O O5 0.926769 0.681726 0.285768
O O6 0.000000 0.688339 0.498241
O O7 0.819843 0.201489 0.692200
O O8 0.774117 0.160095 0.935078
O O9 0.814356 0.301710 0.911034
O O10 0.500000 0.600447 0.358422
#
# Coordination Sequence:
#
# PCOD9479346 Si02
#       5
#     8  16  16  16  16
#     4  12  23  40  58  94 127 164 200 254 332 368
#     4  10  20  38  67  94 118 166 214 253 302 369
#     4  10  20  43  62  92 117 161 213 259 291 381
#     4  10  23  39  66  87 124 162 207 254 322 359
#     4  10  22  39  64  93 128 164 209 257 306 370
#
# _framework density 20.307365999999998
#
# number of rings (size 3 to 8) (size 9 to 14) (size 15 to 20)
#    0.000    1.778    2.222    1.667    0.000    0.000 
#    8.000    1.111    0.000    2.667    0.000    0.000 
#    0.000    0.000    0.000    0.000    0.000    0.000 
#
# Total GULP energy -200717.105698 kJ/mol
# GULP energy per Si atom -5575.475158 kJ/mol
# Density = 2.026115 g / cm^3
# Si number density = 20.307366 Si / 1000 Ang^3
#
#
#
# Elastic Constant Matrix: (Units=GPa)
#
#
# Indices 1 2 3 4 5 6 
#
# 1 173.5877 50.9863 30.0225 0.0000 0.0000 0.0000
# 2 50.9863 106.7705 40.6799 0.0000 0.0000 0.0000
# 3 30.0225 40.6799 69.2657 0.0000 0.0000 0.0000
# 4 0.0000 0.0000 0.0000 9.7128 0.0000 0.0000
# 5 0.0000 0.0000 0.0000 0.0000 29.2611 0.0000
# 6 0.0000 0.0000 0.0000 0.0000 0.0000 43.0148
#
#
#
# Elastic Compliance Matrix: (Units=1/GPa)
#
#
# Indices 1 2 3 4 5 6 
#
# 1 0.006796 -0.002735 -0.001339 0.000000 0.000000 0.000000
# 2 -0.002735 0.013166 -0.006547 0.000000 0.000000 0.000000
# 3 -0.001339 -0.006547 0.018863 0.000000 0.000000 0.000000
# 4 0.000000 0.000000 0.000000 0.102957 0.000000 0.000000
# 5 0.000000 0.000000 0.000000 0.000000 0.034175 0.000000
# 6 0.000000 0.000000 0.000000 0.000000 0.000000 0.023248
#
#
# Mechanical properties :
#
#
# Convention : Reuss Voigt Hill
#
# Bulk Modulus (GPa) = 56.87610 65.88905 61.38257
# Shear Modulus (GPa) = 22.09377 31.59344 26.84360
#
# Velocity S-wave (km/s) = 3.30201 3.94859 3.63969
# Velocity P-wave (km/s) = 6.52734 7.30102 6.92499
#
# Compressibility (1/GPa) = 0.01758208
#
# Stress axis : x y z
#
# Youngs Moduli (GPa) = 147.15171 75.95094 53.01416
#
# Poissons Ratio (x) = 0.20772 0.07100
# Poissons Ratio (y) = 0.40244 0.34710
# Poissons Ratio (z) = 0.19708 0.49727
#
# Static dielectric constant tensor:
#      x y z
#    x 1.821600 0.000000 0.000000 
#    y 0.000000 1.716360 0.000000 
#    z 0.000000 0.000000 1.736560 
# 
# From -- ./inp_files/10009.got.cif
#   From: 2010.05.17/outbox.cif.g08.bks.cpg/sg64_6_cif.got.tgz:10009.got - 2010.06.03 16:29:19.
