data_PCOD9479037
_publ_section_title
;
Structure prediction by ZEFSAII (Michael W. Deem and Ramdas Pophale) SiO2 
 PCOD9479037
Probable space group: C M C A
;
_chemical_formula_sum "Si O2"
_cell_formula_units_Z 72
_cell_length_a 12.940361
_cell_length_b 29.807126
_cell_length_c 7.716810
_cell_angle_alpha 90.000000
_cell_angle_beta 90.000000
_cell_angle_gamma 90.000000
_cell_volume 2976.489144
_symmetry_space_group_name_H-M "C M C A"
_symmetry_group_IT_number 64
_symmetry_cell_setting 'orthorhombic'
loop_
_space_group_symop_operation_xyz
x,y,z
-x,1/2-y,1/2+z
x,-y,-z
-x,1/2+y,1/2-z
-x,-y,-z
x,1/2+y,1/2-z
-x,y,z
x,1/2-y,1/2+z
1/2+x,1/2+y,z
1/2-x,-y,1/2+z
1/2+x,1/2-y,-z
1/2-x,y,1/2-z
1/2-x,1/2-y,-z
1/2+x,y,1/2-z
1/2-x,1/2+y,z
1/2+x,-y,1/2+z
loop_
_atom_site_type_symbol
_atom_site_label
_atom_site_fract_x
_atom_site_fract_y
_atom_site_fract_z
Si Si1 0.113690 0.787128 0.374097
Si Si2 0.750000 0.516233 0.250000
Si Si3 0.116147 0.066869 0.645661
Si Si4 0.318280 0.405926 0.980528
Si Si5 0.830790 0.808697 0.978898
O O1 0.124103 0.732947 0.374009
O O2 0.128875 0.804658 0.177950
O O3 0.207819 0.802161 0.495233
O O4 0.000000 0.800087 0.435241
O O5 0.829638 0.481713 0.162062
O O6 0.819636 0.549928 0.363440
O O7 0.196752 0.095842 0.534876
O O8 0.121350 0.085518 0.841372
O O9 0.000000 0.065687 0.581052
O O10 0.351317 0.358181 0.907063
#
# Coordination Sequence:
#
# PCOD9479037 Si02
#       5
#    16   8  16  16  16
#     4  10  20  37  58  80 112 148 187 236 289 341
#     4  10  22  38  56  84 120 152 188 240 292 338
#     4  10  20  38  62  85 115 155 192 231 289 351
#     4  10  22  38  58  86 118 151 193 242 285 340
#     4  10  22  37  57  85 112 149 194 235 284 340
#
# _framework density 24.189572999999999
#
# number of rings (size 3 to 8) (size 9 to 14) (size 15 to 20)
#    0.000    2.222    0.000    6.000    0.000   11.556 
#    0.000    0.000    0.000    2.667    0.000    0.000 
#    0.000    0.000    0.000    0.000    0.000    0.000 
#
# Total GULP energy -201271.549901 kJ/mol
# GULP energy per Si atom -5590.876386 kJ/mol
# Density = 2.413452 g / cm^3
# Si number density = 24.189573 Si / 1000 Ang^3
#
#
#
# Elastic Constant Matrix: (Units=GPa)
#
#
# Indices 1 2 3 4 5 6 
#
# 1 132.4531 -13.2485 -14.9994 0.0000 0.0000 0.0000
# 2 -13.2485 159.3818 1.2220 0.0000 0.0000 0.0000
# 3 -14.9994 1.2220 23.1445 0.0000 0.0000 0.0000
# 4 0.0000 0.0000 0.0000 27.8612 0.0000 0.0000
# 5 0.0000 0.0000 0.0000 0.0000 1.6552 0.0000
# 6 0.0000 0.0000 0.0000 0.0000 0.0000 -21.9751
#
#
#
# Elastic Compliance Matrix: (Units=1/GPa)
#
#
# Indices 1 2 3 4 5 6 
#
# 1 0.008213 0.000642 0.005289 0.000000 0.000000 0.000000
# 2 0.000642 0.006327 0.000082 0.000000 0.000000 0.000000
# 3 0.005289 0.000082 0.046630 0.000000 0.000000 0.000000
# 4 0.000000 0.000000 0.000000 0.035892 0.000000 0.000000
# 5 0.000000 0.000000 0.000000 0.000000 0.604167 0.000000
# 6 0.000000 0.000000 0.000000 0.000000 0.000000 -0.045506
#
#
# Mechanical properties :
#
#
# Convention : Reuss Voigt Hill
#
# Bulk Modulus (GPa) = 13.66196 28.99197 21.32696
# Shear Modulus (GPa) = 7.48396 24.30861 15.89628
#
# Velocity S-wave (km/s) = 1.76085 3.17349 2.56628
# Velocity P-wave (km/s) = 3.12958 5.04375 4.19724
#
# Compressibility (1/GPa) = 0.07319595
#
# Stress axis : x y z
#
# Youngs Moduli (GPa) = 121.75844 158.05305 21.44542
#
# Poissons Ratio (x) = -0.10149 -0.11342
# Poissons Ratio (y) = -0.07819 -0.00176
# Poissons Ratio (z) = -0.64395 -0.01298
#
# Static dielectric constant tensor:
#      x y z
#    x 1.918470 0.000000 0.000000 
#    y 0.000000 1.932780 0.000000 
#    z 0.000000 0.000000 1.999330 
# 
# From -- ./inp_files/5961.got.cif
#   From: 2010.05.17/outbox.cif.g08.bks.cpg/sg64_3_cif.got.tgz:5961.got - 2010.06.03 16:29:19.
