data_PCOD9479674
_publ_section_title
;
Structure prediction by ZEFSAII (Michael W. Deem and Ramdas Pophale) SiO2 
 PCOD9479674
Probable space group: C M C A
;
_chemical_formula_sum "Si O2"
_cell_formula_units_Z 80
_cell_length_a 7.841526
_cell_length_b 19.925868
_cell_length_c 26.302325
_cell_angle_alpha 90.000000
_cell_angle_beta 90.000000
_cell_angle_gamma 90.000000
_cell_volume 4109.717555
_symmetry_space_group_name_H-M "C M C A"
_symmetry_group_IT_number 64
_symmetry_cell_setting 'orthorhombic'
loop_
_space_group_symop_operation_xyz
x,y,z
-x,1/2-y,1/2+z
x,-y,-z
-x,1/2+y,1/2-z
-x,-y,-z
x,1/2+y,1/2-z
-x,y,z
x,1/2-y,1/2+z
1/2+x,1/2+y,z
1/2-x,-y,1/2+z
1/2+x,1/2-y,-z
1/2-x,y,1/2-z
1/2-x,1/2-y,-z
1/2+x,y,1/2-z
1/2-x,1/2+y,z
1/2+x,-y,1/2+z
loop_
_atom_site_type_symbol
_atom_site_label
_atom_site_fract_x
_atom_site_fract_y
_atom_site_fract_z
Si Si1 0.000000 0.443579 0.427443
Si Si2 0.208025 0.851874 0.610232
Si Si3 0.704040 0.238864 0.692582
Si Si4 0.000000 0.398695 0.541394
Si Si5 0.190961 0.448714 0.805050
Si Si6 0.305981 0.409033 0.168685
O O1 0.841128 0.421629 0.391333
O O2 0.000000 0.405182 0.480553
O O3 0.000000 0.523198 0.439084
O O4 0.250035 0.788497 0.646572
O O5 0.330603 0.860689 0.561906
O O6 0.000000 0.852867 0.599620
O O7 0.270050 0.913719 0.646240
O O8 0.500000 0.235181 0.690665
O O9 0.750000 0.260252 0.750000
O O10 0.767976 0.163240 0.682048
O O11 0.250000 0.427438 0.750000
O O12 0.205400 0.528191 0.809952
O O13 0.000000 0.424672 0.808155
O O14 0.500000 0.413769 0.190596
#
# Coordination Sequence:
#
# PCOD9479674 Si02
#       6
#     8  16  16   8  16  16
#     4   9  20  38  65  86 106 151 196 247 299 343
#     4  10  22  38  56  86 118 150 192 240 282 346
#     4  10  21  35  55  81 119 159 186 230 288 349
#     4  11  20  40  67  84 112 153 196 245 305 339
#     4  11  21  32  52  81 114 149 188 229 281 342
#     4   9  18  37  56  77 115 147 187 238 283 337
#
# _framework density 19.466056999999999
#
# number of rings (size 3 to 8) (size 9 to 14) (size 15 to 20)
#    0.600    1.400    2.000    1.800    2.800    2.400 
#    0.000    4.000    0.000    0.000    0.000    0.000 
#    0.000    0.000    0.000    0.000    0.000    0.000 
#
# Total GULP energy -222710.816821 kJ/mol
# GULP energy per Si atom -5567.770421 kJ/mol
# Density = 1.942175 g / cm^3
# Si number density = 19.466057 Si / 1000 Ang^3
#
#
#
# Elastic Constant Matrix: (Units=GPa)
#
#
# Indices 1 2 3 4 5 6 
#
# 1 38.0846 -4.1421 14.8159 0.0000 0.0000 0.0000
# 2 -4.1421 67.6927 -2.7703 0.0000 0.0000 0.0000
# 3 14.8159 -2.7703 87.9211 0.0000 0.0000 0.0000
# 4 0.0000 0.0000 0.0000 16.6266 0.0000 0.0000
# 5 0.0000 0.0000 0.0000 0.0000 15.8529 0.0000
# 6 0.0000 0.0000 0.0000 0.0000 0.0000 12.1843
#
#
#
# Elastic Compliance Matrix: (Units=1/GPa)
#
#
# Indices 1 2 3 4 5 6 
#
# 1 0.028258 0.001536 -0.004713 0.000000 0.000000 0.000000
# 2 0.001536 0.014875 0.000210 0.000000 0.000000 0.000000
# 3 -0.004713 0.000210 0.012175 0.000000 0.000000 0.000000
# 4 0.000000 0.000000 0.000000 0.060145 0.000000 0.000000
# 5 0.000000 0.000000 0.000000 0.000000 0.063080 0.000000
# 6 0.000000 0.000000 0.000000 0.000000 0.000000 0.082073
#
#
# Mechanical properties :
#
#
# Convention : Reuss Voigt Hill
#
# Bulk Modulus (GPa) = 20.25391 23.27838 21.76615
# Shear Modulus (GPa) = 17.66798 21.31908 19.49353
#
# Velocity S-wave (km/s) = 3.01596 3.31296 3.16794
# Velocity P-wave (km/s) = 4.74924 5.15933 4.95853
#
# Compressibility (1/GPa) = 0.04937317
#
# Stress axis : x y z
#
# Youngs Moduli (GPa) = 35.38813 67.22582 82.13738
#
# Poissons Ratio (x) = -0.10327 0.38715
# Poissons Ratio (y) = -0.05436 -0.01723
# Poissons Ratio (z) = 0.16680 -0.01411
#
# Static dielectric constant tensor:
#      x y z
#    x 1.703490 0.000000 0.000000 
#    y 0.000000 1.713910 0.000000 
#    z 0.000000 0.000000 1.860260 
# 
# From -- ./inp_files/47909.got.cif
#   From: 2010.05.17/outbox.cif.g08.bks.cpg/sg64_24_cif.got.tgz:47909.got - 2010.06.03 16:29:19.
