data_PCOD9479307
_publ_section_title
;
Structure prediction by ZEFSAII (Michael W. Deem and Ramdas Pophale) SiO2 
 PCOD9479307
Probable space group: C M C A
;
_chemical_formula_sum "Si O2"
_cell_formula_units_Z 80
_cell_length_a 23.569055
_cell_length_b 5.350155
_cell_length_c 28.161100
_cell_angle_alpha 90.000000
_cell_angle_beta 90.000000
_cell_angle_gamma 90.000000
_cell_volume 3551.061132
_symmetry_space_group_name_H-M "C M C A"
_symmetry_group_IT_number 64
_symmetry_cell_setting 'orthorhombic'
loop_
_space_group_symop_operation_xyz
x,y,z
-x,1/2-y,1/2+z
x,-y,-z
-x,1/2+y,1/2-z
-x,-y,-z
x,1/2+y,1/2-z
-x,y,z
x,1/2-y,1/2+z
1/2+x,1/2+y,z
1/2-x,-y,1/2+z
1/2+x,1/2-y,-z
1/2-x,y,1/2-z
1/2-x,1/2-y,-z
1/2+x,y,1/2-z
1/2-x,1/2+y,z
1/2+x,-y,1/2+z
loop_
_atom_site_type_symbol
_atom_site_label
_atom_site_fract_x
_atom_site_fract_y
_atom_site_fract_z
Si Si1 0.675265 0.078671 0.583630
Si Si2 0.784677 0.013853 0.189674
Si Si3 0.647599 0.421151 0.448708
Si Si4 0.412058 0.572722 0.222284
Si Si5 0.435534 0.375891 0.888099
O O1 0.680000 0.844374 0.548502
O O2 0.606568 0.091076 0.593046
O O3 0.701065 0.995463 0.633577
O O4 0.688735 0.357819 0.568382
O O5 0.756509 0.746116 0.199198
O O6 0.843735 0.057717 0.216426
O O7 0.625074 0.500000 0.500000
O O8 0.598536 0.358856 0.410346
O O9 0.428840 0.807199 0.255038
O O10 0.433946 0.617282 0.168926
O O11 0.500000 0.390698 0.904408
#
# Coordination Sequence:
#
# PCOD9479307 Si02
#       5
#    16  16  16  16  16
#     4   9  21  38  59  90 124 157 196 253 300 366
#     4  11  22  38  66  90 119 159 202 253 311 360
#     4  10  20  38  64  90 123 166 202 254 310 359
#     4  11  25  41  60  90 125 158 204 251 301 370
#     4   9  23  40  63  91 123 165 205 251 308 364
#
# _framework density 22.528476000000001
#
# number of rings (size 3 to 8) (size 9 to 14) (size 15 to 20)
#    1.200    0.800    0.000    3.000    5.600    4.400 
#    0.000    1.000    0.000   12.000    0.000    0.000 
#    0.000    0.000    0.000    0.000    0.000    0.000 
#
# Total GULP energy -223163.565405 kJ/mol
# GULP energy per Si atom -5579.089135 kJ/mol
# Density = 2.247720 g / cm^3
# Si number density = 22.528476 Si / 1000 Ang^3
#
#
#
# Elastic Constant Matrix: (Units=GPa)
#
#
# Indices 1 2 3 4 5 6 
#
# 1 101.2093 19.9622 0.9188 0.0000 0.0000 0.0000
# 2 19.9622 156.0994 66.2007 0.0000 0.0000 0.0000
# 3 0.9188 66.2007 57.0402 0.0000 0.0000 0.0000
# 4 0.0000 0.0000 0.0000-1177.2629 0.0000 0.0000
# 5 0.0000 0.0000 0.0000 0.0000 3.5007 0.0000
# 6 0.0000 0.0000 0.0000 0.0000 0.0000 -91.9645
#
#
#
# Elastic Compliance Matrix: (Units=1/GPa)
#
#
# Indices 1 2 3 4 5 6 
#
# 1 0.010342 -0.002465 0.002695 0.000000 0.000000 0.000000
# 2 -0.002465 0.013203 -0.015284 0.000000 0.000000 0.000000
# 3 0.002695 -0.015284 0.035227 0.000000 0.000000 0.000000
# 4 0.000000 0.000000 0.000000 -0.000849 0.000000 0.000000
# 5 0.000000 0.000000 0.000000 0.000000 0.285654 0.000000
# 6 0.000000 0.000000 0.000000 0.000000 0.000000 -0.010874
#
#
# Mechanical properties :
#
#
# Convention : Reuss Voigt Hill
#
# Bulk Modulus (GPa) = 34.88825 54.27914 44.58369
# Shear Modulus (GPa) = 13.42764 -237.99416 -112.28326
#
# Velocity S-wave (km/s) = 2.44402 -10.28935 -7.06745
# Velocity P-wave (km/s) = 4.84605 10.81736 6.83853
#
# Compressibility (1/GPa) = 0.02866295
#
# Stress axis : x y z
#
# Youngs Moduli (GPa) = 96.69011 75.73877 28.38765
#
# Poissons Ratio (x) = 0.18673 -0.07650
# Poissons Ratio (y) = 0.23838 0.43388
# Poissons Ratio (z) = -0.26056 1.15759
#
# Static dielectric constant tensor:
#      x y z
#    x 1.840280 0.000000 0.000000 
#    y 0.000000 1.843250 0.000000 
#    z 0.000000 0.000000 1.836100 
# 
# From -- ./inp_files/53846.got.cif
#   From: 2010.05.17/outbox.cif.g08.bks.cpg/sg64_27_cif.got.tgz:53846.got - 2010.06.03 16:29:19.
