data_PCOD9479252
_publ_section_title
;
Structure prediction by ZEFSAII (Michael W. Deem and Ramdas Pophale) SiO2 
 PCOD9479252
Probable space group: C M C A
;
_chemical_formula_sum "Si O2"
_cell_formula_units_Z 56
_cell_length_a 11.118915
_cell_length_b 13.409564
_cell_length_c 17.316687
_cell_angle_alpha 90.000000
_cell_angle_beta 90.000000
_cell_angle_gamma 90.000000
_cell_volume 2581.914608
_symmetry_space_group_name_H-M "C M C A"
_symmetry_group_IT_number 64
_symmetry_cell_setting 'orthorhombic'
loop_
_space_group_symop_operation_xyz
x,y,z
-x,1/2-y,1/2+z
x,-y,-z
-x,1/2+y,1/2-z
-x,-y,-z
x,1/2+y,1/2-z
-x,y,z
x,1/2-y,1/2+z
1/2+x,1/2+y,z
1/2-x,-y,1/2+z
1/2+x,1/2-y,-z
1/2-x,y,1/2-z
1/2-x,1/2-y,-z
1/2+x,y,1/2-z
1/2-x,1/2+y,z
1/2+x,-y,1/2+z
loop_
_atom_site_type_symbol
_atom_site_label
_atom_site_fract_x
_atom_site_fract_y
_atom_site_fract_z
Si Si1 0.241075 0.907190 0.043958
Si Si2 0.364340 0.061255 0.797907
Si Si3 0.250000 0.742681 0.250000
Si Si4 0.637044 0.706604 0.403132
O O1 0.329074 0.944525 0.112011
O O2 0.154216 0.825346 0.081882
O O3 0.314872 0.848887 0.978392
O O4 0.181913 0.000000 0.000000
O O5 0.500000 0.025638 0.782198
O O6 0.250000 0.019264 0.750000
O O7 0.355105 0.179342 0.774906
O O8 0.288545 0.684408 0.325927
O O9 0.500000 0.681744 0.390365
#
# Coordination Sequence:
#
# PCOD9479252 Si02
#       4
#    16  16   8  16
#     4  10  22  38  60  90 120 154 201 251 301 360
#     4   9  18  33  56  82 114 157 195 242 300 358
#     4   8  18  32  56  82 118 152 196 244 294 354
#     4  10  20  38  62  86 119 160 200 248 301 359
#
# _framework density 21.689330999999999
#
# number of rings (size 3 to 8) (size 9 to 14) (size 15 to 20)
#    0.857    1.714    0.000    1.714    0.000    2.857 
#    2.571    1.429    0.000    0.000    0.000    0.000 
#    0.000    0.000    0.000    0.000    0.000    0.000 
#
# Total GULP energy -156151.621332 kJ/mol
# GULP energy per Si atom -5576.843619 kJ/mol
# Density = 2.163996 g / cm^3
# Si number density = 21.689331 Si / 1000 Ang^3
#
#
#
# Elastic Constant Matrix: (Units=GPa)
#
#
# Indices 1 2 3 4 5 6 
#
# 1 108.0659 18.8161 57.4145 0.0000 0.0000 0.0000
# 2 18.8161 61.8873 30.2232 0.0000 0.0000 0.0000
# 3 57.4145 30.2232 170.2217 0.0000 0.0000 0.0000
# 4 0.0000 0.0000 0.0000 26.7007 0.0000 0.0000
# 5 0.0000 0.0000 0.0000 0.0000 10.2588 0.0000
# 6 0.0000 0.0000 0.0000 0.0000 0.0000 -5.9345
#
#
#
# Elastic Compliance Matrix: (Units=1/GPa)
#
#
# Indices 1 2 3 4 5 6 
#
# 1 0.011444 -0.001746 -0.003550 0.000000 0.000000 0.000000
# 2 -0.001746 0.017959 -0.002600 0.000000 0.000000 0.000000
# 3 -0.003550 -0.002600 0.007534 0.000000 0.000000 0.000000
# 4 0.000000 0.000000 0.000000 0.037452 0.000000 0.000000
# 5 0.000000 0.000000 0.000000 0.000000 0.097478 0.000000
# 6 0.000000 0.000000 0.000000 0.000000 0.000000 -0.168506
#
#
# Mechanical properties :
#
#
# Convention : Reuss Voigt Hill
#
# Bulk Modulus (GPa) = 47.29188 61.45361 54.37275
# Shear Modulus (GPa) = 190.84727 21.78641 106.31684
#
# Velocity S-wave (km/s) = 9.39055 3.17278 7.00888
# Velocity P-wave (km/s) = 11.80796 6.46662 9.51959
#
# Compressibility (1/GPa) = 0.02114528
#
# Stress axis : x y z
#
# Youngs Moduli (GPa) = 87.38520 55.68302 132.73786
#
# Poissons Ratio (x) = 0.09720 0.47120
# Poissons Ratio (y) = 0.15255 0.34510
# Poissons Ratio (z) = 0.31021 0.14477
#
# Static dielectric constant tensor:
#      x y z
#    x 1.720590 0.000000 0.000000 
#    y 0.000000 1.851010 0.000000 
#    z 0.000000 0.000000 1.767790 
# 
# From -- ./inp_files/30385.got.cif
#   From: 2010.05.17/outbox.cif.g08.bks.cpg/sg64_16_cif.got.tgz:30385.got - 2010.06.03 16:29:19.
