data_PCOD9479682
_publ_section_title
;
Structure prediction by ZEFSAII (Michael W. Deem and Ramdas Pophale) SiO2 
 PCOD9479682
Probable space group: C M C A
;
_chemical_formula_sum "Si O2"
_cell_formula_units_Z 88
_cell_length_a 20.477705
_cell_length_b 17.679611
_cell_length_c 11.984169
_cell_angle_alpha 90.000000
_cell_angle_beta 90.000000
_cell_angle_gamma 90.000000
_cell_volume 4338.722882
_symmetry_space_group_name_H-M "C M C A"
_symmetry_group_IT_number 64
_symmetry_cell_setting 'orthorhombic'
loop_
_space_group_symop_operation_xyz
x,y,z
-x,1/2-y,1/2+z
x,-y,-z
-x,1/2+y,1/2-z
-x,-y,-z
x,1/2+y,1/2-z
-x,y,z
x,1/2-y,1/2+z
1/2+x,1/2+y,z
1/2-x,-y,1/2+z
1/2+x,1/2-y,-z
1/2-x,y,1/2-z
1/2-x,1/2-y,-z
1/2+x,y,1/2-z
1/2-x,1/2+y,z
1/2+x,-y,1/2+z
loop_
_atom_site_type_symbol
_atom_site_label
_atom_site_fract_x
_atom_site_fract_y
_atom_site_fract_z
Si Si1 0.363687 0.917769 0.444385
Si Si2 0.300515 0.745786 0.164817
Si Si3 0.774702 0.135103 0.484543
Si Si4 0.370541 0.000000 0.000000
Si Si5 0.422975 0.652838 0.157586
Si Si6 0.924430 0.013570 0.739737
O O1 0.287985 0.897347 0.450816
O O2 0.403601 0.862166 0.527109
O O3 0.373635 0.000000 0.500000
O O4 0.385531 0.927966 0.317419
O O5 0.250000 0.783950 0.250000
O O6 0.308276 0.800584 0.059189
O O7 0.371015 0.714810 0.201510
O O8 0.257752 0.674159 0.122329
O O9 0.824541 0.068700 0.462047
O O10 0.410669 0.022761 0.890734
O O11 0.500000 0.671066 0.167845
O O12 0.410531 0.573165 0.221580
O O13 0.000000 0.025945 0.764887
#
# Coordination Sequence:
#
# PCOD9479682 Si02
#       6
#    16  16  16   8  16  16
#     4   9  17  34  58  88 111 140 190 243 292 338
#     4  10  21  38  59  82 119 157 193 246 292 349
#     4  10  22  37  56  88 115 148 198 239 299 345
#     4  12  23  36  56  86 121 154 192 236 300 370
#     4   9  18  36  61  86 113 152 199 242 290 345
#     4  10  21  35  56  84 120 154 187 239 295 352
#
# _framework density 20.282467
#
# number of rings (size 3 to 8) (size 9 to 14) (size 15 to 20)
#    0.000    2.182    0.909    1.909    2.545    2.182 
#    0.000    1.818    0.000    6.545    0.000    0.000 
#    0.000    0.000    0.000    0.000    0.000    0.000 
#
# Total GULP energy -245457.506038 kJ/mol
# GULP energy per Si atom -5578.579683 kJ/mol
# Density = 2.023630 g / cm^3
# Si number density = 20.282467 Si / 1000 Ang^3
#
#
#
# Elastic Constant Matrix: (Units=GPa)
#
#
# Indices 1 2 3 4 5 6 
#
# 1 68.0494 -3.7196 -0.7143 0.0000 0.0000 0.0000
# 2 -3.7196 15.5976 -14.4306 0.0000 0.0000 0.0000
# 3 -0.7143 -14.4306 78.1130 0.0000 0.0000 0.0000
# 4 0.0000 0.0000 0.0000 12.6681 0.0000 0.0000
# 5 0.0000 0.0000 0.0000 0.0000 17.7089 0.0000
# 6 0.0000 0.0000 0.0000 0.0000 0.0000 11.2169
#
#
#
# Elastic Compliance Matrix: (Units=1/GPa)
#
#
# Indices 1 2 3 4 5 6 
#
# 1 0.014949 0.004452 0.000959 0.000000 0.000000 0.000000
# 2 0.004452 0.078656 0.014572 0.000000 0.000000 0.000000
# 3 0.000959 0.014572 0.015503 0.000000 0.000000 0.000000
# 4 0.000000 0.000000 0.000000 0.078938 0.000000 0.000000
# 5 0.000000 0.000000 0.000000 0.000000 0.056469 0.000000
# 6 0.000000 0.000000 0.000000 0.000000 0.000000 0.089151
#
#
# Mechanical properties :
#
#
# Convention : Reuss Voigt Hill
#
# Bulk Modulus (GPa) = 6.70812 13.78120 10.24466
# Shear Modulus (GPa) = 14.56068 20.36040 17.46054
#
# Velocity S-wave (km/s) = 2.68226 3.17178 2.93724
# Velocity P-wave (km/s) = 3.59267 4.49700 4.07003
#
# Compressibility (1/GPa) = 0.14907306
#
# Stress axis : x y z
#
# Youngs Moduli (GPa) = 66.89567 12.71366 64.50493
#
# Poissons Ratio (x) = -0.05661 -0.06187
# Poissons Ratio (y) = -0.29784 -0.93994
# Poissons Ratio (z) = -0.06417 -0.18526
#
# Static dielectric constant tensor:
#      x y z
#    x 1.685470 0.000000 0.000000 
#    y 0.000000 1.736880 0.000000 
#    z 0.000000 0.000000 1.830810 
# 
# From -- ./inp_files/16060.got.cif
#   From: 2010.05.17/outbox.cif.g08.bks.cpg/sg64_9_cif.got.tgz:16060.got - 2010.06.03 16:29:19.
