data_PCOD9479114
_publ_section_title
;
Structure prediction by ZEFSAII (Michael W. Deem and Ramdas Pophale) SiO2 
 PCOD9479114
Probable space group: C M C A
;
_chemical_formula_sum "Si O2"
_cell_formula_units_Z 88
_cell_length_a 10.267706
_cell_length_b 30.339794
_cell_length_c 15.790682
_cell_angle_alpha 90.000000
_cell_angle_beta 90.000000
_cell_angle_gamma 90.000000
_cell_volume 4919.114597
_symmetry_space_group_name_H-M "C M C A"
_symmetry_group_IT_number 64
_symmetry_cell_setting 'orthorhombic'
loop_
_space_group_symop_operation_xyz
x,y,z
-x,1/2-y,1/2+z
x,-y,-z
-x,1/2+y,1/2-z
-x,-y,-z
x,1/2+y,1/2-z
-x,y,z
x,1/2-y,1/2+z
1/2+x,1/2+y,z
1/2-x,-y,1/2+z
1/2+x,1/2-y,-z
1/2-x,y,1/2-z
1/2-x,1/2-y,-z
1/2+x,y,1/2-z
1/2-x,1/2+y,z
1/2+x,-y,1/2+z
loop_
_atom_site_type_symbol
_atom_site_label
_atom_site_fract_x
_atom_site_fract_y
_atom_site_fract_z
Si Si1 0.352693 0.667836 0.111161
Si Si2 0.342390 0.441006 0.423340
Si Si3 0.844785 0.153987 0.541791
Si Si4 0.349237 0.231936 0.826079
Si Si5 0.750000 0.396051 0.750000
Si Si6 0.155025 0.034286 0.385711
O O1 0.500000 0.663264 0.077044
O O2 0.333940 0.718270 0.140269
O O3 0.337466 0.636100 0.192471
O O4 0.243630 0.656706 0.041650
O O5 0.500000 0.441648 0.418968
O O6 0.306467 0.390448 0.406699
O O7 0.301952 0.450228 0.520870
O O8 0.295231 0.484030 0.371840
O O9 0.826128 0.196993 0.599077
O O10 0.000000 0.150962 0.520135
O O11 0.500000 0.226830 0.798352
O O12 0.250000 0.224383 0.750000
O O13 0.814494 0.429394 0.816513
O O14 0.000000 0.031395 0.391013
#
# Coordination Sequence:
#
# PCOD9479114 Si02
#       6
#    16  16  16  16   8  16
#     4  11  23  36  54  84 118 148 184 233 285 332
#     4   8  15  31  54  76  99 133 182 227 266 320
#     4  10  20  37  62  84 108 148 191 228 277 339
#     4  10  22  39  57  83 114 148 188 231 279 332
#     4  12  20  32  54  78 114 146 188 228 288 326
#     4   9  17  30  51  78 102 133 180 229 270 322
#
# _framework density 17.889398
#
# number of rings (size 3 to 8) (size 9 to 14) (size 15 to 20)
#    0.000    2.182    2.727    2.182    0.000    2.182 
#    1.636    0.000    0.000    3.273    0.000    0.000 
#    0.000    0.000    0.000    0.000    0.000    0.000 
#
# Total GULP energy -244992.533683 kJ/mol
# GULP energy per Si atom -5568.012129 kJ/mol
# Density = 1.784868 g / cm^3
# Si number density = 17.889398 Si / 1000 Ang^3
#
#
#
# Elastic Constant Matrix: (Units=GPa)
#
#
# Indices 1 2 3 4 5 6 
#
# 1 54.2047 32.3574 31.4175 0.0000 0.0000 0.0000
# 2 32.3574 161.3849 56.2357 0.0000 0.0000 0.0000
# 3 31.4175 56.2357 45.4753 0.0000 0.0000 0.0000
# 4 0.0000 0.0000 0.0000 29.3227 0.0000 0.0000
# 5 0.0000 0.0000 0.0000 0.0000 23.2617 0.0000
# 6 0.0000 0.0000 0.0000 0.0000 0.0000 19.4131
#
#
#
# Elastic Compliance Matrix: (Units=1/GPa)
#
#
# Indices 1 2 3 4 5 6 
#
# 1 0.031211 0.002207 -0.024292 0.000000 0.000000 0.000000
# 2 0.002207 0.011044 -0.015182 0.000000 0.000000 0.000000
# 3 -0.024292 -0.015182 0.057547 0.000000 0.000000 0.000000
# 4 0.000000 0.000000 0.000000 0.034103 0.000000 0.000000
# 5 0.000000 0.000000 0.000000 0.000000 0.042989 0.000000
# 6 0.000000 0.000000 0.000000 0.000000 0.000000 0.051512
#
#
# Mechanical properties :
#
#
# Convention : Reuss Voigt Hill
#
# Bulk Modulus (GPa) = 39.57571 55.67623 47.62597
# Shear Modulus (GPa) = 16.05847 23.80313 19.93080
#
# Velocity S-wave (km/s) = 2.99934 3.65166 3.34145
# Velocity P-wave (km/s) = 5.84510 6.99782 6.44727
#
# Compressibility (1/GPa) = 0.02526802
#
# Stress axis : x y z
#
# Youngs Moduli (GPa) = 32.04014 90.54521 17.37719
#
# Poissons Ratio (x) = -0.19982 0.42212
# Poissons Ratio (y) = -0.07071 0.26382
# Poissons Ratio (z) = 0.77831 1.37467
#
# Static dielectric constant tensor:
#      x y z
#    x 1.603660 0.000000 0.000000 
#    y 0.000000 1.665510 0.000000 
#    z 0.000000 0.000000 1.607840 
# 
# From -- ./inp_files/30048.got.cif
#   From: 2010.05.17/outbox.cif.g08.bks.cpg/sg64_16_cif.got.tgz:30048.got - 2010.06.03 16:29:19.
