data_PCOD9479576
_publ_section_title
;
Structure prediction by ZEFSAII (Michael W. Deem and Ramdas Pophale) SiO2 
 PCOD9479576
Probable space group: C M C A
;
_chemical_formula_sum "Si O2"
_cell_formula_units_Z 64
_cell_length_a 15.330024
_cell_length_b 12.298000
_cell_length_c 14.792038
_cell_angle_alpha 90.000000
_cell_angle_beta 90.000000
_cell_angle_gamma 90.000000
_cell_volume 2788.722735
_symmetry_space_group_name_H-M "C M C A"
_symmetry_group_IT_number 64
_symmetry_cell_setting 'orthorhombic'
loop_
_space_group_symop_operation_xyz
x,y,z
-x,1/2-y,1/2+z
x,-y,-z
-x,1/2+y,1/2-z
-x,-y,-z
x,1/2+y,1/2-z
-x,y,z
x,1/2-y,1/2+z
1/2+x,1/2+y,z
1/2-x,-y,1/2+z
1/2+x,1/2-y,-z
1/2-x,y,1/2-z
1/2-x,1/2-y,-z
1/2+x,y,1/2-z
1/2-x,1/2+y,z
1/2+x,-y,1/2+z
loop_
_atom_site_type_symbol
_atom_site_label
_atom_site_fract_x
_atom_site_fract_y
_atom_site_fract_z
Si Si1 0.897784 0.018159 0.606911
Si Si2 0.336739 0.265752 0.309461
Si Si3 0.098085 0.216260 0.369368
Si Si4 0.606728 0.623170 0.025825
O O1 0.843091 0.121618 0.636920
O O2 0.000000 0.037029 0.631901
O O3 0.893984 0.000000 0.500000
O O4 0.863599 0.903709 0.645227
O O5 0.250000 0.254766 0.250000
O O6 0.405588 0.270776 0.227887
O O7 0.356079 0.170086 0.380539
O O8 0.136517 0.295050 0.445460
O O9 0.000000 0.193464 0.402946
O O10 0.500000 0.625587 0.031391
O O11 0.631648 0.500000 0.000000
#
# Coordination Sequence:
#
# PCOD9479576 Si02
#       4
#    16  16  16  16
#     4  10  20  42  72  97 130 179 239 295 336 401
#     4  12  26  42  64 102 146 181 218 284 363 434
#     4  10  22  41  69 100 130 178 239 295 343 401
#     4  10  22  44  71 101 137 182 239 293 342 408
#
# _framework density 22.949574999999999
#
# number of rings (size 3 to 8) (size 9 to 14) (size 15 to 20)
#    0.000    1.500    2.500    2.250    3.500    2.000 
#    0.000    0.000    0.000    0.000    0.000    0.000 
#    0.000    0.000    0.000    0.000    0.000    0.000 
#
# Total GULP energy -178743.915421 kJ/mol
# GULP energy per Si atom -5585.747357 kJ/mol
# Density = 2.289734 g / cm^3
# Si number density = 22.949575 Si / 1000 Ang^3
#
#
#
# Elastic Constant Matrix: (Units=GPa)
#
#
# Indices 1 2 3 4 5 6 
#
# 1 73.5428 50.0651 34.8461 0.0000 0.0000 0.0000
# 2 50.0651 160.6263 79.2214 0.0000 0.0000 0.0000
# 3 34.8461 79.2214 159.3949 0.0000 0.0000 0.0000
# 4 0.0000 0.0000 0.0000 44.1163 0.0000 0.0000
# 5 0.0000 0.0000 0.0000 0.0000 25.5771 0.0000
# 6 0.0000 0.0000 0.0000 0.0000 0.0000 5.8457
#
#
#
# Elastic Compliance Matrix: (Units=1/GPa)
#
#
# Indices 1 2 3 4 5 6 
#
# 1 0.017519 -0.004731 -0.001478 0.000000 0.000000 0.000000
# 2 -0.004731 0.009525 -0.003700 0.000000 0.000000 0.000000
# 3 -0.001478 -0.003700 0.008436 0.000000 0.000000 0.000000
# 4 0.000000 0.000000 0.000000 0.022667 0.000000 0.000000
# 5 0.000000 0.000000 0.000000 0.000000 0.039097 0.000000
# 6 0.000000 0.000000 0.000000 0.000000 0.000000 0.171067
#
#
# Mechanical properties :
#
#
# Convention : Reuss Voigt Hill
#
# Bulk Modulus (GPa) = 63.85343 80.20326 72.02834
# Shear Modulus (GPa) = 17.04445 30.40325 23.72385
#
# Velocity S-wave (km/s) = 2.72819 3.64371 3.21867
# Velocity P-wave (km/s) = 6.14881 7.26124 6.72805
#
# Compressibility (1/GPa) = 0.01566087
#
# Stress axis : x y z
#
# Youngs Moduli (GPa) = 57.08128 104.98662 118.54316
#
# Poissons Ratio (x) = 0.49672 0.17525
# Poissons Ratio (y) = 0.27007 0.43858
# Poissons Ratio (z) = 0.08439 0.38842
#
# Static dielectric constant tensor:
#      x y z
#    x 2.133020 0.000000 0.000000 
#    y 0.000000 1.909860 0.000000 
#    z 0.000000 0.000000 1.853950 
# 
# From -- ./inp_files/24851.got.cif
#   From: 2010.05.17/outbox.cif.g08.bks.cpg/sg64_13_cif.got.tgz:24851.got - 2010.06.03 16:29:19.
