data_PCOD9479062
_publ_section_title
;
Structure prediction by ZEFSAII (Michael W. Deem and Ramdas Pophale) SiO2 
 PCOD9479062
Probable space group: C M C A
;
_chemical_formula_sum "Si O2"
_cell_formula_units_Z 112
_cell_length_a 21.942690
_cell_length_b 11.432594
_cell_length_c 22.198570
_cell_angle_alpha 90.000000
_cell_angle_beta 90.000000
_cell_angle_gamma 90.000000
_cell_volume 5568.774694
_symmetry_space_group_name_H-M "C M C A"
_symmetry_group_IT_number 64
_symmetry_cell_setting 'orthorhombic'
loop_
_space_group_symop_operation_xyz
x,y,z
-x,1/2-y,1/2+z
x,-y,-z
-x,1/2+y,1/2-z
-x,-y,-z
x,1/2+y,1/2-z
-x,y,z
x,1/2-y,1/2+z
1/2+x,1/2+y,z
1/2-x,-y,1/2+z
1/2+x,1/2-y,-z
1/2-x,y,1/2-z
1/2-x,1/2-y,-z
1/2+x,y,1/2-z
1/2-x,1/2+y,z
1/2+x,-y,1/2+z
loop_
_atom_site_type_symbol
_atom_site_label
_atom_site_fract_x
_atom_site_fract_y
_atom_site_fract_z
Si Si1 0.869323 0.563431 0.744739
Si Si2 0.791599 0.790370 0.574534
Si Si3 0.336551 0.449891 0.105921
Si Si4 0.199917 0.505416 0.144296
Si Si5 0.069734 0.313638 0.724053
Si Si6 0.164748 0.174857 0.550701
Si Si7 0.570153 0.856165 0.579728
O O1 0.857859 0.573830 0.673916
O O2 0.811945 0.542041 0.789274
O O3 0.898480 0.688562 0.762768
O O4 0.904484 0.437267 0.750405
O O5 0.826940 0.668786 0.569928
O O6 0.812642 0.858236 0.633907
O O7 0.809920 0.860697 0.514690
O O8 0.720125 0.757735 0.575079
O O9 0.268147 0.496281 0.117822
O O10 0.384372 0.534176 0.073974
O O11 0.159523 0.427716 0.099195
O O12 0.071436 0.329266 0.651574
O O13 0.000000 0.303205 0.744065
O O14 0.102592 0.246908 0.547899
O O15 0.500000 0.876391 0.562047
#
# Coordination Sequence:
#
# PCOD9479062 Si02
#       7
#    16  16  16  16  16  16  16
#     4  11  21  35  59  87 119 160 198 253 305 355
#     4  10  21  36  60  84 121 151 198 252 298 362
#     4  10  22  36  54  88 120 155 197 242 308 352
#     4  11  20  36  58  87 121 152 197 252 307 363
#     4  10  21  37  57  83 119 162 208 244 292 368
#     4  10  20  37  59  87 113 158 200 246 300 357
#     4  10  20  39  61  83 118 158 200 241 293 368
#
# _framework density 20.112144000000001
#
# number of rings (size 3 to 8) (size 9 to 14) (size 15 to 20)
#    0.000    1.714    2.857    2.143    0.000    1.143 
#    0.000    4.286    0.000    4.286    0.000    0.000 
#    0.000    0.000    0.000    0.000    0.000    0.000 
#
# Total GULP energy -312030.622021 kJ/mol
# GULP energy per Si atom -5571.975393 kJ/mol
# Density = 2.006637 g / cm^3
# Si number density = 20.112144 Si / 1000 Ang^3
#
#
#
# Elastic Constant Matrix: (Units=GPa)
#
#
# Indices 1 2 3 4 5 6 
#
# 1 94.0147 48.1152 -2.8072 0.0000 0.0000 0.0000
# 2 48.1152 103.5499 2.2785 0.0000 0.0000 0.0000
# 3 -2.8072 2.2785 31.5818 0.0000 0.0000 0.0000
# 4 0.0000 0.0000 0.0000 28.0194 0.0000 0.0000
# 5 0.0000 0.0000 0.0000 0.0000 14.0808 0.0000
# 6 0.0000 0.0000 0.0000 0.0000 0.0000 24.1950
#
#
#
# Elastic Compliance Matrix: (Units=1/GPa)
#
#
# Indices 1 2 3 4 5 6 
#
# 1 0.014048 -0.006565 0.001722 0.000000 0.000000 0.000000
# 2 -0.006565 0.012741 -0.001503 0.000000 0.000000 0.000000
# 3 0.001722 -0.001503 0.031925 0.000000 0.000000 0.000000
# 4 0.000000 0.000000 0.000000 0.035690 0.000000 0.000000
# 5 0.000000 0.000000 0.000000 0.000000 0.071019 0.000000
# 6 0.000000 0.000000 0.000000 0.000000 0.000000 0.041331
#
#
# Mechanical properties :
#
#
# Convention : Reuss Voigt Hill
#
# Bulk Modulus (GPa) = 21.72846 36.03549 28.88197
# Shear Modulus (GPa) = 21.29597 25.36303 23.32950
#
# Velocity S-wave (km/s) = 3.25754 3.55502 3.40953
# Velocity P-wave (km/s) = 4.99759 5.89975 5.46731
#
# Compressibility (1/GPa) = 0.04602259
#
# Stress axis : x y z
#
# Youngs Moduli (GPa) = 71.18371 78.48716 31.32312
#
# Poissons Ratio (x) = 0.51531 -0.05395
# Poissons Ratio (y) = 0.46735 0.04707
# Poissons Ratio (z) = -0.12260 0.11795
#
# Static dielectric constant tensor:
#      x y z
#    x 1.716900 0.000000 0.000000 
#    y 0.000000 1.795350 0.000000 
#    z 0.000000 0.000000 1.693160 
# 
# From -- ./inp_files/46373.got.cif
#   From: 2010.05.17/outbox.cif.g08.bks.cpg/sg64_24_cif.got.tgz:46373.got - 2010.06.03 16:29:19.
