data_PCOD9479390
_publ_section_title
;
Structure prediction by ZEFSAII (Michael W. Deem and Ramdas Pophale) SiO2 
 PCOD9479390
Probable space group: C M C A
;
_chemical_formula_sum "Si O2"
_cell_formula_units_Z 80
_cell_length_a 21.003488
_cell_length_b 16.797065
_cell_length_c 8.925856
_cell_angle_alpha 90.000000
_cell_angle_beta 90.000000
_cell_angle_gamma 90.000000
_cell_volume 3149.014801
_symmetry_space_group_name_H-M "C M C A"
_symmetry_group_IT_number 64
_symmetry_cell_setting 'orthorhombic'
loop_
_space_group_symop_operation_xyz
x,y,z
-x,1/2-y,1/2+z
x,-y,-z
-x,1/2+y,1/2-z
-x,-y,-z
x,1/2+y,1/2-z
-x,y,z
x,1/2-y,1/2+z
1/2+x,1/2+y,z
1/2-x,-y,1/2+z
1/2+x,1/2-y,-z
1/2-x,y,1/2-z
1/2-x,1/2-y,-z
1/2+x,y,1/2-z
1/2-x,1/2+y,z
1/2+x,-y,1/2+z
loop_
_atom_site_type_symbol
_atom_site_label
_atom_site_fract_x
_atom_site_fract_y
_atom_site_fract_z
Si Si1 0.428354 0.893733 0.057032
Si Si2 0.619210 0.714641 0.085153
Si Si3 0.222606 0.654657 0.596847
Si Si4 0.905662 0.926489 0.106572
Si Si5 0.315132 0.893946 0.842389
O O1 0.500000 0.897393 0.996624
O O2 0.410959 0.800851 0.098831
O O3 0.428139 0.931294 0.223828
O O4 0.379687 0.924407 0.929050
O O5 0.576652 0.653068 0.987755
O O6 0.649755 0.667043 0.225860
O O7 0.250000 0.684706 0.750000
O O8 0.171081 0.584549 0.621974
O O9 0.277206 0.624384 0.493253
O O10 0.180951 0.722306 0.520388
O O11 0.920392 0.000000 0.000000
O O12 0.250000 0.924361 0.750000
#
# Coordination Sequence:
#
# PCOD9479390 Si02
#       5
#    16  16  16  16  16
#     4  12  25  43  67 101 147 204 257 308 373 451
#     4   9  22  38  61 102 139 190 243 313 366 444
#     4   9  18  40  63 101 138 191 238 310 381 449
#     4  10  23  45  68 103 144 193 249 317 382 451
#     4  10  20  39  64 101 136 185 242 314 372 438
#
# _framework density 25.404771
#
# number of rings (size 3 to 8) (size 9 to 14) (size 15 to 20)
#    1.200    0.800    2.000    1.200    0.000    7.600 
#    7.200    1.000    0.000    1.200    0.000    0.000 
#    0.000    0.000    0.000    0.000    0.000    0.200 
#
# Total GULP energy -222732.994930 kJ/mol
# GULP energy per Si atom -5568.324873 kJ/mol
# Density = 2.534695 g / cm^3
# Si number density = 25.404771 Si / 1000 Ang^3
#
#
#
# Elastic Constant Matrix: (Units=GPa)
#
#
# Indices 1 2 3 4 5 6 
#
# 1 188.5539 34.0003 58.4417 0.0000 0.0000 0.0000
# 2 34.0003 94.8728 45.3358 0.0000 0.0000 0.0000
# 3 58.4417 45.3358 186.4457 0.0000 0.0000 0.0000
# 4 0.0000 0.0000 0.0000 41.1618 0.0000 0.0000
# 5 0.0000 0.0000 0.0000 0.0000 -27.7036 0.0000
# 6 0.0000 0.0000 0.0000 0.0000 0.0000 -15.0385
#
#
#
# Elastic Compliance Matrix: (Units=1/GPa)
#
#
# Indices 1 2 3 4 5 6 
#
# 1 0.006040 -0.001426 -0.001547 0.000000 0.000000 0.000000
# 2 -0.001426 0.012263 -0.002535 0.000000 0.000000 0.000000
# 3 -0.001547 -0.002535 0.006465 0.000000 0.000000 0.000000
# 4 0.000000 0.000000 0.000000 0.024294 0.000000 0.000000
# 5 0.000000 0.000000 0.000000 0.000000 -0.036096 0.000000
# 6 0.000000 0.000000 0.000000 0.000000 0.000000 -0.066496
#
#
# Mechanical properties :
#
#
# Convention : Reuss Voigt Hill
#
# Bulk Modulus (GPa) = 72.71066 82.82534 77.76800
# Shear Modulus (GPa) = -131.81329 21.82358 -54.99485
#
# Velocity S-wave (km/s) = -7.21096 2.93411 -4.65773
# Velocity P-wave (km/s) = 6.37554 6.64468 1.32367
#
# Compressibility (1/GPa) = 0.01375314
#
# Stress axis : x y z
#
# Youngs Moduli (GPa) = 165.56450 81.54844 154.68694
#
# Poissons Ratio (x) = 0.11625 0.23924
# Poissons Ratio (y) = 0.23602 0.39212
# Poissons Ratio (z) = 0.25606 0.20672
#
# Static dielectric constant tensor:
#      x y z
#    x 2.056360 0.000000 0.000000 
#    y 0.000000 2.209190 0.000000 
#    z 0.000000 0.000000 2.051560 
# 
# From -- ./inp_files/10185.got.cif
#   From: 2010.05.17/outbox.cif.g08.bks.cpg/sg64_6_cif.got.tgz:10185.got - 2010.06.03 16:29:19.
