data_PCOD9479117
_publ_section_title
;
Structure prediction by ZEFSAII (Michael W. Deem and Ramdas Pophale) SiO2 
 PCOD9479117
Probable space group: C M C A
;
_chemical_formula_sum "Si O2"
_cell_formula_units_Z 88
_cell_length_a 20.387361
_cell_length_b 13.770970
_cell_length_c 14.244546
_cell_angle_alpha 90.000000
_cell_angle_beta 90.000000
_cell_angle_gamma 90.000000
_cell_volume 3999.209517
_symmetry_space_group_name_H-M "C M C A"
_symmetry_group_IT_number 64
_symmetry_cell_setting 'orthorhombic'
loop_
_space_group_symop_operation_xyz
x,y,z
-x,1/2-y,1/2+z
x,-y,-z
-x,1/2+y,1/2-z
-x,-y,-z
x,1/2+y,1/2-z
-x,y,z
x,1/2-y,1/2+z
1/2+x,1/2+y,z
1/2-x,-y,1/2+z
1/2+x,1/2-y,-z
1/2-x,y,1/2-z
1/2-x,1/2-y,-z
1/2+x,y,1/2-z
1/2-x,1/2+y,z
1/2+x,-y,1/2+z
loop_
_atom_site_type_symbol
_atom_site_label
_atom_site_fract_x
_atom_site_fract_y
_atom_site_fract_z
Si Si1 0.575183 0.802665 0.158292
Si Si2 0.184494 0.285531 0.307388
Si Si3 0.849461 0.158980 0.481704
Si Si4 0.312795 0.017577 0.313924
Si Si5 0.748130 0.500000 0.000000
Si Si6 0.574550 0.462093 0.673958
O O1 0.500000 0.769707 0.162764
O O2 0.620109 0.766963 0.243839
O O3 0.574647 0.921154 0.160362
O O4 0.610621 0.782288 0.059617
O O5 0.250000 0.261174 0.250000
O O6 0.182769 0.229364 0.405158
O O7 0.183431 0.401050 0.321053
O O8 0.796918 0.087136 0.531277
O O9 0.896412 0.090471 0.417880
O O10 0.250000 0.041038 0.250000
O O11 0.295574 0.046793 0.418947
O O12 0.376923 0.054434 0.261466
O O13 0.500000 0.431062 0.690127
#
# Coordination Sequence:
#
# PCOD9479117 Si02
#       6
#    16  16  16  16   8  16
#     4  10  21  40  62  87 121 159 198 249 307 363
#     4  10  24  39  59  86 126 161 198 248 312 369
#     4  12  21  37  63  96 120 159 210 259 305 365
#     4  10  20  41  58  87 124 157 200 251 305 368
#     4  12  22  34  66  92 120 160 208 258 308 350
#     4  10  20  37  62  88 117 156 203 255 302 354
#
# _framework density 22.004349000000001
#
# number of rings (size 3 to 8) (size 9 to 14) (size 15 to 20)
#    0.000    1.455    3.636    2.727    2.545    5.818 
#    0.000    0.455    0.000    0.000    0.000    0.000 
#    0.000    0.000    0.000    0.000    0.000    0.000 
#
# Total GULP energy -246181.824804 kJ/mol
# GULP energy per Si atom -5595.041473 kJ/mol
# Density = 2.195427 g / cm^3
# Si number density = 22.004349 Si / 1000 Ang^3
#
#
#
# Elastic Constant Matrix: (Units=GPa)
#
#
# Indices 1 2 3 4 5 6 
#
# 1 139.0437 -5.8027 42.1640 0.0000 0.0000 0.0000
# 2 -5.8027 71.6846 -20.1621 0.0000 0.0000 0.0000
# 3 42.1640 -20.1621 77.7799 0.0000 0.0000 0.0000
# 4 0.0000 0.0000 0.0000 27.2111 0.0000 0.0000
# 5 0.0000 0.0000 0.0000 0.0000 8.1218 0.0000
# 6 0.0000 0.0000 0.0000 0.0000 0.0000 -9.0728
#
#
#
# Elastic Compliance Matrix: (Units=1/GPa)
#
#
# Indices 1 2 3 4 5 6 
#
# 1 0.008636 -0.000666 -0.004854 0.000000 0.000000 0.000000
# 2 -0.000666 0.015098 0.004275 0.000000 0.000000 0.000000
# 3 -0.004854 0.004275 0.016596 0.000000 0.000000 0.000000
# 4 0.000000 0.000000 0.000000 0.036750 0.000000 0.000000
# 5 0.000000 0.000000 0.000000 0.000000 0.123125 0.000000
# 6 0.000000 0.000000 0.000000 0.000000 0.000000 -0.110220
#
#
# Mechanical properties :
#
#
# Convention : Reuss Voigt Hill
#
# Bulk Modulus (GPa) = 26.42708 35.65626 31.04167
# Shear Modulus (GPa) = 47.57818 23.40597 35.49207
#
# Velocity S-wave (km/s) = 4.65501 3.26498 4.02052
# Velocity P-wave (km/s) = 6.39751 5.51840 5.97415
#
# Compressibility (1/GPa) = 0.03783997
#
# Stress axis : x y z
#
# Youngs Moduli (GPa) = 115.79135 66.23190 60.25374
#
# Poissons Ratio (x) = 0.04413 0.29249
# Poissons Ratio (y) = 0.07715 -0.25759
# Poissons Ratio (z) = 0.56209 -0.28314
#
# Static dielectric constant tensor:
#      x y z
#    x 1.798750 0.000000 0.000000 
#    y 0.000000 1.833720 0.000000 
#    z 0.000000 0.000000 1.787400 
# 
# From -- ./inp_files/26188.got.cif
#   From: 2010.05.17/outbox.cif.g08.bks.cpg/sg64_14_cif.got.tgz:26188.got - 2010.06.03 16:29:19.
