data_PCOD9479913
_publ_section_title
;
Structure prediction by ZEFSAII (Michael W. Deem and Ramdas Pophale) SiO2 
 PCOD9479913
Probable space group: C M C A
;
_chemical_formula_sum "Si O2"
_cell_formula_units_Z 96
_cell_length_a 15.379618
_cell_length_b 13.074647
_cell_length_c 22.180436
_cell_angle_alpha 90.000000
_cell_angle_beta 90.000000
_cell_angle_gamma 90.000000
_cell_volume 4460.110306
_symmetry_space_group_name_H-M "C M C A"
_symmetry_group_IT_number 64
_symmetry_cell_setting 'orthorhombic'
loop_
_space_group_symop_operation_xyz
x,y,z
-x,1/2-y,1/2+z
x,-y,-z
-x,1/2+y,1/2-z
-x,-y,-z
x,1/2+y,1/2-z
-x,y,z
x,1/2-y,1/2+z
1/2+x,1/2+y,z
1/2-x,-y,1/2+z
1/2+x,1/2-y,-z
1/2-x,y,1/2-z
1/2-x,1/2-y,-z
1/2+x,y,1/2-z
1/2-x,1/2+y,z
1/2+x,-y,1/2+z
loop_
_atom_site_type_symbol
_atom_site_label
_atom_site_fract_x
_atom_site_fract_y
_atom_site_fract_z
Si Si1 0.738625 0.500000 0.500000
Si Si2 0.399337 0.259614 0.096138
Si Si3 0.101552 0.048756 0.841059
Si Si4 0.100884 0.845701 0.474619
Si Si5 0.794937 0.824995 0.689667
Si Si6 0.750000 0.475778 0.250000
Si Si7 0.840955 0.146496 0.090869
O O1 0.670822 0.433289 0.458906
O O2 0.798341 0.576826 0.461256
O O3 0.500000 0.267247 0.081796
O O4 0.369912 0.376223 0.104405
O O5 0.384788 0.212871 0.162702
O O6 0.367900 0.190562 0.041369
O O7 0.170616 0.071173 0.787755
O O8 0.000000 0.067622 0.825677
O O9 0.110086 0.932899 0.864841
O O10 0.107299 0.741717 0.436120
O O11 0.000000 0.880869 0.474491
O O12 0.750000 0.781364 0.750000
O O13 0.732252 0.804241 0.633600
O O14 0.795862 0.945770 0.702942
#
# Coordination Sequence:
#
# PCOD9479913 Si02
#       7
#     8  16  16  16  16   8  16
#     4  12  23  38  67  96 128 168 214 268 328 398
#     4  10  21  37  60  90 126 165 206 263 330 385
#     4  10  21  38  61  91 125 165 216 270 319 384
#     4  11  24  42  63  96 134 168 211 270 331 390
#     4   9  20  39  56  86 118 164 210 257 315 377
#     4   8  20  36  58  86 114 166 212 266 314 378
#     4  11  22  39  65  94 123 166 214 261 321 388
#
# _framework density 21.524131000000001
#
# number of rings (size 3 to 8) (size 9 to 14) (size 15 to 20)
#    0.500    1.333    1.667    2.250    3.500    0.667 
#    0.000    3.333    0.000    4.000    0.000    0.000 
#    0.000    0.000    0.000    0.000    0.000    0.000 
#
# Total GULP energy -267242.612553 kJ/mol
# GULP energy per Si atom -5567.554428 kJ/mol
# Density = 2.147514 g / cm^3
# Si number density = 21.524131 Si / 1000 Ang^3
#
#
#
# Elastic Constant Matrix: (Units=GPa)
#
#
# Indices 1 2 3 4 5 6 
#
# 1 68.9457 18.5139 15.6793 0.0000 0.0000 0.0000
# 2 18.5139 53.2530 -7.5784 0.0000 0.0000 0.0000
# 3 15.6793 -7.5784 65.1206 0.0000 0.0000 0.0000
# 4 0.0000 0.0000 0.0000 24.7717 0.0000 0.0000
# 5 0.0000 0.0000 0.0000 0.0000 24.9350 0.0000
# 6 0.0000 0.0000 0.0000 0.0000 0.0000 30.4933
#
#
#
# Elastic Compliance Matrix: (Units=1/GPa)
#
#
# Indices 1 2 3 4 5 6 
#
# 1 0.017461 -0.006781 -0.004993 0.000000 0.000000 0.000000
# 2 -0.006781 0.021728 0.004161 0.000000 0.000000 0.000000
# 3 -0.004993 0.004161 0.017043 0.000000 0.000000 0.000000
# 4 0.000000 0.000000 0.000000 0.040369 0.000000 0.000000
# 5 0.000000 0.000000 0.000000 0.000000 0.040104 0.000000
# 6 0.000000 0.000000 0.000000 0.000000 0.000000 0.032794
#
#
# Mechanical properties :
#
#
# Convention : Reuss Voigt Hill
#
# Bulk Modulus (GPa) = 24.38700 26.72764 25.55732
# Shear Modulus (GPa) = 25.20260 26.75363 25.97811
#
# Velocity S-wave (km/s) = 3.42555 3.52939 3.47786
# Velocity P-wave (km/s) = 5.19621 5.39011 5.29404
#
# Compressibility (1/GPa) = 0.04100545
#
# Stress axis : x y z
#
# Youngs Moduli (GPa) = 57.27190 46.02374 58.67646
#
# Poissons Ratio (x) = 0.31208 0.29298
# Poissons Ratio (y) = 0.38836 -0.24417
# Poissons Ratio (z) = 0.28597 -0.19152
#
# Static dielectric constant tensor:
#      x y z
#    x 1.837340 0.000000 0.000000 
#    y 0.000000 1.847560 0.000000 
#    z 0.000000 0.000000 1.809090 
# 
# From -- ./inp_files/39262.got.cif
#   From: 2010.05.17/outbox.cif.g08.bks.cpg/sg64_20_cif.got.tgz:39262.got - 2010.06.03 16:29:19.
