data_PCOD9479309
_publ_section_title
;
Structure prediction by ZEFSAII (Michael W. Deem and Ramdas Pophale) SiO2 
 PCOD9479309
Probable space group: C M C A
;
_chemical_formula_sum "Si O2"
_cell_formula_units_Z 80
_cell_length_a 19.862195
_cell_length_b 15.039611
_cell_length_c 11.807115
_cell_angle_alpha 90.000000
_cell_angle_beta 90.000000
_cell_angle_gamma 90.000000
_cell_volume 3527.017690
_symmetry_space_group_name_H-M "C M C A"
_symmetry_group_IT_number 64
_symmetry_cell_setting 'orthorhombic'
loop_
_space_group_symop_operation_xyz
x,y,z
-x,1/2-y,1/2+z
x,-y,-z
-x,1/2+y,1/2-z
-x,-y,-z
x,1/2+y,1/2-z
-x,y,z
x,1/2-y,1/2+z
1/2+x,1/2+y,z
1/2-x,-y,1/2+z
1/2+x,1/2-y,-z
1/2-x,y,1/2-z
1/2-x,1/2-y,-z
1/2+x,y,1/2-z
1/2-x,1/2+y,z
1/2+x,-y,1/2+z
loop_
_atom_site_type_symbol
_atom_site_label
_atom_site_fract_x
_atom_site_fract_y
_atom_site_fract_z
Si Si1 0.677880 0.330489 0.450353
Si Si2 0.925892 0.609148 0.320947
Si Si3 0.923863 0.757244 0.126882
Si Si4 0.923984 0.417061 0.216748
Si Si5 0.281106 0.644362 0.128022
O O1 0.628828 0.279027 0.537585
O O2 0.632054 0.391927 0.373291
O O3 0.713724 0.252335 0.378975
O O4 0.731959 0.381264 0.526444
O O5 0.920743 0.694080 0.238001
O O6 0.923856 0.520130 0.246684
O O7 0.856811 0.609793 0.389544
O O8 0.000000 0.611410 0.377632
O O9 0.911867 0.856397 0.172332
O O10 0.000000 0.750082 0.082353
O O11 0.000000 0.393412 0.176849
O O12 0.250000 0.619059 0.250000
#
# Coordination Sequence:
#
# PCOD9479309 Si02
#       5
#    16  16  16  16  16
#     4  11  21  37  67  91 124 170 212 261 315 390
#     4  10  21  40  65  89 126 167 206 264 318 374
#     4  10  20  38  64  92 125 162 206 268 322 372
#     4  10  21  39  65  96 127 166 215 260 319 387
#     4  11  22  41  62  89 129 166 209 260 319 377
#
# _framework density 22.682053
#
# number of rings (size 3 to 8) (size 9 to 14) (size 15 to 20)
#    0.000    1.600    4.000    0.600    0.000    1.600 
#    0.000   11.000    0.000    3.600    0.000    0.000 
#    0.000    0.000    0.000    0.000    0.000    0.000 
#
# Total GULP energy -223729.743611 kJ/mol
# GULP energy per Si atom -5593.243590 kJ/mol
# Density = 2.263043 g / cm^3
# Si number density = 22.682053 Si / 1000 Ang^3
#
#
#
# Elastic Constant Matrix: (Units=GPa)
#
#
# Indices 1 2 3 4 5 6 
#
# 1 164.0449 3.3342 67.0324 0.0000 0.0000 0.0000
# 2 3.3342 45.3344 4.3541 0.0000 0.0000 0.0000
# 3 67.0324 4.3541 48.9889 0.0000 0.0000 0.0000
# 4 0.0000 0.0000 0.0000 11.8351 0.0000 0.0000
# 5 0.0000 0.0000 0.0000 0.0000 37.7313 0.0000
# 6 0.0000 0.0000 0.0000 0.0000 0.0000 21.3806
#
#
#
# Elastic Compliance Matrix: (Units=1/GPa)
#
#
# Indices 1 2 3 4 5 6 
#
# 1 0.013856 0.000809 -0.019032 0.000000 0.000000 0.000000
# 2 0.000809 0.022295 -0.003088 0.000000 0.000000 0.000000
# 3 -0.019032 -0.003088 0.046729 0.000000 0.000000 0.000000
# 4 0.000000 0.000000 0.000000 0.084494 0.000000 0.000000
# 5 0.000000 0.000000 0.000000 0.000000 0.026503 0.000000
# 6 0.000000 0.000000 0.000000 0.000000 0.000000 0.046771
#
#
# Mechanical properties :
#
#
# Convention : Reuss Voigt Hill
#
# Bulk Modulus (GPa) = 24.83980 45.31220 35.07600
# Shear Modulus (GPa) = 16.85258 26.43258 21.64258
#
# Velocity S-wave (km/s) = 2.72874 3.41743 3.09232
# Velocity P-wave (km/s) = 4.57200 5.96592 5.31486
#
# Compressibility (1/GPa) = 0.04025797
#
# Stress axis : x y z
#
# Youngs Moduli (GPa) = 72.16999 44.85227 21.40022
#
# Poissons Ratio (x) = -0.03628 0.40728
# Poissons Ratio (y) = -0.05837 0.06609
# Poissons Ratio (z) = 1.37351 0.13852
#
# Static dielectric constant tensor:
#      x y z
#    x 1.878540 0.000000 0.000000 
#    y 0.000000 1.811470 0.000000 
#    z 0.000000 0.000000 1.826310 
# 
# From -- ./inp_files/18057.got.cif
#   From: 2010.05.17/outbox.cif.g08.bks.cpg/sg64_10_cif.got.tgz:18057.got - 2010.06.03 16:29:19.
