data_PCOD9479929
_publ_section_title
;
Structure prediction by ZEFSAII (Michael W. Deem and Ramdas Pophale) SiO2 
 PCOD9479929
Probable space group: C M C A
;
_chemical_formula_sum "Si O2"
_cell_formula_units_Z 112
_cell_length_a 14.391529
_cell_length_b 11.529762
_cell_length_c 28.017557
_cell_angle_alpha 90.000000
_cell_angle_beta 90.000000
_cell_angle_gamma 90.000000
_cell_volume 4648.978566
_symmetry_space_group_name_H-M "C M C A"
_symmetry_group_IT_number 64
_symmetry_cell_setting 'orthorhombic'
loop_
_space_group_symop_operation_xyz
x,y,z
-x,1/2-y,1/2+z
x,-y,-z
-x,1/2+y,1/2-z
-x,-y,-z
x,1/2+y,1/2-z
-x,y,z
x,1/2-y,1/2+z
1/2+x,1/2+y,z
1/2-x,-y,1/2+z
1/2+x,1/2-y,-z
1/2-x,y,1/2-z
1/2-x,1/2-y,-z
1/2+x,y,1/2-z
1/2-x,1/2+y,z
1/2+x,-y,1/2+z
loop_
_atom_site_type_symbol
_atom_site_label
_atom_site_fract_x
_atom_site_fract_y
_atom_site_fract_z
Si Si1 0.607334 0.387618 0.173621
Si Si2 0.391650 0.125381 0.482917
Si Si3 0.390086 0.380378 0.475483
Si Si4 0.894232 0.980279 0.614625
Si Si5 0.193438 0.422220 0.613642
Si Si6 0.604563 0.576590 0.719159
Si Si7 0.744503 0.217873 0.299484
O O1 0.500000 0.377286 0.159636
O O2 0.666257 0.450366 0.132554
O O3 0.609969 0.456071 0.224706
O O4 0.655369 0.264417 0.184009
O O5 0.500000 0.125167 0.496914
O O6 0.354096 0.255457 0.493686
O O7 0.376793 0.116175 0.426463
O O8 0.352328 0.000000 0.500000
O O9 0.356138 0.500000 0.500000
O O10 0.500000 0.376158 0.485605
O O11 0.383178 0.403559 0.418217
O O12 0.801800 0.912308 0.599002
O O13 0.000000 0.937661 0.604801
O O14 0.886092 0.996783 0.671987
O O15 0.188563 0.344935 0.660087
O O16 0.500000 0.626721 0.714635
O O17 0.684401 0.669353 0.712382
O O18 0.750000 0.148671 0.250000
#
# Coordination Sequence:
#
# PCOD9479929 Si02
#       7
#    16  16  16  16  16  16  16
#     4  10  22  40  61  90 134 178 222 279 348 420
#     4  10  23  45  71 103 142 180 228 296 368 429
#     4   9  19  41  71  98 127 173 228 281 343 418
#     4  10  21  37  61  93 128 172 226 285 341 410
#     4  12  24  38  67  97 128 178 230 285 348 428
#     4   9  18  37  61  86 126 175 221 277 341 407
#     4  10  22  37  60  91 132 173 225 282 342 409
#
# _framework density 24.091313
#
# number of rings (size 3 to 8) (size 9 to 14) (size 15 to 20)
#    0.000    2.000    1.429    1.286    2.000    3.429 
#    2.571    1.429    0.000    0.000    0.000    0.000 
#    0.000    0.571    0.000    0.000    0.000    0.000 
#
# Total GULP energy -312139.222813 kJ/mol
# GULP energy per Si atom -5573.914693 kJ/mol
# Density = 2.403648 g / cm^3
# Si number density = 24.091313 Si / 1000 Ang^3
#
#
#
# Elastic Constant Matrix: (Units=GPa)
#
#
# Indices 1 2 3 4 5 6 
#
# 1 94.7332 11.4432 -20.3807 0.0000 0.0000 0.0000
# 2 11.4432 121.5265 31.7636 0.0000 0.0000 0.0000
# 3 -20.3807 31.7636 67.8619 0.0000 0.0000 0.0000
# 4 0.0000 0.0000 0.0000 29.9352 0.0000 0.0000
# 5 0.0000 0.0000 0.0000 0.0000 23.3940 0.0000
# 6 0.0000 0.0000 0.0000 0.0000 0.0000 -12.5678
#
#
#
# Elastic Compliance Matrix: (Units=1/GPa)
#
#
# Indices 1 2 3 4 5 6 
#
# 1 0.011836 -0.002329 0.004645 0.000000 0.000000 0.000000
# 2 -0.002329 0.009834 -0.005302 0.000000 0.000000 0.000000
# 3 0.004645 -0.005302 0.018612 0.000000 0.000000 0.000000
# 4 0.000000 0.000000 0.000000 0.033406 0.000000 0.000000
# 5 0.000000 0.000000 0.000000 0.000000 0.042746 0.000000
# 6 0.000000 0.000000 0.000000 0.000000 0.000000 -0.079568
#
#
# Mechanical properties :
#
#
# Convention : Reuss Voigt Hill
#
# Bulk Modulus (GPa) = 29.14538 36.64153 32.89345
# Shear Modulus (GPa) = 92.12385 25.57197 58.84791
#
# Velocity S-wave (km/s) = 6.19051 3.26154 4.94773
# Velocity P-wave (km/s) = 7.95115 5.42457 6.80613
#
# Compressibility (1/GPa) = 0.03431075
#
# Stress axis : x y z
#
# Youngs Moduli (GPa) = 84.48455 101.69066 53.72749
#
# Poissons Ratio (x) = 0.23679 -0.24955
# Poissons Ratio (y) = 0.19673 0.28487
# Poissons Ratio (z) = -0.39241 0.53918
#
# Static dielectric constant tensor:
#      x y z
#    x 1.897450 0.000000 0.000000 
#    y 0.000000 1.974510 0.000000 
#    z 0.000000 0.000000 1.990830 
# 
# From -- ./inp_files/53285.got.cif
#   From: 2010.05.17/outbox.cif.g08.bks.cpg/sg64_27_cif.got.tgz:53285.got - 2010.06.03 16:29:19.
