data_PCOD9479718
_publ_section_title
;
Structure prediction by ZEFSAII (Michael W. Deem and Ramdas Pophale) SiO2 
 PCOD9479718
Probable space group: C M C A
;
_chemical_formula_sum "Si O2"
_cell_formula_units_Z 56
_cell_length_a 14.544300
_cell_length_b 32.614542
_cell_length_c 5.038976
_cell_angle_alpha 90.000000
_cell_angle_beta 90.000000
_cell_angle_gamma 90.000000
_cell_volume 2390.266903
_symmetry_space_group_name_H-M "C M C A"
_symmetry_group_IT_number 64
_symmetry_cell_setting 'orthorhombic'
loop_
_space_group_symop_operation_xyz
x,y,z
-x,1/2-y,1/2+z
x,-y,-z
-x,1/2+y,1/2-z
-x,-y,-z
x,1/2+y,1/2-z
-x,y,z
x,1/2-y,1/2+z
1/2+x,1/2+y,z
1/2-x,-y,1/2+z
1/2+x,1/2-y,-z
1/2-x,y,1/2-z
1/2-x,1/2-y,-z
1/2+x,y,1/2-z
1/2-x,1/2+y,z
1/2+x,-y,1/2+z
loop_
_atom_site_type_symbol
_atom_site_label
_atom_site_fract_x
_atom_site_fract_y
_atom_site_fract_z
Si Si1 0.392587 0.149420 0.867859
Si Si2 0.392093 0.095230 0.384906
Si Si3 0.250000 0.973455 0.750000
Si Si4 0.852367 0.266901 0.851615
O O1 0.500000 0.159165 0.825338
O O2 0.356792 0.128996 0.597652
O O3 0.386809 0.115178 0.095181
O O4 0.350853 0.190141 0.996683
O O5 0.500000 0.086890 0.446847
O O6 0.329470 0.055280 0.373450
O O7 0.214987 0.000000 0.500000
O O8 0.896810 0.264938 0.559330
O O9 0.750000 0.256336 0.750000
#
# Coordination Sequence:
#
# PCOD9479718 Si02
#       4
#    16  16   8  16
#     4  10  21  39  63  90 124 171 220 264 320 376
#     4  10  23  43  65  96 130 165 213 268 320 384
#     4  12  26  44  68 102 128 164 212 252 334 416
#     4  10  21  36  54  87 128 167 213 266 321 365
#
# _framework density 23.428346999999999
#
# number of rings (size 3 to 8) (size 9 to 14) (size 15 to 20)
#    0.000    1.714    0.000    3.429    2.000    2.286 
#    0.000    0.000    0.000    0.000    0.000    0.000 
#    0.000    0.000    0.000    0.000    0.000    0.000 
#
# Total GULP energy -156409.472734 kJ/mol
# GULP energy per Si atom -5586.052598 kJ/mol
# Density = 2.337502 g / cm^3
# Si number density = 23.428347 Si / 1000 Ang^3
#
#
#
# Elastic Constant Matrix: (Units=GPa)
#
#
# Indices 1 2 3 4 5 6 
#
# 1 79.8738 38.8210 20.9355 0.0000 0.0000 0.0000
# 2 38.8210 111.5333 35.9318 0.0000 0.0000 0.0000
# 3 20.9355 35.9318 156.9039 0.0000 0.0000 0.0000
# 4 0.0000 0.0000 0.0000 45.9050 0.0000 0.0000
# 5 0.0000 0.0000 0.0000 0.0000 15.4255 0.0000
# 6 0.0000 0.0000 0.0000 0.0000 0.0000 51.8317
#
#
#
# Elastic Compliance Matrix: (Units=1/GPa)
#
#
# Indices 1 2 3 4 5 6 
#
# 1 0.015181 -0.005000 -0.000880 0.000000 0.000000 0.000000
# 2 -0.005000 0.011327 -0.001927 0.000000 0.000000 0.000000
# 3 -0.000880 -0.001927 0.006932 0.000000 0.000000 0.000000
# 4 0.000000 0.000000 0.000000 0.021784 0.000000 0.000000
# 5 0.000000 0.000000 0.000000 0.000000 0.064828 0.000000
# 6 0.000000 0.000000 0.000000 0.000000 0.000000 0.019293
#
#
# Mechanical properties :
#
#
# Convention : Reuss Voigt Hill
#
# Bulk Modulus (GPa) = 56.10130 59.96529 58.03330
# Shear Modulus (GPa) = 31.07491 39.47396 35.27443
#
# Velocity S-wave (km/s) = 3.64590 4.10918 3.88445
# Velocity P-wave (km/s) = 6.45921 6.94007 6.70395
#
# Compressibility (1/GPa) = 0.01782490
#
# Stress axis : x y z
#
# Youngs Moduli (GPa) = 65.87264 88.28391 144.25750
#
# Poissons Ratio (x) = 0.44144 0.12701
# Poissons Ratio (y) = 0.32938 0.27795
# Poissons Ratio (z) = 0.05800 0.17010
#
# Static dielectric constant tensor:
#      x y z
#    x 2.046410 0.000000 0.000000 
#    y 0.000000 1.883230 0.000000 
#    z 0.000000 0.000000 1.990920 
# 
# From -- ./inp_files/877.got.cif
#   From: 2010.05.17/outbox.cif.g08.bks.cpg/sg64_1_cif.got.tgz:877.got - 2010.06.03 16:29:19.
