data_PCOD9480617
_publ_section_title
;
Structure prediction by ZEFSAII (Michael W. Deem and Ramdas Pophale) SiO2 
 PCOD9480617
Probable space group: C M C A
;
_chemical_formula_sum "Si O2"
_cell_formula_units_Z 80
_cell_length_a 13.633406
_cell_length_b 29.422985
_cell_length_c 9.142716
_cell_angle_alpha 90.000000
_cell_angle_beta 90.000000
_cell_angle_gamma 90.000000
_cell_volume 3667.467956
_symmetry_space_group_name_H-M "C M C A"
_symmetry_group_IT_number 64
_symmetry_cell_setting 'orthorhombic'
loop_
_space_group_symop_operation_xyz
x,y,z
-x,1/2-y,1/2+z
x,-y,-z
-x,1/2+y,1/2-z
-x,-y,-z
x,1/2+y,1/2-z
-x,y,z
x,1/2-y,1/2+z
1/2+x,1/2+y,z
1/2-x,-y,1/2+z
1/2+x,1/2-y,-z
1/2-x,y,1/2-z
1/2-x,1/2-y,-z
1/2+x,y,1/2-z
1/2-x,1/2+y,z
1/2+x,-y,1/2+z
loop_
_atom_site_type_symbol
_atom_site_label
_atom_site_fract_x
_atom_site_fract_y
_atom_site_fract_z
Si Si1 0.116670 0.632614 0.170291
Si Si2 0.223400 0.042740 0.417909
Si Si3 0.379994 0.220025 0.992872
Si Si4 0.619684 0.692365 0.832813
Si Si5 0.883395 0.104457 0.996834
O O1 0.158767 0.588359 0.089925
O O2 0.136587 0.626447 0.342571
O O3 0.000000 0.632183 0.153817
O O4 0.151619 0.680010 0.102741
O O5 0.250000 0.031418 0.250000
O O6 0.321349 0.058531 0.503395
O O7 0.177925 0.000000 0.500000
O O8 0.500000 0.220550 0.993330
O O9 0.350430 0.207377 0.828847
O O10 0.350120 0.269424 0.050264
O O11 0.500000 0.691749 0.834832
O O12 0.649030 0.641831 0.879295
O O13 0.000000 0.096617 0.985045
#
# Coordination Sequence:
#
# PCOD9480617 Si02
#       5
#    16  16  16  16  16
#     4   9  18  34  54  75 102 135 169 207 251 298
#     4  10  22  38  55  76 101 130 167 212 260 306
#     4   9  16  27  47  76 107 138 171 206 246 295
#     4   9  16  27  47  76 107 138 171 206 246 295
#     4   9  18  34  54  75 102 135 169 207 251 298
#
# _framework density 21.813414999999999
#
# number of rings (size 3 to 8) (size 9 to 14) (size 15 to 20)
#    0.000    2.800    0.000    1.200    0.000    7.200 
#    0.000    1.000    0.000    0.000    0.000    0.000 
#    0.000    0.000    0.000    0.000    0.000    0.000 
#
# Total GULP energy -223617.904627 kJ/mol
# GULP energy per Si atom -5590.447616 kJ/mol
# Density = 2.176377 g / cm^3
# Si number density = 21.813415 Si / 1000 Ang^3
#
#
#
# Elastic Constant Matrix: (Units=GPa)
#
#
# Indices 1 2 3 4 5 6 
#
# 1 51.0285 11.2439 9.7056 0.0000 0.0000 0.0000
# 2 11.2439 76.7972 14.8058 0.0000 0.0000 0.0000
# 3 9.7056 14.8058 39.4712 0.0000 0.0000 0.0000
# 4 0.0000 0.0000 0.0000 38.6946 0.0000 0.0000
# 5 0.0000 0.0000 0.0000 0.0000 24.5750 0.0000
# 6 0.0000 0.0000 0.0000 0.0000 0.0000 28.0372
#
#
#
# Elastic Compliance Matrix: (Units=1/GPa)
#
#
# Indices 1 2 3 4 5 6 
#
# 1 0.020907 -0.002231 -0.004304 0.000000 0.000000 0.000000
# 2 -0.002231 0.014274 -0.004806 0.000000 0.000000 0.000000
# 3 -0.004304 -0.004806 0.028196 0.000000 0.000000 0.000000
# 4 0.000000 0.000000 0.000000 0.025843 0.000000 0.000000
# 5 0.000000 0.000000 0.000000 0.000000 0.040692 0.000000
# 6 0.000000 0.000000 0.000000 0.000000 0.000000 0.035667
#
#
# Mechanical properties :
#
#
# Convention : Reuss Voigt Hill
#
# Bulk Modulus (GPa) = 24.57263 26.53414 25.55339
# Shear Modulus (GPa) = 24.77373 27.03081 25.90227
#
# Velocity S-wave (km/s) = 3.37369 3.52402 3.44967
# Velocity P-wave (km/s) = 5.14442 5.36180 5.25423
#
# Compressibility (1/GPa) = 0.04069568
#
# Stress axis : x y z
#
# Youngs Moduli (GPa) = 47.83055 70.05505 35.46615
#
# Poissons Ratio (x) = 0.15631 0.15264
# Poissons Ratio (y) = 0.10672 0.17044
# Poissons Ratio (z) = 0.20586 0.33667
#
# Static dielectric constant tensor:
#      x y z
#    x 1.872370 0.000000 0.000000 
#    y 0.000000 1.726740 0.000000 
#    z 0.000000 0.000000 1.765160 
# 
# From -- ./inp_files/7266.got.cif
#   From: 2010.05.17/outbox.cif.g08.bks.cpg/sg64_4_cif.got.tgz:7266.got - 2010.06.03 16:29:19.
