data_PCOD9480203
_publ_section_title
;
Structure prediction by ZEFSAII (Michael W. Deem and Ramdas Pophale) SiO2 
 PCOD9480203
Probable space group: C M C A
;
_chemical_formula_sum "Si O2"
_cell_formula_units_Z 84
_cell_length_a 22.276969
_cell_length_b 18.101175
_cell_length_c 11.202051
_cell_angle_alpha 90.000000
_cell_angle_beta 90.000000
_cell_angle_gamma 90.000000
_cell_volume 4517.107364
_symmetry_space_group_name_H-M "C M C A"
_symmetry_group_IT_number 64
_symmetry_cell_setting 'orthorhombic'
loop_
_space_group_symop_operation_xyz
x,y,z
-x,1/2-y,1/2+z
x,-y,-z
-x,1/2+y,1/2-z
-x,-y,-z
x,1/2+y,1/2-z
-x,y,z
x,1/2-y,1/2+z
1/2+x,1/2+y,z
1/2-x,-y,1/2+z
1/2+x,1/2-y,-z
1/2-x,y,1/2-z
1/2-x,1/2-y,-z
1/2+x,y,1/2-z
1/2-x,1/2+y,z
1/2+x,-y,1/2+z
loop_
_atom_site_type_symbol
_atom_site_label
_atom_site_fract_x
_atom_site_fract_y
_atom_site_fract_z
Si Si1 0.313959 0.582972 0.223879
Si Si2 0.675537 0.822865 0.958679
Si Si3 0.000000 0.500000 0.500000
Si Si4 0.431371 0.918382 0.051432
Si Si5 0.396804 0.448135 0.185795
Si Si6 0.303765 0.649283 0.960936
O O1 0.250000 0.543934 0.250000
O O2 0.315696 0.645332 0.325406
O O3 0.367221 0.525033 0.228442
O O4 0.316067 0.617424 0.092758
O O5 0.677120 0.734713 0.955693
O O6 0.614055 0.857927 0.002328
O O7 0.730851 0.850388 0.042945
O O8 0.053002 0.535777 0.586983
O O9 0.500000 0.904810 0.015018
O O10 0.425347 0.916018 0.194186
O O11 0.415097 0.000000 0.000000
O O12 0.342842 0.398606 0.130936
#
# Coordination Sequence:
#
# PCOD9480203 Si02
#       6
#    16  16   4  16  16  16
#     4  10  21  39  62  95 125 157 213 263 315 374
#     4  10  23  42  62  94 130 166 203 266 316 380
#     4  12  24  44  62  92 132 160 216 264 310 376
#     4  11  24  41  62  91 127 166 212 256 314 372
#     4  12  23  41  65  92 123 169 212 264 308 377
#     4  10  23  40  65  93 128 165 211 256 326 369
#
# _framework density 18.595970999999999
#
# number of rings (size 3 to 8) (size 9 to 14) (size 15 to 20)
#    0.000    1.333    4.762    0.000    5.333    0.000 
#    1.714    0.000    0.000    0.000    0.000    0.000 
#    0.000    0.000    0.000    0.000    0.000    0.000 
#
# Total GULP energy -233832.298799 kJ/mol
# GULP energy per Si atom -5567.435686 kJ/mol
# Density = 1.855365 g / cm^3
# Si number density = 18.595971 Si / 1000 Ang^3
#
#
#
# Elastic Constant Matrix: (Units=GPa)
#
#
# Indices 1 2 3 4 5 6 
#
# 1 87.0383 45.6738 17.8755 0.0000 0.0000 0.0000
# 2 45.6738 53.8126 4.4327 0.0000 0.0000 0.0000
# 3 17.8755 4.4327 64.4484 0.0000 0.0000 0.0000
# 4 0.0000 0.0000 0.0000 1.2780 0.0000 0.0000
# 5 0.0000 0.0000 0.0000 0.0000 26.1884 0.0000
# 6 0.0000 0.0000 0.0000 0.0000 0.0000 23.0481
#
#
#
# Elastic Compliance Matrix: (Units=1/GPa)
#
#
# Indices 1 2 3 4 5 6 
#
# 1 0.022141 -0.018391 -0.004876 0.000000 0.000000 0.000000
# 2 -0.018391 0.033965 0.002765 0.000000 0.000000 0.000000
# 3 -0.004876 0.002765 0.016679 0.000000 0.000000 0.000000
# 4 0.000000 0.000000 0.000000 0.782488 0.000000 0.000000
# 5 0.000000 0.000000 0.000000 0.000000 0.038185 0.000000
# 6 0.000000 0.000000 0.000000 0.000000 0.000000 0.043387
#
#
# Mechanical properties :
#
#
# Convention : Reuss Voigt Hill
#
# Bulk Modulus (GPa) = 31.46630 37.91813 34.69221
# Shear Modulus (GPa) = 5.05846 19.25740 12.15793
#
# Velocity S-wave (km/s) = 1.65109 3.22152 2.55971
# Velocity P-wave (km/s) = 4.53790 5.85426 5.23760
#
# Compressibility (1/GPa) = 0.03178003
#
# Stress axis : x y z
#
# Youngs Moduli (GPa) = 45.16424 29.44231 59.95708
#
# Poissons Ratio (x) = 0.54147 0.29237
# Poissons Ratio (y) = 0.83062 -0.16577
# Poissons Ratio (z) = 0.22023 -0.08140
#
# Static dielectric constant tensor:
#      x y z
#    x 1.657380 0.000000 0.000000 
#    y 0.000000 1.673200 0.000000 
#    z 0.000000 0.000000 1.645810 
# 
# From -- ./inp_files/17090.got.cif
#   From: 2010.05.17/outbox.cif.g08.bks.cpg/sg64_9_cif.got.tgz:17090.got - 2010.06.03 16:29:19.
