data_PCOD9480204
_publ_section_title
;
Structure prediction by ZEFSAII (Michael W. Deem and Ramdas Pophale) SiO2 
 PCOD9480204
Probable space group: C M C A
;
_chemical_formula_sum "Si O2"
_cell_formula_units_Z 56
_cell_length_a 14.023059
_cell_length_b 38.624796
_cell_length_c 5.056349
_cell_angle_alpha 90.000000
_cell_angle_beta 90.000000
_cell_angle_gamma 90.000000
_cell_volume 2738.709714
_symmetry_space_group_name_H-M "C M C A"
_symmetry_group_IT_number 64
_symmetry_cell_setting 'orthorhombic'
loop_
_space_group_symop_operation_xyz
x,y,z
-x,1/2-y,1/2+z
x,-y,-z
-x,1/2+y,1/2-z
-x,-y,-z
x,1/2+y,1/2-z
-x,y,z
x,1/2-y,1/2+z
1/2+x,1/2+y,z
1/2-x,-y,1/2+z
1/2+x,1/2-y,-z
1/2-x,y,1/2-z
1/2-x,1/2-y,-z
1/2+x,y,1/2-z
1/2-x,1/2+y,z
1/2+x,-y,1/2+z
loop_
_atom_site_type_symbol
_atom_site_label
_atom_site_fract_x
_atom_site_fract_y
_atom_site_fract_z
Si Si1 0.136488 0.271105 0.767648
Si Si2 0.500000 0.828192 0.989197
Si Si3 0.679604 0.576223 0.998866
Si Si4 0.000000 0.626087 0.502674
Si Si5 0.180818 0.500000 0.500000
O O1 0.109570 0.259769 0.471485
O O2 0.250000 0.275217 0.750000
O O3 0.088870 0.304641 0.895359
O O4 0.500000 0.861018 0.798056
O O5 0.500000 0.841978 0.288394
O O6 0.750000 0.577563 0.750000
O O7 0.595732 0.603736 0.964293
O O8 0.750000 0.581493 0.250000
O O9 0.632673 0.537596 0.014535
O O10 0.250000 0.501150 0.750000
#
# Coordination Sequence:
#
# PCOD9480204 Si02
#       5
#    16   8  16   8   8
#     4  10  21  39  63  87 111 146 193 243 292 338
#     4  12  24  39  58  87 124 155 194 239 290 359
#     4  10  21  40  61  85 120 156 201 255 297 349
#     4  12  26  38  58  90 122 167 202 229 302 374
#     4   8  16  33  60  85 108 150 200 251 304 339
#
# _framework density 20.447586000000001
#
# number of rings (size 3 to 8) (size 9 to 14) (size 15 to 20)
#    0.000    1.714    0.000    4.286    0.000    4.000 
#    0.000    0.000    0.000   12.000    0.000    0.000 
#    0.000    0.000    0.000    0.000    0.000    0.000 
#
# Total GULP energy -156185.098660 kJ/mol
# GULP energy per Si atom -5578.039238 kJ/mol
# Density = 2.040105 g / cm^3
# Si number density = 20.447586 Si / 1000 Ang^3
#
#
#
# Elastic Constant Matrix: (Units=GPa)
#
#
# Indices 1 2 3 4 5 6 
#
# 1 110.6593 39.2306 19.1836 0.0000 0.0000 0.0000
# 2 39.2306 80.9801 0.8712 0.0000 0.0000 0.0000
# 3 19.1836 0.8712 122.6990 0.0000 0.0000 0.0000
# 4 0.0000 0.0000 0.0000 35.0639 0.0000 0.0000
# 5 0.0000 0.0000 0.0000 0.0000 2.2064 0.0000
# 6 0.0000 0.0000 0.0000 0.0000 0.0000 103.4882
#
#
#
# Elastic Compliance Matrix: (Units=1/GPa)
#
#
# Indices 1 2 3 4 5 6 
#
# 1 0.011263 -0.005438 -0.001722 0.000000 0.000000 0.000000
# 2 -0.005438 0.014975 0.000744 0.000000 0.000000 0.000000
# 3 -0.001722 0.000744 0.008414 0.000000 0.000000 0.000000
# 4 0.000000 0.000000 0.000000 0.028519 0.000000 0.000000
# 5 0.000000 0.000000 0.000000 0.000000 0.453232 0.000000
# 6 0.000000 0.000000 0.000000 0.000000 0.000000 0.009663
#
#
# Mechanical properties :
#
#
# Convention : Reuss Voigt Hill
#
# Bulk Modulus (GPa) = 45.83049 48.10103 46.96576
# Shear Modulus (GPa) = 9.15461 45.15523 27.15492
#
# Velocity S-wave (km/s) = 2.11821 4.70440 3.64816
# Velocity P-wave (km/s) = 5.33336 7.28585 6.38468
#
# Compressibility (1/GPa) = 0.02181953
#
# Stress axis : x y z
#
# Youngs Moduli (GPa) = 88.78513 66.77768 118.84909
#
# Poissons Ratio (x) = 0.36313 0.20470
# Poissons Ratio (y) = 0.48280 -0.08841
# Poissons Ratio (z) = 0.15292 -0.04967
#
# Static dielectric constant tensor:
#      x y z
#    x 1.700360 0.000000 0.000000 
#    y 0.000000 1.778290 0.000000 
#    z 0.000000 0.000000 1.712030 
# 
# From -- ./inp_files/910.got.cif
#   From: 2010.05.17/outbox.cif.g08.bks.cpg/sg64_1_cif.got.tgz:910.got - 2010.06.03 16:29:19.
