data_PCOD9480014
_publ_section_title
;
Structure prediction by ZEFSAII (Michael W. Deem and Ramdas Pophale) SiO2 
 PCOD9480014
Probable space group: C M C A
;
_chemical_formula_sum "Si O2"
_cell_formula_units_Z 112
_cell_length_a 26.046865
_cell_length_b 13.760377
_cell_length_c 14.093321
_cell_angle_alpha 90.000000
_cell_angle_beta 90.000000
_cell_angle_gamma 90.000000
_cell_volume 5051.253165
_symmetry_space_group_name_H-M "C M C A"
_symmetry_group_IT_number 64
_symmetry_cell_setting 'orthorhombic'
loop_
_space_group_symop_operation_xyz
x,y,z
-x,1/2-y,1/2+z
x,-y,-z
-x,1/2+y,1/2-z
-x,-y,-z
x,1/2+y,1/2-z
-x,y,z
x,1/2-y,1/2+z
1/2+x,1/2+y,z
1/2-x,-y,1/2+z
1/2+x,1/2-y,-z
1/2-x,y,1/2-z
1/2-x,1/2-y,-z
1/2+x,y,1/2-z
1/2-x,1/2+y,z
1/2+x,-y,1/2+z
loop_
_atom_site_type_symbol
_atom_site_label
_atom_site_fract_x
_atom_site_fract_y
_atom_site_fract_z
Si Si1 0.770697 0.555000 0.648045
Si Si2 0.443754 0.287668 0.856569
Si Si3 0.559771 0.416194 0.258335
Si Si4 0.784941 0.131869 0.396850
Si Si5 0.358937 0.574045 0.235222
Si Si6 0.309866 0.805056 0.505077
Si Si7 0.919515 0.390820 0.465069
O O1 0.750000 0.585326 0.750000
O O2 0.730002 0.481341 0.601467
O O3 0.822766 0.493980 0.669202
O O4 0.779011 0.644634 0.580882
O O5 0.500000 0.314906 0.816188
O O6 0.434110 0.177502 0.825294
O O7 0.397632 0.352815 0.816432
O O8 0.446544 0.311311 0.968333
O O9 0.500000 0.447862 0.263846
O O10 0.601607 0.497926 0.283948
O O11 0.570132 0.386954 0.147311
O O12 0.820614 0.133430 0.303811
O O13 0.727107 0.178027 0.405068
O O14 0.815460 0.192533 0.476777
O O15 0.361316 0.865660 0.493972
O O16 0.932726 0.500000 0.500000
#
# Coordination Sequence:
#
# PCOD9480014 Si02
#       7
#    16  16  16  16  16  16  16
#     4  10  21  38  59  89 126 165 212 269 328 397
#     4  11  24  41  67  99 134 173 222 286 351 412
#     4  11  24  42  67 102 139 177 226 289 356 411
#     4  10  23  37  58  89 127 173 215 260 330 406
#     4  11  21  40  63  94 129 170 221 275 340 403
#     4  11  21  41  61  91 131 172 219 277 326 398
#     4  12  22  41  73 103 135 175 234 291 344 409
#
# _framework density 22.172716000000001
#
# number of rings (size 3 to 8) (size 9 to 14) (size 15 to 20)
#    0.000    1.143    2.857    3.857    0.000    2.286 
#   15.429    0.000    0.000    0.000    0.000    6.000 
#    0.000    0.000    0.000    0.000    0.000    0.000 
#
# Total GULP energy -312170.820617 kJ/mol
# GULP energy per Si atom -5574.478940 kJ/mol
# Density = 2.212225 g / cm^3
# Si number density = 22.172716 Si / 1000 Ang^3
#
#
#
# Elastic Constant Matrix: (Units=GPa)
#
#
# Indices 1 2 3 4 5 6 
#
# 1 86.5128 5.6127 28.7536 0.0000 0.0000 0.0000
# 2 5.6127 65.9734 38.1361 0.0000 0.0000 0.0000
# 3 28.7536 38.1361 89.4641 0.0000 0.0000 0.0000
# 4 0.0000 0.0000 0.0000 26.1628 0.0000 0.0000
# 5 0.0000 0.0000 0.0000 0.0000 20.0998 0.0000
# 6 0.0000 0.0000 0.0000 0.0000 0.0000 13.5502
#
#
#
# Elastic Compliance Matrix: (Units=1/GPa)
#
#
# Indices 1 2 3 4 5 6 
#
# 1 0.013092 0.001750 -0.004953 0.000000 0.000000 0.000000
# 2 0.001750 0.020348 -0.009236 0.000000 0.000000 0.000000
# 3 -0.004953 -0.009236 0.016707 0.000000 0.000000 0.000000
# 4 0.000000 0.000000 0.000000 0.038222 0.000000 0.000000
# 5 0.000000 0.000000 0.000000 0.000000 0.049752 0.000000
# 6 0.000000 0.000000 0.000000 0.000000 0.000000 0.073799
#
#
# Mechanical properties :
#
#
# Convention : Reuss Voigt Hill
#
# Bulk Modulus (GPa) = 39.57811 42.99503 41.28657
# Shear Modulus (GPa) = 20.38972 23.25909 21.82440
#
# Velocity S-wave (km/s) = 3.03576 3.24233 3.14074
# Velocity P-wave (km/s) = 5.49331 5.78360 5.64032
#
# Compressibility (1/GPa) = 0.02526649
#
# Stress axis : x y z
#
# Youngs Moduli (GPa) = 76.38350 49.14574 59.85605
#
# Poissons Ratio (x) = -0.08599 0.29650
# Poissons Ratio (y) = -0.13364 0.55283
# Poissons Ratio (z) = 0.37837 0.45391
#
# Static dielectric constant tensor:
#      x y z
#    x 1.966120 0.000000 0.000000 
#    y 0.000000 1.813610 0.000000 
#    z 0.000000 0.000000 1.866300 
# 
# From -- ./inp_files/28057.got.cif
#   From: 2010.05.17/outbox.cif.g08.bks.cpg/sg64_15_cif.got.tgz:28057.got - 2010.06.03 16:29:19.
