data_PCOD9480329
_publ_section_title
;
Structure prediction by ZEFSAII (Michael W. Deem and Ramdas Pophale) SiO2 
 PCOD9480329
Probable space group: C M C A
;
_chemical_formula_sum "Si O2"
_cell_formula_units_Z 96
_cell_length_a 19.117171
_cell_length_b 16.421930
_cell_length_c 15.621898
_cell_angle_alpha 90.000000
_cell_angle_beta 90.000000
_cell_angle_gamma 90.000000
_cell_volume 4904.351842
_symmetry_space_group_name_H-M "C M C A"
_symmetry_group_IT_number 64
_symmetry_cell_setting 'orthorhombic'
loop_
_space_group_symop_operation_xyz
x,y,z
-x,1/2-y,1/2+z
x,-y,-z
-x,1/2+y,1/2-z
-x,-y,-z
x,1/2+y,1/2-z
-x,y,z
x,1/2-y,1/2+z
1/2+x,1/2+y,z
1/2-x,-y,1/2+z
1/2+x,1/2-y,-z
1/2-x,y,1/2-z
1/2-x,1/2-y,-z
1/2+x,y,1/2-z
1/2-x,1/2+y,z
1/2+x,-y,1/2+z
loop_
_atom_site_type_symbol
_atom_site_label
_atom_site_fract_x
_atom_site_fract_y
_atom_site_fract_z
Si Si1 0.819910 0.585175 0.037419
Si Si2 0.186412 0.695975 0.870491
Si Si3 0.921651 0.199006 0.356901
Si Si4 0.919415 0.835935 0.846118
Si Si5 0.165694 0.342228 0.320191
Si Si6 0.671920 0.018196 0.403211
O O1 0.871313 0.635262 0.097319
O O2 0.747647 0.561815 0.085840
O O3 0.848640 0.500000 0.000000
O O4 0.807803 0.640602 0.953886
O O5 0.134311 0.770724 0.887202
O O6 0.158386 0.654290 0.782751
O O7 0.266654 0.713358 0.844309
O O8 0.919534 0.181713 0.255294
O O9 0.896854 0.292734 0.363666
O O10 0.000000 0.189182 0.389397
O O11 0.884532 0.923138 0.861030
O O12 0.000000 0.829979 0.876158
O O13 0.177880 0.432571 0.354521
O O14 0.649305 0.000000 0.500000
#
# Coordination Sequence:
#
# PCOD9480329 Si02
#       6
#    16  16  16  16  16  16
#     4  11  23  40  63  97 125 157 206 265 308 369
#     4  10  21  40  63  91 121 164 209 250 310 368
#     4  10  24  43  63  89 126 168 209 255 311 375
#     4  10  24  43  62  89 124 167 210 252 309 375
#     4  10  21  40  66  90 122 165 208 255 311 370
#     4  11  23  39  64  97 124 157 204 266 311 369
#
# _framework density 19.574452000000001
#
# number of rings (size 3 to 8) (size 9 to 14) (size 15 to 20)
#    0.000    1.667    3.333    1.000    4.667    5.333 
#    0.000    0.000    0.000    0.000    0.000    0.000 
#    0.000    0.000    0.000    0.000    0.000    0.000 
#
# Total GULP energy -267831.057161 kJ/mol
# GULP energy per Si atom -5579.813691 kJ/mol
# Density = 1.952990 g / cm^3
# Si number density = 19.574452 Si / 1000 Ang^3
#
#
#
# Elastic Constant Matrix: (Units=GPa)
#
#
# Indices 1 2 3 4 5 6 
#
# 1 108.1377 79.6435 33.2897 0.0000 0.0000 0.0000
# 2 79.6435 99.0160 16.3275 0.0000 0.0000 0.0000
# 3 33.2897 16.3275 22.9802 0.0000 0.0000 0.0000
# 4 0.0000 0.0000 0.0000 34.3039 0.0000 0.0000
# 5 0.0000 0.0000 0.0000 0.0000 18.0428 0.0000
# 6 0.0000 0.0000 0.0000 0.0000 0.0000 13.0100
#
#
#
# Elastic Compliance Matrix: (Units=1/GPa)
#
#
# Indices 1 2 3 4 5 6 
#
# 1 0.041580 -0.026633 -0.041311 0.000000 0.000000 0.000000
# 2 -0.026633 0.028498 0.018332 0.000000 0.000000 0.000000
# 3 -0.041311 0.018332 0.090334 0.000000 0.000000 0.000000
# 4 0.000000 0.000000 0.000000 0.029151 0.000000 0.000000
# 5 0.000000 0.000000 0.000000 0.000000 0.055424 0.000000
# 6 0.000000 0.000000 0.000000 0.000000 0.000000 0.076864
#
#
# Mechanical properties :
#
#
# Convention : Reuss Voigt Hill
#
# Bulk Modulus (GPa) = 16.34248 54.29503 35.31875
# Shear Modulus (GPa) = 11.32581 19.79621 15.56101
#
# Velocity S-wave (km/s) = 2.40802 3.18359 2.82257
# Velocity P-wave (km/s) = 4.01229 6.42741 5.35771
#
# Compressibility (1/GPa) = 0.06119021
#
# Stress axis : x y z
#
# Youngs Moduli (GPa) = 24.05019 35.08974 11.07003
#
# Poissons Ratio (x) = 0.93453 0.45731
# Poissons Ratio (y) = 0.64052 -0.20294
# Poissons Ratio (z) = 0.99353 -0.64328
#
# Static dielectric constant tensor:
#      x y z
#    x 1.698000 0.000000 0.000000 
#    y 0.000000 1.693080 0.000000 
#    z 0.000000 0.000000 1.689780 
# 
# From -- ./inp_files/26305.got.cif
#   From: 2010.05.17/outbox.cif.g08.bks.cpg/sg64_14_cif.got.tgz:26305.got - 2010.06.03 16:29:19.
