data_PCOD9480896
_publ_section_title
;
Structure prediction by ZEFSAII (Michael W. Deem and Ramdas Pophale) SiO2 
 PCOD9480896
Probable space group: C M C A
;
_chemical_formula_sum "Si O2"
_cell_formula_units_Z 80
_cell_length_a 14.559397
_cell_length_b 10.991365
_cell_length_c 26.068656
_cell_angle_alpha 90.000000
_cell_angle_beta 90.000000
_cell_angle_gamma 90.000000
_cell_volume 4171.705670
_symmetry_space_group_name_H-M "C M C A"
_symmetry_group_IT_number 64
_symmetry_cell_setting 'orthorhombic'
loop_
_space_group_symop_operation_xyz
x,y,z
-x,1/2-y,1/2+z
x,-y,-z
-x,1/2+y,1/2-z
-x,-y,-z
x,1/2+y,1/2-z
-x,y,z
x,1/2-y,1/2+z
1/2+x,1/2+y,z
1/2-x,-y,1/2+z
1/2+x,1/2-y,-z
1/2-x,y,1/2-z
1/2-x,1/2-y,-z
1/2+x,y,1/2-z
1/2-x,1/2+y,z
1/2+x,-y,1/2+z
loop_
_atom_site_type_symbol
_atom_site_label
_atom_site_fract_x
_atom_site_fract_y
_atom_site_fract_z
Si Si1 0.608717 0.979574 0.395614
Si Si2 0.849648 0.030476 0.777933
Si Si3 0.744339 0.124173 0.968234
Si Si4 0.353313 0.764942 0.727912
Si Si5 0.391705 0.736610 0.609558
O O1 0.500000 0.954158 0.392444
O O2 0.661390 0.899799 0.437227
O O3 0.653393 0.961711 0.339437
O O4 0.619462 0.122976 0.408690
O O5 0.750000 0.029101 0.750000
O O6 0.893933 0.899708 0.765922
O O7 0.896750 0.151506 0.757010
O O8 0.664564 0.147333 0.926608
O O9 0.750000 0.250000 0.000000
O O10 0.726948 0.000000 0.000000
O O11 0.250000 0.774449 0.750000
O O12 0.354691 0.735107 0.667701
O O13 0.500000 0.709734 0.610400
#
# Coordination Sequence:
#
# PCOD9480896 Si02
#       5
#    16  16  16  16  16
#     4  10  22  41  64  90 125 170 211 246 305 389
#     4   9  17  32  56  85 120 158 196 241 293 352
#     4  12  24  42  68  93 119 158 207 267 322 368
#     4   9  17  32  56  84 119 159 197 239 292 356
#     4  10  22  41  63  90 127 167 206 254 313 374
#
# _framework density 19.176807
#
# number of rings (size 3 to 8) (size 9 to 14) (size 15 to 20)
#    0.000    2.000    2.000    2.400    0.000    2.400 
#    3.600    0.000    0.000    0.000    0.000    0.000 
#    0.000    0.000    0.000    0.000    0.000    0.000 
#
# Total GULP energy -223002.353580 kJ/mol
# GULP energy per Si atom -5575.058839 kJ/mol
# Density = 1.913316 g / cm^3
# Si number density = 19.176807 Si / 1000 Ang^3
#
#
#
# Elastic Constant Matrix: (Units=GPa)
#
#
# Indices 1 2 3 4 5 6 
#
# 1 117.4987 20.4234 50.3482 0.0000 0.0000 0.0000
# 2 20.4234 157.4465 62.3586 0.0000 0.0000 0.0000
# 3 50.3482 62.3586 88.7710 0.0000 0.0000 0.0000
# 4 0.0000 0.0000 0.0000 46.3950 0.0000 0.0000
# 5 0.0000 0.0000 0.0000 0.0000 -26.8488 0.0000
# 6 0.0000 0.0000 0.0000 0.0000 0.0000 14.0367
#
#
#
# Elastic Compliance Matrix: (Units=1/GPa)
#
#
# Indices 1 2 3 4 5 6 
#
# 1 0.011497 0.001512 -0.007583 0.000000 0.000000 0.000000
# 2 0.001512 0.008998 -0.007179 0.000000 0.000000 0.000000
# 3 -0.007583 -0.007179 0.020608 0.000000 0.000000 0.000000
# 4 0.000000 0.000000 0.000000 0.021554 0.000000 0.000000
# 5 0.000000 0.000000 0.000000 0.000000 -0.037246 0.000000
# 6 0.000000 0.000000 0.000000 0.000000 0.000000 0.071242
#
#
# Mechanical properties :
#
#
# Convention : Reuss Voigt Hill
#
# Bulk Modulus (GPa) = 68.47025 69.99739 69.23382
# Shear Modulus (GPa) = 39.05585 22.08898 30.57242
#
# Velocity S-wave (km/s) = 4.51779 3.39759 3.99712
# Velocity P-wave (km/s) = 7.93701 7.20915 7.58182
#
# Compressibility (1/GPa) = 0.01460488
#
# Stress axis : x y z
#
# Youngs Moduli (GPa) = 86.97751 111.13084 48.52378
#
# Poissons Ratio (x) = -0.16802 0.36795
# Poissons Ratio (y) = -0.13150 0.34833
# Poissons Ratio (z) = 0.65955 0.79776
#
# Static dielectric constant tensor:
#      x y z
#    x 1.645110 0.000000 0.000000 
#    y 0.000000 1.716580 0.000000 
#    z 0.000000 0.000000 1.659200 
# 
# From -- ./inp_files/44962.got.cif
#   From: 2010.05.17/outbox.cif.g08.bks.cpg/sg64_23_cif.got.tgz:44962.got - 2010.06.03 16:29:19.
