data_PCOD9480040
_publ_section_title
;
Structure prediction by ZEFSAII (Michael W. Deem and Ramdas Pophale) SiO2 
 PCOD9480040
Probable space group: C M C A
;
_chemical_formula_sum "Si O2"
_cell_formula_units_Z 80
_cell_length_a 29.454982
_cell_length_b 9.517787
_cell_length_c 13.028584
_cell_angle_alpha 90.000000
_cell_angle_beta 90.000000
_cell_angle_gamma 90.000000
_cell_volume 3652.514599
_symmetry_space_group_name_H-M "C M C A"
_symmetry_group_IT_number 64
_symmetry_cell_setting 'orthorhombic'
loop_
_space_group_symop_operation_xyz
x,y,z
-x,1/2-y,1/2+z
x,-y,-z
-x,1/2+y,1/2-z
-x,-y,-z
x,1/2+y,1/2-z
-x,y,z
x,1/2-y,1/2+z
1/2+x,1/2+y,z
1/2-x,-y,1/2+z
1/2+x,1/2-y,-z
1/2-x,y,1/2-z
1/2-x,1/2-y,-z
1/2+x,y,1/2-z
1/2-x,1/2+y,z
1/2+x,-y,1/2+z
loop_
_atom_site_type_symbol
_atom_site_label
_atom_site_fract_x
_atom_site_fract_y
_atom_site_fract_z
Si Si1 0.311055 0.144146 0.466679
Si Si2 0.722900 0.826712 0.845659
Si Si3 0.138765 0.876886 0.777475
Si Si4 0.500000 0.233742 0.058125
Si Si5 0.000000 0.925005 0.344451
Si Si6 0.577636 0.857864 0.317013
O O1 0.300723 0.231724 0.567992
O O2 0.263518 0.103579 0.410267
O O3 0.342114 0.207562 0.376954
O O4 0.333243 0.000000 0.500000
O O5 0.750000 0.754412 0.750000
O O6 0.683313 0.915167 0.790579
O O7 0.107305 0.778217 0.709297
O O8 0.110749 0.009308 0.816934
O O9 0.455248 0.323272 0.087263
O O10 0.500000 0.090253 0.126675
O O11 0.500000 0.173593 0.944067
O O12 0.956626 0.887972 0.276459
#
# Coordination Sequence:
#
# PCOD9480040 Si02
#       6
#    16  16  16   8   8  16
#     4  10  21  38  60  88 125 169 220 260 311 381
#     4   9  21  39  59  86 126 175 215 264 321 379
#     4  11  23  39  63  96 130 164 211 271 324 374
#     4  10  22  45  68  91 124 171 212 255 324 406
#     4  10  22  43  70  93 124 171 209 256 330 396
#     4  11  23  42  66  96 131 163 208 272 325 389
#
# _framework density 21.902718
#
# number of rings (size 3 to 8) (size 9 to 14) (size 15 to 20)
#    0.000    1.800    2.000    1.200    0.000   10.400 
#    0.000    1.000    0.000    0.000    0.000    0.000 
#    0.000    0.000    0.000    0.000    0.000    0.000 
#
# Total GULP energy -223138.517325 kJ/mol
# GULP energy per Si atom -5578.462933 kJ/mol
# Density = 2.185287 g / cm^3
# Si number density = 21.902718 Si / 1000 Ang^3
#
#
#
# Elastic Constant Matrix: (Units=GPa)
#
#
# Indices 1 2 3 4 5 6 
#
# 1 128.9126 38.8283 55.6938 0.0000 0.0000 0.0000
# 2 38.8283 52.3973 17.7750 0.0000 0.0000 0.0000
# 3 55.6938 17.7750 117.3470 0.0000 0.0000 0.0000
# 4 0.0000 0.0000 0.0000 21.5110 0.0000 0.0000
# 5 0.0000 0.0000 0.0000 0.0000 -4.7759 0.0000
# 6 0.0000 0.0000 0.0000 0.0000 0.0000 45.4576
#
#
#
# Elastic Compliance Matrix: (Units=1/GPa)
#
#
# Indices 1 2 3 4 5 6 
#
# 1 0.011919 -0.007288 -0.004553 0.000000 0.000000 0.000000
# 2 -0.007288 0.024575 -0.000263 0.000000 0.000000 0.000000
# 3 -0.004553 -0.000263 0.010723 0.000000 0.000000 0.000000
# 4 0.000000 0.000000 0.000000 0.046488 0.000000 0.000000
# 5 0.000000 0.000000 0.000000 0.000000 -0.209386 0.000000
# 6 0.000000 0.000000 0.000000 0.000000 0.000000 0.021999
#
#
# Mechanical properties :
#
#
# Convention : Reuss Voigt Hill
#
# Bulk Modulus (GPa) = 43.46374 58.13902 50.80138
# Shear Modulus (GPa) = -80.90141 24.86254 -28.01944
#
# Velocity S-wave (km/s) = -6.08415 3.37283 -3.58057
# Velocity P-wave (km/s) = 5.42851 6.46296 2.48002
#
# Compressibility (1/GPa) = 0.02300768
#
# Stress axis : x y z
#
# Youngs Moduli (GPa) = 83.89648 40.69157 93.26114
#
# Poissons Ratio (x) = 0.29657 0.42463
# Poissons Ratio (y) = 0.61145 0.02457
# Poissons Ratio (z) = 0.38199 0.01072
#
# Static dielectric constant tensor:
#      x y z
#    x 1.818270 0.000000 0.000000 
#    y 0.000000 1.775930 0.000000 
#    z 0.000000 0.000000 1.822320 
# 
# From -- ./inp_files/19620.got.cif
#   From: 2010.05.17/outbox.cif.g08.bks.cpg/sg64_10_cif.got.tgz:19620.got - 2010.06.03 16:29:19.
