data_PCOD9480534
_publ_section_title
;
Structure prediction by ZEFSAII (Michael W. Deem and Ramdas Pophale) SiO2 
 PCOD9480534
Probable space group: C M C A
;
_chemical_formula_sum "Si O2"
_cell_formula_units_Z 68
_cell_length_a 16.240411
_cell_length_b 23.361649
_cell_length_c 7.086045
_cell_angle_alpha 90.000000
_cell_angle_beta 90.000000
_cell_angle_gamma 90.000000
_cell_volume 2688.465182
_symmetry_space_group_name_H-M "C M C A"
_symmetry_group_IT_number 64
_symmetry_cell_setting 'orthorhombic'
loop_
_space_group_symop_operation_xyz
x,y,z
-x,1/2-y,1/2+z
x,-y,-z
-x,1/2+y,1/2-z
-x,-y,-z
x,1/2+y,1/2-z
-x,y,z
x,1/2-y,1/2+z
1/2+x,1/2+y,z
1/2-x,-y,1/2+z
1/2+x,1/2-y,-z
1/2-x,y,1/2-z
1/2-x,1/2-y,-z
1/2+x,y,1/2-z
1/2-x,1/2+y,z
1/2+x,-y,1/2+z
loop_
_atom_site_type_symbol
_atom_site_label
_atom_site_fract_x
_atom_site_fract_y
_atom_site_fract_z
Si Si1 0.843155 0.201762 0.817375
Si Si2 0.500000 0.500000 0.000000
Si Si3 0.166903 0.935818 0.482678
Si Si4 0.352696 0.912698 0.465961
Si Si5 0.092036 0.178994 0.422038
O O1 0.750000 0.189849 0.750000
O O2 0.861004 0.156248 0.983593
O O3 0.850950 0.268435 0.860809
O O4 0.905663 0.188260 0.648905
O O5 0.572463 0.451107 0.968832
O O6 0.263385 0.933495 0.534065
O O7 0.153844 0.921585 0.262163
O O8 0.124099 0.885578 0.601129
O O9 0.133768 0.000000 0.500000
O O10 0.000000 0.185916 0.348732
#
# Coordination Sequence:
#
# PCOD9480534 Si02
#       5
#    16   4  16  16  16
#     4  11  22  44  68  93 131 181 219 274 345 409
#     4  12  24  40  70 104 126 164 230 274 322 398
#     4  10  21  44  64  86 135 177 215 261 344 413
#     4  10  22  41  66  95 127 173 212 271 339 392
#     4  11  24  41  65  98 128 172 226 285 334 398
#
# _framework density 25.293240000000001
#
# number of rings (size 3 to 8) (size 9 to 14) (size 15 to 20)
#    0.000    1.412    5.882    1.412    8.235    0.471 
#    8.471    0.000    0.000    0.000    0.000    0.000 
#    0.000    0.000    0.000    0.000    0.000    0.000 
#
# Total GULP energy -189798.893986 kJ/mol
# GULP energy per Si atom -5582.320411 kJ/mol
# Density = 2.523567 g / cm^3
# Si number density = 25.293240 Si / 1000 Ang^3
#
#
#
# Elastic Constant Matrix: (Units=GPa)
#
#
# Indices 1 2 3 4 5 6 
#
# 1 108.8989 41.3781 2.9254 0.0000 0.0000 0.0000
# 2 41.3781 255.7295 23.0597 0.0000 0.0000 0.0000
# 3 2.9254 23.0597 46.3013 0.0000 0.0000 0.0000
# 4 0.0000 0.0000 0.0000 28.0156 0.0000 0.0000
# 5 0.0000 0.0000 0.0000 0.0000 11.5851 0.0000
# 6 0.0000 0.0000 0.0000 0.0000 0.0000 35.5102
#
#
#
# Elastic Compliance Matrix: (Units=1/GPa)
#
#
# Indices 1 2 3 4 5 6 
#
# 1 0.009786 -0.001599 0.000178 0.000000 0.000000 0.000000
# 2 -0.001599 0.004356 -0.002068 0.000000 0.000000 0.000000
# 3 0.000178 -0.002068 0.022616 0.000000 0.000000 0.000000
# 4 0.000000 0.000000 0.000000 0.035694 0.000000 0.000000
# 5 0.000000 0.000000 0.000000 0.000000 0.086318 0.000000
# 6 0.000000 0.000000 0.000000 0.000000 0.000000 0.028161
#
#
# Mechanical properties :
#
#
# Convention : Reuss Voigt Hill
#
# Bulk Modulus (GPa) = 33.58056 60.62847 47.10452
# Shear Modulus (GPa) = 24.52947 37.92660 31.22804
#
# Velocity S-wave (km/s) = 3.11755 3.87651 3.51756
# Velocity P-wave (km/s) = 5.12485 6.63767 5.92970
#
# Compressibility (1/GPa) = 0.02977913
#
# Stress axis : x y z
#
# Youngs Moduli (GPa) = 102.18910 229.58541 44.21563
#
# Poissons Ratio (x) = 0.36721 -0.00788
# Poissons Ratio (y) = 0.16345 0.09145
# Poissons Ratio (z) = -0.01822 0.47483
#
# Static dielectric constant tensor:
#      x y z
#    x 1.872970 0.000000 0.000000 
#    y 0.000000 2.052870 0.000000 
#    z 0.000000 0.000000 2.108790 
# 
# From -- ./inp_files/6712.got.cif
#   From: 2010.05.17/outbox.cif.g08.bks.cpg/sg64_4_cif.got.tgz:6712.got - 2010.06.03 16:29:19.
