data_PCOD9480965
_publ_section_title
;
Structure prediction by ZEFSAII (Michael W. Deem and Ramdas Pophale) SiO2 
 PCOD9480965
Probable space group: C M C A
;
_chemical_formula_sum "Si O2"
_cell_formula_units_Z 80
_cell_length_a 22.798237
_cell_length_b 9.244402
_cell_length_c 16.117385
_cell_angle_alpha 90.000000
_cell_angle_beta 90.000000
_cell_angle_gamma 90.000000
_cell_volume 3396.836685
_symmetry_space_group_name_H-M "C M C A"
_symmetry_group_IT_number 64
_symmetry_cell_setting 'orthorhombic'
loop_
_space_group_symop_operation_xyz
x,y,z
-x,1/2-y,1/2+z
x,-y,-z
-x,1/2+y,1/2-z
-x,-y,-z
x,1/2+y,1/2-z
-x,y,z
x,1/2-y,1/2+z
1/2+x,1/2+y,z
1/2-x,-y,1/2+z
1/2+x,1/2-y,-z
1/2-x,y,1/2-z
1/2-x,1/2-y,-z
1/2+x,y,1/2-z
1/2-x,1/2+y,z
1/2+x,-y,1/2+z
loop_
_atom_site_type_symbol
_atom_site_label
_atom_site_fract_x
_atom_site_fract_y
_atom_site_fract_z
Si Si1 0.805633 0.996203 0.701378
Si Si2 0.123580 0.175931 0.569282
Si Si3 0.300625 0.737933 0.430599
Si Si4 0.627244 0.995344 0.634087
Si Si5 0.000000 0.500284 0.679468
Si Si6 0.000000 0.845378 0.355422
O O1 0.750000 0.056354 0.750000
O O2 0.832918 0.107718 0.636853
O O3 0.784498 0.858094 0.648562
O O4 0.853790 0.959625 0.771276
O O5 0.146544 0.153211 0.476771
O O6 0.127147 0.349078 0.582210
O O7 0.058277 0.129509 0.591485
O O8 0.250000 0.750000 0.500000
O O9 0.326749 0.890167 0.401596
O O10 0.560441 0.052632 0.637243
O O11 0.000000 0.324641 0.672931
O O12 0.000000 0.556639 0.773480
#
# Coordination Sequence:
#
# PCOD9480965 Si02
#       6
#    16  16  16  16   8   8
#     4  12  25  44  69 100 136 186 238 290 346 420
#     4  11  24  44  69 103 142 182 228 292 354 418
#     4  12  27  47  68 102 147 188 231 295 357 417
#     4  11  24  44  72 101 138 187 237 283 348 422
#     4  10  22  41  72 106 140 179 236 294 340 413
#     4  10  22  43  71 105 143 180 234 290 348 419
#
# _framework density 23.551323
#
# number of rings (size 3 to 8) (size 9 to 14) (size 15 to 20)
#    0.000    0.800    2.000    4.800    2.800    4.000 
#    0.000    6.000    0.000    0.000    0.000    0.000 
#    0.000    0.000    0.000    0.000    0.000    0.000 
#
# Total GULP energy -224158.620555 kJ/mol
# GULP energy per Si atom -5603.965514 kJ/mol
# Density = 2.349772 g / cm^3
# Si number density = 23.551323 Si / 1000 Ang^3
#
#
#
# Elastic Constant Matrix: (Units=GPa)
#
#
# Indices 1 2 3 4 5 6 
#
# 1 156.8300 40.2118 43.6653 0.0000 0.0000 0.0000
# 2 40.2118 61.7681 27.3744 0.0000 0.0000 0.0000
# 3 43.6653 27.3744 107.8148 0.0000 0.0000 0.0000
# 4 0.0000 0.0000 0.0000 45.5709 0.0000 0.0000
# 5 0.0000 0.0000 0.0000 0.0000 46.6285 0.0000
# 6 0.0000 0.0000 0.0000 0.0000 0.0000 33.2497
#
#
#
# Elastic Compliance Matrix: (Units=1/GPa)
#
#
# Indices 1 2 3 4 5 6 
#
# 1 0.008086 -0.004296 -0.002184 0.000000 0.000000 0.000000
# 2 -0.004296 0.020525 -0.003471 0.000000 0.000000 0.000000
# 3 -0.002184 -0.003471 0.011041 0.000000 0.000000 0.000000
# 4 0.000000 0.000000 0.000000 0.021944 0.000000 0.000000
# 5 0.000000 0.000000 0.000000 0.000000 0.021446 0.000000
# 6 0.000000 0.000000 0.000000 0.000000 0.000000 0.030075
#
#
# Mechanical properties :
#
#
# Convention : Reuss Voigt Hill
#
# Bulk Modulus (GPa) = 50.63589 60.99067 55.81328
# Shear Modulus (GPa) = 35.81576 39.43390 37.62483
#
# Velocity S-wave (km/s) = 3.90391 4.09636 4.00129
# Velocity P-wave (km/s) = 6.47052 6.95174 6.71544
#
# Compressibility (1/GPa) = 0.01974884
#
# Stress axis : x y z
#
# Youngs Moduli (GPa) = 123.67095 48.72143 90.57075
#
# Poissons Ratio (x) = 0.20931 0.19781
# Poissons Ratio (y) = 0.53131 0.31440
# Poissons Ratio (z) = 0.27010 0.16913
#
# Static dielectric constant tensor:
#      x y z
#    x 1.913600 0.000000 0.000000 
#    y 0.000000 1.893670 0.000000 
#    z 0.000000 0.000000 1.866340 
# 
# From -- ./inp_files/34053.got.cif
#   From: 2010.05.17/outbox.cif.g08.bks.cpg/sg64_18_cif.got.tgz:34053.got - 2010.06.03 16:29:19.
