data_PCOD9480441
_publ_section_title
;
Structure prediction by ZEFSAII (Michael W. Deem and Ramdas Pophale) SiO2 
 PCOD9480441
Probable space group: C M C A
;
_chemical_formula_sum "Si O2"
_cell_formula_units_Z 88
_cell_length_a 27.669788
_cell_length_b 27.543369
_cell_length_c 5.156551
_cell_angle_alpha 90.000000
_cell_angle_beta 90.000000
_cell_angle_gamma 90.000000
_cell_volume 3929.906425
_symmetry_space_group_name_H-M "C M C A"
_symmetry_group_IT_number 64
_symmetry_cell_setting 'orthorhombic'
loop_
_space_group_symop_operation_xyz
x,y,z
-x,1/2-y,1/2+z
x,-y,-z
-x,1/2+y,1/2-z
-x,-y,-z
x,1/2+y,1/2-z
-x,y,z
x,1/2-y,1/2+z
1/2+x,1/2+y,z
1/2-x,-y,1/2+z
1/2+x,1/2-y,-z
1/2-x,y,1/2-z
1/2-x,1/2-y,-z
1/2+x,y,1/2-z
1/2-x,1/2+y,z
1/2+x,-y,1/2+z
loop_
_atom_site_type_symbol
_atom_site_label
_atom_site_fract_x
_atom_site_fract_y
_atom_site_fract_z
Si Si1 0.691890 0.283433 0.437651
Si Si2 0.700916 0.056424 0.411535
Si Si3 0.500000 0.590813 0.304448
Si Si4 0.079090 0.281023 0.078981
Si Si5 0.599601 0.465941 0.749795
Si Si6 0.500000 0.147014 0.706322
Si Si7 0.750000 0.630838 0.750000
O O1 0.700141 0.248039 0.678424
O O2 0.635098 0.295935 0.421187
O O3 0.723895 0.331738 0.445192
O O4 0.750000 0.062492 0.250000
O O5 0.649803 0.064021 0.269981
O O6 0.708920 0.095563 0.636834
O O7 0.701275 0.000000 0.500000
O O8 0.550207 0.563809 0.250414
O O9 0.500000 0.599661 0.613363
O O10 0.500000 0.635536 0.098246
O O11 0.069815 0.237676 0.287272
O O12 0.045927 0.323330 0.188911
O O13 0.602506 0.500000 0.500000
O O14 0.598197 0.500000 0.000000
#
# Coordination Sequence:
#
# PCOD9480441 Si02
#       7
#    16  16   8  16  16   8   8
#     4  10  24  44  66  98 135 177 233 281 339 422
#     4  11  25  44  69 101 141 183 237 288 345 426
#     4  12  26  42  68 106 138 172 232 294 344 422
#     4  10  21  41  65  90 131 180 221 273 343 412
#     4  11  25  47  73  94 137 187 231 284 354 422
#     4  12  24  38  66 102 138 166 228 290 338 420
#     4  12  26  40  72  96 138 184 222 292 356 408
#
# _framework density 22.392392000000001
#
# number of rings (size 3 to 8) (size 9 to 14) (size 15 to 20)
#    0.000    1.091    0.909    4.364    7.636    1.455 
#    0.000    0.000    0.000    0.000    0.000    0.000 
#    0.000    0.000    0.000    0.000    0.000    0.000 
#
# Total GULP energy -246010.067642 kJ/mol
# GULP energy per Si atom -5591.137901 kJ/mol
# Density = 2.234143 g / cm^3
# Si number density = 22.392392 Si / 1000 Ang^3
#
#
#
# Elastic Constant Matrix: (Units=GPa)
#
#
# Indices 1 2 3 4 5 6 
#
# 1 171.7433 55.6917 22.9517 0.0000 0.0000 0.0000
# 2 55.6917 74.5910 13.1359 0.0000 0.0000 0.0000
# 3 22.9517 13.1359 95.3111 0.0000 0.0000 0.0000
# 4 0.0000 0.0000 0.0000 13.5596 0.0000 0.0000
# 5 0.0000 0.0000 0.0000 0.0000 18.7596 0.0000
# 6 0.0000 0.0000 0.0000 0.0000 0.0000 -38.7912
#
#
#
# Elastic Compliance Matrix: (Units=1/GPa)
#
#
# Indices 1 2 3 4 5 6 
#
# 1 0.007794 -0.005625 -0.001102 0.000000 0.000000 0.000000
# 2 -0.005625 0.017800 -0.001099 0.000000 0.000000 0.000000
# 3 -0.001102 -0.001099 0.010909 0.000000 0.000000 0.000000
# 4 0.000000 0.000000 0.000000 0.073748 0.000000 0.000000
# 5 0.000000 0.000000 0.000000 0.000000 0.053306 0.000000
# 6 0.000000 0.000000 0.000000 0.000000 0.000000 -0.025779
#
#
# Mechanical properties :
#
#
# Convention : Reuss Voigt Hill
#
# Bulk Modulus (GPa) = 47.95775 58.35601 53.15688
# Shear Modulus (GPa) = 31.17612 15.36333 23.26972
#
# Velocity S-wave (km/s) = 3.73535 2.62219 3.22713
# Velocity P-wave (km/s) = 6.32987 5.94012 6.13809
#
# Compressibility (1/GPa) = 0.02085169
#
# Stress axis : x y z
#
# Youngs Moduli (GPa) = 128.30452 56.18031 91.67043
#
# Poissons Ratio (x) = 0.31602 0.10098
# Poissons Ratio (y) = 0.72174 0.10071
# Poissons Ratio (z) = 0.14134 0.06172
#
# Static dielectric constant tensor:
#      x y z
#    x 1.867560 0.000000 0.000000 
#    y 0.000000 1.819140 0.000000 
#    z 0.000000 0.000000 1.850970 
# 
# From -- ./inp_files/3345.got.cif
#   From: 2010.05.17/outbox.cif.g08.bks.cpg/sg64_2_cif.got.tgz:3345.got - 2010.06.03 16:29:19.
