data_PCOD9480557
_publ_section_title
;
Structure prediction by ZEFSAII (Michael W. Deem and Ramdas Pophale) SiO2 
 PCOD9480557
Probable space group: C M C A
;
_chemical_formula_sum "Si O2"
_cell_formula_units_Z 72
_cell_length_a 17.756194
_cell_length_b 9.403356
_cell_length_c 22.058215
_cell_angle_alpha 90.000000
_cell_angle_beta 90.000000
_cell_angle_gamma 90.000000
_cell_volume 3683.011926
_symmetry_space_group_name_H-M "C M C A"
_symmetry_group_IT_number 64
_symmetry_cell_setting 'orthorhombic'
loop_
_space_group_symop_operation_xyz
x,y,z
-x,1/2-y,1/2+z
x,-y,-z
-x,1/2+y,1/2-z
-x,-y,-z
x,1/2+y,1/2-z
-x,y,z
x,1/2-y,1/2+z
1/2+x,1/2+y,z
1/2-x,-y,1/2+z
1/2+x,1/2-y,-z
1/2-x,y,1/2-z
1/2-x,1/2-y,-z
1/2+x,y,1/2-z
1/2-x,1/2+y,z
1/2+x,-y,1/2+z
loop_
_atom_site_type_symbol
_atom_site_label
_atom_site_fract_x
_atom_site_fract_y
_atom_site_fract_z
Si Si1 0.000000 0.285125 0.672538
Si Si2 0.500000 0.951752 0.797015
Si Si3 0.729198 0.122926 0.044164
Si Si4 0.143413 0.557266 0.358419
Si Si5 0.250000 0.342320 0.750000
Si Si6 0.132410 0.739306 0.153036
O O1 0.000000 0.395892 0.728447
O O2 0.921951 0.323826 0.639116
O O3 0.000000 0.121745 0.695116
O O4 0.571540 0.875506 0.826844
O O5 0.800342 0.070085 0.084435
O O6 0.670181 0.180382 0.092579
O O7 0.750000 0.250000 0.000000
O O8 0.700585 0.000000 0.000000
O O9 0.194700 0.577567 0.297608
O O10 0.106711 0.400871 0.356533
O O11 0.195214 0.255415 0.794022
#
# Coordination Sequence:
#
# PCOD9480557 Si02
#       6
#     8   8  16  16   8  16
#     4  12  26  42  64  96 138 172 216 264 334 394
#     4  12  26  42  64  96 138 173 214 268 330 399
#     4  11  24  45  70  97 130 172 225 274 320 381
#     4  11  23  41  67  96 133 172 216 269 330 388
#     4  10  22  34  68  98 130 160 220 262 336 380
#     4  11  23  41  67  96 133 171 217 268 330 386
#
# _framework density 19.549216000000001
#
# number of rings (size 3 to 8) (size 9 to 14) (size 15 to 20)
#    0.000    0.889    4.444    2.667    3.111    1.778 
#    0.000    2.222    0.000    0.000    0.000    0.000 
#    0.000    0.000    0.000    0.000    0.000    0.000 
#
# Total GULP energy -201019.932805 kJ/mol
# GULP energy per Si atom -5583.887022 kJ/mol
# Density = 1.950472 g / cm^3
# Si number density = 19.549216 Si / 1000 Ang^3
#
#
#
# Elastic Constant Matrix: (Units=GPa)
#
#
# Indices 1 2 3 4 5 6 
#
# 1 68.9285 12.3174 12.0823 0.0000 0.0000 0.0000
# 2 12.3174 124.2114 7.0481 0.0000 0.0000 0.0000
# 3 12.0823 7.0481 99.7679 0.0000 0.0000 0.0000
# 4 0.0000 0.0000 0.0000 18.5021 0.0000 0.0000
# 5 0.0000 0.0000 0.0000 0.0000 20.9837 0.0000
# 6 0.0000 0.0000 0.0000 0.0000 0.0000 38.6054
#
#
#
# Elastic Compliance Matrix: (Units=1/GPa)
#
#
# Indices 1 2 3 4 5 6 
#
# 1 0.015060 -0.001395 -0.001725 0.000000 0.000000 0.000000
# 2 -0.001395 0.008213 -0.000411 0.000000 0.000000 0.000000
# 3 -0.001725 -0.000411 0.010261 0.000000 0.000000 0.000000
# 4 0.000000 0.000000 0.000000 0.054048 0.000000 0.000000
# 5 0.000000 0.000000 0.000000 0.000000 0.047656 0.000000
# 6 0.000000 0.000000 0.000000 0.000000 0.000000 0.025903
#
#
# Mechanical properties :
#
#
# Convention : Reuss Voigt Hill
#
# Bulk Modulus (GPa) = 37.77920 39.53373 38.65646
# Shear Modulus (GPa) = 28.24425 33.04892 30.64658
#
# Velocity S-wave (km/s) = 3.80515 4.11609 3.96367
# Velocity P-wave (km/s) = 6.21873 6.54646 6.38470
#
# Compressibility (1/GPa) = 0.02646959
#
# Stress axis : x y z
#
# Youngs Moduli (GPa) = 66.40303 121.76555 97.45415
#
# Poissons Ratio (x) = 0.16992 0.16813
# Poissons Ratio (y) = 0.09266 0.04007
# Poissons Ratio (z) = 0.11456 0.05007
#
# Static dielectric constant tensor:
#      x y z
#    x 1.800990 0.000000 0.000000 
#    y 0.000000 1.546710 0.000000 
#    z 0.000000 0.000000 1.642960 
# 
# From -- ./inp_files/40725.got.cif
#   From: 2010.05.17/outbox.cif.g08.bks.cpg/sg64_21_cif.got.tgz:40725.got - 2010.06.03 16:29:19.
