data_PCOD9480549
_publ_section_title
;
Structure prediction by ZEFSAII (Michael W. Deem and Ramdas Pophale) SiO2 
 PCOD9480549
Probable space group: C M C A
;
_chemical_formula_sum "Si O2"
_cell_formula_units_Z 88
_cell_length_a 27.978630
_cell_length_b 27.471114
_cell_length_c 5.538761
_cell_angle_alpha 90.000000
_cell_angle_beta 90.000000
_cell_angle_gamma 90.000000
_cell_volume 4257.114603
_symmetry_space_group_name_H-M "C M C A"
_symmetry_group_IT_number 64
_symmetry_cell_setting 'orthorhombic'
loop_
_space_group_symop_operation_xyz
x,y,z
-x,1/2-y,1/2+z
x,-y,-z
-x,1/2+y,1/2-z
-x,-y,-z
x,1/2+y,1/2-z
-x,y,z
x,1/2-y,1/2+z
1/2+x,1/2+y,z
1/2-x,-y,1/2+z
1/2+x,1/2-y,-z
1/2-x,y,1/2-z
1/2-x,1/2-y,-z
1/2+x,y,1/2-z
1/2-x,1/2+y,z
1/2+x,-y,1/2+z
loop_
_atom_site_type_symbol
_atom_site_label
_atom_site_fract_x
_atom_site_fract_y
_atom_site_fract_z
Si Si1 0.201944 0.096003 0.710074
Si Si2 0.557241 0.277660 0.461492
Si Si3 0.694997 0.280236 0.782631
Si Si4 0.803583 0.000000 0.500000
Si Si5 0.130745 0.547346 0.403709
Si Si6 0.124380 0.140987 0.357165
O O1 0.250000 0.126837 0.750000
O O2 0.223119 0.049281 0.562539
O O3 0.163943 0.122922 0.545846
O O4 0.169266 0.073893 0.921664
O O5 0.500000 0.283626 0.465287
O O6 0.569690 0.244629 0.698348
O O7 0.584126 0.327990 0.510375
O O8 0.688307 0.251765 0.526273
O O9 0.750000 0.297851 0.750000
O O10 0.655948 0.322769 0.806388
O O11 0.837331 0.981350 0.710935
O O12 0.101672 0.500000 0.500000
O O13 0.105034 0.593109 0.279522
#
# Coordination Sequence:
#
# PCOD9480549 Si02
#       6
#    16  16  16   8  16  16
#     4  10  22  31  52  80 118 164 212 253 299 362
#     4  10  23  44  71 100 126 155 204 264 323 387
#     4  10  23  38  54  79 116 157 202 246 298 370
#     4   8  18  34  48  74 109 166 207 260 300 340
#     4   9  20  37  53  81 120 165 212 260 306 365
#     4  11  23  35  61  87 121 164 205 257 320 377
#
# _framework density 20.671278000000001
#
# number of rings (size 3 to 8) (size 9 to 14) (size 15 to 20)
#    0.000    2.182    0.000    1.091   11.455    2.182 
#    0.000    0.000    0.000    0.545    0.000   21.636 
#    0.000    0.000    0.000    0.000    0.000    0.000 
#
# Total GULP energy -245046.784651 kJ/mol
# GULP energy per Si atom -5569.245106 kJ/mol
# Density = 2.062423 g / cm^3
# Si number density = 20.671278 Si / 1000 Ang^3
#
#
#
# Elastic Constant Matrix: (Units=GPa)
#
#
# Indices 1 2 3 4 5 6 
#
# 1 35.7178 32.3938 11.3312 0.0000 0.0000 0.0000
# 2 32.3938 77.1374 18.7584 0.0000 0.0000 0.0000
# 3 11.3312 18.7584 72.0947 0.0000 0.0000 0.0000
# 4 0.0000 0.0000 0.0000 20.4564 0.0000 0.0000
# 5 0.0000 0.0000 0.0000 0.0000 15.4667 0.0000
# 6 0.0000 0.0000 0.0000 0.0000 0.0000 -16.8752
#
#
#
# Elastic Compliance Matrix: (Units=1/GPa)
#
#
# Indices 1 2 3 4 5 6 
#
# 1 0.045584 -0.018576 -0.002331 0.000000 0.000000 0.000000
# 2 -0.018576 0.021410 -0.002651 0.000000 0.000000 0.000000
# 3 -0.002331 -0.002651 0.014927 0.000000 0.000000 0.000000
# 4 0.000000 0.000000 0.000000 0.048884 0.000000 0.000000
# 5 0.000000 0.000000 0.000000 0.000000 0.064655 0.000000
# 6 0.000000 0.000000 0.000000 0.000000 0.000000 -0.059258
#
#
# Mechanical properties :
#
#
# Convention : Reuss Voigt Hill
#
# Bulk Modulus (GPa) = 28.73230 34.43519 31.58375
# Shear Modulus (GPa) = 25.65160 11.97400 18.81280
#
# Velocity S-wave (km/s) = 3.52650 2.40939 3.02005
# Velocity P-wave (km/s) = 5.52372 4.94316 5.24148
#
# Compressibility (1/GPa) = 0.03480404
#
# Stress axis : x y z
#
# Youngs Moduli (GPa) = 21.93744 46.70805 66.99366
#
# Poissons Ratio (x) = 0.86766 0.15617
# Poissons Ratio (y) = 0.40751 0.17760
# Poissons Ratio (z) = 0.05114 0.12382
#
# Static dielectric constant tensor:
#      x y z
#    x 1.717400 0.000000 0.000000 
#    y 0.000000 1.864260 0.000000 
#    z 0.000000 0.000000 1.890680 
# 
# From -- ./inp_files/3320.got.cif
#   From: 2010.05.17/outbox.cif.g08.bks.cpg/sg64_2_cif.got.tgz:3320.got - 2010.06.03 16:29:19.
