data_PCOD9480902
_publ_section_title
;
Structure prediction by ZEFSAII (Michael W. Deem and Ramdas Pophale) SiO2 
 PCOD9480902
Probable space group: C M C A
;
_chemical_formula_sum "Si O2"
_cell_formula_units_Z 112
_cell_length_a 13.728649
_cell_length_b 26.270295
_cell_length_c 13.413734
_cell_angle_alpha 90.000000
_cell_angle_beta 90.000000
_cell_angle_gamma 90.000000
_cell_volume 4837.739078
_symmetry_space_group_name_H-M "C M C A"
_symmetry_group_IT_number 64
_symmetry_cell_setting 'orthorhombic'
loop_
_space_group_symop_operation_xyz
x,y,z
-x,1/2-y,1/2+z
x,-y,-z
-x,1/2+y,1/2-z
-x,-y,-z
x,1/2+y,1/2-z
-x,y,z
x,1/2-y,1/2+z
1/2+x,1/2+y,z
1/2-x,-y,1/2+z
1/2+x,1/2-y,-z
1/2-x,y,1/2-z
1/2-x,1/2-y,-z
1/2+x,y,1/2-z
1/2-x,1/2+y,z
1/2+x,-y,1/2+z
loop_
_atom_site_type_symbol
_atom_site_label
_atom_site_fract_x
_atom_site_fract_y
_atom_site_fract_z
Si Si1 0.109915 0.273550 0.375916
Si Si2 0.609630 0.855105 0.202127
Si Si3 0.386731 0.938530 0.722699
Si Si4 0.112751 0.160696 0.352125
Si Si5 0.738415 0.841457 0.469464
Si Si6 0.612241 0.035846 0.865827
Si Si7 0.205424 0.446300 0.515134
O O1 0.117576 0.320203 0.298779
O O2 0.130648 0.219671 0.323749
O O3 0.176033 0.290521 0.467654
O O4 0.000000 0.270307 0.411988
O O5 0.500000 0.847250 0.162463
O O6 0.690375 0.838571 0.124427
O O7 0.622350 0.916171 0.209835
O O8 0.500000 0.943143 0.687396
O O9 0.376895 0.882696 0.770341
O O10 0.374701 0.983827 0.804046
O O11 0.190275 0.941416 0.866521
O O12 0.189804 0.150897 0.438427
O O13 0.000000 0.156565 0.387338
O O14 0.672172 0.892409 0.470039
O O15 0.500000 0.036792 0.903842
O O16 0.691302 0.045567 0.954011
O O17 0.151637 0.500000 0.500000
#
# Coordination Sequence:
#
# PCOD9480902 Si02
#       7
#    16  16  16  16  16  16  16
#     4  10  22  41  63  92 130 174 221 276 333 397
#     4   9  19  38  64  94 123 162 218 274 326 387
#     4  10  23  46  71  98 137 187 229 275 343 413
#     4  10  22  43  67  91 127 172 225 277 330 398
#     4  11  22  39  63  97 127 170 220 274 334 397
#     4   9  20  41  71  98 130 178 230 279 333 404
#     4  11  25  40  65 104 141 176 226 283 340 403
#
# _framework density 23.151309000000001
#
# number of rings (size 3 to 8) (size 9 to 14) (size 15 to 20)
#    0.000    2.000    0.000    2.143    2.000    4.000 
#    7.714    0.000    0.000    1.714    0.000    0.000 
#    0.000    0.000    0.000    0.000    0.000    0.000 
#
# Total GULP energy -312456.292202 kJ/mol
# GULP energy per Si atom -5579.576646 kJ/mol
# Density = 2.309862 g / cm^3
# Si number density = 23.151309 Si / 1000 Ang^3
#
#
#
# Elastic Constant Matrix: (Units=GPa)
#
#
# Indices 1 2 3 4 5 6 
#
# 1 72.5874 48.4439 37.4602 0.0000 0.0000 0.0000
# 2 48.4439 173.7736 45.1380 0.0000 0.0000 0.0000
# 3 37.4602 45.1380 61.0650 0.0000 0.0000 0.0000
# 4 0.0000 0.0000 0.0000 25.1912 0.0000 0.0000
# 5 0.0000 0.0000 0.0000 0.0000 32.0775 0.0000
# 6 0.0000 0.0000 0.0000 0.0000 0.0000 -1.6169
#
#
#
# Elastic Compliance Matrix: (Units=1/GPa)
#
#
# Indices 1 2 3 4 5 6 
#
# 1 0.021487 -0.003176 -0.010833 0.000000 0.000000 0.000000
# 2 -0.003176 0.007592 -0.003663 0.000000 0.000000 0.000000
# 3 -0.010833 -0.003663 0.025729 0.000000 0.000000 0.000000
# 4 0.000000 0.000000 0.000000 0.039696 0.000000 0.000000
# 5 0.000000 0.000000 0.000000 0.000000 0.031174 0.000000
# 6 0.000000 0.000000 0.000000 0.000000 0.000000 -0.618455
#
#
# Mechanical properties :
#
#
# Convention : Reuss Voigt Hill
#
# Bulk Modulus (GPa) = 51.38050 63.27892 57.32971
# Shear Modulus (GPa) = -11.08787 22.88929 5.90071
#
# Velocity S-wave (km/s) = -2.19082 3.14774 1.59822
# Velocity P-wave (km/s) = 3.98019 6.37206 5.31249
#
# Compressibility (1/GPa) = 0.01946263
#
# Stress axis : x y z
#
# Youngs Moduli (GPa) = 46.53975 131.72576 38.86591
#
# Poissons Ratio (x) = 0.41837 0.42105
# Poissons Ratio (y) = 0.14781 0.14237
# Poissons Ratio (z) = 0.50419 0.48253
#
# Static dielectric constant tensor:
#      x y z
#    x 1.918460 0.000000 0.000000 
#    y 0.000000 1.922090 0.000000 
#    z 0.000000 0.000000 1.869760 
# 
# From -- ./inp_files/24490.got.cif
#   From: 2010.05.17/outbox.cif.g08.bks.cpg/sg64_13_cif.got.tgz:24490.got - 2010.06.03 16:29:19.
