data_PCOD9480874
_publ_section_title
;
Structure prediction by ZEFSAII (Michael W. Deem and Ramdas Pophale) SiO2 
 PCOD9480874
Probable space group: C M C A
;
_chemical_formula_sum "Si O2"
_cell_formula_units_Z 116
_cell_length_a 27.672158
_cell_length_b 17.982401
_cell_length_c 12.303731
_cell_angle_alpha 90.000000
_cell_angle_beta 90.000000
_cell_angle_gamma 90.000000
_cell_volume 6122.482243
_symmetry_space_group_name_H-M "C M C A"
_symmetry_group_IT_number 64
_symmetry_cell_setting 'orthorhombic'
loop_
_space_group_symop_operation_xyz
x,y,z
-x,1/2-y,1/2+z
x,-y,-z
-x,1/2+y,1/2-z
-x,-y,-z
x,1/2+y,1/2-z
-x,y,z
x,1/2-y,1/2+z
1/2+x,1/2+y,z
1/2-x,-y,1/2+z
1/2+x,1/2-y,-z
1/2-x,y,1/2-z
1/2-x,1/2-y,-z
1/2+x,y,1/2-z
1/2-x,1/2+y,z
1/2+x,-y,1/2+z
loop_
_atom_site_type_symbol
_atom_site_label
_atom_site_fract_x
_atom_site_fract_y
_atom_site_fract_z
Si Si1 0.857594 0.184797 0.681312
Si Si2 0.085896 0.997039 0.845612
Si Si3 0.868821 0.849069 0.856345
Si Si4 0.114190 0.030929 0.615465
Si Si5 0.166194 0.388294 0.406445
Si Si6 0.500000 0.500000 0.000000
Si Si7 0.201872 0.573302 0.181761
Si Si8 0.234039 0.333792 0.032458
O O1 0.880881 0.264932 0.669932
O O2 0.884609 0.119389 0.618097
O O3 0.851073 0.162087 0.806342
O O4 0.805866 0.182357 0.623164
O O5 0.088345 0.908462 0.858352
O O6 0.081883 0.009746 0.717909
O O7 0.136800 0.034912 0.885105
O O8 0.042676 0.027747 0.915816
O O9 0.830661 0.878502 0.766067
O O10 0.847558 0.854850 0.977069
O O11 0.099337 0.000000 0.500000
O O12 0.167471 0.995028 0.643305
O O13 0.224056 0.385032 0.414045
O O14 0.250000 0.552078 0.250000
O O15 0.215422 0.622390 0.075319
O O16 0.250000 0.250000 0.000000
#
# Coordination Sequence:
#
# PCOD9480874 Si02
#       8
#    16  16  16  16  16   4  16  16
#     4  11  23  35  54  85 116 172 206 246 286 347
#     4  10  24  40  68  96 113 153 193 266 314 379
#     4  11  21  38  57  81 121 155 203 252 309 345
#     4  10  22  41  57  85 122 160 207 233 306 368
#     4  11  21  38  57  84 122 156 209 250 299 347
#     4  12  20  44  74 104 112 132 206 250 332 388
#     4  11  21  35  51  75 115 168 211 260 288 335
#     4  12  21  34  52  81 122 168 217 254 284 338
#
# _framework density 18.946563999999999
#
# number of rings (size 3 to 8) (size 9 to 14) (size 15 to 20)
#    0.000    1.103    5.517    1.241    0.000    3.310 
#    2.483    0.345    0.000    3.310    0.000    0.000 
#    0.000    0.000    0.000    0.000    0.000    0.000 
#
# Total GULP energy -323051.780643 kJ/mol
# GULP energy per Si atom -5569.858287 kJ/mol
# Density = 1.890344 g / cm^3
# Si number density = 18.946564 Si / 1000 Ang^3
#
#
#
# Elastic Constant Matrix: (Units=GPa)
#
#
# Indices 1 2 3 4 5 6 
#
# 1 40.3328 14.7269 6.2604 0.0000 0.0000 0.0000
# 2 14.7269 120.3925 34.3077 0.0000 0.0000 0.0000
# 3 6.2604 34.3077 101.2639 0.0000 0.0000 0.0000
# 4 0.0000 0.0000 0.0000 24.3385 0.0000 0.0000
# 5 0.0000 0.0000 0.0000 0.0000 9.5268 0.0000
# 6 0.0000 0.0000 0.0000 0.0000 0.0000 -3.3766
#
#
#
# Elastic Compliance Matrix: (Units=1/GPa)
#
#
# Indices 1 2 3 4 5 6 
#
# 1 0.025984 -0.003011 -0.000586 0.000000 0.000000 0.000000
# 2 -0.003011 0.009543 -0.003047 0.000000 0.000000 0.000000
# 3 -0.000586 -0.003047 0.010944 0.000000 0.000000 0.000000
# 4 0.000000 0.000000 0.000000 0.041087 0.000000 0.000000
# 5 0.000000 0.000000 0.000000 0.000000 0.104967 0.000000
# 6 0.000000 0.000000 0.000000 0.000000 0.000000 -0.296153
#
#
# Mechanical properties :
#
#
# Convention : Reuss Voigt Hill
#
# Bulk Modulus (GPa) = 30.13700 41.39770 35.76735
# Shear Modulus (GPa) = -63.06943 19.87733 -21.59605
#
# Velocity S-wave (km/s) = -5.77584 3.24254 -3.37981
# Velocity P-wave (km/s) = 5.34224 5.99298 1.92045
#
# Compressibility (1/GPa) = 0.03318180
#
# Stress axis : x y z
#
# Youngs Moduli (GPa) = 38.48479 104.79115 91.37687
#
# Poissons Ratio (x) = 0.31557 0.05356
# Poissons Ratio (y) = 0.11590 0.27841
# Poissons Ratio (z) = 0.02256 0.31929
#
# Static dielectric constant tensor:
#      x y z
#    x 1.636200 0.000000 0.000000 
#    y 0.000000 1.705850 0.000000 
#    z 0.000000 0.000000 1.684420 
# 
# From -- ./inp_files/19946.got.cif
#   From: 2010.05.17/outbox.cif.g08.bks.cpg/sg64_10_cif.got.tgz:19946.got - 2010.06.03 16:29:19.
