data_PCOD9480151
_publ_section_title
;
Structure prediction by ZEFSAII (Michael W. Deem and Ramdas Pophale) SiO2 
 PCOD9480151
Probable space group: C M C A
;
_chemical_formula_sum "Si O2"
_cell_formula_units_Z 96
_cell_length_a 11.085656
_cell_length_b 23.287162
_cell_length_c 20.982970
_cell_angle_alpha 90.000000
_cell_angle_beta 90.000000
_cell_angle_gamma 90.000000
_cell_volume 5416.826457
_symmetry_space_group_name_H-M "C M C A"
_symmetry_group_IT_number 64
_symmetry_cell_setting 'orthorhombic'
loop_
_space_group_symop_operation_xyz
x,y,z
-x,1/2-y,1/2+z
x,-y,-z
-x,1/2+y,1/2-z
-x,-y,-z
x,1/2+y,1/2-z
-x,y,z
x,1/2-y,1/2+z
1/2+x,1/2+y,z
1/2-x,-y,1/2+z
1/2+x,1/2-y,-z
1/2-x,y,1/2-z
1/2-x,1/2-y,-z
1/2+x,y,1/2-z
1/2-x,1/2+y,z
1/2+x,-y,1/2+z
loop_
_atom_site_type_symbol
_atom_site_label
_atom_site_fract_x
_atom_site_fract_y
_atom_site_fract_z
Si Si1 0.000000 0.517332 0.608581
Si Si2 0.246542 0.659746 0.468345
Si Si3 0.360683 0.854071 0.201111
Si Si4 0.747797 0.974819 0.175451
Si Si5 0.358547 0.268232 0.415756
Si Si6 0.000000 0.408774 0.519723
Si Si7 0.141681 0.460490 0.941437
O O1 0.116382 0.532413 0.650420
O O2 0.000000 0.451624 0.581243
O O3 0.000000 0.553949 0.544212
O O4 0.303261 0.691912 0.528849
O O5 0.217770 0.709422 0.416945
O O6 0.118303 0.630138 0.481575
O O7 0.330226 0.606221 0.451036
O O8 0.500000 0.855398 0.225851
O O9 0.250000 0.845757 0.250000
O O10 0.329480 0.916177 0.170632
O O11 0.353415 0.804177 0.148925
O O12 0.750000 0.991235 0.250000
O O13 0.693401 0.019718 0.125970
O O14 0.500000 0.256173 0.429412
O O15 0.000000 0.470217 0.940729
O O16 0.193164 0.500000 0.000000
#
# Coordination Sequence:
#
# PCOD9480151 Si02
#       7
#     8  16  16  16  16   8  16
#     4  11  22  36  60  89 124 157 199 240 309 370
#     4  11  21  36  58  90 115 151 195 244 301 357
#     4  10  22  40  61  85 116 156 202 248 298 360
#     4  11  24  37  60  88 123 159 196 250 305 368
#     4  10  21  39  59  83 118 153 193 248 304 352
#     4  11  20  36  60  91 117 153 196 254 296 360
#     4  11  22  38  61  86 118 157 198 244 299 364
#
# _framework density 17.722553999999999
#
# number of rings (size 3 to 8) (size 9 to 14) (size 15 to 20)
#    0.000    1.333    2.500    4.000    5.833    2.667 
#    1.500    0.833    0.000    2.000    0.000    0.000 
#    0.000    0.000    0.000    0.000    0.000    0.000 
#
# Total GULP energy -267786.404651 kJ/mol
# GULP energy per Si atom -5578.883430 kJ/mol
# Density = 1.768222 g / cm^3
# Si number density = 17.722554 Si / 1000 Ang^3
#
#
#
# Elastic Constant Matrix: (Units=GPa)
#
#
# Indices 1 2 3 4 5 6 
#
# 1 89.0884 5.1913 22.0991 0.0000 0.0000 0.0000
# 2 5.1913 89.7878 35.6244 0.0000 0.0000 0.0000
# 3 22.0991 35.6244 71.4404 0.0000 0.0000 0.0000
# 4 0.0000 0.0000 0.0000 24.7953 0.0000 0.0000
# 5 0.0000 0.0000 0.0000 0.0000 28.7434 0.0000
# 6 0.0000 0.0000 0.0000 0.0000 0.0000 12.7193
#
#
#
# Elastic Compliance Matrix: (Units=1/GPa)
#
#
# Indices 1 2 3 4 5 6 
#
# 1 0.012228 0.000990 -0.004276 0.000000 0.000000 0.000000
# 2 0.000990 0.013964 -0.007270 0.000000 0.000000 0.000000
# 3 -0.004276 -0.007270 0.018945 0.000000 0.000000 0.000000
# 4 0.000000 0.000000 0.000000 0.040330 0.000000 0.000000
# 5 0.000000 0.000000 0.000000 0.000000 0.034791 0.000000
# 6 0.000000 0.000000 0.000000 0.000000 0.000000 0.078621
#
#
# Mechanical properties :
#
#
# Convention : Reuss Voigt Hill
#
# Bulk Modulus (GPa) = 41.62208 41.79403 41.70806
# Shear Modulus (GPa) = 21.92983 25.74505 23.83744
#
# Velocity S-wave (km/s) = 3.52148 3.81553 3.67145
# Velocity P-wave (km/s) = 6.33015 6.56084 6.44653
#
# Compressibility (1/GPa) = 0.02402571
#
# Stress axis : x y z
#
# Youngs Moduli (GPa) = 81.78066 71.61036 52.78317
#
# Poissons Ratio (x) = -0.07086 0.22570
# Poissons Ratio (y) = -0.08093 0.38371
# Poissons Ratio (z) = 0.34969 0.52058
#
# Static dielectric constant tensor:
#      x y z
#    x 1.627340 0.000000 0.000000 
#    y 0.000000 1.614050 0.000000 
#    z 0.000000 0.000000 1.612240 
# 
# From -- ./inp_files/38319.got.cif
#   From: 2010.05.17/outbox.cif.g08.bks.cpg/sg64_20_cif.got.tgz:38319.got - 2010.06.03 16:29:19.
