data_PCOD9480095
_publ_section_title
;
Structure prediction by ZEFSAII (Michael W. Deem and Ramdas Pophale) SiO2 
 PCOD9480095
Probable space group: C M C A
;
_chemical_formula_sum "Si O2"
_cell_formula_units_Z 72
_cell_length_a 10.859900
_cell_length_b 27.702471
_cell_length_c 12.769903
_cell_angle_alpha 90.000000
_cell_angle_beta 90.000000
_cell_angle_gamma 90.000000
_cell_volume 3841.775066
_symmetry_space_group_name_H-M "C M C A"
_symmetry_group_IT_number 64
_symmetry_cell_setting 'orthorhombic'
loop_
_space_group_symop_operation_xyz
x,y,z
-x,1/2-y,1/2+z
x,-y,-z
-x,1/2+y,1/2-z
-x,-y,-z
x,1/2+y,1/2-z
-x,y,z
x,1/2-y,1/2+z
1/2+x,1/2+y,z
1/2-x,-y,1/2+z
1/2+x,1/2-y,-z
1/2-x,y,1/2-z
1/2-x,1/2-y,-z
1/2+x,y,1/2-z
1/2-x,1/2+y,z
1/2+x,-y,1/2+z
loop_
_atom_site_type_symbol
_atom_site_label
_atom_site_fract_x
_atom_site_fract_y
_atom_site_fract_z
Si Si1 0.500000 0.035827 0.833899
Si Si2 0.500000 0.929787 0.925934
Si Si3 0.138891 0.748833 0.167485
Si Si4 0.359814 0.147433 0.570844
Si Si5 0.287462 0.356157 0.629189
Si Si6 0.750000 0.582541 0.750000
O O1 0.374236 0.052168 0.775069
O O2 0.500000 0.978945 0.859260
O O3 0.500000 0.059382 0.950124
O O4 0.617161 0.897723 0.897421
O O5 0.250000 0.752037 0.250000
O O6 0.150713 0.795555 0.094636
O O7 0.154047 0.697053 0.112547
O O8 0.000000 0.750453 0.214467
O O9 0.500000 0.133239 0.592142
O O10 0.324327 0.138865 0.451210
O O11 0.275807 0.117012 0.650232
O O12 0.250000 0.358846 0.750000
#
# Coordination Sequence:
#
# PCOD9480095 Si02
#       6
#     8   8  16  16  16   8
#     4  11  26  44  70  95 127 167 226 271 328 384
#     4  11  24  46  66  91 127 177 216 263 329 391
#     4  10  21  38  62  96 133 173 217 258 321 387
#     4  11  23  40  65  98 132 171 212 268 321 384
#     4  11  24  41  63  92 132 175 215 264 321 391
#     4  12  22  44  68  98 128 164 216 276 324 374
#
# _framework density 18.741336
#
# number of rings (size 3 to 8) (size 9 to 14) (size 15 to 20)
#    0.000    1.111    5.556    0.667    3.111    0.889 
#    2.000    0.000    0.000    4.000    0.000    0.000 
#    0.000    0.000    0.000    0.000    0.000    0.000 
#
# Total GULP energy -200943.959485 kJ/mol
# GULP energy per Si atom -5581.776652 kJ/mol
# Density = 1.869868 g / cm^3
# Si number density = 18.741336 Si / 1000 Ang^3
#
#
#
# Elastic Constant Matrix: (Units=GPa)
#
#
# Indices 1 2 3 4 5 6 
#
# 1 111.2502 47.8036 27.4843 0.0000 0.0000 0.0000
# 2 47.8036 115.6635 31.1257 0.0000 0.0000 0.0000
# 3 27.4843 31.1257 82.7711 0.0000 0.0000 0.0000
# 4 0.0000 0.0000 0.0000 19.8119 0.0000 0.0000
# 5 0.0000 0.0000 0.0000 0.0000 32.1846 0.0000
# 6 0.0000 0.0000 0.0000 0.0000 0.0000 15.1695
#
#
#
# Elastic Compliance Matrix: (Units=1/GPa)
#
#
# Indices 1 2 3 4 5 6 
#
# 1 0.011284 -0.004067 -0.002218 0.000000 0.000000 0.000000
# 2 -0.004067 0.011085 -0.002818 0.000000 0.000000 0.000000
# 3 -0.002218 -0.002818 0.013878 0.000000 0.000000 0.000000
# 4 0.000000 0.000000 0.000000 0.050475 0.000000 0.000000
# 5 0.000000 0.000000 0.000000 0.000000 0.031071 0.000000
# 6 0.000000 0.000000 0.000000 0.000000 0.000000 0.065922
#
#
# Mechanical properties :
#
#
# Convention : Reuss Voigt Hill
#
# Bulk Modulus (GPa) = 55.42742 58.05688 56.74215
# Shear Modulus (GPa) = 24.04619 26.98459 25.51539
#
# Velocity S-wave (km/s) = 3.58586 3.79864 3.69379
# Velocity P-wave (km/s) = 6.83986 7.09118 6.96665
#
# Compressibility (1/GPa) = 0.01804161
#
# Stress axis : x y z
#
# Youngs Moduli (GPa) = 88.61985 90.21211 72.05877
#
# Poissons Ratio (x) = 0.36689 0.15980
# Poissons Ratio (y) = 0.36041 0.20306
# Poissons Ratio (z) = 0.19652 0.25422
#
# Static dielectric constant tensor:
#      x y z
#    x 1.660670 0.000000 0.000000 
#    y 0.000000 1.636490 0.000000 
#    z 0.000000 0.000000 1.629100 
# 
# From -- ./inp_files/13108.got.cif
#   From: 2010.05.17/outbox.cif.g08.bks.cpg/sg64_7_cif.got.tgz:13108.got - 2010.06.03 16:29:19.
