data_PCOD9480418
_publ_section_title
;
Structure prediction by ZEFSAII (Michael W. Deem and Ramdas Pophale) SiO2 
 PCOD9480418
Probable space group: C M C A
;
_chemical_formula_sum "Si O2"
_cell_formula_units_Z 40
_cell_length_a 21.135757
_cell_length_b 5.229641
_cell_length_c 15.393689
_cell_angle_alpha 90.000000
_cell_angle_beta 90.000000
_cell_angle_gamma 90.000000
_cell_volume 1701.501719
_symmetry_space_group_name_H-M "C M C A"
_symmetry_group_IT_number 64
_symmetry_cell_setting 'orthorhombic'
loop_
_space_group_symop_operation_xyz
x,y,z
-x,1/2-y,1/2+z
x,-y,-z
-x,1/2+y,1/2-z
-x,-y,-z
x,1/2+y,1/2-z
-x,y,z
x,1/2-y,1/2+z
1/2+x,1/2+y,z
1/2-x,-y,1/2+z
1/2+x,1/2-y,-z
1/2-x,y,1/2-z
1/2-x,1/2-y,-z
1/2+x,y,1/2-z
1/2-x,1/2+y,z
1/2+x,-y,1/2+z
loop_
_atom_site_type_symbol
_atom_site_label
_atom_site_fract_x
_atom_site_fract_y
_atom_site_fract_z
Si Si1 0.820709 0.063769 0.715062
Si Si2 0.383718 0.249028 0.943027
Si Si3 0.500000 0.188192 0.310702
O O1 0.850914 0.283802 0.775741
O O2 0.750000 0.020211 0.750000
O O3 0.824907 0.169737 0.618331
O O4 0.440096 0.302105 0.875440
O O5 0.372199 0.500000 0.000000
O O6 0.399529 0.000000 0.000000
O O7 0.500000 0.436307 0.248737
#
# Coordination Sequence:
#
# PCOD9480418 Si02
#       3
#    16  16   8
#     4  10  21  41  63  86 122 168 212 252 304 378
#     4  12  24  41  64  97 130 161 206 267 315 360
#     4  12  24  42  68  94 126 172 208 246 312 390
#
# _framework density 23.508645999999999
#
# number of rings (size 3 to 8) (size 9 to 14) (size 15 to 20)
#    0.000    0.800    0.000    8.400    0.000    0.000 
#    0.000   24.000    0.000    0.000    0.000    0.000 
#    0.000    0.000    0.000    0.000    0.000    0.000 
#
# Total GULP energy -111884.969067 kJ/mol
# GULP energy per Si atom -5594.248453 kJ/mol
# Density = 2.345514 g / cm^3
# Si number density = 23.508646 Si / 1000 Ang^3
#
#
#
# Elastic Constant Matrix: (Units=GPa)
#
#
# Indices 1 2 3 4 5 6 
#
# 1 74.3560 -11.9429 29.8953 0.0000 0.0000 0.0000
# 2 -11.9429 168.5211 26.1658 0.0000 0.0000 0.0000
# 3 29.8953 26.1658 112.3959 0.0000 0.0000 0.0000
# 4 0.0000 0.0000 0.0000 65.1092 0.0000 0.0000
# 5 0.0000 0.0000 0.0000 0.0000 35.1058 0.0000
# 6 0.0000 0.0000 0.0000 0.0000 0.0000 21.2496
#
#
#
# Elastic Compliance Matrix: (Units=1/GPa)
#
#
# Indices 1 2 3 4 5 6 
#
# 1 0.015575 0.001813 -0.004565 0.000000 0.000000 0.000000
# 2 0.001813 0.006367 -0.001964 0.000000 0.000000 0.000000
# 3 -0.004565 -0.001964 0.010569 0.000000 0.000000 0.000000
# 4 0.000000 0.000000 0.000000 0.015359 0.000000 0.000000
# 5 0.000000 0.000000 0.000000 0.000000 0.028485 0.000000
# 6 0.000000 0.000000 0.000000 0.000000 0.000000 0.047060
#
#
# Mechanical properties :
#
#
# Convention : Reuss Voigt Hill
#
# Bulk Modulus (GPa) = 43.33128 49.27885 46.30507
# Shear Modulus (GPa) = 35.57681 45.03658 40.30669
#
# Velocity S-wave (km/s) = 3.89440 4.38167 4.14520
# Velocity P-wave (km/s) = 6.22044 6.82688 6.53070
#
# Compressibility (1/GPa) = 0.02307802
#
# Stress axis : x y z
#
# Youngs Moduli (GPa) = 64.20466 157.04899 94.62017
#
# Poissons Ratio (x) = -0.28466 0.43191
# Poissons Ratio (y) = -0.11637 0.18588
# Poissons Ratio (z) = 0.29307 0.30851
#
# Static dielectric constant tensor:
#      x y z
#    x 2.102090 0.000000 0.000000 
#    y 0.000000 1.950640 0.000000 
#    z 0.000000 0.000000 1.869190 
# 
# From -- ./inp_files/18770.got.cif
#   From: 2010.05.17/outbox.cif.g08.bks.cpg/sg64_10_cif.got.tgz:18770.got - 2010.06.03 16:29:19.
