data_PCOD9480360
_publ_section_title
;
Structure prediction by ZEFSAII (Michael W. Deem and Ramdas Pophale) SiO2 
 PCOD9480360
Probable space group: C M C A
;
_chemical_formula_sum "Si O2"
_cell_formula_units_Z 88
_cell_length_a 23.958072
_cell_length_b 11.740898
_cell_length_c 14.960954
_cell_angle_alpha 90.000000
_cell_angle_beta 90.000000
_cell_angle_gamma 90.000000
_cell_volume 4208.355973
_symmetry_space_group_name_H-M "C M C A"
_symmetry_group_IT_number 64
_symmetry_cell_setting 'orthorhombic'
loop_
_space_group_symop_operation_xyz
x,y,z
-x,1/2-y,1/2+z
x,-y,-z
-x,1/2+y,1/2-z
-x,-y,-z
x,1/2+y,1/2-z
-x,y,z
x,1/2-y,1/2+z
1/2+x,1/2+y,z
1/2-x,-y,1/2+z
1/2+x,1/2-y,-z
1/2-x,y,1/2-z
1/2-x,1/2-y,-z
1/2+x,y,1/2-z
1/2-x,1/2+y,z
1/2+x,-y,1/2+z
loop_
_atom_site_type_symbol
_atom_site_label
_atom_site_fract_x
_atom_site_fract_y
_atom_site_fract_z
Si Si1 0.750000 0.066531 0.750000
Si Si2 0.939176 0.552221 0.900235
Si Si3 0.936366 0.787786 0.813488
Si Si4 0.849447 0.788945 0.164674
Si Si5 0.176866 0.048798 0.399229
Si Si6 0.938388 0.033345 0.897520
O O1 0.797720 0.145706 0.792078
O O2 0.776320 0.991502 0.670248
O O3 0.933903 0.688884 0.890108
O O4 0.882447 0.500216 0.862293
O O5 0.000000 0.522350 0.859291
O O6 0.940544 0.500000 0.000000
O O7 0.889134 0.759512 0.742593
O O8 0.000000 0.780980 0.778071
O O9 0.927872 0.915070 0.847285
O O10 0.829156 0.684821 0.103148
O O11 0.889588 0.877458 0.115638
O O12 0.185154 0.000000 0.500000
O O13 0.000000 0.077711 0.870113
O O14 0.941332 0.000000 0.000000
#
# Coordination Sequence:
#
# PCOD9480360 Si02
#       6
#     8  16  16  16  16  16
#     4  12  26  48  68 102 136 174 236 298 346 402
#     4   9  19  37  67 101 134 172 219 277 337 408
#     4  10  21  40  65  98 138 177 223 275 341 417
#     4  12  25  43  69  94 134 178 226 284 343 410
#     4  11  26  46  71 103 133 180 236 288 347 415
#     4  10  24  42  65 100 139 175 214 269 340 409
#
# _framework density 20.910778000000001
#
# number of rings (size 3 to 8) (size 9 to 14) (size 15 to 20)
#    0.000    1.455    1.818    2.182    5.091    2.909 
#    0.000    0.000    0.000    0.000    0.000    0.000 
#    0.000    0.000    0.000    0.000    0.000    0.000 
#
# Total GULP energy -245798.590740 kJ/mol
# GULP energy per Si atom -5586.331608 kJ/mol
# Density = 2.086318 g / cm^3
# Si number density = 20.910778 Si / 1000 Ang^3
#
#
#
# Elastic Constant Matrix: (Units=GPa)
#
#
# Indices 1 2 3 4 5 6 
#
# 1 141.6464 71.2538 57.8873 0.0000 0.0000 0.0000
# 2 71.2538 154.5805 68.2819 0.0000 0.0000 0.0000
# 3 57.8873 68.2819 107.4713 0.0000 0.0000 0.0000
# 4 0.0000 0.0000 0.0000 38.7027 0.0000 0.0000
# 5 0.0000 0.0000 0.0000 0.0000 32.9704 0.0000
# 6 0.0000 0.0000 0.0000 0.0000 0.0000 21.1858
#
#
#
# Elastic Compliance Matrix: (Units=1/GPa)
#
#
# Indices 1 2 3 4 5 6 
#
# 1 0.010022 -0.003107 -0.003424 0.000000 0.000000 0.000000
# 2 -0.003107 0.009956 -0.004652 0.000000 0.000000 0.000000
# 3 -0.003424 -0.004652 0.014105 0.000000 0.000000 0.000000
# 4 0.000000 0.000000 0.000000 0.025838 0.000000 0.000000
# 5 0.000000 0.000000 0.000000 0.000000 0.030330 0.000000
# 6 0.000000 0.000000 0.000000 0.000000 0.000000 0.047201
#
#
# Mechanical properties :
#
#
# Convention : Reuss Voigt Hill
#
# Bulk Modulus (GPa) = 85.34943 88.72714 87.03828
# Shear Modulus (GPa) = 30.53890 32.32344 31.43117
#
# Velocity S-wave (km/s) = 3.82571 3.93591 3.88120
# Velocity P-wave (km/s) = 7.77299 7.94849 7.86123
#
# Compressibility (1/GPa) = 0.01171654
#
# Stress axis : x y z
#
# Youngs Moduli (GPa) = 99.77807 100.43831 70.89758
#
# Poissons Ratio (x) = 0.31209 0.24276
# Poissons Ratio (y) = 0.31003 0.32982
# Poissons Ratio (z) = 0.34165 0.46725
#
# Static dielectric constant tensor:
#      x y z
#    x 1.750130 0.000000 0.000000 
#    y 0.000000 1.628380 0.000000 
#    z 0.000000 0.000000 1.754960 
# 
# From -- ./inp_files/27195.got.cif
#   From: 2010.05.17/outbox.cif.g08.bks.cpg/sg64_14_cif.got.tgz:27195.got - 2010.06.03 16:29:19.
