data_PCOD9480596
_publ_section_title
;
Structure prediction by ZEFSAII (Michael W. Deem and Ramdas Pophale) SiO2 
 PCOD9480596
Probable space group: C M C A
;
_chemical_formula_sum "Si O2"
_cell_formula_units_Z 72
_cell_length_a 22.003367
_cell_length_b 8.515438
_cell_length_c 18.578811
_cell_angle_alpha 90.000000
_cell_angle_beta 90.000000
_cell_angle_gamma 90.000000
_cell_volume 3481.080372
_symmetry_space_group_name_H-M "C M C A"
_symmetry_group_IT_number 64
_symmetry_cell_setting 'orthorhombic'
loop_
_space_group_symop_operation_xyz
x,y,z
-x,1/2-y,1/2+z
x,-y,-z
-x,1/2+y,1/2-z
-x,-y,-z
x,1/2+y,1/2-z
-x,y,z
x,1/2-y,1/2+z
1/2+x,1/2+y,z
1/2-x,-y,1/2+z
1/2+x,1/2-y,-z
1/2-x,y,1/2-z
1/2-x,1/2-y,-z
1/2+x,y,1/2-z
1/2-x,1/2+y,z
1/2+x,-y,1/2+z
loop_
_atom_site_type_symbol
_atom_site_label
_atom_site_fract_x
_atom_site_fract_y
_atom_site_fract_z
Si Si1 0.070571 0.821961 0.026154
Si Si2 0.239380 0.335842 0.077139
Si Si3 0.861593 0.127065 0.841062
Si Si4 0.643642 0.500000 0.500000
Si Si5 0.311189 0.655313 0.215715
O O1 0.081822 0.821821 0.112007
O O2 0.106376 0.663779 0.001003
O O3 0.000000 0.804864 0.006923
O O4 0.089288 0.000000 0.000000
O O5 0.305602 0.387344 0.102616
O O6 0.191067 0.476639 0.065639
O O7 0.211348 0.237706 0.142830
O O8 0.250000 0.250000 0.000000
O O9 0.837455 0.235915 0.777764
O O10 0.865544 0.958338 0.805690
O O11 0.250000 0.575970 0.250000
#
# Coordination Sequence:
#
# PCOD9480596 Si02
#       5
#    16  16  16   8  16
#     4  11  26  47  68  97 136 182 237 296 345 406
#     4  11  21  35  64 105 136 163 214 281 340 412
#     4  11  23  39  62  93 134 177 218 278 347 416
#     4  12  23  40  76 102 131 174 226 280 350 422
#     4  10  22  37  57  92 140 173 206 270 351 416
#
# _framework density 20.683233999999999
#
# number of rings (size 3 to 8) (size 9 to 14) (size 15 to 20)
#    0.000    1.111    2.222    5.000    7.778    0.000 
#    0.000    1.111    0.000    0.000    0.000    0.000 
#    0.000    0.000    0.000    0.000    0.000    0.000 
#
# Total GULP energy -200702.313936 kJ/mol
# GULP energy per Si atom -5575.064276 kJ/mol
# Density = 2.063616 g / cm^3
# Si number density = 20.683234 Si / 1000 Ang^3
#
#
#
# Elastic Constant Matrix: (Units=GPa)
#
#
# Indices 1 2 3 4 5 6 
#
# 1 56.7817 40.4008 19.7577 0.0000 0.0000 0.0000
# 2 40.4008 109.1158 37.3642 0.0000 0.0000 0.0000
# 3 19.7577 37.3642 107.2608 0.0000 0.0000 0.0000
# 4 0.0000 0.0000 0.0000 26.3170 0.0000 0.0000
# 5 0.0000 0.0000 0.0000 0.0000 17.2322 0.0000
# 6 0.0000 0.0000 0.0000 0.0000 0.0000 32.1999
#
#
#
# Elastic Compliance Matrix: (Units=1/GPa)
#
#
# Indices 1 2 3 4 5 6 
#
# 1 0.024124 -0.008414 -0.001513 0.000000 0.000000 0.000000
# 2 -0.008414 0.013341 -0.003097 0.000000 0.000000 0.000000
# 3 -0.001513 -0.003097 0.010681 0.000000 0.000000 0.000000
# 4 0.000000 0.000000 0.000000 0.037998 0.000000 0.000000
# 5 0.000000 0.000000 0.000000 0.000000 0.058031 0.000000
# 6 0.000000 0.000000 0.000000 0.000000 0.000000 0.031056
#
#
# Mechanical properties :
#
#
# Convention : Reuss Voigt Hill
#
# Bulk Modulus (GPa) = 45.25436 52.02262 48.63849
# Shear Modulus (GPa) = 23.96415 26.85886 25.41151
#
# Velocity S-wave (km/s) = 3.40755 3.60749 3.50895
# Velocity P-wave (km/s) = 6.11630 6.52370 6.32328
#
# Compressibility (1/GPa) = 0.02209732
#
# Stress axis : x y z
#
# Youngs Moduli (GPa) = 41.45165 74.95925 93.62739
#
# Poissons Ratio (x) = 0.63073 0.14163
# Poissons Ratio (y) = 0.34878 0.28999
# Poissons Ratio (z) = 0.06270 0.23217
#
# Static dielectric constant tensor:
#      x y z
#    x 1.720570 0.000000 0.000000 
#    y 0.000000 1.904860 0.000000 
#    z 0.000000 0.000000 1.766910 
# 
# From -- ./inp_files/34813.got.cif
#   From: 2010.05.17/outbox.cif.g08.bks.cpg/sg64_18_cif.got.tgz:34813.got - 2010.06.03 16:29:19.
