data_PCOD9480928
_publ_section_title
;
Structure prediction by ZEFSAII (Michael W. Deem and Ramdas Pophale) SiO2 
 PCOD9480928
Probable space group: C M C A
;
_chemical_formula_sum "Si O2"
_cell_formula_units_Z 112
_cell_length_a 22.288072
_cell_length_b 16.583005
_cell_length_c 15.010036
_cell_angle_alpha 90.000000
_cell_angle_beta 90.000000
_cell_angle_gamma 90.000000
_cell_volume 5547.757479
_symmetry_space_group_name_H-M "C M C A"
_symmetry_group_IT_number 64
_symmetry_cell_setting 'orthorhombic'
loop_
_space_group_symop_operation_xyz
x,y,z
-x,1/2-y,1/2+z
x,-y,-z
-x,1/2+y,1/2-z
-x,-y,-z
x,1/2+y,1/2-z
-x,y,z
x,1/2-y,1/2+z
1/2+x,1/2+y,z
1/2-x,-y,1/2+z
1/2+x,1/2-y,-z
1/2-x,y,1/2-z
1/2-x,1/2-y,-z
1/2+x,y,1/2-z
1/2-x,1/2+y,z
1/2+x,-y,1/2+z
loop_
_atom_site_type_symbol
_atom_site_label
_atom_site_fract_x
_atom_site_fract_y
_atom_site_fract_z
Si Si1 0.569069 0.280883 0.998106
Si Si2 0.170647 0.496353 0.894411
Si Si3 0.199582 0.452261 0.634023
Si Si4 0.878495 0.689208 0.303786
Si Si5 0.181085 0.122850 0.939442
Si Si6 0.289876 0.163894 0.834411
Si Si7 0.069451 0.365371 0.877446
O O1 0.500000 0.303201 0.017100
O O2 0.582314 0.296149 0.893384
O O3 0.618687 0.331052 0.052654
O O4 0.577537 0.189843 0.034342
O O5 0.229492 0.457566 0.847904
O O6 0.168950 0.588360 0.861207
O O7 0.112606 0.442183 0.881469
O O8 0.183700 0.500000 0.000000
O O9 0.156152 0.396181 0.690581
O O10 0.177598 0.544301 0.623719
O O11 0.194543 0.411295 0.536936
O O12 0.828383 0.758531 0.310440
O O13 0.913644 0.686793 0.210617
O O14 0.238597 0.175294 0.909715
O O15 0.250000 0.141761 0.750000
O O16 0.000000 0.388752 0.871600
#
# Coordination Sequence:
#
# PCOD9480928 Si02
#       7
#    16  16  16  16  16  16  16
#     4  10  22  41  66  91 130 177 215 264 322 388
#     4  11  22  42  65  92 130 167 209 272 328 385
#     4   9  19  35  62  92 125 163 200 268 328 381
#     4  11  24  40  67  94 130 171 218 271 326 387
#     4   9  18  37  56  91 127 155 209 258 319 387
#     4  11  23  36  59  96 128 159 208 265 331 392
#     4  11  26  44  64  94 130 173 229 269 314 394
#
# _framework density 20.188337000000001
#
# number of rings (size 3 to 8) (size 9 to 14) (size 15 to 20)
#    0.000    1.714    2.857    2.143    8.000    1.429 
#    0.000    7.857    0.000    0.000    0.000    0.000 
#    0.000    0.000    0.000    0.000    0.000    0.000 
#
# Total GULP energy -312642.011259 kJ/mol
# GULP energy per Si atom -5582.893058 kJ/mol
# Density = 2.014239 g / cm^3
# Si number density = 20.188337 Si / 1000 Ang^3
#
#
#
# Elastic Constant Matrix: (Units=GPa)
#
#
# Indices 1 2 3 4 5 6 
#
# 1 131.5170 50.1963 27.3128 0.0000 0.0000 0.0000
# 2 50.1963 46.6429 9.5506 0.0000 0.0000 0.0000
# 3 27.3128 9.5506 59.0347 0.0000 0.0000 0.0000
# 4 0.0000 0.0000 0.0000 19.1981 0.0000 0.0000
# 5 0.0000 0.0000 0.0000 0.0000 3.1992 0.0000
# 6 0.0000 0.0000 0.0000 0.0000 0.0000 37.7983
#
#
#
# Elastic Compliance Matrix: (Units=1/GPa)
#
#
# Indices 1 2 3 4 5 6 
#
# 1 0.013810 -0.014018 -0.004121 0.000000 0.000000 0.000000
# 2 -0.014018 0.036403 0.000596 0.000000 0.000000 0.000000
# 3 -0.004121 0.000596 0.018750 0.000000 0.000000 0.000000
# 4 0.000000 0.000000 0.000000 0.052088 0.000000 0.000000
# 5 0.000000 0.000000 0.000000 0.000000 0.312579 0.000000
# 6 0.000000 0.000000 0.000000 0.000000 0.000000 0.026456
#
#
# Mechanical properties :
#
#
# Convention : Reuss Voigt Hill
#
# Bulk Modulus (GPa) = 29.51914 45.70157 37.61036
# Shear Modulus (GPa) = 9.87237 22.04811 15.96024
#
# Velocity S-wave (km/s) = 2.21376 3.30831 2.81475
# Velocity P-wave (km/s) = 4.60304 6.10573 5.40684
#
# Compressibility (1/GPa) = 0.03387632
#
# Stress axis : x y z
#
# Youngs Moduli (GPa) = 72.41281 27.47011 53.33467
#
# Poissons Ratio (x) = 0.38507 0.21981
# Poissons Ratio (y) = 1.01507 -0.03180
# Poissons Ratio (z) = 0.29844 -0.01638
#
# Static dielectric constant tensor:
#      x y z
#    x 1.692240 0.000000 0.000000 
#    y 0.000000 1.713580 0.000000 
#    z 0.000000 0.000000 1.769040 
# 
# From -- ./inp_files/27407.got.cif
#   From: 2010.05.17/outbox.cif.g08.bks.cpg/sg64_14_cif.got.tgz:27407.got - 2010.06.03 16:29:19.
