data_PCOD9480872
_publ_section_title
;
Structure prediction by ZEFSAII (Michael W. Deem and Ramdas Pophale) SiO2 
 PCOD9480872
Probable space group: C M C A
;
_chemical_formula_sum "Si O2"
_cell_formula_units_Z 88
_cell_length_a 29.045775
_cell_length_b 8.256910
_cell_length_c 18.368367
_cell_angle_alpha 90.000000
_cell_angle_beta 90.000000
_cell_angle_gamma 90.000000
_cell_volume 4405.255151
_symmetry_space_group_name_H-M "C M C A"
_symmetry_group_IT_number 64
_symmetry_cell_setting 'orthorhombic'
loop_
_space_group_symop_operation_xyz
x,y,z
-x,1/2-y,1/2+z
x,-y,-z
-x,1/2+y,1/2-z
-x,-y,-z
x,1/2+y,1/2-z
-x,y,z
x,1/2-y,1/2+z
1/2+x,1/2+y,z
1/2-x,-y,1/2+z
1/2+x,1/2-y,-z
1/2-x,y,1/2-z
1/2-x,1/2-y,-z
1/2+x,y,1/2-z
1/2-x,1/2+y,z
1/2+x,-y,1/2+z
loop_
_atom_site_type_symbol
_atom_site_label
_atom_site_fract_x
_atom_site_fract_y
_atom_site_fract_z
Si Si1 0.750000 0.472150 0.250000
Si Si2 0.446722 0.161151 0.453164
Si Si3 0.315525 0.789641 0.683003
Si Si4 0.865090 0.102962 0.565840
Si Si5 0.947524 0.046966 0.811770
Si Si6 0.893583 0.131686 0.303660
O O1 0.724276 0.576740 0.188664
O O2 0.710326 0.366420 0.285596
O O3 0.500000 0.205195 0.469184
O O4 0.411379 0.307698 0.462482
O O5 0.435758 0.000000 0.500000
O O6 0.443621 0.096597 0.370412
O O7 0.335457 0.743835 0.604653
O O8 0.355726 0.837361 0.740189
O O9 0.843950 0.000000 0.500000
O O10 0.875339 0.975125 0.630172
O O11 0.913565 0.195540 0.828040
O O12 0.000000 0.105459 0.812948
O O13 0.933608 0.972287 0.734674
#
# Coordination Sequence:
#
# PCOD9480872 Si02
#       6
#     8  16  16  16  16  16
#     4  10  22  40  74  94 124 160 212 268 330 406
#     4  10  22  41  60  88 133 181 224 266 321 378
#     4  11  21  42  67  97 121 165 212 262 327 400
#     4  12  25  41  64  98 134 172 219 271 328 383
#     4  11  21  34  58  91 125 169 220 269 314 372
#     4  12  21  39  63  90 131 166 215 268 317 390
#
# _framework density 19.976141999999999
#
# number of rings (size 3 to 8) (size 9 to 14) (size 15 to 20)
#    0.000    0.909    5.455    1.636    0.000    3.273 
#    0.000    0.909    0.000    0.000    0.000    0.000 
#    0.000    0.000    0.000    0.000    0.000    0.000 
#
# Total GULP energy -245725.786507 kJ/mol
# GULP energy per Si atom -5584.676966 kJ/mol
# Density = 1.993068 g / cm^3
# Si number density = 19.976142 Si / 1000 Ang^3
#
#
#
# Elastic Constant Matrix: (Units=GPa)
#
#
# Indices 1 2 3 4 5 6 
#
# 1 69.5403 22.9886 7.0318 0.0000 0.0000 0.0000
# 2 22.9886 64.6012 -2.7068 0.0000 0.0000 0.0000
# 3 7.0318 -2.7068 73.7583 0.0000 0.0000 0.0000
# 4 0.0000 0.0000 0.0000 30.1380 0.0000 0.0000
# 5 0.0000 0.0000 0.0000 0.0000 14.5297 0.0000
# 6 0.0000 0.0000 0.0000 0.0000 0.0000 30.9454
#
#
#
# Elastic Compliance Matrix: (Units=1/GPa)
#
#
# Indices 1 2 3 4 5 6 
#
# 1 0.016531 -0.005958 -0.001795 0.000000 0.000000 0.000000
# 2 -0.005958 0.017651 0.001216 0.000000 0.000000 0.000000
# 3 -0.001795 0.001216 0.013774 0.000000 0.000000 0.000000
# 4 0.000000 0.000000 0.000000 0.033181 0.000000 0.000000
# 5 0.000000 0.000000 0.000000 0.000000 0.068825 0.000000
# 6 0.000000 0.000000 0.000000 0.000000 0.000000 0.032315
#
#
# Mechanical properties :
#
#
# Convention : Reuss Voigt Hill
#
# Bulk Modulus (GPa) = 28.66825 29.16964 28.91895
# Shear Modulus (GPa) = 24.15735 27.16171 25.65953
#
# Velocity S-wave (km/s) = 3.48129 3.69142 3.58789
# Velocity P-wave (km/s) = 5.52644 5.72737 5.62780
#
# Compressibility (1/GPa) = 0.03488179
#
# Stress axis : x y z
#
# Youngs Moduli (GPa) = 60.49172 56.65509 72.60311
#
# Poissons Ratio (x) = 0.33754 0.13030
# Poissons Ratio (y) = 0.36040 -0.08827
# Poissons Ratio (z) = 0.10856 -0.06888
#
# Static dielectric constant tensor:
#      x y z
#    x 1.725960 0.000000 0.000000 
#    y 0.000000 1.730590 0.000000 
#    z 0.000000 0.000000 1.715250 
# 
# From -- ./inp_files/35693.got.cif
#   From: 2010.05.17/outbox.cif.g08.bks.cpg/sg64_18_cif.got.tgz:35693.got - 2010.06.03 16:29:19.
