data_PCOD9480622
_publ_section_title
;
Structure prediction by ZEFSAII (Michael W. Deem and Ramdas Pophale) SiO2 
 PCOD9480622
Probable space group: C M C A
;
_chemical_formula_sum "Si O2"
_cell_formula_units_Z 104
_cell_length_a 28.706336
_cell_length_b 17.850669
_cell_length_c 9.480394
_cell_angle_alpha 90.000000
_cell_angle_beta 90.000000
_cell_angle_gamma 90.000000
_cell_volume 4858.012721
_symmetry_space_group_name_H-M "C M C A"
_symmetry_group_IT_number 64
_symmetry_cell_setting 'orthorhombic'
loop_
_space_group_symop_operation_xyz
x,y,z
-x,1/2-y,1/2+z
x,-y,-z
-x,1/2+y,1/2-z
-x,-y,-z
x,1/2+y,1/2-z
-x,y,z
x,1/2-y,1/2+z
1/2+x,1/2+y,z
1/2-x,-y,1/2+z
1/2+x,1/2-y,-z
1/2-x,y,1/2-z
1/2-x,1/2-y,-z
1/2+x,y,1/2-z
1/2-x,1/2+y,z
1/2+x,-y,1/2+z
loop_
_atom_site_type_symbol
_atom_site_label
_atom_site_fract_x
_atom_site_fract_y
_atom_site_fract_z
Si Si1 0.552225 0.347832 0.416971
Si Si2 0.696953 0.412549 0.233118
Si Si3 0.946801 0.765152 0.695211
Si Si4 0.866754 0.371047 0.681075
Si Si5 0.648187 0.384480 0.519593
Si Si6 0.638491 0.000000 0.500000
Si Si7 0.803400 0.723707 0.525440
O O1 0.500000 0.379178 0.426296
O O2 0.561300 0.316692 0.260555
O O3 0.554263 0.277456 0.527257
O O4 0.594768 0.396124 0.471906
O O5 0.750000 0.435151 0.250000
O O6 0.677021 0.414903 0.389924
O O7 0.670305 0.462427 0.119728
O O8 0.694778 0.327960 0.165901
O O9 0.907486 0.817358 0.762889
O O10 0.000000 0.785136 0.737924
O O11 0.887721 0.432477 0.575681
O O12 0.825933 0.326592 0.599422
O O13 0.846366 0.410895 0.820858
O O14 0.664092 0.297017 0.532307
O O15 0.750000 0.750000 0.500000
#
# Coordination Sequence:
#
# PCOD9480622 Si02
#       7
#    16  16  16  16  16   8  16
#     4   9  18  31  52  87 122 146 175 225 290 358
#     4  11  24  41  59  84 114 158 194 241 278 344
#     4   9  17  31  53  81 113 146 182 228 288 345
#     4  10  22  38  57  81 113 155 188 240 279 343
#     4  11  21  34  62  89 115 148 188 236 294 342
#     4  10  26  44  55  74 114 154 205 240 282 328
#     4  11  21  37  57  87 121 146 184 229 291 339
#
# _framework density 21.407931000000001
#
# number of rings (size 3 to 8) (size 9 to 14) (size 15 to 20)
#    0.000    1.846    3.077    0.923    2.154    1.846 
#    0.000    0.385    0.000    0.923    0.000    4.308 
#    0.000    0.000    0.000    0.000    0.000    0.000 
#
# Total GULP energy -290110.637233 kJ/mol
# GULP energy per Si atom -5579.050716 kJ/mol
# Density = 2.135921 g / cm^3
# Si number density = 21.407931 Si / 1000 Ang^3
#
#
#
# Elastic Constant Matrix: (Units=GPa)
#
#
# Indices 1 2 3 4 5 6 
#
# 1 79.2806 0.9885 12.4836 0.0000 0.0000 0.0000
# 2 0.9885 39.4559 4.4039 0.0000 0.0000 0.0000
# 3 12.4836 4.4039 103.6738 0.0000 0.0000 0.0000
# 4 0.0000 0.0000 0.0000 12.4986 0.0000 0.0000
# 5 0.0000 0.0000 0.0000 0.0000 22.3643 0.0000
# 6 0.0000 0.0000 0.0000 0.0000 0.0000 -21.1030
#
#
#
# Elastic Compliance Matrix: (Units=1/GPa)
#
#
# Indices 1 2 3 4 5 6 
#
# 1 0.012858 -0.000150 -0.001542 0.000000 0.000000 0.000000
# 2 -0.000150 0.025467 -0.001064 0.000000 0.000000 0.000000
# 3 -0.001542 -0.001064 0.009876 0.000000 0.000000 0.000000
# 4 0.000000 0.000000 0.000000 0.080009 0.000000 0.000000
# 5 0.000000 0.000000 0.000000 0.000000 0.044714 0.000000
# 6 0.000000 0.000000 0.000000 0.000000 0.000000 -0.047387
#
#
# Mechanical properties :
#
#
# Convention : Reuss Voigt Hill
#
# Bulk Modulus (GPa) = 23.42444 28.68470 26.05457
# Shear Modulus (GPa) = 34.41639 16.38760 25.40199
#
# Velocity S-wave (km/s) = 4.01390 2.76975 3.44840
# Velocity P-wave (km/s) = 5.69627 4.86384 5.29643
#
# Compressibility (1/GPa) = 0.04269045
#
# Stress axis : x y z
#
# Youngs Moduli (GPa) = 77.77203 39.26611 101.25054
#
# Poissons Ratio (x) = 0.00589 0.15612
# Poissons Ratio (y) = 0.01167 0.10771
# Poissons Ratio (z) = 0.11992 0.04177
#
# Static dielectric constant tensor:
#      x y z
#    x 1.766480 0.000000 0.000000 
#    y 0.000000 1.811540 0.000000 
#    z 0.000000 0.000000 1.808980 
# 
# From -- ./inp_files/11188.got.cif
#   From: 2010.05.17/outbox.cif.g08.bks.cpg/sg64_6_cif.got.tgz:11188.got - 2010.06.03 16:29:19.
