data_PCOD9480483
_publ_section_title
;
Structure prediction by ZEFSAII (Michael W. Deem and Ramdas Pophale) SiO2 
 PCOD9480483
Probable space group: C M C A
;
_chemical_formula_sum "Si O2"
_cell_formula_units_Z 72
_cell_length_a 17.065098
_cell_length_b 8.899512
_cell_length_c 21.211322
_cell_angle_alpha 90.000000
_cell_angle_beta 90.000000
_cell_angle_gamma 90.000000
_cell_volume 3221.385626
_symmetry_space_group_name_H-M "C M C A"
_symmetry_group_IT_number 64
_symmetry_cell_setting 'orthorhombic'
loop_
_space_group_symop_operation_xyz
x,y,z
-x,1/2-y,1/2+z
x,-y,-z
-x,1/2+y,1/2-z
-x,-y,-z
x,1/2+y,1/2-z
-x,y,z
x,1/2-y,1/2+z
1/2+x,1/2+y,z
1/2-x,-y,1/2+z
1/2+x,1/2-y,-z
1/2-x,y,1/2-z
1/2-x,1/2-y,-z
1/2+x,y,1/2-z
1/2-x,1/2+y,z
1/2+x,-y,1/2+z
loop_
_atom_site_type_symbol
_atom_site_label
_atom_site_fract_x
_atom_site_fract_y
_atom_site_fract_z
Si Si1 0.173378 0.974713 0.667759
Si Si2 0.250000 0.229032 0.750000
Si Si3 0.411067 0.407824 0.058716
Si Si4 0.000000 0.411309 0.811769
Si Si5 0.803042 0.138870 0.458364
Si Si6 0.500000 0.952166 0.327175
O O1 0.204816 0.123601 0.700962
O O2 0.189401 0.836646 0.714674
O O3 0.079748 0.978472 0.658253
O O4 0.225130 0.941850 0.605460
O O5 0.500000 0.371303 0.037827
O O6 0.367537 0.253267 0.066925
O O7 0.425861 0.486358 0.126307
O O8 0.375375 0.500000 0.000000
O O9 0.000000 0.229072 0.817019
O O10 0.000000 0.461893 0.738203
O O11 0.750000 0.250000 0.500000
O O12 0.831986 0.000000 0.500000
#
# Coordination Sequence:
#
# PCOD9480483 Si02
#       6
#    16   8  16   8  16   8
#     4  11  23  45  65 102 133 183 227 287 341 434
#     4  10  24  42  68  92 146 178 224 278 358 410
#     4   9  20  44  65  92 136 179 224 286 344 413
#     4  12  22  42  72 100 141 177 234 287 355 409
#     4  12  25  43  68  98 134 184 235 292 348 421
#     4  10  21  42  64 104 137 174 218 291 347 423
#
# _framework density 22.350632000000001
#
# number of rings (size 3 to 8) (size 9 to 14) (size 15 to 20)
#    0.667    0.667    2.222    3.333    0.000    0.444 
#   12.000    0.000    0.000    0.000    0.000    0.000 
#    0.000    0.000    0.000    0.000    0.000    0.000 
#
# Total GULP energy -200882.995220 kJ/mol
# GULP energy per Si atom -5580.083201 kJ/mol
# Density = 2.229976 g / cm^3
# Si number density = 22.350632 Si / 1000 Ang^3
#
#
#
# Elastic Constant Matrix: (Units=GPa)
#
#
# Indices 1 2 3 4 5 6 
#
# 1 69.8900 -3.9714 -10.7204 0.0000 0.0000 0.0000
# 2 -3.9714 53.3160 10.6701 0.0000 0.0000 0.0000
# 3 -10.7204 10.6701 103.7727 0.0000 0.0000 0.0000
# 4 0.0000 0.0000 0.0000 41.6708 0.0000 0.0000
# 5 0.0000 0.0000 0.0000 0.0000 18.4126 0.0000
# 6 0.0000 0.0000 0.0000 0.0000 0.0000 7.3870
#
#
#
# Elastic Compliance Matrix: (Units=1/GPa)
#
#
# Indices 1 2 3 4 5 6 
#
# 1 0.014572 0.000801 0.001423 0.000000 0.000000 0.000000
# 2 0.000801 0.019194 -0.001891 0.000000 0.000000 0.000000
# 3 0.001423 -0.001891 0.009978 0.000000 0.000000 0.000000
# 4 0.000000 0.000000 0.000000 0.023998 0.000000 0.000000
# 5 0.000000 0.000000 0.000000 0.000000 0.054311 0.000000
# 6 0.000000 0.000000 0.000000 0.000000 0.000000 0.135372
#
#
# Mechanical properties :
#
#
# Convention : Reuss Voigt Hill
#
# Bulk Modulus (GPa) = 22.51761 24.32614 23.42188
# Shear Modulus (GPa) = 18.41199 28.89410 23.65305
#
# Velocity S-wave (km/s) = 2.87327 3.59940 3.25664
# Velocity P-wave (km/s) = 4.59393 5.30865 4.96417
#
# Compressibility (1/GPa) = 0.04440968
#
# Stress axis : x y z
#
# Youngs Moduli (GPa) = 68.62488 52.09915 100.22163
#
# Poissons Ratio (x) = -0.04171 -0.14262
# Poissons Ratio (y) = -0.05494 0.18951
# Poissons Ratio (z) = -0.09766 0.09851
#
# Static dielectric constant tensor:
#      x y z
#    x 1.951960 0.000000 0.000000 
#    y 0.000000 1.785880 0.000000 
#    z 0.000000 0.000000 1.925120 
# 
# From -- ./inp_files/46132.got.cif
#   From: 2010.05.17/outbox.cif.g08.bks.cpg/sg64_24_cif.got.tgz:46132.got - 2010.06.03 16:29:19.
