data_PCOD9481931
_publ_section_title
;
Structure prediction by ZEFSAII (Michael W. Deem and Ramdas Pophale) SiO2 
 PCOD9481931
Probable space group: C M C A
;
_chemical_formula_sum "Si O2"
_cell_formula_units_Z 120
_cell_length_a 21.933515
_cell_length_b 7.872584
_cell_length_c 26.260380
_cell_angle_alpha 90.000000
_cell_angle_beta 90.000000
_cell_angle_gamma 90.000000
_cell_volume 4534.470131
_symmetry_space_group_name_H-M "C M C A"
_symmetry_group_IT_number 64
_symmetry_cell_setting 'orthorhombic'
loop_
_space_group_symop_operation_xyz
x,y,z
-x,1/2-y,1/2+z
x,-y,-z
-x,1/2+y,1/2-z
-x,-y,-z
x,1/2+y,1/2-z
-x,y,z
x,1/2-y,1/2+z
1/2+x,1/2+y,z
1/2-x,-y,1/2+z
1/2+x,1/2-y,-z
1/2-x,y,1/2-z
1/2-x,1/2-y,-z
1/2+x,y,1/2-z
1/2-x,1/2+y,z
1/2+x,-y,1/2+z
loop_
_atom_site_type_symbol
_atom_site_label
_atom_site_fract_x
_atom_site_fract_y
_atom_site_fract_z
Si Si1 0.881133 0.893988 0.272663
Si Si2 0.500000 0.877789 0.294775
Si Si3 0.703852 0.106759 0.294302
Si Si4 0.567040 0.529577 0.367120
Si Si5 0.568322 0.276630 0.945523
Si Si6 0.786332 0.313687 0.889427
Si Si7 0.690568 0.883908 0.044621
Si Si8 0.593953 0.381716 0.112304
O O1 0.945602 0.848757 0.248176
O O2 0.832178 0.950239 0.230658
O O3 0.890517 0.034188 0.317035
O O4 0.850657 0.738718 0.302051
O O5 0.446243 0.919594 0.337894
O O6 0.750000 0.159966 0.250000
O O7 0.746468 0.116066 0.343193
O O8 0.665416 0.837646 0.379003
O O9 0.500000 0.555429 0.342075
O O10 0.566316 0.352671 0.397028
O O11 0.571021 0.693811 0.403245
O O12 0.500000 0.270098 0.968481
O O13 0.628540 0.206859 0.973825
O O14 0.583031 0.466494 0.926693
O O15 0.821633 0.477543 0.911204
O O16 0.738696 0.243030 0.930950
O O17 0.716217 0.000000 0.000000
#
# Coordination Sequence:
#
# PCOD9481931 Si02
#       8
#    16   8  16  16  16  16  16  16
#     4  12  27  44  66 103 159 210 272 336 382 467
#     4  12  26  42  72 110 155 214 276 335 395 464
#     4  12  29  45  71 107 159 217 268 322 397 480
#     4  11  22  44  69 104 153 209 264 320 396 469
#     4  11  25  48  83 118 156 203 264 334 412 491
#     4  12  28  50  82 114 164 218 267 340 410 486
#     4  12  28  53  86 122 159 207 275 345 420 498
#     4  12  25  46  75 112 153 206 265 324 400 479
#
# _framework density 26.463954000000001
#
# number of rings (size 3 to 8) (size 9 to 14) (size 15 to 20)
#    0.000    0.267    3.333    4.800    9.333    0.800 
#    0.000    0.000    0.000    0.800    0.000    0.000 
#    0.000    0.000    0.000    0.000    0.000    0.000 
#
# Total GULP energy -334793.607532 kJ/mol
# GULP energy per Si atom -5579.893459 kJ/mol
# Density = 2.640372 g / cm^3
# Si number density = 26.463954 Si / 1000 Ang^3
#
#
#
# Elastic Constant Matrix: (Units=GPa)
#
#
# Indices 1 2 3 4 5 6 
#
# 1 165.9723 37.2937 16.7808 0.0000 0.0000 0.0000
# 2 37.2937 107.2005 4.2872 0.0000 0.0000 0.0000
# 3 16.7808 4.2872 55.3534 0.0000 0.0000 0.0000
# 4 0.0000 0.0000 0.0000 20.2777 0.0000 0.0000
# 5 0.0000 0.0000 0.0000 0.0000 -4.3371 0.0000
# 6 0.0000 0.0000 0.0000 0.0000 0.0000 32.1230
#
#
#
# Elastic Compliance Matrix: (Units=1/GPa)
#
#
# Indices 1 2 3 4 5 6 
#
# 1 0.006722 -0.002264 -0.001863 0.000000 0.000000 0.000000
# 2 -0.002264 0.010120 -0.000097 0.000000 0.000000 0.000000
# 3 -0.001863 -0.000097 0.018638 0.000000 0.000000 0.000000
# 4 0.000000 0.000000 0.000000 0.049315 0.000000 0.000000
# 5 0.000000 0.000000 0.000000 0.000000 -0.230570 0.000000
# 6 0.000000 0.000000 0.000000 0.000000 0.000000 0.031130
#
#
# Mechanical properties :
#
#
# Convention : Reuss Voigt Hill
#
# Bulk Modulus (GPa) = 36.99333 49.47219 43.23276
# Shear Modulus (GPa) = -51.44755 27.62370 -11.91193
#
# Velocity S-wave (km/s) = -4.41393 3.23433 -2.12390
# Velocity P-wave (km/s) = 3.45948 5.71687 3.21828
#
# Compressibility (1/GPa) = 0.02703190
#
# Stress axis : x y z
#
# Youngs Moduli (GPa) = 148.76210 98.81573 53.65406
#
# Poissons Ratio (x) = 0.22373 0.09993
# Poissons Ratio (y) = 0.33681 0.00523
# Poissons Ratio (z) = 0.27707 0.00963
#
# Static dielectric constant tensor:
#      x y z
#    x 2.124810 0.000000 0.000000 
#    y 0.000000 2.144300 0.000000 
#    z 0.000000 0.000000 2.107670 
# 
# From -- ./inp_files/53817.got.cif
#   From: 2010.05.17/outbox.cif.g08.bks.cpg/sg64_27_cif.got.tgz:53817.got - 2010.06.03 16:29:19.
