data_PCOD9481892
_publ_section_title
;
Structure prediction by ZEFSAII (Michael W. Deem and Ramdas Pophale) SiO2 
 PCOD9481892
Probable space group: C M C A
;
_chemical_formula_sum "Si O2"
_cell_formula_units_Z 88
_cell_length_a 23.133450
_cell_length_b 7.644520
_cell_length_c 21.174949
_cell_angle_alpha 90.000000
_cell_angle_beta 90.000000
_cell_angle_gamma 90.000000
_cell_volume 3744.665247
_symmetry_space_group_name_H-M "C M C A"
_symmetry_group_IT_number 64
_symmetry_cell_setting 'orthorhombic'
loop_
_space_group_symop_operation_xyz
x,y,z
-x,1/2-y,1/2+z
x,-y,-z
-x,1/2+y,1/2-z
-x,-y,-z
x,1/2+y,1/2-z
-x,y,z
x,1/2-y,1/2+z
1/2+x,1/2+y,z
1/2-x,-y,1/2+z
1/2+x,1/2-y,-z
1/2-x,y,1/2-z
1/2-x,1/2-y,-z
1/2+x,y,1/2-z
1/2-x,1/2+y,z
1/2+x,-y,1/2+z
loop_
_atom_site_type_symbol
_atom_site_label
_atom_site_fract_x
_atom_site_fract_y
_atom_site_fract_z
Si Si1 0.432743 0.664705 0.459022
Si Si2 0.678562 0.302853 0.879481
Si Si3 0.141257 0.500000 0.500000
Si Si4 0.723070 0.364731 0.181344
Si Si5 0.065455 0.141851 0.181875
Si Si6 0.097499 0.764328 0.675752
O O1 0.411111 0.500000 0.500000
O O2 0.500000 0.691939 0.474878
O O3 0.426203 0.633366 0.384342
O O4 0.397614 0.841972 0.473150
O O5 0.697915 0.442166 0.826388
O O6 0.727496 0.159108 0.871457
O O7 0.613451 0.257030 0.859249
O O8 0.677105 0.407850 0.944567
O O9 0.750000 0.347123 0.250000
O O10 0.667350 0.241096 0.173277
O O11 0.074665 0.935446 0.169007
O O12 0.000000 0.192102 0.166535
O O13 0.077302 0.170051 0.256112
#
# Coordination Sequence:
#
# PCOD9481892 Si02
#       6
#    16  16   8  16  16  16
#     4  11  25  47  73 104 147 196 243 292 357 431
#     4  11  26  41  67 100 133 185 234 288 360 414
#     4  12  25  48  68 108 138 194 241 296 354 418
#     4  11  22  43  68  96 136 175 232 291 358 429
#     4  11  22  40  67  99 136 173 226 296 362 425
#     4  11  24  43  68 103 139 180 231 300 360 425
#
# _framework density 23.500098000000001
#
# number of rings (size 3 to 8) (size 9 to 14) (size 15 to 20)
#    0.000    0.909    5.455    2.455    2.545    4.364 
#    1.636    1.818    0.000    0.000    0.000    0.000 
#    0.000    0.000    0.000    0.000    0.000    0.000 
#
# Total GULP energy -246349.996855 kJ/mol
# GULP energy per Si atom -5598.863565 kJ/mol
# Density = 2.344661 g / cm^3
# Si number density = 23.500098 Si / 1000 Ang^3
#
#
#
# Elastic Constant Matrix: (Units=GPa)
#
#
# Indices 1 2 3 4 5 6 
#
# 1 146.0247 15.7583 15.4820 0.0000 0.0000 0.0000
# 2 15.7583 65.4011 -1.9823 0.0000 0.0000 0.0000
# 3 15.4820 -1.9823 56.3736 0.0000 0.0000 0.0000
# 4 0.0000 0.0000 0.0000 34.6720 0.0000 0.0000
# 5 0.0000 0.0000 0.0000 0.0000 29.3930 0.0000
# 6 0.0000 0.0000 0.0000 0.0000 0.0000 7.1815
#
#
#
# Elastic Compliance Matrix: (Units=1/GPa)
#
#
# Indices 1 2 3 4 5 6 
#
# 1 0.007262 -0.001812 -0.002058 0.000000 0.000000 0.000000
# 2 -0.001812 0.015759 0.001052 0.000000 0.000000 0.000000
# 3 -0.002058 0.001052 0.018341 0.000000 0.000000 0.000000
# 4 0.000000 0.000000 0.000000 0.028842 0.000000 0.000000
# 5 0.000000 0.000000 0.000000 0.000000 0.034022 0.000000
# 6 0.000000 0.000000 0.000000 0.000000 0.000000 0.139247
#
#
# Mechanical properties :
#
#
# Convention : Reuss Voigt Hill
#
# Bulk Modulus (GPa) = 27.99170 36.25728 32.12449
# Shear Modulus (GPa) = 19.15579 30.15205 24.65392
#
# Velocity S-wave (km/s) = 2.85816 3.58587 3.24249
# Velocity P-wave (km/s) = 4.77800 5.71022 5.26479
#
# Compressibility (1/GPa) = 0.03572488
#
# Stress axis : x y z
#
# Youngs Moduli (GPa) = 137.70468 63.45671 54.52269
#
# Poissons Ratio (x) = 0.11499 0.11221
# Poissons Ratio (y) = 0.24954 -0.05735
# Poissons Ratio (z) = 0.28341 -0.06674
#
# Static dielectric constant tensor:
#      x y z
#    x 1.940400 0.000000 0.000000 
#    y 0.000000 1.914910 0.000000 
#    z 0.000000 0.000000 1.876940 
# 
# From -- ./inp_files/41361.got.cif
#   From: 2010.05.17/outbox.cif.g08.bks.cpg/sg64_21_cif.got.tgz:41361.got - 2010.06.03 16:29:19.
