data_PCOD9481324
_publ_section_title
;
Structure prediction by ZEFSAII (Michael W. Deem and Ramdas Pophale) SiO2 
 PCOD9481324
Probable space group: C M C A
;
_chemical_formula_sum "Si O2"
_cell_formula_units_Z 96
_cell_length_a 18.562354
_cell_length_b 10.186819
_cell_length_c 21.654044
_cell_angle_alpha 90.000000
_cell_angle_beta 90.000000
_cell_angle_gamma 90.000000
_cell_volume 4094.592205
_symmetry_space_group_name_H-M "C M C A"
_symmetry_group_IT_number 64
_symmetry_cell_setting 'orthorhombic'
loop_
_space_group_symop_operation_xyz
x,y,z
-x,1/2-y,1/2+z
x,-y,-z
-x,1/2+y,1/2-z
-x,-y,-z
x,1/2+y,1/2-z
-x,y,z
x,1/2-y,1/2+z
1/2+x,1/2+y,z
1/2-x,-y,1/2+z
1/2+x,1/2-y,-z
1/2-x,y,1/2-z
1/2-x,1/2-y,-z
1/2+x,y,1/2-z
1/2-x,1/2+y,z
1/2+x,-y,1/2+z
loop_
_atom_site_type_symbol
_atom_site_label
_atom_site_fract_x
_atom_site_fract_y
_atom_site_fract_z
Si Si1 0.418064 0.818108 0.994716
Si Si2 0.581159 0.295425 0.200133
Si Si3 0.187332 0.350468 0.198576
Si Si4 0.578525 0.956434 0.418905
Si Si5 0.687184 0.315195 0.915745
Si Si6 0.336654 0.405190 0.612646
O O1 0.500000 0.837413 0.016808
O O2 0.417864 0.678933 0.956592
O O3 0.396713 0.921130 0.940747
O O4 0.357740 0.793829 0.046766
O O5 0.500000 0.244418 0.206233
O O6 0.613636 0.346225 0.263542
O O7 0.580401 0.415305 0.152266
O O8 0.631193 0.188182 0.166272
O O9 0.250000 0.355617 0.250000
O O10 0.187011 0.220850 0.156673
O O11 0.191956 0.468932 0.149628
O O12 0.500000 0.019361 0.431204
O O13 0.644348 0.051999 0.429991
O O14 0.771793 0.335929 0.925473
#
# Coordination Sequence:
#
# PCOD9481324 Si02
#       6
#    16  16  16  16  16  16
#     4  10  23  47  72 102 139 177 230 285 341 407
#     4  10  23  43  68  95 131 180 232 280 339 404
#     4  12  27  44  65 101 138 179 228 290 340 407
#     4   9  20  41  69 101 134 176 227 282 336 401
#     4  12  24  40  70 101 137 178 227 280 346 408
#     4  11  25  44  68  95 140 181 223 280 353 410
#
# _framework density 23.445558999999999
#
# number of rings (size 3 to 8) (size 9 to 14) (size 15 to 20)
#    0.000    1.333    1.667    4.000    7.000    4.667 
#    3.000    0.833    0.000    0.000    0.000    0.000 
#    0.000    0.000    0.000    0.000    0.000    0.000 
#
# Total GULP energy -268334.873745 kJ/mol
# GULP energy per Si atom -5590.309870 kJ/mol
# Density = 2.339220 g / cm^3
# Si number density = 23.445559 Si / 1000 Ang^3
#
#
#
# Elastic Constant Matrix: (Units=GPa)
#
#
# Indices 1 2 3 4 5 6 
#
# 1 150.9589 30.2483 38.4740 0.0000 0.0000 0.0000
# 2 30.2483 65.7529 10.1895 0.0000 0.0000 0.0000
# 3 38.4740 10.1895 103.8714 0.0000 0.0000 0.0000
# 4 0.0000 0.0000 0.0000 29.0722 0.0000 0.0000
# 5 0.0000 0.0000 0.0000 0.0000 -2.4871 0.0000
# 6 0.0000 0.0000 0.0000 0.0000 0.0000 24.3276
#
#
#
# Elastic Compliance Matrix: (Units=1/GPa)
#
#
# Indices 1 2 3 4 5 6 
#
# 1 0.007944 -0.003248 -0.002624 0.000000 0.000000 0.000000
# 2 -0.003248 0.016771 -0.000442 0.000000 0.000000 0.000000
# 3 -0.002624 -0.000442 0.010643 0.000000 0.000000 0.000000
# 4 0.000000 0.000000 0.000000 0.034397 0.000000 0.000000
# 5 0.000000 0.000000 0.000000 0.000000 -0.402073 0.000000
# 6 0.000000 0.000000 0.000000 0.000000 0.000000 0.041106
#
#
# Mechanical properties :
#
#
# Convention : Reuss Voigt Hill
#
# Bulk Modulus (GPa) = 43.99512 53.15632 48.57572
# Shear Modulus (GPa) = -18.44959 26.29397 3.92219
#
# Velocity S-wave (km/s) = -2.80824 3.35250 1.29481
# Velocity P-wave (km/s) = 2.87934 6.14061 4.79571
#
# Compressibility (1/GPa) = 0.02272979
#
# Stress axis : x y z
#
# Youngs Moduli (GPa) = 125.88427 59.62652 93.96273
#
# Poissons Ratio (x) = 0.19365 0.24654
# Poissons Ratio (y) = 0.40885 0.04155
# Poissons Ratio (z) = 0.33029 0.02637
#
# Static dielectric constant tensor:
#      x y z
#    x 1.899600 0.000000 0.000000 
#    y 0.000000 1.958040 0.000000 
#    z 0.000000 0.000000 1.859900 
# 
# From -- ./inp_files/45759.got.cif
#   From: 2010.05.17/outbox.cif.g08.bks.cpg/sg64_23_cif.got.tgz:45759.got - 2010.06.03 16:29:19.
