data_PCOD9481832
_publ_section_title
;
Structure prediction by ZEFSAII (Michael W. Deem and Ramdas Pophale) SiO2 
 PCOD9481832
Probable space group: C M C A
;
_chemical_formula_sum "Si O2"
_cell_formula_units_Z 96
_cell_length_a 25.267665
_cell_length_b 8.883852
_cell_length_c 20.810976
_cell_angle_alpha 90.000000
_cell_angle_beta 90.000000
_cell_angle_gamma 90.000000
_cell_volume 4671.527111
_symmetry_space_group_name_H-M "C M C A"
_symmetry_group_IT_number 64
_symmetry_cell_setting 'orthorhombic'
loop_
_space_group_symop_operation_xyz
x,y,z
-x,1/2-y,1/2+z
x,-y,-z
-x,1/2+y,1/2-z
-x,-y,-z
x,1/2+y,1/2-z
-x,y,z
x,1/2-y,1/2+z
1/2+x,1/2+y,z
1/2-x,-y,1/2+z
1/2+x,1/2-y,-z
1/2-x,y,1/2-z
1/2-x,1/2-y,-z
1/2+x,y,1/2-z
1/2-x,1/2+y,z
1/2+x,-y,1/2+z
loop_
_atom_site_type_symbol
_atom_site_label
_atom_site_fract_x
_atom_site_fract_y
_atom_site_fract_z
Si Si1 0.101210 0.107547 0.191365
Si Si2 0.373194 0.068230 0.066044
Si Si3 0.256645 0.007883 0.106551
Si Si4 0.939334 0.932064 0.316025
Si Si5 0.858804 0.578363 0.567768
Si Si6 0.213372 0.746004 0.808949
O O1 0.062871 0.250123 0.182151
O O2 0.155618 0.195720 0.207725
O O3 0.082484 0.999060 0.248637
O O4 0.114589 0.011616 0.127283
O O5 0.310871 0.025542 0.068678
O O6 0.376440 0.248513 0.068191
O O7 0.402952 0.996071 0.126744
O O8 0.395196 0.000000 0.000000
O O9 0.232524 0.166605 0.127800
O O10 0.205321 0.927879 0.076243
O O11 0.276584 0.925011 0.171363
O O12 0.000000 0.981770 0.323815
O O13 0.871574 0.500000 0.500000
O O14 0.250000 0.781237 0.750000
#
# Coordination Sequence:
#
# PCOD9481832 Si02
#       6
#    16  16  16  16  16  16
#     4  11  25  43  69  98 135 176 221 278 335 400
#     4  12  25  43  69  98 137 178 228 277 335 401
#     4  11  22  37  61  96 138 184 219 260 321 399
#     4  12  26  47  72  99 129 171 228 288 350 398
#     4  11  25  43  66 101 141 184 223 266 329 407
#     4  11  22  35  59  97 140 178 218 261 322 399
#
# _framework density 20.550024000000001
#
# number of rings (size 3 to 8) (size 9 to 14) (size 15 to 20)
#    0.000    0.667    3.333    4.500    7.000    1.667 
#    0.000    0.833    0.000    3.500    0.000    0.000 
#    0.000    0.000    0.000    0.000    0.000    0.000 
#
# Total GULP energy -268137.094298 kJ/mol
# GULP energy per Si atom -5586.189465 kJ/mol
# Density = 2.050325 g / cm^3
# Si number density = 20.550024 Si / 1000 Ang^3
#
#
#
# Elastic Constant Matrix: (Units=GPa)
#
#
# Indices 1 2 3 4 5 6 
#
# 1 96.8426 22.5096 47.1900 0.0000 0.0000 0.0000
# 2 22.5096 135.7529 57.1895 0.0000 0.0000 0.0000
# 3 47.1900 57.1895 120.6986 0.0000 0.0000 0.0000
# 4 0.0000 0.0000 0.0000 31.1678 0.0000 0.0000
# 5 0.0000 0.0000 0.0000 0.0000 6.4184 0.0000
# 6 0.0000 0.0000 0.0000 0.0000 0.0000 5.4069
#
#
#
# Elastic Compliance Matrix: (Units=1/GPa)
#
#
# Indices 1 2 3 4 5 6 
#
# 1 0.012756 -0.000018 -0.004979 0.000000 0.000000 0.000000
# 2 -0.000018 0.009203 -0.004354 0.000000 0.000000 0.000000
# 3 -0.004979 -0.004354 0.012295 0.000000 0.000000 0.000000
# 4 0.000000 0.000000 0.000000 0.032084 0.000000 0.000000
# 5 0.000000 0.000000 0.000000 0.000000 0.155803 0.000000
# 6 0.000000 0.000000 0.000000 0.000000 0.000000 0.184950
#
#
# Mechanical properties :
#
#
# Convention : Reuss Voigt Hill
#
# Bulk Modulus (GPa) = 64.29455 67.45245 65.87350
# Shear Modulus (GPa) = 11.60154 23.69228 17.64691
#
# Velocity S-wave (km/s) = 2.37861 3.39913 2.93359
# Velocity P-wave (km/s) = 6.23686 6.94984 6.60298
#
# Compressibility (1/GPa) = 0.01555342
#
# Stress axis : x y z
#
# Youngs Moduli (GPa) = 78.39240 108.65504 81.33559
#
# Poissons Ratio (x) = 0.00191 0.40497
# Poissons Ratio (y) = 0.00138 0.35413
# Poissons Ratio (z) = 0.39032 0.47307
#
# Static dielectric constant tensor:
#      x y z
#    x 1.720720 0.000000 0.000000 
#    y 0.000000 1.746590 0.000000 
#    z 0.000000 0.000000 1.723280 
# 
# From -- ./inp_files/41771.got.cif
#   From: 2010.05.17/outbox.cif.g08.bks.cpg/sg64_21_cif.got.tgz:41771.got - 2010.06.03 16:29:19.
