data_PCOD9481913
_publ_section_title
;
Structure prediction by ZEFSAII (Michael W. Deem and Ramdas Pophale) SiO2 
 PCOD9481913
Probable space group: C M C A
;
_chemical_formula_sum "Si O2"
_cell_formula_units_Z 96
_cell_length_a 15.180613
_cell_length_b 15.348567
_cell_length_c 17.257549
_cell_angle_alpha 90.000000
_cell_angle_beta 90.000000
_cell_angle_gamma 90.000000
_cell_volume 4021.020233
_symmetry_space_group_name_H-M "C M C A"
_symmetry_group_IT_number 64
_symmetry_cell_setting 'orthorhombic'
loop_
_space_group_symop_operation_xyz
x,y,z
-x,1/2-y,1/2+z
x,-y,-z
-x,1/2+y,1/2-z
-x,-y,-z
x,1/2+y,1/2-z
-x,y,z
x,1/2-y,1/2+z
1/2+x,1/2+y,z
1/2-x,-y,1/2+z
1/2+x,1/2-y,-z
1/2-x,y,1/2-z
1/2-x,1/2-y,-z
1/2+x,y,1/2-z
1/2-x,1/2+y,z
1/2+x,-y,1/2+z
loop_
_atom_site_type_symbol
_atom_site_label
_atom_site_fract_x
_atom_site_fract_y
_atom_site_fract_z
Si Si1 0.592853 0.312433 0.392818
Si Si2 0.598468 0.616203 0.059918
Si Si3 0.853216 0.160324 0.770827
Si Si4 0.283226 0.902264 0.003690
Si Si5 0.899568 0.677091 0.131457
Si Si6 0.353869 0.455457 0.769475
O O1 0.500000 0.357664 0.412372
O O2 0.595827 0.220261 0.434103
O O3 0.596886 0.298247 0.302012
O O4 0.678664 0.364294 0.417724
O O5 0.500000 0.586683 0.039795
O O6 0.678400 0.596241 0.002643
O O7 0.624692 0.581282 0.145293
O O8 0.750000 0.165847 0.750000
O O9 0.876439 0.225159 0.840482
O O10 0.879014 0.058125 0.772522
O O11 0.328290 0.850690 0.932991
O O12 0.316340 0.000000 0.000000
O O13 0.893878 0.607189 0.202721
O O14 0.000000 0.675292 0.101936
O O15 0.250000 0.452808 0.750000
#
# Coordination Sequence:
#
# PCOD9481913 Si02
#       6
#    16  16  16  16  16  16
#     4  11  24  45  71 103 141 187 236 292 366 431
#     4  11  24  45  71  98 139 190 244 303 362 426
#     4  11  24  41  74 105 144 193 242 297 355 427
#     4  12  27  46  72 102 145 189 235 298 366 435
#     4  12  24  43  72 107 146 188 240 297 355 431
#     4  11  22  42  70 103 142 189 242 303 360 420
#
# _framework density 23.874535999999999
#
# number of rings (size 3 to 8) (size 9 to 14) (size 15 to 20)
#    0.000    0.667    3.333    4.500    2.333    5.667 
#    0.000    0.000    0.000    0.000    0.000    0.000 
#    0.000    0.000    0.000    0.000    0.000    0.000 
#
# Total GULP energy -268723.378015 kJ/mol
# GULP energy per Si atom -5598.403709 kJ/mol
# Density = 2.382020 g / cm^3
# Si number density = 23.874536 Si / 1000 Ang^3
#
#
#
# Elastic Constant Matrix: (Units=GPa)
#
#
# Indices 1 2 3 4 5 6 
#
# 1 155.9687 25.1590 30.0435 0.0000 0.0000 0.0000
# 2 25.1590 98.2193 12.5034 0.0000 0.0000 0.0000
# 3 30.0435 12.5034 60.1885 0.0000 0.0000 0.0000
# 4 0.0000 0.0000 0.0000 25.4238 0.0000 0.0000
# 5 0.0000 0.0000 0.0000 0.0000 69.3368 0.0000
# 6 0.0000 0.0000 0.0000 0.0000 0.0000 -28.6323
#
#
#
# Elastic Compliance Matrix: (Units=1/GPa)
#
#
# Indices 1 2 3 4 5 6 
#
# 1 0.007287 -0.001442 -0.003338 0.000000 0.000000 0.000000
# 2 -0.001442 0.010743 -0.001512 0.000000 0.000000 0.000000
# 3 -0.003338 -0.001512 0.018595 0.000000 0.000000 0.000000
# 4 0.000000 0.000000 0.000000 0.039333 0.000000 0.000000
# 5 0.000000 0.000000 0.000000 0.000000 0.014422 0.000000
# 6 0.000000 0.000000 0.000000 0.000000 0.000000 -0.034926
#
#
# Mechanical properties :
#
#
# Convention : Reuss Voigt Hill
#
# Bulk Modulus (GPa) = 41.59478 49.97650 45.78564
# Shear Modulus (GPa) = 65.74440 29.67036 47.70738
#
# Velocity S-wave (km/s) = 5.25331 3.52911 4.47503
# Velocity P-wave (km/s) = 7.36589 6.13062 6.77646
#
# Compressibility (1/GPa) = 0.02404148
#
# Stress axis : x y z
#
# Youngs Moduli (GPa) = 137.22954 93.08322 53.77865
#
# Poissons Ratio (x) = 0.13420 0.17951
# Poissons Ratio (y) = 0.19784 0.08132
# Poissons Ratio (z) = 0.45806 0.14075
#
# Static dielectric constant tensor:
#      x y z
#    x 1.923020 0.000000 0.000000 
#    y 0.000000 1.902880 0.000000 
#    z 0.000000 0.000000 1.896400 
# 
# From -- ./inp_files/39200.got.cif
#   From: 2010.05.17/outbox.cif.g08.bks.cpg/sg64_20_cif.got.tgz:39200.got - 2010.06.03 16:29:19.
