data_PCOD9481342
_publ_section_title
;
Structure prediction by ZEFSAII (Michael W. Deem and Ramdas Pophale) SiO2 
 PCOD9481342
Probable space group: C M C A
;
_chemical_formula_sum "Si O2"
_cell_formula_units_Z 104
_cell_length_a 19.357754
_cell_length_b 27.583551
_cell_length_c 9.515713
_cell_angle_alpha 90.000000
_cell_angle_beta 90.000000
_cell_angle_gamma 90.000000
_cell_volume 5080.968194
_symmetry_space_group_name_H-M "C M C A"
_symmetry_group_IT_number 64
_symmetry_cell_setting 'orthorhombic'
loop_
_space_group_symop_operation_xyz
x,y,z
-x,1/2-y,1/2+z
x,-y,-z
-x,1/2+y,1/2-z
-x,-y,-z
x,1/2+y,1/2-z
-x,y,z
x,1/2-y,1/2+z
1/2+x,1/2+y,z
1/2-x,-y,1/2+z
1/2+x,1/2-y,-z
1/2-x,y,1/2-z
1/2-x,1/2-y,-z
1/2+x,y,1/2-z
1/2-x,1/2+y,z
1/2+x,-y,1/2+z
loop_
_atom_site_type_symbol
_atom_site_label
_atom_site_fract_x
_atom_site_fract_y
_atom_site_fract_z
Si Si1 0.500000 0.123669 0.612095
Si Si2 0.624654 0.548585 0.908645
Si Si3 0.735623 0.128546 0.585780
Si Si4 0.676273 0.119070 0.170301
Si Si5 0.080997 0.706575 0.256555
Si Si6 0.615445 0.702940 0.923215
Si Si7 0.677698 0.508548 0.333811
O O1 0.439976 0.083375 0.575947
O O2 0.439064 0.164676 0.639703
O O3 0.691067 0.580759 0.952371
O O4 0.631382 0.530826 0.746750
O O5 0.621440 0.500000 0.000000
O O6 0.750000 0.125627 0.750000
O O7 0.803742 0.128883 0.491584
O O8 0.688315 0.175585 0.560934
O O9 0.750000 0.125331 0.250000
O O10 0.620011 0.156401 0.225212
O O11 0.652655 0.063673 0.187455
O O12 0.117129 0.749491 0.171137
O O13 0.087921 0.715699 0.422201
O O14 0.000000 0.703869 0.219435
O O15 0.684436 0.500000 0.500000
O O16 0.750000 0.505253 0.250000
#
# Coordination Sequence:
#
# PCOD9481342 Si02
#       7
#     8  16  16  16  16  16  16
#     4  10  23  44  67  96 133 174 228 271 326 414
#     4  11  22  39  68 100 132 180 222 270 332 397
#     4  11  24  42  66 100 135 174 220 280 329 395
#     4  11  23  41  67 101 136 171 223 277 332 395
#     4  12  25  46  69  99 129 179 220 281 344 408
#     4  11  25  45  71  94 130 174 230 274 340 401
#     4  11  22  39  64  97 133 174 220 276 332 400
#
# _framework density 20.468540000000001
#
# number of rings (size 3 to 8) (size 9 to 14) (size 15 to 20)
#    0.000    0.923    3.077    4.846    4.308    1.231 
#    1.385    0.385    0.000    0.000    0.000    0.000 
#    0.000    0.000    0.000    0.000    0.000    0.000 
#
# Total GULP energy -289847.756463 kJ/mol
# GULP energy per Si atom -5573.995317 kJ/mol
# Density = 2.042195 g / cm^3
# Si number density = 20.468540 Si / 1000 Ang^3
#
#
#
# Elastic Constant Matrix: (Units=GPa)
#
#
# Indices 1 2 3 4 5 6 
#
# 1 23.1906 11.9329 -8.1285 0.0000 0.0000 0.0000
# 2 11.9329 119.7450 4.2187 0.0000 0.0000 0.0000
# 3 -8.1285 4.2187 71.7713 0.0000 0.0000 0.0000
# 4 0.0000 0.0000 0.0000 16.6576 0.0000 0.0000
# 5 0.0000 0.0000 0.0000 0.0000 12.4126 0.0000
# 6 0.0000 0.0000 0.0000 0.0000 0.0000 8.2989
#
#
#
# Elastic Compliance Matrix: (Units=1/GPa)
#
#
# Indices 1 2 3 4 5 6 
#
# 1 0.047662 -0.004950 0.005689 0.000000 0.000000 0.000000
# 2 -0.004950 0.008883 -0.001083 0.000000 0.000000 0.000000
# 3 0.005689 -0.001083 0.014641 0.000000 0.000000 0.000000
# 4 0.000000 0.000000 0.000000 0.060033 0.000000 0.000000
# 5 0.000000 0.000000 0.000000 0.000000 0.080563 0.000000
# 6 0.000000 0.000000 0.000000 0.000000 0.000000 0.120498
#
#
# Mechanical properties :
#
#
# Convention : Reuss Voigt Hill
#
# Bulk Modulus (GPa) = 14.18479 25.63922 19.91200
# Shear Modulus (GPa) = 14.02656 21.25274 17.63965
#
# Velocity S-wave (km/s) = 2.62061 3.22578 2.93882
# Velocity P-wave (km/s) = 4.01272 5.14078 4.61137
#
# Compressibility (1/GPa) = 0.07049807
#
# Stress axis : x y z
#
# Youngs Moduli (GPa) = 20.98101 112.58074 68.30093
#
# Poissons Ratio (x) = 0.55728 -0.38856
# Poissons Ratio (y) = 0.10386 0.07395
# Poissons Ratio (z) = -0.11936 0.12189
#
# Static dielectric constant tensor:
#      x y z
#    x 1.702560 0.000000 0.000000 
#    y 0.000000 1.718910 0.000000 
#    z 0.000000 0.000000 1.777750 
# 
# From -- ./inp_files/8502.got.cif
#   From: 2010.05.17/outbox.cif.g08.bks.cpg/sg64_5_cif.got.tgz:8502.got - 2010.06.03 16:29:19.
