data_PCOD9481163
_publ_section_title
;
Structure prediction by ZEFSAII (Michael W. Deem and Ramdas Pophale) SiO2 
 PCOD9481163
Probable space group: C M C A
;
_chemical_formula_sum "Si O2"
_cell_formula_units_Z 48
_cell_length_a 15.801297
_cell_length_b 18.400277
_cell_length_c 8.853270
_cell_angle_alpha 90.000000
_cell_angle_beta 90.000000
_cell_angle_gamma 90.000000
_cell_volume 2574.072686
_symmetry_space_group_name_H-M "C M C A"
_symmetry_group_IT_number 64
_symmetry_cell_setting 'orthorhombic'
loop_
_space_group_symop_operation_xyz
x,y,z
-x,1/2-y,1/2+z
x,-y,-z
-x,1/2+y,1/2-z
-x,-y,-z
x,1/2+y,1/2-z
-x,y,z
x,1/2-y,1/2+z
1/2+x,1/2+y,z
1/2-x,-y,1/2+z
1/2+x,1/2-y,-z
1/2-x,y,1/2-z
1/2-x,1/2-y,-z
1/2+x,y,1/2-z
1/2-x,1/2+y,z
1/2+x,-y,1/2+z
loop_
_atom_site_type_symbol
_atom_site_label
_atom_site_fract_x
_atom_site_fract_y
_atom_site_fract_z
Si Si1 0.902696 0.083880 0.131687
Si Si2 0.000000 0.848606 0.345063
Si Si3 0.500000 0.695892 0.308215
Si Si4 0.155548 0.929495 0.205496
O O1 0.000000 0.057989 0.110830
O O2 0.918747 0.155637 0.231130
O O3 0.854291 0.017160 0.208257
O O4 0.864173 0.095099 0.966454
O O5 0.000000 0.819556 0.515167
O O6 0.083415 0.895474 0.310679
O O7 0.000000 0.779823 0.232982
O O8 0.250000 0.908681 0.250000
#
# Coordination Sequence:
#
# PCOD9481163 Si02
#       4
#    16   8   8  16
#     4   9  19  42  59  84 120 161 190 239 298 340
#     4  12  21  42  57  91 117 157 207 238 301 352
#     4  10  23  36  69  77 119 169 191 248 297 356
#     4  11  21  36  66  90 120 155 194 246 297 350
#
# _framework density 18.647492
#
# number of rings (size 3 to 8) (size 9 to 14) (size 15 to 20)
#    1.000    0.667    3.333    3.000    0.000    8.000 
#    0.000    8.333    0.000    0.000    0.000    0.000 
#    0.000    0.000    0.000    0.000    0.000    0.000 
#
# Total GULP energy -133785.817703 kJ/mol
# GULP energy per Si atom -5574.409071 kJ/mol
# Density = 1.860505 g / cm^3
# Si number density = 18.647492 Si / 1000 Ang^3
#
#
#
# Elastic Constant Matrix: (Units=GPa)
#
#
# Indices 1 2 3 4 5 6 
#
# 1 125.6078 14.0860 20.6466 0.0000 0.0000 0.0000
# 2 14.0860 22.6999 -5.3762 0.0000 0.0000 0.0000
# 3 20.6466 -5.3762 19.3116 0.0000 0.0000 0.0000
# 4 0.0000 0.0000 0.0000 29.6179 0.0000 0.0000
# 5 0.0000 0.0000 0.0000 0.0000 -23.6089 0.0000
# 6 0.0000 0.0000 0.0000 0.0000 0.0000 -4.4227
#
#
#
# Elastic Compliance Matrix: (Units=1/GPa)
#
#
# Indices 1 2 3 4 5 6 
#
# 1 0.011767 -0.011007 -0.015645 0.000000 0.000000 0.000000
# 2 -0.011007 0.057459 0.027765 0.000000 0.000000 0.000000
# 3 -0.015645 0.027765 0.076238 0.000000 0.000000 0.000000
# 4 0.000000 0.000000 0.000000 0.033763 0.000000 0.000000
# 5 0.000000 0.000000 0.000000 0.000000 -0.042357 0.000000
# 6 0.000000 0.000000 0.000000 0.000000 0.000000 -0.226107
#
#
# Mechanical properties :
#
#
# Convention : Reuss Voigt Hill
#
# Bulk Modulus (GPa) = 6.77098 25.14801 15.95949
# Shear Modulus (GPa) = -118.40029 9.53480 -54.43275
#
# Velocity S-wave (km/s) = -7.97695 2.26369 -5.40867
# Velocity P-wave (km/s) = 9.01130 4.51084 5.51615
#
# Compressibility (1/GPa) = 0.14768909
#
# Stress axis : x y z
#
# Youngs Moduli (GPa) = 84.98090 17.40363 13.11674
#
# Poissons Ratio (x) = 0.19157 0.20521
# Poissons Ratio (y) = 0.93542 -0.36418
# Poissons Ratio (z) = 1.32954 -0.48320
#
# Static dielectric constant tensor:
#      x y z
#    x 1.625620 0.000000 0.000000 
#    y 0.000000 1.646400 0.000000 
#    z 0.000000 0.000000 1.646320 
# 
# From -- ./inp_files/5213.got.cif
#   From: 2010.05.17/outbox.cif.g08.bks.cpg/sg64_3_cif.got.tgz:5213.got - 2010.06.03 16:29:19.
