data_PCOD9481583
_publ_section_title
;
Structure prediction by ZEFSAII (Michael W. Deem and Ramdas Pophale) SiO2 
 PCOD9481583
Probable space group: C M C A
;
_chemical_formula_sum "Si O2"
_cell_formula_units_Z 56
_cell_length_a 27.636655
_cell_length_b 5.265726
_cell_length_c 18.089114
_cell_angle_alpha 90.000000
_cell_angle_beta 90.000000
_cell_angle_gamma 90.000000
_cell_volume 2632.455448
_symmetry_space_group_name_H-M "C M C A"
_symmetry_group_IT_number 64
_symmetry_cell_setting 'orthorhombic'
loop_
_space_group_symop_operation_xyz
x,y,z
-x,1/2-y,1/2+z
x,-y,-z
-x,1/2+y,1/2-z
-x,-y,-z
x,1/2+y,1/2-z
-x,y,z
x,1/2-y,1/2+z
1/2+x,1/2+y,z
1/2-x,-y,1/2+z
1/2+x,1/2-y,-z
1/2-x,y,1/2-z
1/2-x,1/2-y,-z
1/2+x,y,1/2-z
1/2-x,1/2+y,z
1/2+x,-y,1/2+z
loop_
_atom_site_type_symbol
_atom_site_label
_atom_site_fract_x
_atom_site_fract_y
_atom_site_fract_z
Si Si1 0.717271 0.500000 0.000000
Si Si2 0.053293 0.249677 0.948711
Si Si3 0.805245 0.108195 0.719441
Si Si4 0.843467 0.848935 0.578804
O O1 0.681699 0.576099 0.933656
O O2 0.750000 0.250000 0.000000
O O3 0.100928 0.299060 0.899915
O O4 0.000000 0.218372 0.913474
O O5 0.050513 0.500000 0.000000
O O6 0.061690 0.000000 0.000000
O O7 0.827871 0.881783 0.767524
O O8 0.750000 0.137401 0.750000
O O9 0.811758 0.007005 0.636800
O O10 0.844287 0.000000 0.500000
#
# Coordination Sequence:
#
# PCOD9481583 Si02
#       4
#     8  16  16  16
#     4  12  26  34  55  90 123 150 200 256 288 356
#     4   9  18  34  58  92 123 146 188 258 320 360
#     4  10  25  41  57  79 122 166 204 248 306 365
#     4  11  24  41  66  92 121 163 214 257 310 368
#
# _framework density 21.272915000000001
#
# number of rings (size 3 to 8) (size 9 to 14) (size 15 to 20)
#    0.000    1.714    2.857    0.000   12.000    0.000 
#    0.000    0.000    0.000    1.714    0.000    0.000 
#    0.000    0.000    0.000    0.000    0.000    0.000 
#
# Total GULP energy -155995.365403 kJ/mol
# GULP energy per Si atom -5571.263050 kJ/mol
# Density = 2.122450 g / cm^3
# Si number density = 21.272915 Si / 1000 Ang^3
#
#
#
# Elastic Constant Matrix: (Units=GPa)
#
#
# Indices 1 2 3 4 5 6 
#
# 1 153.8484 5.6467 17.4337 0.0000 0.0000 0.0000
# 2 5.6467 130.3213 5.1459 0.0000 0.0000 0.0000
# 3 17.4337 5.1459 83.0494 0.0000 0.0000 0.0000
# 4 0.0000 0.0000 0.0000 32.2024 0.0000 0.0000
# 5 0.0000 0.0000 0.0000 0.0000 17.1972 0.0000
# 6 0.0000 0.0000 0.0000 0.0000 0.0000 13.5070
#
#
#
# Elastic Compliance Matrix: (Units=1/GPa)
#
#
# Indices 1 2 3 4 5 6 
#
# 1 0.006665 -0.000234 -0.001385 0.000000 0.000000 0.000000
# 2 -0.000234 0.007700 -0.000428 0.000000 0.000000 0.000000
# 3 -0.001385 -0.000428 0.012358 0.000000 0.000000 0.000000
# 4 0.000000 0.000000 0.000000 0.031054 0.000000 0.000000
# 5 0.000000 0.000000 0.000000 0.000000 0.058149 0.000000
# 6 0.000000 0.000000 0.000000 0.000000 0.000000 0.074035
#
#
# Mechanical properties :
#
#
# Convention : Reuss Voigt Hill
#
# Bulk Modulus (GPa) = 44.18836 47.07465 45.63151
# Shear Modulus (GPa) = 24.80172 35.18086 29.99129
#
# Velocity S-wave (km/s) = 3.41821 4.07109 3.75885
# Velocity P-wave (km/s) = 6.03292 6.65397 6.35104
#
# Compressibility (1/GPa) = 0.02263039
#
# Stress axis : x y z
#
# Youngs Moduli (GPa) = 150.02834 129.86364 80.91784
#
# Poissons Ratio (x) = 0.03040 0.11205
# Poissons Ratio (y) = 0.03513 0.03463
# Poissons Ratio (z) = 0.20774 0.05558
#
# Static dielectric constant tensor:
#      x y z
#    x 2.093370 0.000000 0.000000 
#    y 0.000000 1.859220 0.000000 
#    z 0.000000 0.000000 1.896020 
# 
# From -- ./inp_files/35609.got.cif
#   From: 2010.05.17/outbox.cif.g08.bks.cpg/sg64_18_cif.got.tgz:35609.got - 2010.06.03 16:29:19.
