data_PCOD9481326
_publ_section_title
;
Structure prediction by ZEFSAII (Michael W. Deem and Ramdas Pophale) SiO2 
 PCOD9481326
Probable space group: C M C A
;
_chemical_formula_sum "Si O2"
_cell_formula_units_Z 72
_cell_length_a 22.628149
_cell_length_b 8.983129
_cell_length_c 16.894905
_cell_angle_alpha 90.000000
_cell_angle_beta 90.000000
_cell_angle_gamma 90.000000
_cell_volume 3434.254059
_symmetry_space_group_name_H-M "C M C A"
_symmetry_group_IT_number 64
_symmetry_cell_setting 'orthorhombic'
loop_
_space_group_symop_operation_xyz
x,y,z
-x,1/2-y,1/2+z
x,-y,-z
-x,1/2+y,1/2-z
-x,-y,-z
x,1/2+y,1/2-z
-x,y,z
x,1/2-y,1/2+z
1/2+x,1/2+y,z
1/2-x,-y,1/2+z
1/2+x,1/2-y,-z
1/2-x,y,1/2-z
1/2-x,1/2-y,-z
1/2+x,y,1/2-z
1/2-x,1/2+y,z
1/2+x,-y,1/2+z
loop_
_atom_site_type_symbol
_atom_site_label
_atom_site_fract_x
_atom_site_fract_y
_atom_site_fract_z
Si Si1 0.697462 0.977061 0.816090
Si Si2 0.433293 0.125433 0.370761
Si Si3 0.767130 0.807330 0.085721
Si Si4 0.931388 0.576018 0.769587
Si Si5 0.857073 0.500000 0.500000
O O1 0.750000 0.987245 0.750000
O O2 0.708574 0.822745 0.860079
O O3 0.712171 0.114141 0.873398
O O4 0.628641 0.991497 0.795275
O O5 0.500000 0.146493 0.398003
O O6 0.423070 0.258120 0.306345
O O7 0.430332 0.967317 0.323634
O O8 0.394237 0.118727 0.449494
O O9 0.750000 0.750000 0.000000
O O10 0.816341 0.929276 0.067560
O O11 0.000000 0.532117 0.793176
#
# Coordination Sequence:
#
# PCOD9481326 Si02
#       5
#    16  16  16  16   8
#     4  12  26  42  70 101 134 177 228 280 334 405
#     4  10  23  43  68  98 134 177 228 278 338 409
#     4  12  25  44  64  98 139 174 217 282 344 399
#     4  10  24  44  69  99 135 178 228 281 336 405
#     4  12  23  42  70  96 135 180 222 280 348 406
#
# _framework density 20.965252
#
# number of rings (size 3 to 8) (size 9 to 14) (size 15 to 20)
#    0.000    0.889    2.222    3.667    9.333    0.000 
#    0.000    1.111    0.000    5.333    0.000    0.000 
#    0.000    0.000    0.000    0.000    0.000    0.000 
#
# Total GULP energy -200599.232548 kJ/mol
# GULP energy per Si atom -5572.200904 kJ/mol
# Density = 2.091753 g / cm^3
# Si number density = 20.965252 Si / 1000 Ang^3
#
#
#
# Elastic Constant Matrix: (Units=GPa)
#
#
# Indices 1 2 3 4 5 6 
#
# 1 158.6140 37.6069 42.2737 0.0000 0.0000 0.0000
# 2 37.6069 46.2502 7.4689 0.0000 0.0000 0.0000
# 3 42.2737 7.4689 56.1447 0.0000 0.0000 0.0000
# 4 0.0000 0.0000 0.0000 47.3209 0.0000 0.0000
# 5 0.0000 0.0000 0.0000 0.0000 38.7328 0.0000
# 6 0.0000 0.0000 0.0000 0.0000 0.0000 13.8772
#
#
#
# Elastic Compliance Matrix: (Units=1/GPa)
#
#
# Indices 1 2 3 4 5 6 
#
# 1 0.009599 -0.006783 -0.006325 0.000000 0.000000 0.000000
# 2 -0.006783 0.026890 0.001530 0.000000 0.000000 0.000000
# 3 -0.006325 0.001530 0.022370 0.000000 0.000000 0.000000
# 4 0.000000 0.000000 0.000000 0.021132 0.000000 0.000000
# 5 0.000000 0.000000 0.000000 0.000000 0.025818 0.000000
# 6 0.000000 0.000000 0.000000 0.000000 0.000000 0.072061
#
#
# Mechanical properties :
#
#
# Convention : Reuss Voigt Hill
#
# Bulk Modulus (GPa) = 28.00908 48.41200 38.21054
# Shear Modulus (GPa) = 23.48230 31.56347 27.52289
#
# Velocity S-wave (km/s) = 3.35036 3.88430 3.62717
# Velocity P-wave (km/s) = 5.32497 6.57714 5.98390
#
# Compressibility (1/GPa) = 0.03570271
#
# Stress axis : x y z
#
# Youngs Moduli (GPa) = 104.18148 37.18839 44.70321
#
# Poissons Ratio (x) = 0.25227 0.28274
# Poissons Ratio (y) = 0.70671 -0.06841
# Poissons Ratio (z) = 0.65893 -0.05691
#
# Static dielectric constant tensor:
#      x y z
#    x 1.835000 0.000000 0.000000 
#    y 0.000000 1.790900 0.000000 
#    z 0.000000 0.000000 1.724330 
# 
# From -- ./inp_files/34832.got.cif
#   From: 2010.05.17/outbox.cif.g08.bks.cpg/sg64_18_cif.got.tgz:34832.got - 2010.06.03 16:29:19.
