data_PCOD9481520
_publ_section_title
;
Structure prediction by ZEFSAII (Michael W. Deem and Ramdas Pophale) SiO2 
 PCOD9481520
Probable space group: C M C A
;
_chemical_formula_sum "Si O2"
_cell_formula_units_Z 48
_cell_length_a 20.007098
_cell_length_b 10.811917
_cell_length_c 8.979610
_cell_angle_alpha 90.000000
_cell_angle_beta 90.000000
_cell_angle_gamma 90.000000
_cell_volume 1942.425082
_symmetry_space_group_name_H-M "C M C A"
_symmetry_group_IT_number 64
_symmetry_cell_setting 'orthorhombic'
loop_
_space_group_symop_operation_xyz
x,y,z
-x,1/2-y,1/2+z
x,-y,-z
-x,1/2+y,1/2-z
-x,-y,-z
x,1/2+y,1/2-z
-x,y,z
x,1/2-y,1/2+z
1/2+x,1/2+y,z
1/2-x,-y,1/2+z
1/2+x,1/2-y,-z
1/2-x,y,1/2-z
1/2-x,1/2-y,-z
1/2+x,y,1/2-z
1/2-x,1/2+y,z
1/2+x,-y,1/2+z
loop_
_atom_site_type_symbol
_atom_site_label
_atom_site_fract_x
_atom_site_fract_y
_atom_site_fract_z
Si Si1 0.775643 0.373428 0.423689
Si Si2 0.923137 0.162329 0.877276
Si Si3 0.922915 0.439633 0.854609
O O1 0.753008 0.500000 0.500000
O O2 0.750000 0.375275 0.250000
O O3 0.750000 0.250000 0.500000
O O4 0.855266 0.365080 0.462974
O O5 0.905509 0.299073 0.810890
O O6 0.000000 0.162528 0.941494
O O7 0.922311 0.048825 0.763211
O O8 0.000000 0.418753 0.894365
O O9 0.889671 0.500000 0.000000
#
# Coordination Sequence:
#
# PCOD9481520 Si02
#       3
#    16  16  16
#     4  12  31  53  79 112 161 211 259 319 393 471
#     4  10  24  44  76 111 145 195 258 320 384 458
#     4   9  20  39  67 106 148 187 240 315 385 450
#
# _framework density 24.711378
#
# number of rings (size 3 to 8) (size 9 to 14) (size 15 to 20)
#    0.000    1.667    0.000    1.000   14.000    0.667 
#    0.000    0.000    0.000    0.000    0.000    0.000 
#    0.000    0.000    0.000    0.000    0.000    0.000 
#
# Total GULP energy -133612.437575 kJ/mol
# GULP energy per Si atom -5567.184899 kJ/mol
# Density = 2.465513 g / cm^3
# Si number density = 24.711378 Si / 1000 Ang^3
#
#
#
# Elastic Constant Matrix: (Units=GPa)
#
#
# Indices 1 2 3 4 5 6 
#
# 1 180.4717 43.5584 38.0447 0.0000 0.0000 0.0000
# 2 43.5584 282.7430 66.4214 0.0000 0.0000 0.0000
# 3 38.0447 66.4214 83.9766 0.0000 0.0000 0.0000
# 4 0.0000 0.0000 0.0000 20.3002 0.0000 0.0000
# 5 0.0000 0.0000 0.0000 0.0000 22.7064 0.0000
# 6 0.0000 0.0000 0.0000 0.0000 0.0000 55.6521
#
#
#
# Elastic Compliance Matrix: (Units=1/GPa)
#
#
# Indices 1 2 3 4 5 6 
#
# 1 0.006156 -0.000360 -0.002504 0.000000 0.000000 0.000000
# 2 -0.000360 0.004365 -0.003289 0.000000 0.000000 0.000000
# 3 -0.002504 -0.003289 0.015644 0.000000 0.000000 0.000000
# 4 0.000000 0.000000 0.000000 0.049261 0.000000 0.000000
# 5 0.000000 0.000000 0.000000 0.000000 0.044040 0.000000
# 6 0.000000 0.000000 0.000000 0.000000 0.000000 0.017969
#
#
# Mechanical properties :
#
#
# Convention : Reuss Voigt Hill
#
# Bulk Modulus (GPa) = 72.15997 93.69335 82.92666
# Shear Modulus (GPa) = 32.39157 46.34287 39.36722
#
# Velocity S-wave (km/s) = 3.62442 4.33525 3.99567
# Velocity P-wave (km/s) = 6.83957 7.94081 7.41068
#
# Compressibility (1/GPa) = 0.01385810
#
# Stress axis : x y z
#
# Youngs Moduli (GPa) = 162.44814 229.09598 63.92144
#
# Poissons Ratio (x) = 0.08250 0.16006
# Poissons Ratio (y) = 0.05850 0.21026
# Poissons Ratio (z) = 0.40677 0.75358
#
# Static dielectric constant tensor:
#      x y z
#    x 2.052540 0.000000 0.000000 
#    y 0.000000 2.063250 0.000000 
#    z 0.000000 0.000000 1.971800 
# 
# From -- ./inp_files/17803.got.cif
#   From: 2010.05.17/outbox.cif.g08.bks.cpg/sg64_9_cif.got.tgz:17803.got - 2010.06.03 16:29:19.
