data_PCOD9481055
_publ_section_title
;
Structure prediction by ZEFSAII (Michael W. Deem and Ramdas Pophale) SiO2 
 PCOD9481055
Probable space group: C M C A
;
_chemical_formula_sum "Si O2"
_cell_formula_units_Z 96
_cell_length_a 14.656793
_cell_length_b 21.496946
_cell_length_c 14.521577
_cell_angle_alpha 90.000000
_cell_angle_beta 90.000000
_cell_angle_gamma 90.000000
_cell_volume 4575.404572
_symmetry_space_group_name_H-M "C M C A"
_symmetry_group_IT_number 64
_symmetry_cell_setting 'orthorhombic'
loop_
_space_group_symop_operation_xyz
x,y,z
-x,1/2-y,1/2+z
x,-y,-z
-x,1/2+y,1/2-z
-x,-y,-z
x,1/2+y,1/2-z
-x,y,z
x,1/2-y,1/2+z
1/2+x,1/2+y,z
1/2-x,-y,1/2+z
1/2+x,1/2-y,-z
1/2-x,y,1/2-z
1/2-x,1/2-y,-z
1/2+x,y,1/2-z
1/2-x,1/2+y,z
1/2+x,-y,1/2+z
loop_
_atom_site_type_symbol
_atom_site_label
_atom_site_fract_x
_atom_site_fract_y
_atom_site_fract_z
Si Si1 0.358761 0.950703 0.766290
Si Si2 0.342843 0.913560 0.190853
Si Si3 0.396434 0.674692 0.378118
Si Si4 0.752064 0.648099 0.973989
Si Si5 0.102927 0.306667 0.327208
Si Si6 0.400029 0.936577 0.556793
O O1 0.250000 0.947752 0.750000
O O2 0.384168 0.891353 0.827829
O O3 0.400420 0.948448 0.664853
O O4 0.385699 0.018026 0.806803
O O5 0.250000 0.920825 0.250000
O O6 0.316576 0.895312 0.088092
O O7 0.389268 0.855233 0.242890
O O8 0.500000 0.677067 0.415760
O O9 0.320485 0.683317 0.457525
O O10 0.387932 0.732951 0.307433
O O11 0.684184 0.679563 0.899391
O O12 0.682243 0.608802 0.034922
O O13 0.000000 0.315045 0.365124
O O14 0.500000 0.912439 0.528908
O O15 0.385156 0.000000 0.500000
#
# Coordination Sequence:
#
# PCOD9481055 Si02
#       6
#    16  16  16  16  16  16
#     4  11  21  40  64  93 130 175 209 265 328 388
#     4   9  21  39  66  91 126 168 213 261 321 390
#     4  11  25  42  62  93 134 173 218 267 324 393
#     4  11  22  41  65  94 130 169 218 264 330 379
#     4  10  22  43  66  93 128 171 221 271 319 385
#     4  11  22  37  64  98 129 165 217 272 322 378
#
# _framework density 20.981750999999999
#
# number of rings (size 3 to 8) (size 9 to 14) (size 15 to 20)
#    0.000    1.500    1.667    4.500    0.000    5.333 
#    3.000    0.833    0.000    0.000    0.000    0.000 
#    0.000    0.000    0.000    0.000    0.000    0.000 
#
# Total GULP energy -267707.765042 kJ/mol
# GULP energy per Si atom -5577.245105 kJ/mol
# Density = 2.093400 g / cm^3
# Si number density = 20.981751 Si / 1000 Ang^3
#
#
#
# Elastic Constant Matrix: (Units=GPa)
#
#
# Indices 1 2 3 4 5 6 
#
# 1 122.7197 32.6398 5.8882 0.0000 0.0000 0.0000
# 2 32.6398 129.3199 19.6987 0.0000 0.0000 0.0000
# 3 5.8882 19.6987 31.9768 0.0000 0.0000 0.0000
# 4 0.0000 0.0000 0.0000 21.2435 0.0000 0.0000
# 5 0.0000 0.0000 0.0000 0.0000 -488.0718 0.0000
# 6 0.0000 0.0000 0.0000 0.0000 0.0000 15.8570
#
#
#
# Elastic Compliance Matrix: (Units=1/GPa)
#
#
# Indices 1 2 3 4 5 6 
#
# 1 0.008737 -0.002163 -0.000276 0.000000 0.000000 0.000000
# 2 -0.002163 0.009069 -0.005189 0.000000 0.000000 0.000000
# 3 -0.000276 -0.005189 0.034520 0.000000 0.000000 0.000000
# 4 0.000000 0.000000 0.000000 0.047073 0.000000 0.000000
# 5 0.000000 0.000000 0.000000 0.000000 -0.002049 0.000000
# 6 0.000000 0.000000 0.000000 0.000000 0.000000 0.063064
#
#
# Mechanical properties :
#
#
# Convention : Reuss Voigt Hill
#
# Bulk Modulus (GPa) = 26.97585 44.49665 35.73625
# Shear Modulus (GPa) = 26.59194 -75.14162 -24.27484
#
# Velocity S-wave (km/s) = 3.56390 -5.99088 -3.40509
# Velocity P-wave (km/s) = 5.46076 5.15759 1.26868
#
# Compressibility (1/GPa) = 0.03707019
#
# Stress axis : x y z
#
# Youngs Moduli (GPa) = 114.45263 110.26476 28.96887
#
# Poissons Ratio (x) = 0.23852 0.00800
# Poissons Ratio (y) = 0.24758 0.15031
# Poissons Ratio (z) = 0.03162 0.57211
#
# Static dielectric constant tensor:
#      x y z
#    x 1.782030 0.000000 0.000000 
#    y 0.000000 1.782020 0.000000 
#    z 0.000000 0.000000 1.695160 
# 
# From -- ./inp_files/23880.got.cif
#   From: 2010.05.17/outbox.cif.g08.bks.cpg/sg64_12_cif.got.tgz:23880.got - 2010.06.03 16:29:19.
