data_PCOD9481065
_publ_section_title
;
Structure prediction by ZEFSAII (Michael W. Deem and Ramdas Pophale) SiO2 
 PCOD9481065
Probable space group: C M C A
;
_chemical_formula_sum "Si O2"
_cell_formula_units_Z 64
_cell_length_a 14.756205
_cell_length_b 17.495042
_cell_length_c 11.593555
_cell_angle_alpha 90.000000
_cell_angle_beta 90.000000
_cell_angle_gamma 90.000000
_cell_volume 2992.997100
_symmetry_space_group_name_H-M "C M C A"
_symmetry_group_IT_number 64
_symmetry_cell_setting 'orthorhombic'
loop_
_space_group_symop_operation_xyz
x,y,z
-x,1/2-y,1/2+z
x,-y,-z
-x,1/2+y,1/2-z
-x,-y,-z
x,1/2+y,1/2-z
-x,y,z
x,1/2-y,1/2+z
1/2+x,1/2+y,z
1/2-x,-y,1/2+z
1/2+x,1/2-y,-z
1/2-x,y,1/2-z
1/2-x,1/2-y,-z
1/2+x,y,1/2-z
1/2-x,1/2+y,z
1/2+x,-y,1/2+z
loop_
_atom_site_type_symbol
_atom_site_label
_atom_site_fract_x
_atom_site_fract_y
_atom_site_fract_z
Si Si1 0.297247 0.727781 0.122250
Si Si2 0.890424 0.567275 0.413742
Si Si3 0.389742 0.540072 0.344315
Si Si4 0.608705 0.124484 0.941447
O O1 0.250000 0.718125 0.250000
O O2 0.352775 0.652886 0.082549
O O3 0.357812 0.804662 0.132334
O O4 0.250000 0.750000 0.000000
O O5 0.859610 0.500000 0.500000
O O6 0.861525 0.543687 0.286141
O O7 0.000000 0.570590 0.422471
O O8 0.500000 0.541501 0.347240
O O9 0.363161 0.457212 0.390293
O O10 0.360346 0.611334 0.424750
O O11 0.500000 0.128543 0.942967
#
# Coordination Sequence:
#
# PCOD9481065 Si02
#       4
#    16  16  16  16
#     4  12  27  44  59  98 137 171 211 261 337 394
#     4  10  22  43  68  92 123 169 224 270 311 376
#     4   8  16  35  64  96 119 154 217 271 312 362
#     4   9  18  38  68  93 122 167 217 266 315 384
#
# _framework density 21.383248999999999
#
# number of rings (size 3 to 8) (size 9 to 14) (size 15 to 20)
#    0.000    2.250    0.000    3.750    3.500    0.000 
#    9.000    2.500    0.000    0.000    0.000    0.000 
#    0.000    0.000    0.000    0.000    0.000    0.000 
#
# Total GULP energy -178152.647728 kJ/mol
# GULP energy per Si atom -5567.270242 kJ/mol
# Density = 2.133458 g / cm^3
# Si number density = 21.383249 Si / 1000 Ang^3
#
#
#
# Elastic Constant Matrix: (Units=GPa)
#
#
# Indices 1 2 3 4 5 6 
#
# 1 44.9377 37.3140 36.7082 0.0000 0.0000 0.0000
# 2 37.3140 171.4180 82.6253 0.0000 0.0000 0.0000
# 3 36.7082 82.6253 154.4339 0.0000 0.0000 0.0000
# 4 0.0000 0.0000 0.0000 35.8288 0.0000 0.0000
# 5 0.0000 0.0000 0.0000 0.0000 15.3469 0.0000
# 6 0.0000 0.0000 0.0000 0.0000 0.0000 88.2779
#
#
#
# Elastic Compliance Matrix: (Units=1/GPa)
#
#
# Indices 1 2 3 4 5 6 
#
# 1 0.029624 -0.004116 -0.004839 0.000000 0.000000 0.000000
# 2 -0.004116 0.008433 -0.003533 0.000000 0.000000 0.000000
# 3 -0.004839 -0.003533 0.009516 0.000000 0.000000 0.000000
# 4 0.000000 0.000000 0.000000 0.027910 0.000000 0.000000
# 5 0.000000 0.000000 0.000000 0.000000 0.065160 0.000000
# 6 0.000000 0.000000 0.000000 0.000000 0.000000 0.011328
#
#
# Mechanical properties :
#
#
# Convention : Reuss Voigt Hill
#
# Bulk Modulus (GPa) = 44.25692 76.00942 60.13317
# Shear Modulus (GPa) = 27.10325 42.16684 34.63505
#
# Velocity S-wave (km/s) = 3.56406 4.44549 4.02895
# Velocity P-wave (km/s) = 6.13829 7.87231 7.05875
#
# Compressibility (1/GPa) = 0.02259533
#
# Stress axis : x y z
#
# Youngs Moduli (GPa) = 33.75667 118.58532 105.08631
#
# Poissons Ratio (x) = 0.48808 0.50855
# Poissons Ratio (y) = 0.13894 0.37131
# Poissons Ratio (z) = 0.16336 0.41901
#
# Static dielectric constant tensor:
#      x y z
#    x 1.869570 0.000000 0.000000 
#    y 0.000000 1.853180 0.000000 
#    z 0.000000 0.000000 1.829570 
# 
# From -- ./inp_files/14006.got.cif
#   From: 2010.05.17/outbox.cif.g08.bks.cpg/sg64_8_cif.got.tgz:14006.got - 2010.06.03 16:29:19.
