data_PCOD9481730
_publ_section_title
;
Structure prediction by ZEFSAII (Michael W. Deem and Ramdas Pophale) SiO2 
 PCOD9481730
Probable space group: C M C A
;
_chemical_formula_sum "Si O2"
_cell_formula_units_Z 80
_cell_length_a 11.041140
_cell_length_b 20.047853
_cell_length_c 19.177871
_cell_angle_alpha 90.000000
_cell_angle_beta 90.000000
_cell_angle_gamma 90.000000
_cell_volume 4245.043832
_symmetry_space_group_name_H-M "C M C A"
_symmetry_group_IT_number 64
_symmetry_cell_setting 'orthorhombic'
loop_
_space_group_symop_operation_xyz
x,y,z
-x,1/2-y,1/2+z
x,-y,-z
-x,1/2+y,1/2-z
-x,-y,-z
x,1/2+y,1/2-z
-x,y,z
x,1/2-y,1/2+z
1/2+x,1/2+y,z
1/2-x,-y,1/2+z
1/2+x,1/2-y,-z
1/2-x,y,1/2-z
1/2-x,1/2-y,-z
1/2+x,y,1/2-z
1/2-x,1/2+y,z
1/2+x,-y,1/2+z
loop_
_atom_site_type_symbol
_atom_site_label
_atom_site_fract_x
_atom_site_fract_y
_atom_site_fract_z
Si Si1 0.143891 0.748957 0.309382
Si Si2 0.254924 0.185913 0.449580
Si Si3 0.140968 0.433008 0.464149
Si Si4 0.500000 0.613605 0.465234
Si Si5 0.790511 0.099222 0.671149
Si Si6 0.500000 0.028780 0.893968
O O1 0.250000 0.740400 0.250000
O O2 0.187921 0.706175 0.375661
O O3 0.153382 0.826601 0.332421
O O4 0.000000 0.736215 0.290920
O O5 0.250000 0.250000 0.500000
O O6 0.334597 0.128091 0.484398
O O7 0.119243 0.155935 0.447874
O O8 0.196865 0.500000 0.500000
O O9 0.192842 0.410947 0.389564
O O10 0.000000 0.445455 0.454779
O O11 0.500000 0.544667 0.423546
O O12 0.500000 0.585507 0.544894
O O13 0.750000 0.091437 0.750000
O O14 0.885708 0.042790 0.653089
#
# Coordination Sequence:
#
# PCOD9481730 Si02
#       6
#    16  16  16   8  16   8
#     4  11  25  44  68 101 138 176 225 282 337 399
#     4  12  24  40  69  98 131 172 229 275 341 401
#     4  11  24  42  65  95 132 173 221 279 335 399
#     4  11  24  38  69  98 127 180 219 286 340 401
#     4  11  23  39  67  97 129 172 220 272 337 400
#     4  11  20  44  65  92 135 166 229 276 334 409
#
# _framework density 18.845507000000001
#
# number of rings (size 3 to 8) (size 9 to 14) (size 15 to 20)
#    0.000    0.800    5.000    1.800    5.600    0.800 
#    0.000    4.000    0.000    0.000    0.000    0.000 
#    0.000    0.000    0.000    0.000    0.000    0.000 
#
# Total GULP energy -223221.115810 kJ/mol
# GULP energy per Si atom -5580.527895 kJ/mol
# Density = 1.880261 g / cm^3
# Si number density = 18.845507 Si / 1000 Ang^3
#
#
#
# Elastic Constant Matrix: (Units=GPa)
#
#
# Indices 1 2 3 4 5 6 
#
# 1 123.8488 30.8574 53.0280 0.0000 0.0000 0.0000
# 2 30.8574 99.2094 65.0412 0.0000 0.0000 0.0000
# 3 53.0280 65.0412 137.4330 0.0000 0.0000 0.0000
# 4 0.0000 0.0000 0.0000 29.9774 0.0000 0.0000
# 5 0.0000 0.0000 0.0000 0.0000 28.8348 0.0000
# 6 0.0000 0.0000 0.0000 0.0000 0.0000 34.2788
#
#
#
# Elastic Compliance Matrix: (Units=1/GPa)
#
#
# Indices 1 2 3 4 5 6 
#
# 1 0.009718 -0.000818 -0.003362 0.000000 0.000000 0.000000
# 2 -0.000818 0.014683 -0.006633 0.000000 0.000000 0.000000
# 3 -0.003362 -0.006633 0.011713 0.000000 0.000000 0.000000
# 4 0.000000 0.000000 0.000000 0.033359 0.000000 0.000000
# 5 0.000000 0.000000 0.000000 0.000000 0.034680 0.000000
# 6 0.000000 0.000000 0.000000 0.000000 0.000000 0.029173
#
#
# Mechanical properties :
#
#
# Convention : Reuss Voigt Hill
#
# Bulk Modulus (GPa) = 69.03139 73.14939 71.09039
# Shear Modulus (GPa) = 31.29289 32.72250 32.00770
#
# Velocity S-wave (km/s) = 4.07934 4.17148 4.12567
# Velocity P-wave (km/s) = 7.67448 7.88043 7.77814
#
# Compressibility (1/GPa) = 0.01448616
#
# Stress axis : x y z
#
# Youngs Moduli (GPa) = 102.90306 68.10706 85.37696
#
# Poissons Ratio (x) = 0.05573 0.28707
# Poissons Ratio (y) = 0.08420 0.56631
# Poissons Ratio (z) = 0.34600 0.45176
#
# Static dielectric constant tensor:
#      x y z
#    x 1.646880 0.000000 0.000000 
#    y 0.000000 1.637250 0.000000 
#    z 0.000000 0.000000 1.640190 
# 
# From -- ./inp_files/30859.got.cif
#   From: 2010.05.17/outbox.cif.g08.bks.cpg/sg64_16_cif.got.tgz:30859.got - 2010.06.03 16:29:19.
