data_PCOD9481559
_publ_section_title
;
Structure prediction by ZEFSAII (Michael W. Deem and Ramdas Pophale) SiO2 
 PCOD9481559
Probable space group: C M C A
;
_chemical_formula_sum "Si O2"
_cell_formula_units_Z 52
_cell_length_a 9.265428
_cell_length_b 11.439915
_cell_length_c 19.287451
_cell_angle_alpha 90.000000
_cell_angle_beta 90.000000
_cell_angle_gamma 90.000000
_cell_volume 2044.387039
_symmetry_space_group_name_H-M "C M C A"
_symmetry_group_IT_number 64
_symmetry_cell_setting 'orthorhombic'
loop_
_space_group_symop_operation_xyz
x,y,z
-x,1/2-y,1/2+z
x,-y,-z
-x,1/2+y,1/2-z
-x,-y,-z
x,1/2+y,1/2-z
-x,y,z
x,1/2-y,1/2+z
1/2+x,1/2+y,z
1/2-x,-y,1/2+z
1/2+x,1/2-y,-z
1/2-x,y,1/2-z
1/2-x,1/2-y,-z
1/2+x,y,1/2-z
1/2-x,1/2+y,z
1/2+x,-y,1/2+z
loop_
_atom_site_type_symbol
_atom_site_label
_atom_site_fract_x
_atom_site_fract_y
_atom_site_fract_z
Si Si1 0.000000 0.381899 0.704978
Si Si2 0.000000 0.403119 0.387051
Si Si3 0.754354 0.734542 0.360166
Si Si4 0.000000 0.946773 0.647598
Si Si5 0.500000 0.761216 0.525011
Si Si6 0.500000 0.000000 0.000000
O O1 0.000000 0.463322 0.636482
O O2 0.133493 0.293517 0.700638
O O3 0.000000 0.469955 0.769703
O O4 0.147710 0.344965 0.358130
O O5 0.000000 0.365370 0.467991
O O6 0.646659 0.625877 0.360091
O O7 0.854658 0.735834 0.428852
O O8 0.000000 0.035363 0.584125
O O9 0.500000 0.639377 0.482466
#
# Coordination Sequence:
#
# PCOD9481559 Si02
#       6
#     8   8  16   8   8   4
#     4  11  26  48  69 106 147 191 242 305 360 437
#     4  11  24  44  77 111 144 192 247 291 374 431
#     4  10  24  47  71 105 146 189 244 295 364 433
#     4  11  25  47  68 101 146 186 242 305 360 431
#     4  11  24  45  74 110 143 198 238 309 361 438
#     4  12  26  42  76 102 152 182 248 308 370 422
#
# _framework density 25.435497999999999
#
# number of rings (size 3 to 8) (size 9 to 14) (size 15 to 20)
#    0.000    1.231    3.077    1.846    4.308    2.462 
#   16.615    0.000    0.000    0.923    0.000    0.000 
#    0.000    0.000    0.000    0.000    0.000    0.000 
#
# Total GULP energy -144858.723387 kJ/mol
# GULP energy per Si atom -5571.489361 kJ/mol
# Density = 2.537761 g / cm^3
# Si number density = 25.435498 Si / 1000 Ang^3
#
#
#
# Elastic Constant Matrix: (Units=GPa)
#
#
# Indices 1 2 3 4 5 6 
#
# 1 193.6563 36.7946 41.2266 0.0000 0.0000 0.0000
# 2 36.7946 85.5047 26.6723 0.0000 0.0000 0.0000
# 3 41.2266 26.6723 129.8196 0.0000 0.0000 0.0000
# 4 0.0000 0.0000 0.0000 37.3067 0.0000 0.0000
# 5 0.0000 0.0000 0.0000 0.0000 80.5193 0.0000
# 6 0.0000 0.0000 0.0000 0.0000 0.0000 16.4539
#
#
#
# Elastic Compliance Matrix: (Units=1/GPa)
#
#
# Indices 1 2 3 4 5 6 
#
# 1 0.005864 -0.002075 -0.001436 0.000000 0.000000 0.000000
# 2 -0.002075 0.013231 -0.002059 0.000000 0.000000 0.000000
# 3 -0.001436 -0.002059 0.008582 0.000000 0.000000 0.000000
# 4 0.000000 0.000000 0.000000 0.026805 0.000000 0.000000
# 5 0.000000 0.000000 0.000000 0.000000 0.012419 0.000000
# 6 0.000000 0.000000 0.000000 0.000000 0.000000 0.060776
#
#
# Mechanical properties :
#
#
# Convention : Reuss Voigt Hill
#
# Bulk Modulus (GPa) = 60.47531 68.70751 64.59141
# Shear Modulus (GPa) = 34.64297 47.14179 40.89238
#
# Velocity S-wave (km/s) = 3.69452 4.30977 4.01395
# Velocity P-wave (km/s) = 6.48282 7.19976 6.85067
#
# Compressibility (1/GPa) = 0.01653567
#
# Stress axis : x y z
#
# Youngs Moduli (GPa) = 170.53880 75.58162 116.52256
#
# Poissons Ratio (x) = 0.15687 0.16730
# Poissons Ratio (y) = 0.35394 0.23995
# Poissons Ratio (z) = 0.24485 0.15564
#
# Static dielectric constant tensor:
#      x y z
#    x 1.952240 0.000000 0.000000 
#    y 0.000000 1.943710 0.000000 
#    z 0.000000 0.000000 2.130570 
# 
# From -- ./inp_files/36135.got.cif
#   From: 2010.05.17/outbox.cif.g08.bks.cpg/sg64_19_cif.got.tgz:36135.got - 2010.06.03 16:29:19.
