data_PCOD9481125
_publ_section_title
;
Structure prediction by ZEFSAII (Michael W. Deem and Ramdas Pophale) SiO2 
 PCOD9481125
Probable space group: C M C A
;
_chemical_formula_sum "Si O2"
_cell_formula_units_Z 48
_cell_length_a 10.964866
_cell_length_b 19.400073
_cell_length_c 9.110702
_cell_angle_alpha 90.000000
_cell_angle_beta 90.000000
_cell_angle_gamma 90.000000
_cell_volume 1938.021248
_symmetry_space_group_name_H-M "C M C A"
_symmetry_group_IT_number 64
_symmetry_cell_setting 'orthorhombic'
loop_
_space_group_symop_operation_xyz
x,y,z
-x,1/2-y,1/2+z
x,-y,-z
-x,1/2+y,1/2-z
-x,-y,-z
x,1/2+y,1/2-z
-x,y,z
x,1/2-y,1/2+z
1/2+x,1/2+y,z
1/2-x,-y,1/2+z
1/2+x,1/2-y,-z
1/2-x,y,1/2-z
1/2-x,1/2-y,-z
1/2+x,y,1/2-z
1/2-x,1/2+y,z
1/2+x,-y,1/2+z
loop_
_atom_site_type_symbol
_atom_site_label
_atom_site_fract_x
_atom_site_fract_y
_atom_site_fract_z
Si Si1 0.868440 0.792236 0.850051
Si Si2 0.135298 0.138022 0.639253
Si Si3 0.718155 0.065741 0.419925
O O1 0.750000 0.794578 0.750000
O O2 0.862595 0.716783 0.922586
O O3 0.859344 0.863877 0.936185
O O4 0.000000 0.793022 0.771504
O O5 0.250000 0.131512 0.750000
O O6 0.159607 0.084943 0.509074
O O7 0.000000 0.127913 0.703916
O O8 0.750000 0.052412 0.250000
O O9 0.662243 0.000000 0.500000
#
# Coordination Sequence:
#
# PCOD9481125 Si02
#       3
#    16  16  16
#     4   9  20  40  68  99 131 170 219 275 333 394
#     4  10  22  44  73 103 134 170 218 277 338 399
#     4  11  24  42  65  97 137 180 223 272 329 392
#
# _framework density 24.767531000000002
#
# number of rings (size 3 to 8) (size 9 to 14) (size 15 to 20)
#    0.000    2.000    0.000    2.000    0.000    8.000 
#    0.000   21.667    0.000    0.000    0.000    0.000 
#    0.000    0.000    0.000    0.000    0.000    0.000 
#
# Total GULP energy -133981.774418 kJ/mol
# GULP energy per Si atom -5582.573934 kJ/mol
# Density = 2.471116 g / cm^3
# Si number density = 24.767531 Si / 1000 Ang^3
#
#
#
# Elastic Constant Matrix: (Units=GPa)
#
#
# Indices 1 2 3 4 5 6 
#
# 1 187.2067 32.4445 53.5367 0.0000 0.0000 0.0000
# 2 32.4445 152.2438 55.5807 0.0000 0.0000 0.0000
# 3 53.5367 55.5807 131.6344 0.0000 0.0000 0.0000
# 4 0.0000 0.0000 0.0000 35.2597 0.0000 0.0000
# 5 0.0000 0.0000 0.0000 0.0000 28.1439 0.0000
# 6 0.0000 0.0000 0.0000 0.0000 0.0000 -12.7761
#
#
#
# Elastic Compliance Matrix: (Units=1/GPa)
#
#
# Indices 1 2 3 4 5 6 
#
# 1 0.006072 -0.000464 -0.002274 0.000000 0.000000 0.000000
# 2 -0.000464 0.007801 -0.003105 0.000000 0.000000 0.000000
# 3 -0.002274 -0.003105 0.009833 0.000000 0.000000 0.000000
# 4 0.000000 0.000000 0.000000 0.028361 0.000000 0.000000
# 5 0.000000 0.000000 0.000000 0.000000 0.035532 0.000000
# 6 0.000000 0.000000 0.000000 0.000000 0.000000 -0.078271
#
#
# Mechanical properties :
#
#
# Convention : Reuss Voigt Hill
#
# Bulk Modulus (GPa) = 83.19340 83.80098 83.49719
# Shear Modulus (GPa) = 199.84182 32.09369 115.96775
#
# Velocity S-wave (km/s) = 8.99234 3.60362 6.85012
# Velocity P-wave (km/s) = 11.89449 7.15704 9.81586
#
# Compressibility (1/GPa) = 0.01202018
#
# Stress axis : x y z
#
# Youngs Moduli (GPa) = 164.68110 128.19050 101.70212
#
# Poissons Ratio (x) = 0.05948 0.23125
# Poissons Ratio (y) = 0.07641 0.31580
# Poissons Ratio (z) = 0.37445 0.39805
#
# Static dielectric constant tensor:
#      x y z
#    x 1.987630 0.000000 0.000000 
#    y 0.000000 2.020560 0.000000 
#    z 0.000000 0.000000 2.004070 
# 
# From -- ./inp_files/4340.got.cif
#   From: 2010.05.17/outbox.cif.g08.bks.cpg/sg64_3_cif.got.tgz:4340.got - 2010.06.03 16:29:19.
