data_PCOD9481927
_publ_section_title
;
Structure prediction by ZEFSAII (Michael W. Deem and Ramdas Pophale) SiO2 
 PCOD9481927
Probable space group: C M C A
;
_chemical_formula_sum "Si O2"
_cell_formula_units_Z 56
_cell_length_a 10.089233
_cell_length_b 10.460748
_cell_length_c 20.087407
_cell_angle_alpha 90.000000
_cell_angle_beta 90.000000
_cell_angle_gamma 90.000000
_cell_volume 2120.043494
_symmetry_space_group_name_H-M "C M C A"
_symmetry_group_IT_number 64
_symmetry_cell_setting 'orthorhombic'
loop_
_space_group_symop_operation_xyz
x,y,z
-x,1/2-y,1/2+z
x,-y,-z
-x,1/2+y,1/2-z
-x,-y,-z
x,1/2+y,1/2-z
-x,y,z
x,1/2-y,1/2+z
1/2+x,1/2+y,z
1/2-x,-y,1/2+z
1/2+x,1/2-y,-z
1/2-x,y,1/2-z
1/2-x,1/2-y,-z
1/2+x,y,1/2-z
1/2-x,1/2+y,z
1/2+x,-y,1/2+z
loop_
_atom_site_type_symbol
_atom_site_label
_atom_site_fract_x
_atom_site_fract_y
_atom_site_fract_z
Si Si1 0.000000 0.710906 0.452702
Si Si2 0.000000 0.062872 0.826514
Si Si3 0.500000 0.794741 0.907162
Si Si4 0.280789 0.518098 0.361503
Si Si5 0.500000 0.158925 0.809249
Si Si6 0.294597 0.500000 0.000000
O O1 0.000000 0.756462 0.376379
O O2 0.876404 0.617130 0.468194
O O3 0.000000 0.812955 0.513164
O O4 0.134686 0.980470 0.829314
O O5 0.000000 0.143717 0.894596
O O6 0.000000 0.175912 0.770680
O O7 0.632071 0.855390 0.874797
O O8 0.370435 0.427977 0.316928
O O9 0.279694 0.452318 0.434637
#
# Coordination Sequence:
#
# PCOD9481927 Si02
#       6
#     8   8   8  16   8   8
#     4  11  23  45  77 116 150 194 260 315 386 444
#     4  12  25  54  70 108 161 196 254 309 380 456
#     4  11  25  48  81 112 145 201 254 314 378 452
#     4  11  25  48  74 109 149 193 252 315 373 449
#     4  11  27  47  72 108 152 207 249 310 381 465
#     4  11  22  43  78 118 148 192 254 334 370 446
#
# _framework density 26.414553999999999
#
# number of rings (size 3 to 8) (size 9 to 14) (size 15 to 20)
#    0.000    0.857    2.857    3.429    4.000    4.571 
#   15.429    0.000    0.000    0.000    0.000    0.000 
#    0.000    0.000    0.000    0.000    0.000    0.000 
#
# Total GULP energy -156478.514531 kJ/mol
# GULP energy per Si atom -5588.518376 kJ/mol
# Density = 2.635443 g / cm^3
# Si number density = 26.414554 Si / 1000 Ang^3
#
#
#
# Elastic Constant Matrix: (Units=GPa)
#
#
# Indices 1 2 3 4 5 6 
#
# 1 185.2767 45.6936 28.2832 0.0000 0.0000 0.0000
# 2 45.6936 72.6391 25.9862 0.0000 0.0000 0.0000
# 3 28.2832 25.9862 178.2822 0.0000 0.0000 0.0000
# 4 0.0000 0.0000 0.0000 47.3663 0.0000 0.0000
# 5 0.0000 0.0000 0.0000 0.0000 33.0857 0.0000
# 6 0.0000 0.0000 0.0000 0.0000 0.0000 258.9530
#
#
#
# Elastic Compliance Matrix: (Units=1/GPa)
#
#
# Indices 1 2 3 4 5 6 
#
# 1 0.006423 -0.003878 -0.000454 0.000000 0.000000 0.000000
# 2 -0.003878 0.016866 -0.001843 0.000000 0.000000 0.000000
# 3 -0.000454 -0.001843 0.005950 0.000000 0.000000 0.000000
# 4 0.000000 0.000000 0.000000 0.021112 0.000000 0.000000
# 5 0.000000 0.000000 0.000000 0.000000 0.030225 0.000000
# 6 0.000000 0.000000 0.000000 0.000000 0.000000 0.003862
#
#
# Mechanical properties :
#
#
# Convention : Reuss Voigt Hill
#
# Bulk Modulus (GPa) = 59.21169 70.68045 64.94607
# Shear Modulus (GPa) = 48.82059 90.29667 69.55863
#
# Velocity S-wave (km/s) = 4.30379 5.85309 5.13718
# Velocity P-wave (km/s) = 6.86744 8.51437 7.73486
#
# Compressibility (1/GPa) = 0.01688856
#
# Stress axis : x y z
#
# Youngs Moduli (GPa) = 155.69004 59.29243 168.07557
#
# Poissons Ratio (x) = 0.22994 0.07626
# Poissons Ratio (y) = 0.60378 0.30978
# Poissons Ratio (z) = 0.07064 0.10928
#
# Static dielectric constant tensor:
#      x y z
#    x 2.210360 0.000000 0.000000 
#    y 0.000000 2.050650 0.000000 
#    z 0.000000 0.000000 2.067030 
# 
# From -- ./inp_files/37687.got.cif
#   From: 2010.05.17/outbox.cif.g08.bks.cpg/sg64_19_cif.got.tgz:37687.got - 2010.06.03 16:29:19.
