data_PCOD9481854
_publ_section_title
;
Structure prediction by ZEFSAII (Michael W. Deem and Ramdas Pophale) SiO2 
 PCOD9481854
Probable space group: C M C A
;
_chemical_formula_sum "Si O2"
_cell_formula_units_Z 72
_cell_length_a 9.505825
_cell_length_b 14.956910
_cell_length_c 25.699889
_cell_angle_alpha 90.000000
_cell_angle_beta 90.000000
_cell_angle_gamma 90.000000
_cell_volume 3653.952882
_symmetry_space_group_name_H-M "C M C A"
_symmetry_group_IT_number 64
_symmetry_cell_setting 'orthorhombic'
loop_
_space_group_symop_operation_xyz
x,y,z
-x,1/2-y,1/2+z
x,-y,-z
-x,1/2+y,1/2-z
-x,-y,-z
x,1/2+y,1/2-z
-x,y,z
x,1/2-y,1/2+z
1/2+x,1/2+y,z
1/2-x,-y,1/2+z
1/2+x,1/2-y,-z
1/2-x,y,1/2-z
1/2-x,1/2-y,-z
1/2+x,y,1/2-z
1/2-x,1/2+y,z
1/2+x,-y,1/2+z
loop_
_atom_site_type_symbol
_atom_site_label
_atom_site_fract_x
_atom_site_fract_y
_atom_site_fract_z
Si Si1 0.330848 0.258987 0.354672
Si Si2 0.334882 0.039048 0.882114
Si Si3 0.249424 0.500000 0.000000
Si Si4 0.328802 0.084399 0.301978
Si Si5 0.158539 0.811609 0.964188
O O1 0.500000 0.263449 0.352426
O O2 0.287016 0.361361 0.363613
O O3 0.290768 0.189873 0.309557
O O4 0.289126 0.204410 0.406180
O O5 0.500000 0.026316 0.868193
O O6 0.325894 0.027730 0.945250
O O7 0.235538 0.971161 0.850418
O O8 0.334069 0.587190 0.017210
O O9 0.500000 0.075515 0.300035
O O10 0.250000 0.052018 0.250000
O O11 0.000000 0.778491 0.966274
O O12 0.250000 0.750000 0.000000
#
# Coordination Sequence:
#
# PCOD9481854 Si02
#       5
#    16  16   8  16  16
#     4   9  20  40  61  86 125 165 204 255 310 370
#     4  11  23  40  64  97 132 170 213 260 314 379
#     4  12  22  36  64  98 136 174 212 258 314 378
#     4  11  24  45  68  91 122 163 211 269 327 382
#     4  11  22  38  59  90 128 168 208 252 307 371
#
# _framework density 19.704688000000001
#
# number of rings (size 3 to 8) (size 9 to 14) (size 15 to 20)
#    0.000    1.333    4.444    1.333    0.000    2.667 
#    0.000    4.444    0.000    0.000    0.000    0.000 
#    0.000    0.000    0.000    0.000    0.000    0.000 
#
# Total GULP energy -200472.488356 kJ/mol
# GULP energy per Si atom -5568.680232 kJ/mol
# Density = 1.965984 g / cm^3
# Si number density = 19.704688 Si / 1000 Ang^3
#
#
#
# Elastic Constant Matrix: (Units=GPa)
#
#
# Indices 1 2 3 4 5 6 
#
# 1 73.2269 29.2945 39.8008 0.0000 0.0000 0.0000
# 2 29.2945 132.3934 40.2329 0.0000 0.0000 0.0000
# 3 39.8008 40.2329 109.0358 0.0000 0.0000 0.0000
# 4 0.0000 0.0000 0.0000 29.9502 0.0000 0.0000
# 5 0.0000 0.0000 0.0000 0.0000 24.5733 0.0000
# 6 0.0000 0.0000 0.0000 0.0000 0.0000 23.2087
#
#
#
# Elastic Compliance Matrix: (Units=1/GPa)
#
#
# Indices 1 2 3 4 5 6 
#
# 1 0.017580 -0.002185 -0.005611 0.000000 0.000000 0.000000
# 2 -0.002185 0.008779 -0.002442 0.000000 0.000000 0.000000
# 3 -0.005611 -0.002442 0.012120 0.000000 0.000000 0.000000
# 4 0.000000 0.000000 0.000000 0.033389 0.000000 0.000000
# 5 0.000000 0.000000 0.000000 0.000000 0.040695 0.000000
# 6 0.000000 0.000000 0.000000 0.000000 0.000000 0.043087
#
#
# Mechanical properties :
#
#
# Convention : Reuss Voigt Hill
#
# Bulk Modulus (GPa) = 55.54294 59.25694 57.39994
# Shear Modulus (GPa) = 27.45354 29.23497 28.34425
#
# Velocity S-wave (km/s) = 3.73667 3.85600 3.79681
# Velocity P-wave (km/s) = 6.84586 7.06844 6.95804
#
# Compressibility (1/GPa) = 0.01800409
#
# Stress axis : x y z
#
# Youngs Moduli (GPa) = 56.88311 113.91228 82.50549
#
# Poissons Ratio (x) = 0.24887 0.46293
# Poissons Ratio (y) = 0.12428 0.20146
# Poissons Ratio (z) = 0.31917 0.27814
#
# Static dielectric constant tensor:
#      x y z
#    x 1.665960 0.000000 0.000000 
#    y 0.000000 1.670410 0.000000 
#    z 0.000000 0.000000 1.710610 
# 
# From -- ./inp_files/47628.got.cif
#   From: 2010.05.17/outbox.cif.g08.bks.cpg/sg64_24_cif.got.tgz:47628.got - 2010.06.03 16:29:19.
