data_PCOD9482783
_publ_section_title
;
Structure prediction by ZEFSAII (Michael W. Deem and Ramdas Pophale) SiO2 
 PCOD9482783
Probable space group: C M M M
;
_chemical_formula_sum "Si O2"
_cell_formula_units_Z 68
_cell_length_a 22.636126
_cell_length_b 17.353957
_cell_length_c 8.012576
_cell_angle_alpha 90.000000
_cell_angle_beta 90.000000
_cell_angle_gamma 90.000000
_cell_volume 3147.551042
_symmetry_space_group_name_H-M "C M M M"
_symmetry_group_IT_number 65
_symmetry_cell_setting 'orthorhombic'
loop_
_space_group_symop_operation_xyz
x,y,z
-x,-y,z
x,-y,-z
-x,y,-z
-x,-y,-z
x,y,-z
-x,y,z
x,-y,z
1/2+x,1/2+y,z
1/2-x,1/2-y,z
1/2+x,1/2-y,-z
1/2-x,1/2+y,-z
1/2-x,1/2-y,-z
1/2+x,1/2+y,-z
1/2-x,1/2+y,z
1/2+x,1/2-y,z
loop_
_atom_site_type_symbol
_atom_site_label
_atom_site_fract_x
_atom_site_fract_y
_atom_site_fract_z
Si Si1 0.341963 0.913399 0.804715
Si Si2 0.500000 0.319294 0.307328
Si Si3 0.124155 0.000000 0.307084
Si Si4 0.714800 0.640647 0.696523
Si Si5 0.119589 0.746049 0.697561
Si Si6 0.500000 0.500000 0.756347
O O1 0.273568 0.888956 0.783549
O O2 0.379163 0.845029 0.722623
O O3 0.349759 0.000000 0.736453
O O4 0.356196 0.914524 0.000000
O O5 0.500000 0.292496 0.500000
O O6 0.439354 0.286017 0.231991
O O7 0.500000 0.411671 0.311083
O O8 0.165362 0.074102 0.291264
O O9 0.100353 0.000000 0.500000
O O10 0.068367 0.000000 0.185378
O O11 0.730667 0.650957 0.500000
O O12 0.680608 0.715982 0.762569
O O13 0.121377 0.763888 0.500000
#
# Coordination Sequence:
#
# PCOD9482783 Si02
#       6
#    16   8   8  16  16   4
#     4  11  24  40  57  78 106 147 195 238 283 332
#     4  10  19  32  54  88 122 147 178 220 272 332
#     4  10  17  26  49  87 124 152 177 213 267 324
#     4  10  19  33  56  87 118 147 182 224 273 330
#     4  10  21  36  57  87 117 145 181 227 278 334
#     4  12  17  28  56  90 127 156 177 216 267 324
#
# _framework density 21.604098
#
# number of rings (size 3 to 8) (size 9 to 14) (size 15 to 20)
#    0.000    1.647    3.529    2.471    0.000    5.176 
#    0.000    1.176    0.000    3.529    0.000    2.471 
#    0.000    0.000    0.000    0.000    0.000    0.000 
#
# Total GULP energy -189631.923042 kJ/mol
# GULP energy per Si atom -5577.409501 kJ/mol
# Density = 2.155493 g / cm^3
# Si number density = 21.604098 Si / 1000 Ang^3
#
#
#
# Elastic Constant Matrix: (Units=GPa)
#
#
# Indices 1 2 3 4 5 6 
#
# 1 76.5017 33.4428 -0.9932 0.0000 0.0000 0.0000
# 2 33.4428 151.4914 -8.9129 0.0000 0.0000 0.0000
# 3 -0.9932 -8.9129 20.9052 0.0000 0.0000 0.0000
# 4 0.0000 0.0000 0.0000 -0.8497 0.0000 0.0000
# 5 0.0000 0.0000 0.0000 0.0000 53.4923 0.0000
# 6 0.0000 0.0000 0.0000 0.0000 0.0000 32.8246
#
#
#
# Elastic Compliance Matrix: (Units=1/GPa)
#
#
# Indices 1 2 3 4 5 6 
#
# 1 0.014478 -0.003237 -0.000692 0.000000 0.000000 0.000000
# 2 -0.003237 0.007495 0.003041 0.000000 0.000000 0.000000
# 3 -0.000692 0.003041 0.049099 0.000000 0.000000 0.000000
# 4 0.000000 0.000000 0.000000 -1.176925 0.000000 0.000000
# 5 0.000000 0.000000 0.000000 0.000000 0.018694 0.000000
# 6 0.000000 0.000000 0.000000 0.000000 0.000000 0.030465
#
#
# Mechanical properties :
#
#
# Convention : Reuss Voigt Hill
#
# Bulk Modulus (GPa) = 14.43085 32.88578 23.65831
# Shear Modulus (GPa) = -4.84580 32.11755 13.63588
#
# Velocity S-wave (km/s) = -1.49929 3.85988 2.51504
# Velocity P-wave (km/s) = 1.92276 5.92621 4.40551
#
# Compressibility (1/GPa) = 0.06929601
#
# Stress axis : x y z
#
# Youngs Moduli (GPa) = 69.07236 133.43093 20.36709
#
# Poissons Ratio (x) = 0.43188 0.01410
# Poissons Ratio (y) = 0.22357 -0.06195
# Poissons Ratio (z) = 0.04781 -0.40583
#
# Static dielectric constant tensor:
#      x y z
#    x 1.795670 0.000000 0.000000 
#    y 0.000000 1.791240 0.000000 
#    z 0.000000 0.000000 1.842230 
# 
# From -- ./inp_files/10986.got.cif
#   From: 2010.05.17/outbox.cif.g08.bks.cpg/sg65_6_cif.got.tgz:10986.got - 2010.06.03 17:01:31.
