data_PCOD9482908
_publ_section_title
;
Structure prediction by ZEFSAII (Michael W. Deem and Ramdas Pophale) SiO2 
 PCOD9482908
Probable space group: C M M M
;
_chemical_formula_sum "Si O2"
_cell_formula_units_Z 96
_cell_length_a 14.387723
_cell_length_b 26.363006
_cell_length_c 12.298816
_cell_angle_alpha 90.000000
_cell_angle_beta 90.000000
_cell_angle_gamma 90.000000
_cell_volume 4664.985526
_symmetry_space_group_name_H-M "C M M M"
_symmetry_group_IT_number 65
_symmetry_cell_setting 'orthorhombic'
loop_
_space_group_symop_operation_xyz
x,y,z
-x,-y,z
x,-y,-z
-x,y,-z
-x,-y,-z
x,y,-z
-x,y,z
x,-y,z
1/2+x,1/2+y,z
1/2-x,1/2-y,z
1/2+x,1/2-y,-z
1/2-x,1/2+y,-z
1/2-x,1/2-y,-z
1/2+x,1/2+y,-z
1/2-x,1/2+y,z
1/2+x,1/2-y,z
loop_
_atom_site_type_symbol
_atom_site_label
_atom_site_fract_x
_atom_site_fract_y
_atom_site_fract_z
Si Si1 0.350556 0.724807 0.000000
Si Si2 0.613192 0.252987 0.625102
Si Si3 0.613168 0.056119 0.625798
Si Si4 0.886140 0.346349 0.761583
Si Si5 0.102513 0.663536 0.000000
Si Si6 0.886593 0.943247 0.126621
Si Si7 0.388378 0.339094 0.216875
O O1 0.250000 0.750000 0.000000
O O2 0.409529 0.775988 0.000000
O O3 0.368446 0.691877 0.106624
O O4 0.642355 0.247893 0.500000
O O5 0.500000 0.252978 0.624860
O O6 0.640821 0.205174 0.699731
O O7 0.644681 0.304998 0.682460
O O8 0.641175 0.062123 0.500000
O O9 0.500000 0.056410 0.626896
O O10 0.642443 0.103976 0.696028
O O11 0.642480 0.000000 0.663892
O O12 0.000000 0.345106 0.766961
O O13 0.850852 0.348873 0.885354
O O14 0.000000 0.638813 0.000000
O O15 0.854589 0.896522 0.200454
O O16 0.000000 0.943218 0.128182
O O17 0.856348 0.000000 0.158339
O O18 0.860382 0.934630 0.000000
O O19 0.500000 0.341895 0.227003
#
# Coordination Sequence:
#
# PCOD9482908 Si02
#       7
#     8  16  16  16   8  16  16
#     4  12  22  30  43  67  95 121 152 186 223 271
#     4   9  16  24  39  64  88 114 151 188 216 256
#     4   8  13  21  33  52  81 112 139 176 228 272
#     4   9  15  23  38  58  81 108 143 182 220 265
#     4  10  18  30  45  63  85 116 150 178 222 279
#     4   8  13  21  38  66  93 114 143 184 223 266
#     4  10  17  29  48  67  95 127 153 183 228 278
#
# _framework density 20.578841000000001
#
# number of rings (size 3 to 8) (size 9 to 14) (size 15 to 20)
#    0.000    2.833    2.500    2.250    0.000    2.000 
#    0.000    0.417    0.000    3.500    0.000    5.833 
#    0.000    0.000    0.000    0.000    0.000    0.000 
#
# Total GULP energy -267801.735697 kJ/mol
# GULP energy per Si atom -5579.202827 kJ/mol
# Density = 2.053200 g / cm^3
# Si number density = 20.578841 Si / 1000 Ang^3
#
#
#
# Elastic Constant Matrix: (Units=GPa)
#
#
# Indices 1 2 3 4 5 6 
#
# 1 59.8906 1.3774 -3.0422 0.0000 0.0000 0.0000
# 2 1.3774 192.5781 95.5376 0.0000 0.0000 0.0000
# 3 -3.0422 95.5376 149.4959 0.0000 0.0000 0.0000
# 4 0.0000 0.0000 0.0000 29.7444 0.0000 0.0000
# 5 0.0000 0.0000 0.0000 0.0000 -4.4107 0.0000
# 6 0.0000 0.0000 0.0000 0.0000 0.0000 -3.2724
#
#
#
# Elastic Compliance Matrix: (Units=1/GPa)
#
#
# Indices 1 2 3 4 5 6 
#
# 1 0.016738 -0.000423 0.000611 0.000000 0.000000 0.000000
# 2 -0.000423 0.007614 -0.004874 0.000000 0.000000 0.000000
# 3 0.000611 -0.004874 0.009817 0.000000 0.000000 0.000000
# 4 0.000000 0.000000 0.000000 0.033620 0.000000 0.000000
# 5 0.000000 0.000000 0.000000 0.000000 -0.226721 0.000000
# 6 0.000000 0.000000 0.000000 0.000000 0.000000 -0.305590
#
#
# Mechanical properties :
#
#
# Convention : Reuss Voigt Hill
#
# Bulk Modulus (GPa) = 40.32956 65.52334 52.92645
# Shear Modulus (GPa) = -11.18856 24.95172 6.88158
#
# Velocity S-wave (km/s) = -2.33425 3.48587 1.83065
# Velocity P-wave (km/s) = 3.51783 6.93621 5.49937
#
# Compressibility (1/GPa) = 0.02479571
#
# Stress axis : x y z
#
# Youngs Moduli (GPa) = 59.74477 131.33898 101.86810
#
# Poissons Ratio (x) = 0.05552 -0.06222
# Poissons Ratio (y) = 0.02525 0.49654
# Poissons Ratio (z) = -0.03649 0.64019
#
# Static dielectric constant tensor:
#      x y z
#    x 1.785440 0.000000 0.000000 
#    y 0.000000 1.726810 0.000000 
#    z 0.000000 0.000000 1.711590 
# 
# From -- ./inp_files/29525.got.cif
#   From: 2010.05.17/outbox.cif.g08.bks.cpg/sg65_15_cif.got.tgz:29525.got - 2010.06.03 17:01:31.
