data_PCOD9482841
_publ_section_title
;
Structure prediction by ZEFSAII (Michael W. Deem and Ramdas Pophale) SiO2 
 PCOD9482841
Probable space group: C M M M
;
_chemical_formula_sum "Si O2"
_cell_formula_units_Z 72
_cell_length_a 29.877142
_cell_length_b 16.057774
_cell_length_c 7.566487
_cell_angle_alpha 90.000000
_cell_angle_beta 90.000000
_cell_angle_gamma 90.000000
_cell_volume 3630.100784
_symmetry_space_group_name_H-M "C M M M"
_symmetry_group_IT_number 65
_symmetry_cell_setting 'orthorhombic'
loop_
_space_group_symop_operation_xyz
x,y,z
-x,-y,z
x,-y,-z
-x,y,-z
-x,-y,-z
x,y,-z
-x,y,z
x,-y,z
1/2+x,1/2+y,z
1/2-x,1/2-y,z
1/2+x,1/2-y,-z
1/2-x,1/2+y,-z
1/2-x,1/2-y,-z
1/2+x,1/2+y,-z
1/2-x,1/2+y,z
1/2+x,1/2-y,z
loop_
_atom_site_type_symbol
_atom_site_label
_atom_site_fract_x
_atom_site_fract_y
_atom_site_fract_z
Si Si1 0.949156 0.277963 0.202883
Si Si2 0.553489 0.909147 0.500000
Si Si3 0.357256 0.732789 0.285929
Si Si4 0.183879 0.406552 0.715622
Si Si5 0.712151 0.593279 0.284738
O O1 0.936607 0.354667 0.329245
O O2 0.908216 0.214951 0.229514
O O3 0.000000 0.250381 0.250127
O O4 0.950124 0.303886 0.000000
O O5 0.500000 0.918204 0.500000
O O6 0.574739 0.000000 0.500000
O O7 0.356190 0.733361 0.500000
O O8 0.342840 0.825211 0.223609
O O9 0.321465 0.664724 0.224196
O O10 0.181881 0.406642 0.500000
O O11 0.170079 0.500000 0.773199
O O12 0.236044 0.394359 0.765612
O O13 0.711813 0.595044 0.500000
O O14 0.698716 0.500000 0.230193
#
# Coordination Sequence:
#
# PCOD9482841 Si02
#       5
#    16   8  16  16  16
#     4  10  21  36  52  73 103 138 175 216 263 310
#     4   9  18  34  54  74  98 131 173 217 258 304
#     4  10  17  27  48  75  98 134 177 213 259 311
#     4   8  14  24  40  68 103 135 167 207 253 306
#     4   8  14  25  43  70 103 133 169 215 260 311
#
# _framework density 19.834161000000002
#
# number of rings (size 3 to 8) (size 9 to 14) (size 15 to 20)
#    0.000    3.000    1.111    2.000    0.000    4.000 
#    0.000    2.222    0.000    4.000    0.000    7.778 
#    0.000    0.000    0.000    0.000    0.000    0.000 
#
# Total GULP energy -200709.398124 kJ/mol
# GULP energy per Si atom -5575.261059 kJ/mol
# Density = 1.978902 g / cm^3
# Si number density = 19.834161 Si / 1000 Ang^3
#
#
#
# Elastic Constant Matrix: (Units=GPa)
#
#
# Indices 1 2 3 4 5 6 
#
# 1 128.5790 74.2621 3.6552 0.0000 0.0000 0.0000
# 2 74.2621 88.9126 5.1061 0.0000 0.0000 0.0000
# 3 3.6552 5.1061 55.2303 0.0000 0.0000 0.0000
# 4 0.0000 0.0000 0.0000 7983.5929 0.0000 0.0000
# 5 0.0000 0.0000 0.0000 0.0000 -6.1791 0.0000
# 6 0.0000 0.0000 0.0000 0.0000 0.0000 12.8308
#
#
#
# Elastic Compliance Matrix: (Units=1/GPa)
#
#
# Indices 1 2 3 4 5 6 
#
# 1 0.015027 -0.012561 0.000167 0.000000 0.000000 0.000000
# 2 -0.012561 0.021806 -0.001185 0.000000 0.000000 0.000000
# 3 0.000167 -0.001185 0.018204 0.000000 0.000000 0.000000
# 4 0.000000 0.000000 0.000000 0.000125 0.000000 0.000000
# 5 0.000000 0.000000 0.000000 0.000000 -0.161837 0.000000
# 6 0.000000 0.000000 0.000000 0.000000 0.000000 0.077937
#
#
# Mechanical properties :
#
#
# Convention : Reuss Voigt Hill
#
# Bulk Modulus (GPa) = 35.86747 48.75207 42.30977
# Shear Modulus (GPa) = 648.18246 1610.69550 1129.43898
#
# Velocity S-wave (km/s) = 18.09725 28.52796 23.88886
# Velocity P-wave (km/s) = 21.32613 33.31305 27.96929
#
# Compressibility (1/GPa) = 0.02788041
#
# Stress axis : x y z
#
# Youngs Moduli (GPa) = 66.54666 45.85910 54.93150
#
# Poissons Ratio (x) = 0.57602 -0.00916
# Poissons Ratio (y) = 0.83586 0.06508
# Poissons Ratio (z) = -0.01109 0.05433
#
# Static dielectric constant tensor:
#      x y z
#    x 1.725830 0.000000 0.000000 
#    y 0.000000 1.689960 0.000000 
#    z 0.000000 0.000000 1.696620 
# 
# From -- ./inp_files/15971.got.cif
#   From: 2010.05.17/outbox.cif.g08.bks.cpg/sg65_8_cif.got.tgz:15971.got - 2010.06.03 17:01:31.
