data_PCOD9482564
_publ_section_title
;
Structure prediction by ZEFSAII (Michael W. Deem and Ramdas Pophale) SiO2 
 PCOD9482564
Probable space group: C M M M
;
_chemical_formula_sum "Si O2"
_cell_formula_units_Z 80
_cell_length_a 8.622765
_cell_length_b 29.442556
_cell_length_c 21.771421
_cell_angle_alpha 90.000000
_cell_angle_beta 90.000000
_cell_angle_gamma 90.000000
_cell_volume 5527.246533
_symmetry_space_group_name_H-M "C M M M"
_symmetry_group_IT_number 65
_symmetry_cell_setting 'orthorhombic'
loop_
_space_group_symop_operation_xyz
x,y,z
-x,-y,z
x,-y,-z
-x,y,-z
-x,-y,-z
x,y,-z
-x,y,z
x,-y,z
1/2+x,1/2+y,z
1/2-x,1/2-y,z
1/2+x,1/2-y,-z
1/2-x,1/2+y,-z
1/2-x,1/2-y,-z
1/2+x,1/2+y,-z
1/2-x,1/2+y,z
1/2+x,1/2-y,z
loop_
_atom_site_type_symbol
_atom_site_label
_atom_site_fract_x
_atom_site_fract_y
_atom_site_fract_z
Si Si1 0.687426 0.800973 0.000000
Si Si2 0.314176 0.801507 0.625777
Si Si3 0.687167 0.142666 0.879611
Si Si4 0.815598 0.801780 0.500000
Si Si5 0.313070 0.448752 0.928588
Si Si6 0.187151 0.698777 0.238586
O O1 0.750000 0.750000 0.000000
O O2 0.737807 0.828026 0.938996
O O3 0.500000 0.799492 0.000000
O O4 0.500000 0.800479 0.619996
O O5 0.250000 0.750000 0.627573
O O6 0.244352 0.822890 0.563898
O O7 0.271739 0.819808 0.693379
O O8 0.500000 0.142172 0.879497
O O9 0.745992 0.091654 0.888302
O O10 0.740304 0.167303 0.817366
O O11 0.750000 0.750000 0.500000
O O12 0.000000 0.799780 0.500000
O O13 0.500000 0.447089 0.926887
O O14 0.265402 0.500000 0.911047
O O15 0.265907 0.441612 0.000000
O O16 0.250000 0.750000 0.231696
O O17 0.000000 0.701513 0.236504
#
# Coordination Sequence:
#
# PCOD9482564 Si02
#       6
#     8  16  16   8  16  16
#     4  10  20  30  41  58  81 107 138 173 203 236
#     4   9  15  24  36  51  72 101 133 167 201 234
#     4  10  19  31  44  62  83 106 136 171 208 246
#     4  10  16  22  34  52  72  96 129 170 203 234
#     4   9  18  32  48  65  82 100 128 167 210 256
#     4   9  18  29  41  57  81 110 142 173 202 240
#
# _framework density 14.473753
#
# number of rings (size 3 to 8) (size 9 to 14) (size 15 to 20)
#    0.000    2.600    1.000    3.900    0.000    2.800 
#    0.000    1.000    0.000    0.000    0.000    0.000 
#    0.000    0.000    0.000    0.900    0.000   18.900 
#
# Total GULP energy -222757.818028 kJ/mol
# GULP energy per Si atom -5568.945451 kJ/mol
# Density = 1.444081 g / cm^3
# Si number density = 14.473753 Si / 1000 Ang^3
#
#
#
# Elastic Constant Matrix: (Units=GPa)
#
#
# Indices 1 2 3 4 5 6 
#
# 1 27.4680 14.4369 33.7221 0.0000 0.0000 0.0000
# 2 14.4369 78.4063 58.8403 0.0000 0.0000 0.0000
# 3 33.7221 58.8403 155.6133 0.0000 0.0000 0.0000
# 4 0.0000 0.0000 0.0000 3.4325 0.0000 0.0000
# 5 0.0000 0.0000 0.0000 0.0000 11.6233 0.0000
# 6 0.0000 0.0000 0.0000 0.0000 0.0000 19.9661
#
#
#
# Elastic Compliance Matrix: (Units=1/GPa)
#
#
# Indices 1 2 3 4 5 6 
#
# 1 0.049727 -0.001493 -0.010212 0.000000 0.000000 0.000000
# 2 -0.001493 0.017852 -0.006427 0.000000 0.000000 0.000000
# 3 -0.010212 -0.006427 0.011069 0.000000 0.000000 0.000000
# 4 0.000000 0.000000 0.000000 0.291333 0.000000 0.000000
# 5 0.000000 0.000000 0.000000 0.000000 0.086034 0.000000
# 6 0.000000 0.000000 0.000000 0.000000 0.000000 0.050085
#
#
# Mechanical properties :
#
#
# Convention : Reuss Voigt Hill
#
# Bulk Modulus (GPa) = 23.59270 52.83179 38.21225
# Shear Modulus (GPa) = 8.98487 17.30360 13.14423
#
# Velocity S-wave (km/s) = 2.49423 3.46137 3.01681
# Velocity P-wave (km/s) = 4.96292 7.24954 6.21235
#
# Compressibility (1/GPa) = 0.04238599
#
# Stress axis : x y z
#
# Youngs Moduli (GPa) = 20.10971 56.01663 90.34145
#
# Poissons Ratio (x) = 0.08362 0.92253
# Poissons Ratio (y) = 0.03002 0.58059
# Poissons Ratio (z) = 0.20535 0.36000
#
# Static dielectric constant tensor:
#      x y z
#    x 1.487920 0.000000 0.000000 
#    y 0.000000 1.439110 0.000000 
#    z 0.000000 0.000000 1.533550 
# 
# From -- ./inp_files/60584.got.cif
#   From: 2010.05.17/outbox.cif.g08.bks.cpg/sg65_31_cif.got.tgz:60584.got - 2010.06.03 17:01:31.
