data_PCOD9482397
_publ_section_title
;
Structure prediction by ZEFSAII (Michael W. Deem and Ramdas Pophale) SiO2 
 PCOD9482397
Probable space group: C M C A
;
_chemical_formula_sum "Si O2"
_cell_formula_units_Z 58
_cell_length_a 15.000000
_cell_length_b 18.000000
_cell_length_c 24.000000
_cell_angle_alpha 90.000000
_cell_angle_beta 90.000000
_cell_angle_gamma 90.000000
_cell_volume 6480.000000
_symmetry_space_group_name_H-M "C M C A"
_symmetry_group_IT_number 64
_symmetry_cell_setting 'orthorhombic'
loop_
_space_group_symop_operation_xyz
x,y,z
-x,1/2-y,1/2+z
x,-y,-z
-x,1/2+y,1/2-z
-x,-y,-z
x,1/2+y,1/2-z
-x,y,z
x,1/2-y,1/2+z
1/2+x,1/2+y,z
1/2-x,-y,1/2+z
1/2+x,1/2-y,-z
1/2-x,y,1/2-z
1/2-x,1/2-y,-z
1/2+x,y,1/2-z
1/2-x,1/2+y,z
1/2+x,-y,1/2+z
loop_
_atom_site_type_symbol
_atom_site_label
_atom_site_fract_x
_atom_site_fract_y
_atom_site_fract_z
Si Si1 0.000000 0.000000 0.000000
Si Si2 0.401558 0.355708 0.973344
Si Si3 0.782164 0.661744 0.368458
Si Si4 0.599918 0.226464 0.159429
Si Si5 0.787804 0.508827 0.666741
Si Si6 0.396354 0.379407 0.096440
Si Si7 0.892245 0.439809 0.222153
Si Si8 0.102764 0.261365 0.212943
O O1 0.923550 0.056375 0.026194
O O2 0.500000 0.320050 0.963654
O O3 0.330617 0.334279 0.927749
O O4 0.373607 0.342969 0.037173
O O5 0.678116 0.681515 0.369669
O O6 0.795148 0.578690 0.344683
O O7 0.829465 0.721926 0.328505
O O8 0.500000 0.198992 0.147148
O O9 0.602377 0.312672 0.140521
O O10 0.614167 0.226451 0.225757
O O11 0.828867 0.558131 0.616863
O O12 0.851971 0.531674 0.718863
O O13 0.683809 0.528373 0.679913
O O14 0.500000 0.409401 0.088621
O O15 0.884830 0.350166 0.218188
O O16 0.000000 0.457487 0.216480
O O17 0.000000 0.248142 0.195445
#
# Coordination Sequence:
#
# PCOD9482397 Si02
#       8
#     4  16  16  16  16  16  16  16
#     4   8  16  36  56  84 126 140 172 250 308 342
#     4   9  20  35  58  89 117 148 184 247 302 341
#     4  12  24  35  56  90 123 149 190 247 303 343
#     4  10  22  38  56  80 115 164 196 230 287 356
#     4  11  23  34  58  89 111 151 194 242 291 353
#     4  10  19  38  65  86 112 153 201 239 285 354
#     4  10  22  40  56  80 113 155 203 236 283 355
#     4  10  21  38  58  80 115 158 190 236 297 351
#
# _framework density 8.9506169999999994
#
# number of rings (size 3 to 8) (size 9 to 14) (size 15 to 20)
#    0.414    1.379    1.379    2.897    5.793    2.759 
#    0.000    0.000    0.000    0.828    0.000    2.414 
#    0.000    0.000    0.000    0.000    0.000    0.000 
#
# Total GULP energy -322961.358138 kJ/mol
# GULP energy per Si atom -5568.299278 kJ/mol
# Density = 0.893025 g / cm^3
# Si number density = 8.950617 Si / 1000 Ang^3
#
#
#
# Elastic Constant Matrix: (Units=GPa)
#
#
# Indices 1 2 3 4 5 6 
#
# 1 96.5707 11.7569 35.1605 0.0000 0.0000 0.0000
# 2 11.7569 40.8581 3.1704 0.0000 0.0000 0.0000
# 3 35.1605 3.1704 66.2027 0.0000 0.0000 0.0000
# 4 0.0000 0.0000 0.0000 16.9989 0.0000 0.0000
# 5 0.0000 0.0000 0.0000 0.0000 32.2693 0.0000
# 6 0.0000 0.0000 0.0000 0.0000 0.0000 31.7036
#
#
#
# Elastic Compliance Matrix: (Units=1/GPa)
#
#
# Indices 1 2 3 4 5 6 
#
# 1 0.013262 -0.003282 -0.006886 0.000000 0.000000 0.000000
# 2 -0.003282 0.025378 0.000528 0.000000 0.000000 0.000000
# 3 -0.006886 0.000528 0.018737 0.000000 0.000000 0.000000
# 4 0.000000 0.000000 0.000000 0.058827 0.000000 0.000000
# 5 0.000000 0.000000 0.000000 0.000000 0.030989 0.000000
# 6 0.000000 0.000000 0.000000 0.000000 0.000000 0.031542
#
#
# Mechanical properties :
#
#
# Convention : Reuss Voigt Hill
#
# Bulk Modulus (GPa) = 26.24908 33.75634 30.00271
# Shear Modulus (GPa) = 23.72866 26.43062 25.07964
#
# Velocity S-wave (km/s) = 3.64474 3.84665 3.74706
# Velocity P-wave (km/s) = 5.69274 6.21506 5.95962
#
# Compressibility (1/GPa) = 0.03809657
#
# Stress axis : x y z
#
# Youngs Moduli (GPa) = 75.40417 39.40365 53.36980
#
# Poissons Ratio (x) = 0.12931 0.36752
# Poissons Ratio (y) = 0.24746 -0.02816
# Poissons Ratio (z) = 0.51925 -0.02079
#
# Static dielectric constant tensor:
#      x y z
#    x 1.621670 0.000000 0.000000 
#    y 0.000000 1.505970 0.000000 
#    z 0.000000 0.000000 1.617010 
# 
# From -- ./inp_files/45439.got.cif
#   From: 2010.05.17/outbox.ucp.g08.bks.cvg/sg64_23_cif.got.tgz:45439.got - 2010.06.11 16:36:46.
