data_PCOD9482385
_publ_section_title
;
Structure prediction by ZEFSAII (Michael W. Deem and Ramdas Pophale) SiO2 
 PCOD9482385
Probable space group: C M C A
;
_chemical_formula_sum "Si O2"
_cell_formula_units_Z 48
_cell_length_a 9.000000
_cell_length_b 21.000000
_cell_length_c 27.000000
_cell_angle_alpha 90.000000
_cell_angle_beta 90.000000
_cell_angle_gamma 90.000000
_cell_volume 5103.000000
_symmetry_space_group_name_H-M "C M C A"
_symmetry_group_IT_number 64
_symmetry_cell_setting 'orthorhombic'
loop_
_space_group_symop_operation_xyz
x,y,z
-x,1/2-y,1/2+z
x,-y,-z
-x,1/2+y,1/2-z
-x,-y,-z
x,1/2+y,1/2-z
-x,y,z
x,1/2-y,1/2+z
1/2+x,1/2+y,z
1/2-x,-y,1/2+z
1/2+x,1/2-y,-z
1/2-x,y,1/2-z
1/2-x,1/2-y,-z
1/2+x,y,1/2-z
1/2-x,1/2+y,z
1/2+x,-y,1/2+z
loop_
_atom_site_type_symbol
_atom_site_label
_atom_site_fract_x
_atom_site_fract_y
_atom_site_fract_z
Si Si1 0.176018 0.519552 0.443717
Si Si2 0.675340 0.723235 0.951086
Si Si3 0.175958 0.175047 0.700069
Si Si4 0.326247 0.141675 0.096875
Si Si5 0.824441 0.397373 0.099025
Si Si6 0.322713 0.813463 0.800244
O O1 0.210285 0.500000 0.500000
O O2 0.231779 0.590697 0.432852
O O3 0.255295 0.466248 0.410425
O O4 0.000000 0.516220 0.436498
O O5 0.500000 0.712584 0.957146
O O6 0.696615 0.783738 0.915012
O O7 0.749973 0.657741 0.934299
O O8 0.750000 0.750000 0.000000
O O9 0.250000 0.149854 0.750000
O O10 0.199446 0.127985 0.654535
O O11 0.251007 0.243813 0.690766
O O12 0.000000 0.184709 0.706617
O O13 0.500000 0.128339 0.087416
O O14 0.293259 0.138635 0.154993
O O15 0.000000 0.399137 0.088780
O O16 0.500000 0.805388 0.796062
O O17 0.250000 0.837312 0.750000
#
# Coordination Sequence:
#
# PCOD9482385 Si02
#       6
#    16  16  16  16  16  16
#     4  11  25  42  61  85 115 155 199 245 296 351
#     4  11  22  37  58  86 118 151 193 245 296 346
#     4  10  20  34  57  88 119 153 192 237 291 347
#     4  10  22  39  59  84 117 155 193 238 291 348
#     4  11  23  39  60  87 118 155 197 241 293 352
#     4  10  19  34  57  87 119 153 191 236 292 347
#
# _framework density 9.4062319999999993
#
# number of rings (size 3 to 8) (size 9 to 14) (size 15 to 20)
#    0.000    1.500    1.667    4.500    0.000    8.667 
#    0.000    0.833    0.000    0.000    0.000    0.000 
#    0.000    0.000    0.000    0.000    0.000    0.000 
#
# Total GULP energy -267965.749336 kJ/mol
# GULP energy per Si atom -5582.619778 kJ/mol
# Density = 0.938482 g / cm^3
# Si number density = 9.406232 Si / 1000 Ang^3
#
#
#
# Elastic Constant Matrix: (Units=GPa)
#
#
# Indices 1 2 3 4 5 6 
#
# 1 32.2539 -7.3387 38.6464 0.0000 0.0000 0.0000
# 2 -7.3387 -0.8967 -22.0130 0.0000 0.0000 0.0000
# 3 38.6464 -22.0130 58.5051 0.0000 0.0000 0.0000
# 4 0.0000 0.0000 0.0000 -11.2070 0.0000 0.0000
# 5 0.0000 0.0000 0.0000 0.0000 68.4190 0.0000
# 6 0.0000 0.0000 0.0000 0.0000 0.0000 27.0985
#
#
#
# Elastic Compliance Matrix: (Units=1/GPa)
#
#
# Indices 1 2 3 4 5 6 
#
# 1 0.080798 0.063396 -0.029519 0.000000 0.000000 0.000000
# 2 0.063396 -0.059199 -0.064151 0.000000 0.000000 0.000000
# 3 -0.029519 -0.064151 0.012454 0.000000 0.000000 0.000000
# 4 0.000000 0.000000 0.000000 -0.089230 0.000000 0.000000
# 5 0.000000 0.000000 0.000000 0.000000 0.014616 0.000000
# 6 0.000000 0.000000 0.000000 0.000000 0.000000 0.036902
#
#
# Mechanical properties :
#
#
# Convention : Reuss Voigt Hill
#
# Bulk Modulus (GPa) = -37.74278 12.05017 -12.84631
# Shear Modulus (GPa) = 104.04202 22.23327 63.13765
#
# Velocity S-wave (km/s) = 7.44479 3.44152 5.79952
# Velocity P-wave (km/s) = 7.33442 4.71289 6.16462
#
# Compressibility (1/GPa) = -0.02649514
#
# Stress axis : x y z
#
# Youngs Moduli (GPa) = 12.37659 -16.89218 80.29481
#
# Poissons Ratio (x) = 1.07090 2.37020
# Poissons Ratio (y) = -0.78463 5.15101
# Poissons Ratio (z) = 0.36534 -1.08365
#
# Static dielectric constant tensor:
#      x y z
#    x 1.638280 0.000000 0.000000 
#    y 0.000000 1.624110 0.000000 
#    z 0.000000 0.000000 1.719440 
# 
# From -- ./inp_files/48022.got.cif
#   From: 2010.05.17/outbox.ucp.g08.bks.cvg/sg64_25_cif.got.tgz:48022.got - 2010.06.11 16:36:46.
