data_PCOD9482157
_publ_section_title
;
Structure prediction by ZEFSAII (Michael W. Deem and Ramdas Pophale) SiO2 
 PCOD9482157
Probable space group: C M C A
;
_chemical_formula_sum "Si O2"
_cell_formula_units_Z 80
_cell_length_a 13.599713
_cell_length_b 8.094051
_cell_length_c 27.842159
_cell_angle_alpha 90.000000
_cell_angle_beta 90.000000
_cell_angle_gamma 90.000000
_cell_volume 3064.774949
_symmetry_space_group_name_H-M "C M C A"
_symmetry_group_IT_number 64
_symmetry_cell_setting 'orthorhombic'
loop_
_space_group_symop_operation_xyz
x,y,z
-x,1/2-y,1/2+z
x,-y,-z
-x,1/2+y,1/2-z
-x,-y,-z
x,1/2+y,1/2-z
-x,y,z
x,1/2-y,1/2+z
1/2+x,1/2+y,z
1/2-x,-y,1/2+z
1/2+x,1/2-y,-z
1/2-x,y,1/2-z
1/2-x,1/2-y,-z
1/2+x,y,1/2-z
1/2-x,1/2+y,z
1/2+x,-y,1/2+z
loop_
_atom_site_type_symbol
_atom_site_label
_atom_site_fract_x
_atom_site_fract_y
_atom_site_fract_z
Si Si1 0.118291 0.865525 0.941663
Si Si2 0.383103 0.442465 0.146684
Si Si3 0.234008 0.142188 0.306536
Si Si4 0.616237 0.172723 0.029923
Si Si5 0.882321 0.531688 0.881900
O O1 0.137300 0.700992 0.910106
O O2 0.000000 0.876739 0.946128
O O3 0.145442 0.022795 0.909097
O O4 0.154742 0.818047 0.994918
O O5 0.500000 0.425184 0.149242
O O6 0.330025 0.295002 0.174376
O O7 0.250000 0.142769 0.250000
O O8 0.170010 0.994372 0.331144
O O9 0.342526 0.106536 0.327281
O O10 0.500000 0.207524 0.036883
O O11 0.653341 0.116023 0.082077
O O12 0.620645 0.000000 0.000000
O O13 0.000000 0.518154 0.876746
#
# Coordination Sequence:
#
# PCOD9482157 Si02
#       5
#    16  16  16  16  16
#     4   8  15  32  61  97 138 180 222 274 336 407
#     4  11  25  45  69  97 132 174 221 279 345 407
#     4  12  26  45  66  94 131 173 231 293 342 402
#     4   7  11  24  53  95 138 179 221 268 330 404
#     4   9  17  34  65 102 141 185 229 279 344 410
#
# _framework density 26.103059999999999
#
# number of rings (size 3 to 8) (size 9 to 14) (size 15 to 20)
#    0.000    2.600    0.000    4.800    0.000    1.600 
#    0.000    6.000    0.000    4.800    0.000    0.000 
#    0.000    0.000    0.000    0.000    0.000    0.000 
#
# Total GULP energy -223651.597986 kJ/mol
# GULP energy per Si atom -5591.289950 kJ/mol
# Density = 2.604365 g / cm^3
# Si number density = 26.103060 Si / 1000 Ang^3
#
#
#
# Elastic Constant Matrix: (Units=GPa)
#
#
# Indices 1 2 3 4 5 6 
#
# 1 151.3140 46.5580 59.5036 0.0000 0.0000 0.0000
# 2 46.5580 105.0878 38.6776 0.0000 0.0000 0.0000
# 3 59.5036 38.6776 214.2523 0.0000 0.0000 0.0000
# 4 0.0000 0.0000 0.0000 32.5376 0.0000 0.0000
# 5 0.0000 0.0000 0.0000 0.0000 44.5520 0.0000
# 6 0.0000 0.0000 0.0000 0.0000 0.0000 45.7799
#
#
#
# Elastic Compliance Matrix: (Units=1/GPa)
#
#
# Indices 1 2 3 4 5 6 
#
# 1 0.008216 -0.003000 -0.001740 0.000000 0.000000 0.000000
# 2 -0.003000 0.011288 -0.001205 0.000000 0.000000 0.000000
# 3 -0.001740 -0.001205 0.005368 0.000000 0.000000 0.000000
# 4 0.000000 0.000000 0.000000 0.030734 0.000000 0.000000
# 5 0.000000 0.000000 0.000000 0.000000 0.022446 0.000000
# 6 0.000000 0.000000 0.000000 0.000000 0.000000 0.021844
#
#
# Mechanical properties :
#
#
# Convention : Reuss Voigt Hill
#
# Bulk Modulus (GPa) = 77.02213 84.45914 80.74064
# Shear Modulus (GPa) = 43.06176 46.30159 44.68167
#
# Velocity S-wave (km/s) = 4.06603 4.21622 4.14181
# Velocity P-wave (km/s) = 7.18432 7.49188 7.33971
#
# Compressibility (1/GPa) = 0.01298328
#
# Stress axis : x y z
#
# Youngs Moduli (GPa) = 121.71252 88.58842 186.28161
#
# Poissons Ratio (x) = 0.26572 0.32419
# Poissons Ratio (y) = 0.36508 0.22442
# Poissons Ratio (z) = 0.21182 0.10673
#
# Static dielectric constant tensor:
#      x y z
#    x 2.049520 0.000000 0.000000 
#    y 0.000000 2.205050 0.000000 
#    z 0.000000 0.000000 2.036050 
# 
# From -- ./inp_files/52565.got.cif
#   From: 2010.05.17/outbox.cif.g08.bks.cpg/sg64_27_cif.got.tgz:52565.got - 2010.06.03 16:29:19.
