data_PCOD9482890
_publ_section_title
;
Structure prediction by ZEFSAII (Michael W. Deem and Ramdas Pophale) SiO2 
 PCOD9482890
Probable space group: C M M M
;
_chemical_formula_sum "Si O2"
_cell_formula_units_Z 112
_cell_length_a 14.991484
_cell_length_b 24.552006
_cell_length_c 14.917300
_cell_angle_alpha 90.000000
_cell_angle_beta 90.000000
_cell_angle_gamma 90.000000
_cell_volume 5490.625605
_symmetry_space_group_name_H-M "C M M M"
_symmetry_group_IT_number 65
_symmetry_cell_setting 'orthorhombic'
loop_
_space_group_symop_operation_xyz
x,y,z
-x,-y,z
x,-y,-z
-x,y,-z
-x,-y,-z
x,y,-z
-x,y,z
x,-y,z
1/2+x,1/2+y,z
1/2-x,1/2-y,z
1/2+x,1/2-y,-z
1/2-x,1/2+y,-z
1/2-x,1/2-y,-z
1/2+x,1/2+y,-z
1/2-x,1/2+y,z
1/2+x,1/2-y,z
loop_
_atom_site_type_symbol
_atom_site_label
_atom_site_fract_x
_atom_site_fract_y
_atom_site_fract_z
Si Si1 0.892173 0.379488 0.106025
Si Si2 0.218018 0.884399 0.392727
Si Si3 0.908065 0.662500 0.601067
Si Si4 0.264394 0.562829 0.212024
Si Si5 0.397729 0.244660 0.860834
Si Si6 0.148380 0.228547 0.340686
Si Si7 0.605368 0.362071 0.899928
O O1 0.830861 0.415324 0.172668
O O2 0.863698 0.316064 0.121739
O O3 0.000000 0.384299 0.121867
O O4 0.876816 0.392231 0.000000
O O5 0.214457 0.896508 0.500000
O O6 0.315615 0.860538 0.365843
O O7 0.213667 0.931272 0.318561
O O8 0.151365 0.833774 0.371980
O O9 0.912769 0.641757 0.500000
O O10 0.900129 0.727574 0.597909
O O11 0.000000 0.647793 0.650023
O O12 0.273072 0.500000 0.186370
O O13 0.336924 0.601782 0.165689
O O14 0.500000 0.241814 0.891815
O O15 0.392027 0.259642 0.756249
O O16 0.359093 0.299775 0.902195
O O17 0.250000 0.250000 0.337837
O O18 0.500000 0.360299 0.874863
O O19 0.611647 0.384685 0.000000
#
# Coordination Sequence:
#
# PCOD9482890 Si02
#       7
#    16  16  16  16  16  16  16
#     4  10  22  40  63  95 133 167 200 245 304 372
#     4  10  21  38  58  80 114 156 201 257 311 358
#     4   9  17  29  49  80 115 151 190 233 288 357
#     4  12  26  43  63  87 117 161 218 264 305 361
#     4  10  19  33  58  91 126 159 188 230 294 366
#     4  10  17  28  49  79 117 152 188 229 286 354
#     4  10  22  41  65  93 122 153 196 251 308 366
#
# _framework density 20.398405
#
# number of rings (size 3 to 8) (size 9 to 14) (size 15 to 20)
#    0.000    1.857    1.429    3.429    0.000    7.143 
#    0.000    2.857    0.000    1.286    0.000    4.000 
#    0.000    0.000    0.000    0.000    0.000    0.000 
#
# Total GULP energy -311833.879854 kJ/mol
# GULP energy per Si atom -5568.462140 kJ/mol
# Density = 2.035198 g / cm^3
# Si number density = 20.398405 Si / 1000 Ang^3
#
#
#
# Elastic Constant Matrix: (Units=GPa)
#
#
# Indices 1 2 3 4 5 6 
#
# 1 22.0642 -15.6291 -14.7110 0.0000 0.0000 0.0000
# 2 -15.6291 68.6536 1.8332 0.0000 0.0000 0.0000
# 3 -14.7110 1.8332 100.4116 0.0000 0.0000 0.0000
# 4 0.0000 0.0000 0.0000 70.9886 0.0000 0.0000
# 5 0.0000 0.0000 0.0000 0.0000 18.0924 0.0000
# 6 0.0000 0.0000 0.0000 0.0000 0.0000 16.6382
#
#
#
# Elastic Compliance Matrix: (Units=1/GPa)
#
#
# Indices 1 2 3 4 5 6 
#
# 1 0.060714 0.013591 0.008647 0.000000 0.000000 0.000000
# 2 0.013591 0.017615 0.001670 0.000000 0.000000 0.000000
# 3 0.008647 0.001670 0.011195 0.000000 0.000000 0.000000
# 4 0.000000 0.000000 0.000000 0.014087 0.000000 0.000000
# 5 0.000000 0.000000 0.000000 0.000000 0.055272 0.000000
# 6 0.000000 0.000000 0.000000 0.000000 0.000000 0.060103
#
#
# Mechanical properties :
#
#
# Convention : Reuss Voigt Hill
#
# Bulk Modulus (GPa) = 7.28121 14.90174 11.09147
# Shear Modulus (GPa) = 23.04661 35.78626 29.41644
#
# Velocity S-wave (km/s) = 3.36493 4.19306 3.80161
# Velocity P-wave (km/s) = 4.32137 5.54649 4.97181
#
# Compressibility (1/GPa) = 0.13733979
#
# Stress axis : x y z
#
# Youngs Moduli (GPa) = 16.47055 56.76887 89.32271
#
# Poissons Ratio (x) = -0.77154 -0.77237
# Poissons Ratio (y) = -0.22385 -0.14913
# Poissons Ratio (z) = -0.14242 -0.09478
#
# Static dielectric constant tensor:
#      x y z
#    x 1.815750 0.000000 0.000000 
#    y 0.000000 1.706870 0.000000 
#    z 0.000000 0.000000 1.820070 
# 
# From -- ./inp_files/40871.got.cif
#   From: 2010.05.17/outbox.cif.g08.bks.cpg/sg65_21_cif.got.tgz:40871.got - 2010.06.03 17:01:31.
