data_PCOD9482166
_publ_section_title
;
Structure prediction by ZEFSAII (Michael W. Deem and Ramdas Pophale) SiO2 
 PCOD9482166
Probable space group: C M C A
;
_chemical_formula_sum "Si O2"
_cell_formula_units_Z 72
_cell_length_a 15.918310
_cell_length_b 8.225734
_cell_length_c 25.022458
_cell_angle_alpha 90.000000
_cell_angle_beta 90.000000
_cell_angle_gamma 90.000000
_cell_volume 3276.435240
_symmetry_space_group_name_H-M "C M C A"
_symmetry_group_IT_number 64
_symmetry_cell_setting 'orthorhombic'
loop_
_space_group_symop_operation_xyz
x,y,z
-x,1/2-y,1/2+z
x,-y,-z
-x,1/2+y,1/2-z
-x,-y,-z
x,1/2+y,1/2-z
-x,y,z
x,1/2-y,1/2+z
1/2+x,1/2+y,z
1/2-x,-y,1/2+z
1/2+x,1/2-y,-z
1/2-x,y,1/2-z
1/2-x,1/2-y,-z
1/2+x,y,1/2-z
1/2-x,1/2+y,z
1/2+x,-y,1/2+z
loop_
_atom_site_type_symbol
_atom_site_label
_atom_site_fract_x
_atom_site_fract_y
_atom_site_fract_z
Si Si1 0.250000 0.724531 0.750000
Si Si2 0.261174 0.610214 0.041924
Si Si3 0.909149 0.640301 0.687563
Si Si4 0.353411 0.303586 0.849924
Si Si5 0.596757 0.954747 0.890115
O O1 0.165793 0.637790 0.729909
O O2 0.283008 0.809724 0.696428
O O3 0.310866 0.660695 0.093661
O O4 0.170787 0.548982 0.065193
O O5 0.311841 0.500000 0.000000
O O6 0.250000 0.750000 0.000000
O O7 0.909405 0.462039 0.661220
O O8 0.895360 0.789265 0.645648
O O9 0.000000 0.671410 0.713313
O O10 0.389862 0.120701 0.855441
O O11 0.500000 0.957599 0.910309
#
# Coordination Sequence:
#
# PCOD9482166 Si02
#       5
#     8  16  16  16  16
#     4  12  26  46  76 102 144 192 236 298 370 438
#     4  12  23  44  73 103 139 186 244 294 351 429
#     4  11  26  45  69 107 145 182 239 299 357 433
#     4  12  25  47  72 103 141 193 238 294 365 432
#     4  11  25  46  71 103 141 184 236 293 358 426
#
# _framework density 21.975103000000001
#
# number of rings (size 3 to 8) (size 9 to 14) (size 15 to 20)
#    0.000    0.444    4.444    4.000    3.111    2.222 
#    0.000    0.000    0.000    4.667    0.000    0.000 
#    0.000    0.000    0.000    0.000    0.000    0.000 
#
# Total GULP energy -200501.202529 kJ/mol
# GULP energy per Si atom -5569.477848 kJ/mol
# Density = 2.192509 g / cm^3
# Si number density = 21.975103 Si / 1000 Ang^3
#
#
#
# Elastic Constant Matrix: (Units=GPa)
#
#
# Indices 1 2 3 4 5 6 
#
# 1 141.0295 21.4088 48.6506 0.0000 0.0000 0.0000
# 2 21.4088 122.7700 34.1901 0.0000 0.0000 0.0000
# 3 48.6506 34.1901 135.6532 0.0000 0.0000 0.0000
# 4 0.0000 0.0000 0.0000 -76.2697 0.0000 0.0000
# 5 0.0000 0.0000 0.0000 0.0000 15.7273 0.0000
# 6 0.0000 0.0000 0.0000 0.0000 0.0000 8.9520
#
#
#
# Elastic Compliance Matrix: (Units=1/GPa)
#
#
# Indices 1 2 3 4 5 6 
#
# 1 0.008140 -0.000652 -0.002755 0.000000 0.000000 0.000000
# 2 -0.000652 0.008812 -0.001987 0.000000 0.000000 0.000000
# 3 -0.002755 -0.001987 0.008861 0.000000 0.000000 0.000000
# 4 0.000000 0.000000 0.000000 -0.013111 0.000000 0.000000
# 5 0.000000 0.000000 0.000000 0.000000 0.063584 0.000000
# 6 0.000000 0.000000 0.000000 0.000000 0.000000 0.111707
#
#
# Mechanical properties :
#
#
# Convention : Reuss Voigt Hill
#
# Bulk Modulus (GPa) = 66.55837 67.55016 67.05427
# Shear Modulus (GPa) = 24.53520 9.36216 16.94868
#
# Velocity S-wave (km/s) = 3.34503 2.06630 2.78018
# Velocity P-wave (km/s) = 6.72851 6.04143 6.39421
#
# Compressibility (1/GPa) = 0.01502441
#
# Stress axis : x y z
#
# Youngs Moduli (GPa) = 122.84854 113.47575 112.85890
#
# Poissons Ratio (x) = 0.07401 0.31092
# Poissons Ratio (y) = 0.08013 0.22427
# Poissons Ratio (z) = 0.33844 0.22550
#
# Static dielectric constant tensor:
#      x y z
#    x 1.789070 0.000000 0.000000 
#    y 0.000000 1.781370 0.000000 
#    z 0.000000 0.000000 1.629690 
# 
# From -- ./inp_files/45637.got.cif
#   From: 2010.05.17/outbox.cif.g08.bks.cpg/sg64_23_cif.got.tgz:45637.got - 2010.06.03 16:29:19.
