data_PCOD9482983
_publ_section_title
;
Structure prediction by ZEFSAII (Michael W. Deem and Ramdas Pophale) SiO2 
 PCOD9482983
Probable space group: C M M M
;
_chemical_formula_sum "Si O2"
_cell_formula_units_Z 104
_cell_length_a 27.987781
_cell_length_b 8.437841
_cell_length_c 24.770067
_cell_angle_alpha 90.000000
_cell_angle_beta 90.000000
_cell_angle_gamma 90.000000
_cell_volume 5849.610990
_symmetry_space_group_name_H-M "C M M M"
_symmetry_group_IT_number 65
_symmetry_cell_setting 'orthorhombic'
loop_
_space_group_symop_operation_xyz
x,y,z
-x,-y,z
x,-y,-z
-x,y,-z
-x,-y,-z
x,y,-z
-x,y,z
x,-y,z
1/2+x,1/2+y,z
1/2-x,1/2-y,z
1/2+x,1/2-y,-z
1/2-x,1/2+y,-z
1/2-x,1/2-y,-z
1/2+x,1/2+y,-z
1/2-x,1/2+y,z
1/2+x,1/2-y,z
loop_
_atom_site_type_symbol
_atom_site_label
_atom_site_fract_x
_atom_site_fract_y
_atom_site_fract_z
Si Si1 0.401902 0.308337 0.622504
Si Si2 0.553279 0.307089 0.267002
Si Si3 0.302212 0.811703 0.643956
Si Si4 0.000000 0.807260 0.437229
Si Si5 0.391782 0.691075 0.836812
Si Si6 0.698503 0.690280 0.767193
Si Si7 0.554332 0.809150 0.061590
O O1 0.400220 0.500000 0.619576
O O2 0.412914 0.258795 0.684242
O O3 0.348751 0.245790 0.610671
O O4 0.449449 0.256492 0.589594
O O5 0.500000 0.254172 0.279149
O O6 0.553705 0.500000 0.267028
O O7 0.569815 0.256110 0.208208
O O8 0.250000 0.750000 0.625582
O O9 0.308096 0.752353 0.706068
O O10 0.301004 0.000000 0.644235
O O11 0.000000 0.764545 0.500000
O O12 0.000000 0.000000 0.432470
O O13 0.391807 0.500000 0.838958
O O14 0.341859 0.741281 0.809728
O O15 0.407692 0.752491 0.894675
O O16 0.697192 0.500000 0.763815
O O17 0.750000 0.750000 0.785453
O O18 0.500000 0.755718 0.075513
O O19 0.553911 0.000000 0.061718
O O20 0.564303 0.757334 0.000000
#
# Coordination Sequence:
#
# PCOD9482983 Si02
#       7
#    16  16  16   8  16  16  16
#     4  10  17  31  53  76 110 146 176 217 261 306
#     4   9  15  25  43  69 100 136 165 194 248 305
#     4  11  21  33  51  76 107 141 181 221 266 322
#     4   9  18  32  57  89 113 145 190 223 256 310
#     4  10  19  30  48  72  99 128 167 207 247 305
#     4  10  19  32  49  72 103 135 168 205 255 311
#     4   9  19  35  51  68  95 130 165 203 253 305
#
# _framework density 17.778960000000001
#
# number of rings (size 3 to 8) (size 9 to 14) (size 15 to 20)
#    0.000    2.231    2.308    3.692    0.000    2.462 
#    0.000    1.154    0.000    1.846    0.000    0.000 
#    0.000    0.000    0.000    0.000    0.000    0.000 
#
# Total GULP energy -289776.217738 kJ/mol
# GULP energy per Si atom -5572.619572 kJ/mol
# Density = 1.773849 g / cm^3
# Si number density = 17.778960 Si / 1000 Ang^3
#
#
#
# Elastic Constant Matrix: (Units=GPa)
#
#
# Indices 1 2 3 4 5 6 
#
# 1 156.0610 28.4843 41.6007 0.0000 0.0000 0.0000
# 2 28.4843 35.8640 13.4318 0.0000 0.0000 0.0000
# 3 41.6007 13.4318 59.2628 0.0000 0.0000 0.0000
# 4 0.0000 0.0000 0.0000 8.9102 0.0000 0.0000
# 5 0.0000 0.0000 0.0000 0.0000 18.5642 0.0000
# 6 0.0000 0.0000 0.0000 0.0000 0.0000 19.8500
#
#
#
# Elastic Compliance Matrix: (Units=1/GPa)
#
#
# Indices 1 2 3 4 5 6 
#
# 1 0.008636 -0.005014 -0.004926 0.000000 0.000000 0.000000
# 2 -0.005014 0.033381 -0.004046 0.000000 0.000000 0.000000
# 3 -0.004926 -0.004046 0.021249 0.000000 0.000000 0.000000
# 4 0.000000 0.000000 0.000000 0.112231 0.000000 0.000000
# 5 0.000000 0.000000 0.000000 0.000000 0.053867 0.000000
# 6 0.000000 0.000000 0.000000 0.000000 0.000000 0.050378
#
#
# Mechanical properties :
#
#
# Convention : Reuss Voigt Hill
#
# Bulk Modulus (GPa) = 28.33354 46.46903 37.40129
# Shear Modulus (GPa) = 15.65054 20.64294 18.14674
#
# Velocity S-wave (km/s) = 2.97018 3.41117 3.19828
# Velocity P-wave (km/s) = 5.26629 6.45822 5.89247
#
# Compressibility (1/GPa) = 0.03529386
#
# Stress axis : x y z
#
# Youngs Moduli (GPa) = 115.79463 29.95740 47.06168
#
# Poissons Ratio (x) = 0.15021 0.23181
# Poissons Ratio (y) = 0.58061 0.19041
# Poissons Ratio (z) = 0.57038 0.12120
#
# Static dielectric constant tensor:
#      x y z
#    x 1.645210 0.000000 0.000000 
#    y 0.000000 1.616770 0.000000 
#    z 0.000000 0.000000 1.587130 
# 
# From -- ./inp_files/71861.got.cif
#   From: 2010.05.17/outbox.cif.g08.bks.cpg/sg65_36_cif.got.tgz:71861.got - 2010.06.03 17:01:31.
