data_PCOD9482133
_publ_section_title
;
Structure prediction by ZEFSAII (Michael W. Deem and Ramdas Pophale) SiO2 
 PCOD9482133
Probable space group: C M C A
;
_chemical_formula_sum "Si O2"
_cell_formula_units_Z 80
_cell_length_a 25.311709
_cell_length_b 18.114535
_cell_length_c 8.697584
_cell_angle_alpha 90.000000
_cell_angle_beta 90.000000
_cell_angle_gamma 90.000000
_cell_volume 3987.927836
_symmetry_space_group_name_H-M "C M C A"
_symmetry_group_IT_number 64
_symmetry_cell_setting 'orthorhombic'
loop_
_space_group_symop_operation_xyz
x,y,z
-x,1/2-y,1/2+z
x,-y,-z
-x,1/2+y,1/2-z
-x,-y,-z
x,1/2+y,1/2-z
-x,y,z
x,1/2-y,1/2+z
1/2+x,1/2+y,z
1/2-x,-y,1/2+z
1/2+x,1/2-y,-z
1/2-x,y,1/2-z
1/2-x,1/2-y,-z
1/2+x,y,1/2-z
1/2-x,1/2+y,z
1/2+x,-y,1/2+z
loop_
_atom_site_type_symbol
_atom_site_label
_atom_site_fract_x
_atom_site_fract_y
_atom_site_fract_z
Si Si1 0.355586 0.043182 0.157931
Si Si2 0.060576 0.049484 0.845746
Si Si3 0.673337 0.178153 0.011903
Si Si4 0.275445 0.077466 0.437328
Si Si5 0.147745 0.163352 0.847617
O O1 0.307966 0.056837 0.281607
O O2 0.402500 0.998062 0.233746
O O3 0.367779 0.125682 0.101283
O O4 0.344651 0.000000 0.000000
O O5 0.088955 0.129414 0.860517
O O6 0.000000 0.057198 0.795790
O O7 0.061116 0.000000 0.000000
O O8 0.665268 0.170616 0.829607
O O9 0.730948 0.142710 0.056137
O O10 0.662064 0.260199 0.068788
O O11 0.317987 0.103223 0.562383
O O12 0.255062 0.000000 0.500000
#
# Coordination Sequence:
#
# PCOD9482133 Si02
#       5
#    16  16  16  16  16
#     4  12  22  44  70 106 139 181 236 287 338 420
#     4  11  24  48  79 101 129 179 236 298 356 400
#     4  12  27  39  69  98 145 186 229 274 356 413
#     4  12  23  42  67 101 142 193 225 276 337 417
#     4  12  24  48  64 102 145 184 232 292 338 421
#
# _framework density 20.060544
#
# number of rings (size 3 to 8) (size 9 to 14) (size 15 to 20)
#    0.000    0.200    6.000    3.600    0.000    3.600 
#    0.000    2.000    0.000    0.000    0.000    0.000 
#    0.000    0.000    0.000    0.000    0.000    0.000 
#
# Total GULP energy -223108.176637 kJ/mol
# GULP energy per Si atom -5577.704416 kJ/mol
# Density = 2.001489 g / cm^3
# Si number density = 20.060544 Si / 1000 Ang^3
#
#
#
# Elastic Constant Matrix: (Units=GPa)
#
#
# Indices 1 2 3 4 5 6 
#
# 1 162.1850 61.9513 66.0831 0.0000 0.0000 0.0000
# 2 61.9513 124.8122 46.8394 0.0000 0.0000 0.0000
# 3 66.0831 46.8394 154.7662 0.0000 0.0000 0.0000
# 4 0.0000 0.0000 0.0000 44.9884 0.0000 0.0000
# 5 0.0000 0.0000 0.0000 0.0000 18.2093 0.0000
# 6 0.0000 0.0000 0.0000 0.0000 0.0000 58.6071
#
#
#
# Elastic Compliance Matrix: (Units=1/GPa)
#
#
# Indices 1 2 3 4 5 6 
#
# 1 0.008470 -0.003212 -0.002645 0.000000 0.000000 0.000000
# 2 -0.003212 0.010256 -0.001733 0.000000 0.000000 0.000000
# 3 -0.002645 -0.001733 0.008115 0.000000 0.000000 0.000000
# 4 0.000000 0.000000 0.000000 0.022228 0.000000 0.000000
# 5 0.000000 0.000000 0.000000 0.000000 0.054917 0.000000
# 6 0.000000 0.000000 0.000000 0.000000 0.000000 0.017063
#
#
# Mechanical properties :
#
#
# Convention : Reuss Voigt Hill
#
# Bulk Modulus (GPa) = 85.73795 87.94567 86.84181
# Shear Modulus (GPa) = 35.68485 42.15360 38.91922
#
# Velocity S-wave (km/s) = 4.22223 4.58899 4.40942
# Velocity P-wave (km/s) = 8.16100 8.48609 8.32513
#
# Compressibility (1/GPa) = 0.01166345
#
# Stress axis : x y z
#
# Youngs Moduli (GPa) = 118.06111 97.49958 123.22889
#
# Poissons Ratio (x) = 0.31314 0.32590
# Poissons Ratio (y) = 0.37918 0.21352
# Poissons Ratio (z) = 0.31223 0.16894
#
# Static dielectric constant tensor:
#      x y z
#    x 1.729040 0.000000 0.000000 
#    y 0.000000 1.800700 0.000000 
#    z 0.000000 0.000000 1.787270 
# 
# From -- ./inp_files/10222.got.cif
#   From: 2010.05.17/outbox.cif.g08.bks.cpg/sg64_6_cif.got.tgz:10222.got - 2010.06.03 16:29:19.
