data_PCOD9482901
_publ_section_title
;
Structure prediction by ZEFSAII (Michael W. Deem and Ramdas Pophale) SiO2 
 PCOD9482901
Probable space group: C M M M
;
_chemical_formula_sum "Si O2"
_cell_formula_units_Z 80
_cell_length_a 25.693260
_cell_length_b 18.521668
_cell_length_c 12.228009
_cell_angle_alpha 90.000000
_cell_angle_beta 90.000000
_cell_angle_gamma 90.000000
_cell_volume 5819.089765
_symmetry_space_group_name_H-M "C M M M"
_symmetry_group_IT_number 65
_symmetry_cell_setting 'orthorhombic'
loop_
_space_group_symop_operation_xyz
x,y,z
-x,-y,z
x,-y,-z
-x,y,-z
-x,-y,-z
x,y,-z
-x,y,z
x,-y,z
1/2+x,1/2+y,z
1/2-x,1/2-y,z
1/2+x,1/2-y,-z
1/2-x,1/2+y,-z
1/2-x,1/2-y,-z
1/2+x,1/2+y,-z
1/2-x,1/2+y,z
1/2+x,1/2-y,z
loop_
_atom_site_type_symbol
_atom_site_label
_atom_site_fract_x
_atom_site_fract_y
_atom_site_fract_z
Si Si1 0.725769 0.864115 0.000000
Si Si2 0.803805 0.704166 0.375055
Si Si3 0.248292 0.583619 0.236491
Si Si4 0.336066 0.278809 0.000000
Si Si5 0.143916 0.174024 0.763047
Si Si6 0.561674 0.414441 0.627172
O O1 0.727562 0.908161 0.887686
O O2 0.679436 0.805515 0.000000
O O3 0.779955 0.819057 0.000000
O O4 0.820782 0.693834 0.500000
O O5 0.750000 0.750000 0.376883
O O6 0.789283 0.630057 0.314629
O O7 0.842426 0.753939 0.305237
O O8 0.252149 0.500000 0.266881
O O9 0.304937 0.622230 0.241546
O O10 0.363720 0.303170 0.888870
O O11 0.096546 0.132203 0.707878
O O12 0.574953 0.398495 0.500000
O O13 0.500000 0.401729 0.641097
O O14 0.570850 0.500000 0.644196
#
# Coordination Sequence:
#
# PCOD9482901 Si02
#       6
#     8  16  16   8  16  16
#     4   9  15  28  40  58  82 115 148 177 207 249
#     4   9  17  27  39  57  82 112 145 178 214 255
#     4  10  18  26  40  61  87 116 146 179 212 253
#     4   9  16  26  45  61  80 111 147 182 212 248
#     4  10  17  29  45  62  83 114 152 180 213 254
#     4   9  18  32  48  65  86 113 146 184 221 255
#
# _framework density 13.747854
#
# number of rings (size 3 to 8) (size 9 to 14) (size 15 to 20)
#    0.000    2.600    2.000    2.100    0.000    1.200 
#    0.000    2.000    0.000    1.200    0.000    0.000 
#    0.000    0.800    0.000    6.000    0.000    0.000 
#
# Total GULP energy -222788.779576 kJ/mol
# GULP energy per Si atom -5569.719489 kJ/mol
# Density = 1.371656 g / cm^3
# Si number density = 13.747854 Si / 1000 Ang^3
#
#
#
# Elastic Constant Matrix: (Units=GPa)
#
#
# Indices 1 2 3 4 5 6 
#
# 1 40.1730 22.0045 39.5526 0.0000 0.0000 0.0000
# 2 22.0045 83.9165 45.1334 0.0000 0.0000 0.0000
# 3 39.5526 45.1334 124.1951 0.0000 0.0000 0.0000
# 4 0.0000 0.0000 0.0000 21.4293 0.0000 0.0000
# 5 0.0000 0.0000 0.0000 0.0000 19.7580 0.0000
# 6 0.0000 0.0000 0.0000 0.0000 0.0000 24.1746
#
#
#
# Elastic Compliance Matrix: (Units=1/GPa)
#
#
# Indices 1 2 3 4 5 6 
#
# 1 0.037433 -0.004231 -0.010384 0.000000 0.000000 0.000000
# 2 -0.004231 0.015290 -0.004209 0.000000 0.000000 0.000000
# 3 -0.010384 -0.004209 0.012888 0.000000 0.000000 0.000000
# 4 0.000000 0.000000 0.000000 0.046665 0.000000 0.000000
# 5 0.000000 0.000000 0.000000 0.000000 0.050612 0.000000
# 6 0.000000 0.000000 0.000000 0.000000 0.000000 0.041366
#
#
# Mechanical properties :
#
#
# Convention : Reuss Voigt Hill
#
# Bulk Modulus (GPa) = 35.76038 51.29617 43.52827
# Shear Modulus (GPa) = 19.90259 22.51199 21.20729
#
# Velocity S-wave (km/s) = 3.80898 4.05098 3.93184
# Velocity P-wave (km/s) = 6.73888 7.69894 7.23485
#
# Compressibility (1/GPa) = 0.02796391
#
# Stress axis : x y z
#
# Youngs Moduli (GPa) = 26.71421 65.40316 77.58918
#
# Poissons Ratio (x) = 0.27671 0.80568
# Poissons Ratio (y) = 0.11302 0.32657
# Poissons Ratio (z) = 0.27740 0.27528
#
# Static dielectric constant tensor:
#      x y z
#    x 1.417730 0.000000 0.000000 
#    y 0.000000 1.441590 0.000000 
#    z 0.000000 0.000000 1.466620 
# 
# From -- ./inp_files/27039.got.cif
#   From: 2010.05.17/outbox.cif.g08.bks.cpg/sg65_14_cif.got.tgz:27039.got - 2010.06.03 17:01:31.
