data_PCOD9482675
_publ_section_title
;
Structure prediction by ZEFSAII (Michael W. Deem and Ramdas Pophale) SiO2 
 PCOD9482675
Probable space group: C M M M
;
_chemical_formula_sum "Si O2"
_cell_formula_units_Z 88
_cell_length_a 8.176122
_cell_length_b 24.510832
_cell_length_c 23.444539
_cell_angle_alpha 90.000000
_cell_angle_beta 90.000000
_cell_angle_gamma 90.000000
_cell_volume 4698.368908
_symmetry_space_group_name_H-M "C M M M"
_symmetry_group_IT_number 65
_symmetry_cell_setting 'orthorhombic'
loop_
_space_group_symop_operation_xyz
x,y,z
-x,-y,z
x,-y,-z
-x,y,-z
-x,-y,-z
x,y,-z
-x,y,z
x,-y,z
1/2+x,1/2+y,z
1/2-x,1/2-y,z
1/2+x,1/2-y,-z
1/2-x,1/2+y,-z
1/2-x,1/2-y,-z
1/2+x,1/2+y,-z
1/2-x,1/2+y,z
1/2+x,1/2-y,z
loop_
_atom_site_type_symbol
_atom_site_label
_atom_site_fract_x
_atom_site_fract_y
_atom_site_fract_z
Si Si1 0.693644 0.000000 0.306680
Si Si2 0.303937 0.187340 0.063828
Si Si3 0.299135 0.064362 0.500000
Si Si4 0.304949 0.187642 0.717322
Si Si5 0.194299 0.880372 0.172109
Si Si6 0.697012 0.108676 0.379456
Si Si7 0.311675 0.500000 0.182257
O O1 0.724644 0.053660 0.343507
O O2 0.500000 0.000000 0.290792
O O3 0.801656 0.000000 0.250645
O O4 0.500000 0.184762 0.067064
O O5 0.250000 0.250000 0.070177
O O6 0.230764 0.152863 0.115069
O O7 0.253001 0.169363 0.000000
O O8 0.500000 0.063689 0.500000
O O9 0.243036 0.095879 0.556862
O O10 0.251370 0.000000 0.500000
O O11 0.500000 0.187517 0.713921
O O12 0.250000 0.250000 0.723558
O O13 0.259412 0.151435 0.772445
O O14 0.239917 0.158379 0.659557
O O15 0.000000 0.884899 0.180304
O O16 0.263747 0.941764 0.165709
O O17 0.500000 0.115481 0.384231
O O18 0.500000 0.500000 0.162071
#
# Coordination Sequence:
#
# PCOD9482675 Si02
#       7
#     8  16   8  16  16  16   8
#     4  10  16  29  52  79 105 134 173 221 269 316
#     4  10  21  38  60  85 112 144 182 223 266 311
#     4   9  14  24  45  76 108 132 164 217 272 319
#     4  11  22  36  53  76 106 141 181 224 270 318
#     4  11  22  37  57  82 111 143 179 219 266 318
#     4   9  17  28  48  77 107 135 170 219 272 320
#     4  10  22  36  52  80 113 145 175 212 267 324
#
# _framework density 18.729904999999999
#
# number of rings (size 3 to 8) (size 9 to 14) (size 15 to 20)
#    0.000    1.909    2.727    2.182    0.000    1.818 
#    0.000    0.909    0.000    2.727    0.000    5.727 
#    0.000    0.000    0.000    0.000    0.000    0.000 
#
# Total GULP energy -245462.032371 kJ/mol
# GULP energy per Si atom -5578.682554 kJ/mol
# Density = 1.868727 g / cm^3
# Si number density = 18.729905 Si / 1000 Ang^3
#
#
#
# Elastic Constant Matrix: (Units=GPa)
#
#
# Indices 1 2 3 4 5 6 
#
# 1 21.6933 14.1476 4.7897 0.0000 0.0000 0.0000
# 2 14.1476 140.8678 72.8400 0.0000 0.0000 0.0000
# 3 4.7897 72.8400 128.3774 0.0000 0.0000 0.0000
# 4 0.0000 0.0000 0.0000 16.0954 0.0000 0.0000
# 5 0.0000 0.0000 0.0000 0.0000 6.1838 0.0000
# 6 0.0000 0.0000 0.0000 0.0000 0.0000 1.3238
#
#
#
# Elastic Compliance Matrix: (Units=1/GPa)
#
#
# Indices 1 2 3 4 5 6 
#
# 1 0.049500 -0.005684 0.001378 0.000000 0.000000 0.000000
# 2 -0.005684 0.010699 -0.005858 0.000000 0.000000 0.000000
# 3 0.001378 -0.005858 0.011062 0.000000 0.000000 0.000000
# 4 0.000000 0.000000 0.000000 0.062130 0.000000 0.000000
# 5 0.000000 0.000000 0.000000 0.000000 0.161714 0.000000
# 6 0.000000 0.000000 0.000000 0.000000 0.000000 0.755386
#
#
# Mechanical properties :
#
#
# Convention : Reuss Voigt Hill
#
# Bulk Modulus (GPa) = 19.63383 52.72146 36.17765
# Shear Modulus (GPa) = 4.59645 17.99800 11.29723
#
# Velocity S-wave (km/s) = 1.56825 3.10324 2.45861
# Velocity P-wave (km/s) = 3.71276 6.40699 5.23613
#
# Compressibility (1/GPa) = 0.05093250
#
# Stress axis : x y z
#
# Youngs Moduli (GPa) = 20.20210 93.46676 90.39854
#
# Poissons Ratio (x) = 0.53126 -0.12459
# Poissons Ratio (y) = 0.11483 0.52959
# Poissons Ratio (z) = -0.02784 0.54757
#
# Static dielectric constant tensor:
#      x y z
#    x 1.652310 0.000000 0.000000 
#    y 0.000000 1.660780 0.000000 
#    z 0.000000 0.000000 1.635610 
# 
# From -- ./inp_files/59928.got.cif
#   From: 2010.05.17/outbox.cif.g08.bks.cpg/sg65_30_cif.got.tgz:59928.got - 2010.06.03 17:01:31.
