data_PCOD9482406
_publ_section_title
;
Structure prediction by ZEFSAII (Michael W. Deem and Ramdas Pophale) SiO2 
 PCOD9482406
Probable space group: C M C A
;
_chemical_formula_sum "Si O2"
_cell_formula_units_Z 40
_cell_length_a 9.000000
_cell_length_b 27.000000
_cell_length_c 18.000000
_cell_angle_alpha 90.000000
_cell_angle_beta 90.000000
_cell_angle_gamma 90.000000
_cell_volume 4374.000000
_symmetry_space_group_name_H-M "C M C A"
_symmetry_group_IT_number 64
_symmetry_cell_setting 'orthorhombic'
loop_
_space_group_symop_operation_xyz
x,y,z
-x,1/2-y,1/2+z
x,-y,-z
-x,1/2+y,1/2-z
-x,-y,-z
x,1/2+y,1/2-z
-x,y,z
x,1/2-y,1/2+z
1/2+x,1/2+y,z
1/2-x,-y,1/2+z
1/2+x,1/2-y,-z
1/2-x,y,1/2-z
1/2-x,1/2-y,-z
1/2+x,y,1/2-z
1/2-x,1/2+y,z
1/2+x,-y,1/2+z
loop_
_atom_site_type_symbol
_atom_site_label
_atom_site_fract_x
_atom_site_fract_y
_atom_site_fract_z
Si Si1 0.179373 0.594624 0.578849
Si Si2 0.321739 0.315410 0.331687
Si Si3 0.820810 0.496874 0.670595
Si Si4 0.819422 0.896273 0.908143
Si Si5 0.321041 0.795342 0.668731
O O1 0.254966 0.640491 0.620092
O O2 0.217891 0.542090 0.616019
O O3 0.223829 0.595352 0.492987
O O4 0.000000 0.600049 0.583600
O O5 0.500000 0.319884 0.326537
O O6 0.250000 0.318671 0.250000
O O7 0.285742 0.259826 0.361118
O O8 0.750000 0.506690 0.750000
O O9 0.770374 0.443282 0.640449
O O10 0.000000 0.495810 0.676417
O O11 0.770315 0.842694 0.878509
O O12 0.000000 0.896303 0.905966
O O13 0.500000 0.797743 0.675400
O O14 0.250000 0.799189 0.750000
#
# Coordination Sequence:
#
# PCOD9482406 Si02
#       5
#    16  16  16  16  16
#     4  10  20  34  53  76 103 135 168 204 249 300
#     4  10  20  34  52  75 102 133 170 209 249 295
#     4  10  20  34  54  77 100 130 169 209 249 298
#     4   9  18  34  54  75 101 133 168 206 251 302
#     4   9  18  33  53  75 100 132 170 210 250 295
#
# _framework density 9.1449470000000002
#
# number of rings (size 3 to 8) (size 9 to 14) (size 15 to 20)
#    0.000    2.400    0.000    2.400    0.000    6.400 
#    0.000    2.000    0.000    2.400    0.000    0.000 
#    0.000    0.000    0.000    0.000    0.000    0.000 
#
# Total GULP energy -223129.348698 kJ/mol
# GULP energy per Si atom -5578.233717 kJ/mol
# Density = 0.912413 g / cm^3
# Si number density = 9.144947 Si / 1000 Ang^3
#
#
#
# Elastic Constant Matrix: (Units=GPa)
#
#
# Indices 1 2 3 4 5 6 
#
# 1 7.9083 9.4857 -1.1178 0.0000 0.0000 0.0000
# 2 9.4857 62.0024 -13.0733 0.0000 0.0000 0.0000
# 3 -1.1178 -13.0733 20.9688 0.0000 0.0000 0.0000
# 4 0.0000 0.0000 0.0000 -72.6159 0.0000 0.0000
# 5 0.0000 0.0000 0.0000 0.0000 22.3872 0.0000
# 6 0.0000 0.0000 0.0000 0.0000 0.0000 23.9093
#
#
#
# Elastic Compliance Matrix: (Units=1/GPa)
#
#
# Indices 1 2 3 4 5 6 
#
# 1 0.155901 -0.025444 -0.007553 0.000000 0.000000 0.000000
# 2 -0.025444 0.022722 0.012810 0.000000 0.000000 0.000000
# 3 -0.007553 0.012810 0.055274 0.000000 0.000000 0.000000
# 4 0.000000 0.000000 0.000000 -0.013771 0.000000 0.000000
# 5 0.000000 0.000000 0.000000 0.000000 0.044668 0.000000
# 6 0.000000 0.000000 0.000000 0.000000 0.000000 0.041825
#
#
# Mechanical properties :
#
#
# Convention : Reuss Voigt Hill
#
# Bulk Modulus (GPa) = 5.16730 9.05208 7.10969
# Shear Modulus (GPa) = 12.15068 1.10844 6.62956
#
# Velocity S-wave (km/s) = 2.58027 0.77933 1.90593
# Velocity P-wave (km/s) = 3.42176 2.40204 2.95620
#
# Compressibility (1/GPa) = 0.19352474
#
# Stress axis : x y z
#
# Youngs Moduli (GPa) = 6.41432 44.01027 18.09174
#
# Poissons Ratio (x) = 1.11978 0.13664
# Poissons Ratio (y) = 0.16320 -0.23176
# Poissons Ratio (z) = 0.04844 -0.56377
#
# Static dielectric constant tensor:
#      x y z
#    x 1.617740 0.000000 0.000000 
#    y 0.000000 1.636660 0.000000 
#    z 0.000000 0.000000 1.604070 
# 
# From -- ./inp_files/22345.got.cif
#   From: 2010.05.17/outbox.ucp.g08.bks.cvg/sg64_12_cif.got.tgz:22345.got - 2010.06.11 16:36:46.
