data_PCOD9482740
_publ_section_title
;
Structure prediction by ZEFSAII (Michael W. Deem and Ramdas Pophale) SiO2 
 PCOD9482740
Probable space group: C M M M
;
_chemical_formula_sum "Si O2"
_cell_formula_units_Z 96
_cell_length_a 30.823639
_cell_length_b 34.151788
_cell_length_c 8.034746
_cell_angle_alpha 90.000000
_cell_angle_beta 90.000000
_cell_angle_gamma 90.000000
_cell_volume 8458.035578
_symmetry_space_group_name_H-M "C M M M"
_symmetry_group_IT_number 65
_symmetry_cell_setting 'orthorhombic'
loop_
_space_group_symop_operation_xyz
x,y,z
-x,-y,z
x,-y,-z
-x,y,-z
-x,-y,-z
x,y,-z
-x,y,z
x,-y,z
1/2+x,1/2+y,z
1/2-x,1/2-y,z
1/2+x,1/2-y,-z
1/2-x,1/2+y,-z
1/2-x,1/2-y,-z
1/2+x,1/2+y,-z
1/2-x,1/2+y,z
1/2+x,1/2-y,z
loop_
_atom_site_type_symbol
_atom_site_label
_atom_site_fract_x
_atom_site_fract_y
_atom_site_fract_z
Si Si1 0.396171 0.618552 0.196498
Si Si2 0.049847 0.805017 0.201658
Si Si3 0.814185 0.840072 0.316091
Si Si4 0.265873 0.685777 0.000000
Si Si5 0.130894 0.758750 0.313927
Si Si6 0.049717 0.044791 0.701204
Si Si7 0.820142 0.267847 0.000000
O O1 0.430076 0.652660 0.248531
O O2 0.350741 0.627069 0.285924
O O3 0.417543 0.576886 0.230635
O O4 0.388457 0.623829 0.000000
O O5 0.082032 0.772524 0.274853
O O6 0.000000 0.801662 0.254040
O O7 0.051592 0.802438 0.000000
O O8 0.794773 0.843827 0.500000
O O9 0.780572 0.837162 0.165192
O O10 0.841240 0.799201 0.311477
O O11 0.215947 0.698523 0.000000
O O12 0.293471 0.726562 0.000000
O O13 0.134480 0.742164 0.500000
O O14 0.150538 0.733004 0.165510
O O15 0.050774 0.046218 0.500000
O O16 0.000000 0.053633 0.753124
O O17 0.059398 0.000000 0.751243
#
# Coordination Sequence:
#
# PCOD9482740 Si02
#       7
#    16  16  16   8  16  16   8
#     4  10  17  26  39  53  67  83 106 134 166 201
#     4   9  16  25  36  49  66  86 107 135 166 192
#     4   9  16  26  38  52  68  83 102 128 155 188
#     4   9  16  26  38  52  65  83 102 122 151 187
#     4   9  16  25  36  49  65  86 107 126 154 188
#     4   9  18  30  39  48  65  87 110 136 165 199
#     4   9  16  26  37  48  68  84  99 126 152 181
#
# _framework density 11.350153000000001
#
# number of rings (size 3 to 8) (size 9 to 14) (size 15 to 20)
#    0.000    2.833    1.667    1.500    0.000    3.000 
#    0.000    4.167    0.000    0.000    0.000    0.000 
#    0.000    0.000    0.000    0.000    0.000    0.000 
#
# Total GULP energy -267314.836694 kJ/mol
# GULP energy per Si atom -5569.059098 kJ/mol
# Density = 1.132432 g / cm^3
# Si number density = 11.350153 Si / 1000 Ang^3
#
#
#
# Elastic Constant Matrix: (Units=GPa)
#
#
# Indices 1 2 3 4 5 6 
#
# 1 55.2484 29.3498 35.9343 0.0000 0.0000 0.0000
# 2 29.3498 27.5925 22.4670 0.0000 0.0000 0.0000
# 3 35.9343 22.4670 71.3898 0.0000 0.0000 0.0000
# 4 0.0000 0.0000 0.0000 8.9543 0.0000 0.0000
# 5 0.0000 0.0000 0.0000 0.0000 6.7768 0.0000
# 6 0.0000 0.0000 0.0000 0.0000 0.0000 17.1773
#
#
#
# Elastic Compliance Matrix: (Units=1/GPa)
#
#
# Indices 1 2 3 4 5 6 
#
# 1 0.046946 -0.041271 -0.010642 0.000000 0.000000 0.000000
# 2 -0.041271 0.085009 -0.005979 0.000000 0.000000 0.000000
# 3 -0.010642 -0.005979 0.021246 0.000000 0.000000 0.000000
# 4 0.000000 0.000000 0.000000 0.111678 0.000000 0.000000
# 5 0.000000 0.000000 0.000000 0.000000 0.147562 0.000000
# 6 0.000000 0.000000 0.000000 0.000000 0.000000 0.058216
#
#
# Mechanical properties :
#
#
# Convention : Reuss Voigt Hill
#
# Bulk Modulus (GPa) = 26.72581 36.63699 31.68140
# Shear Modulus (GPa) = 8.34842 11.01366 9.68104
#
# Velocity S-wave (km/s) = 2.71501 3.11843 2.92369
# Velocity P-wave (km/s) = 5.78154 6.73165 6.27460
#
# Compressibility (1/GPa) = 0.03741702
#
# Stress axis : x y z
#
# Youngs Moduli (GPa) = 21.30092 11.76342 47.06710
#
# Poissons Ratio (x) = 0.48548 0.50091
# Poissons Ratio (y) = 0.87910 0.28143
# Poissons Ratio (z) = 0.22669 0.07034
#
# Static dielectric constant tensor:
#      x y z
#    x 1.354640 0.000000 0.000000 
#    y 0.000000 1.335700 0.000000 
#    z 0.000000 0.000000 1.405590 
# 
# From -- ./inp_files/19176.got.cif
#   From: 2010.05.17/outbox.cif.g08.bks.cpg/sg65_10_cif.got.tgz:19176.got - 2010.06.03 17:01:31.
