data_PCOD9482461
_publ_section_title
;
Structure prediction by ZEFSAII (Michael W. Deem and Ramdas Pophale) SiO2 
 PCOD9482461
Probable space group: C M C A
;
_chemical_formula_sum "Si O2"
_cell_formula_units_Z 48
_cell_length_a 9.000000
_cell_length_b 24.000000
_cell_length_c 24.000000
_cell_angle_alpha 90.000000
_cell_angle_beta 90.000000
_cell_angle_gamma 90.000000
_cell_volume 5184.000000
_symmetry_space_group_name_H-M "C M C A"
_symmetry_group_IT_number 64
_symmetry_cell_setting 'orthorhombic'
loop_
_space_group_symop_operation_xyz
x,y,z
-x,1/2-y,1/2+z
x,-y,-z
-x,1/2+y,1/2-z
-x,-y,-z
x,1/2+y,1/2-z
-x,y,z
x,1/2-y,1/2+z
1/2+x,1/2+y,z
1/2-x,-y,1/2+z
1/2+x,1/2-y,-z
1/2-x,y,1/2-z
1/2-x,1/2-y,-z
1/2+x,y,1/2-z
1/2-x,1/2+y,z
1/2+x,-y,1/2+z
loop_
_atom_site_type_symbol
_atom_site_label
_atom_site_fract_x
_atom_site_fract_y
_atom_site_fract_z
Si Si1 0.668938 0.328683 0.384636
Si Si2 0.324977 0.065782 0.646796
Si Si3 0.678722 0.103222 0.084070
Si Si4 0.822871 0.231284 0.441953
Si Si5 0.177525 0.051163 0.193141
Si Si6 0.330033 0.928492 0.036883
O O1 0.500000 0.315683 0.369513
O O2 0.738772 0.376063 0.344769
O O3 0.764504 0.274225 0.395206
O O4 0.665668 0.363469 0.443279
O O5 0.500000 0.075636 0.648495
O O6 0.276468 0.047225 0.584089
O O7 0.285002 0.014520 0.685897
O O8 0.500000 0.098752 0.090351
O O9 0.715990 0.167959 0.073533
O O10 0.758435 0.081105 0.138714
O O11 0.716234 0.070088 0.026976
O O12 0.750000 0.250000 0.500000
O O13 0.000000 0.235392 0.447040
O O14 0.250000 0.072298 0.250000
O O15 0.000000 0.056324 0.194853
O O16 0.500000 0.949099 0.043479
#
# Coordination Sequence:
#
# PCOD9482461 Si02
#       6
#    16  16  16  16  16  16
#     4   9  17  30  49  78 113 146 180 216 266 325
#     4   9  18  34  55  80 108 139 179 227 277 327
#     4  10  21  36  54  81 116 153 189 225 274 332
#     4  11  19  30  51  80 116 153 183 216 261 320
#     4  11  25  42  60  80 104 142 191 238 284 332
#     4   8  16  31  50  79 113 144 177 213 269 331
#
# _framework density 9.2592590000000001
#
# number of rings (size 3 to 8) (size 9 to 14) (size 15 to 20)
#    1.000    1.333    1.667    1.500    0.000    5.333 
#    0.000    3.333    0.000    1.000    0.000    4.667 
#    0.000    0.000    0.000    0.000    0.000    0.000 
#
# Total GULP energy -267400.094669 kJ/mol
# GULP energy per Si atom -5570.835306 kJ/mol
# Density = 0.923818 g / cm^3
# Si number density = 9.259259 Si / 1000 Ang^3
#
#
#
# Elastic Constant Matrix: (Units=GPa)
#
#
# Indices 1 2 3 4 5 6 
#
# 1 42.4763 29.5507 26.2812 0.0000 0.0000 0.0000
# 2 29.5507 52.6806 10.1856 0.0000 0.0000 0.0000
# 3 26.2812 10.1856 76.1803 0.0000 0.0000 0.0000
# 4 0.0000 0.0000 0.0000 12.0413 0.0000 0.0000
# 5 0.0000 0.0000 0.0000 0.0000 18.8669 0.0000
# 6 0.0000 0.0000 0.0000 0.0000 0.0000 21.7494
#
#
#
# Elastic Compliance Matrix: (Units=1/GPa)
#
#
# Indices 1 2 3 4 5 6 
#
# 1 0.049506 -0.025117 -0.013721 0.000000 0.000000 0.000000
# 2 -0.025117 0.032229 0.004356 0.000000 0.000000 0.000000
# 3 -0.013721 0.004356 0.017278 0.000000 0.000000 0.000000
# 4 0.000000 0.000000 0.000000 0.083047 0.000000 0.000000
# 5 0.000000 0.000000 0.000000 0.000000 0.053003 0.000000
# 6 0.000000 0.000000 0.000000 0.000000 0.000000 0.045978
#
#
# Mechanical properties :
#
#
# Convention : Reuss Voigt Hill
#
# Bulk Modulus (GPa) = 33.27860 33.70803 33.49331
# Shear Modulus (GPa) = 13.88807 17.55282 15.72045
#
# Velocity S-wave (km/s) = 2.74150 3.08206 2.91676
# Velocity P-wave (km/s) = 5.29439 5.55944 5.42853
#
# Compressibility (1/GPa) = 0.03004935
#
# Stress axis : x y z
#
# Youngs Moduli (GPa) = 20.19969 31.02770 57.87778
#
# Poissons Ratio (x) = 0.77932 0.79412
# Poissons Ratio (y) = 0.50735 -0.25211
# Poissons Ratio (z) = 0.27715 -0.13515
#
# Static dielectric constant tensor:
#      x y z
#    x 1.622580 0.000000 0.000000 
#    y 0.000000 1.681450 0.000000 
#    z 0.000000 0.000000 1.640280 
# 
# From -- ./inp_files/43023.got.cif
#   From: 2010.05.17/outbox.ucp.g08.bks.cvg/sg64_22_cif.got.tgz:43023.got - 2010.06.11 16:36:46.
