data_PCOD9482804
_publ_section_title
;
Structure prediction by ZEFSAII (Michael W. Deem and Ramdas Pophale) SiO2 
 PCOD9482804
Probable space group: C M M M
;
_chemical_formula_sum "Si O2"
_cell_formula_units_Z 104
_cell_length_a 8.674955
_cell_length_b 31.962939
_cell_length_c 22.435742
_cell_angle_alpha 90.000000
_cell_angle_beta 90.000000
_cell_angle_gamma 90.000000
_cell_volume 6220.916524
_symmetry_space_group_name_H-M "C M M M"
_symmetry_group_IT_number 65
_symmetry_cell_setting 'orthorhombic'
loop_
_space_group_symop_operation_xyz
x,y,z
-x,-y,z
x,-y,-z
-x,y,-z
-x,-y,-z
x,y,-z
-x,y,z
x,-y,z
1/2+x,1/2+y,z
1/2-x,1/2-y,z
1/2+x,1/2-y,-z
1/2-x,1/2+y,-z
1/2-x,1/2-y,-z
1/2+x,1/2+y,-z
1/2-x,1/2+y,z
1/2+x,1/2-y,z
loop_
_atom_site_type_symbol
_atom_site_label
_atom_site_fract_x
_atom_site_fract_y
_atom_site_fract_z
Si Si1 0.315864 0.792630 0.353817
Si Si2 0.185547 0.548069 0.126390
Si Si3 0.183462 0.451952 0.570709
Si Si4 0.676811 0.449263 0.000000
Si Si5 0.315605 0.706916 0.218410
Si Si6 0.814281 0.380517 0.218548
Si Si7 0.682307 0.621239 0.351877
O O1 0.500000 0.790963 0.351221
O O2 0.250000 0.750000 0.382053
O O3 0.247103 0.793476 0.286580
O O4 0.258818 0.836778 0.379293
O O5 0.239184 0.500000 0.136388
O O6 0.232733 0.580333 0.177700
O O7 0.000000 0.547158 0.125551
O O8 0.242571 0.562965 0.061630
O O9 0.209503 0.446907 0.500000
O O10 0.221707 0.500000 0.586399
O O11 0.276702 0.418476 0.608237
O O12 0.000000 0.446198 0.581390
O O13 0.680993 0.500000 0.000000
O O14 0.500000 0.435654 0.000000
O O15 0.500000 0.707683 0.218754
O O16 0.250000 0.750000 0.191303
O O17 0.252418 0.663204 0.193258
O O18 0.751728 0.385402 0.285730
O O19 0.000000 0.377877 0.220677
O O20 0.500000 0.627706 0.346851
#
# Coordination Sequence:
#
# PCOD9482804 Si02
#       7
#    16  16  16   8  16  16  16
#     4  10  17  28  46  68  95 126 160 195 234 282
#     4   9  18  32  49  68  93 127 164 199 234 277
#     4   9  19  37  58  75  92 121 163 205 242 284
#     4   9  17  29  47  69  92 121 158 199 239 279
#     4  10  17  27  43  64  92 124 158 196 238 283
#     4  10  19  31  47  70  99 130 164 199 238 283
#     4  11  21  32  48  73 103 131 159 195 242 291
#
# _framework density 16.717794000000001
#
# number of rings (size 3 to 8) (size 9 to 14) (size 15 to 20)
#    0.000    2.231    0.000    8.077    0.000    3.385 
#    0.000    2.308    0.000    0.462    0.000    0.538 
#    0.000    0.000    0.000    0.000    0.000    0.000 
#
# Total GULP energy -289859.494390 kJ/mol
# GULP energy per Si atom -5574.221046 kJ/mol
# Density = 1.667974 g / cm^3
# Si number density = 16.717794 Si / 1000 Ang^3
#
#
#
# Elastic Constant Matrix: (Units=GPa)
#
#
# Indices 1 2 3 4 5 6 
#
# 1 105.9185 55.5090 26.7266 0.0000 0.0000 0.0000
# 2 55.5090 126.4638 42.3760 0.0000 0.0000 0.0000
# 3 26.7266 42.3760 30.3853 0.0000 0.0000 0.0000
# 4 0.0000 0.0000 0.0000 -4.4912 0.0000 0.0000
# 5 0.0000 0.0000 0.0000 0.0000 -0.9570 0.0000
# 6 0.0000 0.0000 0.0000 0.0000 0.0000 29.3301
#
#
#
# Elastic Compliance Matrix: (Units=1/GPa)
#
#
# Indices 1 2 3 4 5 6 
#
# 1 0.012908 -0.003494 -0.006481 0.000000 0.000000 0.000000
# 2 -0.003494 0.015790 -0.018948 0.000000 0.000000 0.000000
# 3 -0.006481 -0.018948 0.065036 0.000000 0.000000 0.000000
# 4 0.000000 0.000000 0.000000 -0.222660 0.000000 0.000000
# 5 0.000000 0.000000 0.000000 0.000000 -1.044907 0.000000
# 6 0.000000 0.000000 0.000000 0.000000 0.000000 0.034095
#
#
# Mechanical properties :
#
#
# Convention : Reuss Voigt Hill
#
# Bulk Modulus (GPa) = 27.86387 56.88788 42.37587
# Shear Modulus (GPa) = -4.67320 13.98679 4.65679
#
# Velocity S-wave (km/s) = -1.67374 2.89561 1.67080
# Velocity P-wave (km/s) = 3.60113 6.72916 5.39675
#
# Compressibility (1/GPa) = 0.03588877
#
# Stress axis : x y z
#
# Youngs Moduli (GPa) = 77.47382 63.33017 15.37602
#
# Poissons Ratio (x) = 0.22128 0.09964
# Poissons Ratio (y) = 0.27070 0.29135
# Poissons Ratio (z) = 0.50207 1.19999
#
# Static dielectric constant tensor:
#      x y z
#    x 1.563800 0.000000 0.000000 
#    y 0.000000 1.617950 0.000000 
#    z 0.000000 0.000000 1.538910 
# 
# From -- ./inp_files/68529.got.cif
#   From: 2010.05.17/outbox.cif.g08.bks.cpg/sg65_35_cif.got.tgz:68529.got - 2010.06.03 17:01:31.
