data_PCOD9482174
_publ_section_title
;
Structure prediction by ZEFSAII (Michael W. Deem and Ramdas Pophale) SiO2 
 PCOD9482174
Probable space group: C M C A
;
_chemical_formula_sum "Si O2"
_cell_formula_units_Z 64
_cell_length_a 12.236183
_cell_length_b 7.119561
_cell_length_c 24.856710
_cell_angle_alpha 90.000000
_cell_angle_beta 90.000000
_cell_angle_gamma 90.000000
_cell_volume 2165.423394
_symmetry_space_group_name_H-M "C M C A"
_symmetry_group_IT_number 64
_symmetry_cell_setting 'orthorhombic'
loop_
_space_group_symop_operation_xyz
x,y,z
-x,1/2-y,1/2+z
x,-y,-z
-x,1/2+y,1/2-z
-x,-y,-z
x,1/2+y,1/2-z
-x,y,z
x,1/2-y,1/2+z
1/2+x,1/2+y,z
1/2-x,-y,1/2+z
1/2+x,1/2-y,-z
1/2-x,y,1/2-z
1/2-x,1/2-y,-z
1/2+x,y,1/2-z
1/2-x,1/2+y,z
1/2+x,-y,1/2+z
loop_
_atom_site_type_symbol
_atom_site_label
_atom_site_fract_x
_atom_site_fract_y
_atom_site_fract_z
Si Si1 0.614108 0.653101 0.857959
Si Si2 0.625175 0.642335 0.227529
Si Si3 0.618774 0.781186 0.511970
Si Si4 0.349343 0.588978 0.624002
O O1 0.500000 0.579221 0.879199
O O2 0.719821 0.573888 0.885760
O O3 0.875892 0.070490 0.797936
O O4 0.616345 0.876485 0.863621
O O5 0.500000 0.650540 0.250933
O O6 0.750000 0.647678 0.250000
O O7 0.627739 0.786343 0.176807
O O8 0.500000 0.709302 0.485856
O O9 0.750000 0.750000 0.500000
O O10 0.610378 0.691811 0.571239
O O11 0.611193 0.000000 0.500000
#
# Coordination Sequence:
#
# PCOD9482174 Si02
#       4
#    16  16  16  16
#     4  11  25  46  76 110 150 202 258 315 390 468
#     4  11  27  52  80 114 156 205 265 332 399 478
#     4  11  26  47  77 118 160 205 261 327 398 476
#     4  12  24  51  81 114 157 212 266 327 400 480
#
# _framework density 29.555418
#
# number of rings (size 3 to 8) (size 9 to 14) (size 15 to 20)
#    0.000    0.750    2.500    3.750    0.000    4.500 
#    0.000    3.750    0.000    0.000    0.000    0.000 
#    0.000    0.000    0.000    0.000    0.000    0.000 
#
# Total GULP energy -178882.763396 kJ/mol
# GULP energy per Si atom -5590.086356 kJ/mol
# Density = 2.948815 g / cm^3
# Si number density = 29.555418 Si / 1000 Ang^3
#
#
#
# Elastic Constant Matrix: (Units=GPa)
#
#
# Indices 1 2 3 4 5 6 
#
# 1 393.8377 66.1933 64.8414 0.0000 0.0000 0.0000
# 2 66.1933 159.4188 -6.6063 0.0000 0.0000 0.0000
# 3 64.8414 -6.6063 101.4613 0.0000 0.0000 0.0000
# 4 0.0000 0.0000 0.0000 34.4198 0.0000 0.0000
# 5 0.0000 0.0000 0.0000 0.0000 106.0304 0.0000
# 6 0.0000 0.0000 0.0000 0.0000 0.0000 64.2654
#
#
#
# Elastic Compliance Matrix: (Units=1/GPa)
#
#
# Indices 1 2 3 4 5 6 
#
# 1 0.003113 -0.001379 -0.002079 0.000000 0.000000 0.000000
# 2 -0.001379 0.006900 0.001330 0.000000 0.000000 0.000000
# 3 -0.002079 0.001330 0.011271 0.000000 0.000000 0.000000
# 4 0.000000 0.000000 0.000000 0.029053 0.000000 0.000000
# 5 0.000000 0.000000 0.000000 0.000000 0.009431 0.000000
# 6 0.000000 0.000000 0.000000 0.000000 0.000000 0.015560
#
#
# Mechanical properties :
#
#
# Convention : Reuss Voigt Hill
#
# Bulk Modulus (GPa) = 58.72094 100.39716 79.55905
# Shear Modulus (GPa) = 58.64290 76.29576 67.46933
#
# Velocity S-wave (km/s) = 4.45923 5.08631 4.78306
# Velocity P-wave (km/s) = 6.81353 8.27870 7.58159
#
# Compressibility (1/GPa) = 0.01702970
#
# Stress axis : x y z
#
# Youngs Moduli (GPa) = 321.21270 144.91852 88.71960
#
# Poissons Ratio (x) = 0.19982 0.18448
# Poissons Ratio (y) = 0.44289 -0.11804
# Poissons Ratio (z) = 0.66791 -0.19281
#
# Static dielectric constant tensor:
#      x y z
#    x 2.263670 0.000000 0.000000 
#    y 0.000000 2.323960 0.000000 
#    z 0.000000 0.000000 2.598670 
# 
# From -- ./inp_files/51532.got.cif
#   From: 2010.05.17/outbox.cif.g08.bks.cpg/sg64_26_cif.got.tgz:51532.got - 2010.06.03 16:29:19.
