data_PCOD9482502
_publ_section_title
;
Structure prediction by ZEFSAII (Michael W. Deem and Ramdas Pophale) SiO2 
 PCOD9482502
Probable space group: C M C A
;
_chemical_formula_sum "Si O2"
_cell_formula_units_Z 36
_cell_length_a 27.000000
_cell_length_b 15.000000
_cell_length_c 9.000000
_cell_angle_alpha 90.000000
_cell_angle_beta 90.000000
_cell_angle_gamma 90.000000
_cell_volume 3645.000000
_symmetry_space_group_name_H-M "C M C A"
_symmetry_group_IT_number 64
_symmetry_cell_setting 'orthorhombic'
loop_
_space_group_symop_operation_xyz
x,y,z
-x,1/2-y,1/2+z
x,-y,-z
-x,1/2+y,1/2-z
-x,-y,-z
x,1/2+y,1/2-z
-x,y,z
x,1/2-y,1/2+z
1/2+x,1/2+y,z
1/2-x,-y,1/2+z
1/2+x,1/2-y,-z
1/2-x,y,1/2-z
1/2-x,1/2-y,-z
1/2+x,y,1/2-z
1/2-x,1/2+y,z
1/2+x,-y,1/2+z
loop_
_atom_site_type_symbol
_atom_site_label
_atom_site_fract_x
_atom_site_fract_y
_atom_site_fract_z
Si Si1 0.780728 0.317898 0.102358
Si Si2 0.103986 0.203565 0.666692
Si Si3 0.321527 0.000000 0.000000
Si Si4 0.942985 0.541860 0.660013
Si Si5 0.408452 0.383137 0.646080
O O1 0.750000 0.315372 0.250000
O O2 0.837705 0.289773 0.128639
O O3 0.750000 0.250000 0.000000
O O4 0.786664 0.421285 0.058017
O O5 0.090480 0.125070 0.784811
O O6 0.091951 0.300496 0.736814
O O7 0.079736 0.165621 0.512373
O O8 0.358337 0.942243 0.890959
O O9 0.927748 0.500000 0.500000
O O10 0.940982 0.461669 0.781088
O O11 0.000000 0.572913 0.646030
#
# Coordination Sequence:
#
# PCOD9482502 Si02
#       5
#    16  16   8  16  16
#     4  11  23  41  64  96 132 174 222 273 335 408
#     4  11  23  42  67  99 136 184 228 290 349 416
#     4  10  22  42  65  96 136 172 225 276 342 404
#     4  11  24  43  68 100 135 179 238 295 356 425
#     4  11  21  43  68  95 139 177 231 280 355 416
#
# _framework density 9.8765429999999999
#
# number of rings (size 3 to 8) (size 9 to 14) (size 15 to 20)
#    0.000    1.111    4.444    4.000    0.000    5.333 
#    2.000    0.000    0.000    0.000    0.000    0.000 
#    0.000    0.000    0.000    0.000    0.000    0.000 
#
# Total GULP energy -200511.895794 kJ/mol
# GULP energy per Si atom -5569.774883 kJ/mol
# Density = 0.985406 g / cm^3
# Si number density = 9.876543 Si / 1000 Ang^3
#
#
#
# Elastic Constant Matrix: (Units=GPa)
#
#
# Indices 1 2 3 4 5 6 
#
# 1 61.9440 29.3162 29.0388 0.0000 0.0000 0.0000
# 2 29.3162 165.0275 38.8751 0.0000 0.0000 0.0000
# 3 29.0388 38.8751 92.6642 0.0000 0.0000 0.0000
# 4 0.0000 0.0000 0.0000 41.4012 0.0000 0.0000
# 5 0.0000 0.0000 0.0000 0.0000 27.8733 0.0000
# 6 0.0000 0.0000 0.0000 0.0000 0.0000 12.7991
#
#
#
# Elastic Compliance Matrix: (Units=1/GPa)
#
#
# Indices 1 2 3 4 5 6 
#
# 1 0.019658 -0.002265 -0.005210 0.000000 0.000000 0.000000
# 2 -0.002265 0.006985 -0.002221 0.000000 0.000000 0.000000
# 3 -0.005210 -0.002221 0.013356 0.000000 0.000000 0.000000
# 4 0.000000 0.000000 0.000000 0.024154 0.000000 0.000000
# 5 0.000000 0.000000 0.000000 0.000000 0.035877 0.000000
# 6 0.000000 0.000000 0.000000 0.000000 0.000000 0.078130
#
#
# Mechanical properties :
#
#
# Convention : Reuss Voigt Hill
#
# Bulk Modulus (GPa) = 48.52553 57.12176 52.82365
# Shear Modulus (GPa) = 24.45940 31.24178 27.85059
#
# Velocity S-wave (km/s) = 3.52271 3.98127 3.75899
# Velocity P-wave (km/s) = 6.41602 7.07917 6.75574
#
# Compressibility (1/GPa) = 0.02060771
#
# Stress axis : x y z
#
# Youngs Moduli (GPa) = 50.87001 143.16315 74.87244
#
# Poissons Ratio (x) = 0.32423 0.39010
# Poissons Ratio (y) = 0.11521 0.16627
# Poissons Ratio (z) = 0.26504 0.31792
#
# Static dielectric constant tensor:
#      x y z
#    x 1.695900 0.000000 0.000000 
#    y 0.000000 1.609690 0.000000 
#    z 0.000000 0.000000 1.746110 
# 
# From -- ./inp_files/10030.got.cif
#   From: 2010.05.17/outbox.ucp.g08.bks.cvg/sg64_6_cif.got.tgz:10030.got - 2010.06.11 16:36:46.
