data_PCOD9482347
_publ_section_title
;
Structure prediction by ZEFSAII (Michael W. Deem and Ramdas Pophale) SiO2 
 PCOD9482347
Probable space group: C M C A
;
_chemical_formula_sum "Si O2"
_cell_formula_units_Z 112
_cell_length_a 15.287957
_cell_length_b 18.862134
_cell_length_c 19.450862
_cell_angle_alpha 90.000000
_cell_angle_beta 90.000000
_cell_angle_gamma 90.000000
_cell_volume 5608.918518
_symmetry_space_group_name_H-M "C M C A"
_symmetry_group_IT_number 64
_symmetry_cell_setting 'orthorhombic'
loop_
_space_group_symop_operation_xyz
x,y,z
-x,1/2-y,1/2+z
x,-y,-z
-x,1/2+y,1/2-z
-x,-y,-z
x,1/2+y,1/2-z
-x,y,z
x,1/2-y,1/2+z
1/2+x,1/2+y,z
1/2-x,-y,1/2+z
1/2+x,1/2-y,-z
1/2-x,y,1/2-z
1/2-x,1/2-y,-z
1/2+x,y,1/2-z
1/2-x,1/2+y,z
1/2+x,-y,1/2+z
loop_
_atom_site_type_symbol
_atom_site_label
_atom_site_fract_x
_atom_site_fract_y
_atom_site_fract_z
Si Si1 0.607911 0.829443 0.958540
Si Si2 0.601582 0.044878 0.137591
Si Si3 0.395844 0.386945 0.395811
Si Si4 0.893362 0.525961 0.576127
Si Si5 0.354275 0.848456 0.249043
Si Si6 0.897062 0.685239 0.605389
Si Si7 0.848948 0.992132 0.777513
O O1 0.500000 0.827432 0.957285
O O2 0.638432 0.889786 0.905166
O O3 0.639128 0.751919 0.935931
O O4 0.636900 0.853151 0.034039
O O5 0.500000 0.041060 0.117892
O O6 0.639773 0.966840 0.118633
O O7 0.605836 0.055577 0.219709
O O8 0.500000 0.394126 0.402970
O O9 0.380606 0.337853 0.329448
O O10 0.868874 0.500000 0.500000
O O11 0.861137 0.607198 0.587238
O O12 0.858893 0.480367 0.641376
O O13 0.000000 0.524279 0.580522
O O14 0.250000 0.848047 0.250000
O O15 0.386710 0.802446 0.312711
O O16 0.386731 0.928412 0.266303
O O17 0.000000 0.680915 0.590157
O O18 0.750000 0.992838 0.750000
#
# Coordination Sequence:
#
# PCOD9482347 Si02
#       7
#    16  16  16  16  16  16  16
#     4   9  17  29  46  70  96 119 149 191 235 278
#     4   9  16  28  47  69  93 122 154 190 233 279
#     4   9  16  28  48  70  90 116 153 192 228 272
#     4   9  17  31  52  74  95 124 163 202 236 274
#     4   9  17  30  47  66  89 120 156 190 225 273
#     4   9  17  31  49  68  93 123 153 188 233 279
#     4   9  17  30  47  70  96 122 156 196 235 278
#
# _framework density 19.968198999999998
#
# number of rings (size 3 to 8) (size 9 to 14) (size 15 to 20)
#    0.000    3.000    0.000    1.286    0.000    5.143 
#    0.000    8.571    0.000    5.143    0.000    0.000 
#    0.000    0.000    0.000    0.000    0.000    0.000 
#
# Total GULP energy -311827.904665 kJ/mol
# GULP energy per Si atom -5568.355440 kJ/mol
# Density = 1.992275 g / cm^3
# Si number density = 19.968199 Si / 1000 Ang^3
#
#
#
# Elastic Constant Matrix: (Units=GPa)
#
#
# Indices 1 2 3 4 5 6 
#
# 1 19.4226 5.6641 3.8516 0.0000 0.0000 0.0000
# 2 5.6641 69.4886 71.1463 0.0000 0.0000 0.0000
# 3 3.8516 71.1463 200.6996 0.0000 0.0000 0.0000
# 4 0.0000 0.0000 0.0000 15.9494 0.0000 0.0000
# 5 0.0000 0.0000 0.0000 0.0000 -9.1654 0.0000
# 6 0.0000 0.0000 0.0000 0.0000 0.0000 -0.9157
#
#
#
# Elastic Compliance Matrix: (Units=1/GPa)
#
#
# Indices 1 2 3 4 5 6 
#
# 1 0.052823 -0.005129 0.000805 0.000000 0.000000 0.000000
# 2 -0.005129 0.023088 -0.008086 0.000000 0.000000 0.000000
# 3 0.000805 -0.008086 0.007834 0.000000 0.000000 0.000000
# 4 0.000000 0.000000 0.000000 0.062698 0.000000 0.000000
# 5 0.000000 0.000000 0.000000 0.000000 -0.109106 0.000000
# 6 0.000000 0.000000 0.000000 0.000000 0.000000 -1.092102
#
#
# Mechanical properties :
#
#
# Convention : Reuss Voigt Hill
#
# Bulk Modulus (GPa) = 16.97149 50.10387 33.53768
# Shear Modulus (GPa) = -4.94901 15.10358 5.07728
#
# Velocity S-wave (km/s) = -1.57602 2.75322 1.59631
# Velocity P-wave (km/s) = 2.28165 5.93745 4.49773
#
# Compressibility (1/GPa) = 0.05892235
#
# Stress axis : x y z
#
# Youngs Moduli (GPa) = 18.93129 43.31276 127.65589
#
# Poissons Ratio (x) = 0.22217 -0.10272
# Poissons Ratio (y) = 0.09711 1.03223
# Poissons Ratio (z) = -0.01523 0.35023
#
# Static dielectric constant tensor:
#      x y z
#    x 1.742520 0.000000 0.000000 
#    y 0.000000 1.706360 0.000000 
#    z 0.000000 0.000000 1.749640 
# 
# From -- ./inp_files/33593.got.cif
#   From: 2010.05.17/outbox.cif.g08.bks.cpg/sg64_17_cif.got.tgz:33593.got - 2010.06.03 16:29:19.
