data_PCOD9482041
_publ_section_title
;
Structure prediction by ZEFSAII (Michael W. Deem and Ramdas Pophale) SiO2 
 PCOD9482041
Probable space group: C M C A
;
_chemical_formula_sum "Si O2"
_cell_formula_units_Z 72
_cell_length_a 14.771749
_cell_length_b 26.919518
_cell_length_c 9.436643
_cell_angle_alpha 90.000000
_cell_angle_beta 90.000000
_cell_angle_gamma 90.000000
_cell_volume 3752.465642
_symmetry_space_group_name_H-M "C M C A"
_symmetry_group_IT_number 64
_symmetry_cell_setting 'orthorhombic'
loop_
_space_group_symop_operation_xyz
x,y,z
-x,1/2-y,1/2+z
x,-y,-z
-x,1/2+y,1/2-z
-x,-y,-z
x,1/2+y,1/2-z
-x,y,z
x,1/2-y,1/2+z
1/2+x,1/2+y,z
1/2-x,-y,1/2+z
1/2+x,1/2-y,-z
1/2-x,y,1/2-z
1/2-x,1/2-y,-z
1/2+x,y,1/2-z
1/2-x,1/2+y,z
1/2+x,-y,1/2+z
loop_
_atom_site_type_symbol
_atom_site_label
_atom_site_fract_x
_atom_site_fract_y
_atom_site_fract_z
Si Si1 0.250000 0.876270 0.250000
Si Si2 0.146871 0.295646 0.697957
Si Si3 0.763329 0.058573 0.474001
Si Si4 0.102984 0.199142 0.871515
Si Si5 0.103394 0.591466 0.271610
O O1 0.224533 0.910869 0.382112
O O2 0.167985 0.840822 0.201737
O O3 0.250000 0.298250 0.750000
O O4 0.104565 0.249057 0.778522
O O5 0.139385 0.289293 0.529017
O O6 0.104050 0.348735 0.734366
O O7 0.844661 0.071172 0.366357
O O8 0.669280 0.075943 0.400693
O O9 0.759935 0.000000 0.500000
O O10 0.000000 0.180799 0.884704
O O11 0.000000 0.573971 0.284680
#
# Coordination Sequence:
#
# PCOD9482041 Si02
#       5
#     8  16  16  16  16
#     4  12  24  42  68  96 136 176 218 276 334 392
#     4  12  23  44  66  97 135 177 216 263 326 392
#     4  11  25  46  69  96 129 172 224 279 333 389
#     4  12  26  41  65 101 137 175 220 266 321 398
#     4  11  23  44  70  96 132 175 217 269 332 394
#
# _framework density 19.187384999999999
#
# number of rings (size 3 to 8) (size 9 to 14) (size 15 to 20)
#    0.000    0.444    5.556    4.000    3.111    1.778 
#    0.000    2.222    0.000    0.000    0.000    0.000 
#    0.000    0.000    0.000    0.000    0.000    0.000 
#
# Total GULP energy -201365.842000 kJ/mol
# GULP energy per Si atom -5593.495611 kJ/mol
# Density = 1.914371 g / cm^3
# Si number density = 19.187385 Si / 1000 Ang^3
#
#
#
# Elastic Constant Matrix: (Units=GPa)
#
#
# Indices 1 2 3 4 5 6 
#
# 1 156.6660 31.7831 72.6349 0.0000 0.0000 0.0000
# 2 31.7831 142.7685 63.7759 0.0000 0.0000 0.0000
# 3 72.6349 63.7759 160.0371 0.0000 0.0000 0.0000
# 4 0.0000 0.0000 0.0000 59.4469 0.0000 0.0000
# 5 0.0000 0.0000 0.0000 0.0000 1.9553 0.0000
# 6 0.0000 0.0000 0.0000 0.0000 0.0000 -29.7379
#
#
#
# Elastic Compliance Matrix: (Units=1/GPa)
#
#
# Indices 1 2 3 4 5 6 
#
# 1 0.008089 -0.000196 -0.003593 0.000000 0.000000 0.000000
# 2 -0.000196 0.008526 -0.003309 0.000000 0.000000 0.000000
# 3 -0.003593 -0.003309 0.009198 0.000000 0.000000 0.000000
# 4 0.000000 0.000000 0.000000 0.016822 0.000000 0.000000
# 5 0.000000 0.000000 0.000000 0.000000 0.511433 0.000000
# 6 0.000000 0.000000 0.000000 0.000000 0.000000 -0.033627
#
#
# Mechanical properties :
#
#
# Convention : Reuss Voigt Hill
#
# Bulk Modulus (GPa) = 86.07882 88.42880 87.25381
# Shear Modulus (GPa) = 9.28492 25.75138 17.51815
#
# Velocity S-wave (km/s) = 2.20218 3.66744 3.02487
# Velocity P-wave (km/s) = 7.17117 8.00753 7.60086
#
# Compressibility (1/GPa) = 0.01161726
#
# Stress axis : x y z
#
# Youngs Moduli (GPa) = 123.63114 117.28835 108.71960
#
# Poissons Ratio (x) = 0.02294 0.39065
# Poissons Ratio (y) = 0.02418 0.35974
# Poissons Ratio (z) = 0.44423 0.38810
#
# Static dielectric constant tensor:
#      x y z
#    x 1.681090 0.000000 0.000000 
#    y 0.000000 1.644350 0.000000 
#    z 0.000000 0.000000 1.653090 
# 
# From -- ./inp_files/5804.got.cif
#   From: 2010.05.17/outbox.cif.g08.bks.cpg/sg64_3_cif.got.tgz:5804.got - 2010.06.03 16:29:19.
