data_PCOD9482538
_publ_section_title
;
Structure prediction by ZEFSAII (Michael W. Deem and Ramdas Pophale) SiO2 
 PCOD9482538
Probable space group: C M M M
;
_chemical_formula_sum "Si O2"
_cell_formula_units_Z 112
_cell_length_a 18.116652
_cell_length_b 23.065556
_cell_length_c 17.726005
_cell_angle_alpha 90.000000
_cell_angle_beta 90.000000
_cell_angle_gamma 90.000000
_cell_volume 7407.177253
_symmetry_space_group_name_H-M "C M M M"
_symmetry_group_IT_number 65
_symmetry_cell_setting 'orthorhombic'
loop_
_space_group_symop_operation_xyz
x,y,z
-x,-y,z
x,-y,-z
-x,y,-z
-x,-y,-z
x,y,-z
-x,y,z
x,-y,z
1/2+x,1/2+y,z
1/2-x,1/2-y,z
1/2+x,1/2-y,-z
1/2-x,1/2+y,-z
1/2-x,1/2-y,-z
1/2+x,1/2+y,-z
1/2-x,1/2+y,z
1/2+x,1/2-y,z
loop_
_atom_site_type_symbol
_atom_site_label
_atom_site_fract_x
_atom_site_fract_y
_atom_site_fract_z
Si Si1 0.886667 0.347881 0.083382
Si Si2 0.914513 0.751026 0.307860
Si Si3 0.580705 0.716309 0.132493
Si Si4 0.700577 0.691013 0.586562
Si Si5 0.082330 0.567041 0.221657
Si Si6 0.303421 0.858176 0.703428
Si Si7 0.765269 0.818971 0.141179
O O1 0.911563 0.281793 0.100395
O O2 0.912506 0.390440 0.149460
O O3 0.797762 0.345578 0.088973
O O4 0.910597 0.365005 0.000000
O O5 0.914619 0.776644 0.223284
O O6 0.872512 0.793114 0.366034
O O7 0.864519 0.693181 0.303041
O O8 0.000000 0.739616 0.328275
O O9 0.500000 0.693941 0.111391
O O10 0.651390 0.677853 0.112023
O O11 0.685474 0.675853 0.500000
O O12 0.750000 0.750000 0.587098
O O13 0.750964 0.644799 0.631047
O O14 0.090156 0.500000 0.199483
O O15 0.147651 0.586007 0.277583
O O16 0.000000 0.574827 0.254724
O O17 0.251842 0.843892 0.775750
O O18 0.750000 0.750000 0.146872
#
# Coordination Sequence:
#
# PCOD9482538 Si02
#       7
#    16  16  16  16  16  16  16
#     4  10  20  30  42  60  85 116 150 185 224 265
#     4  10  16  24  41  63  90 121 146 171 202 250
#     4  10  17  25  40  62  87 119 151 177 208 254
#     4   9  17  27  42  65  90 117 144 171 206 250
#     4  10  20  32  47  65  83 110 150 191 227 258
#     4  10  15  28  45  60  84 118 152 180 207 252
#     4   9  14  26  41  57  80 114 149 178 209 254
#
# _framework density 15.120469999999999
#
# number of rings (size 3 to 8) (size 9 to 14) (size 15 to 20)
#    0.000    2.286    5.714    1.286    0.000    4.286 
#    0.000    0.714    0.000    1.714    0.000    1.000 
#    0.000   14.286    0.000    6.429    0.000    0.000 
#
# Total GULP energy -311790.729181 kJ/mol
# GULP energy per Si atom -5567.691593 kJ/mol
# Density = 1.508605 g / cm^3
# Si number density = 15.120470 Si / 1000 Ang^3
#
#
#
# Elastic Constant Matrix: (Units=GPa)
#
#
# Indices 1 2 3 4 5 6 
#
# 1 113.5597 16.7460 6.1474 0.0000 0.0000 0.0000
# 2 16.7460 31.3883 5.0994 0.0000 0.0000 0.0000
# 3 6.1474 5.0994 61.8751 0.0000 0.0000 0.0000
# 4 0.0000 0.0000 0.0000 3.4479 0.0000 0.0000
# 5 0.0000 0.0000 0.0000 0.0000 1.7030 0.0000
# 6 0.0000 0.0000 0.0000 0.0000 0.0000 17.9839
#
#
#
# Elastic Compliance Matrix: (Units=1/GPa)
#
#
# Indices 1 2 3 4 5 6 
#
# 1 0.009576 -0.005021 -0.000538 0.000000 0.000000 0.000000
# 2 -0.005021 0.034924 -0.002379 0.000000 0.000000 0.000000
# 3 -0.000538 -0.002379 0.016411 0.000000 0.000000 0.000000
# 4 0.000000 0.000000 0.000000 0.290036 0.000000 0.000000
# 5 0.000000 0.000000 0.000000 0.000000 0.587191 0.000000
# 6 0.000000 0.000000 0.000000 0.000000 0.000000 0.055605
#
#
# Mechanical properties :
#
#
# Convention : Reuss Voigt Hill
#
# Bulk Modulus (GPa) = 22.20513 29.20096 25.70304
# Shear Modulus (GPa) = 4.87981 16.54899 10.71440
#
# Velocity S-wave (km/s) = 1.79841 3.31188 2.66485
# Velocity P-wave (km/s) = 4.36231 5.82914 5.14823
#
# Compressibility (1/GPa) = 0.04503464
#
# Stress axis : x y z
#
# Youngs Moduli (GPa) = 104.43315 28.63321 60.93437
#
# Poissons Ratio (x) = 0.14378 0.03275
# Poissons Ratio (y) = 0.52439 0.14499
# Poissons Ratio (z) = 0.05613 0.06813
#
# Static dielectric constant tensor:
#      x y z
#    x 1.556400 0.000000 0.000000 
#    y 0.000000 1.473320 0.000000 
#    z 0.000000 0.000000 1.515450 
# 
# From -- ./inp_files/55057.got.cif
#   From: 2010.05.17/outbox.cif.g08.bks.cpg/sg65_28_cif.got.tgz:55057.got - 2010.06.03 17:01:31.
