data_PCOD9482339
_publ_section_title
;
Structure prediction by ZEFSAII (Michael W. Deem and Ramdas Pophale) SiO2 
 PCOD9482339
Probable space group: C M C A
;
_chemical_formula_sum "Si O2"
_cell_formula_units_Z 80
_cell_length_a 13.034192
_cell_length_b 12.107412
_cell_length_c 27.530691
_cell_angle_alpha 90.000000
_cell_angle_beta 90.000000
_cell_angle_gamma 90.000000
_cell_volume 4344.627504
_symmetry_space_group_name_H-M "C M C A"
_symmetry_group_IT_number 64
_symmetry_cell_setting 'orthorhombic'
loop_
_space_group_symop_operation_xyz
x,y,z
-x,1/2-y,1/2+z
x,-y,-z
-x,1/2+y,1/2-z
-x,-y,-z
x,1/2+y,1/2-z
-x,y,z
x,1/2-y,1/2+z
1/2+x,1/2+y,z
1/2-x,-y,1/2+z
1/2+x,1/2-y,-z
1/2-x,y,1/2-z
1/2-x,1/2-y,-z
1/2+x,y,1/2-z
1/2-x,1/2+y,z
1/2+x,-y,1/2+z
loop_
_atom_site_type_symbol
_atom_site_label
_atom_site_fract_x
_atom_site_fract_y
_atom_site_fract_z
Si Si1 0.720399 0.524747 0.305600
Si Si2 0.810422 0.987593 0.556567
Si Si3 0.884525 0.157733 0.635397
Si Si4 0.883567 0.957362 0.115592
Si Si5 0.318411 0.289611 0.624843
O O1 0.750000 0.534635 0.250000
O O2 0.651345 0.418151 0.319130
O O3 0.822932 0.505935 0.337966
O O4 0.665049 0.632216 0.328417
O O5 0.872383 0.075898 0.589133
O O6 0.691366 0.011598 0.570886
O O7 0.828950 0.000000 0.500000
O O8 0.835851 0.867437 0.578374
O O9 0.800464 0.251805 0.627667
O O10 0.000000 0.196601 0.640631
O O11 0.879067 0.824479 0.122035
O O12 0.000000 0.994618 0.110829
#
# Coordination Sequence:
#
# PCOD9482339 Si02
#       5
#    16  16  16  16  16
#     4   9  19  35  52  72 100 131 163 201 244 290
#     4   9  19  35  52  72 100 131 163 201 244 290
#     4   9  19  34  51  73 100 128 162 203 243 288
#     4   9  19  34  51  73 100 128 162 203 243 288
#     4   8  18  33  51  71 100 131 159 198 245 288
#
# _framework density 18.413546
#
# number of rings (size 3 to 8) (size 9 to 14) (size 15 to 20)
#    0.000    4.000    0.000    0.000    0.000   14.400 
#    0.000    2.000    0.000    0.000    0.000    0.000 
#    0.000    0.000    0.000    0.000    0.000    0.000 
#
# Total GULP energy -222773.692147 kJ/mol
# GULP energy per Si atom -5569.342304 kJ/mol
# Density = 1.837164 g / cm^3
# Si number density = 18.413546 Si / 1000 Ang^3
#
#
#
# Elastic Constant Matrix: (Units=GPa)
#
#
# Indices 1 2 3 4 5 6 
#
# 1 60.5380 -30.9186 -25.1577 0.0000 0.0000 0.0000
# 2 -30.9186 63.2078 9.1103 0.0000 0.0000 0.0000
# 3 -25.1577 9.1103 99.3376 0.0000 0.0000 0.0000
# 4 0.0000 0.0000 0.0000 4.4888 0.0000 0.0000
# 5 0.0000 0.0000 0.0000 0.0000 -4.3423 0.0000
# 6 0.0000 0.0000 0.0000 0.0000 0.0000 -2.9563
#
#
#
# Elastic Compliance Matrix: (Units=1/GPa)
#
#
# Indices 1 2 3 4 5 6 
#
# 1 0.024365 0.011177 0.005146 0.000000 0.000000 0.000000
# 2 0.011177 0.021160 0.000890 0.000000 0.000000 0.000000
# 3 0.005146 0.000890 0.011288 0.000000 0.000000 0.000000
# 4 0.000000 0.000000 0.000000 0.222777 0.000000 0.000000
# 5 0.000000 0.000000 0.000000 0.000000 -0.230292 0.000000
# 6 0.000000 0.000000 0.000000 0.000000 0.000000 -0.338262
#
#
# Mechanical properties :
#
#
# Convention : Reuss Voigt Hill
#
# Bulk Modulus (GPa) = 10.96034 14.35015 12.65524
# Shear Modulus (GPa) = -17.06627 17.44132 0.18752
#
# Velocity S-wave (km/s) = -3.04770 3.08100 0.31947
# Velocity P-wave (km/s) = 2.53364 4.52404 2.65024
#
# Compressibility (1/GPa) = 0.09123808
#
# Stress axis : x y z
#
# Youngs Moduli (GPa) = 41.04205 47.25939 88.58807
#
# Poissons Ratio (x) = -0.52821 -0.45584
# Poissons Ratio (y) = -0.45872 -0.07884
# Poissons Ratio (z) = -0.21118 -0.04206
#
# Static dielectric constant tensor:
#      x y z
#    x 1.649940 0.000000 0.000000 
#    y 0.000000 1.657380 0.000000 
#    z 0.000000 0.000000 1.601440 
# 
# From -- ./inp_files/49894.got.cif
#   From: 2010.05.17/outbox.cif.g08.bks.cpg/sg64_25_cif.got.tgz:49894.got - 2010.06.03 16:29:19.
