data_PCOD9483717
_publ_section_title
;
Structure prediction by ZEFSAII (Michael W. Deem and Ramdas Pophale) SiO2 
 PCOD9483717
Probable space group: C M M M
;
_chemical_formula_sum "Si O2"
_cell_formula_units_Z 120
_cell_length_a 29.132989
_cell_length_b 8.611326
_cell_length_c 29.472168
_cell_angle_alpha 90.000000
_cell_angle_beta 90.000000
_cell_angle_gamma 90.000000
_cell_volume 7393.790820
_symmetry_space_group_name_H-M "C M M M"
_symmetry_group_IT_number 65
_symmetry_cell_setting 'orthorhombic'
loop_
_space_group_symop_operation_xyz
x,y,z
-x,-y,z
x,-y,-z
-x,y,-z
-x,-y,-z
x,y,-z
-x,y,z
x,-y,z
1/2+x,1/2+y,z
1/2-x,1/2-y,z
1/2+x,1/2-y,-z
1/2-x,1/2+y,-z
1/2-x,1/2-y,-z
1/2+x,1/2+y,-z
1/2-x,1/2+y,z
1/2+x,1/2-y,z
loop_
_atom_site_type_symbol
_atom_site_label
_atom_site_fract_x
_atom_site_fract_y
_atom_site_fract_z
Si Si1 0.608619 0.188008 0.233364
Si Si2 0.446494 0.313563 0.500000
Si Si3 0.393291 0.813412 0.412764
Si Si4 0.447404 0.810870 0.322360
Si Si5 0.299864 0.314266 0.273208
Si Si6 0.946851 0.686906 0.145129
Si Si7 0.055176 0.184750 0.049351
Si Si8 0.300048 0.686151 0.621092
O O1 0.577818 0.238248 0.276378
O O2 0.659429 0.249879 0.242384
O O3 0.584535 0.240123 0.186861
O O4 0.609838 0.000000 0.233236
O O5 0.445208 0.500000 0.500000
O O6 0.500000 0.264135 0.500000
O O7 0.420423 0.250832 0.544191
O O8 0.419644 0.762114 0.366899
O O9 0.341404 0.752836 0.408569
O O10 0.393127 0.000000 0.414269
O O11 0.500000 0.758166 0.323838
O O12 0.447825 0.000000 0.322242
O O13 0.299353 0.500000 0.271795
O O14 0.250000 0.250000 0.260267
O O15 0.308039 0.266384 0.326007
O O16 0.947997 0.500000 0.146178
O O17 0.928738 0.738758 0.095919
O O18 0.000000 0.740818 0.150588
O O19 0.000000 0.209087 0.048834
O O20 0.062877 0.000000 0.051619
O O21 0.072569 0.240969 0.000000
O O22 0.299874 0.500000 0.618997
O O23 0.250000 0.750000 0.608141
#
# Coordination Sequence:
#
# PCOD9483717 Si02
#       8
#    16   8  16  16  16  16  16  16
#     4  10  18  30  47  69 100 132 164 199 243 292
#     4  11  25  43  60  79 108 141 169 207 255 293
#     4  11  21  36  59  83 105 132 171 210 247 295
#     4   9  17  29  48  73  99 129 165 202 236 279
#     4  10  20  33  51  73  99 129 165 203 244 292
#     4   9  17  27  41  64  95 131 167 204 245 289
#     4   8  14  25  40  57  81 119 166 211 252 292
#     4  10  20  35  56  81 108 134 165 203 250 300
#
# _framework density 16.229834
#
# number of rings (size 3 to 8) (size 9 to 14) (size 15 to 20)
#    0.000    2.333    1.333    2.600    0.000    4.533 
#    0.000    1.667    0.000    2.000    0.000    0.000 
#    0.000    0.533    0.000    1.733    0.000    2.533 
#
# Total GULP energy -334627.998091 kJ/mol
# GULP energy per Si atom -5577.133302 kJ/mol
# Density = 1.619289 g / cm^3
# Si number density = 16.229834 Si / 1000 Ang^3
#
#
#
# Elastic Constant Matrix: (Units=GPa)
#
#
# Indices 1 2 3 4 5 6 
#
# 1 131.4207 28.4108 79.3385 0.0000 0.0000 0.0000
# 2 28.4108 25.1810 32.3460 0.0000 0.0000 0.0000
# 3 79.3385 32.3460 145.6973 0.0000 0.0000 0.0000
# 4 0.0000 0.0000 0.0000 19.2916 0.0000 0.0000
# 5 0.0000 0.0000 0.0000 0.0000 11.4758 0.0000
# 6 0.0000 0.0000 0.0000 0.0000 0.0000 19.8880
#
#
#
# Elastic Compliance Matrix: (Units=1/GPa)
#
#
# Indices 1 2 3 4 5 6 
#
# 1 0.012234 -0.007338 -0.005033 0.000000 0.000000 0.000000
# 2 -0.007338 0.059958 -0.009315 0.000000 0.000000 0.000000
# 3 -0.005033 -0.009315 0.011672 0.000000 0.000000 0.000000
# 4 0.000000 0.000000 0.000000 0.051836 0.000000 0.000000
# 5 0.000000 0.000000 0.000000 0.000000 0.087140 0.000000
# 6 0.000000 0.000000 0.000000 0.000000 0.000000 0.050282
#
#
# Mechanical properties :
#
#
# Convention : Reuss Voigt Hill
#
# Bulk Modulus (GPa) = 24.69658 64.72105 44.70881
# Shear Modulus (GPa) = 15.15198 20.94466 18.04832
#
# Velocity S-wave (km/s) = 3.05878 3.59626 3.33835
# Velocity P-wave (km/s) = 5.26542 7.56363 6.51664
#
# Compressibility (1/GPa) = 0.04049144
#
# Stress axis : x y z
#
# Youngs Moduli (GPa) = 81.74103 16.67845 85.67456
#
# Poissons Ratio (x) = 0.12239 0.43117
# Poissons Ratio (y) = 0.59984 0.79807
# Poissons Ratio (z) = 0.41137 0.15536
#
# Static dielectric constant tensor:
#      x y z
#    x 1.524780 0.000000 0.000000 
#    y 0.000000 1.548770 0.000000 
#    z 0.000000 0.000000 1.540850 
# 
# From -- ./inp_files/76103.got.cif
#   From: 2010.05.17/outbox.cif.g08.bks.cpg/sg65_39_cif.got.tgz:76103.got - 2010.06.03 17:01:31.
