data_PCOD9483770
_publ_section_title
;
Structure prediction by ZEFSAII (Michael W. Deem and Ramdas Pophale) SiO2 
 PCOD9483770
Probable space group: C M M M
;
_chemical_formula_sum "Si O2"
_cell_formula_units_Z 104
_cell_length_a 29.986515
_cell_length_b 7.973003
_cell_length_c 24.198747
_cell_angle_alpha 90.000000
_cell_angle_beta 90.000000
_cell_angle_gamma 90.000000
_cell_volume 5785.498722
_symmetry_space_group_name_H-M "C M M M"
_symmetry_group_IT_number 65
_symmetry_cell_setting 'orthorhombic'
loop_
_space_group_symop_operation_xyz
x,y,z
-x,-y,z
x,-y,-z
-x,y,-z
-x,-y,-z
x,y,-z
-x,y,z
x,-y,z
1/2+x,1/2+y,z
1/2-x,1/2-y,z
1/2+x,1/2-y,-z
1/2-x,1/2+y,-z
1/2-x,1/2-y,-z
1/2+x,1/2+y,-z
1/2-x,1/2+y,z
1/2+x,1/2-y,z
loop_
_atom_site_type_symbol
_atom_site_label
_atom_site_fract_x
_atom_site_fract_y
_atom_site_fract_z
Si Si1 0.298623 0.201619 0.392511
Si Si2 0.106918 0.298382 0.774334
Si Si3 0.949089 0.300303 0.000000
Si Si4 0.607386 0.205211 0.561232
Si Si5 0.448724 0.205319 0.667498
Si Si6 0.448991 0.699024 0.119308
Si Si7 0.201273 0.298109 0.735144
O O1 0.250000 0.250000 0.414491
O O2 0.341897 0.259158 0.425797
O O3 0.301924 0.262001 0.328738
O O4 0.300517 0.000000 0.391132
O O5 0.108231 0.500000 0.770430
O O6 0.078591 0.238304 0.721350
O O7 0.081840 0.256086 0.830626
O O8 0.157885 0.237615 0.768184
O O9 0.930061 0.245367 0.941127
O O10 0.950700 0.500000 0.000000
O O11 0.000000 0.231320 0.000000
O O12 0.593624 0.259382 0.500000
O O13 0.575790 0.259150 0.611369
O O14 0.607029 0.000000 0.561612
O O15 0.500000 0.258905 0.669804
O O16 0.448306 0.000000 0.667779
O O17 0.500000 0.768867 0.124154
O O18 0.452174 0.500000 0.121983
O O19 0.199655 0.500000 0.733406
O O20 0.250000 0.250000 0.756821
#
# Coordination Sequence:
#
# PCOD9483770 Si02
#       7
#    16  16   8  16  16  16  16
#     4   9  16  28  44  63  87 114 145 185 236 291
#     4  10  18  30  48  70  94 124 162 201 240 287
#     4   9  17  31  51  73 100 137 176 205 231 271
#     4   9  16  26  40  59  85 116 150 191 240 290
#     4   9  16  26  41  61  86 117 154 196 239 283
#     4  10  20  32  47  72 106 138 166 200 240 278
#     4   9  17  29  46  66  91 120 153 194 241 292
#
# _framework density 17.975978999999999
#
# number of rings (size 3 to 8) (size 9 to 14) (size 15 to 20)
#    0.000    2.692    1.538    1.154    0.000    3.692 
#    0.000    1.538    0.000    0.000    0.000    0.538 
#    0.000    0.000    0.000    4.615    0.000    4.615 
#
# Total GULP energy -289908.807811 kJ/mol
# GULP energy per Si atom -5575.169381 kJ/mol
# Density = 1.793506 g / cm^3
# Si number density = 17.975979 Si / 1000 Ang^3
#
#
#
# Elastic Constant Matrix: (Units=GPa)
#
#
# Indices 1 2 3 4 5 6 
#
# 1 138.9244 12.3761 87.7624 0.0000 0.0000 0.0000
# 2 12.3761 14.3410 8.1808 0.0000 0.0000 0.0000
# 3 87.7624 8.1808 152.4190 0.0000 0.0000 0.0000
# 4 0.0000 0.0000 0.0000 -0.5868 0.0000 0.0000
# 5 0.0000 0.0000 0.0000 0.0000 23.4211 0.0000
# 6 0.0000 0.0000 0.0000 0.0000 0.0000 18.3828
#
#
#
# Elastic Compliance Matrix: (Units=1/GPa)
#
#
# Indices 1 2 3 4 5 6 
#
# 1 0.011882 -0.006552 -0.006490 0.000000 0.000000 0.000000
# 2 -0.006552 0.075545 -0.000282 0.000000 0.000000 0.000000
# 3 -0.006490 -0.000282 0.010313 0.000000 0.000000 0.000000
# 4 0.000000 0.000000 0.000000 -1.704249 0.000000 0.000000
# 5 0.000000 0.000000 0.000000 0.000000 0.042697 0.000000
# 6 0.000000 0.000000 0.000000 0.000000 0.000000 0.054399
#
#
# Mechanical properties :
#
#
# Convention : Reuss Voigt Hill
#
# Bulk Modulus (GPa) = 14.06627 58.03590 36.05108
# Shear Modulus (GPa) = -3.42684 21.40110 8.98713
#
# Velocity S-wave (km/s) = -1.38220 3.45416 2.23839
# Velocity P-wave (km/s) = 2.30102 6.94720 5.17486
#
# Compressibility (1/GPa) = 0.07109205
#
# Stress axis : x y z
#
# Youngs Moduli (GPa) = 84.16412 13.23714 96.96709
#
# Poissons Ratio (x) = 0.08672 0.62929
# Poissons Ratio (y) = 0.55141 0.02738
# Poissons Ratio (z) = 0.54620 0.00374
#
# Static dielectric constant tensor:
#      x y z
#    x 1.626040 0.000000 0.000000 
#    y 0.000000 1.649550 0.000000 
#    z 0.000000 0.000000 1.611370 
# 
# From -- ./inp_files/66344.got.cif
#   From: 2010.05.17/outbox.cif.g08.bks.cpg/sg65_34_cif.got.tgz:66344.got - 2010.06.03 17:01:31.
