data_PCOD9483232
_publ_section_title
;
Structure prediction by ZEFSAII (Michael W. Deem and Ramdas Pophale) SiO2 
 PCOD9483232
Probable space group: C M M M
;
_chemical_formula_sum "Si O2"
_cell_formula_units_Z 104
_cell_length_a 27.923894
_cell_length_b 8.530527
_cell_length_c 23.305450
_cell_angle_alpha 90.000000
_cell_angle_beta 90.000000
_cell_angle_gamma 90.000000
_cell_volume 5551.487109
_symmetry_space_group_name_H-M "C M M M"
_symmetry_group_IT_number 65
_symmetry_cell_setting 'orthorhombic'
loop_
_space_group_symop_operation_xyz
x,y,z
-x,-y,z
x,-y,-z
-x,y,-z
-x,-y,-z
x,y,-z
-x,y,z
x,-y,z
1/2+x,1/2+y,z
1/2-x,1/2-y,z
1/2+x,1/2-y,-z
1/2-x,1/2+y,-z
1/2-x,1/2-y,-z
1/2+x,1/2+y,-z
1/2-x,1/2+y,z
1/2+x,1/2-y,z
loop_
_atom_site_type_symbol
_atom_site_label
_atom_site_fract_x
_atom_site_fract_y
_atom_site_fract_z
Si Si1 0.626149 0.681923 0.157603
Si Si2 0.801911 0.686685 0.065810
Si Si3 0.444647 0.689993 0.752201
Si Si4 0.405008 0.809661 0.366700
Si Si5 0.801101 0.320551 0.620014
Si Si6 0.000000 0.691145 0.565822
Si Si7 0.800738 0.318967 0.241369
O O1 0.621298 0.500000 0.143020
O O2 0.653967 0.763591 0.105754
O O3 0.576593 0.740217 0.185881
O O4 0.660948 0.708030 0.211977
O O5 0.798913 0.500000 0.065762
O O6 0.750000 0.750000 0.085717
O O7 0.808572 0.742253 0.000000
O O8 0.500000 0.736228 0.745693
O O9 0.441606 0.500000 0.749941
O O10 0.415068 0.758164 0.698606
O O11 0.354049 0.751518 0.392312
O O12 0.451518 0.758147 0.402403
O O13 0.402643 0.000000 0.367145
O O14 0.800935 0.500000 0.600237
O O15 0.750000 0.250000 0.601593
O O16 0.801519 0.317901 0.689720
O O17 0.000000 0.500000 0.567189
O O18 0.000000 0.740896 0.500000
O O19 0.807447 0.500000 0.222811
O O20 0.750000 0.250000 0.223522
#
# Coordination Sequence:
#
# PCOD9483232 Si02
#       7
#    16  16  16  16  16   8  16
#     4  11  21  32  49  72 100 134 170 210 258 312
#     4  10  21  37  56  77 103 136 175 218 261 309
#     4  10  21  35  51  75 106 138 172 212 267 324
#     4  10  18  32  54  78 106 140 180 222 268 321
#     4   9  18  29  44  69 100 137 174 209 253 312
#     4   9  18  32  55  85 111 137 176 229 278 317
#     4  10  18  28  42  64  98 131 164 202 243 298
#
# _framework density 18.733720000000002
#
# number of rings (size 3 to 8) (size 9 to 14) (size 15 to 20)
#    0.000    2.077    2.308    1.846    0.000    2.769 
#    0.000    0.000    0.000    1.846    0.000    3.231 
#    0.000    0.000    0.000    0.000    0.000    0.000 
#
# Total GULP energy -289762.282067 kJ/mol
# GULP energy per Si atom -5572.351578 kJ/mol
# Density = 1.869108 g / cm^3
# Si number density = 18.733720 Si / 1000 Ang^3
#
#
#
# Elastic Constant Matrix: (Units=GPa)
#
#
# Indices 1 2 3 4 5 6 
#
# 1 157.0200 18.7016 33.6962 0.0000 0.0000 0.0000
# 2 18.7016 18.5708 8.4639 0.0000 0.0000 0.0000
# 3 33.6962 8.4639 62.6781 0.0000 0.0000 0.0000
# 4 0.0000 0.0000 0.0000 6.4561 0.0000 0.0000
# 5 0.0000 0.0000 0.0000 0.0000 19.7571 0.0000
# 6 0.0000 0.0000 0.0000 0.0000 0.0000 19.1398
#
#
#
# Elastic Compliance Matrix: (Units=1/GPa)
#
#
# Indices 1 2 3 4 5 6 
#
# 1 0.007848 -0.006373 -0.003359 0.000000 0.000000 0.000000
# 2 -0.006373 0.062554 -0.005021 0.000000 0.000000 0.000000
# 3 -0.003359 -0.005021 0.018438 0.000000 0.000000 0.000000
# 4 0.000000 0.000000 0.000000 0.154891 0.000000 0.000000
# 5 0.000000 0.000000 0.000000 0.000000 0.050615 0.000000
# 6 0.000000 0.000000 0.000000 0.000000 0.000000 0.052247
#
#
# Mechanical properties :
#
#
# Convention : Reuss Voigt Hill
#
# Bulk Modulus (GPa) = 16.85337 39.99915 28.42626
# Shear Modulus (GPa) = 12.63015 20.89776 16.76396
#
# Velocity S-wave (km/s) = 2.59934 3.34356 2.99466
# Velocity P-wave (km/s) = 4.24554 6.02525 5.21192
#
# Compressibility (1/GPa) = 0.05933530
#
# Stress axis : x y z
#
# Youngs Moduli (GPa) = 127.41393 15.98617 54.23497
#
# Poissons Ratio (x) = 0.10188 0.18216
# Poissons Ratio (y) = 0.81199 0.27232
# Poissons Ratio (z) = 0.42796 0.08027
#
# Static dielectric constant tensor:
#      x y z
#    x 1.531290 0.000000 0.000000 
#    y 0.000000 1.650040 0.000000 
#    z 0.000000 0.000000 1.653090 
# 
# From -- ./inp_files/71807.got.cif
#   From: 2010.05.17/outbox.cif.g08.bks.cpg/sg65_36_cif.got.tgz:71807.got - 2010.06.03 17:01:31.
