data_PCOD9483699
_publ_section_title
;
Structure prediction by ZEFSAII (Michael W. Deem and Ramdas Pophale) SiO2 
 PCOD9483699
Probable space group: C M M M
;
_chemical_formula_sum "Si O2"
_cell_formula_units_Z 96
_cell_length_a 23.939802
_cell_length_b 16.796912
_cell_length_c 18.954477
_cell_angle_alpha 90.000000
_cell_angle_beta 90.000000
_cell_angle_gamma 90.000000
_cell_volume 7621.874733
_symmetry_space_group_name_H-M "C M M M"
_symmetry_group_IT_number 65
_symmetry_cell_setting 'orthorhombic'
loop_
_space_group_symop_operation_xyz
x,y,z
-x,-y,z
x,-y,-z
-x,y,-z
-x,-y,-z
x,y,-z
-x,y,z
x,-y,z
1/2+x,1/2+y,z
1/2-x,1/2-y,z
1/2+x,1/2-y,-z
1/2-x,1/2+y,-z
1/2-x,1/2-y,-z
1/2+x,1/2+y,-z
1/2-x,1/2+y,z
1/2+x,1/2-y,z
loop_
_atom_site_type_symbol
_atom_site_label
_atom_site_fract_x
_atom_site_fract_y
_atom_site_fract_z
Si Si1 0.933057 0.593061 0.500000
Si Si2 0.933419 0.404050 0.924163
Si Si3 0.874953 0.672625 0.634924
Si Si4 0.361538 0.651320 0.584865
Si Si5 0.567350 0.095120 0.231553
Si Si6 0.064035 0.000000 0.414326
Si Si7 0.235035 0.594757 0.583403
O O1 0.916900 0.500000 0.500000
O O2 0.908594 0.633800 0.569611
O O3 0.000000 0.598481 0.500000
O O4 0.927427 0.500000 0.924158
O O5 0.913288 0.378109 0.846946
O O6 0.000000 0.388565 0.924642
O O7 0.910655 0.374621 0.000000
O O8 0.875113 0.767125 0.624076
O O9 0.902664 0.642713 0.706737
O O10 0.811835 0.640433 0.627074
O O11 0.367434 0.664124 0.500000
O O12 0.402179 0.579134 0.606044
O O13 0.297587 0.625055 0.597168
O O14 0.500000 0.104764 0.236036
O O15 0.578021 0.000000 0.239346
O O16 0.063592 0.000000 0.500000
O O17 0.000000 0.000000 0.390059
O O18 0.223557 0.609044 0.500000
O O19 0.232050 0.500000 0.595226
#
# Coordination Sequence:
#
# PCOD9483699 Si02
#       7
#     8  16  16  16  16   8  16
#     4  11  22  32  37  49  79 113 144 167 186 227
#     4   7  10  19  36  54  72 101 137 165 192 230
#     4  12  20  28  41  59  78 108 141 168 203 243
#     4  10  19  33  44  60  75  95 133 183 217 248
#     4   9  17  27  37  54  84 113 137 166 198 235
#     4   9  18  32  48  60  74  96 125 175 231 262
#     4  10  18  30  47  58  74  97 135 178 220 244
#
# _framework density 12.595326999999999
#
# number of rings (size 3 to 8) (size 9 to 14) (size 15 to 20)
#    0.000    2.333    2.500    4.000    0.000    4.000 
#    0.000    0.000    0.000    0.000    0.000    0.000 
#    0.000    2.667    0.000    1.083    0.000    8.917 
#
# Total GULP energy -267359.207397 kJ/mol
# GULP energy per Si atom -5569.983487 kJ/mol
# Density = 1.256666 g / cm^3
# Si number density = 12.595327 Si / 1000 Ang^3
#
#
#
# Elastic Constant Matrix: (Units=GPa)
#
#
# Indices 1 2 3 4 5 6 
#
# 1 62.9925 42.5501 37.9066 0.0000 0.0000 0.0000
# 2 42.5501 87.5157 45.8702 0.0000 0.0000 0.0000
# 3 37.9066 45.8702 100.9154 0.0000 0.0000 0.0000
# 4 0.0000 0.0000 0.0000 5.3965 0.0000 0.0000
# 5 0.0000 0.0000 0.0000 0.0000 4.5811 0.0000
# 6 0.0000 0.0000 0.0000 0.0000 0.0000 -3.8641
#
#
#
# Elastic Compliance Matrix: (Units=1/GPa)
#
#
# Indices 1 2 3 4 5 6 
#
# 1 0.025551 -0.009704 -0.005187 0.000000 0.000000 0.000000
# 2 -0.009704 0.018686 -0.004848 0.000000 0.000000 0.000000
# 3 -0.005187 -0.004848 0.014061 0.000000 0.000000 0.000000
# 4 0.000000 0.000000 0.000000 0.185306 0.000000 0.000000
# 5 0.000000 0.000000 0.000000 0.000000 0.218290 0.000000
# 6 0.000000 0.000000 0.000000 0.000000 0.000000 -0.258794
#
#
# Mechanical properties :
#
#
# Convention : Reuss Voigt Hill
#
# Bulk Modulus (GPa) = 53.13591 56.00861 54.57226
# Shear Modulus (GPa) = 20.09225 9.56247 14.82736
#
# Velocity S-wave (km/s) = 3.99835 2.75836 3.43477
# Velocity P-wave (km/s) = 7.97460 7.39656 7.69101
#
# Compressibility (1/GPa) = 0.01881966
#
# Stress axis : x y z
#
# Youngs Moduli (GPa) = 39.13706 53.51595 71.11721
#
# Poissons Ratio (x) = 0.51935 0.36886
# Poissons Ratio (y) = 0.37981 0.34480
# Poissons Ratio (z) = 0.20299 0.25946
#
# Static dielectric constant tensor:
#      x y z
#    x 1.410640 0.000000 0.000000 
#    y 0.000000 1.400150 0.000000 
#    z 0.000000 0.000000 1.414670 
# 
# From -- ./inp_files/55988.got.cif
#   From: 2010.05.17/outbox.cif.g08.bks.cpg/sg65_28_cif.got.tgz:55988.got - 2010.06.03 17:01:31.
