data_PCOD9483809
_publ_section_title
;
Structure prediction by ZEFSAII (Michael W. Deem and Ramdas Pophale) SiO2 
 PCOD9483809
Probable space group: C M M M
;
_chemical_formula_sum "Si O2"
_cell_formula_units_Z 88
_cell_length_a 24.783317
_cell_length_b 21.518511
_cell_length_c 8.223224
_cell_angle_alpha 90.000000
_cell_angle_beta 90.000000
_cell_angle_gamma 90.000000
_cell_volume 4385.446013
_symmetry_space_group_name_H-M "C M M M"
_symmetry_group_IT_number 65
_symmetry_cell_setting 'orthorhombic'
loop_
_space_group_symop_operation_xyz
x,y,z
-x,-y,z
x,-y,-z
-x,y,-z
-x,-y,-z
x,y,-z
-x,y,z
x,-y,z
1/2+x,1/2+y,z
1/2-x,1/2-y,z
1/2+x,1/2-y,-z
1/2-x,1/2+y,-z
1/2-x,1/2-y,-z
1/2+x,1/2+y,-z
1/2-x,1/2+y,z
1/2+x,1/2-y,z
loop_
_atom_site_type_symbol
_atom_site_label
_atom_site_fract_x
_atom_site_fract_y
_atom_site_fract_z
Si Si1 0.799758 0.295007 0.697288
Si Si2 0.677846 0.932906 0.306263
Si Si3 0.064257 0.073627 0.000000
Si Si4 0.916592 0.739158 0.811337
Si Si5 0.558754 0.097264 0.195396
Si Si6 0.562475 0.631075 0.325891
O O1 0.807343 0.294617 0.500000
O O2 0.750000 0.250000 0.734380
O O3 0.796127 0.367606 0.750671
O O4 0.852989 0.267960 0.780962
O O5 0.685790 0.933997 0.500000
O O6 0.613501 0.928186 0.272382
O O7 0.696643 0.000000 0.239592
O O8 0.087943 0.101075 0.834080
O O9 0.000000 0.090520 0.000000
O O10 0.068071 0.000000 0.000000
O O11 0.939972 0.671395 0.774247
O O12 0.937076 0.795216 0.702287
O O13 0.928578 0.753452 0.000000
O O14 0.500000 0.073449 0.249242
O O15 0.562539 0.088063 0.000000
O O16 0.587899 0.615825 0.500000
O O17 0.500000 0.610146 0.332020
#
# Coordination Sequence:
#
# PCOD9483809 Si02
#       6
#    16  16   8  16  16  16
#     4   9  18  33  52  73  96 125 166 219 269 318
#     4   9  18  32  49  70  97 130 168 209 257 312
#     4   9  18  32  48  68  97 132 169 211 256 305
#     4  10  18  30  49  72 100 131 165 212 263 310
#     4   9  18  30  45  68 100 137 172 206 244 291
#     4  10  19  30  48  74 102 135 173 211 257 314
#
# _framework density 20.066372999999999
#
# number of rings (size 3 to 8) (size 9 to 14) (size 15 to 20)
#    0.000    2.636    0.909    1.091    0.000    3.273 
#    0.000    3.636    0.000    1.091    0.000    2.545 
#    0.000    0.000    0.000    0.000    0.000    0.000 
#
# Total GULP energy -245248.693798 kJ/mol
# GULP energy per Si atom -5573.833950 kJ/mol
# Density = 2.002070 g / cm^3
# Si number density = 20.066373 Si / 1000 Ang^3
#
#
#
# Elastic Constant Matrix: (Units=GPa)
#
#
# Indices 1 2 3 4 5 6 
#
# 1 59.1572 29.7971 -2.2168 0.0000 0.0000 0.0000
# 2 29.7971 80.2102 38.0404 0.0000 0.0000 0.0000
# 3 -2.2168 38.0404 82.3098 0.0000 0.0000 0.0000
# 4 0.0000 0.0000 0.0000 9.9356 0.0000 0.0000
# 5 0.0000 0.0000 0.0000 0.0000 11.9125 0.0000
# 6 0.0000 0.0000 0.0000 0.0000 0.0000 -35.7836
#
#
#
# Elastic Compliance Matrix: (Units=1/GPa)
#
#
# Indices 1 2 3 4 5 6 
#
# 1 0.022764 -0.011203 0.005791 0.000000 0.000000 0.000000
# 2 -0.011203 0.021480 -0.010229 0.000000 0.000000 0.000000
# 3 0.005791 -0.010229 0.017033 0.000000 0.000000 0.000000
# 4 0.000000 0.000000 0.000000 0.100648 0.000000 0.000000
# 5 0.000000 0.000000 0.000000 0.000000 0.083945 0.000000
# 6 0.000000 0.000000 0.000000 0.000000 0.000000 -0.027946
#
#
# Mechanical properties :
#
#
# Convention : Reuss Voigt Hill
#
# Bulk Modulus (GPa) = 33.33975 39.21319 36.27647
# Shear Modulus (GPa) = 19.28977 7.61666 13.45322
#
# Velocity S-wave (km/s) = 3.10384 1.95038 2.59209
# Velocity P-wave (km/s) = 5.43102 4.96549 5.20346
#
# Compressibility (1/GPa) = 0.02999423
#
# Stress axis : x y z
#
# Youngs Moduli (GPa) = 43.92935 46.55477 58.71100
#
# Poissons Ratio (x) = 0.52154 -0.33997
# Poissons Ratio (y) = 0.49213 0.60055
# Poissons Ratio (z) = -0.25437 0.47621
#
# Static dielectric constant tensor:
#      x y z
#    x 1.686020 0.000000 0.000000 
#    y 0.000000 1.743540 0.000000 
#    z 0.000000 0.000000 1.742880 
# 
# From -- ./inp_files/11787.got.cif
#   From: 2010.05.17/outbox.cif.g08.bks.cpg/sg65_6_cif.got.tgz:11787.got - 2010.06.03 17:01:31.
