data_PCOD9483484
_publ_section_title
;
Structure prediction by ZEFSAII (Michael W. Deem and Ramdas Pophale) SiO2 
 PCOD9483484
Probable space group: C M M M
;
_chemical_formula_sum "Si O2"
_cell_formula_units_Z 104
_cell_length_a 26.118393
_cell_length_b 9.268393
_cell_length_c 30.868767
_cell_angle_alpha 90.000000
_cell_angle_beta 90.000000
_cell_angle_gamma 90.000000
_cell_volume 7472.573158
_symmetry_space_group_name_H-M "C M M M"
_symmetry_group_IT_number 65
_symmetry_cell_setting 'orthorhombic'
loop_
_space_group_symop_operation_xyz
x,y,z
-x,-y,z
x,-y,-z
-x,y,-z
-x,-y,-z
x,y,-z
-x,y,z
x,-y,z
1/2+x,1/2+y,z
1/2-x,1/2-y,z
1/2+x,1/2-y,-z
1/2-x,1/2+y,-z
1/2-x,1/2-y,-z
1/2+x,1/2+y,-z
1/2-x,1/2+y,z
1/2+x,1/2-y,z
loop_
_atom_site_type_symbol
_atom_site_label
_atom_site_fract_x
_atom_site_fract_y
_atom_site_fract_z
Si Si1 0.937785 0.168126 0.548276
Si Si2 0.061412 0.328541 0.191847
Si Si3 0.000000 0.824894 0.950645
Si Si4 0.098121 0.825627 0.893365
Si Si5 0.937750 0.165962 0.720032
Si Si6 0.196682 0.172821 0.949842
Si Si7 0.437527 0.833763 0.366114
O O1 0.921260 0.214815 0.500000
O O2 0.920322 0.262878 0.588729
O O3 0.000000 0.173118 0.548305
O O4 0.923897 0.000000 0.554202
O O5 0.069996 0.500000 0.192780
O O6 0.089989 0.252790 0.152133
O O7 0.076564 0.255877 0.237371
O O8 0.000000 0.304774 0.186152
O O9 0.050654 0.783561 0.924352
O O10 0.000000 0.000000 0.952444
O O11 0.000000 0.771837 0.000000
O O12 0.150657 0.788258 0.917778
O O13 0.096301 0.000000 0.887572
O O14 0.920923 0.242472 0.675675
O O15 0.000000 0.164844 0.719071
O O16 0.920797 0.000000 0.722507
O O17 0.250000 0.250000 0.939464
O O18 0.203396 0.000000 0.947665
O O19 0.183226 0.208066 0.000000
O O20 0.500000 0.831181 0.366293
O O21 0.421933 0.000000 0.362592
#
# Coordination Sequence:
#
# PCOD9483484 Si02
#       7
#    16  16   8  16  16  16  16
#     4   8  13  20  28  37  51  73 102 137 178 224
#     4  10  19  29  40  56  80 104 126 154 193 237
#     4   9  16  26  43  65  85 105 131 163 192 223
#     4  10  18  29  46  65  84 107 136 164 193 234
#     4   9  16  25  37  49  63  87 119 150 181 222
#     4   9  18  32  49  68  87 108 136 167 197 231
#     4   9  15  21  29  42  59  78 104 140 183 227
#
# _framework density 13.917562
#
# number of rings (size 3 to 8) (size 9 to 14) (size 15 to 20)
#    0.000    2.846    0.769    2.308    0.000    7.077 
#    0.000    1.538    0.000    1.846    0.000    0.000 
#    0.000    0.000    0.000    0.000    0.000    0.000 
#
# Total GULP energy -289568.578402 kJ/mol
# GULP energy per Si atom -5568.626508 kJ/mol
# Density = 1.388588 g / cm^3
# Si number density = 13.917562 Si / 1000 Ang^3
#
#
#
# Elastic Constant Matrix: (Units=GPa)
#
#
# Indices 1 2 3 4 5 6 
#
# 1 42.3361 29.7389 43.2939 0.0000 0.0000 0.0000
# 2 29.7389 74.4002 73.7585 0.0000 0.0000 0.0000
# 3 43.2939 73.7585 152.1204 0.0000 0.0000 0.0000
# 4 0.0000 0.0000 0.0000 17.8488 0.0000 0.0000
# 5 0.0000 0.0000 0.0000 0.0000 6.7787 0.0000
# 6 0.0000 0.0000 0.0000 0.0000 0.0000 11.3901
#
#
#
# Elastic Compliance Matrix: (Units=1/GPa)
#
#
# Indices 1 2 3 4 5 6 
#
# 1 0.035671 -0.008076 -0.006236 0.000000 0.000000 0.000000
# 2 -0.008076 0.027710 -0.011138 0.000000 0.000000 0.000000
# 3 -0.006236 -0.011138 0.013749 0.000000 0.000000 0.000000
# 4 0.000000 0.000000 0.000000 0.056026 0.000000 0.000000
# 5 0.000000 0.000000 0.000000 0.000000 0.147520 0.000000
# 6 0.000000 0.000000 0.000000 0.000000 0.000000 0.087795
#
#
# Mechanical properties :
#
#
# Convention : Reuss Voigt Hill
#
# Bulk Modulus (GPa) = 38.12303 62.49328 50.30815
# Shear Modulus (GPa) = 11.67914 15.34122 13.51018
#
# Velocity S-wave (km/s) = 2.89998 3.32368 3.11903
# Velocity P-wave (km/s) = 6.21809 7.72846 7.01405
#
# Compressibility (1/GPa) = 0.02623086
#
# Stress axis : x y z
#
# Youngs Moduli (GPa) = 28.03428 36.08777 72.73320
#
# Poissons Ratio (x) = 0.29143 0.45359
# Poissons Ratio (y) = 0.22639 0.81007
# Poissons Ratio (z) = 0.17483 0.40193
#
# Static dielectric constant tensor:
#      x y z
#    x 1.419610 0.000000 0.000000 
#    y 0.000000 1.463320 0.000000 
#    z 0.000000 0.000000 1.464190 
# 
# From -- ./inp_files/77110.got.cif
#   From: 2010.05.17/outbox.cif.g08.bks.cpg/sg65_39_cif.got.tgz:77110.got - 2010.06.03 17:01:31.
