data_PCOD9483697
_publ_section_title
;
Structure prediction by ZEFSAII (Michael W. Deem and Ramdas Pophale) SiO2 
 PCOD9483697
Probable space group: C M M M
;
_chemical_formula_sum "Si O2"
_cell_formula_units_Z 88
_cell_length_a 8.583838
_cell_length_b 27.848364
_cell_length_c 22.049714
_cell_angle_alpha 90.000000
_cell_angle_beta 90.000000
_cell_angle_gamma 90.000000
_cell_volume 5270.892518
_symmetry_space_group_name_H-M "C M M M"
_symmetry_group_IT_number 65
_symmetry_cell_setting 'orthorhombic'
loop_
_space_group_symop_operation_xyz
x,y,z
-x,-y,z
x,-y,-z
-x,y,-z
-x,-y,-z
x,y,-z
-x,y,z
x,-y,z
1/2+x,1/2+y,z
1/2-x,1/2-y,z
1/2+x,1/2-y,-z
1/2-x,1/2+y,-z
1/2-x,1/2-y,-z
1/2+x,1/2+y,-z
1/2-x,1/2+y,z
1/2+x,1/2-y,z
loop_
_atom_site_type_symbol
_atom_site_label
_atom_site_fract_x
_atom_site_fract_y
_atom_site_fract_z
Si Si1 0.314102 0.304607 0.000000
Si Si2 0.685514 0.648905 0.247474
Si Si3 0.311322 0.054499 0.307626
Si Si4 0.813171 0.698105 0.632429
Si Si5 0.810860 0.399182 0.432814
Si Si6 0.814304 0.695624 0.873308
O O1 0.250000 0.250000 0.000000
O O2 0.251392 0.325169 0.936696
O O3 0.500000 0.304034 0.000000
O O4 0.500000 0.652475 0.244380
O O5 0.737399 0.595250 0.265701
O O6 0.747272 0.682731 0.301966
O O7 0.759186 0.665703 0.184491
O O8 0.500000 0.059115 0.304571
O O9 0.263763 0.066978 0.376994
O O10 0.269364 0.000000 0.292318
O O11 0.750000 0.750000 0.614693
O O12 0.768603 0.655126 0.586673
O O13 0.000000 0.699310 0.636059
O O14 0.753147 0.411303 0.500000
O O15 0.000000 0.401075 0.434567
O O16 0.750000 0.750000 0.866522
O O17 0.000000 0.697822 0.876434
#
# Coordination Sequence:
#
# PCOD9483697 Si02
#       6
#     8  16  16  16  16  16
#     4  10  18  30  46  70 103 138 173 202 232 272
#     4  11  21  33  49  70  95 125 162 202 243 287
#     4   9  18  33  52  73  96 121 152 195 246 296
#     4  10  19  31  46  66  93 125 160 198 239 285
#     4   8  15  28  46  69  95 122 154 192 235 288
#     4  11  20  32  49  72 103 137 170 202 238 278
#
# _framework density 16.695464999999999
#
# number of rings (size 3 to 8) (size 9 to 14) (size 15 to 20)
#    0.000    2.182    0.000    7.364    0.000    1.091 
#    0.000    1.818    0.000   13.091    0.000    5.727 
#    0.000    5.091    0.000    0.000    0.000    0.000 
#
# Total GULP energy -245483.135236 kJ/mol
# GULP energy per Si atom -5579.162164 kJ/mol
# Density = 1.665747 g / cm^3
# Si number density = 16.695465 Si / 1000 Ang^3
#
#
#
# Elastic Constant Matrix: (Units=GPa)
#
#
# Indices 1 2 3 4 5 6 
#
# 1 95.7210 21.3806 31.9531 0.0000 0.0000 0.0000
# 2 21.3806 62.7377 19.1032 0.0000 0.0000 0.0000
# 3 31.9531 19.1032 115.9665 0.0000 0.0000 0.0000
# 4 0.0000 0.0000 0.0000 7.9776 0.0000 0.0000
# 5 0.0000 0.0000 0.0000 0.0000 15.8160 0.0000
# 6 0.0000 0.0000 0.0000 0.0000 0.0000 22.2267
#
#
#
# Elastic Compliance Matrix: (Units=1/GPa)
#
#
# Indices 1 2 3 4 5 6 
#
# 1 0.012113 -0.003276 -0.002798 0.000000 0.000000 0.000000
# 2 -0.003276 0.017667 -0.002008 0.000000 0.000000 0.000000
# 3 -0.002798 -0.002008 0.009725 0.000000 0.000000 0.000000
# 4 0.000000 0.000000 0.000000 0.125350 0.000000 0.000000
# 5 0.000000 0.000000 0.000000 0.000000 0.063227 0.000000
# 6 0.000000 0.000000 0.000000 0.000000 0.000000 0.044991
#
#
# Mechanical properties :
#
#
# Convention : Reuss Voigt Hill
#
# Bulk Modulus (GPa) = 42.84185 46.58876 44.71531
# Shear Modulus (GPa) = 16.83407 22.66996 19.75202
#
# Velocity S-wave (km/s) = 3.17882 3.68890 3.44332
# Velocity P-wave (km/s) = 6.26017 6.79041 6.53067
#
# Compressibility (1/GPa) = 0.02334166
#
# Stress axis : x y z
#
# Youngs Moduli (GPa) = 82.55769 56.60228 102.82975
#
# Poissons Ratio (x) = 0.18543 0.28770
# Poissons Ratio (y) = 0.27046 0.20645
# Poissons Ratio (z) = 0.23098 0.11364
#
# Static dielectric constant tensor:
#      x y z
#    x 1.573990 0.000000 0.000000 
#    y 0.000000 1.530970 0.000000 
#    z 0.000000 0.000000 1.574920 
# 
# From -- ./inp_files/60663.got.cif
#   From: 2010.05.17/outbox.cif.g08.bks.cpg/sg65_31_cif.got.tgz:60663.got - 2010.06.03 17:01:31.
