data_PCOD9483718
_publ_section_title
;
Structure prediction by ZEFSAII (Michael W. Deem and Ramdas Pophale) SiO2 
 PCOD9483718
Probable space group: C M M M
;
_chemical_formula_sum "Si O2"
_cell_formula_units_Z 120
_cell_length_a 8.781313
_cell_length_b 28.237128
_cell_length_c 26.473408
_cell_angle_alpha 90.000000
_cell_angle_beta 90.000000
_cell_angle_gamma 90.000000
_cell_volume 6564.321341
_symmetry_space_group_name_H-M "C M M M"
_symmetry_group_IT_number 65
_symmetry_cell_setting 'orthorhombic'
loop_
_space_group_symop_operation_xyz
x,y,z
-x,-y,z
x,-y,-z
-x,y,-z
-x,-y,-z
x,y,-z
-x,y,z
x,-y,z
1/2+x,1/2+y,z
1/2-x,1/2-y,z
1/2+x,1/2-y,-z
1/2-x,1/2+y,-z
1/2-x,1/2-y,-z
1/2+x,1/2+y,-z
1/2-x,1/2+y,z
1/2+x,1/2-y,z
loop_
_atom_site_type_symbol
_atom_site_label
_atom_site_fract_x
_atom_site_fract_y
_atom_site_fract_z
Si Si1 0.815629 0.352827 0.896891
Si Si2 0.817263 0.301510 0.206725
Si Si3 0.685450 0.803043 0.000000
Si Si4 0.315537 0.054193 0.159045
Si Si5 0.680997 0.601195 0.440967
Si Si6 0.674312 0.798732 0.561403
Si Si7 0.819254 0.892524 0.254889
Si Si8 0.179535 0.445167 0.652611
O O1 0.771955 0.319699 0.849540
O O2 0.768741 0.406398 0.882430
O O3 0.000000 0.353186 0.898501
O O4 0.763843 0.331143 0.949761
O O5 0.750000 0.250000 0.216229
O O6 0.753343 0.341340 0.244121
O O7 0.000000 0.300676 0.209193
O O8 0.750000 0.750000 0.000000
O O9 0.500000 0.800762 0.000000
O O10 0.500000 0.055807 0.162991
O O11 0.247902 0.072484 0.211908
O O12 0.271444 0.000000 0.148320
O O13 0.720662 0.594438 0.500000
O O14 0.500000 0.595952 0.435753
O O15 0.730700 0.654503 0.426145
O O16 0.767641 0.566060 0.403989
O O17 0.671599 0.796361 0.500000
O O18 0.500000 0.803105 0.578706
O O19 0.750000 0.750000 0.579461
O O20 0.771175 0.912490 0.308896
O O21 0.000000 0.890053 0.249949
O O22 0.208262 0.500000 0.664812
O O23 0.000000 0.436025 0.658002
#
# Coordination Sequence:
#
# PCOD9483718 Si02
#       8
#    16  16   8  16  16  16  16  16
#     4   8  16  29  47  73 105 141 181 225 268 317
#     4  10  19  34  55  80 111 145 181 220 268 322
#     4  10  18  30  47  69 101 139 182 228 273 320
#     4   9  17  32  53  75 102 137 176 220 273 327
#     4  10  21  37  57  82 112 144 179 219 261 307
#     4   9  16  28  49  76 105 137 173 211 251 296
#     4  11  22  36  56  82 109 137 173 217 266 320
#     4  11  24  41  60  81 107 140 176 216 265 318
#
# _framework density 18.280640999999999
#
# number of rings (size 3 to 8) (size 9 to 14) (size 15 to 20)
#    0.000    2.267    0.000    4.400    0.000    5.600 
#    0.000    5.000    0.000    2.000    0.000    0.000 
#    0.000    4.800    0.000    0.000    0.000    0.000 
#
# Total GULP energy -334858.376294 kJ/mol
# GULP energy per Si atom -5580.972938 kJ/mol
# Density = 1.823903 g / cm^3
# Si number density = 18.280641 Si / 1000 Ang^3
#
#
#
# Elastic Constant Matrix: (Units=GPa)
#
#
# Indices 1 2 3 4 5 6 
#
# 1 52.8965 41.7586 23.4355 0.0000 0.0000 0.0000
# 2 41.7586 125.3982 43.5511 0.0000 0.0000 0.0000
# 3 23.4355 43.5511 65.1380 0.0000 0.0000 0.0000
# 4 0.0000 0.0000 0.0000 17.2776 0.0000 0.0000
# 5 0.0000 0.0000 0.0000 0.0000 10.3900 0.0000
# 6 0.0000 0.0000 0.0000 0.0000 0.0000 27.4013
#
#
#
# Elastic Compliance Matrix: (Units=1/GPa)
#
#
# Indices 1 2 3 4 5 6 
#
# 1 0.026741 -0.007246 -0.004776 0.000000 0.000000 0.000000
# 2 -0.007246 0.012350 -0.005650 0.000000 0.000000 0.000000
# 3 -0.004776 -0.005650 0.020848 0.000000 0.000000 0.000000
# 4 0.000000 0.000000 0.000000 0.057879 0.000000 0.000000
# 5 0.000000 0.000000 0.000000 0.000000 0.096246 0.000000
# 6 0.000000 0.000000 0.000000 0.000000 0.000000 0.036495
#
#
# Mechanical properties :
#
#
# Convention : Reuss Voigt Hill
#
# Bulk Modulus (GPa) = 40.65994 51.21368 45.93681
# Shear Modulus (GPa) = 17.00091 19.99294 18.49693
#
# Velocity S-wave (km/s) = 3.05289 3.31065 3.18438
# Velocity P-wave (km/s) = 5.89213 6.53376 6.22122
#
# Compressibility (1/GPa) = 0.02459423
#
# Stress axis : x y z
#
# Youngs Moduli (GPa) = 37.39518 80.97196 47.96608
#
# Poissons Ratio (x) = 0.58675 0.22910
# Poissons Ratio (y) = 0.27098 0.27101
# Poissons Ratio (z) = 0.17861 0.45750
#
# Static dielectric constant tensor:
#      x y z
#    x 1.619160 0.000000 0.000000 
#    y 0.000000 1.620110 0.000000 
#    z 0.000000 0.000000 1.630810 
# 
# From -- ./inp_files/73945.got.cif
#   From: 2010.05.17/outbox.cif.g08.bks.cpg/sg65_37_cif.got.tgz:73945.got - 2010.06.03 17:01:31.
