data_PCOD9483477
_publ_section_title
;
Structure prediction by ZEFSAII (Michael W. Deem and Ramdas Pophale) SiO2 
 PCOD9483477
Probable space group: C M M M
;
_chemical_formula_sum "Si O2"
_cell_formula_units_Z 56
_cell_length_a 9.848491
_cell_length_b 25.825095
_cell_length_c 13.697060
_cell_angle_alpha 90.000000
_cell_angle_beta 90.000000
_cell_angle_gamma 90.000000
_cell_volume 3483.685800
_symmetry_space_group_name_H-M "C M M M"
_symmetry_group_IT_number 65
_symmetry_cell_setting 'orthorhombic'
loop_
_space_group_symop_operation_xyz
x,y,z
-x,-y,z
x,-y,-z
-x,y,-z
-x,-y,-z
x,y,-z
-x,y,z
x,-y,z
1/2+x,1/2+y,z
1/2-x,1/2-y,z
1/2+x,1/2-y,-z
1/2-x,1/2+y,-z
1/2-x,1/2-y,-z
1/2+x,1/2+y,-z
1/2-x,1/2+y,z
1/2+x,1/2-y,z
loop_
_atom_site_type_symbol
_atom_site_label
_atom_site_fract_x
_atom_site_fract_y
_atom_site_fract_z
Si Si1 0.160962 0.199138 0.885118
Si Si2 0.213229 0.138493 0.701210
Si Si3 0.000000 0.061575 0.616212
Si Si4 0.500000 0.717908 0.616318
Si Si5 0.500000 0.161740 0.382444
O O1 0.250000 0.250000 0.861193
O O2 0.205185 0.152094 0.815581
O O3 0.000000 0.208983 0.868904
O O4 0.179965 0.188238 0.000000
O O5 0.128872 0.088659 0.667176
O O6 0.364275 0.137280 0.660925
O O7 0.131431 0.187056 0.653770
O O8 0.000000 0.074255 0.500000
O O9 0.000000 0.000000 0.626489
O O10 0.500000 0.716116 0.500000
O O11 0.500000 0.777516 0.646199
O O12 0.500000 0.158391 0.500000
#
# Coordination Sequence:
#
# PCOD9483477 Si02
#       5
#    16  16   8   8   8
#     4  10  20  33  51  77 111 146 179 213 253 309
#     4  11  20  33  51  74 103 140 176 219 261 313
#     4  10  21  39  59  75  97 134 181 231 284 333
#     4  10  18  29  45  69 105 140 169 197 247 319
#     4  11  21  30  47  77 109 137 170 210 259 319
#
# _framework density 16.074928
#
# number of rings (size 3 to 8) (size 9 to 14) (size 15 to 20)
#    0.000    1.571    2.857    6.000    2.000    2.286 
#    0.000    0.714    0.000    4.286    0.000    0.000 
#    0.000    2.286    0.000    0.000    0.000    0.000 
#
# Total GULP energy -156315.353907 kJ/mol
# GULP energy per Si atom -5582.691211 kJ/mol
# Density = 1.603834 g / cm^3
# Si number density = 16.074928 Si / 1000 Ang^3
#
#
#
# Elastic Constant Matrix: (Units=GPa)
#
#
# Indices 1 2 3 4 5 6 
#
# 1 144.0488 42.6321 43.4944 0.0000 0.0000 0.0000
# 2 42.6321 84.6100 43.6697 0.0000 0.0000 0.0000
# 3 43.4944 43.6697 96.8692 0.0000 0.0000 0.0000
# 4 0.0000 0.0000 0.0000 18.9502 0.0000 0.0000
# 5 0.0000 0.0000 0.0000 0.0000 24.2918 0.0000
# 6 0.0000 0.0000 0.0000 0.0000 0.0000 4.2861
#
#
#
# Elastic Compliance Matrix: (Units=1/GPa)
#
#
# Indices 1 2 3 4 5 6 
#
# 1 0.008594 -0.003048 -0.002485 0.000000 0.000000 0.000000
# 2 -0.003048 0.016484 -0.006063 0.000000 0.000000 0.000000
# 3 -0.002485 -0.006063 0.014172 0.000000 0.000000 0.000000
# 4 0.000000 0.000000 0.000000 0.052770 0.000000 0.000000
# 5 0.000000 0.000000 0.000000 0.000000 0.041166 0.000000
# 6 0.000000 0.000000 0.000000 0.000000 0.000000 0.233310
#
#
# Mechanical properties :
#
#
# Convention : Reuss Voigt Hill
#
# Bulk Modulus (GPa) = 62.26852 65.01336 63.64094
# Shear Modulus (GPa) = 12.65693 22.55442 17.60568
#
# Velocity S-wave (km/s) = 2.80906 3.74984 3.31301
# Velocity P-wave (km/s) = 7.02436 7.69936 7.36959
#
# Compressibility (1/GPa) = 0.01605948
#
# Stress axis : x y z
#
# Youngs Moduli (GPa) = 116.35445 60.66590 70.56190
#
# Poissons Ratio (x) = 0.18491 0.17534
# Poissons Ratio (y) = 0.35464 0.42778
# Poissons Ratio (z) = 0.28913 0.36779
#
# Static dielectric constant tensor:
#      x y z
#    x 1.541850 0.000000 0.000000 
#    y 0.000000 1.504220 0.000000 
#    z 0.000000 0.000000 1.574770 
# 
# From -- ./inp_files/35850.got.cif
#   From: 2010.05.17/outbox.cif.g08.bks.cpg/sg65_18_cif.got.tgz:35850.got - 2010.06.03 17:01:31.
