data_PCOD9483961
_publ_section_title
;
Structure prediction by ZEFSAII (Michael W. Deem and Ramdas Pophale) SiO2 
 PCOD9483961
Probable space group: C M M M
;
_chemical_formula_sum "Si O2"
_cell_formula_units_Z 88
_cell_length_a 24.984748
_cell_length_b 23.286290
_cell_length_c 8.822777
_cell_angle_alpha 90.000000
_cell_angle_beta 90.000000
_cell_angle_gamma 90.000000
_cell_volume 5133.110076
_symmetry_space_group_name_H-M "C M M M"
_symmetry_group_IT_number 65
_symmetry_cell_setting 'orthorhombic'
loop_
_space_group_symop_operation_xyz
x,y,z
-x,-y,z
x,-y,-z
-x,y,-z
-x,-y,-z
x,y,-z
-x,y,z
x,-y,z
1/2+x,1/2+y,z
1/2-x,1/2-y,z
1/2+x,1/2-y,-z
1/2-x,1/2+y,-z
1/2-x,1/2-y,-z
1/2+x,1/2+y,-z
1/2-x,1/2+y,z
1/2+x,1/2-y,z
loop_
_atom_site_type_symbol
_atom_site_label
_atom_site_fract_x
_atom_site_fract_y
_atom_site_fract_z
Si Si1 0.237223 0.932543 0.181085
Si Si2 0.647835 0.933008 0.318660
Si Si3 0.562154 0.846808 0.181240
Si Si4 0.562245 0.277277 0.682048
Si Si5 0.629664 0.611474 0.683321
Si Si6 0.061473 0.000000 0.684576
O O1 0.294478 0.916335 0.250741
O O2 0.188188 0.896705 0.247692
O O3 0.227987 0.000000 0.220272
O O4 0.239146 0.927687 0.000000
O O5 0.649717 0.928742 0.500000
O O6 0.601575 0.892888 0.253972
O O7 0.638547 0.000000 0.277910
O O8 0.500000 0.857759 0.223689
O O9 0.575452 0.782848 0.239268
O O10 0.566281 0.848926 0.000000
O O11 0.566254 0.270156 0.500000
O O12 0.500000 0.291384 0.716044
O O13 0.600299 0.329684 0.727394
O O14 0.633282 0.610225 0.500000
O O15 0.593321 0.557063 0.731058
O O16 0.060377 0.000000 0.500000
O O17 0.000000 0.000000 0.736446
#
# Coordination Sequence:
#
# PCOD9483961 Si02
#       6
#    16  16  16  16  16   8
#     4  10  20  34  52  75 107 144 179 217 266 321
#     4  10  21  37  59  84 108 135 171 216 264 313
#     4  10  21  37  57  81 110 143 174 208 258 318
#     4   9  18  33  53  77 106 142 183 224 266 312
#     4  10  18  30  51  77 105 140 183 227 268 312
#     4   9  16  26  45  75 107 137 176 227 272 309
#
# _framework density 17.143602000000001
#
# number of rings (size 3 to 8) (size 9 to 14) (size 15 to 20)
#    0.000    2.273    0.909    2.182    0.000    6.182 
#    0.000    2.727    0.000    7.636    0.000    0.000 
#    0.000    0.000    0.000    0.000    0.000    0.000 
#
# Total GULP energy -245574.580637 kJ/mol
# GULP energy per Si atom -5581.240469 kJ/mol
# Density = 1.710458 g / cm^3
# Si number density = 17.143602 Si / 1000 Ang^3
#
#
#
# Elastic Constant Matrix: (Units=GPa)
#
#
# Indices 1 2 3 4 5 6 
#
# 1 155.6140 112.8890 51.5483 0.0000 0.0000 0.0000
# 2 112.8890 121.1185 46.9264 0.0000 0.0000 0.0000
# 3 51.5483 46.9264 34.1309 0.0000 0.0000 0.0000
# 4 0.0000 0.0000 0.0000 18.7854 0.0000 0.0000
# 5 0.0000 0.0000 0.0000 0.0000 24.2843 0.0000
# 6 0.0000 0.0000 0.0000 0.0000 0.0000 27.5108
#
#
#
# Elastic Compliance Matrix: (Units=1/GPa)
#
#
# Indices 1 2 3 4 5 6 
#
# 1 0.021473 -0.015940 -0.010515 0.000000 0.000000 0.000000
# 2 -0.015940 0.029501 -0.016486 0.000000 0.000000 0.000000
# 3 -0.010515 -0.016486 0.067846 0.000000 0.000000 0.000000
# 4 0.000000 0.000000 0.000000 0.053233 0.000000 0.000000
# 5 0.000000 0.000000 0.000000 0.000000 0.041179 0.000000
# 6 0.000000 0.000000 0.000000 0.000000 0.000000 0.036349
#
#
# Mechanical properties :
#
#
# Convention : Reuss Voigt Hill
#
# Bulk Modulus (GPa) = 30.36000 81.51009 55.93504
# Shear Modulus (GPa) = 14.43244 20.74943 17.59094
#
# Velocity S-wave (km/s) = 2.90462 3.48276 3.20674
# Velocity P-wave (km/s) = 5.38487 7.98884 6.81243
#
# Compressibility (1/GPa) = 0.03293808
#
# Stress axis : x y z
#
# Youngs Moduli (GPa) = 46.57077 33.89767 14.73915
#
# Poissons Ratio (x) = 0.54032 0.15498
# Poissons Ratio (y) = 0.74233 0.24299
# Poissons Ratio (z) = 0.48969 0.55884
#
# Static dielectric constant tensor:
#      x y z
#    x 1.558920 0.000000 0.000000 
#    y 0.000000 1.559240 0.000000 
#    z 0.000000 0.000000 1.571380 
# 
# From -- ./inp_files/11716.got.cif
#   From: 2010.05.17/outbox.cif.g08.bks.cpg/sg65_6_cif.got.tgz:11716.got - 2010.06.03 17:01:31.
