data_PCOD9483597
_publ_section_title
;
Structure prediction by ZEFSAII (Michael W. Deem and Ramdas Pophale) SiO2 
 PCOD9483597
Probable space group: C M M M
;
_chemical_formula_sum "Si O2"
_cell_formula_units_Z 112
_cell_length_a 14.893400
_cell_length_b 25.404797
_cell_length_c 15.468542
_cell_angle_alpha 90.000000
_cell_angle_beta 90.000000
_cell_angle_gamma 90.000000
_cell_volume 5852.736388
_symmetry_space_group_name_H-M "C M M M"
_symmetry_group_IT_number 65
_symmetry_cell_setting 'orthorhombic'
loop_
_space_group_symop_operation_xyz
x,y,z
-x,-y,z
x,-y,-z
-x,y,-z
-x,-y,-z
x,y,-z
-x,y,z
x,-y,z
1/2+x,1/2+y,z
1/2-x,1/2-y,z
1/2+x,1/2-y,-z
1/2-x,1/2+y,-z
1/2-x,1/2-y,-z
1/2+x,1/2+y,-z
1/2-x,1/2+y,z
1/2+x,1/2-y,z
loop_
_atom_site_type_symbol
_atom_site_label
_atom_site_fract_x
_atom_site_fract_y
_atom_site_fract_z
Si Si1 0.100626 0.715030 0.861954
Si Si2 0.207094 0.376769 0.599985
Si Si3 0.604938 0.937058 0.249530
Si Si4 0.600349 0.337835 0.103772
Si Si5 0.848245 0.729980 0.325399
Si Si6 0.902568 0.158510 0.604034
Si Si7 0.216100 0.617157 0.098969
O O1 0.119482 0.776608 0.876781
O O2 0.104026 0.707513 0.758811
O O3 0.171150 0.675136 0.901768
O O4 0.000000 0.704516 0.894334
O O5 0.202550 0.393762 0.500000
O O6 0.151740 0.412168 0.666144
O O7 0.168443 0.317201 0.608075
O O8 0.311674 0.371916 0.629047
O O9 0.500000 0.921641 0.245032
O O10 0.657340 0.916545 0.164942
O O11 0.609836 0.000000 0.253623
O O12 0.500000 0.349692 0.137522
O O13 0.682529 0.373932 0.133237
O O14 0.598318 0.342751 0.000000
O O15 0.750000 0.750000 0.296491
O O16 0.895045 0.781639 0.362469
O O17 0.900107 0.160353 0.500000
O O18 0.000000 0.136866 0.631053
O O19 0.217106 0.597211 0.000000
#
# Coordination Sequence:
#
# PCOD9483597 Si02
#       7
#    16  16  16  16  16  16  16
#     4  11  20  29  48  82 122 159 193 227 267 320
#     4  10  21  38  61  85 113 152 192 232 281 335
#     4  11  26  46  64  84 109 137 181 242 297 343
#     4   9  19  34  53  83 121 157 191 224 263 322
#     4  10  18  29  48  79 120 159 193 227 266 319
#     4   9  18  32  52  84 123 158 191 225 266 325
#     4  11  22  38  61  85 113 151 190 230 280 335
#
# _framework density 19.136348000000002
#
# number of rings (size 3 to 8) (size 9 to 14) (size 15 to 20)
#    0.000    1.857    1.429    3.000    2.000    6.000 
#    0.000    1.429    0.000    1.714    0.000    4.000 
#    0.000    0.000    0.000    0.000    0.000    0.000 
#
# Total GULP energy -312611.879253 kJ/mol
# GULP energy per Si atom -5582.354987 kJ/mol
# Density = 1.909279 g / cm^3
# Si number density = 19.136348 Si / 1000 Ang^3
#
#
#
# Elastic Constant Matrix: (Units=GPa)
#
#
# Indices 1 2 3 4 5 6 
#
# 1 143.7738 54.3806 47.8267 0.0000 0.0000 0.0000
# 2 54.3806 52.7907 29.7451 0.0000 0.0000 0.0000
# 3 47.8267 29.7451 84.4923 0.0000 0.0000 0.0000
# 4 0.0000 0.0000 0.0000 -1.3810 0.0000 0.0000
# 5 0.0000 0.0000 0.0000 0.0000 24.7715 0.0000
# 6 0.0000 0.0000 0.0000 0.0000 0.0000 23.0320
#
#
#
# Elastic Compliance Matrix: (Units=1/GPa)
#
#
# Indices 1 2 3 4 5 6 
#
# 1 0.011991 -0.010638 -0.003043 0.000000 0.000000 0.000000
# 2 -0.010638 0.033068 -0.005620 0.000000 0.000000 0.000000
# 3 -0.003043 -0.005620 0.015536 0.000000 0.000000 0.000000
# 4 0.000000 0.000000 0.000000 -0.724098 0.000000 0.000000
# 5 0.000000 0.000000 0.000000 0.000000 0.040369 0.000000
# 6 0.000000 0.000000 0.000000 0.000000 0.000000 0.043418
#
#
# Mechanical properties :
#
#
# Convention : Reuss Voigt Hill
#
# Bulk Modulus (GPa) = 45.46622 60.55128 53.00875
# Shear Modulus (GPa) = -9.36708 19.22479 4.92886
#
# Velocity S-wave (km/s) = -2.21485 3.17302 1.60663
# Velocity P-wave (km/s) = 4.15571 6.71824 5.58591
#
# Compressibility (1/GPa) = 0.02199435
#
# Stress axis : x y z
#
# Youngs Moduli (GPa) = 83.39492 30.24115 64.36670
#
# Poissons Ratio (x) = 0.32170 0.19584
# Poissons Ratio (y) = 0.88715 0.36172
# Poissons Ratio (z) = 0.25373 0.16995
#
# Static dielectric constant tensor:
#      x y z
#    x 1.713980 0.000000 0.000000 
#    y 0.000000 1.629190 0.000000 
#    z 0.000000 0.000000 1.678420 
# 
# From -- ./inp_files/40807.got.cif
#   From: 2010.05.17/outbox.cif.g08.bks.cpg/sg65_21_cif.got.tgz:40807.got - 2010.06.03 17:01:31.
