data_PCOD9483335
_publ_section_title
;
Structure prediction by ZEFSAII (Michael W. Deem and Ramdas Pophale) SiO2 
 PCOD9483335
Probable space group: C M M M
;
_chemical_formula_sum "Si O2"
_cell_formula_units_Z 64
_cell_length_a 19.162315
_cell_length_b 8.330675
_cell_length_c 21.674412
_cell_angle_alpha 90.000000
_cell_angle_beta 90.000000
_cell_angle_gamma 90.000000
_cell_volume 3459.995161
_symmetry_space_group_name_H-M "C M M M"
_symmetry_group_IT_number 65
_symmetry_cell_setting 'orthorhombic'
loop_
_space_group_symop_operation_xyz
x,y,z
-x,-y,z
x,-y,-z
-x,y,-z
-x,-y,-z
x,y,-z
-x,y,z
x,-y,z
1/2+x,1/2+y,z
1/2-x,1/2-y,z
1/2+x,1/2-y,-z
1/2-x,1/2+y,-z
1/2-x,1/2-y,-z
1/2+x,1/2+y,-z
1/2-x,1/2+y,z
1/2+x,1/2-y,z
loop_
_atom_site_type_symbol
_atom_site_label
_atom_site_fract_x
_atom_site_fract_y
_atom_site_fract_z
Si Si1 0.330533 0.807780 0.566758
Si Si2 0.329963 0.691598 0.697730
Si Si3 0.328600 0.693940 0.069718
Si Si4 0.419844 0.303498 0.814734
O O1 0.360838 0.756678 0.500000
O O2 0.250000 0.750000 0.566504
O O3 0.359839 0.743745 0.631122
O O4 0.331209 0.000000 0.568974
O O5 0.328276 0.500000 0.698977
O O6 0.250000 0.750000 0.703454
O O7 0.376177 0.749724 0.754976
O O8 0.329089 0.500000 0.069733
O O9 0.250000 0.750000 0.083402
O O10 0.381118 0.748929 0.122776
O O11 0.346375 0.747809 0.000000
O O12 0.500000 0.251749 0.812526
O O13 0.419490 0.500000 0.814525
#
# Coordination Sequence:
#
# PCOD9483335 Si02
#       4
#    16  16  16  16
#     4   9  16  26  42  65  92 118 146 185 229 271
#     4  10  18  28  46  68  91 120 151 188 230 271
#     4   9  17  30  50  73  95 121 152 188 229 271
#     4   9  18  31  46  67  94 122 155 193 228 264
#
# _framework density 18.497136000000001
#
# number of rings (size 3 to 8) (size 9 to 14) (size 15 to 20)
#    0.000    2.750    0.000    3.750    0.000    2.000 
#    0.000    3.750    0.000    7.500    0.000    8.750 
#    0.000    0.000    0.000    0.000    0.000    0.000 
#
# Total GULP energy -178319.000646 kJ/mol
# GULP energy per Si atom -5572.468770 kJ/mol
# Density = 1.845504 g / cm^3
# Si number density = 18.497136 Si / 1000 Ang^3
#
#
#
# Elastic Constant Matrix: (Units=GPa)
#
#
# Indices 1 2 3 4 5 6 
#
# 1 90.9715 11.9200 106.5499 0.0000 0.0000 0.0000
# 2 11.9200 22.0109 22.7933 0.0000 0.0000 0.0000
# 3 106.5499 22.7933 207.1304 0.0000 0.0000 0.0000
# 4 0.0000 0.0000 0.0000 19.6487 0.0000 0.0000
# 5 0.0000 0.0000 0.0000 0.0000 -1.6857 0.0000
# 6 0.0000 0.0000 0.0000 0.0000 0.0000 14.3962
#
#
#
# Elastic Compliance Matrix: (Units=1/GPa)
#
#
# Indices 1 2 3 4 5 6 
#
# 1 0.027655 -0.000276 -0.014196 0.000000 0.000000 0.000000
# 2 -0.000276 0.051278 -0.005501 0.000000 0.000000 0.000000
# 3 -0.014196 -0.005501 0.012736 0.000000 0.000000 0.000000
# 4 0.000000 0.000000 0.000000 0.050894 0.000000 0.000000
# 5 0.000000 0.000000 0.000000 0.000000 -0.593228 0.000000
# 6 0.000000 0.000000 0.000000 0.000000 0.000000 0.069463
#
#
# Mechanical properties :
#
#
# Convention : Reuss Voigt Hill
#
# Bulk Modulus (GPa) = 19.33362 66.95990 43.14676
# Shear Modulus (GPa) = -15.43135 18.39514 1.48190
#
# Velocity S-wave (km/s) = -2.89148 3.15697 0.89604
# Velocity P-wave (km/s) = 0.82015 7.04041 4.94443
#
# Compressibility (1/GPa) = 0.05172338
#
# Stress axis : x y z
#
# Youngs Moduli (GPa) = 36.15929 19.50160 78.51973
#
# Poissons Ratio (x) = 0.00539 1.11465
# Poissons Ratio (y) = 0.00999 0.43191
# Poissons Ratio (z) = 0.51331 0.10727
#
# Static dielectric constant tensor:
#      x y z
#    x 1.584390 0.000000 0.000000 
#    y 0.000000 1.641370 0.000000 
#    z 0.000000 0.000000 1.690380 
# 
# From -- ./inp_files/59108.got.cif
#   From: 2010.05.17/outbox.cif.g08.bks.cpg/sg65_30_cif.got.tgz:59108.got - 2010.06.03 17:01:31.
