data_PCOD9483343
_publ_section_title
;
Structure prediction by ZEFSAII (Michael W. Deem and Ramdas Pophale) SiO2 
 PCOD9483343
Probable space group: C M M M
;
_chemical_formula_sum "Si O2"
_cell_formula_units_Z 96
_cell_length_a 14.580413
_cell_length_b 15.234055
_cell_length_c 20.990255
_cell_angle_alpha 90.000000
_cell_angle_beta 90.000000
_cell_angle_gamma 90.000000
_cell_volume 4662.330537
_symmetry_space_group_name_H-M "C M M M"
_symmetry_group_IT_number 65
_symmetry_cell_setting 'orthorhombic'
loop_
_space_group_symop_operation_xyz
x,y,z
-x,-y,z
x,-y,-z
-x,y,-z
-x,-y,-z
x,y,-z
-x,y,z
x,-y,z
1/2+x,1/2+y,z
1/2-x,1/2-y,z
1/2+x,1/2-y,-z
1/2-x,1/2+y,-z
1/2-x,1/2-y,-z
1/2+x,1/2+y,-z
1/2-x,1/2+y,z
1/2+x,1/2-y,z
loop_
_atom_site_type_symbol
_atom_site_label
_atom_site_fract_x
_atom_site_fract_y
_atom_site_fract_z
Si Si1 0.868626 0.594599 0.351992
Si Si2 0.347854 0.600814 0.321780
Si Si3 0.396509 0.904236 0.795963
Si Si4 0.612045 0.290201 0.193672
Si Si5 0.361302 0.264445 0.572831
Si Si6 0.888463 0.101586 0.929583
O O1 0.891757 0.500000 0.380374
O O2 0.759508 0.596882 0.339225
O O3 0.905359 0.599345 0.280465
O O4 0.896407 0.675283 0.395190
O O5 0.380539 0.500000 0.313975
O O6 0.359793 0.657996 0.257676
O O7 0.387930 0.655437 0.381052
O O8 0.500000 0.905258 0.823237
O O9 0.353029 0.810190 0.811311
O O10 0.353044 0.000000 0.811126
O O11 0.500000 0.286268 0.195884
O O12 0.640794 0.342574 0.130843
O O13 0.388964 0.277085 0.500000
O O14 0.250000 0.250000 0.572951
O O15 0.000000 0.102983 0.929550
O O16 0.860993 0.000000 0.922384
O O17 0.858717 0.132438 0.000000
#
# Coordination Sequence:
#
# PCOD9483343 Si02
#       6
#    16  16  16  16  16  16
#     4   9  17  30  47  66  88 112 145 189 233 269
#     4  10  19  29  44  67  91 116 150 186 223 268
#     4   9  17  29  46  67  89 113 144 184 228 268
#     4  10  18  28  46  69  93 122 151 183 221 261
#     4   9  17  29  44  63  89 117 147 185 226 268
#     4   8  14  25  41  63  92 122 150 181 217 257
#
# _framework density 20.59056
#
# number of rings (size 3 to 8) (size 9 to 14) (size 15 to 20)
#    0.000    2.833    1.667    1.000    0.000    1.667 
#    0.000    3.333    0.000    2.500    0.000    9.333 
#    0.000    4.000    0.000    0.167    0.000    0.000 
#
# Total GULP energy -267613.906066 kJ/mol
# GULP energy per Si atom -5575.289710 kJ/mol
# Density = 2.054369 g / cm^3
# Si number density = 20.590560 Si / 1000 Ang^3
#
#
#
# Elastic Constant Matrix: (Units=GPa)
#
#
# Indices 1 2 3 4 5 6 
#
# 1 52.7140 13.9221 5.6578 0.0000 0.0000 0.0000
# 2 13.9221 202.6748 100.1223 0.0000 0.0000 0.0000
# 3 5.6578 100.1223 146.5294 0.0000 0.0000 0.0000
# 4 0.0000 0.0000 0.0000 30.5899 0.0000 0.0000
# 5 0.0000 0.0000 0.0000 0.0000 11.0339 0.0000
# 6 0.0000 0.0000 0.0000 0.0000 0.0000 0.9645
#
#
#
# Elastic Compliance Matrix: (Units=1/GPa)
#
#
# Indices 1 2 3 4 5 6 
#
# 1 0.019327 -0.001448 0.000243 0.000000 0.000000 0.000000
# 2 -0.001448 0.007557 -0.005107 0.000000 0.000000 0.000000
# 3 0.000243 -0.005107 0.010305 0.000000 0.000000 0.000000
# 4 0.000000 0.000000 0.000000 0.032691 0.000000 0.000000
# 5 0.000000 0.000000 0.000000 0.000000 0.090630 0.000000
# 6 0.000000 0.000000 0.000000 0.000000 0.000000 1.036806
#
#
# Mechanical properties :
#
#
# Convention : Reuss Voigt Hill
#
# Bulk Modulus (GPa) = 40.71018 71.25809 55.98413
# Shear Modulus (GPa) = 4.10466 27.33205 15.71836
#
# Velocity S-wave (km/s) = 1.41343 3.64731 2.76593
# Velocity P-wave (km/s) = 4.74109 7.24013 6.11953
#
# Compressibility (1/GPa) = 0.02456388
#
# Stress axis : x y z
#
# Youngs Moduli (GPa) = 51.74236 132.33564 97.03973
#
# Poissons Ratio (x) = 0.19156 -0.02357
# Poissons Ratio (y) = 0.07490 0.49562
# Poissons Ratio (z) = -0.01257 0.67590
#
# Static dielectric constant tensor:
#      x y z
#    x 1.912540 0.000000 0.000000 
#    y 0.000000 1.766510 0.000000 
#    z 0.000000 0.000000 1.678030 
# 
# From -- ./inp_files/62596.got.cif
#   From: 2010.05.17/outbox.cif.g08.bks.cpg/sg65_32_cif.got.tgz:62596.got - 2010.06.03 17:01:31.
