data_PCOD9483164
_publ_section_title
;
Structure prediction by ZEFSAII (Michael W. Deem and Ramdas Pophale) SiO2 
 PCOD9483164
Probable space group: C M M M
;
_chemical_formula_sum "Si O2"
_cell_formula_units_Z 128
_cell_length_a 24.860367
_cell_length_b 15.468141
_cell_length_c 18.793313
_cell_angle_alpha 90.000000
_cell_angle_beta 90.000000
_cell_angle_gamma 90.000000
_cell_volume 7226.849403
_symmetry_space_group_name_H-M "C M M M"
_symmetry_group_IT_number 65
_symmetry_cell_setting 'orthorhombic'
loop_
_space_group_symop_operation_xyz
x,y,z
-x,-y,z
x,-y,-z
-x,y,-z
-x,-y,-z
x,y,-z
-x,y,z
x,-y,z
1/2+x,1/2+y,z
1/2-x,1/2-y,z
1/2+x,1/2-y,-z
1/2-x,1/2+y,-z
1/2-x,1/2-y,-z
1/2+x,1/2+y,-z
1/2-x,1/2+y,z
1/2+x,1/2-y,z
loop_
_atom_site_type_symbol
_atom_site_label
_atom_site_fract_x
_atom_site_fract_y
_atom_site_fract_z
Si Si1 0.234523 0.105034 0.785826
Si Si2 0.686473 0.860812 0.577986
Si Si3 0.392446 0.301862 0.578726
Si Si4 0.332033 0.604419 0.920783
Si Si5 0.561252 0.752892 0.724509
Si Si6 0.062438 0.100142 0.163971
Si Si7 0.648272 0.901982 0.733280
Si Si8 0.201146 0.101255 0.367983
O O1 0.206616 0.137192 0.857606
O O2 0.297303 0.125282 0.774659
O O3 0.204128 0.133987 0.713704
O O4 0.230983 0.000000 0.786750
O O5 0.676610 0.900596 0.500000
O O6 0.654124 0.771360 0.577803
O O7 0.664902 0.905179 0.649723
O O8 0.750363 0.854510 0.589197
O O9 0.416385 0.307507 0.500000
O O10 0.431139 0.275663 0.642587
O O11 0.357280 0.384749 0.599551
O O12 0.325186 0.500000 0.923250
O O13 0.393567 0.618778 0.896409
O O14 0.321416 0.638230 0.000000
O O15 0.500000 0.781265 0.736481
O O16 0.571165 0.668777 0.773267
O O17 0.602451 0.830230 0.741156
O O18 0.000000 0.106782 0.140889
O O19 0.071290 0.000000 0.187326
O O20 0.633200 0.000000 0.754706
O O21 0.214530 0.000000 0.368060
#
# Coordination Sequence:
#
# PCOD9483164 Si02
#       8
#    16  16  16  16  16  16  16  16
#     4   8  15  28  45  68 100 131 156 189 238 294
#     4   9  17  29  44  65  95 126 155 190 238 295
#     4  10  20  31  43  62  90 122 157 200 246 291
#     4   9  16  27  48  78 108 136 164 195 234 281
#     4  10  21  36  53  70  89 121 164 206 250 296
#     4   9  18  33  52  73  99 133 172 209 240 273
#     4   9  18  32  51  74  97 123 155 196 248 299
#     4  10  18  27  43  66  92 125 162 197 233 276
#
# _framework density 17.711728999999998
#
# number of rings (size 3 to 8) (size 9 to 14) (size 15 to 20)
#    0.000    2.750    0.000    2.625    0.000    5.000 
#    0.000    3.125    0.000    1.500    0.000    6.125 
#    0.000    0.000    0.000    7.625    0.000    0.125 
#
# Total GULP energy -356578.723453 kJ/mol
# GULP energy per Si atom -5571.542554 kJ/mol
# Density = 1.767142 g / cm^3
# Si number density = 17.711729 Si / 1000 Ang^3
#
#
#
# Elastic Constant Matrix: (Units=GPa)
#
#
# Indices 1 2 3 4 5 6 
#
# 1 70.7550 24.6785 38.8568 0.0000 0.0000 0.0000
# 2 24.6785 40.6491 19.6340 0.0000 0.0000 0.0000
# 3 38.8568 19.6340 111.9841 0.0000 0.0000 0.0000
# 4 0.0000 0.0000 0.0000 10.8882 0.0000 0.0000
# 5 0.0000 0.0000 0.0000 0.0000 16.2739 0.0000
# 6 0.0000 0.0000 0.0000 0.0000 0.0000 18.1954
#
#
#
# Elastic Compliance Matrix: (Units=1/GPa)
#
#
# Indices 1 2 3 4 5 6 
#
# 1 0.020537 -0.009861 -0.005397 0.000000 0.000000 0.000000
# 2 -0.009861 0.031612 -0.002121 0.000000 0.000000 0.000000
# 3 -0.005397 -0.002121 0.011174 0.000000 0.000000 0.000000
# 4 0.000000 0.000000 0.000000 0.091843 0.000000 0.000000
# 5 0.000000 0.000000 0.000000 0.000000 0.061448 0.000000
# 6 0.000000 0.000000 0.000000 0.000000 0.000000 0.054959
#
#
# Mechanical properties :
#
#
# Convention : Reuss Voigt Hill
#
# Bulk Modulus (GPa) = 35.00781 43.30296 39.15539
# Shear Modulus (GPa) = 15.83018 18.41942 17.12480
#
# Velocity S-wave (km/s) = 2.99284 3.22833 3.11281
# Velocity P-wave (km/s) = 5.63480 6.19661 5.92237
#
# Compressibility (1/GPa) = 0.02856506
#
# Stress axis : x y z
#
# Youngs Moduli (GPa) = 48.69359 31.63360 89.49081
#
# Poissons Ratio (x) = 0.31194 0.48298
# Poissons Ratio (y) = 0.48018 0.18979
# Poissons Ratio (z) = 0.26280 0.06709
#
# Static dielectric constant tensor:
#      x y z
#    x 1.596510 0.000000 0.000000 
#    y 0.000000 1.644600 0.000000 
#    z 0.000000 0.000000 1.620690 
# 
# From -- ./inp_files/56972.got.cif
#   From: 2010.05.17/outbox.cif.g08.bks.cpg/sg65_29_cif.got.tgz:56972.got - 2010.06.03 17:01:31.
