data_PCOD9483320
_publ_section_title
;
Structure prediction by ZEFSAII (Michael W. Deem and Ramdas Pophale) SiO2 
 PCOD9483320
Probable space group: C M M M
;
_chemical_formula_sum "Si O2"
_cell_formula_units_Z 120
_cell_length_a 29.069911
_cell_length_b 19.561124
_cell_length_c 13.185671
_cell_angle_alpha 90.000000
_cell_angle_beta 90.000000
_cell_angle_gamma 90.000000
_cell_volume 7497.901721
_symmetry_space_group_name_H-M "C M M M"
_symmetry_group_IT_number 65
_symmetry_cell_setting 'orthorhombic'
loop_
_space_group_symop_operation_xyz
x,y,z
-x,-y,z
x,-y,-z
-x,y,-z
-x,-y,-z
x,y,-z
-x,y,z
x,-y,z
1/2+x,1/2+y,z
1/2-x,1/2-y,z
1/2+x,1/2-y,-z
1/2-x,1/2+y,-z
1/2-x,1/2-y,-z
1/2+x,1/2+y,-z
1/2-x,1/2+y,z
1/2+x,1/2-y,z
loop_
_atom_site_type_symbol
_atom_site_label
_atom_site_fract_x
_atom_site_fract_y
_atom_site_fract_z
Si Si1 0.789167 0.701806 0.382270
Si Si2 0.052654 0.583080 0.000000
Si Si3 0.551888 0.681376 0.622409
Si Si4 0.132025 0.919675 0.378145
Si Si5 0.106736 0.681464 0.621724
Si Si6 0.710888 0.082495 0.113930
Si Si7 0.389617 0.917771 0.801432
Si Si8 0.766415 0.081716 0.695142
O O1 0.792053 0.721274 0.500000
O O2 0.750000 0.750000 0.333625
O O3 0.841745 0.706499 0.348484
O O4 0.769229 0.625411 0.371267
O O5 0.078782 0.603227 0.896949
O O6 0.053249 0.500000 0.000000
O O7 0.000000 0.606020 0.000000
O O8 0.550128 0.673584 0.500000
O O9 0.500000 0.671714 0.661119
O O10 0.589789 0.626691 0.658070
O O11 0.571262 0.757193 0.640631
O O12 0.136436 0.911499 0.500000
O O13 0.181327 0.900228 0.331678
O O14 0.123818 0.000000 0.357873
O O15 0.106627 0.665733 0.500000
O O16 0.097236 0.618556 0.696552
O O17 0.662561 0.100844 0.166197
O O18 0.752183 0.099224 0.189827
O O19 0.710021 0.000000 0.106878
O O20 0.714471 0.109862 0.000000
O O21 0.391890 0.000000 0.790782
O O22 0.760887 0.000000 0.679295
#
# Coordination Sequence:
#
# PCOD9483320 Si02
#       8
#    16   8  16  16  16  16  16  16
#     4  10  19  29  42  63  94 131 165 193 225 271
#     4   9  18  32  52  74  91 114 159 219 265 288
#     4   9  18  33  50  67  92 128 166 201 244 296
#     4   9  17  29  47  74 103 125 153 198 243 286
#     4  10  20  31  45  69  99 132 169 201 235 289
#     4   9  16  28  46  68  94 127 161 196 238 283
#     4  10  18  31  49  70  99 129 164 208 247 285
#     4  10  18  28  45  70  97 127 159 191 233 280
#
# _framework density 16.004477000000001
#
# number of rings (size 3 to 8) (size 9 to 14) (size 15 to 20)
#    0.000    2.467    2.000    1.200    0.000    4.000 
#    0.000    2.667    0.000    0.400    5.200    3.733 
#    0.000    0.000    0.000    5.200    0.000    0.133 
#
# Total GULP energy -334036.219739 kJ/mol
# GULP energy per Si atom -5567.270329 kJ/mol
# Density = 1.596805 g / cm^3
# Si number density = 16.004477 Si / 1000 Ang^3
#
#
#
# Elastic Constant Matrix: (Units=GPa)
#
#
# Indices 1 2 3 4 5 6 
#
# 1 115.0868 31.9358 29.0315 0.0000 0.0000 0.0000
# 2 31.9358 30.3355 20.7083 0.0000 0.0000 0.0000
# 3 29.0315 20.7083 59.2056 0.0000 0.0000 0.0000
# 4 0.0000 0.0000 0.0000 8.9950 0.0000 0.0000
# 5 0.0000 0.0000 0.0000 0.0000 8.4133 0.0000
# 6 0.0000 0.0000 0.0000 0.0000 0.0000 16.7189
#
#
#
# Elastic Compliance Matrix: (Units=1/GPa)
#
#
# Indices 1 2 3 4 5 6 
#
# 1 0.012452 -0.011745 -0.001998 0.000000 0.000000 0.000000
# 2 -0.011745 0.054383 -0.013262 0.000000 0.000000 0.000000
# 3 -0.001998 -0.013262 0.022509 0.000000 0.000000 0.000000
# 4 0.000000 0.000000 0.000000 0.111173 0.000000 0.000000
# 5 0.000000 0.000000 0.000000 0.000000 0.118859 0.000000
# 6 0.000000 0.000000 0.000000 0.000000 0.000000 0.059813
#
#
# Mechanical properties :
#
#
# Convention : Reuss Voigt Hill
#
# Bulk Modulus (GPa) = 28.30201 40.88658 34.59429
# Shear Modulus (GPa) = 11.23653 15.02226 13.12939
#
# Velocity S-wave (km/s) = 2.65257 3.06703 2.86730
# Velocity P-wave (km/s) = 5.20612 6.17613 5.71176
#
# Compressibility (1/GPa) = 0.03533318
#
# Stress axis : x y z
#
# Youngs Moduli (GPa) = 80.30630 18.38809 44.42744
#
# Poissons Ratio (x) = 0.21598 0.08876
# Poissons Ratio (y) = 0.94323 0.58920
# Poissons Ratio (z) = 0.16044 0.24387
#
# Static dielectric constant tensor:
#      x y z
#    x 1.551850 0.000000 0.000000 
#    y 0.000000 1.552060 0.000000 
#    z 0.000000 0.000000 1.540050 
# 
# From -- ./inp_files/34285.got.cif
#   From: 2010.05.17/outbox.cif.g08.bks.cpg/sg65_18_cif.got.tgz:34285.got - 2010.06.03 17:01:31.
