data_PCOD9483819
_publ_section_title
;
Structure prediction by ZEFSAII (Michael W. Deem and Ramdas Pophale) SiO2 
 PCOD9483819
Probable space group: C M M M
;
_chemical_formula_sum "Si O2"
_cell_formula_units_Z 72
_cell_length_a 14.587037
_cell_length_b 10.457554
_cell_length_c 22.180056
_cell_angle_alpha 90.000000
_cell_angle_beta 90.000000
_cell_angle_gamma 90.000000
_cell_volume 3383.450590
_symmetry_space_group_name_H-M "C M M M"
_symmetry_group_IT_number 65
_symmetry_cell_setting 'orthorhombic'
loop_
_space_group_symop_operation_xyz
x,y,z
-x,-y,z
x,-y,-z
-x,y,-z
-x,-y,-z
x,y,-z
-x,y,z
x,-y,z
1/2+x,1/2+y,z
1/2-x,1/2-y,z
1/2+x,1/2-y,-z
1/2-x,1/2+y,-z
1/2-x,1/2-y,-z
1/2+x,1/2+y,-z
1/2-x,1/2+y,z
1/2+x,1/2-y,z
loop_
_atom_site_type_symbol
_atom_site_label
_atom_site_fract_x
_atom_site_fract_y
_atom_site_fract_z
Si Si1 0.862455 0.500000 0.569732
Si Si2 0.858129 0.750789 0.362242
Si Si3 0.388062 0.853205 0.899789
Si Si4 0.888028 0.148930 0.000000
Si Si5 0.390075 0.857167 0.762648
Si Si6 0.361978 0.500000 0.430290
O O1 0.889954 0.500000 0.500000
O O2 0.894725 0.375684 0.605545
O O3 0.750320 0.500000 0.570042
O O4 0.750000 0.750000 0.373797
O O5 0.868983 0.740396 0.290525
O O6 0.894079 0.876161 0.394315
O O7 0.500000 0.854698 0.901555
O O8 0.359871 0.737032 0.943042
O O9 0.358766 0.829413 0.830642
O O10 0.360423 0.000000 0.916730
O O11 0.000000 0.144183 0.000000
O O12 0.857163 0.000000 0.000000
O O13 0.500000 0.864026 0.765876
O O14 0.355572 0.000000 0.745691
O O15 0.389385 0.500000 0.500000
#
# Coordination Sequence:
#
# PCOD9483819 Si02
#       6
#     8  16  16   8  16   8
#     4   9  16  28  49  71  91 118 155 200 238 271
#     4  10  18  30  49  72  96 121 155 197 236 279
#     4   8  14  25  42  62  85 117 153 188 226 267
#     4   9  15  23  37  61  92 119 148 187 225 265
#     4   9  17  31  50  70  94 125 161 196 230 273
#     4   9  18  30  45  69  95 120 153 194 242 285
#
# _framework density 21.280052000000001
#
# number of rings (size 3 to 8) (size 9 to 14) (size 15 to 20)
#    0.000    3.000    1.111    2.333    0.000    4.000 
#    2.000    0.556    0.000    4.000    0.000    0.778 
#    0.000    0.000    0.000    0.000    0.000    0.000 
#
# Total GULP energy -200815.352179 kJ/mol
# GULP energy per Si atom -5578.204227 kJ/mol
# Density = 2.123162 g / cm^3
# Si number density = 21.280052 Si / 1000 Ang^3
#
#
#
# Elastic Constant Matrix: (Units=GPa)
#
#
# Indices 1 2 3 4 5 6 
#
# 1 58.0183 9.4971 -3.0221 0.0000 0.0000 0.0000
# 2 9.4971 212.9243 130.6063 0.0000 0.0000 0.0000
# 3 -3.0221 130.6063 176.1780 0.0000 0.0000 0.0000
# 4 0.0000 0.0000 0.0000 -20.4665 0.0000 0.0000
# 5 0.0000 0.0000 0.0000 0.0000 12.7494 0.0000
# 6 0.0000 0.0000 0.0000 0.0000 0.0000 -15.9195
#
#
#
# Elastic Compliance Matrix: (Units=1/GPa)
#
#
# Indices 1 2 3 4 5 6 
#
# 1 0.017612 -0.001780 0.001622 0.000000 0.000000 0.000000
# 2 -0.001780 0.008793 -0.006549 0.000000 0.000000 0.000000
# 3 0.001622 -0.006549 0.010559 0.000000 0.000000 0.000000
# 4 0.000000 0.000000 0.000000 -0.048860 0.000000 0.000000
# 5 0.000000 0.000000 0.000000 0.000000 0.078435 0.000000
# 6 0.000000 0.000000 0.000000 0.000000 0.000000 -0.062816
#
#
# Mechanical properties :
#
#
# Convention : Reuss Voigt Hill
#
# Bulk Modulus (GPa) = 42.46504 80.14257 61.30380
# Shear Modulus (GPa) = 200.09879 15.94196 108.02038
#
# Velocity S-wave (km/s) = 9.70749 2.74003 7.13243
# Velocity P-wave (km/s) = 12.06838 6.91035 9.83358
#
# Compressibility (1/GPa) = 0.02354878
#
# Stress axis : x y z
#
# Youngs Moduli (GPa) = 56.77986 113.72498 94.70579
#
# Poissons Ratio (x) = 0.20249 -0.15362
# Poissons Ratio (y) = 0.10110 0.62025
# Poissons Ratio (z) = -0.09210 0.74481
#
# Static dielectric constant tensor:
#      x y z
#    x 1.815400 0.000000 0.000000 
#    y 0.000000 1.854320 0.000000 
#    z 0.000000 0.000000 1.754800 
# 
# From -- ./inp_files/59336.got.cif
#   From: 2010.05.17/outbox.cif.g08.bks.cpg/sg65_30_cif.got.tgz:59336.got - 2010.06.03 17:01:31.
