data_PCOD9483953
_publ_section_title
;
Structure prediction by ZEFSAII (Michael W. Deem and Ramdas Pophale) SiO2 
 PCOD9483953
Probable space group: C M M M
;
_chemical_formula_sum "Si O2"
_cell_formula_units_Z 116
_cell_length_a 32.002763
_cell_length_b 7.681527
_cell_length_c 22.781800
_cell_angle_alpha 90.000000
_cell_angle_beta 90.000000
_cell_angle_gamma 90.000000
_cell_volume 5600.451900
_symmetry_space_group_name_H-M "C M M M"
_symmetry_group_IT_number 65
_symmetry_cell_setting 'orthorhombic'
loop_
_space_group_symop_operation_xyz
x,y,z
-x,-y,z
x,-y,-z
-x,y,-z
-x,-y,-z
x,y,-z
-x,y,z
x,-y,z
1/2+x,1/2+y,z
1/2-x,1/2-y,z
1/2+x,1/2-y,-z
1/2-x,1/2+y,-z
1/2-x,1/2-y,-z
1/2+x,1/2+y,-z
1/2-x,1/2+y,z
1/2+x,1/2-y,z
loop_
_atom_site_type_symbol
_atom_site_label
_atom_site_fract_x
_atom_site_fract_y
_atom_site_fract_z
Si Si1 0.795367 0.708161 0.890616
Si Si2 0.115333 0.286942 0.065548
Si Si3 0.613073 0.287470 0.598495
Si Si4 0.322389 0.201453 0.235069
Si Si5 0.294650 0.705555 0.639875
Si Si6 0.593774 0.000000 0.500000
Si Si7 0.545923 0.202554 0.155372
Si Si8 0.413022 0.696566 0.728824
O O1 0.797487 0.500000 0.890739
O O2 0.750000 0.750000 0.915578
O O3 0.837271 0.772606 0.922021
O O4 0.798923 0.767872 0.822523
O O5 0.116430 0.500000 0.067951
O O6 0.083060 0.223809 0.115017
O O7 0.102263 0.237627 0.000000
O O8 0.608934 0.500000 0.588289
O O9 0.663032 0.248674 0.605249
O O10 0.592107 0.245396 0.661622
O O11 0.595530 0.156040 0.550674
O O12 0.297143 0.210591 0.295589
O O13 0.365722 0.298310 0.246480
O O14 0.333901 0.000000 0.224326
O O15 0.296616 0.500000 0.649084
O O16 0.250000 0.750000 0.611793
O O17 0.500000 0.281057 0.146715
O O18 0.558941 0.208506 0.223510
O O19 0.543294 0.000000 0.138777
O O20 0.428506 0.500000 0.727139
#
# Coordination Sequence:
#
# PCOD9483953 Si02
#       8
#    16  16  16  16  16   4  16  16
#     4  10  20  32  48  75 107 148 198 249 301 353
#     4   9  18  35  55  78 115 159 200 248 304 356
#     4   9  22  38  55  85 116 150 205 254 292 367
#     4  10  18  30  51  76 106 142 186 248 305 364
#     4  10  20  32  49  72 107 144 193 249 305 359
#     4  12  22  36  66  82 111 170 200 242 304 354
#     4  10  20  35  60  92 121 150 193 245 296 367
#     4  10  20  35  57  85 118 151 187 242 300 353
#
# _framework density 20.712613000000001
#
# number of rings (size 3 to 8) (size 9 to 14) (size 15 to 20)
#    0.000    2.207    1.379    2.690    5.793    3.034 
#    0.000    1.724    0.000    1.241    0.000    1.931 
#    0.000    2.207    0.000    0.000    0.000    0.000 
#
# Total GULP energy -322932.635266 kJ/mol
# GULP energy per Si atom -5567.804056 kJ/mol
# Density = 2.066547 g / cm^3
# Si number density = 20.712613 Si / 1000 Ang^3
#
#
#
# Elastic Constant Matrix: (Units=GPa)
#
#
# Indices 1 2 3 4 5 6 
#
# 1 100.4445 10.2710 47.2398 0.0000 0.0000 0.0000
# 2 10.2710 53.6195 27.4133 0.0000 0.0000 0.0000
# 3 47.2398 27.4133 103.1178 0.0000 0.0000 0.0000
# 4 0.0000 0.0000 0.0000 -153.7449 0.0000 0.0000
# 5 0.0000 0.0000 0.0000 0.0000 6.4754 0.0000
# 6 0.0000 0.0000 0.0000 0.0000 0.0000 11.6213
#
#
#
# Elastic Compliance Matrix: (Units=1/GPa)
#
#
# Indices 1 2 3 4 5 6 
#
# 1 0.012708 0.000627 -0.005989 0.000000 0.000000 0.000000
# 2 0.000627 0.021614 -0.006033 0.000000 0.000000 0.000000
# 3 -0.005989 -0.006033 0.014045 0.000000 0.000000 0.000000
# 4 0.000000 0.000000 0.000000 -0.006504 0.000000 0.000000
# 5 0.000000 0.000000 0.000000 0.000000 0.154430 0.000000
# 6 0.000000 0.000000 0.000000 0.000000 0.000000 0.086049
#
#
# Mechanical properties :
#
#
# Convention : Reuss Voigt Hill
#
# Bulk Modulus (GPa) = 39.09571 47.44779 43.27175
# Shear Modulus (GPa) = 15.94094 -15.64578 0.14758
#
# Velocity S-wave (km/s) = 2.77722 -2.75139 0.26722
# Velocity P-wave (km/s) = 5.40372 3.58663 4.58607
#
# Compressibility (1/GPa) = 0.02557826
#
# Stress axis : x y z
#
# Youngs Moduli (GPa) = 78.69034 46.26541 71.19944
#
# Poissons Ratio (x) = -0.02903 0.42638
# Poissons Ratio (y) = -0.04937 0.42958
# Poissons Ratio (z) = 0.47124 0.27914
#
# Static dielectric constant tensor:
#      x y z
#    x 1.763120 0.000000 0.000000 
#    y 0.000000 1.789810 0.000000 
#    z 0.000000 0.000000 1.735650 
# 
# From -- ./inp_files/72264.got.cif
#   From: 2010.05.17/outbox.cif.g08.bks.cpg/sg65_37_cif.got.tgz:72264.got - 2010.06.03 17:01:31.
