data_PCOD9483623
_publ_section_title
;
Structure prediction by ZEFSAII (Michael W. Deem and Ramdas Pophale) SiO2 
 PCOD9483623
Probable space group: C M M M
;
_chemical_formula_sum "Si O2"
_cell_formula_units_Z 120
_cell_length_a 14.636757
_cell_length_b 21.076406
_cell_length_c 21.294889
_cell_angle_alpha 90.000000
_cell_angle_beta 90.000000
_cell_angle_gamma 90.000000
_cell_volume 6569.265270
_symmetry_space_group_name_H-M "C M M M"
_symmetry_group_IT_number 65
_symmetry_cell_setting 'orthorhombic'
loop_
_space_group_symop_operation_xyz
x,y,z
-x,-y,z
x,-y,-z
-x,y,-z
-x,-y,-z
x,y,-z
-x,y,z
x,-y,z
1/2+x,1/2+y,z
1/2-x,1/2-y,z
1/2+x,1/2-y,-z
1/2-x,1/2+y,-z
1/2-x,1/2-y,-z
1/2+x,1/2+y,-z
1/2-x,1/2+y,z
1/2+x,1/2-y,z
loop_
_atom_site_type_symbol
_atom_site_label
_atom_site_fract_x
_atom_site_fract_y
_atom_site_fract_z
Si Si1 0.100257 0.500000 0.923550
Si Si2 0.095584 0.122682 0.927679
Si Si3 0.890994 0.801750 0.254632
Si Si4 0.889779 0.926039 0.673446
Si Si5 0.610453 0.769941 0.615943
Si Si6 0.710111 0.121729 0.923676
Si Si7 0.394111 0.242543 0.124249
Si Si8 0.279868 0.350618 0.427491
O O1 0.146475 0.564589 0.904701
O O2 0.000000 0.500000 0.898505
O O3 0.099909 0.500000 0.000000
O O4 0.190178 0.101980 0.899495
O O5 0.102053 0.199023 0.924329
O O6 0.000000 0.104027 0.896527
O O7 0.092866 0.101922 0.000000
O O8 0.862389 0.872645 0.274826
O O9 0.874060 0.753667 0.312274
O O10 0.859089 0.773110 0.189128
O O11 0.000000 0.805860 0.247169
O O12 0.829152 0.904721 0.613698
O O13 0.000000 0.917759 0.661420
O O14 0.875641 0.000000 0.689489
O O15 0.500000 0.779549 0.606692
O O16 0.650654 0.709844 0.577343
O O17 0.681110 0.826646 0.599300
O O18 0.670512 0.187023 0.898642
O O19 0.714130 0.126228 0.000000
O O20 0.500000 0.220223 0.131352
O O21 0.268813 0.368182 0.500000
#
# Coordination Sequence:
#
# PCOD9483623 Si02
#       8
#     8  16  16  16  16  16  16  16
#     4   9  18  32  51  73 101 137 168 202 254 316
#     4   9  18  32  48  69 100 133 166 213 268 312
#     4   8  16  31  50  74 101 130 171 213 253 304
#     4   9  18  34  54  74 102 138 168 205 260 314
#     4   9  17  31  48  69 102 143 174 207 256 303
#     4  10  19  32  49  74 105 136 172 212 261 318
#     4  10  18  29  49  76 102 129 165 216 267 308
#     4  10  19  29  46  77 107 131 167 214 254 303
#
# _framework density 18.266883
#
# number of rings (size 3 to 8) (size 9 to 14) (size 15 to 20)
#    0.000    2.733    0.000    3.200    0.000    4.533 
#    9.600    1.000    1.467    2.400    0.000    0.933 
#    0.000    0.000    0.000    0.267    0.000    0.000 
#
# Total GULP energy -334032.432853 kJ/mol
# GULP energy per Si atom -5567.207214 kJ/mol
# Density = 1.822531 g / cm^3
# Si number density = 18.266883 Si / 1000 Ang^3
#
#
#
# Elastic Constant Matrix: (Units=GPa)
#
#
# Indices 1 2 3 4 5 6 
#
# 1 135.7037 36.0559 18.5983 0.0000 0.0000 0.0000
# 2 36.0559 56.6202 16.0825 0.0000 0.0000 0.0000
# 3 18.5983 16.0825 60.2909 0.0000 0.0000 0.0000
# 4 0.0000 0.0000 0.0000 7.7727 0.0000 0.0000
# 5 0.0000 0.0000 0.0000 0.0000 14.6716 0.0000
# 6 0.0000 0.0000 0.0000 0.0000 0.0000 27.2525
#
#
#
# Elastic Compliance Matrix: (Units=1/GPa)
#
#
# Indices 1 2 3 4 5 6 
#
# 1 0.008969 -0.005330 -0.001345 0.000000 0.000000 0.000000
# 2 -0.005330 0.022276 -0.004298 0.000000 0.000000 0.000000
# 3 -0.001345 -0.004298 0.018148 0.000000 0.000000 0.000000
# 4 0.000000 0.000000 0.000000 0.128656 0.000000 0.000000
# 5 0.000000 0.000000 0.000000 0.000000 0.068159 0.000000
# 6 0.000000 0.000000 0.000000 0.000000 0.000000 0.036694
#
#
# Mechanical properties :
#
#
# Convention : Reuss Voigt Hill
#
# Bulk Modulus (GPa) = 36.43308 43.78758 40.11033
# Shear Modulus (GPa) = 15.92372 22.06456 18.99414
#
# Velocity S-wave (km/s) = 2.95570 3.47926 3.22811
# Velocity P-wave (km/s) = 5.62463 6.33746 5.99165
#
# Compressibility (1/GPa) = 0.02744758
#
# Stress axis : x y z
#
# Youngs Moduli (GPa) = 111.48990 44.89067 55.10333
#
# Poissons Ratio (x) = 0.23925 0.07412
# Poissons Ratio (y) = 0.59420 0.23684
# Poissons Ratio (z) = 0.14997 0.19295
#
# Static dielectric constant tensor:
#      x y z
#    x 1.682520 0.000000 0.000000 
#    y 0.000000 1.600720 0.000000 
#    z 0.000000 0.000000 1.659140 
# 
# From -- ./inp_files/63025.got.cif
#   From: 2010.05.17/outbox.cif.g08.bks.cpg/sg65_32_cif.got.tgz:63025.got - 2010.06.03 17:01:31.
