data_PCOD9483457
_publ_section_title
;
Structure prediction by ZEFSAII (Michael W. Deem and Ramdas Pophale) SiO2 
 PCOD9483457
Probable space group: C M M M
;
_chemical_formula_sum "Si O2"
_cell_formula_units_Z 80
_cell_length_a 25.330323
_cell_length_b 18.021967
_cell_length_c 12.169598
_cell_angle_alpha 90.000000
_cell_angle_beta 90.000000
_cell_angle_gamma 90.000000
_cell_volume 5555.448810
_symmetry_space_group_name_H-M "C M M M"
_symmetry_group_IT_number 65
_symmetry_cell_setting 'orthorhombic'
loop_
_space_group_symop_operation_xyz
x,y,z
-x,-y,z
x,-y,-z
-x,y,-z
-x,-y,-z
x,y,-z
-x,y,z
x,-y,z
1/2+x,1/2+y,z
1/2-x,1/2-y,z
1/2+x,1/2-y,-z
1/2-x,1/2+y,-z
1/2-x,1/2-y,-z
1/2+x,1/2+y,-z
1/2-x,1/2+y,z
1/2+x,1/2-y,z
loop_
_atom_site_type_symbol
_atom_site_label
_atom_site_fract_x
_atom_site_fract_y
_atom_site_fract_z
Si Si1 0.686922 0.755799 0.000000
Si Si2 0.859384 0.668725 0.629510
Si Si3 0.368820 0.085559 0.000000
Si Si4 0.438924 0.913513 0.780692
Si Si5 0.693430 0.292730 0.763325
Si Si6 0.248299 0.911850 0.372188
O O1 0.750000 0.750000 0.000000
O O2 0.670675 0.715720 0.113612
O O3 0.669818 0.842813 0.000000
O O4 0.866980 0.673481 0.500000
O O5 0.909478 0.634836 0.690224
O O6 0.843847 0.747336 0.681526
O O7 0.808037 0.616223 0.650402
O O8 0.405588 0.092504 0.892877
O O9 0.346513 0.000000 0.000000
O O10 0.500000 0.893058 0.797693
O O11 0.437285 0.000000 0.747493
O O12 0.750000 0.250000 0.763495
O O13 0.708757 0.371685 0.711975
O O14 0.236835 0.890567 0.500000
O O15 0.246111 0.000000 0.362988
#
# Coordination Sequence:
#
# PCOD9483457 Si02
#       6
#     8  16   8  16  16  16
#     4  10  18  31  45  68  90 114 148 189 229 271
#     4  10  18  29  45  64  89 123 156 186 227 273
#     4  10  19  34  52  65  85 125 164 188 220 268
#     4  10  20  32  46  65  88 117 157 199 229 258
#     4   9  17  29  44  63  88 117 150 187 227 270
#     4   9  17  29  45  65  90 122 158 186 215 271
#
# _framework density 14.400277000000001
#
# number of rings (size 3 to 8) (size 9 to 14) (size 15 to 20)
#    0.000    2.400    2.000    1.500    0.000    5.200 
#    0.000    1.500    0.000    0.000    0.000    0.000 
#    0.000    0.800    0.000    6.000    0.000    0.000 
#
# Total GULP energy -222755.109615 kJ/mol
# GULP energy per Si atom -5568.877740 kJ/mol
# Density = 1.436750 g / cm^3
# Si number density = 14.400277 Si / 1000 Ang^3
#
#
#
# Elastic Constant Matrix: (Units=GPa)
#
#
# Indices 1 2 3 4 5 6 
#
# 1 53.6160 29.9844 22.2255 0.0000 0.0000 0.0000
# 2 29.9844 58.3299 29.1959 0.0000 0.0000 0.0000
# 3 22.2255 29.1959 68.1270 0.0000 0.0000 0.0000
# 4 0.0000 0.0000 0.0000 22.3022 0.0000 0.0000
# 5 0.0000 0.0000 0.0000 0.0000 8.5905 0.0000
# 6 0.0000 0.0000 0.0000 0.0000 0.0000 23.2917
#
#
#
# Elastic Compliance Matrix: (Units=1/GPa)
#
#
# Indices 1 2 3 4 5 6 
#
# 1 0.026861 -0.011994 -0.003623 0.000000 0.000000 0.000000
# 2 -0.011994 0.027182 -0.007736 0.000000 0.000000 0.000000
# 3 -0.003623 -0.007736 0.019175 0.000000 0.000000 0.000000
# 4 0.000000 0.000000 0.000000 0.044839 0.000000 0.000000
# 5 0.000000 0.000000 0.000000 0.000000 0.116408 0.000000
# 6 0.000000 0.000000 0.000000 0.000000 0.000000 0.042934
#
#
# Mechanical properties :
#
#
# Convention : Reuss Voigt Hill
#
# Bulk Modulus (GPa) = 37.71866 38.09828 37.90847
# Shear Modulus (GPa) = 15.01767 17.41468 16.21617
#
# Velocity S-wave (km/s) = 3.23286 3.48131 3.35938
# Velocity P-wave (km/s) = 6.33917 6.53249 6.43656
#
# Compressibility (1/GPa) = 0.02651208
#
# Stress axis : x y z
#
# Youngs Moduli (GPa) = 37.22913 36.78968 52.14999
#
# Poissons Ratio (x) = 0.44127 0.18892
# Poissons Ratio (y) = 0.44654 0.40341
# Poissons Ratio (z) = 0.13487 0.28459
#
# Static dielectric constant tensor:
#      x y z
#    x 1.455520 0.000000 0.000000 
#    y 0.000000 1.466940 0.000000 
#    z 0.000000 0.000000 1.512860 
# 
# From -- ./inp_files/26672.got.cif
#   From: 2010.05.17/outbox.cif.g08.bks.cpg/sg65_14_cif.got.tgz:26672.got - 2010.06.03 17:01:31.
