data_PCOD9483977
_publ_section_title
;
Structure prediction by ZEFSAII (Michael W. Deem and Ramdas Pophale) SiO2 
 PCOD9483977
Probable space group: C M M M
;
_chemical_formula_sum "Si O2"
_cell_formula_units_Z 80
_cell_length_a 18.354013
_cell_length_b 8.860631
_cell_length_c 26.512611
_cell_angle_alpha 90.000000
_cell_angle_beta 90.000000
_cell_angle_gamma 90.000000
_cell_volume 4311.696522
_symmetry_space_group_name_H-M "C M M M"
_symmetry_group_IT_number 65
_symmetry_cell_setting 'orthorhombic'
loop_
_space_group_symop_operation_xyz
x,y,z
-x,-y,z
x,-y,-z
-x,y,-z
-x,-y,-z
x,y,-z
-x,y,z
x,-y,z
1/2+x,1/2+y,z
1/2-x,1/2-y,z
1/2+x,1/2-y,-z
1/2-x,1/2+y,-z
1/2-x,1/2-y,-z
1/2+x,1/2+y,-z
1/2-x,1/2+y,z
1/2+x,1/2-y,z
loop_
_atom_site_type_symbol
_atom_site_label
_atom_site_fract_x
_atom_site_fract_y
_atom_site_fract_z
Si Si1 0.085490 0.179947 0.706312
Si Si2 0.587139 0.679062 0.894363
Si Si3 0.169289 0.180637 0.602673
Si Si4 0.911398 0.326012 0.000000
Si Si5 0.669877 0.820562 0.200230
Si Si6 0.668017 0.180904 0.500000
O O1 0.121923 0.210701 0.652235
O O2 0.125900 0.268166 0.750464
O O3 0.000000 0.215692 0.705577
O O4 0.093234 0.000000 0.715993
O O5 0.500000 0.705007 0.889344
O O6 0.599497 0.500000 0.892229
O O7 0.611023 0.743128 0.948689
O O8 0.628417 0.759688 0.849045
O O9 0.250000 0.250000 0.610134
O O10 0.136212 0.255497 0.552186
O O11 0.175448 0.000000 0.595459
O O12 0.887866 0.500000 0.000000
O O13 0.000000 0.324005 0.000000
O O14 0.750000 0.750000 0.202234
O O15 0.674787 0.000000 0.198520
O O16 0.750000 0.250000 0.500000
O O17 0.670245 0.000000 0.500000
#
# Coordination Sequence:
#
# PCOD9483977 Si02
#       6
#    16  16  16   8  16   8
#     4  10  22  40  60  83 112 146 184 228 279 334
#     4  10  20  36  59  86 117 152 189 230 277 329
#     4  10  19  33  55  81 110 144 183 226 272 325
#     4   9  17  31  54  85 118 151 190 231 271 323
#     4  12  25  40  59  83 112 147 187 232 282 334
#     4  10  18  30  51  78 109 143 181 225 271 322
#
# _framework density 18.554181
#
# number of rings (size 3 to 8) (size 9 to 14) (size 15 to 20)
#    0.000    1.700    0.000    6.600    0.000    8.400 
#    0.000    1.000    0.000    3.000    0.000    0.000 
#    0.000    0.000    0.000    0.000    0.000    0.000 
#
# Total GULP energy -223497.751944 kJ/mol
# GULP energy per Si atom -5587.443799 kJ/mol
# Density = 1.851195 g / cm^3
# Si number density = 18.554181 Si / 1000 Ang^3
#
#
#
# Elastic Constant Matrix: (Units=GPa)
#
#
# Indices 1 2 3 4 5 6 
#
# 1 85.1363 81.3564 83.1759 0.0000 0.0000 0.0000
# 2 81.3564 147.9067 122.3014 0.0000 0.0000 0.0000
# 3 83.1759 122.3014 200.6744 0.0000 0.0000 0.0000
# 4 0.0000 0.0000 0.0000 66.6233 0.0000 0.0000
# 5 0.0000 0.0000 0.0000 0.0000 18.9546 0.0000
# 6 0.0000 0.0000 0.0000 0.0000 0.0000 23.3055
#
#
#
# Elastic Compliance Matrix: (Units=1/GPa)
#
#
# Indices 1 2 3 4 5 6 
#
# 1 0.026423 -0.011044 -0.004222 0.000000 0.000000 0.000000
# 2 -0.011044 0.018245 -0.006542 0.000000 0.000000 0.000000
# 3 -0.004222 -0.006542 0.010720 0.000000 0.000000 0.000000
# 4 0.000000 0.000000 0.000000 0.015010 0.000000 0.000000
# 5 0.000000 0.000000 0.000000 0.000000 0.052758 0.000000
# 6 0.000000 0.000000 0.000000 0.000000 0.000000 0.042908
#
#
# Mechanical properties :
#
#
# Convention : Reuss Voigt Hill
#
# Bulk Modulus (GPa) = 84.93190 111.93166 98.43178
# Shear Modulus (GPa) = 23.40783 31.56892 27.48838
#
# Velocity S-wave (km/s) = 3.55574 4.12933 3.85323
# Velocity P-wave (km/s) = 7.92037 9.12102 8.54182
#
# Compressibility (1/GPa) = 0.01177414
#
# Stress axis : x y z
#
# Youngs Moduli (GPa) = 37.84523 54.80895 93.28272
#
# Poissons Ratio (x) = 0.60529 0.39379
# Poissons Ratio (y) = 0.41795 0.61028
# Poissons Ratio (z) = 0.15976 0.35857
#
# Static dielectric constant tensor:
#      x y z
#    x 1.619670 0.000000 0.000000 
#    y 0.000000 1.621700 0.000000 
#    z 0.000000 0.000000 1.640070 
# 
# From -- ./inp_files/75085.got.cif
#   From: 2010.05.17/outbox.cif.g08.bks.cpg/sg65_38_cif.got.tgz:75085.got - 2010.06.03 17:01:31.
