data_PCOD9483252
_publ_section_title
;
Structure prediction by ZEFSAII (Michael W. Deem and Ramdas Pophale) SiO2 
 PCOD9483252
Probable space group: C M M M
;
_chemical_formula_sum "Si O2"
_cell_formula_units_Z 104
_cell_length_a 7.501152
_cell_length_b 26.738455
_cell_length_c 27.137613
_cell_angle_alpha 90.000000
_cell_angle_beta 90.000000
_cell_angle_gamma 90.000000
_cell_volume 5442.969742
_symmetry_space_group_name_H-M "C M M M"
_symmetry_group_IT_number 65
_symmetry_cell_setting 'orthorhombic'
loop_
_space_group_symop_operation_xyz
x,y,z
-x,-y,z
x,-y,-z
-x,y,-z
-x,-y,-z
x,y,-z
-x,y,z
x,-y,z
1/2+x,1/2+y,z
1/2-x,1/2-y,z
1/2+x,1/2-y,-z
1/2-x,1/2+y,-z
1/2-x,1/2-y,-z
1/2+x,1/2+y,-z
1/2-x,1/2+y,z
1/2+x,1/2-y,z
loop_
_atom_site_type_symbol
_atom_site_label
_atom_site_fract_x
_atom_site_fract_y
_atom_site_fract_z
Si Si1 0.217534 0.000000 0.882543
Si Si2 0.706359 0.060867 0.500000
Si Si3 0.286621 0.306357 0.116779
Si Si4 0.785768 0.442904 0.606864
Si Si5 0.718177 0.402373 0.056623
Si Si6 0.218384 0.000000 0.231291
Si Si7 0.213009 0.901327 0.711274
Si Si8 0.213663 0.193717 0.770717
O O1 0.273903 0.950218 0.911381
O O2 0.273565 0.000000 0.825655
O O3 0.000000 0.000000 0.882367
O O4 0.500000 0.077644 0.500000
O O5 0.783631 0.074722 0.553355
O O6 0.706508 0.000000 0.500000
O O7 0.500000 0.311585 0.119141
O O8 0.250000 0.250000 0.099207
O O9 0.221614 0.350930 0.082165
O O10 0.217915 0.310971 0.173005
O O11 0.721552 0.500000 0.616464
O O12 0.746593 0.408846 0.653561
O O13 0.000000 0.445875 0.602368
O O14 0.500000 0.402359 0.056497
O O15 0.775097 0.406176 0.000000
O O16 0.279526 0.049653 0.259712
O O17 0.000000 0.000000 0.231936
O O18 0.281774 0.850394 0.735776
O O19 0.000000 0.901221 0.717587
O O20 0.250000 0.250000 0.753299
O O21 0.000000 0.188804 0.773391
#
# Coordination Sequence:
#
# PCOD9483252 Si02
#       8
#     8   8  16  16  16   8  16  16
#     4   9  15  24  39  59  84 115 146 174 211 258
#     4   7  12  24  41  59  84 121 156 181 206 248
#     4   9  17  30  46  64  87 112 141 177 219 264
#     4   9  16  27  43  64  91 122 154 182 212 252
#     4   9  16  25  39  61  87 111 139 179 220 256
#     4   9  16  25  39  59  86 117 143 170 213 268
#     4  10  18  28  43  65  92 118 145 181 224 265
#     4   9  18  31  46  63  85 116 151 183 218 264
#
# _framework density 19.107216999999999
#
# number of rings (size 3 to 8) (size 9 to 14) (size 15 to 20)
#    0.000    3.000    0.769    2.077    0.000    5.538 
#    0.000    0.385    0.000    1.385    0.000    1.077 
#    0.000    1.231    0.000    0.000    0.000    0.000 
#
# Total GULP energy -290014.788467 kJ/mol
# GULP energy per Si atom -5577.207471 kJ/mol
# Density = 1.906373 g / cm^3
# Si number density = 19.107217 Si / 1000 Ang^3
#
#
#
# Elastic Constant Matrix: (Units=GPa)
#
#
# Indices 1 2 3 4 5 6 
#
# 1 50.9887 3.1245 1.7265 0.0000 0.0000 0.0000
# 2 3.1245 141.4439 103.7806 0.0000 0.0000 0.0000
# 3 1.7265 103.7806 168.7214 0.0000 0.0000 0.0000
# 4 0.0000 0.0000 0.0000 1.9979 0.0000 0.0000
# 5 0.0000 0.0000 0.0000 0.0000 8.8204 0.0000
# 6 0.0000 0.0000 0.0000 0.0000 0.0000 28.5533
#
#
#
# Elastic Compliance Matrix: (Units=1/GPa)
#
#
# Indices 1 2 3 4 5 6 
#
# 1 0.019640 -0.000522 0.000120 0.000000 0.000000 0.000000
# 2 -0.000522 0.012899 -0.007929 0.000000 0.000000 0.000000
# 3 0.000120 -0.007929 0.010803 0.000000 0.000000 0.000000
# 4 0.000000 0.000000 0.000000 0.500534 0.000000 0.000000
# 5 0.000000 0.000000 0.000000 0.000000 0.113373 0.000000
# 6 0.000000 0.000000 0.000000 0.000000 0.000000 0.035022
#
#
# Mechanical properties :
#
#
# Convention : Reuss Voigt Hill
#
# Bulk Modulus (GPa) = 37.48069 64.26859 50.87464
# Shear Modulus (GPa) = 6.96548 24.70915 15.83731
#
# Velocity S-wave (km/s) = 1.91138 3.59999 2.88213
# Velocity P-wave (km/s) = 4.95275 7.14064 6.14485
#
# Compressibility (1/GPa) = 0.02668041
#
# Stress axis : x y z
#
# Youngs Moduli (GPa) = 50.91626 77.52494 92.56895
#
# Poissons Ratio (x) = 0.04047 -0.01112
# Poissons Ratio (y) = 0.02658 0.73397
# Poissons Ratio (z) = -0.00611 0.61469
#
# Static dielectric constant tensor:
#      x y z
#    x 1.751810 0.000000 0.000000 
#    y 0.000000 1.638570 0.000000 
#    z 0.000000 0.000000 1.670970 
# 
# From -- ./inp_files/73855.got.cif
#   From: 2010.05.17/outbox.cif.g08.bks.cpg/sg65_37_cif.got.tgz:73855.got - 2010.06.03 17:01:31.
