data_PCOD9483520
_publ_section_title
;
Structure prediction by ZEFSAII (Michael W. Deem and Ramdas Pophale) SiO2 
 PCOD9483520
Probable space group: C M M M
;
_chemical_formula_sum "Si O2"
_cell_formula_units_Z 88
_cell_length_a 25.882546
_cell_length_b 25.712081
_cell_length_c 7.626071
_cell_angle_alpha 90.000000
_cell_angle_beta 90.000000
_cell_angle_gamma 90.000000
_cell_volume 5075.105403
_symmetry_space_group_name_H-M "C M M M"
_symmetry_group_IT_number 65
_symmetry_cell_setting 'orthorhombic'
loop_
_space_group_symop_operation_xyz
x,y,z
-x,-y,z
x,-y,-z
-x,y,-z
-x,-y,-z
x,y,-z
-x,y,z
x,-y,z
1/2+x,1/2+y,z
1/2-x,1/2-y,z
1/2+x,1/2-y,-z
1/2-x,1/2+y,-z
1/2-x,1/2-y,-z
1/2+x,1/2+y,-z
1/2-x,1/2+y,z
1/2+x,1/2-y,z
loop_
_atom_site_type_symbol
_atom_site_label
_atom_site_fract_x
_atom_site_fract_y
_atom_site_fract_z
Si Si1 0.441445 0.274379 0.704003
Si Si2 0.794378 0.941236 0.294946
Si Si3 0.166261 0.255956 0.285554
Si Si4 0.245305 0.834078 0.285665
Si Si5 0.500000 0.561074 0.301375
Si Si6 0.398661 0.385646 0.198988
O O1 0.446158 0.260069 0.500000
O O2 0.500000 0.272471 0.779089
O O3 0.392762 0.242181 0.778889
O O4 0.418351 0.332650 0.713163
O O5 0.781068 0.945620 0.500000
O O6 0.760691 0.893145 0.221502
O O7 0.852118 0.917560 0.284151
O O8 0.791603 0.000000 0.220394
O O9 0.165073 0.255474 0.500000
O O10 0.196900 0.202994 0.234482
O O11 0.203062 0.303555 0.232408
O O12 0.244504 0.835114 0.500000
O O13 0.500000 0.500000 0.315183
O O14 0.500000 0.583535 0.500000
O O15 0.550987 0.578920 0.205064
O O16 0.383847 0.373807 0.000000
#
# Coordination Sequence:
#
# PCOD9483520 Si02
#       6
#    16  16  16  16   8  16
#     4  10  18  29  47  65  84 111 145 181 215 255
#     4  10  19  31  47  64  83 110 145 181 216 257
#     4   8  13  23  42  65  84 104 136 179 219 252
#     4   8  13  23  42  65  84 104 136 179 220 253
#     4  11  23  37  49  57  71 105 153 195 220 245
#     4  12  23  32  43  61  86 114 142 178 221 258
#
# _framework density 17.339542000000002
#
# number of rings (size 3 to 8) (size 9 to 14) (size 15 to 20)
#    0.000    2.273    2.727    3.545    0.000    3.273 
#    0.000    0.000    0.000    2.182    0.000    0.000 
#    0.000    0.727    0.000   10.182    0.000    0.000 
#
# Total GULP energy -245141.450695 kJ/mol
# GULP energy per Si atom -5571.396607 kJ/mol
# Density = 1.730008 g / cm^3
# Si number density = 17.339542 Si / 1000 Ang^3
#
#
#
# Elastic Constant Matrix: (Units=GPa)
#
#
# Indices 1 2 3 4 5 6 
#
# 1 132.3657 76.9594 1.9539 0.0000 0.0000 0.0000
# 2 76.9594 109.8087 1.4367 0.0000 0.0000 0.0000
# 3 1.9539 1.4367 43.8570 0.0000 0.0000 0.0000
# 4 0.0000 0.0000 0.0000 -12.6605 0.0000 0.0000
# 5 0.0000 0.0000 0.0000 0.0000 -8.3470 0.0000
# 6 0.0000 0.0000 0.0000 0.0000 0.0000 35.8167
#
#
#
# Elastic Compliance Matrix: (Units=1/GPa)
#
#
# Indices 1 2 3 4 5 6 
#
# 1 0.012754 -0.008935 -0.000276 0.000000 0.000000 0.000000
# 2 -0.008935 0.015370 -0.000105 0.000000 0.000000 0.000000
# 3 -0.000276 -0.000105 0.022817 0.000000 0.000000 0.000000
# 4 0.000000 0.000000 0.000000 -0.078986 0.000000 0.000000
# 5 0.000000 0.000000 0.000000 0.000000 -0.119804 0.000000
# 6 0.000000 0.000000 0.000000 0.000000 0.000000 0.027920
#
#
# Mechanical properties :
#
#
# Convention : Reuss Voigt Hill
#
# Bulk Modulus (GPa) = 30.95081 49.63685 40.29383
# Shear Modulus (GPa) = -55.23184 16.67395 -19.27895
#
# Velocity S-wave (km/s) = -5.64998 3.10435 -3.33806
# Velocity P-wave (km/s) = 4.96734 6.44499 2.90374
#
# Compressibility (1/GPa) = 0.03230933
#
# Stress axis : x y z
#
# Youngs Moduli (GPa) = 78.40821 65.06121 43.82679
#
# Poissons Ratio (x) = 0.58131 0.01207
# Poissons Ratio (y) = 0.70057 0.00462
# Poissons Ratio (z) = 0.02160 0.00686
#
# Static dielectric constant tensor:
#      x y z
#    x 1.617410 0.000000 0.000000 
#    y 0.000000 1.612250 0.000000 
#    z 0.000000 0.000000 1.657010 
# 
# From -- ./inp_files/18803.got.cif
#   From: 2010.05.17/outbox.cif.g08.bks.cpg/sg65_10_cif.got.tgz:18803.got - 2010.06.03 17:01:31.
