data_PCOD9483409
_publ_section_title
;
Structure prediction by ZEFSAII (Michael W. Deem and Ramdas Pophale) SiO2 
 PCOD9483409
Probable space group: C M M M
;
_chemical_formula_sum "Si O2"
_cell_formula_units_Z 100
_cell_length_a 7.391272
_cell_length_b 21.812448
_cell_length_c 27.007891
_cell_angle_alpha 90.000000
_cell_angle_beta 90.000000
_cell_angle_gamma 90.000000
_cell_volume 4354.259077
_symmetry_space_group_name_H-M "C M M M"
_symmetry_group_IT_number 65
_symmetry_cell_setting 'orthorhombic'
loop_
_space_group_symop_operation_xyz
x,y,z
-x,-y,z
x,-y,-z
-x,y,-z
-x,-y,-z
x,y,-z
-x,y,z
x,-y,z
1/2+x,1/2+y,z
1/2-x,1/2-y,z
1/2+x,1/2-y,-z
1/2-x,1/2+y,-z
1/2-x,1/2-y,-z
1/2+x,1/2+y,-z
1/2-x,1/2+y,z
1/2+x,1/2-y,z
loop_
_atom_site_type_symbol
_atom_site_label
_atom_site_fract_x
_atom_site_fract_y
_atom_site_fract_z
Si Si1 0.205304 0.500000 0.571865
Si Si2 0.721759 0.864761 0.575034
Si Si3 0.788045 0.319742 0.318726
Si Si4 0.221403 0.929125 0.127308
Si Si5 0.216375 0.819193 0.056508
Si Si6 0.792863 0.900475 0.237063
Si Si7 0.779962 0.000000 0.686167
Si Si8 0.500000 0.687014 0.500000
O O1 0.278988 0.433461 0.557874
O O2 0.204510 0.500000 0.631515
O O3 0.000000 0.500000 0.554424
O O4 0.500000 0.858122 0.570082
O O5 0.771235 0.857915 0.633024
O O6 0.839537 0.818708 0.542927
O O7 0.750000 0.250000 0.331445
O O8 0.708877 0.335873 0.264885
O O9 0.000000 0.328625 0.313904
O O10 0.282368 0.876282 0.089316
O O11 0.283365 0.909607 0.182586
O O12 0.000000 0.928450 0.126064
O O13 0.274716 0.000000 0.117337
O O14 0.250000 0.750000 0.076026
O O15 0.000000 0.825397 0.054268
O O16 0.286329 0.821674 0.000000
O O17 0.000000 0.920687 0.231447
O O18 0.717534 0.943412 0.280232
O O19 0.000000 0.000000 0.680906
#
# Coordination Sequence:
#
# PCOD9483409 Si02
#       8
#     8  16  16  16  16  16   8   4
#     4  10  20  36  59  86 121 150 183 237 290 347
#     4  10  24  42  62  92 120 152 195 242 298 362
#     4  11  24  41  63  84 116 151 192 245 290 349
#     4   9  17  31  53  85 122 154 194 256 312 362
#     4   9  18  33  54  78 109 157 211 260 312 370
#     4  10  19  33  56  87 116 149 189 232 290 359
#     4  10  18  28  54  85 112 145 191 221 270 363
#     4  12  26  41  72  86 126 158 192 243 304 354
#
# _framework density 22.966017999999998
#
# number of rings (size 3 to 8) (size 9 to 14) (size 15 to 20)
#    0.000    2.080    2.400    0.720    3.360    1.600 
#    0.000    5.600    0.000    1.440    0.000    2.240 
#    0.000    0.000    0.000    0.000    0.000    0.000 
#
# Total GULP energy -278509.939678 kJ/mol
# GULP energy per Si atom -5570.198794 kJ/mol
# Density = 2.291375 g / cm^3
# Si number density = 22.966018 Si / 1000 Ang^3
#
#
#
# Elastic Constant Matrix: (Units=GPa)
#
#
# Indices 1 2 3 4 5 6 
#
# 1 99.9301 9.0921 15.1350 0.0000 0.0000 0.0000
# 2 9.0921 129.9267 72.3482 0.0000 0.0000 0.0000
# 3 15.1350 72.3482 152.6426 0.0000 0.0000 0.0000
# 4 0.0000 0.0000 0.0000 31.0901 0.0000 0.0000
# 5 0.0000 0.0000 0.0000 0.0000 116.9887 0.0000
# 6 0.0000 0.0000 0.0000 0.0000 0.0000 9.2199
#
#
#
# Elastic Compliance Matrix: (Units=1/GPa)
#
#
# Indices 1 2 3 4 5 6 
#
# 1 0.010164 -0.000204 -0.000911 0.000000 0.000000 0.000000
# 2 -0.000204 0.010460 -0.004938 0.000000 0.000000 0.000000
# 3 -0.000911 -0.004938 0.008982 0.000000 0.000000 0.000000
# 4 0.000000 0.000000 0.000000 0.032165 0.000000 0.000000
# 5 0.000000 0.000000 0.000000 0.000000 0.008548 0.000000
# 6 0.000000 0.000000 0.000000 0.000000 0.000000 0.108461
#
#
# Mechanical properties :
#
#
# Convention : Reuss Voigt Hill
#
# Bulk Modulus (GPa) = 57.14140 63.96112 60.55126
# Shear Modulus (GPa) = 25.41703 50.52135 37.96919
#
# Velocity S-wave (km/s) = 3.33035 4.69532 4.07046
# Velocity P-wave (km/s) = 6.30264 7.57004 6.96523
#
# Compressibility (1/GPa) = 0.01750045
#
# Stress axis : x y z
#
# Youngs Moduli (GPa) = 98.39089 95.59838 111.33465
#
# Poissons Ratio (x) = 0.01949 0.10144
# Poissons Ratio (y) = 0.02006 0.54974
# Poissons Ratio (z) = 0.08964 0.47204
#
# Static dielectric constant tensor:
#      x y z
#    x 1.897390 0.000000 0.000000 
#    y 0.000000 1.984760 0.000000 
#    z 0.000000 0.000000 1.832950 
# 
# From -- ./inp_files/73383.got.cif
#   From: 2010.05.17/outbox.cif.g08.bks.cpg/sg65_37_cif.got.tgz:73383.got - 2010.06.03 17:01:31.
