data_PCOD9483651
_publ_section_title
;
Structure prediction by ZEFSAII (Michael W. Deem and Ramdas Pophale) SiO2 
 PCOD9483651
Probable space group: C M M M
;
_chemical_formula_sum "Si O2"
_cell_formula_units_Z 88
_cell_length_a 8.028258
_cell_length_b 24.584198
_cell_length_c 23.323357
_cell_angle_alpha 90.000000
_cell_angle_beta 90.000000
_cell_angle_gamma 90.000000
_cell_volume 4603.290954
_symmetry_space_group_name_H-M "C M M M"
_symmetry_group_IT_number 65
_symmetry_cell_setting 'orthorhombic'
loop_
_space_group_symop_operation_xyz
x,y,z
-x,-y,z
x,-y,-z
-x,y,-z
-x,-y,-z
x,y,-z
-x,y,z
x,-y,z
1/2+x,1/2+y,z
1/2-x,1/2-y,z
1/2+x,1/2-y,-z
1/2-x,1/2+y,-z
1/2-x,1/2-y,-z
1/2+x,1/2+y,-z
1/2-x,1/2+y,z
1/2+x,1/2-y,z
loop_
_atom_site_type_symbol
_atom_site_label
_atom_site_fract_x
_atom_site_fract_y
_atom_site_fract_z
Si Si1 0.798980 0.000000 0.306202
Si Si2 0.199501 0.187128 0.063847
Si Si3 0.795728 0.064079 0.500000
Si Si4 0.302593 0.187298 0.718412
Si Si5 0.301410 0.881227 0.172696
Si Si6 0.800078 0.107424 0.378220
Si Si7 0.191509 0.500000 0.178629
O O1 0.757083 0.053708 0.341813
O O2 0.700288 0.000000 0.247419
O O3 0.000000 0.000000 0.295767
O O4 0.250000 0.250000 0.069719
O O5 0.273939 0.153838 0.116141
O O6 0.000000 0.183277 0.066531
O O7 0.254047 0.169018 0.000000
O O8 0.740275 0.095434 0.442693
O O9 0.000000 0.063215 0.500000
O O10 0.746154 0.000000 0.500000
O O11 0.500000 0.186671 0.724304
O O12 0.250000 0.250000 0.722238
O O13 0.233154 0.150412 0.771150
O O14 0.258816 0.159122 0.658026
O O15 0.500000 0.887948 0.182149
O O16 0.230253 0.941832 0.163118
O O17 0.000000 0.110559 0.380849
O O18 0.000000 0.500000 0.157632
#
# Coordination Sequence:
#
# PCOD9483651 Si02
#       7
#     8  16   8  16  16  16   8
#     4  10  18  29  52  83 111 142 177 217 267 322
#     4  10  21  37  58  83 111 144 183 227 271 316
#     4   9  16  30  54  83 112 141 176 220 267 320
#     4  11  23  38  56  79 109 143 182 228 275 322
#     4  10  21  36  57  83 111 144 180 221 269 322
#     4  10  19  33  55  83 112 142 180 221 268 324
#     4  10  20  36  54  80 115 147 177 216 271 324
#
# _framework density 19.116758000000001
#
# number of rings (size 3 to 8) (size 9 to 14) (size 15 to 20)
#    0.000    1.909    2.727    1.636    0.000    4.727 
#    0.000    1.364    0.000    3.273    0.000    0.000 
#    0.000    0.000    0.000    0.000    0.000    0.000 
#
# Total GULP energy -245495.747032 kJ/mol
# GULP energy per Si atom -5579.448796 kJ/mol
# Density = 1.907325 g / cm^3
# Si number density = 19.116758 Si / 1000 Ang^3
#
#
#
# Elastic Constant Matrix: (Units=GPa)
#
#
# Indices 1 2 3 4 5 6 
#
# 1 8.2751 4.5530 -3.0424 0.0000 0.0000 0.0000
# 2 4.5530 137.7976 65.9085 0.0000 0.0000 0.0000
# 3 -3.0424 65.9085 114.7886 0.0000 0.0000 0.0000
# 4 0.0000 0.0000 0.0000 29.6255 0.0000 0.0000
# 5 0.0000 0.0000 0.0000 0.0000 14.5080 0.0000
# 6 0.0000 0.0000 0.0000 0.0000 0.0000 -2.0080
#
#
#
# Elastic Compliance Matrix: (Units=1/GPa)
#
#
# Indices 1 2 3 4 5 6 
#
# 1 0.128248 -0.008083 0.008040 0.000000 0.000000 0.000000
# 2 -0.008083 0.010514 -0.006251 0.000000 0.000000 0.000000
# 3 0.008040 -0.006251 0.012514 0.000000 0.000000 0.000000
# 4 0.000000 0.000000 0.000000 0.033755 0.000000 0.000000
# 5 0.000000 0.000000 0.000000 0.000000 0.068927 0.000000
# 6 0.000000 0.000000 0.000000 0.000000 0.000000 -0.498016
#
#
# Mechanical properties :
#
#
# Convention : Reuss Voigt Hill
#
# Bulk Modulus (GPa) = 7.21041 43.96662 25.58851
# Shear Modulus (GPa) = -26.99200 21.32126 -2.83537
#
# Velocity S-wave (km/s) = -3.76168 3.34326 -1.21918
# Velocity P-wave (km/s) = 3.88419 6.16053 3.38121
#
# Compressibility (1/GPa) = 0.13868834
#
# Stress axis : x y z
#
# Youngs Moduli (GPa) = 7.79737 95.11137 79.91067
#
# Poissons Ratio (x) = 0.76880 -0.64250
# Poissons Ratio (y) = 0.06303 0.49953
# Poissons Ratio (z) = -0.06269 0.59455
#
# Static dielectric constant tensor:
#      x y z
#    x 1.679250 0.000000 0.000000 
#    y 0.000000 1.753940 0.000000 
#    z 0.000000 0.000000 1.657660 
# 
# From -- ./inp_files/59929.got.cif
#   From: 2010.05.17/outbox.cif.g08.bks.cpg/sg65_30_cif.got.tgz:59929.got - 2010.06.03 17:01:31.
