data_PCOD9483526
_publ_section_title
;
Structure prediction by ZEFSAII (Michael W. Deem and Ramdas Pophale) SiO2 
 PCOD9483526
Probable space group: C M M M
;
_chemical_formula_sum "Si O2"
_cell_formula_units_Z 88
_cell_length_a 14.359239
_cell_length_b 31.959140
_cell_length_c 7.220721
_cell_angle_alpha 90.000000
_cell_angle_beta 90.000000
_cell_angle_gamma 90.000000
_cell_volume 3313.653344
_symmetry_space_group_name_H-M "C M M M"
_symmetry_group_IT_number 65
_symmetry_cell_setting 'orthorhombic'
loop_
_space_group_symop_operation_xyz
x,y,z
-x,-y,z
x,-y,-z
-x,y,-z
-x,-y,-z
x,y,-z
-x,y,z
x,-y,z
1/2+x,1/2+y,z
1/2-x,1/2-y,z
1/2+x,1/2-y,-z
1/2-x,1/2+y,-z
1/2-x,1/2-y,-z
1/2+x,1/2+y,-z
1/2-x,1/2+y,z
1/2+x,1/2-y,z
loop_
_atom_site_type_symbol
_atom_site_label
_atom_site_fract_x
_atom_site_fract_y
_atom_site_fract_z
Si Si1 0.303622 0.660720 0.776256
Si Si2 0.898110 0.659331 0.775394
Si Si3 0.604244 0.256776 0.776581
Si Si4 0.601118 0.420553 0.713039
Si Si5 0.798919 0.549620 0.722459
Si Si6 0.500000 0.049881 0.723985
O O1 0.202980 0.643183 0.714141
O O2 0.323890 0.708001 0.713874
O O3 0.384119 0.629366 0.716296
O O4 0.302741 0.661266 0.000000
O O5 0.890845 0.708561 0.720272
O O6 0.000000 0.644289 0.710066
O O7 0.900223 0.657949 0.000000
O O8 0.500000 0.271679 0.732006
O O9 0.612845 0.255211 0.000000
O O10 0.600115 0.435168 0.500000
O O11 0.500000 0.431581 0.792430
O O12 0.698635 0.436137 0.796232
O O13 0.798519 0.555748 0.500000
O O14 0.802560 0.500000 0.754740
O O15 0.899589 0.566685 0.790752
O O16 0.500000 0.052506 0.500000
O O17 0.500000 0.000000 0.766758
#
# Coordination Sequence:
#
# PCOD9483526 Si02
#       6
#    16  16  16  16  16   8
#     4  10  18  29  47  68  91 122 158 193 229 275
#     4   8  14  25  42  66  93 117 149 197 243 274
#     4   8  13  22  40  66  89 111 148 197 237 267
#     4  10  21  34  46  66  98 128 153 187 232 278
#     4   8  14  27  48  71  92 117 152 191 228 266
#     4   7  10  20  42  70  93 109 137 187 231 259
#
# _framework density 26.556792000000002
#
# number of rings (size 3 to 8) (size 9 to 14) (size 15 to 20)
#    0.000    3.364    0.000    3.273    0.000    3.636 
#    1.636    1.818    0.000    2.727    0.000    3.818 
#    0.000    2.182    0.000    0.000    0.000    0.000 
#
# Total GULP energy -245801.893313 kJ/mol
# GULP energy per Si atom -5586.406666 kJ/mol
# Density = 2.649635 g / cm^3
# Si number density = 26.556792 Si / 1000 Ang^3
#
#
#
# Elastic Constant Matrix: (Units=GPa)
#
#
# Indices 1 2 3 4 5 6 
#
# 1 288.8954 48.7066 15.0643 0.0000 0.0000 0.0000
# 2 48.7066 61.7758 2.1727 0.0000 0.0000 0.0000
# 3 15.0643 2.1727 131.3929 0.0000 0.0000 0.0000
# 4 0.0000 0.0000 0.0000 1.6057 0.0000 0.0000
# 5 0.0000 0.0000 0.0000 0.0000 -4.2353 0.0000
# 6 0.0000 0.0000 0.0000 0.0000 0.0000 52.0448
#
#
#
# Elastic Compliance Matrix: (Units=1/GPa)
#
#
# Indices 1 2 3 4 5 6 
#
# 1 0.004014 -0.003150 -0.000408 0.000000 0.000000 0.000000
# 2 -0.003150 0.018670 0.000052 0.000000 0.000000 0.000000
# 3 -0.000408 0.000052 0.007657 0.000000 0.000000 0.000000
# 4 0.000000 0.000000 0.000000 0.622774 0.000000 0.000000
# 5 0.000000 0.000000 0.000000 0.000000 -0.236112 0.000000
# 6 0.000000 0.000000 0.000000 0.000000 0.000000 0.019214
#
#
# Mechanical properties :
#
#
# Convention : Reuss Voigt Hill
#
# Bulk Modulus (GPa) = 42.86661 68.21681 55.54171
# Shear Modulus (GPa) = 11.08637 37.62442 24.35539
#
# Velocity S-wave (km/s) = 2.04540 3.76806 3.03166
# Velocity P-wave (km/s) = 4.66420 6.68386 5.76319
#
# Compressibility (1/GPa) = 0.02332818
#
# Stress axis : x y z
#
# Youngs Moduli (GPa) = 249.13574 53.56305 130.60485
#
# Poissons Ratio (x) = 0.16874 0.05330
# Poissons Ratio (y) = 0.78486 -0.00685
# Poissons Ratio (z) = 0.10167 -0.00281
#
# Static dielectric constant tensor:
#      x y z
#    x 2.089950 0.000000 0.000000 
#    y 0.000000 2.067660 0.000000 
#    z 0.000000 0.000000 2.036540 
# 
# From -- ./inp_files/25107.got.cif
#   From: 2010.05.17/outbox.cif.g08.bks.cpg/sg65_13_cif.got.tgz:25107.got - 2010.06.03 17:01:31.
