data_PCOD9483551
_publ_section_title
;
Structure prediction by ZEFSAII (Michael W. Deem and Ramdas Pophale) SiO2 
 PCOD9483551
Probable space group: C M M M
;
_chemical_formula_sum "Si O2"
_cell_formula_units_Z 88
_cell_length_a 21.230935
_cell_length_b 29.422549
_cell_length_c 8.041429
_cell_angle_alpha 90.000000
_cell_angle_beta 90.000000
_cell_angle_gamma 90.000000
_cell_volume 5023.225183
_symmetry_space_group_name_H-M "C M M M"
_symmetry_group_IT_number 65
_symmetry_cell_setting 'orthorhombic'
loop_
_space_group_symop_operation_xyz
x,y,z
-x,-y,z
x,-y,-z
-x,y,-z
-x,-y,-z
x,y,-z
-x,y,z
x,-y,z
1/2+x,1/2+y,z
1/2-x,1/2-y,z
1/2+x,1/2-y,-z
1/2-x,1/2+y,-z
1/2-x,1/2-y,-z
1/2+x,1/2+y,-z
1/2-x,1/2+y,z
1/2+x,1/2-y,z
loop_
_atom_site_type_symbol
_atom_site_label
_atom_site_fract_x
_atom_site_fract_y
_atom_site_fract_z
Si Si1 0.378970 0.610234 0.803061
Si Si2 0.424034 0.860802 0.500000
Si Si3 0.000000 0.051999 0.699512
Si Si4 0.659449 0.052783 0.500000
Si Si5 0.923340 0.302024 0.817046
Si Si6 0.427230 0.295203 0.694671
Si Si7 0.754654 0.946626 0.194444
O O1 0.438003 0.578681 0.756097
O O2 0.387947 0.659307 0.720828
O O3 0.314433 0.584468 0.762044
O O4 0.380255 0.617379 0.000000
O O5 0.500000 0.861815 0.500000
O O6 0.396082 0.910957 0.500000
O O7 0.402855 0.833394 0.664506
O O8 0.000000 0.051491 0.500000
O O9 0.000000 0.000000 0.760677
O O10 0.701258 0.060062 0.666587
O O11 0.639142 0.000000 0.500000
O O12 0.904387 0.249599 0.789392
O O13 0.000000 0.301571 0.812477
O O14 0.903547 0.317938 0.000000
O O15 0.428474 0.283288 0.500000
O O16 0.500000 0.304985 0.745831
O O17 0.773192 0.000000 0.203219
O O18 0.736410 0.938011 0.000000
#
# Coordination Sequence:
#
# PCOD9483551 Si02
#       7
#    16   8   8   8  16  16  16
#     4  11  21  32  49  73 103 143 189 239 286 324
#     4  10  20  37  59  91 120 136 163 207 262 328
#     4  11  23  33  43  67 103 143 187 243 301 336
#     4  10  22  39  63  86 109 143 174 210 263 323
#     4   9  17  31  53  80 112 149 179 211 259 319
#     4  10  18  29  47  74 110 145 184 230 276 318
#     4   9  20  38  57  77 103 143 195 236 266 314
#
# _framework density 17.518626000000001
#
# number of rings (size 3 to 8) (size 9 to 14) (size 15 to 20)
#    0.000    2.091    1.818    1.909    2.545    3.091 
#    0.000    0.000    0.000    2.182    0.000    8.909 
#    0.000    0.000    0.000    0.000    0.000    0.000 
#
# Total GULP energy -245440.527959 kJ/mol
# GULP energy per Si atom -5578.193817 kJ/mol
# Density = 1.747875 g / cm^3
# Si number density = 17.518626 Si / 1000 Ang^3
#
#
#
# Elastic Constant Matrix: (Units=GPa)
#
#
# Indices 1 2 3 4 5 6 
#
# 1 22.7618 32.3318 24.6017 0.0000 0.0000 0.0000
# 2 32.3318 98.7013 50.7047 0.0000 0.0000 0.0000
# 3 24.6017 50.7047 96.0376 0.0000 0.0000 0.0000
# 4 0.0000 0.0000 0.0000 10.1557 0.0000 0.0000
# 5 0.0000 0.0000 0.0000 0.0000 4.0177 0.0000
# 6 0.0000 0.0000 0.0000 0.0000 0.0000 16.0297
#
#
#
# Elastic Compliance Matrix: (Units=1/GPa)
#
#
# Indices 1 2 3 4 5 6 
#
# 1 0.088824 -0.023886 -0.010143 0.000000 0.000000 0.000000
# 2 -0.023886 0.020325 -0.004612 0.000000 0.000000 0.000000
# 3 -0.010143 -0.004612 0.015446 0.000000 0.000000 0.000000
# 4 0.000000 0.000000 0.000000 0.098467 0.000000 0.000000
# 5 0.000000 0.000000 0.000000 0.000000 0.248900 0.000000
# 6 0.000000 0.000000 0.000000 0.000000 0.000000 0.062384
#
#
# Mechanical properties :
#
#
# Convention : Reuss Voigt Hill
#
# Bulk Modulus (GPa) = 21.13559 48.08635 34.61097
# Shear Modulus (GPa) = 7.96938 13.36477 10.66708
#
# Velocity S-wave (km/s) = 2.13517 2.76504 2.47027
# Velocity P-wave (km/s) = 4.26256 6.14021 5.28544
#
# Compressibility (1/GPa) = 0.04731356
#
# Stress axis : x y z
#
# Youngs Moduli (GPa) = 11.25816 49.19968 64.74125
#
# Poissons Ratio (x) = 1.17517 0.65668
# Poissons Ratio (y) = 0.26891 0.29861
# Poissons Ratio (z) = 0.11419 0.22693
#
# Static dielectric constant tensor:
#      x y z
#    x 1.560440 0.000000 0.000000 
#    y 0.000000 1.587340 0.000000 
#    z 0.000000 0.000000 1.623030 
# 
# From -- ./inp_files/12701.got.cif
#   From: 2010.05.17/outbox.cif.g08.bks.cpg/sg65_7_cif.got.tgz:12701.got - 2010.06.03 17:01:31.
