data_PCOD9484098
_publ_section_title
;
Structure prediction by ZEFSAII (Michael W. Deem and Ramdas Pophale) SiO2 
 PCOD9484098
Probable space group: C M M M
;
_chemical_formula_sum "Si O2"
_cell_formula_units_Z 72
_cell_length_a 19.751644
_cell_length_b 19.769100
_cell_length_c 10.595451
_cell_angle_alpha 90.000000
_cell_angle_beta 90.000000
_cell_angle_gamma 90.000000
_cell_volume 4137.229331
_symmetry_space_group_name_H-M "C M M M"
_symmetry_group_IT_number 65
_symmetry_cell_setting 'orthorhombic'
loop_
_space_group_symop_operation_xyz
x,y,z
-x,-y,z
x,-y,-z
-x,y,-z
-x,-y,-z
x,y,-z
-x,y,z
x,-y,z
1/2+x,1/2+y,z
1/2-x,1/2-y,z
1/2+x,1/2-y,-z
1/2-x,1/2+y,-z
1/2-x,1/2-y,-z
1/2+x,1/2+y,-z
1/2-x,1/2+y,z
1/2+x,1/2-y,z
loop_
_atom_site_type_symbol
_atom_site_label
_atom_site_fract_x
_atom_site_fract_y
_atom_site_fract_z
Si Si1 0.216563 0.424843 0.146390
Si Si2 0.672267 0.223760 0.145842
Si Si3 0.580419 0.708321 0.358949
Si Si4 0.140783 0.921954 0.734815
Si Si5 0.075758 0.081934 0.000000
O O1 0.185719 0.500000 0.162404
O O2 0.172537 0.357759 0.158535
O O3 0.278759 0.419144 0.243580
O O4 0.242695 0.423468 0.000000
O O5 0.750000 0.250000 0.164384
O O6 0.623036 0.254462 0.250387
O O7 0.654359 0.241036 0.000000
O O8 0.591129 0.737063 0.500000
O O9 0.500000 0.708407 0.333098
O O10 0.608801 0.631717 0.358082
O O11 0.122148 0.000000 0.709319
O O12 0.112034 0.900149 0.871379
O O13 0.000000 0.108932 0.000000
O O14 0.073577 0.000000 0.000000
#
# Coordination Sequence:
#
# PCOD9484098 Si02
#       5
#    16  16  16  16   8
#     4   9  16  30  54  83 114 141 170 219 278 328
#     4  10  20  36  59  86 111 140 183 230 275 327
#     4  11  25  40  53  75 111 154 192 228 274 324
#     4  10  18  31  50  76 110 146 183 220 261 318
#     4   9  16  24  40  69 102 138 178 219 260 301
#
# _framework density 17.402951000000002
#
# number of rings (size 3 to 8) (size 9 to 14) (size 15 to 20)
#    0.000    2.111    3.333    0.667    1.556    2.667 
#    0.000    1.111    0.000    1.333    0.000    4.667 
#    0.000    0.000    0.000    0.000    0.000    0.000 
#
# Total GULP energy -200597.748142 kJ/mol
# GULP energy per Si atom -5572.159671 kJ/mol
# Density = 1.736334 g / cm^3
# Si number density = 17.402951 Si / 1000 Ang^3
#
#
#
# Elastic Constant Matrix: (Units=GPa)
#
#
# Indices 1 2 3 4 5 6 
#
# 1 59.1672 41.2974 57.6153 0.0000 0.0000 0.0000
# 2 41.2974 116.8279 52.5243 0.0000 0.0000 0.0000
# 3 57.6153 52.5243 106.5678 0.0000 0.0000 0.0000
# 4 0.0000 0.0000 0.0000 15.7471 0.0000 0.0000
# 5 0.0000 0.0000 0.0000 0.0000 21.1144 0.0000
# 6 0.0000 0.0000 0.0000 0.0000 0.0000 16.5656
#
#
#
# Elastic Compliance Matrix: (Units=1/GPa)
#
#
# Indices 1 2 3 4 5 6 
#
# 1 0.038186 -0.005417 -0.017975 0.000000 0.000000 0.000000
# 2 -0.005417 0.011765 -0.002870 0.000000 0.000000 0.000000
# 3 -0.017975 -0.002870 0.020516 0.000000 0.000000 0.000000
# 4 0.000000 0.000000 0.000000 0.063504 0.000000 0.000000
# 5 0.000000 0.000000 0.000000 0.000000 0.047361 0.000000
# 6 0.000000 0.000000 0.000000 0.000000 0.000000 0.060366
#
#
# Mechanical properties :
#
#
# Convention : Reuss Voigt Hill
#
# Bulk Modulus (GPa) = 55.73194 65.04854 60.39024
# Shear Modulus (GPa) = 16.65544 19.42713 18.04129
#
# Velocity S-wave (km/s) = 3.09697 3.34475 3.22324
# Velocity P-wave (km/s) = 6.69942 7.23709 6.97344
#
# Compressibility (1/GPa) = 0.01794303
#
# Stress axis : x y z
#
# Youngs Moduli (GPa) = 26.18785 85.00021 48.74178
#
# Poissons Ratio (x) = 0.46044 0.87613
# Poissons Ratio (y) = 0.14186 0.13988
# Poissons Ratio (z) = 0.47073 0.24394
#
# Static dielectric constant tensor:
#      x y z
#    x 1.581010 0.000000 0.000000 
#    y 0.000000 1.630350 0.000000 
#    z 0.000000 0.000000 1.609380 
# 
# From -- ./inp_files/11232.got.cif
#   From: 2010.05.17/outbox.cif.g08.bks.cpg/sg65_6_cif.got.tgz:11232.got - 2010.06.03 17:01:31.
