data_PCOD9484580
_publ_section_title
;
Structure prediction by ZEFSAII (Michael W. Deem and Ramdas Pophale) SiO2 
 PCOD9484580
Probable space group: C M M M
;
_chemical_formula_sum "Si O2"
_cell_formula_units_Z 116
_cell_length_a 24.063441
_cell_length_b 14.699072
_cell_length_c 17.751083
_cell_angle_alpha 90.000000
_cell_angle_beta 90.000000
_cell_angle_gamma 90.000000
_cell_volume 6278.740038
_symmetry_space_group_name_H-M "C M M M"
_symmetry_group_IT_number 65
_symmetry_cell_setting 'orthorhombic'
loop_
_space_group_symop_operation_xyz
x,y,z
-x,-y,z
x,-y,-z
-x,y,-z
-x,-y,-z
x,y,-z
-x,y,z
x,-y,z
1/2+x,1/2+y,z
1/2-x,1/2-y,z
1/2+x,1/2-y,-z
1/2-x,1/2+y,-z
1/2-x,1/2-y,-z
1/2+x,1/2+y,-z
1/2-x,1/2+y,z
1/2+x,1/2-y,z
loop_
_atom_site_type_symbol
_atom_site_label
_atom_site_fract_x
_atom_site_fract_y
_atom_site_fract_z
Si Si1 0.168638 0.608139 0.243054
Si Si2 0.871222 0.895827 0.284458
Si Si3 0.336589 0.394852 0.887166
Si Si4 0.288074 0.888689 0.917902
Si Si5 0.438675 0.732078 0.080994
Si Si6 0.760110 0.853383 0.631369
Si Si7 0.437317 0.780771 0.251245
Si Si8 0.258732 0.000000 0.500000
O O1 0.161288 0.500000 0.240085
O O2 0.181172 0.642279 0.157772
O O3 0.221123 0.629491 0.295621
O O4 0.113278 0.654808 0.275118
O O5 0.840691 0.892369 0.203339
O O6 0.824154 0.870338 0.344872
O O7 0.919543 0.820810 0.277191
O O8 0.890239 0.000000 0.296144
O O9 0.341405 0.500000 0.910376
O O10 0.276375 0.360638 0.911956
O O11 0.388190 0.337777 0.916331
O O12 0.288461 0.000000 0.915672
O O13 0.310214 0.860688 0.000000
O O14 0.500000 0.686328 0.083177
O O15 0.436786 0.785449 0.159636
O O16 0.436288 0.781879 0.000000
O O17 0.750000 0.750000 0.608524
O O18 0.743350 0.921556 0.566120
O O19 0.500000 0.802537 0.276196
#
# Coordination Sequence:
#
# PCOD9484580 Si02
#       8
#    16  16  16  16  16  16  16   4
#     4  11  21  37  61  84 121 164 197 251 309 357
#     4  10  18  34  60  84 119 159 191 238 298 355
#     4   9  16  26  45  72 104 149 196 243 296 356
#     4   9  17  28  46  77 113 153 202 249 298 361
#     4   9  18  31  44  64 104 152 201 262 311 343
#     4  12  22  39  64  98 131 163 192 234 297 363
#     4  10  22  37  56  84 111 153 216 257 296 358
#     4  12  26  40  64 102 140 156 198 228 288 380
#
# _framework density 18.475044
#
# number of rings (size 3 to 8) (size 9 to 14) (size 15 to 20)
#    0.000    1.931    4.138    0.621    0.000    2.207 
#    0.000    3.448    0.000    2.897    0.000    6.759 
#    0.000    0.000    0.000    0.000    0.000    0.000 
#
# Total GULP energy -323008.688949 kJ/mol
# GULP energy per Si atom -5569.115327 kJ/mol
# Density = 1.843299 g / cm^3
# Si number density = 18.475044 Si / 1000 Ang^3
#
#
#
# Elastic Constant Matrix: (Units=GPa)
#
#
# Indices 1 2 3 4 5 6 
#
# 1 105.3035 15.5790 10.4466 0.0000 0.0000 0.0000
# 2 15.5790 69.2297 18.2649 0.0000 0.0000 0.0000
# 3 10.4466 18.2649 67.3931 0.0000 0.0000 0.0000
# 4 0.0000 0.0000 0.0000 -62.2104 0.0000 0.0000
# 5 0.0000 0.0000 0.0000 0.0000 -1.3030 0.0000
# 6 0.0000 0.0000 0.0000 0.0000 0.0000 6.8692
#
#
#
# Elastic Compliance Matrix: (Units=1/GPa)
#
#
# Indices 1 2 3 4 5 6 
#
# 1 0.009886 -0.001961 -0.001001 0.000000 0.000000 0.000000
# 2 -0.001961 0.015946 -0.004018 0.000000 0.000000 0.000000
# 3 -0.001001 -0.004018 0.016082 0.000000 0.000000 0.000000
# 4 0.000000 0.000000 0.000000 -0.016074 0.000000 0.000000
# 5 0.000000 0.000000 0.000000 0.000000 -0.767438 0.000000
# 6 0.000000 0.000000 0.000000 0.000000 0.000000 0.145578
#
#
# Mechanical properties :
#
#
# Convention : Reuss Voigt Hill
#
# Bulk Modulus (GPa) = 35.77135 36.72303 36.24719
# Shear Modulus (GPa) = -8.72990 1.84687 -3.44152
#
# Velocity S-wave (km/s) = -2.17612 1.00091 -1.36632
# Velocity P-wave (km/s) = 3.61801 4.61042 4.14403
#
# Compressibility (1/GPa) = 0.02795533
#
# Stress axis : x y z
#
# Youngs Moduli (GPa) = 101.15611 62.71225 62.17982
#
# Poissons Ratio (x) = 0.12295 0.06224
# Poissons Ratio (y) = 0.19832 0.24982
# Poissons Ratio (z) = 0.10126 0.25196
#
# Static dielectric constant tensor:
#      x y z
#    x 1.628330 0.000000 0.000000 
#    y 0.000000 1.655760 0.000000 
#    z 0.000000 0.000000 1.645750 
# 
# From -- ./inp_files/56884.got.cif
#   From: 2010.05.17/outbox.cif.g08.bks.cpg/sg65_29_cif.got.tgz:56884.got - 2010.06.03 17:01:31.
