data_PCOD9484614
_publ_section_title
;
Structure prediction by ZEFSAII (Michael W. Deem and Ramdas Pophale) SiO2 
 PCOD9484614
Probable space group: C M M M
;
_chemical_formula_sum "Si O2"
_cell_formula_units_Z 100
_cell_length_a 22.357243
_cell_length_b 24.823672
_cell_length_c 7.614101
_cell_angle_alpha 90.000000
_cell_angle_beta 90.000000
_cell_angle_gamma 90.000000
_cell_volume 4225.741288
_symmetry_space_group_name_H-M "C M M M"
_symmetry_group_IT_number 65
_symmetry_cell_setting 'orthorhombic'
loop_
_space_group_symop_operation_xyz
x,y,z
-x,-y,z
x,-y,-z
-x,y,-z
-x,-y,-z
x,y,-z
-x,y,z
x,-y,z
1/2+x,1/2+y,z
1/2-x,1/2-y,z
1/2+x,1/2-y,-z
1/2-x,1/2+y,-z
1/2-x,1/2-y,-z
1/2+x,1/2+y,-z
1/2-x,1/2+y,z
1/2+x,1/2-y,z
loop_
_atom_site_type_symbol
_atom_site_label
_atom_site_fract_x
_atom_site_fract_y
_atom_site_fract_z
Si Si1 0.721555 0.116391 0.796343
Si Si2 0.086067 0.393354 0.307359
Si Si3 0.500000 0.927998 0.000000
Si Si4 0.913084 0.000000 0.703036
Si Si5 0.830993 0.813191 0.785740
Si Si6 0.062474 0.882893 0.797945
Si Si7 0.433015 0.229346 0.212483
Si Si8 0.229214 0.000000 0.702633
O O1 0.657598 0.109099 0.708980
O O2 0.765896 0.164312 0.727899
O O3 0.751258 0.057011 0.785203
O O4 0.710161 0.129632 0.000000
O O5 0.070065 0.413400 0.500000
O O6 0.068009 0.330812 0.284299
O O7 0.052246 0.424730 0.153775
O O8 0.934652 0.053541 0.793979
O O9 0.841958 0.000000 0.707084
O O10 0.932056 0.000000 0.500000
O O11 0.876488 0.860016 0.724951
O O12 0.872329 0.761585 0.734206
O O13 0.825931 0.810512 0.000000
O O14 0.000000 0.867023 0.712397
O O15 0.061326 0.863557 0.000000
O O16 0.500000 0.251566 0.256427
O O17 0.431132 0.226411 0.000000
O O18 0.249998 0.000000 0.500000
#
# Coordination Sequence:
#
# PCOD9484614 Si02
#       8
#    16  16   4   8  16  16  16   8
#     4  11  22  41  65  97 129 170 218 270 327 393
#     4  12  24  42  71 103 135 171 215 264 322 393
#     4  12  22  48  72 105 134 168 218 259 324 392
#     4  11  22  34  51  74 110 159 207 265 333 384
#     4   9  19  33  58  87 125 170 219 269 322 377
#     4  10  19  33  52  79 109 154 216 274 319 376
#     4  10  18  36  61  92 129 175 223 271 326 390
#     4  11  23  40  62  87 123 171 220 268 330 396
#
# _framework density 23.664487000000001
#
# number of rings (size 3 to 8) (size 9 to 14) (size 15 to 20)
#    0.000    1.440    4.000    1.920    0.000    4.480 
#    0.000    5.600    0.000    2.880    0.000    1.680 
#    0.000    0.000    0.000    0.000    0.000    0.000 
#
# Total GULP energy -278484.306769 kJ/mol
# GULP energy per Si atom -5569.686135 kJ/mol
# Density = 2.361063 g / cm^3
# Si number density = 23.664487 Si / 1000 Ang^3
#
#
#
# Elastic Constant Matrix: (Units=GPa)
#
#
# Indices 1 2 3 4 5 6 
#
# 1 162.6139 -9.8194 30.0689 0.0000 0.0000 0.0000
# 2 -9.8194 29.8273 -8.6781 0.0000 0.0000 0.0000
# 3 30.0689 -8.6781 113.4787 0.0000 0.0000 0.0000
# 4 0.0000 0.0000 0.0000 13.4346 0.0000 0.0000
# 5 0.0000 0.0000 0.0000 0.0000 74.3720 0.0000
# 6 0.0000 0.0000 0.0000 0.0000 0.0000 11.0658
#
#
#
# Elastic Compliance Matrix: (Units=1/GPa)
#
#
# Indices 1 2 3 4 5 6 
#
# 1 0.006548 0.001689 -0.001606 0.000000 0.000000 0.000000
# 2 0.001689 0.034725 0.002208 0.000000 0.000000 0.000000
# 3 -0.001606 0.002208 0.009407 0.000000 0.000000 0.000000
# 4 0.000000 0.000000 0.000000 0.074434 0.000000 0.000000
# 5 0.000000 0.000000 0.000000 0.000000 0.013446 0.000000
# 6 0.000000 0.000000 0.000000 0.000000 0.000000 0.090368
#
#
# Mechanical properties :
#
#
# Convention : Reuss Voigt Hill
#
# Bulk Modulus (GPa) = 18.09597 36.56252 27.32924
# Shear Modulus (GPa) = 20.59585 39.39773 29.99679
#
# Velocity S-wave (km/s) = 2.95333 4.08468 3.56418
# Velocity P-wave (km/s) = 4.39238 6.14248 5.33962
#
# Compressibility (1/GPa) = 0.05526093
#
# Stress axis : x y z
#
# Youngs Moduli (GPa) = 152.70735 28.79800 106.30776
#
# Poissons Ratio (x) = -0.04863 0.17074
# Poissons Ratio (y) = -0.25785 -0.23474
# Poissons Ratio (z) = 0.24526 -0.06359
#
# Static dielectric constant tensor:
#      x y z
#    x 1.926020 0.000000 0.000000 
#    y 0.000000 1.906810 0.000000 
#    z 0.000000 0.000000 1.910860 
# 
# From -- ./inp_files/12489.got.cif
#   From: 2010.05.17/outbox.cif.g08.bks.cpg/sg65_7_cif.got.tgz:12489.got - 2010.06.03 17:01:31.
