data_PCOD9484175
_publ_section_title
;
Structure prediction by ZEFSAII (Michael W. Deem and Ramdas Pophale) SiO2 
 PCOD9484175
Probable space group: C M M M
;
_chemical_formula_sum "Si O2"
_cell_formula_units_Z 104
_cell_length_a 23.386628
_cell_length_b 29.717360
_cell_length_c 7.748368
_cell_angle_alpha 90.000000
_cell_angle_beta 90.000000
_cell_angle_gamma 90.000000
_cell_volume 5385.029315
_symmetry_space_group_name_H-M "C M M M"
_symmetry_group_IT_number 65
_symmetry_cell_setting 'orthorhombic'
loop_
_space_group_symop_operation_xyz
x,y,z
-x,-y,z
x,-y,-z
-x,y,-z
-x,-y,-z
x,y,-z
-x,y,z
x,-y,z
1/2+x,1/2+y,z
1/2-x,1/2-y,z
1/2+x,1/2-y,-z
1/2-x,1/2+y,-z
1/2-x,1/2-y,-z
1/2+x,1/2+y,-z
1/2-x,1/2+y,z
1/2+x,1/2-y,z
loop_
_atom_site_type_symbol
_atom_site_label
_atom_site_fract_x
_atom_site_fract_y
_atom_site_fract_z
Si Si1 0.936512 0.948195 0.208478
Si Si2 0.168071 0.111896 0.701771
Si Si3 0.882222 0.601573 0.204365
Si Si4 0.231620 0.449668 0.704828
Si Si5 0.322542 0.195282 0.707836
Si Si6 0.688375 0.706180 0.709654
Si Si7 0.500000 0.946439 0.211098
O O1 0.887141 0.918254 0.282970
O O2 0.000000 0.933952 0.261393
O O3 0.928480 0.000000 0.259999
O O4 0.933811 0.946617 0.000000
O O5 0.182245 0.118895 0.500000
O O6 0.221526 0.084697 0.779428
O O7 0.156674 0.161648 0.771407
O O8 0.830934 0.570902 0.274627
O O9 0.861937 0.653448 0.235429
O O10 0.943178 0.581525 0.267654
O O11 0.883376 0.595799 0.000000
O O12 0.243074 0.452966 0.500000
O O13 0.235932 0.500000 0.777685
O O14 0.324387 0.193114 0.500000
O O15 0.336646 0.246073 0.769926
O O16 0.254744 0.194741 0.755147
O O17 0.687743 0.710590 0.500000
O O18 0.500000 0.000000 0.262805
O O19 0.500000 0.946885 0.000000
#
# Coordination Sequence:
#
# PCOD9484175 Si02
#       7
#    16  16  16  16  16  16   8
#     4   9  19  35  51  68  97 137 174 205 243 294
#     4  10  18  31  52  78 102 128 165 209 252 298
#     4  11  21  34  54  77 101 135 175 217 262 308
#     4  10  20  33  50  75 107 136 163 205 258 307
#     4   9  16  32  55  76 101 134 166 201 248 306
#     4   8  15  29  53  78 102 134 165 196 248 307
#     4   9  20  38  55  71  99 141 183 219 260 315
#
# _framework density 19.312801
#
# number of rings (size 3 to 8) (size 9 to 14) (size 15 to 20)
#    0.000    2.538    1.538    2.769    0.000    2.769 
#    0.000    4.615    1.692    2.769    0.000    0.000 
#    0.000    0.000    0.000    0.000    0.000    0.000 
#
# Total GULP energy -289618.004321 kJ/mol
# GULP energy per Si atom -5569.577006 kJ/mol
# Density = 1.926884 g / cm^3
# Si number density = 19.312801 Si / 1000 Ang^3
#
#
#
# Elastic Constant Matrix: (Units=GPa)
#
#
# Indices 1 2 3 4 5 6 
#
# 1 49.5788 53.5157 -13.4463 0.0000 0.0000 0.0000
# 2 53.5157 141.6364 0.9224 0.0000 0.0000 0.0000
# 3 -13.4463 0.9224 21.9163 0.0000 0.0000 0.0000
# 4 0.0000 0.0000 0.0000 30.5824 0.0000 0.0000
# 5 0.0000 0.0000 0.0000 0.0000 20.1405 0.0000
# 6 0.0000 0.0000 0.0000 0.0000 0.0000 47.6296
#
#
#
# Elastic Compliance Matrix: (Units=1/GPa)
#
#
# Indices 1 2 3 4 5 6 
#
# 1 0.048372 -0.018475 0.030455 0.000000 0.000000 0.000000
# 2 -0.018475 0.014119 -0.011929 0.000000 0.000000 0.000000
# 3 0.030455 -0.011929 0.064815 0.000000 0.000000 0.000000
# 4 0.000000 0.000000 0.000000 0.032699 0.000000 0.000000
# 5 0.000000 0.000000 0.000000 0.000000 0.049651 0.000000
# 6 0.000000 0.000000 0.000000 0.000000 0.000000 0.020995
#
#
# Mechanical properties :
#
#
# Convention : Reuss Voigt Hill
#
# Bulk Modulus (GPa) = 7.84887 32.79055 20.31971
# Shear Modulus (GPa) = 18.31383 31.14649 24.73016
#
# Velocity S-wave (km/s) = 3.08275 4.02025 3.58230
# Velocity P-wave (km/s) = 4.09194 6.21010 5.25877
#
# Compressibility (1/GPa) = 0.12740688
#
# Stress axis : x y z
#
# Youngs Moduli (GPa) = 20.67327 70.82867 15.42851
#
# Poissons Ratio (x) = 1.30856 -0.46987
# Poissons Ratio (y) = 0.38194 0.18405
# Poissons Ratio (z) = -0.62960 0.84492
#
# Static dielectric constant tensor:
#      x y z
#    x 1.651690 0.000000 0.000000 
#    y 0.000000 1.738860 0.000000 
#    z 0.000000 0.000000 1.722810 
# 
# From -- ./inp_files/14801.got.cif
#   From: 2010.05.17/outbox.cif.g08.bks.cpg/sg65_8_cif.got.tgz:14801.got - 2010.06.03 17:01:31.
