data_PCOD9484157
_publ_section_title
;
Structure prediction by ZEFSAII (Michael W. Deem and Ramdas Pophale) SiO2 
 PCOD9484157
Probable space group: C M M M
;
_chemical_formula_sum "Si O2"
_cell_formula_units_Z 88
_cell_length_a 28.892365
_cell_length_b 18.197344
_cell_length_c 7.530817
_cell_angle_alpha 90.000000
_cell_angle_beta 90.000000
_cell_angle_gamma 90.000000
_cell_volume 3959.434765
_symmetry_space_group_name_H-M "C M M M"
_symmetry_group_IT_number 65
_symmetry_cell_setting 'orthorhombic'
loop_
_space_group_symop_operation_xyz
x,y,z
-x,-y,z
x,-y,-z
-x,y,-z
-x,-y,-z
x,y,-z
-x,y,z
x,-y,z
1/2+x,1/2+y,z
1/2-x,1/2-y,z
1/2+x,1/2-y,-z
1/2-x,1/2+y,-z
1/2-x,1/2-y,-z
1/2+x,1/2+y,-z
1/2-x,1/2+y,z
1/2+x,1/2-y,z
loop_
_atom_site_type_symbol
_atom_site_label
_atom_site_fract_x
_atom_site_fract_y
_atom_site_fract_z
Si Si1 0.949818 0.265212 0.214535
Si Si2 0.214483 0.086090 0.716959
Si Si3 0.446659 0.500000 0.717750
Si Si4 0.185756 0.411166 0.297145
Si Si5 0.917673 0.581862 0.795694
Si Si6 0.616375 0.634994 0.290252
O O1 0.943185 0.348084 0.283354
O O2 0.908256 0.212455 0.266495
O O3 0.000000 0.235729 0.272193
O O4 0.949635 0.268095 0.000000
O O5 0.217305 0.088685 0.500000
O O6 0.264866 0.114160 0.778489
O O7 0.168659 0.127907 0.778974
O O8 0.208488 0.000000 0.764176
O O9 0.500000 0.500000 0.775990
O O10 0.447555 0.500000 0.500000
O O11 0.418039 0.571537 0.778009
O O12 0.180794 0.384715 0.500000
O O13 0.190495 0.500000 0.301947
O O14 0.136949 0.398213 0.205041
O O15 0.922973 0.500000 0.715964
O O16 0.932907 0.576274 0.000000
O O17 0.620550 0.620645 0.500000
#
# Coordination Sequence:
#
# PCOD9484157 Si02
#       6
#    16  16   8  16  16  16
#     4  10  22  38  52  69  98 131 161 203 258 304
#     4   8  13  25  47  75 103 132 165 200 236 278
#     4   9  16  26  45  73  99 125 165 211 242 269
#     4   8  14  26  48  76 103 128 156 195 245 293
#     4   9  18  34  55  75  94 122 164 207 247 298
#     4  10  18  31  52  76 101 131 169 207 240 281
#
# _framework density 22.225394000000001
#
# number of rings (size 3 to 8) (size 9 to 14) (size 15 to 20)
#    0.000    3.000    0.909    1.636    0.000    2.182 
#    0.000    4.091    0.000    8.182    0.000    3.818 
#    0.000    0.000    0.000    0.000    0.000    0.000 
#
# Total GULP energy -245334.770846 kJ/mol
# GULP energy per Si atom -5575.790246 kJ/mol
# Density = 2.217481 g / cm^3
# Si number density = 22.225394 Si / 1000 Ang^3
#
#
#
# Elastic Constant Matrix: (Units=GPa)
#
#
# Indices 1 2 3 4 5 6 
#
# 1 51.8993 0.0183 -7.6093 0.0000 0.0000 0.0000
# 2 0.0183 58.2786 -9.2560 0.0000 0.0000 0.0000
# 3 -7.6093 -9.2560 51.0385 0.0000 0.0000 0.0000
# 4 0.0000 0.0000 0.0000 12.4555 0.0000 0.0000
# 5 0.0000 0.0000 0.0000 0.0000 9.9739 0.0000
# 6 0.0000 0.0000 0.0000 0.0000 0.0000 28.7700
#
#
#
# Elastic Compliance Matrix: (Units=1/GPa)
#
#
# Indices 1 2 3 4 5 6 
#
# 1 0.019711 0.000474 0.003025 0.000000 0.000000 0.000000
# 2 0.000474 0.017679 0.003277 0.000000 0.000000 0.000000
# 3 0.003025 0.003277 0.020638 0.000000 0.000000 0.000000
# 4 0.000000 0.000000 0.000000 0.080286 0.000000 0.000000
# 5 0.000000 0.000000 0.000000 0.000000 0.100262 0.000000
# 6 0.000000 0.000000 0.000000 0.000000 0.000000 0.034758
#
#
# Mechanical properties :
#
#
# Convention : Reuss Voigt Hill
#
# Bulk Modulus (GPa) = 13.97024 14.16915 14.06970
# Shear Modulus (GPa) = 17.62775 22.11077 19.86926
#
# Velocity S-wave (km/s) = 2.81932 3.15753 2.99321
# Velocity P-wave (km/s) = 4.11065 4.43649 4.27667
#
# Compressibility (1/GPa) = 0.07158071
#
# Stress axis : x y z
#
# Youngs Moduli (GPa) = 50.73207 56.56348 48.45359
#
# Poissons Ratio (x) = -0.02682 -0.14656
# Poissons Ratio (y) = -0.02406 -0.15878
# Poissons Ratio (z) = -0.15345 -0.18535
#
# Static dielectric constant tensor:
#      x y z
#    x 1.841250 0.000000 0.000000 
#    y 0.000000 1.797630 0.000000 
#    z 0.000000 0.000000 1.856310 
# 
# From -- ./inp_files/10007.got.cif
#   From: 2010.05.17/outbox.cif.g08.bks.cpg/sg65_6_cif.got.tgz:10007.got - 2010.06.03 17:01:31.
