data_PCOD9484803
_publ_section_title
;
Structure prediction by ZEFSAII (Michael W. Deem and Ramdas Pophale) SiO2 
 PCOD9484803
Probable space group: C M M M
;
_chemical_formula_sum "Si O2"
_cell_formula_units_Z 72
_cell_length_a 26.584729
_cell_length_b 17.960902
_cell_length_c 7.413965
_cell_angle_alpha 90.000000
_cell_angle_beta 90.000000
_cell_angle_gamma 90.000000
_cell_volume 3540.062359
_symmetry_space_group_name_H-M "C M M M"
_symmetry_group_IT_number 65
_symmetry_cell_setting 'orthorhombic'
loop_
_space_group_symop_operation_xyz
x,y,z
-x,-y,z
x,-y,-z
-x,y,-z
-x,-y,-z
x,y,-z
-x,y,z
x,-y,z
1/2+x,1/2+y,z
1/2-x,1/2-y,z
1/2+x,1/2-y,-z
1/2-x,1/2+y,-z
1/2-x,1/2-y,-z
1/2+x,1/2+y,-z
1/2-x,1/2+y,z
1/2+x,1/2-y,z
loop_
_atom_site_type_symbol
_atom_site_label
_atom_site_fract_x
_atom_site_fract_y
_atom_site_fract_z
Si Si1 0.591071 0.191038 0.211154
Si Si2 0.500000 0.912893 0.779008
Si Si3 0.555583 0.641221 0.283358
Si Si4 0.692326 0.739334 0.778798
Si Si5 0.159172 0.079252 0.207937
O O1 0.550315 0.131661 0.282780
O O2 0.566992 0.273441 0.228315
O O3 0.648276 0.203580 0.281963
O O4 0.596477 0.173008 0.000000
O O5 0.500000 0.000000 0.728171
O O6 0.500000 0.909853 0.000000
O O7 0.557479 0.638309 0.500000
O O8 0.500000 0.620637 0.223185
O O9 0.599200 0.589001 0.210929
O O10 0.750000 0.750000 0.727388
O O11 0.678093 0.656686 0.713501
O O12 0.689929 0.740243 0.000000
O O13 0.173518 0.000000 0.289729
O O14 0.176185 0.078511 0.000000
#
# Coordination Sequence:
#
# PCOD9484803 Si02
#       5
#    16   8  16  16  16
#     4   9  16  28  47  66  90 124 155 187 226 272
#     4   9  16  26  43  69  96 119 150 191 231 272
#     4  10  19  29  44  66  91 119 150 186 228 272
#     4   8  14  26  45  67  88 114 151 189 225 265
#     4   9  18  31  46  65  90 121 154 186 223 270
#
# _framework density 20.338625
#
# number of rings (size 3 to 8) (size 9 to 14) (size 15 to 20)
#    0.000    3.000    1.111    2.000    0.000    2.222 
#    0.000    3.333    0.000   18.667    0.000    0.000 
#    0.000    0.000    0.000    0.000    0.000    0.000 
#
# Total GULP energy -200521.888754 kJ/mol
# GULP energy per Si atom -5570.052465 kJ/mol
# Density = 2.029233 g / cm^3
# Si number density = 20.338625 Si / 1000 Ang^3
#
#
#
# Elastic Constant Matrix: (Units=GPa)
#
#
# Indices 1 2 3 4 5 6 
#
# 1 167.5482 72.9167 8.7147 0.0000 0.0000 0.0000
# 2 72.9167 133.2413 0.3291 0.0000 0.0000 0.0000
# 3 8.7147 0.3291 63.1382 0.0000 0.0000 0.0000
# 4 0.0000 0.0000 0.0000 -25.8838 0.0000 0.0000
# 5 0.0000 0.0000 0.0000 0.0000 22.9356 0.0000
# 6 0.0000 0.0000 0.0000 0.0000 0.0000 261.0083
#
#
#
# Elastic Compliance Matrix: (Units=1/GPa)
#
#
# Indices 1 2 3 4 5 6 
#
# 1 0.007906 -0.004324 -0.001069 0.000000 0.000000 0.000000
# 2 -0.004324 0.009870 0.000545 0.000000 0.000000 0.000000
# 3 -0.001069 0.000545 0.015983 0.000000 0.000000 0.000000
# 4 0.000000 0.000000 0.000000 -0.038634 0.000000 0.000000
# 5 0.000000 0.000000 0.000000 0.000000 0.043600 0.000000
# 6 0.000000 0.000000 0.000000 0.000000 0.000000 0.003831
#
#
# Mechanical properties :
#
#
# Convention : Reuss Voigt Hill
#
# Bulk Modulus (GPa) = 41.55499 58.64986 50.10243
# Shear Modulus (GPa) = 82.95742 70.40982 76.68362
#
# Velocity S-wave (km/s) = 6.39349 5.89015 6.14697
# Velocity P-wave (km/s) = 8.65899 8.66936 8.66418
#
# Compressibility (1/GPa) = 0.02406450
#
# Stress axis : x y z
#
# Youngs Moduli (GPa) = 126.49069 101.31670 62.56673
#
# Poissons Ratio (x) = 0.43807 0.06686
# Poissons Ratio (y) = 0.54692 -0.03412
# Poissons Ratio (z) = 0.13518 -0.05525
#
# Static dielectric constant tensor:
#      x y z
#    x 1.736610 0.000000 0.000000 
#    y 0.000000 1.711510 0.000000 
#    z 0.000000 0.000000 1.764300 
# 
# From -- ./inp_files/9458.got.cif
#   From: 2010.05.17/outbox.cif.g08.bks.cpg/sg65_5_cif.got.tgz:9458.got - 2010.06.03 17:01:31.
