data_PCOD9484556
_publ_section_title
;
Structure prediction by ZEFSAII (Michael W. Deem and Ramdas Pophale) SiO2 
 PCOD9484556
Probable space group: C M M M
;
_chemical_formula_sum "Si O2"
_cell_formula_units_Z 96
_cell_length_a 14.363333
_cell_length_b 34.320079
_cell_length_c 11.694970
_cell_angle_alpha 90.000000
_cell_angle_beta 90.000000
_cell_angle_gamma 90.000000
_cell_volume 5765.043920
_symmetry_space_group_name_H-M "C M M M"
_symmetry_group_IT_number 65
_symmetry_cell_setting 'orthorhombic'
loop_
_space_group_symop_operation_xyz
x,y,z
-x,-y,z
x,-y,-z
-x,y,-z
-x,-y,-z
x,y,-z
-x,y,z
x,-y,z
1/2+x,1/2+y,z
1/2-x,1/2-y,z
1/2+x,1/2-y,-z
1/2-x,1/2+y,-z
1/2-x,1/2-y,-z
1/2+x,1/2+y,-z
1/2-x,1/2+y,z
1/2+x,1/2-y,z
loop_
_atom_site_type_symbol
_atom_site_label
_atom_site_fract_x
_atom_site_fract_y
_atom_site_fract_z
Si Si1 0.780279 0.620479 0.138348
Si Si2 0.888620 0.690618 0.260393
Si Si3 0.893380 0.456285 0.138417
Si Si4 0.853643 0.266417 0.500000
Si Si5 0.606066 0.676105 0.500000
Si Si6 0.387343 0.266339 0.127174
Si Si7 0.888037 0.153427 0.745955
O O1 0.836349 0.652920 0.211573
O O2 0.824674 0.578663 0.167836
O O3 0.673780 0.624138 0.180224
O O4 0.788066 0.626845 0.000000
O O5 0.872971 0.707066 0.388876
O O6 0.854370 0.726536 0.182279
O O7 0.000000 0.684985 0.246777
O O8 0.867556 0.500000 0.177328
O O9 0.000000 0.448237 0.175509
O O10 0.895191 0.457299 0.000000
O O11 0.750000 0.250000 0.500000
O O12 0.901277 0.223428 0.500000
O O13 0.500000 0.662397 0.500000
O O14 0.646808 0.658468 0.384226
O O15 0.500000 0.263097 0.122789
O O16 0.369355 0.303950 0.202034
O O17 0.351842 0.272226 0.000000
O O18 0.000000 0.146509 0.750840
#
# Coordination Sequence:
#
# PCOD9484556 Si02
#       7
#    16  16  16   8   8  16  16
#     4  11  22  33  50  78 108 134 163 207 260 315
#     4  11  22  34  49  71  99 133 173 220 266 299
#     4   8  15  31  55  79 103 132 164 198 242 304
#     4  12  22  34  50  68  94 133 183 229 261 296
#     4  10  18  34  54  66  86 130 186 230 253 281
#     4   9  17  29  45  65  94 132 168 202 248 305
#     4  10  20  34  51  72  99 136 179 218 256 295
#
# _framework density 16.652085
#
# number of rings (size 3 to 8) (size 9 to 14) (size 15 to 20)
#    0.000    2.000    1.667    3.750    0.000    2.667 
#    0.000    1.667    0.000    0.500    0.000    4.667 
#    0.000    8.667    0.000    0.000    0.000    0.000 
#
# Total GULP energy -267511.840033 kJ/mol
# GULP energy per Si atom -5573.163334 kJ/mol
# Density = 1.661418 g / cm^3
# Si number density = 16.652085 Si / 1000 Ang^3
#
#
#
# Elastic Constant Matrix: (Units=GPa)
#
#
# Indices 1 2 3 4 5 6 
#
# 1 86.4419 46.5258 17.8255 0.0000 0.0000 0.0000
# 2 46.5258 103.3395 24.8156 0.0000 0.0000 0.0000
# 3 17.8255 24.8156 86.6890 0.0000 0.0000 0.0000
# 4 0.0000 0.0000 0.0000 -6.4944 0.0000 0.0000
# 5 0.0000 0.0000 0.0000 0.0000 15.6372 0.0000
# 6 0.0000 0.0000 0.0000 0.0000 0.0000 24.4903
#
#
#
# Elastic Compliance Matrix: (Units=1/GPa)
#
#
# Indices 1 2 3 4 5 6 
#
# 1 0.015397 -0.006627 -0.001269 0.000000 0.000000 0.000000
# 2 -0.006627 0.013244 -0.002428 0.000000 0.000000 0.000000
# 3 -0.001269 -0.002428 0.012492 0.000000 0.000000 0.000000
# 4 0.000000 0.000000 0.000000 -0.153980 0.000000 0.000000
# 5 0.000000 0.000000 0.000000 0.000000 0.063950 0.000000
# 6 0.000000 0.000000 0.000000 0.000000 0.000000 0.040833
#
#
# Mechanical properties :
#
#
# Convention : Reuss Voigt Hill
#
# Bulk Modulus (GPa) = 48.82075 50.53381 49.67728
# Shear Modulus (GPa) = 257.56364 19.21353 138.38858
#
# Velocity S-wave (km/s) = 12.45027 3.40048 9.12613
# Velocity P-wave (km/s) = 15.36427 6.76982 11.87205
#
# Compressibility (1/GPa) = 0.02048310
#
# Stress axis : x y z
#
# Youngs Moduli (GPa) = 64.94662 75.50683 80.05408
#
# Poissons Ratio (x) = 0.50042 0.10158
# Poissons Ratio (y) = 0.43043 0.19440
# Poissons Ratio (z) = 0.08241 0.18336
#
# Static dielectric constant tensor:
#      x y z
#    x 1.502340 0.000000 0.000000 
#    y 0.000000 1.533070 0.000000 
#    z 0.000000 0.000000 1.605350 
# 
# From -- ./inp_files/25474.got.cif
#   From: 2010.05.17/outbox.cif.g08.bks.cpg/sg65_13_cif.got.tgz:25474.got - 2010.06.03 17:01:31.
