data_PCOD9484687
_publ_section_title
;
Structure prediction by ZEFSAII (Michael W. Deem and Ramdas Pophale) SiO2 
 PCOD9484687
Probable space group: C M M M
;
_chemical_formula_sum "Si O2"
_cell_formula_units_Z 88
_cell_length_a 26.192837
_cell_length_b 22.219532
_cell_length_c 7.624421
_cell_angle_alpha 90.000000
_cell_angle_beta 90.000000
_cell_angle_gamma 90.000000
_cell_volume 4437.356448
_symmetry_space_group_name_H-M "C M M M"
_symmetry_group_IT_number 65
_symmetry_cell_setting 'orthorhombic'
loop_
_space_group_symop_operation_xyz
x,y,z
-x,-y,z
x,-y,-z
-x,y,-z
-x,-y,-z
x,y,-z
-x,y,z
x,-y,z
1/2+x,1/2+y,z
1/2-x,1/2-y,z
1/2+x,1/2-y,-z
1/2-x,1/2+y,-z
1/2-x,1/2-y,-z
1/2+x,1/2+y,-z
1/2-x,1/2+y,z
1/2+x,1/2-y,z
loop_
_atom_site_type_symbol
_atom_site_label
_atom_site_fract_x
_atom_site_fract_y
_atom_site_fract_z
Si Si1 0.387278 0.569230 0.714514
Si Si2 0.698348 0.334519 0.712589
Si Si3 0.500000 0.606277 0.701797
Si Si4 0.809780 0.306431 0.286859
Si Si5 0.500000 0.744254 0.789694
Si Si6 0.560151 0.064785 0.500000
Si Si7 0.580600 0.155984 0.196254
O O1 0.387870 0.572499 0.500000
O O2 0.375065 0.500000 0.761813
O O3 0.344488 0.617938 0.774187
O O4 0.445186 0.584772 0.775794
O O5 0.697300 0.337543 0.500000
O O6 0.757801 0.340798 0.765173
O O7 0.689275 0.264591 0.758838
O O8 0.500000 0.584936 0.500000
O O9 0.500000 0.678714 0.706836
O O10 0.813391 0.309714 0.500000
O O11 0.859726 0.332382 0.201189
O O12 0.549125 0.784859 0.743163
O O13 0.500000 0.735157 0.000000
O O14 0.500000 0.058017 0.500000
O O15 0.571966 0.102581 0.328829
O O16 0.585985 0.000000 0.500000
O O17 0.562717 0.142648 0.000000
#
# Coordination Sequence:
#
# PCOD9484687 Si02
#       7
#    16  16   8  16   8   8  16
#     4   9  16  27  43  71 109 143 186 237 280 330
#     4   8  15  27  46  74 105 153 195 239 294 339
#     4  10  19  28  50  80 105 143 185 224 281 333
#     4   9  16  30  53  77 110 145 190 242 292 349
#     4  10  22  35  51  82 116 141 171 222 280 333
#     4  11  24  42  64  85 110 152 192 222 277 351
#     4  11  22  37  58  88 119 148 185 236 289 338
#
# _framework density 19.831627000000001
#
# number of rings (size 3 to 8) (size 9 to 14) (size 15 to 20)
#    0.000    2.455    1.818    2.455    1.273    2.909 
#    0.000    3.636    0.000    2.182    0.000    0.000 
#    0.000    0.000    0.000    0.000    0.000    0.000 
#
# Total GULP energy -245334.039853 kJ/mol
# GULP energy per Si atom -5575.773633 kJ/mol
# Density = 1.978649 g / cm^3
# Si number density = 19.831627 Si / 1000 Ang^3
#
#
#
# Elastic Constant Matrix: (Units=GPa)
#
#
# Indices 1 2 3 4 5 6 
#
# 1 169.3094 70.6126 16.7584 0.0000 0.0000 0.0000
# 2 70.6126 112.5567 22.9096 0.0000 0.0000 0.0000
# 3 16.7584 22.9096 48.2932 0.0000 0.0000 0.0000
# 4 0.0000 0.0000 0.0000 -62.1784 0.0000 0.0000
# 5 0.0000 0.0000 0.0000 0.0000 28.6588 0.0000
# 6 0.0000 0.0000 0.0000 0.0000 0.0000 8.5888
#
#
#
# Elastic Compliance Matrix: (Units=1/GPa)
#
#
# Indices 1 2 3 4 5 6 
#
# 1 0.008008 -0.004934 -0.000438 0.000000 0.000000 0.000000
# 2 -0.004934 0.012875 -0.004395 0.000000 0.000000 0.000000
# 3 -0.000438 -0.004395 0.022944 0.000000 0.000000 0.000000
# 4 0.000000 0.000000 0.000000 -0.016083 0.000000 0.000000
# 5 0.000000 0.000000 0.000000 0.000000 0.034893 0.000000
# 6 0.000000 0.000000 0.000000 0.000000 0.000000 0.116430
#
#
# Mechanical properties :
#
#
# Convention : Reuss Voigt Hill
#
# Bulk Modulus (GPa) = 41.16761 61.19114 51.17938
# Shear Modulus (GPa) = 24.18972 9.67244 16.93108
#
# Velocity S-wave (km/s) = 3.49629 2.21085 2.92506
# Velocity P-wave (km/s) = 6.09117 6.11878 6.10499
#
# Compressibility (1/GPa) = 0.02429094
#
# Stress axis : x y z
#
# Youngs Moduli (GPa) = 124.88008 77.67193 43.58465
#
# Poissons Ratio (x) = 0.38327 0.01909
# Poissons Ratio (y) = 0.61622 0.19156
# Poissons Ratio (z) = 0.05469 0.34138
#
# Static dielectric constant tensor:
#      x y z
#    x 1.723200 0.000000 0.000000 
#    y 0.000000 1.720450 0.000000 
#    z 0.000000 0.000000 1.659120 
# 
# From -- ./inp_files/14078.got.cif
#   From: 2010.05.17/outbox.cif.g08.bks.cpg/sg65_8_cif.got.tgz:14078.got - 2010.06.03 17:01:31.
