data_PCOD9484955
_publ_section_title
;
Structure prediction by ZEFSAII (Michael W. Deem and Ramdas Pophale) SiO2 
 PCOD9484955
Probable space group: C M M M
;
_chemical_formula_sum "Si O2"
_cell_formula_units_Z 88
_cell_length_a 28.220014
_cell_length_b 8.221034
_cell_length_c 22.403463
_cell_angle_alpha 90.000000
_cell_angle_beta 90.000000
_cell_angle_gamma 90.000000
_cell_volume 5197.551766
_symmetry_space_group_name_H-M "C M M M"
_symmetry_group_IT_number 65
_symmetry_cell_setting 'orthorhombic'
loop_
_space_group_symop_operation_xyz
x,y,z
-x,-y,z
x,-y,-z
-x,y,-z
-x,-y,-z
x,y,-z
-x,y,z
x,-y,z
1/2+x,1/2+y,z
1/2-x,1/2-y,z
1/2+x,1/2-y,-z
1/2-x,1/2+y,-z
1/2-x,1/2-y,-z
1/2+x,1/2+y,-z
1/2-x,1/2+y,z
1/2+x,1/2-y,z
loop_
_atom_site_type_symbol
_atom_site_label
_atom_site_fract_x
_atom_site_fract_y
_atom_site_fract_z
Si Si1 0.197419 0.193917 0.370112
Si Si2 0.102471 0.198632 0.433544
Si Si3 0.195243 0.697056 0.130094
Si Si4 0.352843 0.194393 0.749204
Si Si5 0.447099 0.696534 0.687240
Si Si6 0.195189 0.303836 0.000000
O O1 0.250000 0.250000 0.385295
O O2 0.155623 0.249908 0.414563
O O3 0.181842 0.249725 0.304058
O O4 0.196680 0.000000 0.370523
O O5 0.090162 0.254392 0.500000
O O6 0.068379 0.249973 0.379519
O O7 0.101722 0.000000 0.434153
O O8 0.194490 0.500000 0.130546
O O9 0.250000 0.750000 0.136163
O O10 0.165560 0.756016 0.186920
O O11 0.176608 0.752021 0.064715
O O12 0.405469 0.249688 0.731363
O O13 0.352052 0.000000 0.750331
O O14 0.500000 0.753633 0.701826
O O15 0.447257 0.500000 0.686920
O O16 0.250000 0.250000 0.000000
O O17 0.192879 0.500000 0.000000
#
# Coordination Sequence:
#
# PCOD9484955 Si02
#       6
#    16  16  16  16  16   8
#     4  10  19  30  44  63  88 118 149 180 214 252
#     4   8  15  28  45  65  87 110 139 175 214 260
#     4   9  17  27  42  64  90 120 149 176 208 246
#     4  10  19  30  45  66  89 115 147 180 216 257
#     4   9  18  32  49  68  88 110 138 176 223 268
#     4   8  14  26  40  58  87 118 147 177 206 241
#
# _framework density 16.931049000000002
#
# number of rings (size 3 to 8) (size 9 to 14) (size 15 to 20)
#    0.000    2.909    0.000    2.727    0.000    4.000 
#    0.000    1.818    0.000   13.091    0.000    5.727 
#    0.000    5.091    0.000    0.000    0.000    0.000 
#
# Total GULP energy -245095.524488 kJ/mol
# GULP energy per Si atom -5570.352829 kJ/mol
# Density = 1.689251 g / cm^3
# Si number density = 16.931049 Si / 1000 Ang^3
#
#
#
# Elastic Constant Matrix: (Units=GPa)
#
#
# Indices 1 2 3 4 5 6 
#
# 1 69.0016 6.0352 23.1360 0.0000 0.0000 0.0000
# 2 6.0352 13.8001 5.0609 0.0000 0.0000 0.0000
# 3 23.1360 5.0609 118.5204 0.0000 0.0000 0.0000
# 4 0.0000 0.0000 0.0000 13.9473 0.0000 0.0000
# 5 0.0000 0.0000 0.0000 0.0000 12.2969 0.0000
# 6 0.0000 0.0000 0.0000 0.0000 0.0000 20.6354
#
#
#
# Elastic Compliance Matrix: (Units=1/GPa)
#
#
# Indices 1 2 3 4 5 6 
#
# 1 0.015972 -0.005935 -0.002864 0.000000 0.000000 0.000000
# 2 -0.005935 0.075821 -0.002079 0.000000 0.000000 0.000000
# 3 -0.002864 -0.002079 0.009085 0.000000 0.000000 0.000000
# 4 0.000000 0.000000 0.000000 0.071699 0.000000 0.000000
# 5 0.000000 0.000000 0.000000 0.000000 0.081322 0.000000
# 6 0.000000 0.000000 0.000000 0.000000 0.000000 0.048460
#
#
# Mechanical properties :
#
#
# Convention : Reuss Voigt Hill
#
# Bulk Modulus (GPa) = 12.63869 29.97624 21.30747
# Shear Modulus (GPa) = 14.26577 20.51523 17.39050
#
# Velocity S-wave (km/s) = 2.90587 3.48471 3.20837
# Velocity P-wave (km/s) = 4.32895 5.82532 5.13196
#
# Compressibility (1/GPa) = 0.07912215
#
# Stress axis : x y z
#
# Youngs Moduli (GPa) = 62.60988 13.18894 110.06784
#
# Poissons Ratio (x) = 0.07827 0.31528
# Poissons Ratio (y) = 0.37156 0.22885
# Poissons Ratio (z) = 0.17934 0.02742
#
# Static dielectric constant tensor:
#      x y z
#    x 1.542010 0.000000 0.000000 
#    y 0.000000 1.599350 0.000000 
#    z 0.000000 0.000000 1.605390 
# 
# From -- ./inp_files/60640.got.cif
#   From: 2010.05.17/outbox.cif.g08.bks.cpg/sg65_31_cif.got.tgz:60640.got - 2010.06.03 17:01:31.
