data_PCOD9484601
_publ_section_title
;
Structure prediction by ZEFSAII (Michael W. Deem and Ramdas Pophale) SiO2 
 PCOD9484601
Probable space group: C M M M
;
_chemical_formula_sum "Si O2"
_cell_formula_units_Z 112
_cell_length_a 17.370820
_cell_length_b 25.657145
_cell_length_c 13.620790
_cell_angle_alpha 90.000000
_cell_angle_beta 90.000000
_cell_angle_gamma 90.000000
_cell_volume 6070.590611
_symmetry_space_group_name_H-M "C M M M"
_symmetry_group_IT_number 65
_symmetry_cell_setting 'orthorhombic'
loop_
_space_group_symop_operation_xyz
x,y,z
-x,-y,z
x,-y,-z
-x,y,-z
-x,-y,-z
x,y,-z
-x,y,z
x,-y,z
1/2+x,1/2+y,z
1/2-x,1/2-y,z
1/2+x,1/2-y,-z
1/2-x,1/2+y,-z
1/2-x,1/2-y,-z
1/2+x,1/2+y,-z
1/2-x,1/2+y,z
1/2+x,1/2-y,z
loop_
_atom_site_type_symbol
_atom_site_label
_atom_site_fract_x
_atom_site_fract_y
_atom_site_fract_z
Si Si1 0.913757 0.263165 0.195994
Si Si2 0.709266 0.621086 0.611900
Si Si3 0.414283 0.060562 0.117988
Si Si4 0.161641 0.236607 0.610563
Si Si5 0.126632 0.851058 0.885471
Si Si6 0.202022 0.644185 0.194020
Si Si7 0.086819 0.939679 0.730805
O O1 0.899377 0.256918 0.312427
O O2 0.901443 0.206010 0.149489
O O3 0.848662 0.304992 0.169060
O O4 0.000000 0.281073 0.173228
O O5 0.735260 0.611496 0.500000
O O6 0.658920 0.674112 0.610220
O O7 0.775216 0.634680 0.691584
O O8 0.653774 0.576605 0.654978
O O9 0.500000 0.077544 0.149579
O O10 0.348032 0.095332 0.161755
O O11 0.405115 0.000000 0.144099
O O12 0.411683 0.064099 0.000000
O O13 0.152286 0.256631 0.500000
O O14 0.250000 0.250000 0.641440
O O15 0.217831 0.852176 0.863437
O O16 0.093447 0.898026 0.819453
O O17 0.110018 0.858047 0.000000
O O18 0.000000 0.935081 0.689378
O O19 0.097269 0.000000 0.761910
#
# Coordination Sequence:
#
# PCOD9484601 Si02
#       7
#    16  16  16  16  16  16  16
#     4  12  23  36  55  84 117 149 186 231 285 344
#     4  10  21  36  59  84 112 149 188 232 284 334
#     4   9  19  37  60  86 115 146 185 236 290 339
#     4  10  18  35  59  81 109 146 185 227 276 330
#     4  11  24  40  58  80 112 151 192 237 289 345
#     4  11  21  37  59  86 114 149 191 234 280 338
#     4  10  22  40  60  83 113 148 191 241 288 340
#
# _framework density 18.449605999999999
#
# number of rings (size 3 to 8) (size 9 to 14) (size 15 to 20)
#    0.000    1.571    4.286    2.143    0.000    6.286 
#    0.000    2.857    0.000    1.286    0.000    1.000 
#    0.000    0.000    0.000    0.000    0.000    0.000 
#
# Total GULP energy -312379.466420 kJ/mol
# GULP energy per Si atom -5578.204757 kJ/mol
# Density = 1.840761 g / cm^3
# Si number density = 18.449606 Si / 1000 Ang^3
#
#
#
# Elastic Constant Matrix: (Units=GPa)
#
#
# Indices 1 2 3 4 5 6 
#
# 1 68.9306 35.5005 -3.1997 0.0000 0.0000 0.0000
# 2 35.5005 87.8149 13.9822 0.0000 0.0000 0.0000
# 3 -3.1997 13.9822 52.8598 0.0000 0.0000 0.0000
# 4 0.0000 0.0000 0.0000 14.9949 0.0000 0.0000
# 5 0.0000 0.0000 0.0000 0.0000 11.6247 0.0000
# 6 0.0000 0.0000 0.0000 0.0000 0.0000 36.4852
#
#
#
# Elastic Compliance Matrix: (Units=1/GPa)
#
#
# Indices 1 2 3 4 5 6 
#
# 1 0.018857 -0.008148 0.003297 0.000000 0.000000 0.000000
# 2 -0.008148 0.015409 -0.004569 0.000000 0.000000 0.000000
# 3 0.003297 -0.004569 0.020326 0.000000 0.000000 0.000000
# 4 0.000000 0.000000 0.000000 0.066690 0.000000 0.000000
# 5 0.000000 0.000000 0.000000 0.000000 0.086024 0.000000
# 6 0.000000 0.000000 0.000000 0.000000 0.000000 0.027408
#
#
# Mechanical properties :
#
#
# Convention : Reuss Voigt Hill
#
# Bulk Modulus (GPa) = 27.97124 33.57459 30.77292
# Shear Modulus (GPa) = 18.83441 23.50911 21.17176
#
# Velocity S-wave (km/s) = 3.19855 3.57351 3.39122
# Velocity P-wave (km/s) = 5.36980 5.93836 5.66123
#
# Compressibility (1/GPa) = 0.03575100
#
# Stress axis : x y z
#
# Youngs Moduli (GPa) = 53.03137 64.89687 49.19779
#
# Poissons Ratio (x) = 0.52878 -0.16219
# Poissons Ratio (y) = 0.43210 0.22479
# Poissons Ratio (z) = -0.17483 0.29652
#
# Static dielectric constant tensor:
#      x y z
#    x 1.643850 0.000000 0.000000 
#    y 0.000000 1.642090 0.000000 
#    z 0.000000 0.000000 1.651520 
# 
# From -- ./inp_files/40771.got.cif
#   From: 2010.05.17/outbox.cif.g08.bks.cpg/sg65_21_cif.got.tgz:40771.got - 2010.06.03 17:01:31.
