data_PCOD9484708
_publ_section_title
;
Structure prediction by ZEFSAII (Michael W. Deem and Ramdas Pophale) SiO2 
 PCOD9484708
Probable space group: C M M M
;
_chemical_formula_sum "Si O2"
_cell_formula_units_Z 72
_cell_length_a 7.330057
_cell_length_b 18.998566
_cell_length_c 24.884454
_cell_angle_alpha 90.000000
_cell_angle_beta 90.000000
_cell_angle_gamma 90.000000
_cell_volume 3465.423290
_symmetry_space_group_name_H-M "C M M M"
_symmetry_group_IT_number 65
_symmetry_cell_setting 'orthorhombic'
loop_
_space_group_symop_operation_xyz
x,y,z
-x,-y,z
x,-y,-z
-x,y,-z
-x,-y,-z
x,y,-z
-x,y,z
x,-y,z
1/2+x,1/2+y,z
1/2-x,1/2-y,z
1/2+x,1/2-y,-z
1/2-x,1/2+y,-z
1/2-x,1/2-y,-z
1/2+x,1/2+y,-z
1/2-x,1/2+y,z
1/2+x,1/2-y,z
loop_
_atom_site_type_symbol
_atom_site_label
_atom_site_fract_x
_atom_site_fract_y
_atom_site_fract_z
Si Si1 0.776890 0.581941 0.103546
Si Si2 0.223104 0.581896 0.337727
Si Si3 0.785563 0.585404 0.779071
Si Si4 0.282350 0.833111 0.559220
Si Si5 0.717455 0.832932 0.000000
O O1 0.725643 0.500000 0.095905
O O2 0.713107 0.607093 0.162590
O O3 0.000000 0.582861 0.104844
O O4 0.714554 0.629279 0.054055
O O5 0.273368 0.500000 0.343291
O O6 0.286635 0.608635 0.279024
O O7 0.287074 0.625439 0.389038
O O8 0.000000 0.584065 0.336575
O O9 0.772501 0.500000 0.778695
O O10 0.000000 0.603229 0.779242
O O11 0.212264 0.854301 0.500000
O O12 0.500000 0.844299 0.558162
O O13 0.250000 0.750000 0.565226
O O14 0.750000 0.750000 0.000000
O O15 0.500000 0.843868 0.000000
#
# Coordination Sequence:
#
# PCOD9484708 Si02
#       5
#    16  16  16  16   8
#     4   8  13  23  41  61  77  99 135 170 194 223
#     4   8  13  22  38  60  82 101 125 162 204 237
#     4   7  10  18  34  57  81  99 120 159 204 234
#     4   9  17  28  41  57  79 107 135 162 193 231
#     4  10  19  29  41  59  85 110 130 160 200 236
#
# _framework density 20.776682999999998
#
# number of rings (size 3 to 8) (size 9 to 14) (size 15 to 20)
#    0.000    3.778    0.000    3.000    0.000    1.778 
#    0.000    3.333    0.000    2.000    0.000    3.111 
#    0.000    5.333    0.000    0.000    0.000    0.000 
#
# Total GULP energy -200555.142515 kJ/mol
# GULP energy per Si atom -5570.976181 kJ/mol
# Density = 2.072939 g / cm^3
# Si number density = 20.776683 Si / 1000 Ang^3
#
#
#
# Elastic Constant Matrix: (Units=GPa)
#
#
# Indices 1 2 3 4 5 6 
#
# 1 80.2674 -2.6466 16.0523 0.0000 0.0000 0.0000
# 2 -2.6466 63.4513 108.5724 0.0000 0.0000 0.0000
# 3 16.0523 108.5724 303.2012 0.0000 0.0000 0.0000
# 4 0.0000 0.0000 0.0000 -3.4428 0.0000 0.0000
# 5 0.0000 0.0000 0.0000 0.0000 -14.1733 0.0000
# 6 0.0000 0.0000 0.0000 0.0000 0.0000 7.1940
#
#
#
# Elastic Compliance Matrix: (Units=1/GPa)
#
#
# Indices 1 2 3 4 5 6 
#
# 1 0.013063 0.004463 -0.002290 0.000000 0.000000 0.000000
# 2 0.004463 0.042220 -0.015355 0.000000 0.000000 0.000000
# 3 -0.002290 -0.015355 0.008918 0.000000 0.000000 0.000000
# 4 0.000000 0.000000 0.000000 -0.290460 0.000000 0.000000
# 5 0.000000 0.000000 0.000000 0.000000 -0.070555 0.000000
# 6 0.000000 0.000000 0.000000 0.000000 0.000000 0.139004
#
#
# Mechanical properties :
#
#
# Convention : Reuss Voigt Hill
#
# Bulk Modulus (GPa) = 26.42857 76.76399 51.59628
# Shear Modulus (GPa) = -42.07516 19.57838 -11.24839
#
# Velocity S-wave (km/s) = -4.50501 3.07306 -2.32931
# Velocity P-wave (km/s) = 3.78315 7.04408 4.20159
#
# Compressibility (1/GPa) = 0.03783784
#
# Stress axis : x y z
#
# Youngs Moduli (GPa) = 76.54965 23.68560 112.13722
#
# Poissons Ratio (x) = -0.10570 0.25676
# Poissons Ratio (y) = -0.34163 1.72182
# Poissons Ratio (z) = 0.17527 0.36368
#
# Static dielectric constant tensor:
#      x y z
#    x 1.807800 0.000000 0.000000 
#    y 0.000000 1.669930 0.000000 
#    z 0.000000 0.000000 1.795470 
# 
# From -- ./inp_files/61300.got.cif
#   From: 2010.05.17/outbox.cif.g08.bks.cpg/sg65_31_cif.got.tgz:61300.got - 2010.06.03 17:01:31.
