data_PCOD9484424
_publ_section_title
;
Structure prediction by ZEFSAII (Michael W. Deem and Ramdas Pophale) SiO2 
 PCOD9484424
Probable space group: C M M M
;
_chemical_formula_sum "Si O2"
_cell_formula_units_Z 80
_cell_length_a 20.811149
_cell_length_b 14.535467
_cell_length_c 14.369289
_cell_angle_alpha 90.000000
_cell_angle_beta 90.000000
_cell_angle_gamma 90.000000
_cell_volume 4346.706611
_symmetry_space_group_name_H-M "C M M M"
_symmetry_group_IT_number 65
_symmetry_cell_setting 'orthorhombic'
loop_
_space_group_symop_operation_xyz
x,y,z
-x,-y,z
x,-y,-z
-x,y,-z
-x,-y,-z
x,y,-z
-x,y,z
x,-y,z
1/2+x,1/2+y,z
1/2-x,1/2-y,z
1/2+x,1/2-y,-z
1/2-x,1/2+y,-z
1/2-x,1/2-y,-z
1/2+x,1/2+y,-z
1/2-x,1/2+y,z
1/2+x,1/2-y,z
loop_
_atom_site_type_symbol
_atom_site_label
_atom_site_fract_x
_atom_site_fract_y
_atom_site_fract_z
Si Si1 0.576273 0.602293 0.218807
Si Si2 0.721705 0.104860 0.807616
Si Si3 0.202370 0.338239 0.603384
Si Si4 0.424694 0.277198 0.394081
Si Si5 0.661109 0.724667 0.890192
O O1 0.500000 0.594931 0.219120
O O2 0.604118 0.500000 0.206987
O O3 0.594191 0.647217 0.317761
O O4 0.597106 0.672463 0.139140
O O5 0.719301 0.106160 0.695720
O O6 0.666919 0.174224 0.845577
O O7 0.784773 0.158325 0.844381
O O8 0.718144 0.000000 0.841138
O O9 0.209612 0.380236 0.500000
O O10 0.250000 0.250000 0.605599
O O11 0.128698 0.302494 0.612418
O O12 0.420860 0.313043 0.500000
O O13 0.500000 0.250287 0.378474
O O14 0.670761 0.730024 0.000000
#
# Coordination Sequence:
#
# PCOD9484424 Si02
#       5
#    16  16  16  16  16
#     4  10  20  34  55  83 112 144 182 222 271 329
#     4  11  21  36  58  82 107 139 180 223 273 330
#     4  10  18  32  55  81 112 145 177 217 269 328
#     4   9  17  31  53  79 110 148 184 219 265 325
#     4  11  23  39  56  78 109 142 182 232 280 323
#
# _framework density 18.404738999999999
#
# number of rings (size 3 to 8) (size 9 to 14) (size 15 to 20)
#    0.000    1.800    4.000    1.800    0.000    4.000 
#    0.000    3.000    0.000    8.400    0.000    4.200 
#    0.000    0.000    0.000    0.000    0.000    0.000 
#
# Total GULP energy -222908.988824 kJ/mol
# GULP energy per Si atom -5572.724721 kJ/mol
# Density = 1.836285 g / cm^3
# Si number density = 18.404739 Si / 1000 Ang^3
#
#
#
# Elastic Constant Matrix: (Units=GPa)
#
#
# Indices 1 2 3 4 5 6 
#
# 1 21.4474 1.1506 15.8798 0.0000 0.0000 0.0000
# 2 1.1506 105.7484 46.6208 0.0000 0.0000 0.0000
# 3 15.8798 46.6208 130.9390 0.0000 0.0000 0.0000
# 4 0.0000 0.0000 0.0000 -0.4454 0.0000 0.0000
# 5 0.0000 0.0000 0.0000 0.0000 -20.1653 0.0000
# 6 0.0000 0.0000 0.0000 0.0000 0.0000 13.2909
#
#
#
# Elastic Compliance Matrix: (Units=1/GPa)
#
#
# Indices 1 2 3 4 5 6 
#
# 1 0.051829 0.002618 -0.007218 0.000000 0.000000 0.000000
# 2 0.002618 0.011349 -0.004358 0.000000 0.000000 0.000000
# 3 -0.007218 -0.004358 0.010064 0.000000 0.000000 0.000000
# 4 0.000000 0.000000 0.000000 -2.244958 0.000000 0.000000
# 5 0.000000 0.000000 0.000000 0.000000 -0.049590 0.000000
# 6 0.000000 0.000000 0.000000 0.000000 0.000000 0.075240
#
#
# Mechanical properties :
#
#
# Convention : Reuss Voigt Hill
#
# Bulk Modulus (GPa) = 18.07441 42.82635 30.45038
# Shear Modulus (GPa) = -2.37000 11.50160 4.56580
#
# Velocity S-wave (km/s) = -1.13600 2.50256 1.57676
# Velocity P-wave (km/s) = 2.84977 5.62762 4.46045
#
# Compressibility (1/GPa) = 0.05532683
#
# Stress axis : x y z
#
# Youngs Moduli (GPa) = 19.29405 88.11022 99.36073
#
# Poissons Ratio (x) = -0.23069 0.71717
# Poissons Ratio (y) = -0.05051 0.43306
# Poissons Ratio (z) = 0.13926 0.38403
#
# Static dielectric constant tensor:
#      x y z
#    x 1.706000 0.000000 0.000000 
#    y 0.000000 1.646760 0.000000 
#    z 0.000000 0.000000 1.645930 
# 
# From -- ./inp_files/40505.got.cif
#   From: 2010.05.17/outbox.cif.g08.bks.cpg/sg65_21_cif.got.tgz:40505.got - 2010.06.03 17:01:31.
