data_PCOD9484452
_publ_section_title
;
Structure prediction by ZEFSAII (Michael W. Deem and Ramdas Pophale) SiO2 
 PCOD9484452
Probable space group: C M M M
;
_chemical_formula_sum "Si O2"
_cell_formula_units_Z 72
_cell_length_a 24.330506
_cell_length_b 18.120121
_cell_length_c 8.869915
_cell_angle_alpha 90.000000
_cell_angle_beta 90.000000
_cell_angle_gamma 90.000000
_cell_volume 3910.494618
_symmetry_space_group_name_H-M "C M M M"
_symmetry_group_IT_number 65
_symmetry_cell_setting 'orthorhombic'
loop_
_space_group_symop_operation_xyz
x,y,z
-x,-y,z
x,-y,-z
-x,y,-z
-x,-y,-z
x,y,-z
-x,y,z
x,-y,z
1/2+x,1/2+y,z
1/2-x,1/2-y,z
1/2+x,1/2-y,-z
1/2-x,1/2+y,-z
1/2-x,1/2-y,-z
1/2+x,1/2+y,-z
1/2-x,1/2+y,z
1/2+x,1/2-y,z
loop_
_atom_site_type_symbol
_atom_site_label
_atom_site_fract_x
_atom_site_fract_y
_atom_site_fract_z
Si Si1 0.500000 0.612273 0.825059
Si Si2 0.936593 0.500000 0.820999
Si Si3 0.119215 0.917320 0.681704
Si Si4 0.000000 0.257270 0.336221
Si Si5 0.811822 0.771513 0.684168
Si Si6 0.608123 0.855875 0.327551
O O1 0.442448 0.587892 0.749315
O O2 0.500000 0.700071 0.798181
O O3 0.500000 0.592086 0.000000
O O4 0.904645 0.428422 0.764611
O O5 0.000000 0.500000 0.761785
O O6 0.939548 0.500000 0.000000
O O7 0.114537 0.911865 0.500000
O O8 0.158622 0.848798 0.731115
O O9 0.140831 0.000000 0.717544
O O10 0.052589 0.308508 0.332392
O O11 0.000000 0.216881 0.500000
O O12 0.812984 0.773453 0.500000
O O13 0.750000 0.750000 0.729457
O O14 0.847849 0.701657 0.734015
O O15 0.623023 0.876055 0.500000
#
# Coordination Sequence:
#
# PCOD9484452 Si02
#       6
#     8   8  16   8  16  16
#     4  12  23  33  53  84 117 148 182 225 278 336
#     4  11  23  35  51  81 119 147 179 226 275 330
#     4  10  20  36  58  83 113 148 184 225 277 331
#     4  10  18  32  56  82 108 143 187 228 275 335
#     4   9  18  35  58  85 112 140 183 237 279 319
#     4  10  19  34  57  80 108 144 184 228 278 332
#
# _framework density 18.411994
#
# number of rings (size 3 to 8) (size 9 to 14) (size 15 to 20)
#    0.000    1.889    3.333    1.667    0.000    3.111 
#    2.000    0.000    0.000    2.667    0.000    0.000 
#    0.000    0.000    0.000    0.000    0.000    0.000 
#
# Total GULP energy -200636.122091 kJ/mol
# GULP energy per Si atom -5573.225614 kJ/mol
# Density = 1.837009 g / cm^3
# Si number density = 18.411994 Si / 1000 Ang^3
#
#
#
# Elastic Constant Matrix: (Units=GPa)
#
#
# Indices 1 2 3 4 5 6 
#
# 1 146.4076 84.9043 18.2896 0.0000 0.0000 0.0000
# 2 84.9043 173.3234 39.9692 0.0000 0.0000 0.0000
# 3 18.2896 39.9692 31.4311 0.0000 0.0000 0.0000
# 4 0.0000 0.0000 0.0000 -3.2138 0.0000 0.0000
# 5 0.0000 0.0000 0.0000 0.0000 8.1424 0.0000
# 6 0.0000 0.0000 0.0000 0.0000 0.0000 4.1990
#
#
#
# Elastic Compliance Matrix: (Units=1/GPa)
#
#
# Indices 1 2 3 4 5 6 
#
# 1 0.009547 -0.004805 0.000554 0.000000 0.000000 0.000000
# 2 -0.004805 0.010581 -0.010660 0.000000 0.000000 0.000000
# 3 0.000554 -0.010660 0.045049 0.000000 0.000000 0.000000
# 4 0.000000 0.000000 0.000000 -0.311158 0.000000 0.000000
# 5 0.000000 0.000000 0.000000 0.000000 0.122815 0.000000
# 6 0.000000 0.000000 0.000000 0.000000 0.000000 0.238151
#
#
# Mechanical properties :
#
#
# Convention : Reuss Voigt Hill
#
# Bulk Modulus (GPa) = 28.28305 70.83203 49.55754
# Shear Modulus (GPa) = 31.93026 15.69211 23.81118
#
# Velocity S-wave (km/s) = 4.16890 2.92254 3.60007
# Velocity P-wave (km/s) = 6.21028 7.06700 6.65244
#
# Compressibility (1/GPa) = 0.03535687
#
# Stress axis : x y z
#
# Youngs Moduli (GPa) = 104.74147 94.50507 22.19808
#
# Poissons Ratio (x) = 0.45407 -0.01230
# Poissons Ratio (y) = 0.50325 0.23663
# Poissons Ratio (z) = -0.05806 1.00743
#
# Static dielectric constant tensor:
#      x y z
#    x 1.739490 0.000000 0.000000 
#    y 0.000000 1.648250 0.000000 
#    z 0.000000 0.000000 1.640720 
# 
# From -- ./inp_files/13628.got.cif
#   From: 2010.05.17/outbox.cif.g08.bks.cpg/sg65_7_cif.got.tgz:13628.got - 2010.06.03 17:01:31.
