data_PCOD9484925
_publ_section_title
;
Structure prediction by ZEFSAII (Michael W. Deem and Ramdas Pophale) SiO2 
 PCOD9484925
Probable space group: C M M M
;
_chemical_formula_sum "Si O2"
_cell_formula_units_Z 80
_cell_length_a 25.961458
_cell_length_b 8.954953
_cell_length_c 22.783066
_cell_angle_alpha 90.000000
_cell_angle_beta 90.000000
_cell_angle_gamma 90.000000
_cell_volume 5296.690027
_symmetry_space_group_name_H-M "C M M M"
_symmetry_group_IT_number 65
_symmetry_cell_setting 'orthorhombic'
loop_
_space_group_symop_operation_xyz
x,y,z
-x,-y,z
x,-y,-z
-x,y,-z
-x,-y,-z
x,y,-z
-x,y,z
x,-y,z
1/2+x,1/2+y,z
1/2-x,1/2-y,z
1/2+x,1/2-y,-z
1/2-x,1/2+y,-z
1/2-x,1/2-y,-z
1/2+x,1/2+y,-z
1/2-x,1/2+y,z
1/2+x,1/2-y,z
loop_
_atom_site_type_symbol
_atom_site_label
_atom_site_fract_x
_atom_site_fract_y
_atom_site_fract_z
Si Si1 0.438641 0.822144 0.742685
Si Si2 0.694115 0.178413 0.068684
Si Si3 0.062624 0.171872 0.620442
Si Si4 0.562807 0.827272 0.500000
Si Si5 0.898765 0.820236 0.140186
Si Si6 0.000000 0.181340 0.932939
O O1 0.500000 0.789655 0.749781
O O2 0.422737 0.762131 0.678704
O O3 0.408513 0.740819 0.794650
O O4 0.432048 0.000000 0.746011
O O5 0.750000 0.250000 0.079759
O O6 0.651330 0.251338 0.109901
O O7 0.696142 0.000000 0.076748
O O8 0.681259 0.208116 0.000000
O O9 0.079923 0.246238 0.559585
O O10 0.000000 0.173132 0.619006
O O11 0.079062 0.000000 0.624315
O O12 0.500000 0.823497 0.500000
O O13 0.578130 0.000000 0.500000
O O14 0.948751 0.773794 0.101775
O O15 0.895870 0.000000 0.140504
O O16 0.000000 0.000000 0.934290
O O17 0.000000 0.234946 0.000000
#
# Coordination Sequence:
#
# PCOD9484925 Si02
#       6
#    16  16  16   8  16   8
#     4  10  19  30  43  61  89 122 156 192 232 277
#     4  10  21  37  55  74  94 118 151 192 238 286
#     4   9  16  25  38  55  78 110 151 192 229 269
#     4   9  15  23  35  53  77 107 146 189 232 269
#     4  11  20  32  50  70  95 124 156 192 233 281
#     4   9  18  30  45  67  93 120 151 186 227 275
#
# _framework density 15.103771999999999
#
# number of rings (size 3 to 8) (size 9 to 14) (size 15 to 20)
#    0.000    2.200    1.000    3.300    0.000    6.400 
#    0.000    0.000    0.000    2.400    0.000    0.000 
#    0.000    0.000    0.000    0.900    0.000   12.700 
#
# Total GULP energy -223114.365687 kJ/mol
# GULP energy per Si atom -5577.859142 kJ/mol
# Density = 1.506940 g / cm^3
# Si number density = 15.103772 Si / 1000 Ang^3
#
#
#
# Elastic Constant Matrix: (Units=GPa)
#
#
# Indices 1 2 3 4 5 6 
#
# 1 61.5314 41.5789 59.0364 0.0000 0.0000 0.0000
# 2 41.5789 90.6917 67.0072 0.0000 0.0000 0.0000
# 3 59.0364 67.0072 152.0991 0.0000 0.0000 0.0000
# 4 0.0000 0.0000 0.0000 29.5940 0.0000 0.0000
# 5 0.0000 0.0000 0.0000 0.0000 10.7862 0.0000
# 6 0.0000 0.0000 0.0000 0.0000 0.0000 18.1847
#
#
#
# Elastic Compliance Matrix: (Units=1/GPa)
#
#
# Indices 1 2 3 4 5 6 
#
# 1 0.028857 -0.007345 -0.007965 0.000000 0.000000 0.000000
# 2 -0.007345 0.018217 -0.005175 0.000000 0.000000 0.000000
# 3 -0.007965 -0.005175 0.011946 0.000000 0.000000 0.000000
# 4 0.000000 0.000000 0.000000 0.033791 0.000000 0.000000
# 5 0.000000 0.000000 0.000000 0.000000 0.092711 0.000000
# 6 0.000000 0.000000 0.000000 0.000000 0.000000 0.054991
#
#
# Mechanical properties :
#
#
# Convention : Reuss Voigt Hill
#
# Bulk Modulus (GPa) = 55.39883 71.06302 63.23093
# Shear Modulus (GPa) = 17.39138 20.82629 19.10883
#
# Velocity S-wave (km/s) = 3.39700 3.71736 3.56078
# Velocity P-wave (km/s) = 7.22112 8.09796 7.67208
#
# Compressibility (1/GPa) = 0.01805092
#
# Stress axis : x y z
#
# Youngs Moduli (GPa) = 34.65344 54.89359 83.71146
#
# Poissons Ratio (x) = 0.40321 0.66675
# Poissons Ratio (y) = 0.25454 0.43317
# Poissons Ratio (z) = 0.27601 0.28405
#
# Static dielectric constant tensor:
#      x y z
#    x 1.466830 0.000000 0.000000 
#    y 0.000000 1.500910 0.000000 
#    z 0.000000 0.000000 1.497480 
# 
# From -- ./inp_files/59633.got.cif
#   From: 2010.05.17/outbox.cif.g08.bks.cpg/sg65_30_cif.got.tgz:59633.got - 2010.06.03 17:01:31.
