data_PCOD9484239
_publ_section_title
;
Structure prediction by ZEFSAII (Michael W. Deem and Ramdas Pophale) SiO2 
 PCOD9484239
Probable space group: C M M M
;
_chemical_formula_sum "Si O2"
_cell_formula_units_Z 96
_cell_length_a 23.871980
_cell_length_b 14.348667
_cell_length_c 15.814075
_cell_angle_alpha 90.000000
_cell_angle_beta 90.000000
_cell_angle_gamma 90.000000
_cell_volume 5416.812373
_symmetry_space_group_name_H-M "C M M M"
_symmetry_group_IT_number 65
_symmetry_cell_setting 'orthorhombic'
loop_
_space_group_symop_operation_xyz
x,y,z
-x,-y,z
x,-y,-z
-x,y,-z
-x,-y,-z
x,y,-z
-x,y,z
x,-y,z
1/2+x,1/2+y,z
1/2-x,1/2-y,z
1/2+x,1/2-y,-z
1/2-x,1/2+y,-z
1/2-x,1/2-y,-z
1/2+x,1/2+y,-z
1/2-x,1/2+y,z
1/2+x,1/2-y,z
loop_
_atom_site_type_symbol
_atom_site_label
_atom_site_fract_x
_atom_site_fract_y
_atom_site_fract_z
Si Si1 0.185043 0.221538 0.908219
Si Si2 0.811443 0.606027 0.670217
Si Si3 0.500000 0.889158 0.223558
Si Si4 0.624043 0.722849 0.405571
Si Si5 0.000000 0.301970 0.594193
Si Si6 0.381230 0.107320 0.155177
Si Si7 0.314180 0.389205 0.734951
O O1 0.250000 0.250000 0.905811
O O2 0.149732 0.316598 0.900698
O O3 0.175835 0.158955 0.825444
O O4 0.173696 0.176814 0.000000
O O5 0.811343 0.500000 0.635850
O O6 0.840820 0.681938 0.611000
O O7 0.847868 0.605329 0.756041
O O8 0.748432 0.631385 0.698903
O O9 0.500000 0.865010 0.322523
O O10 0.556468 0.858223 0.177469
O O11 0.500000 0.000000 0.217740
O O12 0.636865 0.688301 0.500000
O O13 0.557892 0.744637 0.400807
O O14 0.643248 0.652606 0.333168
O O15 0.000000 0.347423 0.500000
O O16 0.381994 0.000000 0.123074
O O17 0.318415 0.500000 0.742986
#
# Coordination Sequence:
#
# PCOD9484239 Si02
#       7
#    16  16   8  16   8  16  16
#     4  11  21  35  57  83 112 146 182 222 276 331
#     4  10  19  33  55  80 114 148 175 215 270 327
#     4  10  18  31  55  79 108 152 186 212 261 328
#     4  11  22  37  57  80 110 146 187 231 275 325
#     4  10  20  33  51  77 108 140 182 234 279 320
#     4  10  19  34  55  82 114 146 180 217 263 325
#     4  11  22  38  57  79 110 145 186 234 277 321
#
# _framework density 17.7226
#
# number of rings (size 3 to 8) (size 9 to 14) (size 15 to 20)
#    0.000    1.500    5.000    0.500    0.000    2.833 
#    0.000    5.833    0.000    3.000    0.000    0.000 
#    0.000    4.000    0.000    0.000    0.000    0.000 
#
# Total GULP energy -267741.972675 kJ/mol
# GULP energy per Si atom -5577.957764 kJ/mol
# Density = 1.768226 g / cm^3
# Si number density = 17.722600 Si / 1000 Ang^3
#
#
#
# Elastic Constant Matrix: (Units=GPa)
#
#
# Indices 1 2 3 4 5 6 
#
# 1 97.2787 30.3895 41.9461 0.0000 0.0000 0.0000
# 2 30.3895 74.7518 46.0416 0.0000 0.0000 0.0000
# 3 41.9461 46.0416 123.1831 0.0000 0.0000 0.0000
# 4 0.0000 0.0000 0.0000 8.5112 0.0000 0.0000
# 5 0.0000 0.0000 0.0000 0.0000 238.7851 0.0000
# 6 0.0000 0.0000 0.0000 0.0000 0.0000 20.1702
#
#
#
# Elastic Compliance Matrix: (Units=1/GPa)
#
#
# Indices 1 2 3 4 5 6 
#
# 1 0.012621 -0.003227 -0.003092 0.000000 0.000000 0.000000
# 2 -0.003227 0.018203 -0.005705 0.000000 0.000000 0.000000
# 3 -0.003092 -0.005705 0.011303 0.000000 0.000000 0.000000
# 4 0.000000 0.000000 0.000000 0.117493 0.000000 0.000000
# 5 0.000000 0.000000 0.000000 0.000000 0.004188 0.000000
# 6 0.000000 0.000000 0.000000 0.000000 0.000000 0.049578
#
#
# Mechanical properties :
#
#
# Convention : Reuss Voigt Hill
#
# Bulk Modulus (GPa) = 55.30790 59.10755 57.20772
# Shear Modulus (GPa) = 20.53734 65.28240 42.90987
#
# Velocity S-wave (km/s) = 3.40784 6.07582 4.92590
# Velocity P-wave (km/s) = 6.83811 9.09092 8.04377
#
# Compressibility (1/GPa) = 0.01808060
#
# Stress axis : x y z
#
# Youngs Moduli (GPa) = 79.23417 54.93529 88.47147
#
# Poissons Ratio (x) = 0.17726 0.27352
# Poissons Ratio (y) = 0.25566 0.50473
# Poissons Ratio (z) = 0.24496 0.31341
#
# Static dielectric constant tensor:
#      x y z
#    x 1.628310 0.000000 0.000000 
#    y 0.000000 1.602980 0.000000 
#    z 0.000000 0.000000 1.609500 
# 
# From -- ./inp_files/40414.got.cif
#   From: 2010.05.17/outbox.cif.g08.bks.cpg/sg65_21_cif.got.tgz:40414.got - 2010.06.03 17:01:31.
