data_PCOD9484971
_publ_section_title
;
Structure prediction by ZEFSAII (Michael W. Deem and Ramdas Pophale) SiO2 
 PCOD9484971
Probable space group: C M M M
;
_chemical_formula_sum "Si O2"
_cell_formula_units_Z 96
_cell_length_a 9.001413
_cell_length_b 27.097360
_cell_length_c 23.231285
_cell_angle_alpha 90.000000
_cell_angle_beta 90.000000
_cell_angle_gamma 90.000000
_cell_volume 5666.447929
_symmetry_space_group_name_H-M "C M M M"
_symmetry_group_IT_number 65
_symmetry_cell_setting 'orthorhombic'
loop_
_space_group_symop_operation_xyz
x,y,z
-x,-y,z
x,-y,-z
-x,y,-z
-x,-y,-z
x,y,-z
-x,y,z
x,-y,z
1/2+x,1/2+y,z
1/2-x,1/2-y,z
1/2+x,1/2-y,-z
1/2-x,1/2+y,-z
1/2-x,1/2-y,-z
1/2+x,1/2+y,-z
1/2-x,1/2+y,z
1/2+x,1/2-y,z
loop_
_atom_site_type_symbol
_atom_site_label
_atom_site_fract_x
_atom_site_fract_y
_atom_site_fract_z
Si Si1 0.823016 0.137561 0.663999
Si Si2 0.332968 0.121223 0.148646
Si Si3 0.324576 0.802942 0.568708
Si Si4 0.833449 0.296105 0.753660
Si Si5 0.173027 0.197519 0.931030
Si Si6 0.179533 0.442315 0.747975
O O1 0.752405 0.152195 0.602838
O O2 0.768950 0.183329 0.703145
O O3 0.755245 0.090588 0.698173
O O4 0.000000 0.133919 0.661114
O O5 0.500000 0.109570 0.127755
O O6 0.343865 0.162456 0.198317
O O7 0.241062 0.149321 0.099790
O O8 0.273670 0.075862 0.187634
O O9 0.307989 0.809260 0.500000
O O10 0.500000 0.801287 0.582342
O O11 0.250000 0.750000 0.583464
O O12 0.750000 0.250000 0.779637
O O13 0.000000 0.284757 0.733401
O O14 0.250000 0.250000 0.916256
O O15 0.000000 0.201455 0.915611
O O16 0.187001 0.191999 0.000000
O O17 0.210030 0.500000 0.740441
O O18 0.000000 0.434520 0.745031
#
# Coordination Sequence:
#
# PCOD9484971 Si02
#       6
#    16  16  16  16  16  16
#     4  11  21  32  49  73 101 131 164 202 245 295
#     4   9  18  31  49  72  95 123 159 200 245 292
#     4  10  20  34  52  74 103 139 175 208 244 288
#     4  10  19  30  44  66  97 129 162 199 242 292
#     4  10  20  32  47  69  99 135 170 202 238 284
#     4   9  19  37  58  77  98 125 160 205 256 305
#
# _framework density 16.94183
#
# number of rings (size 3 to 8) (size 9 to 14) (size 15 to 20)
#    0.000    2.167    0.000    5.000    0.000    7.000 
#    0.000    0.000    0.000    1.000    0.000    7.000 
#    0.000    0.000    0.000    0.000    0.000    0.000 
#
# Total GULP energy -267457.934062 kJ/mol
# GULP energy per Si atom -5572.040293 kJ/mol
# Density = 1.690327 g / cm^3
# Si number density = 16.941830 Si / 1000 Ang^3
#
#
#
# Elastic Constant Matrix: (Units=GPa)
#
#
# Indices 1 2 3 4 5 6 
#
# 1 111.4324 54.9119 49.6074 0.0000 0.0000 0.0000
# 2 54.9119 88.7362 36.2054 0.0000 0.0000 0.0000
# 3 49.6074 36.2054 64.5898 0.0000 0.0000 0.0000
# 4 0.0000 0.0000 0.0000 24.6614 0.0000 0.0000
# 5 0.0000 0.0000 0.0000 0.0000 11.3508 0.0000
# 6 0.0000 0.0000 0.0000 0.0000 0.0000 19.9601
#
#
#
# Elastic Compliance Matrix: (Units=1/GPa)
#
#
# Indices 1 2 3 4 5 6 
#
# 1 0.015975 -0.006327 -0.008723 0.000000 0.000000 0.000000
# 2 -0.006327 0.017116 -0.004735 0.000000 0.000000 0.000000
# 3 -0.008723 -0.004735 0.024836 0.000000 0.000000 0.000000
# 4 0.000000 0.000000 0.000000 0.040549 0.000000 0.000000
# 5 0.000000 0.000000 0.000000 0.000000 0.088100 0.000000
# 6 0.000000 0.000000 0.000000 0.000000 0.000000 0.050100
#
#
# Mechanical properties :
#
#
# Convention : Reuss Voigt Hill
#
# Bulk Modulus (GPa) = 54.47325 60.68975 57.58150
# Shear Modulus (GPa) = 17.70748 19.46336 18.58542
#
# Velocity S-wave (km/s) = 3.23645 3.39312 3.31571
# Velocity P-wave (km/s) = 6.79625 7.15900 6.97998
#
# Compressibility (1/GPa) = 0.01835763
#
# Stress axis : x y z
#
# Youngs Moduli (GPa) = 62.59775 58.42318 40.26340
#
# Poissons Ratio (x) = 0.36962 0.35122
# Poissons Ratio (y) = 0.39603 0.19067
# Poissons Ratio (z) = 0.54605 0.27666
#
# Static dielectric constant tensor:
#      x y z
#    x 1.591850 0.000000 0.000000 
#    y 0.000000 1.600910 0.000000 
#    z 0.000000 0.000000 1.601560 
# 
# From -- ./inp_files/67999.got.cif
#   From: 2010.05.17/outbox.cif.g08.bks.cpg/sg65_34_cif.got.tgz:67999.got - 2010.06.03 17:01:31.
