data_PCOD9484544
_publ_section_title
;
Structure prediction by ZEFSAII (Michael W. Deem and Ramdas Pophale) SiO2 
 PCOD9484544
Probable space group: C M M M
;
_chemical_formula_sum "Si O2"
_cell_formula_units_Z 66
_cell_length_a 8.961896
_cell_length_b 14.979886
_cell_length_c 24.588177
_cell_angle_alpha 90.000000
_cell_angle_beta 90.000000
_cell_angle_gamma 90.000000
_cell_volume 3300.918022
_symmetry_space_group_name_H-M "C M M M"
_symmetry_group_IT_number 65
_symmetry_cell_setting 'orthorhombic'
loop_
_space_group_symop_operation_xyz
x,y,z
-x,-y,z
x,-y,-z
-x,y,-z
-x,-y,-z
x,y,-z
-x,y,z
x,-y,z
1/2+x,1/2+y,z
1/2-x,1/2-y,z
1/2+x,1/2-y,-z
1/2-x,1/2+y,-z
1/2-x,1/2-y,-z
1/2+x,1/2+y,-z
1/2-x,1/2+y,z
1/2+x,1/2-y,z
loop_
_atom_site_type_symbol
_atom_site_label
_atom_site_fract_x
_atom_site_fract_y
_atom_site_fract_z
Si Si1 0.677889 0.000000 0.814899
Si Si2 0.181469 0.649765 0.000000
Si Si3 0.181027 0.150440 0.887630
Si Si4 0.500000 0.000000 0.500000
Si Si5 0.833732 0.156177 0.378572
Si Si6 0.825745 0.500000 0.314806
Si Si7 0.769863 0.858037 0.500000
O O1 0.758982 0.086037 0.840589
O O2 0.500000 0.000000 0.828173
O O3 0.692331 0.000000 0.749925
O O4 0.250000 0.750000 0.000000
O O5 0.249297 0.612469 0.944147
O O6 0.000000 0.649521 0.000000
O O7 0.250000 0.250000 0.880607
O O8 0.000000 0.154070 0.890296
O O9 0.626779 0.920837 0.500000
O O10 0.750000 0.250000 0.377739
O O11 0.747777 0.085517 0.342327
O O12 0.840866 0.124174 0.441248
O O13 0.000000 0.167780 0.357489
O O14 0.000000 0.500000 0.328391
O O15 0.750000 0.750000 0.500000
#
# Coordination Sequence:
#
# PCOD9484544 Si02
#       7
#     8   8  16   2  16   8   8
#     4  11  25  45  64  89 121 165 217 273 317 380
#     4  10  18  33  58  91 129 166 204 255 313 385
#     4  11  22  39  64  94 127 166 208 260 319 385
#     4  12  24  40  66  98 136 200 206 284 348 396
#     4  11  24  42  68  97 134 169 214 268 328 393
#     4  11  26  45  66  90 126 166 219 268 325 389
#     4  10  25  38  69 101 139 175 227 269 337 420
#
# _framework density 19.994439
#
# number of rings (size 3 to 8) (size 9 to 14) (size 15 to 20)
#    0.000    1.212    0.000    7.273   10.182    3.394 
#    0.000    4.242    0.000    0.000    0.000    0.000 
#    0.000    0.000    0.000    0.000    0.000    0.000 
#
# Total GULP energy -184034.448198 kJ/mol
# GULP energy per Si atom -5576.801461 kJ/mol
# Density = 1.994893 g / cm^3
# Si number density = 19.994439 Si / 1000 Ang^3
#
#
#
# Elastic Constant Matrix: (Units=GPa)
#
#
# Indices 1 2 3 4 5 6 
#
# 1 238.5301 86.5581 84.7191 0.0000 0.0000 0.0000
# 2 86.5581 129.9107 54.3480 0.0000 0.0000 0.0000
# 3 84.7191 54.3480 93.2005 0.0000 0.0000 0.0000
# 4 0.0000 0.0000 0.0000 38.5515 0.0000 0.0000
# 5 0.0000 0.0000 0.0000 0.0000 49.4659 0.0000
# 6 0.0000 0.0000 0.0000 0.0000 0.0000 6.6226
#
#
#
# Elastic Compliance Matrix: (Units=1/GPa)
#
#
# Indices 1 2 3 4 5 6 
#
# 1 0.006781 -0.002565 -0.004668 0.000000 0.000000 0.000000
# 2 -0.002565 0.011152 -0.004171 0.000000 0.000000 0.000000
# 3 -0.004668 -0.004171 0.017405 0.000000 0.000000 0.000000
# 4 0.000000 0.000000 0.000000 0.025939 0.000000 0.000000
# 5 0.000000 0.000000 0.000000 0.000000 0.020216 0.000000
# 6 0.000000 0.000000 0.000000 0.000000 0.000000 0.150997
#
#
# Mechanical properties :
#
#
# Convention : Reuss Voigt Hill
#
# Bulk Modulus (GPa) = 79.81451 101.43239 90.62345
# Shear Modulus (GPa) = 19.26955 34.66240 26.96597
#
# Velocity S-wave (km/s) = 3.10779 4.16817 3.67641
# Velocity P-wave (km/s) = 7.27206 8.60263 7.96518
#
# Compressibility (1/GPa) = 0.01252905
#
# Stress axis : x y z
#
# Youngs Moduli (GPa) = 147.46462 89.67152 57.45387
#
# Poissons Ratio (x) = 0.23004 0.26821
# Poissons Ratio (y) = 0.37830 0.23964
# Poissons Ratio (z) = 0.68840 0.37403
#
# Static dielectric constant tensor:
#      x y z
#    x 1.724200 0.000000 0.000000 
#    y 0.000000 1.711510 0.000000 
#    z 0.000000 0.000000 1.720080 
# 
# From -- ./inp_files/66944.got.cif
#   From: 2010.05.17/outbox.cif.g08.bks.cpg/sg65_34_cif.got.tgz:66944.got - 2010.06.03 17:01:31.
