data_PCOD9484880
_publ_section_title
;
Structure prediction by ZEFSAII (Michael W. Deem and Ramdas Pophale) SiO2 
 PCOD9484880
Probable space group: C M M M
;
_chemical_formula_sum "Si O2"
_cell_formula_units_Z 100
_cell_length_a 7.871973
_cell_length_b 27.794643
_cell_length_c 21.587875
_cell_angle_alpha 90.000000
_cell_angle_beta 90.000000
_cell_angle_gamma 90.000000
_cell_volume 4723.398538
_symmetry_space_group_name_H-M "C M M M"
_symmetry_group_IT_number 65
_symmetry_cell_setting 'orthorhombic'
loop_
_space_group_symop_operation_xyz
x,y,z
-x,-y,z
x,-y,-z
-x,y,-z
-x,-y,-z
x,y,-z
-x,y,z
x,-y,z
1/2+x,1/2+y,z
1/2-x,1/2-y,z
1/2+x,1/2-y,-z
1/2-x,1/2+y,-z
1/2-x,1/2-y,-z
1/2+x,1/2+y,-z
1/2-x,1/2+y,z
1/2+x,1/2-y,z
loop_
_atom_site_type_symbol
_atom_site_label
_atom_site_fract_x
_atom_site_fract_y
_atom_site_fract_z
Si Si1 0.293476 0.554743 0.227116
Si Si2 0.695309 0.803435 0.908338
Si Si3 0.688074 0.620848 0.671058
Si Si4 0.200751 0.696538 0.430371
Si Si5 0.000000 0.434652 0.000000
Si Si6 0.304953 0.197391 0.759611
Si Si7 0.196638 0.908178 0.908478
O O1 0.500000 0.555064 0.232256
O O2 0.237821 0.500000 0.218362
O O3 0.225399 0.577072 0.291599
O O4 0.258358 0.584334 0.164254
O O5 0.500000 0.811215 0.926743
O O6 0.750000 0.750000 0.929009
O O7 0.705451 0.802826 0.833667
O O8 0.795308 0.851385 0.926301
O O9 0.500000 0.605462 0.652463
O O10 0.757023 0.652214 0.614406
O O11 0.686359 0.659263 0.727188
O O12 0.274686 0.691066 0.500000
O O13 0.250000 0.750000 0.407249
O O14 0.000000 0.697328 0.435265
O O15 0.153117 0.432983 0.946947
O O16 0.500000 0.187515 0.741544
O O17 0.250000 0.250000 0.739069
O O18 0.000000 0.924891 0.917776
#
# Coordination Sequence:
#
# PCOD9484880 Si02
#       7
#    16  16  16  16   4  16  16
#     4   9  20  40  66  93 120 153 196 254 322 379
#     4  10  19  33  56  84 119 155 199 248 294 357
#     4  11  20  32  56  86 118 155 199 249 304 362
#     4  10  21  37  56  82 124 172 214 251 291 349
#     4  12  26  44  67  92 130 156 212 250 303 392
#     4  10  19  29  47  77 116 151 189 238 290 346
#     4  11  22  42  68  90 123 165 202 255 316 372
#
# _framework density 21.171196999999999
#
# number of rings (size 3 to 8) (size 9 to 14) (size 15 to 20)
#    0.000    1.760    2.400    2.640    0.000    2.240 
#    1.440    1.600    0.000    2.400    0.000    3.360 
#    0.000    0.000    0.000    0.000    0.000    0.000 
#
# Total GULP energy -278353.987987 kJ/mol
# GULP energy per Si atom -5567.079760 kJ/mol
# Density = 2.112301 g / cm^3
# Si number density = 21.171197 Si / 1000 Ang^3
#
#
#
# Elastic Constant Matrix: (Units=GPa)
#
#
# Indices 1 2 3 4 5 6 
#
# 1 91.5874 0.4001 26.9081 0.0000 0.0000 0.0000
# 2 0.4001 94.6493 34.1189 0.0000 0.0000 0.0000
# 3 26.9081 34.1189 130.6734 0.0000 0.0000 0.0000
# 4 0.0000 0.0000 0.0000 -103.9971 0.0000 0.0000
# 5 0.0000 0.0000 0.0000 0.0000 69.9877 0.0000
# 6 0.0000 0.0000 0.0000 0.0000 0.0000 7.1557
#
#
#
# Elastic Compliance Matrix: (Units=1/GPa)
#
#
# Indices 1 2 3 4 5 6 
#
# 1 0.011691 0.000903 -0.002643 0.000000 0.000000 0.000000
# 2 0.000903 0.011733 -0.003249 0.000000 0.000000 0.000000
# 3 -0.002643 -0.003249 0.009045 0.000000 0.000000 0.000000
# 4 0.000000 0.000000 0.000000 -0.009616 0.000000 0.000000
# 5 0.000000 0.000000 0.000000 0.000000 0.014288 0.000000
# 6 0.000000 0.000000 0.000000 0.000000 0.000000 0.139749
#
#
# Mechanical properties :
#
#
# Convention : Reuss Voigt Hill
#
# Bulk Modulus (GPa) = 44.46279 48.86269 46.66274
# Shear Modulus (GPa) = 25.72463 11.66147 18.69305
#
# Velocity S-wave (km/s) = 3.48958 2.34950 2.97467
# Velocity P-wave (km/s) = 6.10601 5.52178 5.82123
#
# Compressibility (1/GPa) = 0.02249072
#
# Stress axis : x y z
#
# Youngs Moduli (GPa) = 85.53449 85.23073 110.55322
#
# Poissons Ratio (x) = -0.07700 0.29223
# Poissons Ratio (y) = -0.07727 0.35924
# Poissons Ratio (z) = 0.22610 0.27696
#
# Static dielectric constant tensor:
#      x y z
#    x 1.806900 0.000000 0.000000 
#    y 0.000000 1.822930 0.000000 
#    z 0.000000 0.000000 1.804300 
# 
# From -- ./inp_files/60889.got.cif
#   From: 2010.05.17/outbox.cif.g08.bks.cpg/sg65_31_cif.got.tgz:60889.got - 2010.06.03 17:01:31.
