data_PCOD9484619
_publ_section_title
;
Structure prediction by ZEFSAII (Michael W. Deem and Ramdas Pophale) SiO2 
 PCOD9484619
Probable space group: C M M M
;
_chemical_formula_sum "Si O2"
_cell_formula_units_Z 68
_cell_length_a 24.750773
_cell_length_b 16.365082
_cell_length_c 7.558083
_cell_angle_alpha 90.000000
_cell_angle_beta 90.000000
_cell_angle_gamma 90.000000
_cell_volume 3061.389651
_symmetry_space_group_name_H-M "C M M M"
_symmetry_group_IT_number 65
_symmetry_cell_setting 'orthorhombic'
loop_
_space_group_symop_operation_xyz
x,y,z
-x,-y,z
x,-y,-z
-x,y,-z
-x,-y,-z
x,y,-z
-x,y,z
x,-y,z
1/2+x,1/2+y,z
1/2-x,1/2-y,z
1/2+x,1/2-y,-z
1/2-x,1/2+y,-z
1/2-x,1/2-y,-z
1/2+x,1/2+y,-z
1/2-x,1/2+y,z
1/2+x,1/2-y,z
loop_
_atom_site_type_symbol
_atom_site_label
_atom_site_fract_x
_atom_site_fract_y
_atom_site_fract_z
Si Si1 0.560811 0.771648 0.205844
Si Si2 0.565048 0.587391 0.708068
Si Si3 0.825210 0.307721 0.785880
Si Si4 0.180117 0.000000 0.000000
Si Si5 0.214646 0.874126 0.301755
O O1 0.500000 0.779889 0.283620
O O2 0.577562 0.675588 0.213909
O O3 0.613005 0.819141 0.277496
O O4 0.556327 0.793348 0.000000
O O5 0.578731 0.588615 0.500000
O O6 0.500000 0.584519 0.719683
O O7 0.583396 0.500000 0.788796
O O8 0.805622 0.218956 0.720625
O O9 0.779493 0.370849 0.725775
O O10 0.824700 0.306659 0.000000
O O11 0.187474 0.071145 0.845610
O O12 0.202503 0.901303 0.500000
#
# Coordination Sequence:
#
# PCOD9484619 Si02
#       5
#    16  16  16   4  16
#     4   9  18  30  49  76 105 145 192 231 273 328
#     4   8  14  25  38  54  85 129 173 218 264 306
#     4  10  18  37  58  79 119 158 192 241 290 337
#     4  12  22  42  60  90 122 142 186 246 298 346
#     4  11  22  38  63  88 115 152 191 235 294 354
#
# _framework density 22.212136000000001
#
# number of rings (size 3 to 8) (size 9 to 14) (size 15 to 20)
#    0.000    2.353    2.353    3.176    0.000    2.353 
#    2.118    2.353    0.000    0.000    0.000    1.647 
#    0.000    1.882    0.000    0.000    0.000    0.000 
#
# Total GULP energy -189299.204809 kJ/mol
# GULP energy per Si atom -5567.623671 kJ/mol
# Density = 2.216158 g / cm^3
# Si number density = 22.212136 Si / 1000 Ang^3
#
#
#
# Elastic Constant Matrix: (Units=GPa)
#
#
# Indices 1 2 3 4 5 6 
#
# 1 184.9770 9.1476 -7.6013 0.0000 0.0000 0.0000
# 2 9.1476 15.7496 4.3278 0.0000 0.0000 0.0000
# 3 -7.6013 4.3278 123.8232 0.0000 0.0000 0.0000
# 4 0.0000 0.0000 0.0000 217.4721 0.0000 0.0000
# 5 0.0000 0.0000 0.0000 0.0000 355.5327 0.0000
# 6 0.0000 0.0000 0.0000 0.0000 0.0000 30.9723
#
#
#
# Elastic Compliance Matrix: (Units=1/GPa)
#
#
# Indices 1 2 3 4 5 6 
#
# 1 0.005592 -0.003375 0.000461 0.000000 0.000000 0.000000
# 2 -0.003375 0.066146 -0.002519 0.000000 0.000000 0.000000
# 3 0.000461 -0.002519 0.008192 0.000000 0.000000 0.000000
# 4 0.000000 0.000000 0.000000 0.004598 0.000000 0.000000
# 5 0.000000 0.000000 0.000000 0.000000 0.002813 0.000000
# 6 0.000000 0.000000 0.000000 0.000000 0.000000 0.032287
#
#
# Mechanical properties :
#
#
# Convention : Reuss Voigt Hill
#
# Bulk Modulus (GPa) = 14.47902 37.36642 25.92272
# Shear Modulus (GPa) = 32.57015 142.04047 87.30531
#
# Velocity S-wave (km/s) = 3.83341 8.00538 6.27619
# Velocity P-wave (km/s) = 5.11137 10.11470 8.01353
#
# Compressibility (1/GPa) = 0.06906544
#
# Stress axis : x y z
#
# Youngs Moduli (GPa) = 178.82972 15.11808 122.06449
#
# Poissons Ratio (x) = 0.05102 -0.05630
# Poissons Ratio (y) = 0.60348 0.30749
# Poissons Ratio (z) = -0.08248 0.03808
#
# Static dielectric constant tensor:
#      x y z
#    x 1.958410 0.000000 0.000000 
#    y 0.000000 1.720150 0.000000 
#    z 0.000000 0.000000 1.773020 
# 
# From -- ./inp_files/18141.got.cif
#   From: 2010.05.17/outbox.cif.g08.bks.cpg/sg65_10_cif.got.tgz:18141.got - 2010.06.03 17:01:31.
