data_PCOD9484315
_publ_section_title
;
Structure prediction by ZEFSAII (Michael W. Deem and Ramdas Pophale) SiO2 
 PCOD9484315
Probable space group: C M M M
;
_chemical_formula_sum "Si O2"
_cell_formula_units_Z 80
_cell_length_a 28.803093
_cell_length_b 8.536126
_cell_length_c 18.918902
_cell_angle_alpha 90.000000
_cell_angle_beta 90.000000
_cell_angle_gamma 90.000000
_cell_volume 4651.530481
_symmetry_space_group_name_H-M "C M M M"
_symmetry_group_IT_number 65
_symmetry_cell_setting 'orthorhombic'
loop_
_space_group_symop_operation_xyz
x,y,z
-x,-y,z
x,-y,-z
-x,y,-z
-x,-y,-z
x,y,-z
-x,y,z
x,-y,z
1/2+x,1/2+y,z
1/2-x,1/2-y,z
1/2+x,1/2-y,-z
1/2-x,1/2+y,-z
1/2-x,1/2-y,-z
1/2+x,1/2+y,-z
1/2-x,1/2+y,z
1/2+x,1/2-y,z
loop_
_atom_site_type_symbol
_atom_site_label
_atom_site_fract_x
_atom_site_fract_y
_atom_site_fract_z
Si Si1 0.444215 0.000000 0.922805
Si Si2 0.850774 0.179613 0.220274
Si Si3 0.698110 0.183480 0.645708
Si Si4 0.302806 0.685212 0.500000
Si Si5 0.302888 0.811379 0.080282
Si Si6 0.945665 0.822769 0.841431
O O1 0.434219 0.832942 0.886706
O O2 0.500000 0.000000 0.928254
O O3 0.422237 0.000000 0.000000
O O4 0.830321 0.278419 0.284123
O O5 0.832321 0.238985 0.144256
O O6 0.906682 0.182747 0.218743
O O7 0.835300 0.000000 0.229216
O O8 0.750000 0.250000 0.655448
O O9 0.676771 0.256552 0.574204
O O10 0.701954 0.000000 0.634576
O O11 0.301355 0.500000 0.500000
O O12 0.250000 0.750000 0.500000
O O13 0.250000 0.750000 0.087524
O O14 0.303591 0.000000 0.086104
O O15 0.318264 0.768985 0.000000
O O16 0.000000 0.810545 0.820899
O O17 0.940523 0.000000 0.874235
#
# Coordination Sequence:
#
# PCOD9484315 Si02
#       6
#     8  16  16   8  16  16
#     4   9  18  32  52  74  98 129 167 215 271 328
#     4  11  22  35  53  76 102 134 176 219 263 313
#     4  11  21  34  53  78 110 142 176 212 256 309
#     4  10  18  32  52  76 109 142 173 206 254 307
#     4  10  21  36  52  70  97 133 173 216 261 309
#     4   9  20  37  54  74 103 136 173 220 272 325
#
# _framework density 17.198640999999999
#
# number of rings (size 3 to 8) (size 9 to 14) (size 15 to 20)
#    0.000    1.900    0.000    5.700    2.800    2.400 
#    0.000    4.000    0.000    0.000    0.000    0.700 
#    0.000    5.600    0.000    0.000    0.000    0.000 
#
# Total GULP energy -222945.628287 kJ/mol
# GULP energy per Si atom -5573.640707 kJ/mol
# Density = 1.715950 g / cm^3
# Si number density = 17.198641 Si / 1000 Ang^3
#
#
#
# Elastic Constant Matrix: (Units=GPa)
#
#
# Indices 1 2 3 4 5 6 
#
# 1 56.9448 22.0112 34.9859 0.0000 0.0000 0.0000
# 2 22.0112 139.8061 38.8756 0.0000 0.0000 0.0000
# 3 34.9859 38.8756 95.4351 0.0000 0.0000 0.0000
# 4 0.0000 0.0000 0.0000 29.1625 0.0000 0.0000
# 5 0.0000 0.0000 0.0000 0.0000 3.3264 0.0000
# 6 0.0000 0.0000 0.0000 0.0000 0.0000 19.8547
#
#
#
# Elastic Compliance Matrix: (Units=1/GPa)
#
#
# Indices 1 2 3 4 5 6 
#
# 1 0.022918 -0.001435 -0.007817 0.000000 0.000000 0.000000
# 2 -0.001435 0.008156 -0.002797 0.000000 0.000000 0.000000
# 3 -0.007817 -0.002797 0.014483 0.000000 0.000000 0.000000
# 4 0.000000 0.000000 0.000000 0.034291 0.000000 0.000000
# 5 0.000000 0.000000 0.000000 0.000000 0.300630 0.000000
# 6 0.000000 0.000000 0.000000 0.000000 0.000000 0.050366
#
#
# Mechanical properties :
#
#
# Convention : Reuss Voigt Hill
#
# Bulk Modulus (GPa) = 46.59632 53.77016 50.18324
# Shear Modulus (GPa) = 10.82030 23.55626 17.18828
#
# Velocity S-wave (km/s) = 2.51098 3.70490 3.16475
# Velocity P-wave (km/s) = 5.96310 7.04513 6.52657
#
# Compressibility (1/GPa) = 0.02146092
#
# Stress axis : x y z
#
# Youngs Moduli (GPa) = 43.63354 122.60533 69.04509
#
# Poissons Ratio (x) = 0.17588 0.53975
# Poissons Ratio (y) = 0.06259 0.19309
# Poissons Ratio (z) = 0.34110 0.34288
#
# Static dielectric constant tensor:
#      x y z
#    x 1.581520 0.000000 0.000000 
#    y 0.000000 1.609630 0.000000 
#    z 0.000000 0.000000 1.590150 
# 
# From -- ./inp_files/57306.got.cif
#   From: 2010.05.17/outbox.cif.g08.bks.cpg/sg65_29_cif.got.tgz:57306.got - 2010.06.03 17:01:31.
