data_PCOD9484755
_publ_section_title
;
Structure prediction by ZEFSAII (Michael W. Deem and Ramdas Pophale) SiO2 
 PCOD9484755
Probable space group: C M M M
;
_chemical_formula_sum "Si O2"
_cell_formula_units_Z 104
_cell_length_a 7.317084
_cell_length_b 17.078190
_cell_length_c 37.626222
_cell_angle_alpha 90.000000
_cell_angle_beta 90.000000
_cell_angle_gamma 90.000000
_cell_volume 4701.868678
_symmetry_space_group_name_H-M "C M M M"
_symmetry_group_IT_number 65
_symmetry_cell_setting 'orthorhombic'
loop_
_space_group_symop_operation_xyz
x,y,z
-x,-y,z
x,-y,-z
-x,y,-z
-x,-y,-z
x,y,-z
-x,y,z
x,-y,z
1/2+x,1/2+y,z
1/2-x,1/2-y,z
1/2+x,1/2-y,-z
1/2-x,1/2+y,-z
1/2-x,1/2-y,-z
1/2+x,1/2+y,-z
1/2-x,1/2+y,z
1/2+x,1/2-y,z
loop_
_atom_site_type_symbol
_atom_site_label
_atom_site_fract_x
_atom_site_fract_y
_atom_site_fract_z
Si Si1 0.717140 0.841532 0.836819
Si Si2 0.722884 0.000000 0.041170
Si Si3 0.281224 0.156760 0.916798
Si Si4 0.782946 0.658716 0.387438
Si Si5 0.785026 0.593734 0.763342
Si Si6 0.220971 0.592295 0.538243
Si Si7 0.222480 0.591566 0.313000
O O1 0.500000 0.858974 0.838258
O O2 0.750000 0.750000 0.831664
O O3 0.787650 0.858321 0.876496
O O4 0.792560 0.881395 0.801325
O O5 0.781684 0.917128 0.059255
O O6 0.500000 0.000000 0.042669
O O7 0.776521 0.000000 0.000000
O O8 0.500000 0.151220 0.916326
O O9 0.250000 0.250000 0.926057
O O10 0.750000 0.750000 0.388311
O O11 0.709668 0.625474 0.424588
O O12 0.711479 0.628329 0.349671
O O13 0.000000 0.640703 0.387198
O O14 0.774280 0.500000 0.761434
O O15 0.713066 0.624046 0.725292
O O16 0.000000 0.615632 0.764297
O O17 0.285052 0.625089 0.500000
O O18 0.259038 0.500000 0.538220
O O19 0.000000 0.601498 0.538349
O O20 0.267978 0.500000 0.314445
O O21 0.000000 0.597277 0.312256
#
# Coordination Sequence:
#
# PCOD9484755 Si02
#       7
#    16   8  16  16  16  16  16
#     4   9  17  28  44  66  91 118 148 182 224 271
#     4   9  18  32  51  75  99 127 165 205 245 289
#     4   9  18  32  50  72  99 129 162 200 243 290
#     4  10  19  29  43  64  88 112 138 170 212 256
#     4   8  14  24  41  65  87 108 142 187 223 251
#     4   8  14  26  45  66  83 103 138 179 210 240
#     4   8  14  26  43  62  83 109 145 184 215 246
#
# _framework density 22.118866000000001
#
# number of rings (size 3 to 8) (size 9 to 14) (size 15 to 20)
#    0.000    3.308    0.000    1.846    1.077    3.077 
#    0.000    0.385    0.000    2.769    0.000    3.231 
#    0.000    0.000    0.000    0.000    0.000    0.000 
#
# Total GULP energy -289638.687914 kJ/mol
# GULP energy per Si atom -5569.974768 kJ/mol
# Density = 2.206852 g / cm^3
# Si number density = 22.118866 Si / 1000 Ang^3
#
#
#
# Elastic Constant Matrix: (Units=GPa)
#
#
# Indices 1 2 3 4 5 6 
#
# 1 90.3464 0.6048 14.2316 0.0000 0.0000 0.0000
# 2 0.6048 85.2079 112.1286 0.0000 0.0000 0.0000
# 3 14.2316 112.1286 247.6666 0.0000 0.0000 0.0000
# 4 0.0000 0.0000 0.0000 -215.8167 0.0000 0.0000
# 5 0.0000 0.0000 0.0000 0.0000 -8.4150 0.0000
# 6 0.0000 0.0000 0.0000 0.0000 0.0000 16.6738
#
#
#
# Elastic Compliance Matrix: (Units=1/GPa)
#
#
# Indices 1 2 3 4 5 6 
#
# 1 0.011294 0.001915 -0.001516 0.000000 0.000000 0.000000
# 2 0.001915 0.029358 -0.013402 0.000000 0.000000 0.000000
# 3 -0.001516 -0.013402 0.010192 0.000000 0.000000 0.000000
# 4 0.000000 0.000000 0.000000 -0.004634 0.000000 0.000000
# 5 0.000000 0.000000 0.000000 0.000000 -0.118835 0.000000
# 6 0.000000 0.000000 0.000000 0.000000 0.000000 0.059974
#
#
# Mechanical properties :
#
#
# Convention : Reuss Voigt Hill
#
# Bulk Modulus (GPa) = 40.25914 75.23899 57.74907
# Shear Modulus (GPa) = 231.09246 -21.76120 104.66563
#
# Velocity S-wave (km/s) = 10.23251 -3.14001 6.88639
# Velocity P-wave (km/s) = 12.56370 4.57639 9.45489
#
# Compressibility (1/GPa) = 0.02483908
#
# Stress axis : x y z
#
# Youngs Moduli (GPa) = 88.53893 34.06206 98.11375
#
# Poissons Ratio (x) = -0.06521 0.14872
# Poissons Ratio (y) = -0.16951 1.31489
# Poissons Ratio (z) = 0.13421 0.45649
#
# Static dielectric constant tensor:
#      x y z
#    x 1.854690 0.000000 0.000000 
#    y 0.000000 1.756000 0.000000 
#    z 0.000000 0.000000 1.867720 
# 
# From -- ./inp_files/77489.got.cif
#   From: 2010.05.17/outbox.cif.g08.bks.cpg/sg65_39_cif.got.tgz:77489.got - 2010.06.03 17:01:31.
