data_PCOD9484752
_publ_section_title
;
Structure prediction by ZEFSAII (Michael W. Deem and Ramdas Pophale) SiO2 
 PCOD9484752
Probable space group: C M M M
;
_chemical_formula_sum "Si O2"
_cell_formula_units_Z 116
_cell_length_a 31.531123
_cell_length_b 27.997136
_cell_length_c 7.577979
_cell_angle_alpha 90.000000
_cell_angle_beta 90.000000
_cell_angle_gamma 90.000000
_cell_volume 6689.696932
_symmetry_space_group_name_H-M "C M M M"
_symmetry_group_IT_number 65
_symmetry_cell_setting 'orthorhombic'
loop_
_space_group_symop_operation_xyz
x,y,z
-x,-y,z
x,-y,-z
-x,y,-z
-x,-y,-z
x,y,-z
-x,y,z
x,-y,z
1/2+x,1/2+y,z
1/2-x,1/2-y,z
1/2+x,1/2-y,-z
1/2-x,1/2+y,-z
1/2-x,1/2-y,-z
1/2+x,1/2+y,-z
1/2-x,1/2+y,z
1/2+x,1/2-y,z
loop_
_atom_site_type_symbol
_atom_site_label
_atom_site_fract_x
_atom_site_fract_y
_atom_site_fract_z
Si Si1 0.547699 0.828056 0.286202
Si Si2 0.160085 0.800176 0.795707
Si Si3 0.000000 0.813590 0.000000
Si Si4 0.632360 0.872023 0.714248
Si Si5 0.729312 0.630348 0.299705
Si Si6 0.799034 0.705039 0.204849
Si Si7 0.934758 0.782782 0.703208
Si Si8 0.203348 0.554765 0.716054
O O1 0.546468 0.830870 0.500000
O O2 0.500000 0.836323 0.220340
O O3 0.584052 0.864709 0.226759
O O4 0.561097 0.773520 0.245714
O O5 0.186871 0.848728 0.784621
O O6 0.189544 0.757105 0.723833
O O7 0.114137 0.798967 0.709661
O O8 0.152967 0.788085 0.000000
O O9 0.963131 0.810354 0.844046
O O10 0.632928 0.871109 0.500000
O O11 0.658423 0.826136 0.779251
O O12 0.660259 0.917646 0.769523
O O13 0.718504 0.618050 0.500000
O O14 0.763344 0.673594 0.297153
O O15 0.756298 0.586182 0.222643
O O16 0.785805 0.708631 0.000000
O O17 0.949417 0.786859 0.500000
O O18 0.204238 0.555814 0.500000
O O19 0.204526 0.500000 0.772084
#
# Coordination Sequence:
#
# PCOD9484752 Si02
#       8
#    16  16   4  16  16  16  16  16
#     4   9  16  27  43  63  88 120 160 204 249 296
#     4  11  21  32  45  67  99 131 161 201 246 294
#     4  12  22  36  48  70  98 132 184 216 236 296
#     4   9  16  27  45  65  86 116 159 203 246 296
#     4  10  20  31  46  67  90 123 163 200 244 303
#     4  10  19  29  43  62  92 126 157 197 241 288
#     4  11  21  33  50  69  97 137 174 213 250 290
#     4   8  15  29  48  68  88 116 158 207 255 302
#
# _framework density 17.340097
#
# number of rings (size 3 to 8) (size 9 to 14) (size 15 to 20)
#    0.000    2.207    2.759    2.690    0.000    3.310 
#    0.000    0.000    0.000   10.759    0.000    2.897 
#    0.000    0.000    0.000    6.828    0.000   17.586 
#
# Total GULP energy -322887.913956 kJ/mol
# GULP energy per Si atom -5567.032999 kJ/mol
# Density = 1.730063 g / cm^3
# Si number density = 17.340097 Si / 1000 Ang^3
#
#
#
# Elastic Constant Matrix: (Units=GPa)
#
#
# Indices 1 2 3 4 5 6 
#
# 1 100.8019 72.4326 6.3049 0.0000 0.0000 0.0000
# 2 72.4326 74.9639 3.8279 0.0000 0.0000 0.0000
# 3 6.3049 3.8279 58.4812 0.0000 0.0000 0.0000
# 4 0.0000 0.0000 0.0000 13.9185 0.0000 0.0000
# 5 0.0000 0.0000 0.0000 0.0000 22.6147 0.0000
# 6 0.0000 0.0000 0.0000 0.0000 0.0000 0.3494
#
#
#
# Elastic Compliance Matrix: (Units=1/GPa)
#
#
# Indices 1 2 3 4 5 6 
#
# 1 0.032575 -0.031400 -0.001457 0.000000 0.000000 0.000000
# 2 -0.031400 0.043653 0.000528 0.000000 0.000000 0.000000
# 3 -0.001457 0.000528 0.017222 0.000000 0.000000 0.000000
# 4 0.000000 0.000000 0.000000 0.071847 0.000000 0.000000
# 5 0.000000 0.000000 0.000000 0.000000 0.044219 0.000000
# 6 0.000000 0.000000 0.000000 0.000000 0.000000 2.862027
#
#
# Mechanical properties :
#
#
# Convention : Reuss Voigt Hill
#
# Bulk Modulus (GPa) = 34.73236 44.37532 39.55384
# Shear Modulus (GPa) = 1.58942 17.48863 9.53903
#
# Velocity S-wave (km/s) = 0.95844 3.17924 2.34799
# Velocity P-wave (km/s) = 4.61502 6.25487 5.49645
#
# Compressibility (1/GPa) = 0.02879160
#
# Stress axis : x y z
#
# Youngs Moduli (GPa) = 30.69860 22.90797 58.06536
#
# Poissons Ratio (x) = 0.71932 0.08458
# Poissons Ratio (y) = 0.96395 -0.03066
# Poissons Ratio (z) = 0.04471 -0.01209
#
# Static dielectric constant tensor:
#      x y z
#    x 1.614730 0.000000 0.000000 
#    y 0.000000 1.566430 0.000000 
#    z 0.000000 0.000000 1.621940 
# 
# From -- ./inp_files/19111.got.cif
#   From: 2010.05.17/outbox.cif.g08.bks.cpg/sg65_10_cif.got.tgz:19111.got - 2010.06.03 17:01:31.
