data_PCOD9484421
_publ_section_title
;
Structure prediction by ZEFSAII (Michael W. Deem and Ramdas Pophale) SiO2 
 PCOD9484421
Probable space group: C M M M
;
_chemical_formula_sum "Si O2"
_cell_formula_units_Z 58
_cell_length_a 24.455218
_cell_length_b 15.706626
_cell_length_c 7.415000
_cell_angle_alpha 90.000000
_cell_angle_beta 90.000000
_cell_angle_gamma 90.000000
_cell_volume 2848.167960
_symmetry_space_group_name_H-M "C M M M"
_symmetry_group_IT_number 65
_symmetry_cell_setting 'orthorhombic'
loop_
_space_group_symop_operation_xyz
x,y,z
-x,-y,z
x,-y,-z
-x,y,-z
-x,-y,-z
x,y,-z
-x,y,z
x,-y,z
1/2+x,1/2+y,z
1/2-x,1/2-y,z
1/2+x,1/2-y,-z
1/2-x,1/2+y,-z
1/2-x,1/2-y,-z
1/2+x,1/2+y,-z
1/2-x,1/2+y,z
1/2+x,1/2-y,z
loop_
_atom_site_type_symbol
_atom_site_label
_atom_site_fract_x
_atom_site_fract_y
_atom_site_fract_z
Si Si1 0.500000 0.500000 0.500000
Si Si2 0.798509 0.096632 0.719570
Si Si3 0.500000 0.350939 0.800852
Si Si4 0.173147 0.403847 0.280200
Si Si5 0.613256 0.736044 0.281195
O O1 0.500000 0.425133 0.654994
O O2 0.798995 0.097393 0.500000
O O3 0.735990 0.114584 0.773926
O O4 0.841952 0.166277 0.778957
O O5 0.812670 0.000000 0.774526
O O6 0.553852 0.293307 0.778321
O O7 0.500000 0.388268 0.000000
O O8 0.173071 0.403937 0.500000
O O9 0.159429 0.500000 0.222786
O O10 0.133112 0.329070 0.221302
O O11 0.613501 0.735635 0.500000
#
# Coordination Sequence:
#
# PCOD9484421 Si02
#       5
#     2  16   8  16  16
#     4  12  26  52  68  86 118 160 198 244 296 352
#     4   8  14  23  44  78 115 152 198 247 298 359
#     4  12  27  43  64  91 120 154 200 246 292 354
#     4   8  14  26  47  82 117 154 205 253 295 353
#     4  10  18  32  55  80 118 160 199 249 301 353
#
# _framework density 20.363969000000001
#
# number of rings (size 3 to 8) (size 9 to 14) (size 15 to 20)
#    0.000    2.759    1.379    2.690    1.931    3.310 
#    0.000    0.690    0.000    8.276    0.000    3.862 
#    0.000    0.000    0.000    0.000    0.000    0.000 
#
# Total GULP energy -161690.486450 kJ/mol
# GULP energy per Si atom -5575.534016 kJ/mol
# Density = 2.031762 g / cm^3
# Si number density = 20.363969 Si / 1000 Ang^3
#
#
#
# Elastic Constant Matrix: (Units=GPa)
#
#
# Indices 1 2 3 4 5 6 
#
# 1 143.9525 137.7009 25.5777 0.0000 0.0000 0.0000
# 2 137.7009 187.7792 33.3663 0.0000 0.0000 0.0000
# 3 25.5777 33.3663 98.6422 0.0000 0.0000 0.0000
# 4 0.0000 0.0000 0.0000 -36.6205 0.0000 0.0000
# 5 0.0000 0.0000 0.0000 0.0000 25.8837 0.0000
# 6 0.0000 0.0000 0.0000 0.0000 0.0000 -8.4518
#
#
#
# Elastic Compliance Matrix: (Units=1/GPa)
#
#
# Indices 1 2 3 4 5 6 
#
# 1 0.023277 -0.017020 -0.000279 0.000000 0.000000 0.000000
# 2 -0.017020 0.018110 -0.001713 0.000000 0.000000 0.000000
# 3 -0.000279 -0.001713 0.010789 0.000000 0.000000 0.000000
# 4 0.000000 0.000000 0.000000 -0.027307 0.000000 0.000000
# 5 0.000000 0.000000 0.000000 0.000000 0.038634 0.000000
# 6 0.000000 0.000000 0.000000 0.000000 0.000000 -0.118317
#
#
# Mechanical properties :
#
#
# Convention : Reuss Voigt Hill
#
# Bulk Modulus (GPa) = 70.64972 91.51819 81.08395
# Shear Modulus (GPa) = -414.13570 11.74420 -201.19575
#
# Velocity S-wave (km/s) = -14.27615 2.40409 -9.95060
# Velocity P-wave (km/s) = 15.39402 7.26258 9.59767
#
# Compressibility (1/GPa) = 0.01415434
#
# Stress axis : x y z
#
# Youngs Moduli (GPa) = 42.96128 55.21663 92.68473
#
# Poissons Ratio (x) = 0.93977 0.02582
# Poissons Ratio (y) = 0.73119 0.15875
# Poissons Ratio (z) = 0.01197 0.09458
#
# Static dielectric constant tensor:
#      x y z
#    x 1.679570 0.000000 0.000000 
#    y 0.000000 1.695690 0.000000 
#    z 0.000000 0.000000 1.756100 
# 
# From -- ./inp_files/6621.got.cif
#   From: 2010.05.17/outbox.cif.g08.bks.cpg/sg65_4_cif.got.tgz:6621.got - 2010.06.03 17:01:31.
