data_PCOD9484450
_publ_section_title
;
Structure prediction by ZEFSAII (Michael W. Deem and Ramdas Pophale) SiO2 
 PCOD9484450
Probable space group: C M M M
;
_chemical_formula_sum "Si O2"
_cell_formula_units_Z 88
_cell_length_a 8.805963
_cell_length_b 30.555865
_cell_length_c 17.394103
_cell_angle_alpha 90.000000
_cell_angle_beta 90.000000
_cell_angle_gamma 90.000000
_cell_volume 4680.297681
_symmetry_space_group_name_H-M "C M M M"
_symmetry_group_IT_number 65
_symmetry_cell_setting 'orthorhombic'
loop_
_space_group_symop_operation_xyz
x,y,z
-x,-y,z
x,-y,-z
-x,y,-z
-x,-y,-z
x,y,-z
-x,y,z
x,-y,z
1/2+x,1/2+y,z
1/2-x,1/2-y,z
1/2+x,1/2-y,-z
1/2-x,1/2+y,-z
1/2-x,1/2-y,-z
1/2+x,1/2+y,-z
1/2-x,1/2+y,z
1/2+x,1/2-y,z
loop_
_atom_site_type_symbol
_atom_site_label
_atom_site_fract_x
_atom_site_fract_y
_atom_site_fract_z
Si Si1 0.674524 0.048213 0.322323
Si Si2 0.318735 0.366974 0.755791
Si Si3 0.247470 0.951688 0.500000
Si Si4 0.820621 0.702403 0.647379
Si Si5 0.672387 0.500000 0.906558
Si Si6 0.682273 0.858751 0.500000
Si Si7 0.685794 0.404812 0.912731
O O1 0.500000 0.052176 0.297460
O O2 0.764825 0.089430 0.289712
O O3 0.674770 0.047932 0.415788
O O4 0.734066 0.000000 0.298284
O O5 0.500000 0.365057 0.751320
O O6 0.248598 0.324178 0.718124
O O7 0.272417 0.372425 0.844828
O O8 0.203455 0.900180 0.500000
O O9 0.167147 0.000000 0.500000
O O10 0.750000 0.750000 0.636685
O O11 0.793676 0.671255 0.574006
O O12 0.000000 0.706994 0.656826
O O13 0.500000 0.500000 0.875397
O O14 0.743270 0.453263 0.888279
O O15 0.661728 0.500000 0.000000
O O16 0.500000 0.872345 0.500000
O O17 0.500000 0.407628 0.914487
O O18 0.734124 0.394967 0.000000
#
# Coordination Sequence:
#
# PCOD9484450 Si02
#       7
#    16  16   8  16   8   8  16
#     4  10  20  34  53  76 107 151 197 234 268 314
#     4  11  22  34  54  84 114 143 179 228 283 331
#     4  10  18  32  56  81 109 153 201 228 253 309
#     4  11  23  41  62  83 109 139 181 231 283 333
#     4   7  10  20  40  66  97 136 179 216 250 295
#     4  10  19  34  58  84 109 145 188 228 265 313
#     4   8  15  28  47  73 107 146 185 222 262 315
#
# _framework density 18.802223000000001
#
# number of rings (size 3 to 8) (size 9 to 14) (size 15 to 20)
#    0.000    2.273    1.818    3.273    1.273    2.364 
#    0.000    2.727    0.000    4.364    0.000    1.273 
#    0.000    0.000    0.000    0.000    0.000    0.000 
#
# Total GULP energy -245025.318337 kJ/mol
# GULP energy per Si atom -5568.757235 kJ/mol
# Density = 1.875943 g / cm^3
# Si number density = 18.802223 Si / 1000 Ang^3
#
#
#
# Elastic Constant Matrix: (Units=GPa)
#
#
# Indices 1 2 3 4 5 6 
#
# 1 44.5058 42.4008 23.1540 0.0000 0.0000 0.0000
# 2 42.4008 137.1988 46.4420 0.0000 0.0000 0.0000
# 3 23.1540 46.4420 100.1295 0.0000 0.0000 0.0000
# 4 0.0000 0.0000 0.0000 5.1069 0.0000 0.0000
# 5 0.0000 0.0000 0.0000 0.0000 0.9708 0.0000
# 6 0.0000 0.0000 0.0000 0.0000 0.0000 20.6729
#
#
#
# Elastic Compliance Matrix: (Units=1/GPa)
#
#
# Indices 1 2 3 4 5 6 
#
# 1 0.032804 -0.008980 -0.003420 0.000000 0.000000 0.000000
# 2 -0.008980 0.011104 -0.003074 0.000000 0.000000 0.000000
# 3 -0.003420 -0.003074 0.012204 0.000000 0.000000 0.000000
# 4 0.000000 0.000000 0.000000 0.195814 0.000000 0.000000
# 5 0.000000 0.000000 0.000000 0.000000 1.030100 0.000000
# 6 0.000000 0.000000 0.000000 0.000000 0.000000 0.048373
#
#
# Mechanical properties :
#
#
# Convention : Reuss Voigt Hill
#
# Bulk Modulus (GPa) = 39.74065 56.20309 47.97187
# Shear Modulus (GPa) = 3.65034 16.67260 10.16147
#
# Velocity S-wave (km/s) = 1.39487 2.98104 2.32726
# Velocity P-wave (km/s) = 4.87609 6.46571 5.72633
#
# Compressibility (1/GPa) = 0.02516315
#
# Stress axis : x y z
#
# Youngs Moduli (GPa) = 30.48434 90.05387 81.94197
#
# Poissons Ratio (x) = 0.80869 0.28028
# Poissons Ratio (y) = 0.27375 0.25188
# Poissons Ratio (z) = 0.10427 0.27682
#
# Static dielectric constant tensor:
#      x y z
#    x 1.647900 0.000000 0.000000 
#    y 0.000000 1.661750 0.000000 
#    z 0.000000 0.000000 1.674470 
# 
# From -- ./inp_files/50510.got.cif
#   From: 2010.05.17/outbox.cif.g08.bks.cpg/sg65_26_cif.got.tgz:50510.got - 2010.06.03 17:01:31.
