data_PCOD9485226
_publ_section_title
;
Structure prediction by ZEFSAII (Michael W. Deem and Ramdas Pophale) SiO2 
 PCOD9485226
Probable space group: C M M M
;
_chemical_formula_sum "Si O2"
_cell_formula_units_Z 56
_cell_length_a 26.972051
_cell_length_b 8.823473
_cell_length_c 12.429717
_cell_angle_alpha 90.000000
_cell_angle_beta 90.000000
_cell_angle_gamma 90.000000
_cell_volume 2958.113095
_symmetry_space_group_name_H-M "C M M M"
_symmetry_group_IT_number 65
_symmetry_cell_setting 'orthorhombic'
loop_
_space_group_symop_operation_xyz
x,y,z
-x,-y,z
x,-y,-z
-x,y,-z
-x,-y,-z
x,y,-z
-x,y,z
x,-y,z
1/2+x,1/2+y,z
1/2-x,1/2-y,z
1/2+x,1/2-y,-z
1/2-x,1/2+y,-z
1/2-x,1/2-y,-z
1/2+x,1/2+y,-z
1/2-x,1/2+y,z
1/2+x,1/2-y,z
loop_
_atom_site_type_symbol
_atom_site_label
_atom_site_fract_x
_atom_site_fract_y
_atom_site_fract_z
Si Si1 0.000000 0.180224 0.627371
Si Si2 0.800362 0.319801 0.770550
Si Si3 0.585196 0.817926 0.229254
Si Si4 0.574413 0.329799 0.000000
Si Si5 0.307996 0.671170 0.000000
O O1 0.951896 0.253452 0.682367
O O2 0.000000 0.206203 0.500000
O O3 0.000000 0.000000 0.647601
O O4 0.797253 0.500000 0.760292
O O5 0.750000 0.250000 0.718736
O O6 0.857352 0.273040 0.742890
O O7 0.797834 0.267386 0.894332
O O8 0.566095 0.756494 0.112781
O O9 0.584130 0.000000 0.225070
O O10 0.553358 0.500000 0.000000
O O11 0.633363 0.346917 0.000000
O O12 0.286464 0.500000 0.000000
#
# Coordination Sequence:
#
# PCOD9485226 Si02
#       5
#     8  16  16   8   8
#     4  11  25  44  65  86 107 137 181 233 286 339
#     4  10  19  30  47  74 109 147 184 223 267 318
#     4  10  21  37  58  85 116 150 189 231 276 329
#     4   9  17  31  53  82 117 153 187 227 276 328
#     4   9  16  26  42  67 104 150 191 224 261 312
#
# _framework density 18.930986000000001
#
# number of rings (size 3 to 8) (size 9 to 14) (size 15 to 20)
#    0.000    2.143    0.000    3.429    0.000    8.571 
#    0.000    2.857    0.000    0.857    0.000    0.000 
#    0.000    0.000    0.000    0.000    0.000    0.000 
#
# Total GULP energy -155930.915130 kJ/mol
# GULP energy per Si atom -5568.961255 kJ/mol
# Density = 1.888790 g / cm^3
# Si number density = 18.930986 Si / 1000 Ang^3
#
#
#
# Elastic Constant Matrix: (Units=GPa)
#
#
# Indices 1 2 3 4 5 6 
#
# 1 177.8937 53.4643 50.8809 0.0000 0.0000 0.0000
# 2 53.4643 78.7951 40.2552 0.0000 0.0000 0.0000
# 3 50.8809 40.2552 63.2240 0.0000 0.0000 0.0000
# 4 0.0000 0.0000 0.0000 -55.5377 0.0000 0.0000
# 5 0.0000 0.0000 0.0000 0.0000 -61.0883 0.0000
# 6 0.0000 0.0000 0.0000 0.0000 0.0000 28.7786
#
#
#
# Elastic Compliance Matrix: (Units=1/GPa)
#
#
# Indices 1 2 3 4 5 6 
#
# 1 0.007776 -0.003082 -0.004296 0.000000 0.000000 0.000000
# 2 -0.003082 0.020031 -0.010274 0.000000 0.000000 0.000000
# 3 -0.004296 -0.010274 0.025815 0.000000 0.000000 0.000000
# 4 0.000000 0.000000 0.000000 -0.018006 0.000000 0.000000
# 5 0.000000 0.000000 0.000000 0.000000 -0.016370 0.000000
# 6 0.000000 0.000000 0.000000 0.000000 0.000000 0.034748
#
#
# Mechanical properties :
#
#
# Convention : Reuss Voigt Hill
#
# Bulk Modulus (GPa) = 54.58593 67.67929 61.13261
# Shear Modulus (GPa) = 52.40851 -5.88201 23.26325
#
# Velocity S-wave (km/s) = 5.26727 -1.76460 3.50929
# Velocity P-wave (km/s) = 8.11720 5.62818 6.98446
#
# Compressibility (1/GPa) = 0.01831974
#
# Stress axis : x y z
#
# Youngs Moduli (GPa) = 128.59722 49.92319 38.73643
#
# Poissons Ratio (x) = 0.15384 0.16641
# Poissons Ratio (y) = 0.39628 0.39797
# Poissons Ratio (z) = 0.55246 0.51290
#
# Static dielectric constant tensor:
#      x y z
#    x 1.757040 0.000000 0.000000 
#    y 0.000000 1.674290 0.000000 
#    z 0.000000 0.000000 1.612960 
# 
# From -- ./inp_files/31764.got.cif
#   From: 2010.05.17/outbox.cif.g08.bks.cpg/sg65_16_cif.got.tgz:31764.got - 2010.06.03 17:01:31.
