data_PCOD9485512
_publ_section_title
;
Structure prediction by ZEFSAII (Michael W. Deem and Ramdas Pophale) SiO2 
 PCOD9485512
Probable space group: C M M M
;
_chemical_formula_sum "Si O2"
_cell_formula_units_Z 96
_cell_length_a 29.515483
_cell_length_b 14.142796
_cell_length_c 13.351361
_cell_angle_alpha 90.000000
_cell_angle_beta 90.000000
_cell_angle_gamma 90.000000
_cell_volume 5573.278047
_symmetry_space_group_name_H-M "C M M M"
_symmetry_group_IT_number 65
_symmetry_cell_setting 'orthorhombic'
loop_
_space_group_symop_operation_xyz
x,y,z
-x,-y,z
x,-y,-z
-x,y,-z
-x,-y,-z
x,y,-z
-x,y,z
x,-y,z
1/2+x,1/2+y,z
1/2-x,1/2-y,z
1/2+x,1/2-y,-z
1/2-x,1/2+y,-z
1/2-x,1/2-y,-z
1/2+x,1/2+y,-z
1/2-x,1/2+y,z
1/2+x,1/2-y,z
loop_
_atom_site_type_symbol
_atom_site_label
_atom_site_fract_x
_atom_site_fract_y
_atom_site_fract_z
Si Si1 0.804931 0.613227 0.311010
Si Si2 0.642706 0.612087 0.798667
Si Si3 0.868553 0.386571 0.500000
Si Si4 0.052959 0.237200 0.500000
Si Si5 0.294691 0.385681 0.611658
Si Si6 0.447865 0.611290 0.696998
Si Si7 0.696596 0.226028 0.110418
O O1 0.804581 0.500000 0.298999
O O2 0.839420 0.635887 0.400537
O O3 0.754692 0.641871 0.347917
O O4 0.815216 0.660791 0.204960
O O5 0.649174 0.500000 0.817854
O O6 0.667511 0.636538 0.693275
O O7 0.589740 0.631497 0.780827
O O8 0.667534 0.678325 0.877626
O O9 0.876444 0.500000 0.500000
O O10 0.913880 0.325784 0.500000
O O11 0.060618 0.173271 0.401571
O O12 0.000000 0.264984 0.500000
O O13 0.303090 0.348426 0.500000
O O14 0.294010 0.500000 0.605085
O O15 0.500000 0.625947 0.728758
O O16 0.442629 0.500000 0.670674
O O17 0.750000 0.250000 0.117660
O O18 0.688676 0.184102 0.000000
#
# Coordination Sequence:
#
# PCOD9485512 Si02
#       7
#    16  16   8   8  16  16  16
#     4  10  19  35  53  72 102 136 172 213 257 301
#     4  10  20  34  52  74 103 137 175 218 260 302
#     4  10  20  34  55  78 103 136 172 216 260 306
#     4  10  19  31  47  72 109 144 173 206 255 315
#     4   9  16  28  46  70 101 134 168 207 249 296
#     4   9  18  32  51  75 104 138 174 213 258 310
#     4  11  23  36  50  73 103 136 178 216 252 311
#
# _framework density 17.225052000000002
#
# number of rings (size 3 to 8) (size 9 to 14) (size 15 to 20)
#    0.000    2.167    2.500    1.250    1.167    1.833 
#    1.500    2.917    0.000    0.500    0.000    2.333 
#    0.000    0.000    0.000   14.333    0.000    0.167 
#
# Total GULP energy -267928.401657 kJ/mol
# GULP energy per Si atom -5581.841701 kJ/mol
# Density = 1.718585 g / cm^3
# Si number density = 17.225052 Si / 1000 Ang^3
#
#
#
# Elastic Constant Matrix: (Units=GPa)
#
#
# Indices 1 2 3 4 5 6 
#
# 1 96.2019 36.3355 25.5826 0.0000 0.0000 0.0000
# 2 36.3355 63.7350 34.8029 0.0000 0.0000 0.0000
# 3 25.5826 34.8029 104.8946 0.0000 0.0000 0.0000
# 4 0.0000 0.0000 0.0000 1.0687 0.0000 0.0000
# 5 0.0000 0.0000 0.0000 0.0000 -6.3914 0.0000
# 6 0.0000 0.0000 0.0000 0.0000 0.0000 22.1292
#
#
#
# Elastic Compliance Matrix: (Units=1/GPa)
#
#
# Indices 1 2 3 4 5 6 
#
# 1 0.013315 -0.007105 -0.000890 0.000000 0.000000 0.000000
# 2 -0.007105 0.022953 -0.005883 0.000000 0.000000 0.000000
# 3 -0.000890 -0.005883 0.011702 0.000000 0.000000 0.000000
# 4 0.000000 0.000000 0.000000 0.935724 0.000000 0.000000
# 5 0.000000 0.000000 0.000000 0.000000 -0.156460 0.000000
# 6 0.000000 0.000000 0.000000 0.000000 0.000000 0.045189
#
#
# Mechanical properties :
#
#
# Convention : Reuss Voigt Hill
#
# Bulk Modulus (GPa) = 49.46876 50.91929 50.19403
# Shear Modulus (GPa) = 5.51318 14.56866 10.04092
#
# Velocity S-wave (km/s) = 1.79098 2.91139 2.41700
# Velocity P-wave (km/s) = 5.74963 6.39742 6.08215
#
# Compressibility (1/GPa) = 0.02021478
#
# Stress axis : x y z
#
# Youngs Moduli (GPa) = 75.10319 43.56768 85.45353
#
# Poissons Ratio (x) = 0.30954 0.07606
# Poissons Ratio (y) = 0.53360 0.50270
# Poissons Ratio (z) = 0.06685 0.25630
#
# Static dielectric constant tensor:
#      x y z
#    x 1.582180 0.000000 0.000000 
#    y 0.000000 1.607710 0.000000 
#    z 0.000000 0.000000 1.580630 
# 
# From -- ./inp_files/33878.got.cif
#   From: 2010.05.17/outbox.cif.g08.bks.cpg/sg65_17_cif.got.tgz:33878.got - 2010.06.03 17:01:31.
