data_PCOD9485007
_publ_section_title
;
Structure prediction by ZEFSAII (Michael W. Deem and Ramdas Pophale) SiO2 
 PCOD9485007
Probable space group: C M M M
;
_chemical_formula_sum "Si O2"
_cell_formula_units_Z 96
_cell_length_a 37.490186
_cell_length_b 15.274923
_cell_length_c 11.530721
_cell_angle_alpha 90.000000
_cell_angle_beta 90.000000
_cell_angle_gamma 90.000000
_cell_volume 6603.179279
_symmetry_space_group_name_H-M "C M M M"
_symmetry_group_IT_number 65
_symmetry_cell_setting 'orthorhombic'
loop_
_space_group_symop_operation_xyz
x,y,z
-x,-y,z
x,-y,-z
-x,y,-z
-x,-y,-z
x,y,-z
-x,y,z
x,-y,z
1/2+x,1/2+y,z
1/2-x,1/2-y,z
1/2+x,1/2-y,-z
1/2-x,1/2+y,-z
1/2-x,1/2-y,-z
1/2+x,1/2+y,-z
1/2-x,1/2+y,z
1/2+x,1/2-y,z
loop_
_atom_site_type_symbol
_atom_site_label
_atom_site_fract_x
_atom_site_fract_y
_atom_site_fract_z
Si Si1 0.351383 0.395717 0.000000
Si Si2 0.187823 0.595702 0.639460
Si Si3 0.888173 0.895373 0.245852
Si Si4 0.827574 0.213968 0.362213
Si Si5 0.540205 0.393867 0.366393
Si Si6 0.229037 0.158133 0.000000
Si Si7 0.233669 0.902401 0.744547
O O1 0.374563 0.379182 0.884938
O O2 0.341519 0.500000 0.000000
O O3 0.314450 0.341404 0.000000
O O4 0.187059 0.594020 0.500000
O O5 0.174756 0.500000 0.680908
O O6 0.168478 0.684888 0.676060
O O7 0.228720 0.604565 0.680117
O O8 0.861512 0.843181 0.328477
O O9 0.928450 0.868539 0.278579
O O10 0.885146 0.000000 0.265657
O O11 0.821568 0.211590 0.500000
O O12 0.793701 0.170137 0.299762
O O13 0.548309 0.367843 0.500000
O O14 0.500000 0.363866 0.337636
O O15 0.539293 0.500000 0.366097
O O16 0.250000 0.250000 0.000000
O O17 0.239173 0.109774 0.118622
O O18 0.218692 0.000000 0.722576
#
# Coordination Sequence:
#
# PCOD9485007 Si02
#       7
#     8  16  16  16  16   8  16
#     4  10  20  34  45  60  88 120 151 192 233 267
#     4   9  19  34  47  60  82 110 142 184 230 271
#     4  10  19  30  45  65  91 119 148 181 221 263
#     4  11  20  29  45  66  85 109 145 182 222 273
#     4   8  14  26  44  66  93 122 148 175 210 256
#     4  12  22  32  46  59  79 117 159 191 227 267
#     4  11  21  32  45  62  84 109 142 185 230 273
#
# _framework density 14.538451999999999
#
# number of rings (size 3 to 8) (size 9 to 14) (size 15 to 20)
#    0.000    2.000    1.667    4.250    0.000    4.000 
#    0.000    0.417    0.000    2.500    0.000    0.000 
#    0.000    0.667    0.000    6.167    0.000    1.833 
#
# Total GULP energy -267456.681716 kJ/mol
# GULP energy per Si atom -5572.014202 kJ/mol
# Density = 1.450536 g / cm^3
# Si number density = 14.538452 Si / 1000 Ang^3
#
#
#
# Elastic Constant Matrix: (Units=GPa)
#
#
# Indices 1 2 3 4 5 6 
#
# 1 63.9528 25.0024 14.1475 0.0000 0.0000 0.0000
# 2 25.0024 73.3023 25.5580 0.0000 0.0000 0.0000
# 3 14.1475 25.5580 27.8924 0.0000 0.0000 0.0000
# 4 0.0000 0.0000 0.0000 15.3356 0.0000 0.0000
# 5 0.0000 0.0000 0.0000 0.0000 -0.2931 0.0000
# 6 0.0000 0.0000 0.0000 0.0000 0.0000 5.1811
#
#
#
# Elastic Compliance Matrix: (Units=1/GPa)
#
#
# Indices 1 2 3 4 5 6 
#
# 1 0.018563 -0.004480 -0.005310 0.000000 0.000000 0.000000
# 2 -0.004480 0.021128 -0.017087 0.000000 0.000000 0.000000
# 3 -0.005310 -0.017087 0.054203 0.000000 0.000000 0.000000
# 4 0.000000 0.000000 0.000000 0.065208 0.000000 0.000000
# 5 0.000000 0.000000 0.000000 0.000000 -3.412202 0.000000
# 6 0.000000 0.000000 0.000000 0.000000 0.000000 0.193010
#
#
# Mechanical properties :
#
#
# Convention : Reuss Voigt Hill
#
# Bulk Modulus (GPa) = 24.91392 32.72928 28.82160
# Shear Modulus (GPa) = -1.67059 10.74068 4.53505
#
# Velocity S-wave (km/s) = -1.07312 2.72100 1.76808
# Velocity P-wave (km/s) = 3.95453 5.69498 4.90261
#
# Compressibility (1/GPa) = 0.04013821
#
# Stress axis : x y z
#
# Youngs Moduli (GPa) = 53.87143 47.33051 18.44916
#
# Poissons Ratio (x) = 0.21204 0.09797
# Poissons Ratio (y) = 0.24134 0.31525
# Poissons Ratio (z) = 0.28607 0.80876
#
# Static dielectric constant tensor:
#      x y z
#    x 1.467390 0.000000 0.000000 
#    y 0.000000 1.507310 0.000000 
#    z 0.000000 0.000000 1.492030 
# 
# From -- ./inp_files/33897.got.cif
#   From: 2010.05.17/outbox.cif.g08.bks.cpg/sg65_17_cif.got.tgz:33897.got - 2010.06.03 17:01:31.
