data_PCOD9485942
_publ_section_title
;
Structure prediction by ZEFSAII (Michael W. Deem and Ramdas Pophale) SiO2 
 PCOD9485942
Probable space group: C M M M
;
_chemical_formula_sum "Si O2"
_cell_formula_units_Z 96
_cell_length_a 17.119916
_cell_length_b 26.171905
_cell_length_c 12.684107
_cell_angle_alpha 90.000000
_cell_angle_beta 90.000000
_cell_angle_gamma 90.000000
_cell_volume 5683.251322
_symmetry_space_group_name_H-M "C M M M"
_symmetry_group_IT_number 65
_symmetry_cell_setting 'orthorhombic'
loop_
_space_group_symop_operation_xyz
x,y,z
-x,-y,z
x,-y,-z
-x,y,-z
-x,-y,-z
x,y,-z
-x,y,z
x,-y,z
1/2+x,1/2+y,z
1/2-x,1/2-y,z
1/2+x,1/2-y,-z
1/2-x,1/2+y,-z
1/2-x,1/2-y,-z
1/2+x,1/2+y,-z
1/2-x,1/2+y,z
1/2+x,1/2-y,z
loop_
_atom_site_type_symbol
_atom_site_label
_atom_site_fract_x
_atom_site_fract_y
_atom_site_fract_z
Si Si1 0.180948 0.942554 0.317994
Si Si2 0.745291 0.310057 0.500000
Si Si3 0.409705 0.415304 0.883888
Si Si4 0.905174 0.880028 0.500000
Si Si5 0.406947 0.192774 0.122056
Si Si6 0.789351 0.351319 0.277136
Si Si7 0.160162 0.806203 0.121250
O O1 0.136790 0.942245 0.207307
O O2 0.124033 0.912758 0.399188
O O3 0.257436 0.908481 0.295754
O O4 0.196578 0.000000 0.354517
O O5 0.750000 0.250000 0.500000
O O6 0.655272 0.331651 0.500000
O O7 0.787940 0.328744 0.394170
O O8 0.500000 0.428433 0.878024
O O9 0.399522 0.353805 0.872173
O O10 0.379311 0.428342 0.000000
O O11 0.000000 0.871445 0.500000
O O12 0.500000 0.191879 0.131009
O O13 0.366559 0.156597 0.208278
O O14 0.377377 0.251043 0.140380
O O15 0.386626 0.179521 0.000000
O O16 0.725616 0.320469 0.206242
O O17 0.190535 0.805857 0.000000
#
# Coordination Sequence:
#
# PCOD9485942 Si02
#       7
#    16   8  16   8  16  16  16
#     4  10  21  35  51  70  94 130 172 211 253 298
#     4  10  20  35  51  72 107 145 174 196 235 301
#     4   9  17  28  42  65  99 131 158 193 237 291
#     4  10  21  36  56  81 106 132 170 218 255 285
#     4  10  19  31  51  77 101 126 162 211 261 307
#     4  10  20  34  50  70  99 133 169 207 248 300
#     4   9  16  28  48  72  98 130 164 196 242 304
#
# _framework density 16.891739999999999
#
# number of rings (size 3 to 8) (size 9 to 14) (size 15 to 20)
#    0.000    2.333    0.000    3.250    0.000    6.000 
#    0.000    7.917    0.000    0.500    0.000    1.167 
#    0.000    4.000    0.000    0.000    0.000    0.000 
#
# Total GULP energy -267538.276829 kJ/mol
# GULP energy per Si atom -5573.714101 kJ/mol
# Density = 1.685329 g / cm^3
# Si number density = 16.891740 Si / 1000 Ang^3
#
#
#
# Elastic Constant Matrix: (Units=GPa)
#
#
# Indices 1 2 3 4 5 6 
#
# 1 67.3368 35.7056 29.6183 0.0000 0.0000 0.0000
# 2 35.7056 94.1573 35.3477 0.0000 0.0000 0.0000
# 3 29.6183 35.3477 98.7525 0.0000 0.0000 0.0000
# 4 0.0000 0.0000 0.0000 0.3911 0.0000 0.0000
# 5 0.0000 0.0000 0.0000 0.0000 25.1418 0.0000
# 6 0.0000 0.0000 0.0000 0.0000 0.0000 -2.5200
#
#
#
# Elastic Compliance Matrix: (Units=1/GPa)
#
#
# Indices 1 2 3 4 5 6 
#
# 1 0.019716 -0.006072 -0.003740 0.000000 0.000000 0.000000
# 2 -0.006072 0.014140 -0.003240 0.000000 0.000000 0.000000
# 3 -0.003740 -0.003240 0.012408 0.000000 0.000000 0.000000
# 4 0.000000 0.000000 0.000000 2.556597 0.000000 0.000000
# 5 0.000000 0.000000 0.000000 0.000000 0.039774 0.000000
# 6 0.000000 0.000000 0.000000 0.000000 0.000000 -0.396824
#
#
# Mechanical properties :
#
#
# Convention : Reuss Voigt Hill
#
# Bulk Modulus (GPa) = 49.60598 51.28775 50.44687
# Shear Modulus (GPa) = 2.19430 15.24091 8.71761
#
# Velocity S-wave (km/s) = 1.14099 3.00704 2.27422
# Velocity P-wave (km/s) = 5.58270 6.51805 6.06842
#
# Compressibility (1/GPa) = 0.02015886
#
# Stress axis : x y z
#
# Youngs Moduli (GPa) = 50.72143 70.72356 80.59573
#
# Poissons Ratio (x) = 0.42947 0.30139
# Poissons Ratio (y) = 0.30801 0.26112
# Poissons Ratio (z) = 0.18968 0.22913
#
# Static dielectric constant tensor:
#      x y z
#    x 1.565690 0.000000 0.000000 
#    y 0.000000 1.596110 0.000000 
#    z 0.000000 0.000000 1.601470 
# 
# From -- ./inp_files/27170.got.cif
#   From: 2010.05.17/outbox.cif.g08.bks.cpg/sg65_14_cif.got.tgz:27170.got - 2010.06.03 17:01:31.
