data_PCOD9485493
_publ_section_title
;
Structure prediction by ZEFSAII (Michael W. Deem and Ramdas Pophale) SiO2 
 PCOD9485493
Probable space group: C M M M
;
_chemical_formula_sum "Si O2"
_cell_formula_units_Z 128
_cell_length_a 18.434065
_cell_length_b 20.921713
_cell_length_c 19.841963
_cell_angle_alpha 90.000000
_cell_angle_beta 90.000000
_cell_angle_gamma 90.000000
_cell_volume 7652.493867
_symmetry_space_group_name_H-M "C M M M"
_symmetry_group_IT_number 65
_symmetry_cell_setting 'orthorhombic'
loop_
_space_group_symop_operation_xyz
x,y,z
-x,-y,z
x,-y,-z
-x,y,-z
-x,-y,-z
x,y,-z
-x,y,z
x,-y,z
1/2+x,1/2+y,z
1/2-x,1/2-y,z
1/2+x,1/2-y,-z
1/2-x,1/2+y,-z
1/2-x,1/2-y,-z
1/2+x,1/2+y,-z
1/2-x,1/2+y,z
1/2+x,1/2-y,z
loop_
_atom_site_type_symbol
_atom_site_label
_atom_site_fract_x
_atom_site_fract_y
_atom_site_fract_z
Si Si1 0.587679 0.188338 0.815671
Si Si2 0.728423 0.428781 0.662522
Si Si3 0.418690 0.409163 0.738299
Si Si4 0.917558 0.768527 0.689468
Si Si5 0.305588 0.073580 0.193898
Si Si6 0.085835 0.202118 0.076270
Si Si7 0.847690 0.070785 0.880035
Si Si8 0.194755 0.191246 0.423666
O O1 0.500000 0.179628 0.819177
O O2 0.606418 0.213343 0.740388
O O3 0.633418 0.124234 0.826035
O O4 0.607385 0.243871 0.869468
O O5 0.747338 0.500000 0.637521
O O6 0.644934 0.430432 0.688499
O O7 0.775654 0.415350 0.729795
O O8 0.731266 0.371550 0.609303
O O9 0.500000 0.428833 0.719882
O O10 0.417519 0.332320 0.735238
O O11 0.396995 0.430186 0.812639
O O12 0.868571 0.785259 0.626047
O O13 0.000000 0.755890 0.668132
O O14 0.234717 0.078722 0.146340
O O15 0.331018 0.000000 0.190804
O O16 0.127398 0.134760 0.082586
O O17 0.000000 0.189165 0.087210
O O18 0.094859 0.226726 0.000000
O O19 0.854418 0.000000 0.912363
O O20 0.170242 0.177488 0.500000
O O21 0.250000 0.250000 0.425616
#
# Coordination Sequence:
#
# PCOD9485493 Si02
#       8
#    16  16  16  16  16  16  16  16
#     4  10  19  34  56  77  98 129 170 215 262 310
#     4   9  18  31  47  70  98 128 163 203 247 291
#     4   9  15  26  44  68  97 125 158 198 234 277
#     4   9  17  30  49  71  95 126 166 206 245 291
#     4   9  19  34  52  77 103 127 164 213 260 307
#     4  10  21  36  52  75 106 135 170 213 253 298
#     4  10  19  31  47  70 102 136 167 200 245 297
#     4  10  20  32  47  70  99 130 165 201 243 299
#
# _framework density 16.726573999999999
#
# number of rings (size 3 to 8) (size 9 to 14) (size 15 to 20)
#    0.000    2.500    1.250    2.250    0.000    3.250 
#    0.000    1.875    0.000    1.125    0.000    5.250 
#    0.000    0.000    0.000   23.250    0.000    0.000 
#
# Total GULP energy -356498.233211 kJ/mol
# GULP energy per Si atom -5570.284894 kJ/mol
# Density = 1.668850 g / cm^3
# Si number density = 16.726574 Si / 1000 Ang^3
#
#
#
# Elastic Constant Matrix: (Units=GPa)
#
#
# Indices 1 2 3 4 5 6 
#
# 1 43.4533 48.9479 25.1814 0.0000 0.0000 0.0000
# 2 48.9479 117.8588 45.2852 0.0000 0.0000 0.0000
# 3 25.1814 45.2852 78.3331 0.0000 0.0000 0.0000
# 4 0.0000 0.0000 0.0000 1.8322 0.0000 0.0000
# 5 0.0000 0.0000 0.0000 0.0000 13.6891 0.0000
# 6 0.0000 0.0000 0.0000 0.0000 0.0000 24.2439
#
#
#
# Elastic Compliance Matrix: (Units=1/GPa)
#
#
# Indices 1 2 3 4 5 6 
#
# 1 0.044528 -0.016703 -0.004658 0.000000 0.000000 0.000000
# 2 -0.016703 0.017173 -0.004559 0.000000 0.000000 0.000000
# 3 -0.004658 -0.004559 0.016899 0.000000 0.000000 0.000000
# 4 0.000000 0.000000 0.000000 0.545801 0.000000 0.000000
# 5 0.000000 0.000000 0.000000 0.000000 0.073051 0.000000
# 6 0.000000 0.000000 0.000000 0.000000 0.000000 0.041247
#
#
# Mechanical properties :
#
#
# Convention : Reuss Voigt Hill
#
# Bulk Modulus (GPa) = 37.36850 53.16380 45.26615
# Shear Modulus (GPa) = 6.25424 15.96844 11.11134
#
# Velocity S-wave (km/s) = 1.93577 3.09313 2.58018
# Velocity P-wave (km/s) = 5.23312 6.67905 5.99980
#
# Compressibility (1/GPa) = 0.02676051
#
# Stress axis : x y z
#
# Youngs Moduli (GPa) = 22.45802 58.23034 59.17617
#
# Poissons Ratio (x) = 0.97262 0.27564
# Poissons Ratio (y) = 0.37512 0.26976
# Poissons Ratio (z) = 0.10461 0.26545
#
# Static dielectric constant tensor:
#      x y z
#    x 1.554780 0.000000 0.000000 
#    y 0.000000 1.588250 0.000000 
#    z 0.000000 0.000000 1.559910 
# 
# From -- ./inp_files/64143.got.cif
#   From: 2010.05.17/outbox.cif.g08.bks.cpg/sg65_33_cif.got.tgz:64143.got - 2010.06.03 17:01:31.
