data_PCOD9485019
_publ_section_title
;
Structure prediction by ZEFSAII (Michael W. Deem and Ramdas Pophale) SiO2 
 PCOD9485019
Probable space group: C M M M
;
_chemical_formula_sum "Si O2"
_cell_formula_units_Z 104
_cell_length_a 7.490047
_cell_length_b 18.681540
_cell_length_c 35.522973
_cell_angle_alpha 90.000000
_cell_angle_beta 90.000000
_cell_angle_gamma 90.000000
_cell_volume 4970.573760
_symmetry_space_group_name_H-M "C M M M"
_symmetry_group_IT_number 65
_symmetry_cell_setting 'orthorhombic'
loop_
_space_group_symop_operation_xyz
x,y,z
-x,-y,z
x,-y,-z
-x,y,-z
-x,-y,-z
x,y,-z
-x,y,z
x,-y,z
1/2+x,1/2+y,z
1/2-x,1/2-y,z
1/2+x,1/2-y,-z
1/2-x,1/2+y,-z
1/2-x,1/2-y,-z
1/2+x,1/2+y,-z
1/2-x,1/2+y,z
1/2+x,1/2-y,z
loop_
_atom_site_type_symbol
_atom_site_label
_atom_site_fract_x
_atom_site_fract_y
_atom_site_fract_z
Si Si1 0.218547 0.082918 0.000000
Si Si2 0.782262 0.416185 0.311216
Si Si3 0.786145 0.333773 0.615157
Si Si4 0.713981 0.665876 0.925564
Si Si5 0.785883 0.582689 0.229348
Si Si6 0.712400 0.418106 0.852916
Si Si7 0.717614 0.083200 0.541829
O O1 0.279052 0.124252 0.962573
O O2 0.000000 0.083598 0.000000
O O3 0.272759 0.000000 0.000000
O O4 0.733248 0.500000 0.314482
O O5 0.717786 0.371986 0.347026
O O6 0.724446 0.388337 0.269879
O O7 0.000000 0.414170 0.311586
O O8 0.750000 0.250000 0.615743
O O9 0.718329 0.370047 0.576778
O O10 0.000000 0.344119 0.615080
O O11 0.500000 0.657765 0.925489
O O12 0.750000 0.750000 0.927271
O O13 0.782730 0.629431 0.887179
O O14 0.721999 0.500000 0.228057
O O15 0.739464 0.614225 0.188783
O O16 0.000000 0.581232 0.230805
O O17 0.500000 0.423609 0.857807
O O18 0.784110 0.500000 0.853877
O O19 0.775528 0.106590 0.500000
O O20 0.500000 0.085223 0.541750
O O21 0.767527 0.000000 0.546861
#
# Coordination Sequence:
#
# PCOD9485019 Si02
#       7
#     8  16  16  16  16  16  16
#     4   9  17  32  55  77  94 119 158 196 228 267
#     4   8  14  27  48  69  86 112 155 197 227 262
#     4  10  19  30  45  66  93 122 149 182 226 272
#     4  10  20  33  50  72  98 127 156 188 227 271
#     4   8  14  26  46  70  91 113 148 194 236 269
#     4   9  17  30  48  70  95 122 154 190 227 270
#     4   8  14  26  46  70  90 111 148 193 226 257
#
# _framework density 20.923138000000002
#
# number of rings (size 3 to 8) (size 9 to 14) (size 15 to 20)
#    0.000    3.154    0.000    2.538    0.000    4.615 
#    0.000    1.538    0.000    8.308    0.000    1.077 
#    0.000    0.000    0.000    0.000    0.000    0.000 
#
# Total GULP energy -289969.072929 kJ/mol
# GULP energy per Si atom -5576.328326 kJ/mol
# Density = 2.087552 g / cm^3
# Si number density = 20.923138 Si / 1000 Ang^3
#
#
#
# Elastic Constant Matrix: (Units=GPa)
#
#
# Indices 1 2 3 4 5 6 
#
# 1 56.5338 -1.4138 9.6508 0.0000 0.0000 0.0000
# 2 -1.4138 112.9603 125.1179 0.0000 0.0000 0.0000
# 3 9.6508 125.1179 279.7911 0.0000 0.0000 0.0000
# 4 0.0000 0.0000 0.0000 -5.4169 0.0000 0.0000
# 5 0.0000 0.0000 0.0000 0.0000 10.8376 0.0000
# 6 0.0000 0.0000 0.0000 0.0000 0.0000 17.9902
#
#
#
# Elastic Compliance Matrix: (Units=1/GPa)
#
#
# Indices 1 2 3 4 5 6 
#
# 1 0.017977 0.001807 -0.001428 0.000000 0.000000 0.000000
# 2 0.001807 0.017722 -0.007988 0.000000 0.000000 0.000000
# 3 -0.001428 -0.007988 0.007195 0.000000 0.000000 0.000000
# 4 0.000000 0.000000 0.000000 -0.184608 0.000000 0.000000
# 5 0.000000 0.000000 0.000000 0.000000 0.092271 0.000000
# 6 0.000000 0.000000 0.000000 0.000000 0.000000 0.055586
#
#
# Mechanical properties :
#
#
# Convention : Reuss Voigt Hill
#
# Bulk Modulus (GPa) = 36.13035 79.55500 57.84267
# Shear Modulus (GPa) = 163.46148 25.74420 94.60284
#
# Velocity S-wave (km/s) = 8.84841 3.51154 6.73146
# Velocity P-wave (km/s) = 11.03169 7.38554 9.38734
#
# Compressibility (1/GPa) = 0.02767756
#
# Stress axis : x y z
#
# Youngs Moduli (GPa) = 55.62513 56.42559 138.98098
#
# Poissons Ratio (x) = -0.10195 0.19847
# Poissons Ratio (y) = -0.10050 1.11011
# Poissons Ratio (z) = 0.07944 0.45070
#
# Static dielectric constant tensor:
#      x y z
#    x 1.827780 0.000000 0.000000 
#    y 0.000000 1.688750 0.000000 
#    z 0.000000 0.000000 1.782370 
# 
# From -- ./inp_files/77436.got.cif
#   From: 2010.05.17/outbox.cif.g08.bks.cpg/sg65_39_cif.got.tgz:77436.got - 2010.06.03 17:01:31.
