data_PCOD9485588
_publ_section_title
;
Structure prediction by ZEFSAII (Michael W. Deem and Ramdas Pophale) SiO2 
 PCOD9485588
Probable space group: C M M M
;
_chemical_formula_sum "Si O2"
_cell_formula_units_Z 96
_cell_length_a 21.275403
_cell_length_b 19.695208
_cell_length_c 14.268556
_cell_angle_alpha 90.000000
_cell_angle_beta 90.000000
_cell_angle_gamma 90.000000
_cell_volume 5978.860095
_symmetry_space_group_name_H-M "C M M M"
_symmetry_group_IT_number 65
_symmetry_cell_setting 'orthorhombic'
loop_
_space_group_symop_operation_xyz
x,y,z
-x,-y,z
x,-y,-z
-x,y,-z
-x,-y,-z
x,y,-z
-x,y,z
x,-y,z
1/2+x,1/2+y,z
1/2-x,1/2-y,z
1/2+x,1/2-y,-z
1/2-x,1/2+y,-z
1/2-x,1/2-y,-z
1/2+x,1/2+y,-z
1/2-x,1/2+y,z
1/2+x,1/2-y,z
loop_
_atom_site_type_symbol
_atom_site_label
_atom_site_fract_x
_atom_site_fract_y
_atom_site_fract_z
Si Si1 0.754214 0.578945 0.297880
Si Si2 0.805820 0.918961 0.895823
Si Si3 0.571065 0.669688 0.105069
Si Si4 0.384198 0.422733 0.387794
Si Si5 0.311239 0.205056 0.388085
Si Si6 0.429422 0.283578 0.693860
O O1 0.773918 0.500000 0.299038
O O2 0.737433 0.600476 0.191573
O O3 0.688419 0.583087 0.355242
O O4 0.802067 0.631306 0.343143
O O5 0.874095 0.885379 0.885540
O O6 0.812814 0.000000 0.890676
O O7 0.781745 0.901203 0.000000
O O8 0.500000 0.641099 0.111670
O O9 0.577829 0.718995 0.193535
O O10 0.577037 0.699554 0.000000
O O11 0.388283 0.413980 0.500000
O O12 0.404832 0.500000 0.364882
O O13 0.420920 0.362381 0.336983
O O14 0.311353 0.199958 0.500000
O O15 0.250000 0.250000 0.360900
O O16 0.374127 0.241971 0.354361
O O17 0.500000 0.261767 0.668447
#
# Coordination Sequence:
#
# PCOD9485588 Si02
#       6
#    16  16  16  16  16  16
#     4  10  19  33  52  74 100 130 166 210 255 298
#     4   9  16  27  45  70 100 131 164 205 250 295
#     4   9  17  29  45  66  96 135 172 201 236 292
#     4  10  19  31  48  71  99 132 167 200 241 297
#     4  11  21  34  53  75  99 132 173 212 250 302
#     4  11  22  35  51  73 104 136 167 209 257 300
#
# _framework density 16.056573
#
# number of rings (size 3 to 8) (size 9 to 14) (size 15 to 20)
#    0.000    2.000    3.333    1.000    0.000    3.000 
#    0.000    5.000    0.000    3.500    0.000    1.167 
#    0.000    0.000    0.000    8.333    0.000    0.000 
#
# Total GULP energy -267565.438176 kJ/mol
# GULP energy per Si atom -5574.279962 kJ/mol
# Density = 1.602003 g / cm^3
# Si number density = 16.056573 Si / 1000 Ang^3
#
#
#
# Elastic Constant Matrix: (Units=GPa)
#
#
# Indices 1 2 3 4 5 6 
#
# 1 78.8933 43.3979 36.9173 0.0000 0.0000 0.0000
# 2 43.3979 63.4720 38.5547 0.0000 0.0000 0.0000
# 3 36.9173 38.5547 92.1998 0.0000 0.0000 0.0000
# 4 0.0000 0.0000 0.0000 18.8498 0.0000 0.0000
# 5 0.0000 0.0000 0.0000 0.0000 18.6925 0.0000
# 6 0.0000 0.0000 0.0000 0.0000 0.0000 18.0576
#
#
#
# Elastic Compliance Matrix: (Units=1/GPa)
#
#
# Indices 1 2 3 4 5 6 
#
# 1 0.021008 -0.012405 -0.003224 0.000000 0.000000 0.000000
# 2 -0.012405 0.028445 -0.006927 0.000000 0.000000 0.000000
# 3 -0.003224 -0.006927 0.015034 0.000000 0.000000 0.000000
# 4 0.000000 0.000000 0.000000 0.053051 0.000000 0.000000
# 5 0.000000 0.000000 0.000000 0.000000 0.053497 0.000000
# 6 0.000000 0.000000 0.000000 0.000000 0.000000 0.055378
#
#
# Mechanical properties :
#
#
# Convention : Reuss Voigt Hill
#
# Bulk Modulus (GPa) = 51.61931 52.47830 52.04880
# Shear Modulus (GPa) = 17.98656 18.83300 18.40978
#
# Velocity S-wave (km/s) = 3.35057 3.42850 3.38976
# Velocity P-wave (km/s) = 6.86925 6.95896 6.91425
#
# Compressibility (1/GPa) = 0.01937259
#
# Stress axis : x y z
#
# Youngs Moduli (GPa) = 47.60061 35.15570 66.51665
#
# Poissons Ratio (x) = 0.43612 0.21447
# Poissons Ratio (y) = 0.59051 0.46079
# Poissons Ratio (z) = 0.15348 0.24354
#
# Static dielectric constant tensor:
#      x y z
#    x 1.516450 0.000000 0.000000 
#    y 0.000000 1.526870 0.000000 
#    z 0.000000 0.000000 1.584230 
# 
# From -- ./inp_files/44096.got.cif
#   From: 2010.05.17/outbox.cif.g08.bks.cpg/sg65_23_cif.got.tgz:44096.got - 2010.06.03 17:01:31.
