data_PCOD9485315
_publ_section_title
;
Structure prediction by ZEFSAII (Michael W. Deem and Ramdas Pophale) SiO2 
 PCOD9485315
Probable space group: C M M M
;
_chemical_formula_sum "Si O2"
_cell_formula_units_Z 88
_cell_length_a 15.058268
_cell_length_b 9.936843
_cell_length_c 25.933789
_cell_angle_alpha 90.000000
_cell_angle_beta 90.000000
_cell_angle_gamma 90.000000
_cell_volume 3880.515508
_symmetry_space_group_name_H-M "C M M M"
_symmetry_group_IT_number 65
_symmetry_cell_setting 'orthorhombic'
loop_
_space_group_symop_operation_xyz
x,y,z
-x,-y,z
x,-y,-z
-x,y,-z
-x,-y,-z
x,y,-z
-x,y,z
x,-y,z
1/2+x,1/2+y,z
1/2-x,1/2-y,z
1/2+x,1/2-y,-z
1/2-x,1/2+y,-z
1/2-x,1/2-y,-z
1/2+x,1/2+y,-z
1/2-x,1/2+y,z
1/2+x,1/2-y,z
loop_
_atom_site_type_symbol
_atom_site_label
_atom_site_fract_x
_atom_site_fract_y
_atom_site_fract_z
Si Si1 0.101886 0.000000 0.722258
Si Si2 0.160923 0.160694 0.906134
Si Si3 0.108833 0.500000 0.752330
Si Si4 0.632371 0.500000 0.396156
Si Si5 0.357213 0.772928 0.442981
Si Si6 0.605190 0.276140 0.793668
Si Si7 0.848027 0.329331 0.000000
Si Si8 0.842143 0.500000 0.367295
O O1 0.098159 0.000000 0.661648
O O2 0.143265 0.869773 0.748527
O O3 0.000000 0.000000 0.740595
O O4 0.250000 0.250000 0.897772
O O5 0.117802 0.163315 0.850004
O O6 0.112390 0.255776 0.949107
O O7 0.172772 0.000000 0.921298
O O8 0.141217 0.628013 0.784489
O O9 0.143598 0.500000 0.693578
O O10 0.000000 0.500000 0.748413
O O11 0.606180 0.371368 0.428612
O O12 0.738626 0.500000 0.384126
O O13 0.382412 0.821261 0.500000
O O14 0.250000 0.750000 0.443857
O O15 0.380986 0.871224 0.396513
O O16 0.500000 0.261176 0.786180
O O17 0.750000 0.250000 0.000000
O O18 0.847134 0.500000 0.000000
#
# Coordination Sequence:
#
# PCOD9485315 Si02
#       8
#     8  16   8   8  16  16   8   8
#     4  10  20  37  55  76 105 144 185 223 278 335
#     4  11  22  37  61  89 120 152 190 236 282 332
#     4  10  22  37  55  78 109 146 183 231 288 341
#     4  10  19  30  52  78 103 135 174 227 271 323
#     4   9  17  30  49  75 104 135 172 218 272 330
#     4  10  22  39  59  80 109 151 194 233 280 340
#     4  10  20  36  59  86 123 157 190 228 280 341
#     4  10  19  32  52  76 103 135 180 221 273 331
#
# _framework density 22.677399999999999
#
# number of rings (size 3 to 8) (size 9 to 14) (size 15 to 20)
#    0.000    2.000    0.909    4.091    2.545    3.636 
#    0.000    0.455    0.000    4.909    0.000    0.000 
#    0.000    0.000    0.000    0.000    0.000    0.000 
#
# Total GULP energy -245057.047898 kJ/mol
# GULP energy per Si atom -5569.478361 kJ/mol
# Density = 2.262579 g / cm^3
# Si number density = 22.677400 Si / 1000 Ang^3
#
#
#
# Elastic Constant Matrix: (Units=GPa)
#
#
# Indices 1 2 3 4 5 6 
#
# 1 38.9452 6.9548 -14.3214 0.0000 0.0000 0.0000
# 2 6.9548 201.1963 43.4255 0.0000 0.0000 0.0000
# 3 -14.3214 43.4255 116.9877 0.0000 0.0000 0.0000
# 4 0.0000 0.0000 0.0000 43.6943 0.0000 0.0000
# 5 0.0000 0.0000 0.0000 0.0000 57.9974 0.0000
# 6 0.0000 0.0000 0.0000 0.0000 0.0000 -12.1575
#
#
#
# Elastic Compliance Matrix: (Units=1/GPa)
#
#
# Indices 1 2 3 4 5 6 
#
# 1 0.027489 -0.001823 0.004042 0.000000 0.000000 0.000000
# 2 -0.001823 0.005524 -0.002274 0.000000 0.000000 0.000000
# 3 0.004042 -0.002274 0.009887 0.000000 0.000000 0.000000
# 4 0.000000 0.000000 0.000000 0.022886 0.000000 0.000000
# 5 0.000000 0.000000 0.000000 0.000000 0.017242 0.000000
# 6 0.000000 0.000000 0.000000 0.000000 0.000000 -0.082254
#
#
# Mechanical properties :
#
#
# Convention : Reuss Voigt Hill
#
# Bulk Modulus (GPa) = 23.36970 47.69412 35.53191
# Shear Modulus (GPa) = 330.10540 39.31153 184.70846
#
# Velocity S-wave (km/s) = 12.07815 4.16806 9.03478
# Velocity P-wave (km/s) = 14.31212 6.65138 11.15970
#
# Compressibility (1/GPa) = 0.04279044
#
# Stress axis : x y z
#
# Youngs Moduli (GPa) = 36.37841 181.02827 101.14667
#
# Poissons Ratio (x) = 0.32993 -0.40880
# Poissons Ratio (y) = 0.06630 0.22997
# Poissons Ratio (z) = -0.14703 0.41159
#
# Static dielectric constant tensor:
#      x y z
#    x 1.943200 0.000000 0.000000 
#    y 0.000000 1.968960 0.000000 
#    z 0.000000 0.000000 1.816530 
# 
# From -- ./inp_files/71122.got.cif
#   From: 2010.05.17/outbox.cif.g08.bks.cpg/sg65_36_cif.got.tgz:71122.got - 2010.06.03 17:01:31.
