data_PCOD9485332
_publ_section_title
;
Structure prediction by ZEFSAII (Michael W. Deem and Ramdas Pophale) SiO2 
 PCOD9485332
Probable space group: C M M M
;
_chemical_formula_sum "Si O2"
_cell_formula_units_Z 72
_cell_length_a 22.795470
_cell_length_b 13.845006
_cell_length_c 13.241897
_cell_angle_alpha 90.000000
_cell_angle_beta 90.000000
_cell_angle_gamma 90.000000
_cell_volume 4179.187966
_symmetry_space_group_name_H-M "C M M M"
_symmetry_group_IT_number 65
_symmetry_cell_setting 'orthorhombic'
loop_
_space_group_symop_operation_xyz
x,y,z
-x,-y,z
x,-y,-z
-x,y,-z
-x,-y,-z
x,y,-z
-x,y,z
x,-y,z
1/2+x,1/2+y,z
1/2-x,1/2-y,z
1/2+x,1/2-y,-z
1/2-x,1/2+y,-z
1/2-x,1/2-y,-z
1/2+x,1/2+y,-z
1/2-x,1/2+y,z
1/2+x,1/2-y,z
loop_
_atom_site_type_symbol
_atom_site_label
_atom_site_fract_x
_atom_site_fract_y
_atom_site_fract_z
Si Si1 0.569568 0.309280 0.247262
Si Si2 0.729384 0.389316 0.182075
Si Si3 0.070326 0.000000 0.114027
Si Si4 0.656305 0.792328 0.884377
Si Si5 0.163919 0.885277 0.613519
O O1 0.500000 0.300616 0.260781
O O2 0.582748 0.404685 0.178924
O O3 0.599568 0.222778 0.185188
O O4 0.606548 0.328109 0.348572
O O5 0.714129 0.500000 0.157480
O O6 0.692219 0.309404 0.121935
O O7 0.797159 0.368772 0.158772
O O8 0.712692 0.371174 0.299518
O O9 0.000000 0.000000 0.103611
O O10 0.094881 0.000000 0.000000
O O11 0.641466 0.812579 0.000000
O O12 0.181492 0.858551 0.500000
O O13 0.150318 0.000000 0.613899
#
# Coordination Sequence:
#
# PCOD9485332 Si02
#       5
#    16  16   8  16  16
#     4  10  19  31  44  66  97 126 161 198 231 281
#     4   9  18  33  49  68  95 123 158 202 241 286
#     4   9  16  26  41  61  87 121 154 184 224 273
#     4  10  20  31  47  72  96 126 162 195 243 293
#     4   9  17  30  49  71  95 125 159 197 245 295
#
# _framework density 17.228225999999999
#
# number of rings (size 3 to 8) (size 9 to 14) (size 15 to 20)
#    0.000    2.556    1.111    2.000    1.556    3.556 
#    0.000   10.000    0.000    0.667    0.000    1.556 
#    0.000    0.000    0.000   23.556    0.000    0.000 
#
# Total GULP energy -200624.570122 kJ/mol
# GULP energy per Si atom -5572.904726 kJ/mol
# Density = 1.718901 g / cm^3
# Si number density = 17.228226 Si / 1000 Ang^3
#
#
#
# Elastic Constant Matrix: (Units=GPa)
#
#
# Indices 1 2 3 4 5 6 
#
# 1 40.5959 9.5682 6.2850 0.0000 0.0000 0.0000
# 2 9.5682 26.7487 2.7636 0.0000 0.0000 0.0000
# 3 6.2850 2.7636 98.4867 0.0000 0.0000 0.0000
# 4 0.0000 0.0000 0.0000 11.7170 0.0000 0.0000
# 5 0.0000 0.0000 0.0000 0.0000 15.8162 0.0000
# 6 0.0000 0.0000 0.0000 0.0000 0.0000 22.9846
#
#
#
# Elastic Compliance Matrix: (Units=1/GPa)
#
#
# Indices 1 2 3 4 5 6 
#
# 1 0.027109 -0.009546 -0.001462 0.000000 0.000000 0.000000
# 2 -0.009546 0.040855 -0.000537 0.000000 0.000000 0.000000
# 3 -0.001462 -0.000537 0.010262 0.000000 0.000000 0.000000
# 4 0.000000 0.000000 0.000000 0.085346 0.000000 0.000000
# 5 0.000000 0.000000 0.000000 0.000000 0.063226 0.000000
# 6 0.000000 0.000000 0.000000 0.000000 0.000000 0.043507
#
#
# Mechanical properties :
#
#
# Convention : Reuss Voigt Hill
#
# Bulk Modulus (GPa) = 18.13711 22.56277 20.34994
# Shear Modulus (GPa) = 16.03716 19.91786 17.97751
#
# Velocity S-wave (km/s) = 3.05432 3.40386 3.23382
# Velocity P-wave (km/s) = 4.79467 5.34539 5.07750
#
# Compressibility (1/GPa) = 0.05513559
#
# Stress axis : x y z
#
# Youngs Moduli (GPa) = 36.88766 24.47673 97.44654
#
# Poissons Ratio (x) = 0.23366 0.14248
# Poissons Ratio (y) = 0.35213 0.05235
# Poissons Ratio (z) = 0.05393 0.01315
#
# Static dielectric constant tensor:
#      x y z
#    x 1.604670 0.000000 0.000000 
#    y 0.000000 1.597900 0.000000 
#    z 0.000000 0.000000 1.599040 
# 
# From -- ./inp_files/24503.got.cif
#   From: 2010.05.17/outbox.cif.g08.bks.cpg/sg65_13_cif.got.tgz:24503.got - 2010.06.03 17:01:31.
