data_PCOD9485767
_publ_section_title
;
Structure prediction by ZEFSAII (Michael W. Deem and Ramdas Pophale) SiO2 
 PCOD9485767
Probable space group: C M M M
;
_chemical_formula_sum "Si O2"
_cell_formula_units_Z 88
_cell_length_a 7.973690
_cell_length_b 27.241628
_cell_length_c 23.201940
_cell_angle_alpha 90.000000
_cell_angle_beta 90.000000
_cell_angle_gamma 90.000000
_cell_volume 5039.839485
_symmetry_space_group_name_H-M "C M M M"
_symmetry_group_IT_number 65
_symmetry_cell_setting 'orthorhombic'
loop_
_space_group_symop_operation_xyz
x,y,z
-x,-y,z
x,-y,-z
-x,y,-z
-x,-y,-z
x,y,-z
-x,y,z
x,-y,z
1/2+x,1/2+y,z
1/2-x,1/2-y,z
1/2+x,1/2-y,-z
1/2-x,1/2+y,-z
1/2-x,1/2-y,-z
1/2+x,1/2+y,-z
1/2-x,1/2+y,z
1/2+x,1/2-y,z
loop_
_atom_site_type_symbol
_atom_site_label
_atom_site_fract_x
_atom_site_fract_y
_atom_site_fract_z
Si Si1 0.804519 0.906156 0.734284
Si Si2 0.314449 0.059178 0.143023
Si Si3 0.795295 0.657512 0.437060
Si Si4 0.500000 0.440152 0.066299
Si Si5 0.200819 0.696009 0.685240
Si Si6 0.798998 0.446056 0.610788
O O1 0.712816 0.921169 0.792580
O O2 0.778976 0.848662 0.720790
O O3 0.737955 0.934350 0.677719
O O4 0.000000 0.917694 0.741088
O O5 0.500000 0.072890 0.122086
O O6 0.165214 0.075678 0.101166
O O7 0.306176 0.000000 0.146015
O O8 0.737842 0.674221 0.500000
O O9 0.742441 0.688454 0.381391
O O10 0.739724 0.601271 0.424954
O O11 0.000000 0.657733 0.437284
O O12 0.500000 0.500000 0.065898
O O13 0.500000 0.424040 0.000000
O O14 0.250000 0.750000 0.705043
O O15 0.000000 0.690140 0.687042
O O16 0.732633 0.500000 0.595217
O O17 0.000000 0.447227 0.603662
#
# Coordination Sequence:
#
# PCOD9485767 Si02
#       6
#    16  16  16   8  16  16
#     4  11  20  31  48  69  95 127 162 205 250 301
#     4  10  19  31  49  74 105 142 179 214 250 289
#     4   8  15  28  45  65  89 118 155 196 241 300
#     4   9  18  32  48  72 108 146 183 215 243 283
#     4  10  20  34  50  69  92 119 151 196 256 310
#     4   9  17  28  43  65  92 122 157 198 247 297
#
# _framework density 17.460872999999999
#
# number of rings (size 3 to 8) (size 9 to 14) (size 15 to 20)
#    0.000    2.455    0.909    3.818    0.000    3.636 
#    0.000    3.636    0.000   13.091    0.000    5.091 
#    0.000    0.727    0.364    0.000    0.000    0.000 
#
# Total GULP energy -245435.180713 kJ/mol
# GULP energy per Si atom -5578.072289 kJ/mol
# Density = 1.742113 g / cm^3
# Si number density = 17.460873 Si / 1000 Ang^3
#
#
#
# Elastic Constant Matrix: (Units=GPa)
#
#
# Indices 1 2 3 4 5 6 
#
# 1 59.3377 -5.1718 22.4932 0.0000 0.0000 0.0000
# 2 -5.1718 30.0849 -21.5054 0.0000 0.0000 0.0000
# 3 22.4932 -21.5054 68.8892 0.0000 0.0000 0.0000
# 4 0.0000 0.0000 0.0000 4.9868 0.0000 0.0000
# 5 0.0000 0.0000 0.0000 0.0000 16.5504 0.0000
# 6 0.0000 0.0000 0.0000 0.0000 0.0000 15.6473
#
#
#
# Elastic Compliance Matrix: (Units=1/GPa)
#
#
# Indices 1 2 3 4 5 6 
#
# 1 0.019288 -0.001527 -0.006774 0.000000 0.000000 0.000000
# 2 -0.001527 0.042908 0.013893 0.000000 0.000000 0.000000
# 3 -0.006774 0.013893 0.021065 0.000000 0.000000 0.000000
# 4 0.000000 0.000000 0.000000 0.200530 0.000000 0.000000
# 5 0.000000 0.000000 0.000000 0.000000 0.060421 0.000000
# 6 0.000000 0.000000 0.000000 0.000000 0.000000 0.063909
#
#
# Mechanical properties :
#
#
# Convention : Reuss Voigt Hill
#
# Bulk Modulus (GPa) = 10.58815 16.66042 13.62429
# Shear Modulus (GPa) = 11.67084 18.26995 14.97040
#
# Velocity S-wave (km/s) = 2.58815 3.23822 2.93126
# Velocity P-wave (km/s) = 3.87407 4.85219 4.39045
#
# Compressibility (1/GPa) = 0.09444522
#
# Stress axis : x y z
#
# Youngs Moduli (GPa) = 51.84694 23.30566 47.47200
#
# Poissons Ratio (x) = 0.03558 0.32159
# Poissons Ratio (y) = 0.07916 -0.65954
# Poissons Ratio (z) = 0.35122 -0.32379
#
# Static dielectric constant tensor:
#      x y z
#    x 1.628850 0.000000 0.000000 
#    y 0.000000 1.590180 0.000000 
#    z 0.000000 0.000000 1.572660 
# 
# From -- ./inp_files/60248.got.cif
#   From: 2010.05.17/outbox.cif.g08.bks.cpg/sg65_31_cif.got.tgz:60248.got - 2010.06.03 17:01:31.
