data_PCOD9485888
_publ_section_title
;
Structure prediction by ZEFSAII (Michael W. Deem and Ramdas Pophale) SiO2 
 PCOD9485888
Probable space group: C M M M
;
_chemical_formula_sum "Si O2"
_cell_formula_units_Z 96
_cell_length_a 29.030154
_cell_length_b 14.980125
_cell_length_c 12.099096
_cell_angle_alpha 90.000000
_cell_angle_beta 90.000000
_cell_angle_gamma 90.000000
_cell_volume 5261.598435
_symmetry_space_group_name_H-M "C M M M"
_symmetry_group_IT_number 65
_symmetry_cell_setting 'orthorhombic'
loop_
_space_group_symop_operation_xyz
x,y,z
-x,-y,z
x,-y,-z
-x,y,-z
-x,-y,-z
x,y,-z
-x,y,z
x,-y,z
1/2+x,1/2+y,z
1/2-x,1/2-y,z
1/2+x,1/2-y,-z
1/2-x,1/2+y,-z
1/2-x,1/2-y,-z
1/2+x,1/2+y,-z
1/2-x,1/2+y,z
1/2+x,1/2-y,z
loop_
_atom_site_type_symbol
_atom_site_label
_atom_site_fract_x
_atom_site_fract_y
_atom_site_fract_z
Si Si1 0.749871 0.606946 0.500000
Si Si2 0.393854 0.891543 0.738025
Si Si3 0.276080 0.343296 0.742665
Si Si4 0.143659 0.608034 0.500000
Si Si5 0.446605 0.749905 0.870774
Si Si6 0.806778 0.601946 0.121401
Si Si7 0.132342 0.893953 0.130999
O O1 0.751559 0.500000 0.500000
O O2 0.725579 0.636272 0.612757
O O3 0.803204 0.640464 0.500000
O O4 0.383117 0.867642 0.611162
O O5 0.433723 0.833727 0.793648
O O6 0.347943 0.861063 0.804692
O O7 0.400257 0.000000 0.744429
O O8 0.250000 0.250000 0.758585
O O9 0.240554 0.402648 0.812465
O O10 0.325750 0.356460 0.795793
O O11 0.146973 0.500000 0.500000
O O12 0.500000 0.725262 0.857102
O O13 0.412734 0.666510 0.848379
O O14 0.439430 0.775513 0.000000
O O15 0.821232 0.500000 0.106288
O O16 0.802060 0.644588 0.000000
O O17 0.125745 0.000000 0.153214
O O18 0.143753 0.885635 0.000000
#
# Coordination Sequence:
#
# PCOD9485888 Si02
#       7
#     8  16  16   8  16  16  16
#     4  11  21  37  55  75 111 158 198 225 260 320
#     4  10  19  34  56  85 119 153 188 228 280 344
#     4  12  23  34  52  82 117 149 186 234 281 334
#     4   9  18  33  56  80 110 157 198 224 258 326
#     4  10  22  40  61  85 111 143 188 242 299 351
#     4  10  19  31  50  76 109 150 186 214 260 332
#     4  10  22  40  60  83 113 151 195 241 287 335
#
# _framework density 18.245407
#
# number of rings (size 3 to 8) (size 9 to 14) (size 15 to 20)
#    0.000    1.667    1.667    3.750    0.000    5.667 
#    0.000    2.917    0.000    1.500    0.000    0.000 
#    0.000    3.333    0.000    0.000    0.000    0.000 
#
# Total GULP energy -267695.485531 kJ/mol
# GULP energy per Si atom -5576.989282 kJ/mol
# Density = 1.820388 g / cm^3
# Si number density = 18.245407 Si / 1000 Ang^3
#
#
#
# Elastic Constant Matrix: (Units=GPa)
#
#
# Indices 1 2 3 4 5 6 
#
# 1 121.6109 49.5517 67.8208 0.0000 0.0000 0.0000
# 2 49.5517 99.0572 51.3826 0.0000 0.0000 0.0000
# 3 67.8208 51.3826 138.1046 0.0000 0.0000 0.0000
# 4 0.0000 0.0000 0.0000 28.8629 0.0000 0.0000
# 5 0.0000 0.0000 0.0000 0.0000 -25.4683 0.0000
# 6 0.0000 0.0000 0.0000 0.0000 0.0000 30.5706
#
#
#
# Elastic Compliance Matrix: (Units=1/GPa)
#
#
# Indices 1 2 3 4 5 6 
#
# 1 0.012360 -0.003760 -0.004671 0.000000 0.000000 0.000000
# 2 -0.003760 0.013653 -0.003233 0.000000 0.000000 0.000000
# 3 -0.004671 -0.003233 0.010738 0.000000 0.000000 0.000000
# 4 0.000000 0.000000 0.000000 0.034647 0.000000 0.000000
# 5 0.000000 0.000000 0.000000 0.000000 -0.039264 0.000000
# 6 0.000000 0.000000 0.000000 0.000000 0.000000 0.032711
#
#
# Mechanical properties :
#
#
# Convention : Reuss Voigt Hill
#
# Bulk Modulus (GPa) = 74.50167 77.36479 75.93323
# Shear Modulus (GPa) = 53.96875 19.46087 36.71481
#
# Velocity S-wave (km/s) = 5.44459 3.26945 4.49071
# Velocity P-wave (km/s) = 8.96920 7.53305 8.28231
#
# Compressibility (1/GPa) = 0.01342252
#
# Stress axis : x y z
#
# Youngs Moduli (GPa) = 80.90729 73.24288 93.13078
#
# Poissons Ratio (x) = 0.27539 0.43499
# Poissons Ratio (y) = 0.30421 0.30112
# Poissons Ratio (z) = 0.37790 0.23681
#
# Static dielectric constant tensor:
#      x y z
#    x 1.603800 0.000000 0.000000 
#    y 0.000000 3.702970 0.000000 
#    z 0.000000 0.000000 1.651820 
# 
# From -- ./inp_files/33887.got.cif
#   From: 2010.05.17/outbox.cif.g08.bks.cpg/sg65_17_cif.got.tgz:33887.got - 2010.06.03 17:01:31.
