data_PCOD9485555
_publ_section_title
;
Structure prediction by ZEFSAII (Michael W. Deem and Ramdas Pophale) SiO2 
 PCOD9485555
Probable space group: C M M M
;
_chemical_formula_sum "Si O2"
_cell_formula_units_Z 112
_cell_length_a 17.860381
_cell_length_b 16.497989
_cell_length_c 23.049260
_cell_angle_alpha 90.000000
_cell_angle_beta 90.000000
_cell_angle_gamma 90.000000
_cell_volume 6791.703463
_symmetry_space_group_name_H-M "C M M M"
_symmetry_group_IT_number 65
_symmetry_cell_setting 'orthorhombic'
loop_
_space_group_symop_operation_xyz
x,y,z
-x,-y,z
x,-y,-z
-x,y,-z
-x,-y,-z
x,y,-z
-x,y,z
x,-y,z
1/2+x,1/2+y,z
1/2-x,1/2-y,z
1/2+x,1/2-y,-z
1/2-x,1/2+y,-z
1/2-x,1/2-y,-z
1/2+x,1/2+y,-z
1/2-x,1/2+y,z
1/2+x,1/2-y,z
loop_
_atom_site_type_symbol
_atom_site_label
_atom_site_fract_x
_atom_site_fract_y
_atom_site_fract_z
Si Si1 0.912687 0.215130 0.066534
Si Si2 0.862618 0.591626 0.615343
Si Si3 0.780844 0.904604 0.936301
Si Si4 0.587560 0.094498 0.250948
Si Si5 0.805117 0.908152 0.430313
Si Si6 0.814972 0.313479 0.842875
Si Si7 0.083625 0.764009 0.569636
O O1 0.862671 0.134444 0.069575
O O2 0.875137 0.271987 0.114364
O O3 0.000000 0.201958 0.077548
O O4 0.905265 0.246318 0.000000
O O5 0.887097 0.500000 0.595939
O O6 0.884003 0.598165 0.682841
O O7 0.774081 0.595814 0.602296
O O8 0.896498 0.671555 0.585654
O O9 0.728818 0.875614 0.884383
O O10 0.785526 0.000000 0.936371
O O11 0.751858 0.876738 0.000000
O O12 0.500000 0.119476 0.248316
O O13 0.641001 0.146534 0.209879
O O14 0.591173 0.000000 0.232977
O O15 0.791423 0.899892 0.500000
O O16 0.858196 0.833934 0.411363
O O17 0.836161 0.000000 0.421612
O O18 0.750000 0.250000 0.824419
O O19 0.083182 0.768880 0.500000
O O20 0.000000 0.782130 0.591415
#
# Coordination Sequence:
#
# PCOD9485555 Si02
#       7
#    16  16  16  16  16  16  16
#     4   9  17  29  46  68  94 123 153 188 230 274
#     4  10  20  34  51  71  96 126 162 203 244 285
#     4   9  17  29  46  68  94 123 153 187 227 273
#     4  10  21  36  52  69  92 123 158 197 238 280
#     4   9  18  33  53  75  99 129 163 198 235 278
#     4  10  19  31  48  70  94 120 154 193 233 278
#     4  10  20  32  49  75 104 132 160 193 236 285
#
# _framework density 16.490708999999999
#
# number of rings (size 3 to 8) (size 9 to 14) (size 15 to 20)
#    0.000    2.429    0.000    2.571    0.000    6.286 
#    0.000    3.571    0.000    0.000    0.000    6.000 
#    0.000    6.857    0.000    0.000    0.000    0.000 
#
# Total GULP energy -311895.957188 kJ/mol
# GULP energy per Si atom -5569.570664 kJ/mol
# Density = 1.645318 g / cm^3
# Si number density = 16.490709 Si / 1000 Ang^3
#
#
#
# Elastic Constant Matrix: (Units=GPa)
#
#
# Indices 1 2 3 4 5 6 
#
# 1 109.2720 49.2217 38.2372 0.0000 0.0000 0.0000
# 2 49.2217 75.9655 24.5786 0.0000 0.0000 0.0000
# 3 38.2372 24.5786 32.4856 0.0000 0.0000 0.0000
# 4 0.0000 0.0000 0.0000 24.2512 0.0000 0.0000
# 5 0.0000 0.0000 0.0000 0.0000 -96.9890 0.0000
# 6 0.0000 0.0000 0.0000 0.0000 0.0000 13.2451
#
#
#
# Elastic Compliance Matrix: (Units=1/GPa)
#
#
# Indices 1 2 3 4 5 6 
#
# 1 0.017517 -0.006196 -0.015931 0.000000 0.000000 0.000000
# 2 -0.006196 0.019622 -0.007554 0.000000 0.000000 0.000000
# 3 -0.015931 -0.007554 0.055249 0.000000 0.000000 0.000000
# 4 0.000000 0.000000 0.000000 0.041235 0.000000 0.000000
# 5 0.000000 0.000000 0.000000 0.000000 -0.010310 0.000000
# 6 0.000000 0.000000 0.000000 0.000000 0.000000 0.075500
#
#
# Mechanical properties :
#
#
# Convention : Reuss Voigt Hill
#
# Bulk Modulus (GPa) = 30.27690 49.08866 39.68278
# Shear Modulus (GPa) = 18.57481 -4.85283 6.86099
#
# Velocity S-wave (km/s) = 3.35980 -1.71731 2.04195
# Velocity P-wave (km/s) = 5.78367 5.08919 5.44751
#
# Compressibility (1/GPa) = 0.03302848
#
# Stress axis : x y z
#
# Youngs Moduli (GPa) = 57.08792 50.96246 18.09987
#
# Poissons Ratio (x) = 0.31575 0.28834
# Poissons Ratio (y) = 0.35370 0.13672
# Poissons Ratio (z) = 0.90944 0.38495
#
# Static dielectric constant tensor:
#      x y z
#    x 1.544750 0.000000 0.000000 
#    y 0.000000 1.562950 0.000000 
#    z 0.000000 0.000000 1.542180 
# 
# From -- ./inp_files/69949.got.cif
#   From: 2010.05.17/outbox.cif.g08.bks.cpg/sg65_35_cif.got.tgz:69949.got - 2010.06.03 17:01:31.
