data_PCOD9485440
_publ_section_title
;
Structure prediction by ZEFSAII (Michael W. Deem and Ramdas Pophale) SiO2 
 PCOD9485440
Probable space group: C M M M
;
_chemical_formula_sum "Si O2"
_cell_formula_units_Z 88
_cell_length_a 26.926653
_cell_length_b 7.680431
_cell_length_c 23.437726
_cell_angle_alpha 90.000000
_cell_angle_beta 90.000000
_cell_angle_gamma 90.000000
_cell_volume 4847.116280
_symmetry_space_group_name_H-M "C M M M"
_symmetry_group_IT_number 65
_symmetry_cell_setting 'orthorhombic'
loop_
_space_group_symop_operation_xyz
x,y,z
-x,-y,z
x,-y,-z
-x,y,-z
-x,-y,-z
x,y,-z
-x,y,z
x,-y,z
1/2+x,1/2+y,z
1/2-x,1/2-y,z
1/2+x,1/2-y,-z
1/2-x,1/2+y,-z
1/2-x,1/2-y,-z
1/2+x,1/2+y,-z
1/2-x,1/2+y,z
1/2+x,1/2-y,z
loop_
_atom_site_type_symbol
_atom_site_label
_atom_site_fract_x
_atom_site_fract_y
_atom_site_fract_z
Si Si1 0.660981 0.212914 0.061941
Si Si2 0.589488 0.701087 0.775469
Si Si3 0.304460 0.207365 0.816307
Si Si4 0.945788 0.297154 0.898767
Si Si5 0.060605 0.500000 0.434459
Si Si6 0.559773 0.299739 0.349211
O O1 0.690901 0.269380 0.117772
O O2 0.603941 0.273392 0.071715
O O3 0.660804 0.000000 0.062343
O O4 0.679232 0.270242 0.000000
O O5 0.573470 0.500000 0.777314
O O6 0.648675 0.713722 0.783768
O O7 0.564857 0.788215 0.830802
O O8 0.574880 0.768596 0.713371
O O9 0.250000 0.250000 0.794051
O O10 0.311535 0.000000 0.815682
O O11 0.947786 0.500000 0.915167
O O12 0.000000 0.219715 0.911288
O O13 0.077044 0.500000 0.500000
O O14 0.076498 0.670337 0.399007
O O15 0.000000 0.500000 0.434890
O O16 0.500000 0.303759 0.350556
O O17 0.577400 0.500000 0.355625
#
# Coordination Sequence:
#
# PCOD9485440 Si02
#       6
#    16  16  16  16   8  16
#     4   8  15  28  44  63  87 115 151 190 231 284
#     4  10  19  31  47  67  92 122 154 195 238 284
#     4  10  20  33  49  68  89 116 146 188 245 294
#     4   9  17  27  42  65  90 119 153 190 236 283
#     4   9  18  30  46  70 102 142 177 205 237 269
#     4   9  18  30  46  71 101 136 173 205 238 279
#
# _framework density 18.155125000000002
#
# number of rings (size 3 to 8) (size 9 to 14) (size 15 to 20)
#    0.000    2.818    0.000    2.727    2.545    2.182 
#    0.000    3.636    0.000   13.091    0.000    5.091 
#    0.000    0.727    0.364    0.000    0.000    0.000 
#
# Total GULP energy -245313.480352 kJ/mol
# GULP energy per Si atom -5575.306372 kJ/mol
# Density = 1.811380 g / cm^3
# Si number density = 18.155125 Si / 1000 Ang^3
#
#
#
# Elastic Constant Matrix: (Units=GPa)
#
#
# Indices 1 2 3 4 5 6 
#
# 1 42.1734 -9.5982 -19.2121 0.0000 0.0000 0.0000
# 2 -9.5982 47.1628 17.9864 0.0000 0.0000 0.0000
# 3 -19.2121 17.9864 79.0703 0.0000 0.0000 0.0000
# 4 0.0000 0.0000 0.0000 -619.4614 0.0000 0.0000
# 5 0.0000 0.0000 0.0000 0.0000 1.5666 0.0000
# 6 0.0000 0.0000 0.0000 0.0000 0.0000 9.7986
#
#
#
# Elastic Compliance Matrix: (Units=1/GPa)
#
#
# Indices 1 2 3 4 5 6 
#
# 1 0.027122 0.003292 0.005841 0.000000 0.000000 0.000000
# 2 0.003292 0.023617 -0.004572 0.000000 0.000000 0.000000
# 3 0.005841 -0.004572 0.015106 0.000000 0.000000 0.000000
# 4 0.000000 0.000000 0.000000 -0.001614 0.000000 0.000000
# 5 0.000000 0.000000 0.000000 0.000000 0.638329 0.000000
# 6 0.000000 0.000000 0.000000 0.000000 0.000000 0.102056
#
#
# Mechanical properties :
#
#
# Convention : Reuss Voigt Hill
#
# Bulk Modulus (GPa) = 13.33932 16.30653 14.82293
# Shear Modulus (GPa) = 6.09397 -109.67057 -51.78830
#
# Velocity S-wave (km/s) = 1.83409 -7.78066 -5.34672
# Velocity P-wave (km/s) = 3.44217 8.46858 5.47121
#
# Compressibility (1/GPa) = 0.07496635
#
# Stress axis : x y z
#
# Youngs Moduli (GPa) = 36.87077 42.34262 66.19761
#
# Poissons Ratio (x) = -0.13939 -0.38666
# Poissons Ratio (y) = -0.12138 0.30268
# Poissons Ratio (z) = -0.21536 0.19361
#
# Static dielectric constant tensor:
#      x y z
#    x 1.626320 0.000000 0.000000 
#    y 0.000000 1.682860 0.000000 
#    z 0.000000 0.000000 1.615260 
# 
# From -- ./inp_files/66187.got.cif
#   From: 2010.05.17/outbox.cif.g08.bks.cpg/sg65_34_cif.got.tgz:66187.got - 2010.06.03 17:01:31.
