data_PCOD9485062
_publ_section_title
;
Structure prediction by ZEFSAII (Michael W. Deem and Ramdas Pophale) SiO2 
 PCOD9485062
Probable space group: C M M M
;
_chemical_formula_sum "Si O2"
_cell_formula_units_Z 88
_cell_length_a 18.308340
_cell_length_b 28.702821
_cell_length_c 7.442867
_cell_angle_alpha 90.000000
_cell_angle_beta 90.000000
_cell_angle_gamma 90.000000
_cell_volume 3911.234095
_symmetry_space_group_name_H-M "C M M M"
_symmetry_group_IT_number 65
_symmetry_cell_setting 'orthorhombic'
loop_
_space_group_symop_operation_xyz
x,y,z
-x,-y,z
x,-y,-z
-x,y,-z
-x,-y,-z
x,y,-z
-x,y,z
x,-y,z
1/2+x,1/2+y,z
1/2-x,1/2-y,z
1/2+x,1/2-y,-z
1/2-x,1/2+y,-z
1/2-x,1/2-y,-z
1/2+x,1/2+y,-z
1/2-x,1/2+y,z
1/2+x,1/2-y,z
loop_
_atom_site_type_symbol
_atom_site_label
_atom_site_fract_x
_atom_site_fract_y
_atom_site_fract_z
Si Si1 0.580852 0.760325 0.719143
Si Si2 0.689884 0.683527 0.704045
Si Si3 0.583915 0.397825 0.790024
Si Si4 0.416422 0.500000 0.285779
Si Si5 0.414976 0.051864 0.718965
Si Si6 0.343459 0.853532 0.719376
O O1 0.580945 0.757168 0.500000
O O2 0.500000 0.745948 0.779253
O O3 0.645246 0.726581 0.785045
O O4 0.598320 0.813569 0.765421
O O5 0.708464 0.697794 0.500000
O O6 0.633802 0.640537 0.699859
O O7 0.765048 0.664835 0.784674
O O8 0.500000 0.397723 0.721236
O O9 0.614883 0.450252 0.770345
O O10 0.581725 0.386569 0.000000
O O11 0.500000 0.500000 0.214194
O O12 0.418497 0.500000 0.500000
O O13 0.413385 0.052067 0.500000
O O14 0.500000 0.058217 0.769675
O O15 0.367212 0.095421 0.781382
O O16 0.391504 0.000000 0.776266
O O17 0.340446 0.855890 0.500000
#
# Coordination Sequence:
#
# PCOD9485062 Si02
#       6
#    16  16  16   8  16  16
#     4   9  16  26  43  65  89 122 167 214 257 305
#     4  10  19  30  45  70 100 129 160 203 255 303
#     4  10  20  34  51  70  96 132 171 207 245 295
#     4   9  17  31  53  77  97 121 160 211 256 289
#     4   8  13  22  37  57  85 123 162 198 242 300
#     4   9  16  26  40  62  93 127 161 204 259 309
#
# _framework density 22.499293999999999
#
# number of rings (size 3 to 8) (size 9 to 14) (size 15 to 20)
#    0.000    2.818    0.000    3.000    0.000    7.273 
#    1.636    0.000    0.000    2.182    0.000    0.000 
#    0.000    2.182    0.000    2.000    0.000    1.818 
#
# Total GULP energy -245644.102866 kJ/mol
# GULP energy per Si atom -5582.820520 kJ/mol
# Density = 2.244808 g / cm^3
# Si number density = 22.499294 Si / 1000 Ang^3
#
#
#
# Elastic Constant Matrix: (Units=GPa)
#
#
# Indices 1 2 3 4 5 6 
#
# 1 109.1823 71.5682 2.7700 0.0000 0.0000 0.0000
# 2 71.5682 175.5665 -0.0891 0.0000 0.0000 0.0000
# 3 2.7700 -0.0891 75.6783 0.0000 0.0000 0.0000
# 4 0.0000 0.0000 0.0000 -37.8782 0.0000 0.0000
# 5 0.0000 0.0000 0.0000 0.0000 -14.9241 0.0000
# 6 0.0000 0.0000 0.0000 0.0000 0.0000 -58.1977
#
#
#
# Elastic Compliance Matrix: (Units=1/GPa)
#
#
# Indices 1 2 3 4 5 6 
#
# 1 0.012515 -0.005102 -0.000464 0.000000 0.000000 0.000000
# 2 -0.005102 0.007776 0.000196 0.000000 0.000000 0.000000
# 3 -0.000464 0.000196 0.013231 0.000000 0.000000 0.000000
# 4 0.000000 0.000000 0.000000 -0.026400 0.000000 0.000000
# 5 0.000000 0.000000 0.000000 0.000000 -0.067006 0.000000
# 6 0.000000 0.000000 0.000000 0.000000 0.000000 -0.017183
#
#
# Mechanical properties :
#
#
# Convention : Reuss Voigt Hill
#
# Bulk Modulus (GPa) = 43.89504 56.54725 50.22114
# Shear Modulus (GPa) = -85.13078 -3.12146 -44.12612
#
# Velocity S-wave (km/s) = -6.15786 -1.17914 -4.43337
# Velocity P-wave (km/s) = 5.56840 4.83049 1.95876
#
# Compressibility (1/GPa) = 0.02278162
#
# Stress axis : x y z
#
# Youngs Moduli (GPa) = 79.90408 128.60611 75.57981
#
# Poissons Ratio (x) = 0.65613 0.03507
# Poissons Ratio (y) = 0.40766 -0.01481
# Poissons Ratio (z) = 0.03708 -0.02519
#
# Static dielectric constant tensor:
#      x y z
#    x 1.812060 0.000000 0.000000 
#    y 0.000000 1.817380 0.000000 
#    z 0.000000 0.000000 1.838190 
# 
# From -- ./inp_files/10050.got.cif
#   From: 2010.05.17/outbox.cif.g08.bks.cpg/sg65_6_cif.got.tgz:10050.got - 2010.06.03 17:01:31.
