data_PCOD9485481
_publ_section_title
;
Structure prediction by ZEFSAII (Michael W. Deem and Ramdas Pophale) SiO2 
 PCOD9485481
Probable space group: C M M M
;
_chemical_formula_sum "Si O2"
_cell_formula_units_Z 64
_cell_length_a 7.517324
_cell_length_b 18.435013
_cell_length_c 23.718891
_cell_angle_alpha 90.000000
_cell_angle_beta 90.000000
_cell_angle_gamma 90.000000
_cell_volume 3287.010538
_symmetry_space_group_name_H-M "C M M M"
_symmetry_group_IT_number 65
_symmetry_cell_setting 'orthorhombic'
loop_
_space_group_symop_operation_xyz
x,y,z
-x,-y,z
x,-y,-z
-x,y,-z
-x,-y,-z
x,y,-z
-x,y,z
x,-y,z
1/2+x,1/2+y,z
1/2-x,1/2-y,z
1/2+x,1/2-y,-z
1/2-x,1/2+y,-z
1/2-x,1/2-y,-z
1/2+x,1/2+y,-z
1/2-x,1/2+y,z
1/2+x,1/2-y,z
loop_
_atom_site_type_symbol
_atom_site_label
_atom_site_fract_x
_atom_site_fract_y
_atom_site_fract_z
Si Si1 0.782176 0.916199 0.000000
Si Si2 0.717277 0.416106 0.776527
Si Si3 0.287075 0.665161 0.887713
Si Si4 0.203779 0.911533 0.348064
Si Si5 0.000000 0.411417 0.435477
O O1 0.721006 0.875902 0.943418
O O2 0.000000 0.914367 0.000000
O O3 0.729446 0.000000 0.000000
O O4 0.500000 0.415688 0.775410
O O5 0.771083 0.500000 0.784090
O O6 0.779651 0.369032 0.829231
O O7 0.771084 0.389859 0.714222
O O8 0.500000 0.655107 0.887045
O O9 0.250000 0.750000 0.891222
O O10 0.329222 0.888700 0.398998
O O11 0.000000 0.888123 0.355563
O O12 0.203603 0.000000 0.346670
O O13 0.000000 0.500000 0.436557
O O14 0.000000 0.386680 0.500000
#
# Coordination Sequence:
#
# PCOD9485481 Si02
#       5
#     8  16  16  16   8
#     4   9  17  30  51  73  90 121 170 206 232 279
#     4   8  14  27  47  65  84 119 163 201 235 280
#     4  10  19  31  47  69  97 124 153 199 247 294
#     4   8  14  25  40  59  85 120 160 199 240 286
#     4   9  16  24  36  60  94 127 157 191 237 295
#
# _framework density 19.470579000000001
#
# number of rings (size 3 to 8) (size 9 to 14) (size 15 to 20)
#    0.000    3.250    0.000    2.625    0.000    3.500 
#    2.250    2.500    0.000    3.000    0.000    0.000 
#    0.000    1.000    0.500    0.000    0.000    0.000 
#
# Total GULP energy -178453.270706 kJ/mol
# GULP energy per Si atom -5576.664710 kJ/mol
# Density = 1.942626 g / cm^3
# Si number density = 19.470579 Si / 1000 Ang^3
#
#
#
# Elastic Constant Matrix: (Units=GPa)
#
#
# Indices 1 2 3 4 5 6 
#
# 1 70.5963 11.4510 59.1068 0.0000 0.0000 0.0000
# 2 11.4510 73.4754 78.3888 0.0000 0.0000 0.0000
# 3 59.1068 78.3888 246.2846 0.0000 0.0000 0.0000
# 4 0.0000 0.0000 0.0000 -4.1845 0.0000 0.0000
# 5 0.0000 0.0000 0.0000 0.0000 37.0728 0.0000
# 6 0.0000 0.0000 0.0000 0.0000 0.0000 13.1146
#
#
#
# Elastic Compliance Matrix: (Units=1/GPa)
#
#
# Indices 1 2 3 4 5 6 
#
# 1 0.018085 0.002744 -0.005214 0.000000 0.000000 0.000000
# 2 0.002744 0.021024 -0.007350 0.000000 0.000000 0.000000
# 3 -0.005214 -0.007350 0.007651 0.000000 0.000000 0.000000
# 4 0.000000 0.000000 0.000000 -0.238978 0.000000 0.000000
# 5 0.000000 0.000000 0.000000 0.000000 0.026974 0.000000
# 6 0.000000 0.000000 0.000000 0.000000 0.000000 0.076251
#
#
# Mechanical properties :
#
#
# Convention : Reuss Voigt Hill
#
# Bulk Modulus (GPa) = 36.87298 76.47218 56.67258
# Shear Modulus (GPa) = -82.90065 25.29456 -28.80305
#
# Velocity S-wave (km/s) = -6.53221 3.60824 -3.85035
# Velocity P-wave (km/s) = 6.15745 7.53128 3.06643
#
# Compressibility (1/GPa) = 0.02712013
#
# Stress axis : x y z
#
# Youngs Moduli (GPa) = 55.29416 47.56463 130.70168
#
# Poissons Ratio (x) = -0.13050 0.68143
# Poissons Ratio (y) = -0.15171 0.96067
# Poissons Ratio (z) = 0.28828 0.34961
#
# Static dielectric constant tensor:
#      x y z
#    x 1.743110 0.000000 0.000000 
#    y 0.000000 1.628620 0.000000 
#    z 0.000000 0.000000 1.681930 
# 
# From -- ./inp_files/59152.got.cif
#   From: 2010.05.17/outbox.cif.g08.bks.cpg/sg65_30_cif.got.tgz:59152.got - 2010.06.03 17:01:31.
