data_PCOD9485744
_publ_section_title
;
Structure prediction by ZEFSAII (Michael W. Deem and Ramdas Pophale) SiO2 
 PCOD9485744
Probable space group: C M M M
;
_chemical_formula_sum "Si O2"
_cell_formula_units_Z 72
_cell_length_a 19.259431
_cell_length_b 7.942087
_cell_length_c 24.732062
_cell_angle_alpha 90.000000
_cell_angle_beta 90.000000
_cell_angle_gamma 90.000000
_cell_volume 3783.018097
_symmetry_space_group_name_H-M "C M M M"
_symmetry_group_IT_number 65
_symmetry_cell_setting 'orthorhombic'
loop_
_space_group_symop_operation_xyz
x,y,z
-x,-y,z
x,-y,-z
-x,y,-z
-x,-y,-z
x,y,-z
-x,y,z
x,-y,z
1/2+x,1/2+y,z
1/2-x,1/2-y,z
1/2+x,1/2-y,-z
1/2-x,1/2+y,-z
1/2-x,1/2-y,-z
1/2+x,1/2+y,-z
1/2-x,1/2+y,z
1/2+x,1/2-y,z
loop_
_atom_site_type_symbol
_atom_site_label
_atom_site_fract_x
_atom_site_fract_y
_atom_site_fract_z
Si Si1 0.419730 0.706413 0.000000
Si Si2 0.668905 0.296581 0.102853
Si Si3 0.169490 0.200257 0.337882
Si Si4 0.668602 0.297093 0.221013
Si Si5 0.079211 0.702324 0.440361
O O1 0.378133 0.762923 0.946683
O O2 0.419094 0.500000 0.000000
O O3 0.500000 0.758694 0.000000
O O4 0.665876 0.500000 0.103186
O O5 0.750000 0.250000 0.095745
O O6 0.643552 0.235982 0.162249
O O7 0.250000 0.250000 0.343536
O O8 0.141986 0.265878 0.279355
O O9 0.126538 0.252670 0.389989
O O10 0.166861 0.000000 0.335011
O O11 0.661668 0.500000 0.220610
O O12 0.750000 0.250000 0.221483
O O13 0.103488 0.761507 0.500000
O O14 0.076946 0.500000 0.442481
O O15 0.000000 0.763004 0.432741
#
# Coordination Sequence:
#
# PCOD9485744 Si02
#       5
#     8  16  16  16  16
#     4   9  17  28  43  65  92 121 152 186 226 271
#     4   9  16  28  47  68  89 116 153 191 225 266
#     4  10  19  31  49  73  99 125 155 192 235 281
#     4   8  15  27  43  66  93 119 148 185 228 269
#     4   9  19  36  54  70  92 124 159 194 234 279
#
# _framework density 19.032423000000001
#
# number of rings (size 3 to 8) (size 9 to 14) (size 15 to 20)
#    0.000    3.000    0.000    1.667    0.000    2.222 
#    0.000    2.222    0.000    5.333    0.000    0.000 
#    0.000    0.000    0.000    0.000    0.000    0.000 
#
# Total GULP energy -200431.483367 kJ/mol
# GULP energy per Si atom -5567.541205 kJ/mol
# Density = 1.898910 g / cm^3
# Si number density = 19.032423 Si / 1000 Ang^3
#
#
#
# Elastic Constant Matrix: (Units=GPa)
#
#
# Indices 1 2 3 4 5 6 
#
# 1 73.9004 5.0795 103.2510 0.0000 0.0000 0.0000
# 2 5.0795 17.1598 17.2567 0.0000 0.0000 0.0000
# 3 103.2510 17.2567 270.0283 0.0000 0.0000 0.0000
# 4 0.0000 0.0000 0.0000 9.3558 0.0000 0.0000
# 5 0.0000 0.0000 0.0000 0.0000 -13.4797 0.0000
# 6 0.0000 0.0000 0.0000 0.0000 0.0000 14.1434
#
#
#
# Elastic Compliance Matrix: (Units=1/GPa)
#
#
# Indices 1 2 3 4 5 6 
#
# 1 0.029175 0.002760 -0.011332 0.000000 0.000000 0.000000
# 2 0.002760 0.062539 -0.005052 0.000000 0.000000 0.000000
# 3 -0.011332 -0.005052 0.008359 0.000000 0.000000 0.000000
# 4 0.000000 0.000000 0.000000 0.106886 0.000000 0.000000
# 5 0.000000 0.000000 0.000000 0.000000 -0.074186 0.000000
# 6 0.000000 0.000000 0.000000 0.000000 0.000000 0.070704
#
#
# Mechanical properties :
#
#
# Convention : Reuss Voigt Hill
#
# Bulk Modulus (GPa) = 13.73152 68.02922 40.88037
# Shear Modulus (GPa) = 19.60778 17.70397 18.65587
#
# Velocity S-wave (km/s) = 3.21320 3.05323 3.13424
# Velocity P-wave (km/s) = 4.58221 6.94630 5.88421
#
# Compressibility (1/GPa) = 0.07282513
#
# Stress axis : x y z
#
# Youngs Moduli (GPa) = 34.27644 15.98990 119.62921
#
# Poissons Ratio (x) = -0.04413 1.35562
# Poissons Ratio (y) = -0.09460 0.60437
# Poissons Ratio (z) = 0.38842 0.08078
#
# Static dielectric constant tensor:
#      x y z
#    x 1.580820 0.000000 0.000000 
#    y 0.000000 1.681530 0.000000 
#    z 0.000000 0.000000 1.741480 
# 
# From -- ./inp_files/64308.got.cif
#   From: 2010.05.17/outbox.cif.g08.bks.cpg/sg65_33_cif.got.tgz:64308.got - 2010.06.03 17:01:31.
