data_PCOD9485859
_publ_section_title
;
Structure prediction by ZEFSAII (Michael W. Deem and Ramdas Pophale) SiO2 
 PCOD9485859
Probable space group: C M M M
;
_chemical_formula_sum "Si O2"
_cell_formula_units_Z 88
_cell_length_a 26.374507
_cell_length_b 8.804382
_cell_length_c 23.044607
_cell_angle_alpha 90.000000
_cell_angle_beta 90.000000
_cell_angle_gamma 90.000000
_cell_volume 5351.216644
_symmetry_space_group_name_H-M "C M M M"
_symmetry_group_IT_number 65
_symmetry_cell_setting 'orthorhombic'
loop_
_space_group_symop_operation_xyz
x,y,z
-x,-y,z
x,-y,-z
-x,y,-z
-x,-y,-z
x,y,-z
-x,y,z
x,-y,z
1/2+x,1/2+y,z
1/2-x,1/2-y,z
1/2+x,1/2-y,-z
1/2-x,1/2+y,-z
1/2-x,1/2-y,-z
1/2+x,1/2+y,-z
1/2-x,1/2+y,z
1/2+x,1/2-y,z
loop_
_atom_site_type_symbol
_atom_site_label
_atom_site_fract_x
_atom_site_fract_y
_atom_site_fract_z
Si Si1 0.414190 0.816807 0.351904
Si Si2 0.057674 0.177077 0.770404
Si Si3 0.500000 0.679753 0.430834
Si Si4 0.653419 0.820300 0.819170
Si Si5 0.195551 0.317218 0.693173
Si Si6 0.806084 0.818550 0.936980
O O1 0.438054 0.742539 0.294407
O O2 0.449168 0.754698 0.403704
O O3 0.353864 0.777659 0.346363
O O4 0.417879 0.000000 0.349538
O O5 0.095459 0.277312 0.807707
O O6 0.000000 0.186340 0.790181
O O7 0.073339 0.000000 0.770777
O O8 0.500000 0.500000 0.416511
O O9 0.500000 0.697374 0.500000
O O10 0.682359 0.769197 0.759864
O O11 0.669386 0.742801 0.878564
O O12 0.660906 0.000000 0.823709
O O13 0.198971 0.500000 0.693039
O O14 0.250000 0.250000 0.675993
O O15 0.750000 0.750000 0.937553
O O16 0.803558 0.000000 0.933967
O O17 0.829882 0.777670 0.000000
#
# Coordination Sequence:
#
# PCOD9485859 Si02
#       6
#    16  16   8  16  16  16
#     4  10  20  34  53  77 107 139 174 213 256 307
#     4  10  19  31  50  75 103 133 166 205 254 306
#     4  11  23  37  55  81 109 137 174 217 260 305
#     4  10  20  32  48  72 101 133 170 210 256 308
#     4   9  19  32  48  75 105 136 169 206 254 306
#     4  10  20  33  49  69  95 128 166 209 257 308
#
# _framework density 16.444859000000001
#
# number of rings (size 3 to 8) (size 9 to 14) (size 15 to 20)
#    0.000    2.091    0.909    4.091    0.000    8.727 
#    0.000    0.000    0.000    1.091    0.000    3.818 
#    0.000    0.000    0.000    0.000    0.000    0.000 
#
# Total GULP energy -245184.327185 kJ/mol
# GULP energy per Si atom -5572.371072 kJ/mol
# Density = 1.640743 g / cm^3
# Si number density = 16.444859 Si / 1000 Ang^3
#
#
#
# Elastic Constant Matrix: (Units=GPa)
#
#
# Indices 1 2 3 4 5 6 
#
# 1 92.9921 16.7591 38.1937 0.0000 0.0000 0.0000
# 2 16.7591 36.8141 25.6246 0.0000 0.0000 0.0000
# 3 38.1937 25.6246 82.6135 0.0000 0.0000 0.0000
# 4 0.0000 0.0000 0.0000 25.1021 0.0000 0.0000
# 5 0.0000 0.0000 0.0000 0.0000 33.5536 0.0000
# 6 0.0000 0.0000 0.0000 0.0000 0.0000 31.5254
#
#
#
# Elastic Compliance Matrix: (Units=1/GPa)
#
#
# Indices 1 2 3 4 5 6 
#
# 1 0.013423 -0.002284 -0.005497 0.000000 0.000000 0.000000
# 2 -0.002284 0.035032 -0.009810 0.000000 0.000000 0.000000
# 3 -0.005497 -0.009810 0.017689 0.000000 0.000000 0.000000
# 4 0.000000 0.000000 0.000000 0.039837 0.000000 0.000000
# 5 0.000000 0.000000 0.000000 0.000000 0.029803 0.000000
# 6 0.000000 0.000000 0.000000 0.000000 0.000000 0.031720
#
#
# Mechanical properties :
#
#
# Convention : Reuss Voigt Hill
#
# Bulk Modulus (GPa) = 32.29893 41.50828 36.90361
# Shear Modulus (GPa) = 23.47337 26.82570 25.14953
#
# Velocity S-wave (km/s) = 3.78219 4.04326 3.91490
# Velocity P-wave (km/s) = 6.22549 6.86243 6.55170
#
# Compressibility (1/GPa) = 0.03096077
#
# Stress axis : x y z
#
# Youngs Moduli (GPa) = 74.49842 28.54563 56.53298
#
# Poissons Ratio (x) = 0.06521 0.31077
# Poissons Ratio (y) = 0.17018 0.55458
# Poissons Ratio (z) = 0.40953 0.28003
#
# Static dielectric constant tensor:
#      x y z
#    x 1.557210 0.000000 0.000000 
#    y 0.000000 1.554470 0.000000 
#    z 0.000000 0.000000 1.562610 
# 
# From -- ./inp_files/65202.got.cif
#   From: 2010.05.17/outbox.cif.g08.bks.cpg/sg65_33_cif.got.tgz:65202.got - 2010.06.03 17:01:31.
