data_PCOD9485424
_publ_section_title
;
Structure prediction by ZEFSAII (Michael W. Deem and Ramdas Pophale) SiO2 
 PCOD9485424
Probable space group: C M M M
;
_chemical_formula_sum "Si O2"
_cell_formula_units_Z 112
_cell_length_a 7.498171
_cell_length_b 29.638287
_cell_length_c 27.106931
_cell_angle_alpha 90.000000
_cell_angle_beta 90.000000
_cell_angle_gamma 90.000000
_cell_volume 6024.053081
_symmetry_space_group_name_H-M "C M M M"
_symmetry_group_IT_number 65
_symmetry_cell_setting 'orthorhombic'
loop_
_space_group_symop_operation_xyz
x,y,z
-x,-y,z
x,-y,-z
-x,y,-z
-x,-y,-z
x,y,-z
-x,y,z
x,-y,z
1/2+x,1/2+y,z
1/2-x,1/2-y,z
1/2+x,1/2-y,-z
1/2-x,1/2+y,-z
1/2-x,1/2-y,-z
1/2+x,1/2+y,-z
1/2-x,1/2+y,z
1/2+x,1/2-y,z
loop_
_atom_site_type_symbol
_atom_site_label
_atom_site_fract_x
_atom_site_fract_y
_atom_site_fract_z
Si Si1 0.785277 0.303360 0.838976
Si Si2 0.706838 0.139521 0.252449
Si Si3 0.708801 0.450500 0.418296
Si Si4 0.212068 0.802895 0.652292
Si Si5 0.783640 0.449807 0.302479
Si Si6 0.781774 0.147351 0.446340
Si Si7 0.786437 0.303679 0.053004
O O1 0.750000 0.250000 0.831676
O O2 0.715310 0.333496 0.793983
O O3 0.718797 0.318486 0.893248
O O4 0.000000 0.307060 0.839634
O O5 0.500000 0.130822 0.240198
O O6 0.712380 0.171388 0.300424
O O7 0.783548 0.091411 0.269368
O O8 0.500000 0.452111 0.431696
O O9 0.785562 0.500000 0.430667
O O10 0.722209 0.444860 0.359081
O O11 0.780604 0.404495 0.441140
O O12 0.250000 0.750000 0.654271
O O13 0.278289 0.824390 0.600982
O O14 0.000000 0.809712 0.654260
O O15 0.731728 0.500000 0.285634
O O16 0.000000 0.447914 0.303964
O O17 0.729051 0.165398 0.500000
O O18 0.000000 0.146918 0.444875
O O19 0.750000 0.250000 0.052680
O O20 0.000000 0.310202 0.052912
O O21 0.718090 0.321442 0.000000
#
# Coordination Sequence:
#
# PCOD9485424 Si02
#       7
#    16  16  16  16  16  16  16
#     4   9  17  27  39  59  85 113 144 176 208 244
#     4  10  19  31  47  66  89 114 142 176 212 253
#     4   9  16  28  48  71  90 108 133 165 205 255
#     4  11  22  35  50  66  85 112 144 178 214 253
#     4   9  17  29  46  66  88 113 138 167 207 253
#     4   9  18  32  48  67  89 110 136 172 210 250
#     4   8  13  22  36  53  76 107 141 174 207 242
#
# _framework density 18.592134000000001
#
# number of rings (size 3 to 8) (size 9 to 14) (size 15 to 20)
#    0.000    2.714    1.429    0.857    0.000    2.286 
#    0.000    1.429    0.000    3.429    0.000    2.000 
#    0.000    0.571    0.000    8.000    0.000    0.000 
#
# Total GULP energy -312183.604853 kJ/mol
# GULP energy per Si atom -5574.707230 kJ/mol
# Density = 1.854982 g / cm^3
# Si number density = 18.592134 Si / 1000 Ang^3
#
#
#
# Elastic Constant Matrix: (Units=GPa)
#
#
# Indices 1 2 3 4 5 6 
#
# 1 53.7174 -5.3749 -4.0552 0.0000 0.0000 0.0000
# 2 -5.3749 96.4560 58.2889 0.0000 0.0000 0.0000
# 3 -4.0552 58.2889 152.0133 0.0000 0.0000 0.0000
# 4 0.0000 0.0000 0.0000 17.0575 0.0000 0.0000
# 5 0.0000 0.0000 0.0000 0.0000 10.2864 0.0000
# 6 0.0000 0.0000 0.0000 0.0000 0.0000 -4.7403
#
#
#
# Elastic Compliance Matrix: (Units=1/GPa)
#
#
# Indices 1 2 3 4 5 6 
#
# 1 0.018722 0.000965 0.000129 0.000000 0.000000 0.000000
# 2 0.000965 0.013544 -0.005168 0.000000 0.000000 0.000000
# 3 0.000129 -0.005168 0.008563 0.000000 0.000000 0.000000
# 4 0.000000 0.000000 0.000000 0.058625 0.000000 0.000000
# 5 0.000000 0.000000 0.000000 0.000000 0.097215 0.000000
# 6 0.000000 0.000000 0.000000 0.000000 0.000000 -0.210959
#
#
# Mechanical properties :
#
#
# Convention : Reuss Voigt Hill
#
# Bulk Modulus (GPa) = 30.59665 44.43380 37.51523
# Shear Modulus (GPa) = 1052.09480 21.40926 536.75203
#
# Velocity S-wave (km/s) = 23.81407 3.39709 17.00956
# Velocity P-wave (km/s) = 27.79639 6.27201 20.14916
#
# Compressibility (1/GPa) = 0.03268331
#
# Stress axis : x y z
#
# Youngs Moduli (GPa) = 53.41227 73.83316 116.77678
#
# Poissons Ratio (x) = -0.07126 -0.01511
# Poissons Ratio (y) = -0.05155 0.60346
# Poissons Ratio (z) = -0.00691 0.38155
#
# Static dielectric constant tensor:
#      x y z
#    x 1.725880 0.000000 0.000000 
#    y 0.000000 1.640630 0.000000 
#    z 0.000000 0.000000 1.677130 
# 
# From -- ./inp_files/69324.got.cif
#   From: 2010.05.17/outbox.cif.g08.bks.cpg/sg65_35_cif.got.tgz:69324.got - 2010.06.03 17:01:31.
