data_PCOD9486312
_publ_section_title
;
Structure prediction by ZEFSAII (Michael W. Deem and Ramdas Pophale) SiO2 
 PCOD9486312
Probable space group: C M M M
;
_chemical_formula_sum "Si O2"
_cell_formula_units_Z 80
_cell_length_a 17.546246
_cell_length_b 16.779324
_cell_length_c 13.077196
_cell_angle_alpha 90.000000
_cell_angle_beta 90.000000
_cell_angle_gamma 90.000000
_cell_volume 3850.111500
_symmetry_space_group_name_H-M "C M M M"
_symmetry_group_IT_number 65
_symmetry_cell_setting 'orthorhombic'
loop_
_space_group_symop_operation_xyz
x,y,z
-x,-y,z
x,-y,-z
-x,y,-z
-x,-y,-z
x,y,-z
-x,y,z
x,-y,z
1/2+x,1/2+y,z
1/2-x,1/2-y,z
1/2+x,1/2-y,-z
1/2-x,1/2+y,-z
1/2-x,1/2-y,-z
1/2+x,1/2+y,-z
1/2-x,1/2+y,z
1/2+x,1/2-y,z
loop_
_atom_site_type_symbol
_atom_site_label
_atom_site_fract_x
_atom_site_fract_y
_atom_site_fract_z
Si Si1 0.912065 0.369571 0.776229
Si Si2 0.090446 0.624652 0.000000
Si Si3 0.668986 0.707456 0.000000
Si Si4 0.619945 0.592652 0.611544
Si Si5 0.283824 0.162864 0.617553
Si Si6 0.582167 0.319773 0.816910
O O1 0.884744 0.403845 0.886973
O O2 0.849882 0.375071 0.687015
O O3 0.915644 0.273971 0.792036
O O4 0.000000 0.395940 0.755594
O O5 0.110149 0.718415 0.000000
O O6 0.000000 0.613843 0.000000
O O7 0.750000 0.750000 0.000000
O O8 0.649742 0.661335 0.103798
O O9 0.595305 0.624741 0.500000
O O10 0.600897 0.500000 0.615474
O O11 0.710794 0.605818 0.616439
O O12 0.588057 0.636423 0.709592
O O13 0.310158 0.174945 0.500000
O O14 0.250000 0.250000 0.653123
O O15 0.500000 0.338561 0.864740
#
# Coordination Sequence:
#
# PCOD9486312 Si02
#       6
#    16   8   8  16  16  16
#     4   9  17  29  49  77 108 134 166 214 270 328
#     4   8  16  28  42  70 109 136 157 200 258 313
#     4  10  20  30  53  83 112 145 179 222 274 328
#     4  10  22  38  55  77 108 149 194 236 280 330
#     4  10  19  32  51  75 105 135 173 229 283 328
#     4  10  20  34  53  79 113 146 181 225 270 325
#
# _framework density 20.778618999999999
#
# number of rings (size 3 to 8) (size 9 to 14) (size 15 to 20)
#    0.000    2.400    2.000    2.100    5.600    1.200 
#    0.000    3.500    0.000    1.800    0.000    2.800 
#    0.000    2.400    0.000    0.000    0.000    0.000 
#
# Total GULP energy -222837.568095 kJ/mol
# GULP energy per Si atom -5570.939202 kJ/mol
# Density = 2.073133 g / cm^3
# Si number density = 20.778619 Si / 1000 Ang^3
#
#
#
# Elastic Constant Matrix: (Units=GPa)
#
#
# Indices 1 2 3 4 5 6 
#
# 1 95.9212 -2.0049 74.6756 0.0000 0.0000 0.0000
# 2 -2.0049 41.3419 22.9481 0.0000 0.0000 0.0000
# 3 74.6756 22.9481 152.4943 0.0000 0.0000 0.0000
# 4 0.0000 0.0000 0.0000 -0.4340 0.0000 0.0000
# 5 0.0000 0.0000 0.0000 0.0000 36.0594 0.0000
# 6 0.0000 0.0000 0.0000 0.0000 0.0000 -4.2568
#
#
#
# Elastic Compliance Matrix: (Units=1/GPa)
#
#
# Indices 1 2 3 4 5 6 
#
# 1 0.018273 0.006387 -0.009909 0.000000 0.000000 0.000000
# 2 0.006387 0.028625 -0.007435 0.000000 0.000000 0.000000
# 3 -0.009909 -0.007435 0.012529 0.000000 0.000000 0.000000
# 4 0.000000 0.000000 0.000000 -2.304091 0.000000 0.000000
# 5 0.000000 0.000000 0.000000 0.000000 0.027732 0.000000
# 6 0.000000 0.000000 0.000000 0.000000 0.000000 -0.234916
#
#
# Mechanical properties :
#
#
# Convention : Reuss Voigt Hill
#
# Bulk Modulus (GPa) = 26.65817 53.44388 40.05102
# Shear Modulus (GPa) = -2.06831 19.21628 8.57398
#
# Velocity S-wave (km/s) = -0.99878 3.04437 2.03355
# Velocity P-wave (km/s) = 3.39520 6.17528 4.98304
#
# Compressibility (1/GPa) = 0.03751195
#
# Stress axis : x y z
#
# Youngs Moduli (GPa) = 54.72463 34.93394 79.81414
#
# Poissons Ratio (x) = -0.22311 0.79091
# Poissons Ratio (y) = -0.34951 0.59344
# Poissons Ratio (z) = 0.54229 0.25974
#
# Static dielectric constant tensor:
#      x y z
#    x 1.764730 0.000000 0.000000 
#    y 0.000000 1.733000 0.000000 
#    z 0.000000 0.000000 1.836530 
# 
# From -- ./inp_files/26654.got.cif
#   From: 2010.05.17/outbox.cif.g08.bks.cpg/sg65_14_cif.got.tgz:26654.got - 2010.06.03 17:01:31.
