data_PCOD9486935
_publ_section_title
;
Structure prediction by ZEFSAII (Michael W. Deem and Ramdas Pophale) SiO2 
 PCOD9486935
Probable space group: C M M M
;
_chemical_formula_sum "Si O2"
_cell_formula_units_Z 96
_cell_length_a 29.625702
_cell_length_b 8.906933
_cell_length_c 20.882300
_cell_angle_alpha 90.000000
_cell_angle_beta 90.000000
_cell_angle_gamma 90.000000
_cell_volume 5510.299012
_symmetry_space_group_name_H-M "C M M M"
_symmetry_group_IT_number 65
_symmetry_cell_setting 'orthorhombic'
loop_
_space_group_symop_operation_xyz
x,y,z
-x,-y,z
x,-y,-z
-x,y,-z
-x,-y,-z
x,y,-z
-x,y,z
x,-y,z
1/2+x,1/2+y,z
1/2-x,1/2-y,z
1/2+x,1/2-y,-z
1/2-x,1/2+y,-z
1/2-x,1/2-y,-z
1/2+x,1/2+y,-z
1/2-x,1/2+y,z
1/2+x,1/2-y,z
loop_
_atom_site_type_symbol
_atom_site_label
_atom_site_fract_x
_atom_site_fract_y
_atom_site_fract_z
Si Si1 0.889036 0.320072 0.685593
Si Si2 0.702465 0.320508 0.268963
Si Si3 0.552293 0.680259 0.425325
Si Si4 0.052167 0.680965 0.809781
Si Si5 0.394966 0.318640 0.928298
Si Si6 0.296980 0.320647 0.117397
O O1 0.885602 0.500000 0.685011
O O2 0.839932 0.248205 0.694410
O O3 0.914370 0.262364 0.622694
O O4 0.919069 0.274556 0.747391
O O5 0.703384 0.500000 0.275254
O O6 0.750000 0.250000 0.289780
O O7 0.697349 0.284346 0.192999
O O8 0.560754 0.715931 0.500000
O O9 0.500000 0.719896 0.411126
O O10 0.556506 0.500000 0.418135
O O11 0.053540 0.500000 0.813907
O O12 0.074675 0.749098 0.872932
O O13 0.000000 0.727293 0.803420
O O14 0.396343 0.500000 0.922872
O O15 0.342738 0.272285 0.917522
O O16 0.409483 0.277015 0.000000
O O17 0.293276 0.500000 0.111452
O O18 0.250000 0.250000 0.094813
#
# Coordination Sequence:
#
# PCOD9486935 Si02
#       6
#    16  16  16  16  16  16
#     4  11  21  34  56  84 113 144 181 224 271 319
#     4  10  19  33  54  80 110 142 179 222 271 322
#     4   9  19  36  57  83 116 152 187 222 265 319
#     4  10  22  38  54  75 104 137 177 224 270 318
#     4  10  21  37  54  74 102 136 176 222 272 326
#     4   9  18  32  51  75 103 133 169 214 266 320
#
# _framework density 17.421923
#
# number of rings (size 3 to 8) (size 9 to 14) (size 15 to 20)
#    0.000    2.167    1.667    2.000    0.000    4.667 
#    0.000    2.500    0.000    0.500    0.000    0.000 
#    0.000    0.000    0.000    0.000    0.000    0.000 
#
# Total GULP energy -267964.667088 kJ/mol
# GULP energy per Si atom -5582.597231 kJ/mol
# Density = 1.738227 g / cm^3
# Si number density = 17.421923 Si / 1000 Ang^3
#
#
#
# Elastic Constant Matrix: (Units=GPa)
#
#
# Indices 1 2 3 4 5 6 
#
# 1 144.7715 43.4711 72.0442 0.0000 0.0000 0.0000
# 2 43.4711 27.9477 38.4653 0.0000 0.0000 0.0000
# 3 72.0442 38.4653 92.3072 0.0000 0.0000 0.0000
# 4 0.0000 0.0000 0.0000 20.7940 0.0000 0.0000
# 5 0.0000 0.0000 0.0000 0.0000 16.9988 0.0000
# 6 0.0000 0.0000 0.0000 0.0000 0.0000 31.3373
#
#
#
# Elastic Compliance Matrix: (Units=1/GPa)
#
#
# Indices 1 2 3 4 5 6 
#
# 1 0.013630 -0.015381 -0.004229 0.000000 0.000000 0.000000
# 2 -0.015381 0.101257 -0.030190 0.000000 0.000000 0.000000
# 3 -0.004229 -0.030190 0.026715 0.000000 0.000000 0.000000
# 4 0.000000 0.000000 0.000000 0.048091 0.000000 0.000000
# 5 0.000000 0.000000 0.000000 0.000000 0.058828 0.000000
# 6 0.000000 0.000000 0.000000 0.000000 0.000000 0.031911
#
#
# Mechanical properties :
#
#
# Convention : Reuss Voigt Hill
#
# Bulk Modulus (GPa) = 23.80854 63.66530 43.73692
# Shear Modulus (GPa) = 12.68934 21.22907 16.95920
#
# Velocity S-wave (km/s) = 2.70173 3.49453 3.12339
# Velocity P-wave (km/s) = 4.84025 7.27357 6.17790
#
# Compressibility (1/GPa) = 0.04200173
#
# Stress axis : x y z
#
# Youngs Moduli (GPa) = 73.36529 9.87589 37.43283
#
# Poissons Ratio (x) = 0.15190 0.15830
# Poissons Ratio (y) = 1.12843 1.13010
# Poissons Ratio (z) = 0.31026 0.29815
#
# Static dielectric constant tensor:
#      x y z
#    x 1.577370 0.000000 0.000000 
#    y 0.000000 1.580530 0.000000 
#    z 0.000000 0.000000 1.575120 
# 
# From -- ./inp_files/60172.got.cif
#   From: 2010.05.17/outbox.cif.g08.bks.cpg/sg65_31_cif.got.tgz:60172.got - 2010.06.03 17:01:31.
