data_PCOD9486609
_publ_section_title
;
Structure prediction by ZEFSAII (Michael W. Deem and Ramdas Pophale) SiO2 
 PCOD9486609
Probable space group: C M M M
;
_chemical_formula_sum "Si O2"
_cell_formula_units_Z 88
_cell_length_a 20.117672
_cell_length_b 8.616215
_cell_length_c 26.129962
_cell_angle_alpha 90.000000
_cell_angle_beta 90.000000
_cell_angle_gamma 90.000000
_cell_volume 4529.320246
_symmetry_space_group_name_H-M "C M M M"
_symmetry_group_IT_number 65
_symmetry_cell_setting 'orthorhombic'
loop_
_space_group_symop_operation_xyz
x,y,z
-x,-y,z
x,-y,-z
-x,y,-z
-x,-y,-z
x,y,-z
-x,y,z
x,-y,z
1/2+x,1/2+y,z
1/2-x,1/2-y,z
1/2+x,1/2-y,-z
1/2-x,1/2+y,-z
1/2-x,1/2-y,-z
1/2+x,1/2+y,-z
1/2-x,1/2+y,z
1/2+x,1/2-y,z
loop_
_atom_site_type_symbol
_atom_site_label
_atom_site_fract_x
_atom_site_fract_y
_atom_site_fract_z
Si Si1 0.500000 0.174082 0.938921
Si Si2 0.674815 0.312884 0.445191
Si Si3 0.817374 0.315925 0.836985
Si Si4 0.641908 0.684322 0.058478
Si Si5 0.825705 0.812950 0.331652
Si Si6 0.923205 0.312073 0.244379
O O1 0.566091 0.269471 0.928847
O O2 0.500000 0.000000 0.915375
O O3 0.500000 0.154102 0.000000
O O4 0.643661 0.263483 0.500000
O O5 0.676198 0.500000 0.445232
O O6 0.750000 0.250000 0.446006
O O7 0.649513 0.266798 0.389063
O O8 0.814633 0.500000 0.834756
O O9 0.750000 0.250000 0.812536
O O10 0.819551 0.263972 0.895719
O O11 0.883024 0.263346 0.806677
O O12 0.650879 0.500000 0.060009
O O13 0.656781 0.737208 0.000000
O O14 0.750000 0.750000 0.324895
O O15 0.877507 0.748048 0.290613
O O16 0.823066 0.000000 0.328234
O O17 0.923902 0.500000 0.245658
O O18 0.000000 0.259224 0.245647
#
# Coordination Sequence:
#
# PCOD9486609 Si02
#       6
#     8  16  16  16  16  16
#     4   9  17  31  53  81 113 149 185 219 260 315
#     4   8  14  25  43  72 110 147 184 227 273 323
#     4  11  24  41  62  85 113 147 185 229 281 340
#     4  10  21  37  58  86 118 149 183 225 274 328
#     4  10  19  32  55  85 115 150 190 232 281 335
#     4  10  23  42  61  82 110 145 186 236 287 336
#
# _framework density 19.428964000000001
#
# number of rings (size 3 to 8) (size 9 to 14) (size 15 to 20)
#    0.000    2.273    0.000    2.455    1.273    6.545 
#    0.000    0.000    0.000    0.545    0.000    3.818 
#    0.000    0.000    0.000    0.000    0.000    0.000 
#
# Total GULP energy -245240.081830 kJ/mol
# GULP energy per Si atom -5573.638223 kJ/mol
# Density = 1.938474 g / cm^3
# Si number density = 19.428964 Si / 1000 Ang^3
#
#
#
# Elastic Constant Matrix: (Units=GPa)
#
#
# Indices 1 2 3 4 5 6 
#
# 1 125.9183 21.2363 66.8359 0.0000 0.0000 0.0000
# 2 21.2363 25.9247 25.0492 0.0000 0.0000 0.0000
# 3 66.8359 25.0492 152.1809 0.0000 0.0000 0.0000
# 4 0.0000 0.0000 0.0000 14.3088 0.0000 0.0000
# 5 0.0000 0.0000 0.0000 0.0000 4.1844 0.0000
# 6 0.0000 0.0000 0.0000 0.0000 0.0000 25.2578
#
#
#
# Elastic Compliance Matrix: (Units=1/GPa)
#
#
# Indices 1 2 3 4 5 6 
#
# 1 0.010898 -0.005116 -0.003944 0.000000 0.000000 0.000000
# 2 -0.005116 0.048270 -0.005698 0.000000 0.000000 0.000000
# 3 -0.003944 -0.005698 0.009241 0.000000 0.000000 0.000000
# 4 0.000000 0.000000 0.000000 0.069887 0.000000 0.000000
# 5 0.000000 0.000000 0.000000 0.000000 0.238986 0.000000
# 6 0.000000 0.000000 0.000000 0.000000 0.000000 0.039592
#
#
# Mechanical properties :
#
#
# Convention : Reuss Voigt Hill
#
# Bulk Modulus (GPa) = 25.71223 58.91853 42.31538
# Shear Modulus (GPa) = 10.88482 21.47702 16.18092
#
# Velocity S-wave (km/s) = 2.36950 3.32838 2.88900
# Velocity P-wave (km/s) = 4.55508 6.72025 5.74067
#
# Compressibility (1/GPa) = 0.03889200
#
# Stress axis : x y z
#
# Youngs Moduli (GPa) = 91.75986 20.71675 108.20994
#
# Poissons Ratio (x) = 0.10599 0.42679
# Poissons Ratio (y) = 0.46946 0.61662
# Poissons Ratio (z) = 0.36191 0.11805
#
# Static dielectric constant tensor:
#      x y z
#    x 1.642850 0.000000 0.000000 
#    y 0.000000 1.667980 0.000000 
#    z 0.000000 0.000000 1.741890 
# 
# From -- ./inp_files/70953.got.cif
#   From: 2010.05.17/outbox.cif.g08.bks.cpg/sg65_36_cif.got.tgz:70953.got - 2010.06.03 17:01:31.
