data_PCOD9486091
_publ_section_title
;
Structure prediction by ZEFSAII (Michael W. Deem and Ramdas Pophale) SiO2 
 PCOD9486091
Probable space group: C M M M
;
_chemical_formula_sum "Si O2"
_cell_formula_units_Z 80
_cell_length_a 19.908893
_cell_length_b 8.497271
_cell_length_c 26.930457
_cell_angle_alpha 90.000000
_cell_angle_beta 90.000000
_cell_angle_gamma 90.000000
_cell_volume 4555.859320
_symmetry_space_group_name_H-M "C M M M"
_symmetry_group_IT_number 65
_symmetry_cell_setting 'orthorhombic'
loop_
_space_group_symop_operation_xyz
x,y,z
-x,-y,z
x,-y,-z
-x,y,-z
-x,-y,-z
x,y,-z
-x,y,z
x,-y,z
1/2+x,1/2+y,z
1/2-x,1/2-y,z
1/2+x,1/2-y,-z
1/2-x,1/2+y,-z
1/2-x,1/2-y,-z
1/2+x,1/2+y,-z
1/2-x,1/2+y,z
1/2+x,1/2-y,z
loop_
_atom_site_type_symbol
_atom_site_label
_atom_site_fract_x
_atom_site_fract_y
_atom_site_fract_z
Si Si1 0.918644 0.186743 0.053366
Si Si2 0.421890 0.689879 0.556523
Si Si3 0.174869 0.313346 0.358372
Si Si4 0.825538 0.188763 0.250571
Si Si5 0.422038 0.307384 0.838203
O O1 0.897182 0.248512 0.107303
O O2 0.000000 0.198126 0.053967
O O3 0.903042 0.000000 0.052628
O O4 0.895533 0.253866 0.000000
O O5 0.403807 0.736383 0.500000
O O6 0.500000 0.732606 0.564637
O O7 0.417498 0.500000 0.559175
O O8 0.374152 0.762368 0.597684
O O9 0.177932 0.500000 0.354585
O O10 0.250000 0.250000 0.367714
O O11 0.152438 0.245406 0.305077
O O12 0.750000 0.250000 0.242527
O O13 0.875058 0.243274 0.206911
O O14 0.824303 0.000000 0.250589
O O15 0.500000 0.260965 0.831335
O O16 0.421522 0.500000 0.839407
#
# Coordination Sequence:
#
# PCOD9486091 Si02
#       5
#    16  16  16  16  16
#     4   7   9  15  30  54  84 113 141 181 232 278
#     4   9  19  37  59  81 106 135 164 195 236 286
#     4  11  22  36  54  75 100 130 167 208 246 288
#     4  10  19  32  49  67  92 126 160 196 239 288
#     4   8  14  24  40  64  89 115 152 194 235 280
#
# _framework density 17.559805000000001
#
# number of rings (size 3 to 8) (size 9 to 14) (size 15 to 20)
#    0.000    3.000    0.000    6.000    0.000    2.000 
#    0.000    3.000    0.000    2.400    0.000    0.000 
#    0.000    2.400    0.000   20.000    0.000   16.800 
#
# Total GULP energy -222778.859586 kJ/mol
# GULP energy per Si atom -5569.471490 kJ/mol
# Density = 1.751984 g / cm^3
# Si number density = 17.559805 Si / 1000 Ang^3
#
#
#
# Elastic Constant Matrix: (Units=GPa)
#
#
# Indices 1 2 3 4 5 6 
#
# 1 57.6104 21.1245 95.2359 0.0000 0.0000 0.0000
# 2 21.1245 39.9666 40.5818 0.0000 0.0000 0.0000
# 3 95.2359 40.5818 209.8784 0.0000 0.0000 0.0000
# 4 0.0000 0.0000 0.0000 9.8649 0.0000 0.0000
# 5 0.0000 0.0000 0.0000 0.0000 -3.0401 0.0000
# 6 0.0000 0.0000 0.0000 0.0000 0.0000 19.5657
#
#
#
# Elastic Compliance Matrix: (Units=1/GPa)
#
#
# Indices 1 2 3 4 5 6 
#
# 1 0.070587 -0.005955 -0.030879 0.000000 0.000000 0.000000
# 2 -0.005955 0.031636 -0.003415 0.000000 0.000000 0.000000
# 3 -0.030879 -0.003415 0.019437 0.000000 0.000000 0.000000
# 4 0.000000 0.000000 0.000000 0.101369 0.000000 0.000000
# 5 0.000000 0.000000 0.000000 0.000000 -0.328934 0.000000
# 6 0.000000 0.000000 0.000000 0.000000 0.000000 0.051110
#
#
# Mechanical properties :
#
#
# Convention : Reuss Voigt Hill
#
# Bulk Modulus (GPa) = 24.29396 69.03775 46.66585
# Shear Modulus (GPa) = 126.83125 15.31232 71.07179
#
# Velocity S-wave (km/s) = 8.50794 2.95619 6.36883
# Velocity P-wave (km/s) = 10.50611 7.14515 8.98419
#
# Compressibility (1/GPa) = 0.04116250
#
# Stress axis : x y z
#
# Youngs Moduli (GPa) = 14.16691 31.60966 51.44922
#
# Poissons Ratio (x) = 0.18824 1.58868
# Poissons Ratio (y) = 0.08437 0.17569
# Poissons Ratio (z) = 0.43745 0.10794
#
# Static dielectric constant tensor:
#      x y z
#    x 1.567180 0.000000 0.000000 
#    y 0.000000 1.604490 0.000000 
#    z 0.000000 0.000000 1.634540 
# 
# From -- ./inp_files/75021.got.cif
#   From: 2010.05.17/outbox.cif.g08.bks.cpg/sg65_38_cif.got.tgz:75021.got - 2010.06.03 17:01:31.
