data_PCOD9486246
_publ_section_title
;
Structure prediction by ZEFSAII (Michael W. Deem and Ramdas Pophale) SiO2 
 PCOD9486246
Probable space group: C M M M
;
_chemical_formula_sum "Si O2"
_cell_formula_units_Z 56
_cell_length_a 7.408768
_cell_length_b 28.755157
_cell_length_c 11.763135
_cell_angle_alpha 90.000000
_cell_angle_beta 90.000000
_cell_angle_gamma 90.000000
_cell_volume 2506.021657
_symmetry_space_group_name_H-M "C M M M"
_symmetry_group_IT_number 65
_symmetry_cell_setting 'orthorhombic'
loop_
_space_group_symop_operation_xyz
x,y,z
-x,-y,z
x,-y,-z
-x,y,-z
-x,-y,-z
x,y,-z
-x,y,z
x,-y,z
1/2+x,1/2+y,z
1/2-x,1/2-y,z
1/2+x,1/2-y,-z
1/2-x,1/2+y,-z
1/2-x,1/2-y,-z
1/2+x,1/2+y,-z
1/2-x,1/2+y,z
1/2+x,1/2-y,z
loop_
_atom_site_type_symbol
_atom_site_label
_atom_site_fract_x
_atom_site_fract_y
_atom_site_fract_z
Si Si1 0.699501 0.875736 0.301984
Si Si2 0.279138 0.945052 0.500000
Si Si3 0.283769 0.195020 0.872996
Si Si4 0.783704 0.949999 0.132791
O O1 0.500000 0.862455 0.345728
O O2 0.778497 0.912164 0.393804
O O3 0.787318 0.831000 0.240579
O O4 0.687570 0.908614 0.192888
O O5 0.500000 0.947201 0.500000
O O6 0.220631 0.000000 0.500000
O O7 0.500000 0.187873 0.872380
O O8 0.250000 0.250000 0.865895
O O9 0.217732 0.179640 0.000000
O O10 0.000000 0.945152 0.145396
O O11 0.730823 0.000000 0.182640
O O12 0.744872 0.950404 0.000000
#
# Coordination Sequence:
#
# PCOD9486246 Si02
#       4
#    16   8  16  16
#     4  10  19  32  51  73  97 128 169 210 244 287
#     4   9  18  32  50  73 101 133 167 205 250 291
#     4   9  18  32  50  73  99 126 159 202 252 302
#     4   9  18  31  46  68  99 130 159 197 249 304
#
# _framework density 22.346174000000001
#
# number of rings (size 3 to 8) (size 9 to 14) (size 15 to 20)
#    0.000    2.714    0.000    2.571    0.000    4.571 
#    0.000    5.714    0.000    2.571    0.000    0.000 
#    0.000    0.000    0.000    0.000    0.000    0.000 
#
# Total GULP energy -155889.110489 kJ/mol
# GULP energy per Si atom -5567.468232 kJ/mol
# Density = 2.229531 g / cm^3
# Si number density = 22.346174 Si / 1000 Ang^3
#
#
#
# Elastic Constant Matrix: (Units=GPa)
#
#
# Indices 1 2 3 4 5 6 
#
# 1 62.5429 3.8840 9.6062 0.0000 0.0000 0.0000
# 2 3.8840 122.4177 71.6177 0.0000 0.0000 0.0000
# 3 9.6062 71.6177 103.7107 0.0000 0.0000 0.0000
# 4 0.0000 0.0000 0.0000 17.8259 0.0000 0.0000
# 5 0.0000 0.0000 0.0000 0.0000 4.1298 0.0000
# 6 0.0000 0.0000 0.0000 0.0000 0.0000 19.5084
#
#
#
# Elastic Compliance Matrix: (Units=1/GPa)
#
#
# Indices 1 2 3 4 5 6 
#
# 1 0.016247 0.000612 -0.001928 0.000000 0.000000 0.000000
# 2 0.000612 0.013729 -0.009537 0.000000 0.000000 0.000000
# 3 -0.001928 -0.009537 0.016407 0.000000 0.000000 0.000000
# 4 0.000000 0.000000 0.000000 0.056098 0.000000 0.000000
# 5 0.000000 0.000000 0.000000 0.000000 0.242141 0.000000
# 6 0.000000 0.000000 0.000000 0.000000 0.000000 0.051260
#
#
# Mechanical properties :
#
#
# Convention : Reuss Voigt Hill
#
# Bulk Modulus (GPa) = 40.52294 50.98747 45.75520
# Shear Modulus (GPa) = 11.74225 21.86372 16.80299
#
# Velocity S-wave (km/s) = 2.29480 3.13135 2.74513
# Velocity P-wave (km/s) = 5.01946 5.99503 5.52881
#
# Compressibility (1/GPa) = 0.02467738
#
# Stress axis : x y z
#
# Youngs Moduli (GPa) = 61.54949 72.83939 60.95077
#
# Poissons Ratio (x) = -0.04460 0.11749
# Poissons Ratio (y) = -0.03769 0.58130
# Poissons Ratio (z) = 0.11865 0.69468
#
# Static dielectric constant tensor:
#      x y z
#    x 1.887320 0.000000 0.000000 
#    y 0.000000 1.871160 0.000000 
#    z 0.000000 0.000000 1.885010 
# 
# From -- ./inp_files/15408.got.cif
#   From: 2010.05.17/outbox.cif.g08.bks.cpg/sg65_8_cif.got.tgz:15408.got - 2010.06.03 17:01:31.
