data_PCOD9486604
_publ_section_title
;
Structure prediction by ZEFSAII (Michael W. Deem and Ramdas Pophale) SiO2 
 PCOD9486604
Probable space group: C M M M
;
_chemical_formula_sum "Si O2"
_cell_formula_units_Z 112
_cell_length_a 16.747663
_cell_length_b 17.308139
_cell_length_c 20.348344
_cell_angle_alpha 90.000000
_cell_angle_beta 90.000000
_cell_angle_gamma 90.000000
_cell_volume 5898.392364
_symmetry_space_group_name_H-M "C M M M"
_symmetry_group_IT_number 65
_symmetry_cell_setting 'orthorhombic'
loop_
_space_group_symop_operation_xyz
x,y,z
-x,-y,z
x,-y,-z
-x,y,-z
-x,-y,-z
x,y,-z
-x,y,z
x,-y,z
1/2+x,1/2+y,z
1/2-x,1/2-y,z
1/2+x,1/2-y,-z
1/2-x,1/2+y,-z
1/2-x,1/2-y,-z
1/2+x,1/2+y,-z
1/2-x,1/2+y,z
1/2+x,1/2-y,z
loop_
_atom_site_type_symbol
_atom_site_label
_atom_site_fract_x
_atom_site_fract_y
_atom_site_fract_z
Si Si1 0.594580 0.085714 0.605255
Si Si2 0.902892 0.216368 0.925468
Si Si3 0.360837 0.687469 0.714495
Si Si4 0.092934 0.915095 0.171334
Si Si5 0.846335 0.247598 0.428262
Si Si6 0.094727 0.329254 0.188285
Si Si7 0.792818 0.585868 0.268696
O O1 0.500000 0.090656 0.616054
O O2 0.622291 0.164312 0.571066
O O3 0.643492 0.087235 0.672618
O O4 0.610063 0.000000 0.575379
O O5 0.871589 0.145726 0.880544
O O6 0.887434 0.292215 0.882355
O O7 0.000000 0.210544 0.927737
O O8 0.873560 0.216580 0.000000
O O9 0.404209 0.619765 0.755343
O O10 0.377239 0.705259 0.637897
O O11 0.383727 0.763184 0.757054
O O12 0.270425 0.654716 0.720370
O O13 0.000000 0.920629 0.154273
O O14 0.128554 0.000000 0.166644
O O15 0.866399 0.212432 0.500000
O O16 0.750000 0.250000 0.422822
O O17 0.154531 0.398060 0.204568
O O18 0.000000 0.346147 0.193558
O O19 0.756327 0.500000 0.269307
#
# Coordination Sequence:
#
# PCOD9486604 Si02
#       7
#    16  16  16  16  16  16  16
#     4  10  21  37  56  80 109 138 174 223 276 324
#     4   8  15  28  48  77 109 138 172 216 267 320
#     4  11  19  35  54  76 103 138 176 222 264 321
#     4   9  18  31  51  78 105 138 179 225 272 314
#     4  11  22  37  56  78 105 140 178 217 264 327
#     4  10  19  32  55  81 107 140 177 222 271 317
#     4  11  21  33  53  79 105 140 181 222 269 318
#
# _framework density 18.988225
#
# number of rings (size 3 to 8) (size 9 to 14) (size 15 to 20)
#    0.000    2.000    2.857    2.571    0.000    2.286 
#    0.000    2.143    0.000    9.000    0.000    3.000 
#    0.000    0.000    0.000    0.000    0.000    0.000 
#
# Total GULP energy -311794.454272 kJ/mol
# GULP energy per Si atom -5567.758112 kJ/mol
# Density = 1.894501 g / cm^3
# Si number density = 18.988225 Si / 1000 Ang^3
#
#
#
# Elastic Constant Matrix: (Units=GPa)
#
#
# Indices 1 2 3 4 5 6 
#
# 1 50.3182 11.6017 6.0566 0.0000 0.0000 0.0000
# 2 11.6017 45.5977 18.9958 0.0000 0.0000 0.0000
# 3 6.0566 18.9958 144.5198 0.0000 0.0000 0.0000
# 4 0.0000 0.0000 0.0000 13.1956 0.0000 0.0000
# 5 0.0000 0.0000 0.0000 0.0000 14.5182 0.0000
# 6 0.0000 0.0000 0.0000 0.0000 0.0000 25.2769
#
#
#
# Elastic Compliance Matrix: (Units=1/GPa)
#
#
# Indices 1 2 3 4 5 6 
#
# 1 0.021117 -0.005294 -0.000189 0.000000 0.000000 0.000000
# 2 -0.005294 0.024529 -0.003002 0.000000 0.000000 0.000000
# 3 -0.000189 -0.003002 0.007322 0.000000 0.000000 0.000000
# 4 0.000000 0.000000 0.000000 0.075783 0.000000 0.000000
# 5 0.000000 0.000000 0.000000 0.000000 0.068879 0.000000
# 6 0.000000 0.000000 0.000000 0.000000 0.000000 0.039562
#
#
# Mechanical properties :
#
#
# Convention : Reuss Voigt Hill
#
# Bulk Modulus (GPa) = 27.78030 34.86042 31.32036
# Shear Modulus (GPa) = 18.78563 24.18358 21.48461
#
# Velocity S-wave (km/s) = 3.14877 3.57264 3.36738
# Velocity P-wave (km/s) = 5.28032 5.95123 5.62578
#
# Compressibility (1/GPa) = 0.03599673
#
# Stress axis : x y z
#
# Youngs Moduli (GPa) = 47.35541 40.76871 136.57460
#
# Poissons Ratio (x) = 0.21583 0.02583
# Poissons Ratio (y) = 0.25070 0.41002
# Poissons Ratio (z) = 0.00896 0.12240
#
# Static dielectric constant tensor:
#      x y z
#    x 1.699500 0.000000 0.000000 
#    y 0.000000 1.703610 0.000000 
#    z 0.000000 0.000000 1.678010 
# 
# From -- ./inp_files/63956.got.cif
#   From: 2010.05.17/outbox.cif.g08.bks.cpg/sg65_32_cif.got.tgz:63956.got - 2010.06.03 17:01:31.
