data_PCOD9486978
_publ_section_title
;
Structure prediction by ZEFSAII (Michael W. Deem and Ramdas Pophale) SiO2 
 PCOD9486978
Probable space group: C M M M
;
_chemical_formula_sum "Si O2"
_cell_formula_units_Z 88
_cell_length_a 7.658033
_cell_length_b 18.529382
_cell_length_c 29.447059
_cell_angle_alpha 90.000000
_cell_angle_beta 90.000000
_cell_angle_gamma 90.000000
_cell_volume 4178.497001
_symmetry_space_group_name_H-M "C M M M"
_symmetry_group_IT_number 65
_symmetry_cell_setting 'orthorhombic'
loop_
_space_group_symop_operation_xyz
x,y,z
-x,-y,z
x,-y,-z
-x,y,-z
-x,-y,-z
x,y,-z
-x,y,z
x,-y,z
1/2+x,1/2+y,z
1/2-x,1/2-y,z
1/2+x,1/2-y,-z
1/2-x,1/2+y,-z
1/2-x,1/2-y,-z
1/2+x,1/2+y,-z
1/2-x,1/2+y,z
1/2+x,1/2-y,z
loop_
_atom_site_type_symbol
_atom_site_label
_atom_site_fract_x
_atom_site_fract_y
_atom_site_fract_z
Si Si1 0.285971 0.083683 0.909419
Si Si2 0.207254 0.334469 0.819483
Si Si3 0.290378 0.834649 0.000000
Si Si4 0.708219 0.418573 0.272124
Si Si5 0.289878 0.334077 0.639602
Si Si6 0.287047 0.416154 0.449380
O O1 0.500000 0.084671 0.909403
O O2 0.224081 0.124330 0.864070
O O3 0.226858 0.125827 0.954432
O O4 0.233364 0.000000 0.909891
O O5 0.250000 0.250000 0.820203
O O6 0.264724 0.372468 0.773166
O O7 0.000000 0.341101 0.820962
O O8 0.250000 0.750000 0.000000
O O9 0.500000 0.841832 0.000000
O O10 0.500000 0.424194 0.278259
O O11 0.778099 0.500000 0.267498
O O12 0.777620 0.377738 0.316665
O O13 0.500000 0.341538 0.639159
O O14 0.250000 0.250000 0.643522
O O15 0.224739 0.367706 0.592261
O O16 0.229885 0.393712 0.500000
O O17 0.500000 0.414260 0.449490
O O18 0.238175 0.500000 0.442527
#
# Coordination Sequence:
#
# PCOD9486978 Si02
#       6
#    16  16   8  16  16  16
#     4   9  18  33  54  79 104 134 174 215 254 301
#     4  11  22  36  55  79 108 139 173 214 258 307
#     4  10  19  33  55  79 105 136 170 210 256 306
#     4  10  21  37  56  77 102 134 173 216 261 308
#     4  10  20  33  50  74 103 133 166 206 252 302
#     4   8  14  27  49  74  97 125 165 209 249 293
#
# _framework density 21.060203000000001
#
# number of rings (size 3 to 8) (size 9 to 14) (size 15 to 20)
#    0.000    2.364    0.000    3.545    0.000    6.909 
#    0.000    0.909    0.000    4.909    0.000    1.273 
#    0.000    0.000    0.000    0.000    0.000    0.000 
#
# Total GULP energy -245811.166714 kJ/mol
# GULP energy per Si atom -5586.617425 kJ/mol
# Density = 2.101227 g / cm^3
# Si number density = 21.060203 Si / 1000 Ang^3
#
#
#
# Elastic Constant Matrix: (Units=GPa)
#
#
# Indices 1 2 3 4 5 6 
#
# 1 39.1330 -0.6320 6.8241 0.0000 0.0000 0.0000
# 2 -0.6320 210.8804 146.7615 0.0000 0.0000 0.0000
# 3 6.8241 146.7615 237.8600 0.0000 0.0000 0.0000
# 4 0.0000 0.0000 0.0000 33.1186 0.0000 0.0000
# 5 0.0000 0.0000 0.0000 0.0000 11.4358 0.0000
# 6 0.0000 0.0000 0.0000 0.0000 0.0000 20.0176
#
#
#
# Elastic Compliance Matrix: (Units=1/GPa)
#
#
# Indices 1 2 3 4 5 6 
#
# 1 0.025812 0.001039 -0.001381 0.000000 0.000000 0.000000
# 2 0.001039 0.008352 -0.005183 0.000000 0.000000 0.000000
# 3 -0.001381 -0.005183 0.007442 0.000000 0.000000 0.000000
# 4 0.000000 0.000000 0.000000 0.030195 0.000000 0.000000
# 5 0.000000 0.000000 0.000000 0.000000 0.087445 0.000000
# 6 0.000000 0.000000 0.000000 0.000000 0.000000 0.049956
#
#
# Mechanical properties :
#
#
# Convention : Reuss Voigt Hill
#
# Bulk Modulus (GPa) = 32.72901 88.19783 60.46342
# Shear Modulus (GPa) = 21.69781 35.24240 28.47011
#
# Velocity S-wave (km/s) = 3.21327 4.09517 3.68073
# Velocity P-wave (km/s) = 5.41676 8.02062 6.84367
#
# Compressibility (1/GPa) = 0.03055393
#
# Stress axis : x y z
#
# Youngs Moduli (GPa) = 38.74235 119.72518 134.37346
#
# Poissons Ratio (x) = -0.12437 0.18563
# Poissons Ratio (y) = -0.04024 0.69650
# Poissons Ratio (z) = 0.05352 0.62058
#
# Static dielectric constant tensor:
#      x y z
#    x 1.807980 0.000000 0.000000 
#    y 0.000000 1.701210 0.000000 
#    z 0.000000 0.000000 1.746070 
# 
# From -- ./inp_files/76554.got.cif
#   From: 2010.05.17/outbox.cif.g08.bks.cpg/sg65_39_cif.got.tgz:76554.got - 2010.06.03 17:01:31.
