data_PCOD9486698
_publ_section_title
;
Structure prediction by ZEFSAII (Michael W. Deem and Ramdas Pophale) SiO2 
 PCOD9486698
Probable space group: C M M M
;
_chemical_formula_sum "Si O2"
_cell_formula_units_Z 72
_cell_length_a 24.276037
_cell_length_b 22.226450
_cell_length_c 7.575222
_cell_angle_alpha 90.000000
_cell_angle_beta 90.000000
_cell_angle_gamma 90.000000
_cell_volume 4087.363463
_symmetry_space_group_name_H-M "C M M M"
_symmetry_group_IT_number 65
_symmetry_cell_setting 'orthorhombic'
loop_
_space_group_symop_operation_xyz
x,y,z
-x,-y,z
x,-y,-z
-x,y,-z
-x,-y,-z
x,y,-z
-x,y,z
x,-y,z
1/2+x,1/2+y,z
1/2-x,1/2-y,z
1/2+x,1/2-y,-z
1/2-x,1/2+y,-z
1/2-x,1/2-y,-z
1/2+x,1/2+y,-z
1/2-x,1/2+y,z
1/2+x,1/2-y,z
loop_
_atom_site_type_symbol
_atom_site_label
_atom_site_fract_x
_atom_site_fract_y
_atom_site_fract_z
Si Si1 0.937616 0.500000 0.210436
Si Si2 0.935617 0.166288 0.000000
Si Si3 0.250309 0.928197 0.292020
Si Si4 0.564483 0.233083 0.709750
Si Si5 0.160173 0.071497 0.000000
Si Si6 0.366925 0.118221 0.290372
O O1 0.904427 0.559593 0.262244
O O2 0.000000 0.500000 0.281845
O O3 0.940749 0.500000 0.000000
O O4 0.925979 0.208532 0.828997
O O5 0.894477 0.110743 0.000000
O O6 0.000000 0.148571 0.000000
O O7 0.241011 0.915313 0.500000
O O8 0.198058 0.914764 0.170667
O O9 0.305232 0.894677 0.225472
O O10 0.261416 0.000000 0.277677
O O11 0.573350 0.243849 0.500000
O O12 0.500000 0.215900 0.731298
O O13 0.602399 0.177962 0.773273
O O14 0.148763 0.000000 0.000000
O O15 0.361440 0.125504 0.500000
#
# Coordination Sequence:
#
# PCOD9486698 Si02
#       6
#     8   8  16  16   8  16
#     4  11  23  29  41  75 113 149 193 244 275 292
#     4  10  22  40  61  82 105 133 170 216 272 340
#     4   9  18  33  53  80 111 145 182 219 264 315
#     4   9  19  35  55  78 108 148 186 221 264 313
#     4  10  22  38  61  85 104 134 165 215 281 334
#     4  10  19  33  52  74 105 149 194 229 262 304
#
# _framework density 17.615268
#
# number of rings (size 3 to 8) (size 9 to 14) (size 15 to 20)
#    0.000    2.333    1.111    1.000    3.111    2.889 
#    0.000    2.222    0.000    4.000    0.000    6.222 
#    0.000    0.000    0.000    0.000    0.000    0.000 
#
# Total GULP energy -200837.213062 kJ/mol
# GULP energy per Si atom -5578.811474 kJ/mol
# Density = 1.757517 g / cm^3
# Si number density = 17.615268 Si / 1000 Ang^3
#
#
#
# Elastic Constant Matrix: (Units=GPa)
#
#
# Indices 1 2 3 4 5 6 
#
# 1 145.1534 98.9930 50.7963 0.0000 0.0000 0.0000
# 2 98.9930 91.8650 38.9476 0.0000 0.0000 0.0000
# 3 50.7963 38.9476 73.7406 0.0000 0.0000 0.0000
# 4 0.0000 0.0000 0.0000 17.1367 0.0000 0.0000
# 5 0.0000 0.0000 0.0000 0.0000 8.9286 0.0000
# 6 0.0000 0.0000 0.0000 0.0000 0.0000 37.0936
#
#
#
# Elastic Compliance Matrix: (Units=1/GPa)
#
#
# Indices 1 2 3 4 5 6 
#
# 1 0.026941 -0.027270 -0.004155 0.000000 0.000000 0.000000
# 2 -0.027270 0.041629 -0.003202 0.000000 0.000000 0.000000
# 3 -0.004155 -0.003202 0.018115 0.000000 0.000000 0.000000
# 4 0.000000 0.000000 0.000000 0.058354 0.000000 0.000000
# 5 0.000000 0.000000 0.000000 0.000000 0.112000 0.000000
# 6 0.000000 0.000000 0.000000 0.000000 0.000000 0.026959
#
#
# Mechanical properties :
#
#
# Convention : Reuss Voigt Hill
#
# Bulk Modulus (GPa) = 57.37248 76.47033 66.92140
# Shear Modulus (GPa) = 13.92514 20.76659 17.34587
#
# Velocity S-wave (km/s) = 2.81466 3.43723 3.14141
# Velocity P-wave (km/s) = 6.57294 7.69795 7.15758
#
# Compressibility (1/GPa) = 0.01742996
#
# Stress axis : x y z
#
# Youngs Moduli (GPa) = 37.11790 24.02167 55.20348
#
# Poissons Ratio (x) = 0.65507 0.22939
# Poissons Ratio (y) = 1.01220 0.17678
# Poissons Ratio (z) = 0.15424 0.07693
#
# Static dielectric constant tensor:
#      x y z
#    x 1.593940 0.000000 0.000000 
#    y 0.000000 1.556310 0.000000 
#    z 0.000000 0.000000 1.623310 
# 
# From -- ./inp_files/11287.got.cif
#   From: 2010.05.17/outbox.cif.g08.bks.cpg/sg65_6_cif.got.tgz:11287.got - 2010.06.03 17:01:31.
