data_PCOD9486925
_publ_section_title
;
Structure prediction by ZEFSAII (Michael W. Deem and Ramdas Pophale) SiO2 
 PCOD9486925
Probable space group: C M M M
;
_chemical_formula_sum "Si O2"
_cell_formula_units_Z 104
_cell_length_a 29.890538
_cell_length_b 8.724206
_cell_length_c 20.762249
_cell_angle_alpha 90.000000
_cell_angle_beta 90.000000
_cell_angle_gamma 90.000000
_cell_volume 5414.196814
_symmetry_space_group_name_H-M "C M M M"
_symmetry_group_IT_number 65
_symmetry_cell_setting 'orthorhombic'
loop_
_space_group_symop_operation_xyz
x,y,z
-x,-y,z
x,-y,-z
-x,y,-z
-x,-y,-z
x,y,-z
-x,y,z
x,-y,z
1/2+x,1/2+y,z
1/2-x,1/2-y,z
1/2+x,1/2-y,-z
1/2-x,1/2+y,-z
1/2-x,1/2-y,-z
1/2+x,1/2+y,-z
1/2-x,1/2+y,z
1/2+x,1/2-y,z
loop_
_atom_site_type_symbol
_atom_site_label
_atom_site_fract_x
_atom_site_fract_y
_atom_site_fract_z
Si Si1 0.447778 0.679575 0.754537
Si Si2 0.948260 0.686830 0.000000
Si Si3 0.701449 0.816728 0.681537
Si Si4 0.106373 0.314276 0.126653
Si Si5 0.140601 0.817783 0.429535
Si Si6 0.201720 0.315774 0.169711
Si Si7 0.448959 0.817869 0.613632
O O1 0.500000 0.693204 0.773925
O O2 0.438391 0.500000 0.742355
O O3 0.417059 0.744939 0.810597
O O4 0.442435 0.773091 0.688548
O O5 0.921119 0.734202 0.063598
O O6 0.949054 0.500000 0.000000
O O7 0.000000 0.738343 0.000000
O O8 0.750000 0.750000 0.664773
O O9 0.666010 0.757809 0.630086
O O10 0.692210 0.769437 0.755717
O O11 0.702572 0.000000 0.679973
O O12 0.104351 0.500000 0.130794
O O13 0.158735 0.270177 0.127680
O O14 0.158174 0.768957 0.500000
O O15 0.088907 0.770356 0.424765
O O16 0.144982 0.000000 0.424494
O O17 0.204929 0.500000 0.168507
O O18 0.250000 0.250000 0.151028
O O19 0.500000 0.776528 0.596310
O O20 0.443611 0.000000 0.605466
#
# Coordination Sequence:
#
# PCOD9486925 Si02
#       7
#    16   8  16  16  16  16  16
#     4  10  20  33  52  80 110 139 174 220 276 331
#     4   9  18  32  52  79 111 149 189 227 268 315
#     4  10  20  36  58  82 108 139 178 226 281 335
#     4  10  19  33  54  79 108 144 187 228 267 316
#     4  11  24  39  55  78 109 145 183 223 272 330
#     4   9  19  34  54  80 106 134 172 221 273 322
#     4  10  21  37  57  80 106 139 181 228 276 327
#
# _framework density 19.208758
#
# number of rings (size 3 to 8) (size 9 to 14) (size 15 to 20)
#    0.000    2.077    0.000    3.231    0.000    6.769 
#    0.000    2.308    0.000    1.385    0.000    0.000 
#    0.000    0.000    0.000    0.000    0.000    0.000 
#
# Total GULP energy -290401.843266 kJ/mol
# GULP energy per Si atom -5584.650832 kJ/mol
# Density = 1.916504 g / cm^3
# Si number density = 19.208758 Si / 1000 Ang^3
#
#
#
# Elastic Constant Matrix: (Units=GPa)
#
#
# Indices 1 2 3 4 5 6 
#
# 1 122.9078 20.9432 58.4403 0.0000 0.0000 0.0000
# 2 20.9432 21.9530 7.1697 0.0000 0.0000 0.0000
# 3 58.4403 7.1697 47.5646 0.0000 0.0000 0.0000
# 4 0.0000 0.0000 0.0000 11.0025 0.0000 0.0000
# 5 0.0000 0.0000 0.0000 0.0000 3.6317 0.0000
# 6 0.0000 0.0000 0.0000 0.0000 0.0000 33.1512
#
#
#
# Elastic Compliance Matrix: (Units=1/GPa)
#
#
# Indices 1 2 3 4 5 6 
#
# 1 0.022701 -0.013197 -0.025902 0.000000 0.000000 0.000000
# 2 -0.013197 0.055583 0.007837 0.000000 0.000000 0.000000
# 3 -0.025902 0.007837 0.051668 0.000000 0.000000 0.000000
# 4 0.000000 0.000000 0.000000 0.090888 0.000000 0.000000
# 5 0.000000 0.000000 0.000000 0.000000 0.275350 0.000000
# 6 0.000000 0.000000 0.000000 0.000000 0.000000 0.030165
#
#
# Mechanical properties :
#
#
# Convention : Reuss Voigt Hill
#
# Bulk Modulus (GPa) = 14.83119 40.61463 27.72291
# Shear Modulus (GPa) = 8.17854 16.61524 12.39689
#
# Velocity S-wave (km/s) = 2.06566 2.94425 2.54318
# Velocity P-wave (km/s) = 3.66430 5.72257 4.80494
#
# Compressibility (1/GPa) = 0.06742548
#
# Stress axis : x y z
#
# Youngs Moduli (GPa) = 44.05077 17.99120 19.35438
#
# Poissons Ratio (x) = 0.23744 0.50133
# Poissons Ratio (y) = 0.58135 -0.15167
# Poissons Ratio (z) = 1.14102 -0.14099
#
# Static dielectric constant tensor:
#      x y z
#    x 1.672860 0.000000 0.000000 
#    y 0.000000 1.644350 0.000000 
#    z 0.000000 0.000000 1.661510 
# 
# From -- ./inp_files/65918.got.cif
#   From: 2010.05.17/outbox.cif.g08.bks.cpg/sg65_33_cif.got.tgz:65918.got - 2010.06.03 17:01:31.
