data_PCOD9486666
_publ_section_title
;
Structure prediction by ZEFSAII (Michael W. Deem and Ramdas Pophale) SiO2 
 PCOD9486666
Probable space group: C M M M
;
_chemical_formula_sum "Si O2"
_cell_formula_units_Z 88
_cell_length_a 8.573051
_cell_length_b 26.312426
_cell_length_c 23.311670
_cell_angle_alpha 90.000000
_cell_angle_beta 90.000000
_cell_angle_gamma 90.000000
_cell_volume 5258.594534
_symmetry_space_group_name_H-M "C M M M"
_symmetry_group_IT_number 65
_symmetry_cell_setting 'orthorhombic'
loop_
_space_group_symop_operation_xyz
x,y,z
-x,-y,z
x,-y,-z
-x,y,-z
-x,-y,-z
x,y,-z
-x,y,z
x,-y,z
1/2+x,1/2+y,z
1/2-x,1/2-y,z
1/2+x,1/2-y,-z
1/2-x,1/2+y,-z
1/2-x,1/2-y,-z
1/2+x,1/2+y,-z
1/2-x,1/2+y,z
1/2+x,1/2-y,z
loop_
_atom_site_type_symbol
_atom_site_label
_atom_site_fract_x
_atom_site_fract_y
_atom_site_fract_z
Si Si1 0.690280 0.109875 0.156201
Si Si2 0.811802 0.693853 0.065125
Si Si3 0.678965 0.000000 0.850369
Si Si4 0.687537 0.807309 0.500000
Si Si5 0.314313 0.609410 0.714835
Si Si6 0.821064 0.500000 0.711005
Si Si7 0.312131 0.807877 0.373590
O O1 0.500000 0.108155 0.158381
O O2 0.739491 0.153630 0.112652
O O3 0.747899 0.054580 0.134307
O O4 0.749355 0.117563 0.220770
O O5 0.750000 0.750000 0.077768
O O6 0.000000 0.694909 0.065917
O O7 0.762880 0.680445 0.000000
O O8 0.677159 0.000000 0.780772
O O9 0.500000 0.000000 0.871174
O O10 0.500000 0.806872 0.500000
O O11 0.750000 0.750000 0.500000
O O12 0.735687 0.827639 0.562464
O O13 0.500000 0.610473 0.716361
O O14 0.258953 0.553176 0.694796
O O15 0.251416 0.653604 0.673710
O O16 0.000000 0.500000 0.691380
O O17 0.500000 0.806256 0.370619
O O18 0.250000 0.750000 0.366586
#
# Coordination Sequence:
#
# PCOD9486666 Si02
#       7
#    16  16   8   8  16   8  16
#     4   9  17  31  49  68  93 125 159 197 242 289
#     4   9  18  32  49  68  91 122 161 200 238 286
#     4   7  12  25  46  67  86 113 148 185 230 280
#     4   8  16  30  50  71  94 127 166 202 240 290
#     4  11  21  32  49  76 104 131 164 202 244 293
#     4   9  17  33  53  71  95 131 168 202 243 290
#     4  10  19  33  51  74 102 132 165 203 247 293
#
# _framework density 16.73451
#
# number of rings (size 3 to 8) (size 9 to 14) (size 15 to 20)
#    0.000    2.727    0.000    3.545    0.000    2.182 
#    0.000    2.273    0.000    3.273    0.000    3.818 
#    0.000    7.273    0.000    0.000    0.000    0.000 
#
# Total GULP energy -244995.556723 kJ/mol
# GULP energy per Si atom -5568.080835 kJ/mol
# Density = 1.669642 g / cm^3
# Si number density = 16.734510 Si / 1000 Ang^3
#
#
#
# Elastic Constant Matrix: (Units=GPa)
#
#
# Indices 1 2 3 4 5 6 
#
# 1 50.2262 38.1638 29.9827 0.0000 0.0000 0.0000
# 2 38.1638 142.0014 98.8162 0.0000 0.0000 0.0000
# 3 29.9827 98.8162 109.7617 0.0000 0.0000 0.0000
# 4 0.0000 0.0000 0.0000 -5.3313 0.0000 0.0000
# 5 0.0000 0.0000 0.0000 0.0000 13.6704 0.0000
# 6 0.0000 0.0000 0.0000 0.0000 0.0000 25.2926
#
#
#
# Elastic Compliance Matrix: (Units=1/GPa)
#
#
# Indices 1 2 3 4 5 6 
#
# 1 0.025200 -0.005307 -0.002105 0.000000 0.000000 0.000000
# 2 -0.005307 0.019972 -0.016530 0.000000 0.000000 0.000000
# 3 -0.002105 -0.016530 0.024568 0.000000 0.000000 0.000000
# 4 0.000000 0.000000 0.000000 -0.187571 0.000000 0.000000
# 5 0.000000 0.000000 0.000000 0.000000 0.073151 0.000000
# 6 0.000000 0.000000 0.000000 0.000000 0.000000 0.039537
#
#
# Mechanical properties :
#
#
# Convention : Reuss Voigt Hill
#
# Bulk Modulus (GPa) = 45.76106 70.65720 58.20913
# Shear Modulus (GPa) = 99.94644 15.72810 57.83727
#
# Velocity S-wave (km/s) = 7.73656 3.06904 5.88530
# Velocity P-wave (km/s) = 10.35425 7.40762 9.00231
#
# Compressibility (1/GPa) = 0.02185264
#
# Stress axis : x y z
#
# Youngs Moduli (GPa) = 39.68324 50.07050 40.70373
#
# Poissons Ratio (x) = 0.26575 0.08570
# Poissons Ratio (y) = 0.21062 0.67285
# Poissons Ratio (z) = 0.08355 0.82769
#
# Static dielectric constant tensor:
#      x y z
#    x 1.572220 0.000000 0.000000 
#    y 0.000000 1.562510 0.000000 
#    z 0.000000 0.000000 1.565160 
# 
# From -- ./inp_files/67653.got.cif
#   From: 2010.05.17/outbox.cif.g08.bks.cpg/sg65_34_cif.got.tgz:67653.got - 2010.06.03 17:01:31.
