data_PCOD9486593
_publ_section_title
;
Structure prediction by ZEFSAII (Michael W. Deem and Ramdas Pophale) SiO2 
 PCOD9486593
Probable space group: C M M M
;
_chemical_formula_sum "Si O2"
_cell_formula_units_Z 100
_cell_length_a 8.982182
_cell_length_b 29.013104
_cell_length_c 22.553253
_cell_angle_alpha 90.000000
_cell_angle_beta 90.000000
_cell_angle_gamma 90.000000
_cell_volume 5877.399846
_symmetry_space_group_name_H-M "C M M M"
_symmetry_group_IT_number 65
_symmetry_cell_setting 'orthorhombic'
loop_
_space_group_symop_operation_xyz
x,y,z
-x,-y,z
x,-y,-z
-x,y,-z
-x,-y,-z
x,y,-z
-x,y,z
x,-y,z
1/2+x,1/2+y,z
1/2-x,1/2-y,z
1/2+x,1/2-y,-z
1/2-x,1/2+y,-z
1/2-x,1/2-y,-z
1/2+x,1/2+y,-z
1/2-x,1/2+y,z
1/2+x,1/2-y,z
loop_
_atom_site_type_symbol
_atom_site_label
_atom_site_fract_x
_atom_site_fract_y
_atom_site_fract_z
Si Si1 0.822433 0.138082 0.167600
Si Si2 0.835218 0.358378 0.614306
Si Si3 0.823348 0.700608 0.929890
Si Si4 0.822832 0.199868 0.715895
Si Si5 0.323293 0.053108 0.772728
Si Si6 0.321940 0.447390 0.357246
Si Si7 0.500000 0.170782 0.500000
O O1 0.752423 0.162195 0.110461
O O2 0.792517 0.170935 0.224459
O O3 0.747357 0.089467 0.182585
O O4 0.000000 0.133387 0.161706
O O5 0.743209 0.327845 0.660159
O O6 0.753710 0.407145 0.604978
O O7 0.872269 0.333199 0.552826
O O8 0.000000 0.368032 0.640884
O O9 0.750000 0.750000 0.915623
O O10 0.000000 0.702671 0.918614
O O11 0.800398 0.692175 0.000000
O O12 0.750000 0.250000 0.719623
O O13 0.000000 0.204259 0.709353
O O14 0.500000 0.060751 0.766164
O O15 0.242337 0.058699 0.709177
O O16 0.300683 0.000000 0.791117
O O17 0.500000 0.442019 0.356136
O O18 0.287314 0.500000 0.376074
#
# Coordination Sequence:
#
# PCOD9486593 Si02
#       7
#    16  16  16  16  16  16   4
#     4  11  22  35  56  88 120 151 191 237 288 340
#     4  10  20  39  59  78 108 141 184 230 279 334
#     4  10  21  37  57  82 118 161 202 240 283 340
#     4  11  23  37  58  86 113 144 181 236 292 337
#     4  10  20  33  53  84 117 152 189 232 285 340
#     4  10  19  32  54  84 115 147 183 226 281 342
#     4   8  24  40  61  82 106 148 188 234 279 342
#
# _framework density 17.014326000000001
#
# number of rings (size 3 to 8) (size 9 to 14) (size 15 to 20)
#    0.480    1.280    1.600    3.360    0.000    6.080 
#    0.000    2.800    0.000    1.440    0.000    3.360 
#    0.000    0.000    0.000    0.000    0.000    0.000 
#
# Total GULP energy -278456.984179 kJ/mol
# GULP energy per Si atom -5569.139684 kJ/mol
# Density = 1.697560 g / cm^3
# Si number density = 17.014326 Si / 1000 Ang^3
#
#
#
# Elastic Constant Matrix: (Units=GPa)
#
#
# Indices 1 2 3 4 5 6 
#
# 1 74.0525 34.2935 28.4523 0.0000 0.0000 0.0000
# 2 34.2935 59.9857 15.9042 0.0000 0.0000 0.0000
# 3 28.4523 15.9042 47.9546 0.0000 0.0000 0.0000
# 4 0.0000 0.0000 0.0000 2.2112 0.0000 0.0000
# 5 0.0000 0.0000 0.0000 0.0000 26.6119 0.0000
# 6 0.0000 0.0000 0.0000 0.0000 0.0000 32.6139
#
#
#
# Elastic Compliance Matrix: (Units=1/GPa)
#
#
# Indices 1 2 3 4 5 6 
#
# 1 0.021797 -0.009903 -0.009648 0.000000 0.000000 0.000000
# 2 -0.009903 0.022777 -0.001678 0.000000 0.000000 0.000000
# 3 -0.009648 -0.001678 0.027134 0.000000 0.000000 0.000000
# 4 0.000000 0.000000 0.000000 0.452252 0.000000 0.000000
# 5 0.000000 0.000000 0.000000 0.000000 0.037577 0.000000
# 6 0.000000 0.000000 0.000000 0.000000 0.000000 0.030662
#
#
# Mechanical properties :
#
#
# Convention : Reuss Voigt Hill
#
# Bulk Modulus (GPa) = 34.18928 37.69922 35.94425
# Shear Modulus (GPa) = 7.75905 19.17691 13.46798
#
# Velocity S-wave (km/s) = 2.13780 3.36088 2.81653
# Velocity P-wave (km/s) = 5.12168 6.10460 5.63461
#
# Compressibility (1/GPa) = 0.02924894
#
# Stress axis : x y z
#
# Youngs Moduli (GPa) = 45.87770 43.90349 36.85398
#
# Poissons Ratio (x) = 0.43479 0.35557
# Poissons Ratio (y) = 0.45434 0.06185
# Poissons Ratio (z) = 0.44264 0.07369
#
# Static dielectric constant tensor:
#      x y z
#    x 1.574470 0.000000 0.000000 
#    y 0.000000 1.581780 0.000000 
#    z 0.000000 0.000000 1.549650 
# 
# From -- ./inp_files/60827.got.cif
#   From: 2010.05.17/outbox.cif.g08.bks.cpg/sg65_31_cif.got.tgz:60827.got - 2010.06.03 17:01:31.
