data_PCOD9486537
_publ_section_title
;
Structure prediction by ZEFSAII (Michael W. Deem and Ramdas Pophale) SiO2 
 PCOD9486537
Probable space group: C M M M
;
_chemical_formula_sum "Si O2"
_cell_formula_units_Z 88
_cell_length_a 8.291541
_cell_length_b 18.315837
_cell_length_c 31.391294
_cell_angle_alpha 90.000000
_cell_angle_beta 90.000000
_cell_angle_gamma 90.000000
_cell_volume 4767.286372
_symmetry_space_group_name_H-M "C M M M"
_symmetry_group_IT_number 65
_symmetry_cell_setting 'orthorhombic'
loop_
_space_group_symop_operation_xyz
x,y,z
-x,-y,z
x,-y,-z
-x,y,-z
-x,-y,-z
x,y,-z
-x,y,z
x,-y,z
1/2+x,1/2+y,z
1/2-x,1/2-y,z
1/2+x,1/2-y,-z
1/2-x,1/2+y,-z
1/2-x,1/2-y,-z
1/2+x,1/2+y,-z
1/2-x,1/2+y,z
1/2+x,1/2-y,z
loop_
_atom_site_type_symbol
_atom_site_label
_atom_site_fract_x
_atom_site_fract_y
_atom_site_fract_z
Si Si1 0.191959 0.334069 0.219539
Si Si2 0.195182 0.334584 0.686616
Si Si3 0.500000 0.911118 0.450909
Si Si4 0.816473 0.088146 0.397343
Si Si5 0.689972 0.666758 0.869670
Si Si6 0.694329 0.914961 0.953360
O O1 0.250000 0.250000 0.219016
O O2 0.241990 0.363029 0.266018
O O3 0.249916 0.367468 0.175030
O O4 0.000000 0.334168 0.218791
O O5 0.250000 0.250000 0.683826
O O6 0.278057 0.379144 0.648982
O O7 0.000000 0.338391 0.682533
O O8 0.500000 0.887517 0.500000
O O9 0.334013 0.888288 0.427313
O O10 0.500000 0.000000 0.450367
O O11 0.000000 0.109135 0.410604
O O12 0.812398 0.000000 0.395703
O O13 0.500000 0.668074 0.867685
O O14 0.750000 0.750000 0.871905
O O15 0.744356 0.626391 0.912175
O O16 0.500000 0.911777 0.952989
O O17 0.741143 0.000000 0.950832
O O18 0.748731 0.886690 0.000000
#
# Coordination Sequence:
#
# PCOD9486537 Si02
#       6
#    16  16   8  16  16  16
#     4   9  17  30  49  73 103 136 173 213 256 305
#     4  10  19  32  53  80 107 141 180 220 262 318
#     4   9  18  34  56  80 108 142 181 225 270 322
#     4  10  20  34  54  81 111 142 179 226 272 316
#     4  11  21  33  52  76 104 135 167 212 257 302
#     4   9  19  37  58  76  97 128 166 208 256 313
#
# _framework density 18.459137999999999
#
# number of rings (size 3 to 8) (size 9 to 14) (size 15 to 20)
#    0.000    2.273    0.909    4.364    0.000    3.636 
#    0.000    3.636    0.000    1.636    0.000    0.000 
#    0.000    0.000    0.000    0.000    0.000    0.000 
#
# Total GULP energy -245214.101210 kJ/mol
# GULP energy per Si atom -5573.047755 kJ/mol
# Density = 1.841712 g / cm^3
# Si number density = 18.459138 Si / 1000 Ang^3
#
#
#
# Elastic Constant Matrix: (Units=GPa)
#
#
# Indices 1 2 3 4 5 6 
#
# 1 113.7228 21.4719 80.9959 0.0000 0.0000 0.0000
# 2 21.4719 11.7104 32.3980 0.0000 0.0000 0.0000
# 3 80.9959 32.3980 193.5427 0.0000 0.0000 0.0000
# 4 0.0000 0.0000 0.0000 28.0455 0.0000 0.0000
# 5 0.0000 0.0000 0.0000 0.0000 23.5912 0.0000
# 6 0.0000 0.0000 0.0000 0.0000 0.0000 17.4823
#
#
#
# Elastic Compliance Matrix: (Units=1/GPa)
#
#
# Indices 1 2 3 4 5 6 
#
# 1 0.014313 -0.018016 -0.002974 0.000000 0.000000 0.000000
# 2 -0.018016 0.181732 -0.022881 0.000000 0.000000 0.000000
# 3 -0.002974 -0.022881 0.010242 0.000000 0.000000 0.000000
# 4 0.000000 0.000000 0.000000 0.035656 0.000000 0.000000
# 5 0.000000 0.000000 0.000000 0.000000 0.042389 0.000000
# 6 0.000000 0.000000 0.000000 0.000000 0.000000 0.057201
#
#
# Mechanical properties :
#
#
# Convention : Reuss Voigt Hill
#
# Bulk Modulus (GPa) = 8.43570 65.41192 36.92381
# Shear Modulus (GPa) = 10.66575 26.09780 18.38177
#
# Velocity S-wave (km/s) = 2.40636 3.76415 3.15907
# Velocity P-wave (km/s) = 3.50722 7.37596 5.77518
#
# Compressibility (1/GPa) = 0.11854387
#
# Stress axis : x y z
#
# Youngs Moduli (GPa) = 69.86587 5.50260 97.64001
#
# Poissons Ratio (x) = 0.09913 0.29040
# Poissons Ratio (y) = 1.25870 2.23415
# Poissons Ratio (z) = 0.20779 0.12591
#
# Static dielectric constant tensor:
#      x y z
#    x 1.640230 0.000000 0.000000 
#    y 0.000000 1.596670 0.000000 
#    z 0.000000 0.000000 1.522110 
# 
# From -- ./inp_files/76486.got.cif
#   From: 2010.05.17/outbox.cif.g08.bks.cpg/sg65_39_cif.got.tgz:76486.got - 2010.06.03 17:01:31.
