data_PCOD9486452
_publ_section_title
;
Structure prediction by ZEFSAII (Michael W. Deem and Ramdas Pophale) SiO2 
 PCOD9486452
Probable space group: C M M M
;
_chemical_formula_sum "Si O2"
_cell_formula_units_Z 88
_cell_length_a 15.858311
_cell_length_b 18.480572
_cell_length_c 15.122567
_cell_angle_alpha 90.000000
_cell_angle_beta 90.000000
_cell_angle_gamma 90.000000
_cell_volume 4431.980665
_symmetry_space_group_name_H-M "C M M M"
_symmetry_group_IT_number 65
_symmetry_cell_setting 'orthorhombic'
loop_
_space_group_symop_operation_xyz
x,y,z
-x,-y,z
x,-y,-z
-x,y,-z
-x,-y,-z
x,y,-z
-x,y,z
x,-y,z
1/2+x,1/2+y,z
1/2-x,1/2-y,z
1/2+x,1/2-y,-z
1/2-x,1/2+y,-z
1/2-x,1/2-y,-z
1/2+x,1/2+y,-z
1/2-x,1/2+y,z
1/2+x,1/2-y,z
loop_
_atom_site_type_symbol
_atom_site_label
_atom_site_fract_x
_atom_site_fract_y
_atom_site_fract_z
Si Si1 0.096521 0.628846 0.723993
Si Si2 0.346362 0.721045 0.287733
Si Si3 0.811305 0.585966 0.900854
Si Si4 0.103393 0.500000 0.600402
Si Si5 0.601727 0.581632 0.604926
Si Si6 0.170794 0.193775 0.905257
O O1 0.102631 0.708426 0.682608
O O2 0.143520 0.623076 0.817854
O O3 0.130977 0.570078 0.655313
O O4 0.000000 0.609885 0.741865
O O5 0.250000 0.750000 0.287542
O O6 0.357227 0.648229 0.343001
O O7 0.374924 0.706396 0.186600
O O8 0.816373 0.500000 0.890051
O O9 0.716274 0.615964 0.900158
O O10 0.845018 0.603979 0.000000
O O11 0.133937 0.500000 0.500000
O O12 0.000000 0.500000 0.597165
O O13 0.618661 0.588061 0.500000
O O14 0.500000 0.586272 0.616310
O O15 0.627822 0.500000 0.632940
O O16 0.250000 0.250000 0.907164
O O17 0.126358 0.201420 0.000000
#
# Coordination Sequence:
#
# PCOD9486452 Si02
#       6
#    16  16  16   8  16  16
#     4  11  21  34  53  79 111 145 188 228 269 333
#     4  11  21  35  57  88 114 146 182 236 284 330
#     4  10  19  32  52  77 107 144 185 226 270 318
#     4   9  20  38  55  71 101 149 187 211 259 332
#     4   9  20  41  65  85 109 146 191 237 288 344
#     4   9  17  32  52  74 107 148 182 215 264 329
#
# _framework density 19.855682000000002
#
# number of rings (size 3 to 8) (size 9 to 14) (size 15 to 20)
#    0.000    2.091    4.545    1.091    0.000    2.182 
#    1.636    2.727    0.000    1.636    0.000    1.273 
#    0.000    0.000    0.000    0.000    0.000    0.000 
#
# Total GULP energy -245251.879161 kJ/mol
# GULP energy per Si atom -5573.906345 kJ/mol
# Density = 1.981049 g / cm^3
# Si number density = 19.855682 Si / 1000 Ang^3
#
#
#
# Elastic Constant Matrix: (Units=GPa)
#
#
# Indices 1 2 3 4 5 6 
#
# 1 13.0211 18.1769 14.4807 0.0000 0.0000 0.0000
# 2 18.1769 157.6275 81.4507 0.0000 0.0000 0.0000
# 3 14.4807 81.4507 118.7931 0.0000 0.0000 0.0000
# 4 0.0000 0.0000 0.0000 26.8433 0.0000 0.0000
# 5 0.0000 0.0000 0.0000 0.0000 16.6464 0.0000
# 6 0.0000 0.0000 0.0000 0.0000 0.0000 23.7350
#
#
#
# Elastic Compliance Matrix: (Units=1/GPa)
#
#
# Indices 1 2 3 4 5 6 
#
# 1 0.094451 -0.007654 -0.006265 0.000000 0.000000 0.000000
# 2 -0.007654 0.010445 -0.006229 0.000000 0.000000 0.000000
# 3 -0.006265 -0.006229 0.013453 0.000000 0.000000 0.000000
# 4 0.000000 0.000000 0.000000 0.037253 0.000000 0.000000
# 5 0.000000 0.000000 0.000000 0.000000 0.060073 0.000000
# 6 0.000000 0.000000 0.000000 0.000000 0.000000 0.042132
#
#
# Mechanical properties :
#
#
# Convention : Reuss Voigt Hill
#
# Bulk Modulus (GPa) = 12.81199 57.51757 35.16478
# Shear Modulus (GPa) = 15.42637 25.13384 20.28010
#
# Velocity S-wave (km/s) = 2.79036 3.56170 3.19936
# Velocity P-wave (km/s) = 4.10464 6.77828 5.60326
#
# Compressibility (1/GPa) = 0.07805188
#
# Stress axis : x y z
#
# Youngs Moduli (GPa) = 10.58755 95.73655 74.33539
#
# Poissons Ratio (x) = 0.73278 0.46573
# Poissons Ratio (y) = 0.08104 0.46302
# Poissons Ratio (z) = 0.06633 0.59633
#
# Static dielectric constant tensor:
#      x y z
#    x 1.741620 0.000000 0.000000 
#    y 0.000000 1.737810 0.000000 
#    z 0.000000 0.000000 1.731800 
# 
# From -- ./inp_files/42498.got.cif
#   From: 2010.05.17/outbox.cif.g08.bks.cpg/sg65_22_cif.got.tgz:42498.got - 2010.06.03 17:01:31.
