data_PCOD9486625
_publ_section_title
;
Structure prediction by ZEFSAII (Michael W. Deem and Ramdas Pophale) SiO2 
 PCOD9486625
Probable space group: C M M M
;
_chemical_formula_sum "Si O2"
_cell_formula_units_Z 88
_cell_length_a 22.405217
_cell_length_b 16.375168
_cell_length_c 17.306001
_cell_angle_alpha 90.000000
_cell_angle_beta 90.000000
_cell_angle_gamma 90.000000
_cell_volume 6349.384731
_symmetry_space_group_name_H-M "C M M M"
_symmetry_group_IT_number 65
_symmetry_cell_setting 'orthorhombic'
loop_
_space_group_symop_operation_xyz
x,y,z
-x,-y,z
x,-y,-z
-x,y,-z
-x,-y,-z
x,y,-z
-x,y,z
x,-y,z
1/2+x,1/2+y,z
1/2-x,1/2-y,z
1/2+x,1/2-y,-z
1/2-x,1/2+y,-z
1/2-x,1/2-y,-z
1/2+x,1/2+y,-z
1/2-x,1/2+y,z
1/2+x,1/2-y,z
loop_
_atom_site_type_symbol
_atom_site_label
_atom_site_fract_x
_atom_site_fract_y
_atom_site_fract_z
Si Si1 0.359974 0.336660 0.407967
Si Si2 0.572482 0.902790 0.170804
Si Si3 0.772253 0.403169 0.588630
Si Si4 0.568151 0.500000 0.406500
Si Si5 0.115672 0.668460 0.673763
Si Si6 0.000000 0.402290 0.410987
Si Si7 0.431337 0.901101 0.000000
O O1 0.370539 0.319746 0.500000
O O2 0.289760 0.356124 0.399521
O O3 0.396536 0.417891 0.385735
O O4 0.378577 0.261221 0.355061
O O5 0.500000 0.894151 0.174539
O O6 0.603122 0.849177 0.236598
O O7 0.593472 0.879053 0.084162
O O8 0.584262 0.000000 0.183470
O O9 0.792197 0.386867 0.500000
O O10 0.760827 0.500000 0.594856
O O11 0.824174 0.375706 0.645421
O O12 0.500000 0.500000 0.378406
O O13 0.566677 0.500000 0.500000
O O14 0.058995 0.629823 0.630272
O O15 0.000000 0.500000 0.407491
O O16 0.000000 0.376164 0.500000
O O17 0.500000 0.872696 0.000000
O O18 0.432932 0.000000 0.000000
#
# Coordination Sequence:
#
# PCOD9486625 Si02
#       7
#    16  16  16   8  16   8   8
#     4  10  20  34  47  63  85 116 160 201 233 266
#     4   9  16  28  43  64  93 121 148 179 219 268
#     4  10  19  33  48  61  83 120 162 197 227 262
#     4   9  18  32  50  64  80 110 152 204 249 270
#     4  12  21  28  44  67  92 119 150 190 225 267
#     4  11  22  32  38  56  94 132 154 169 208 268
#     4   7  12  24  44  62  83 119 151 175 212 265
#
# _framework density 13.859610999999999
#
# number of rings (size 3 to 8) (size 9 to 14) (size 15 to 20)
#    0.000    2.091    1.818    4.909    1.273    2.909 
#    0.000    0.000    0.000    0.000    0.000    2.545 
#    0.000    0.727    0.000    4.091    0.000    0.000 
#
# Total GULP energy -245270.683835 kJ/mol
# GULP energy per Si atom -5574.333724 kJ/mol
# Density = 1.382807 g / cm^3
# Si number density = 13.859611 Si / 1000 Ang^3
#
#
#
# Elastic Constant Matrix: (Units=GPa)
#
#
# Indices 1 2 3 4 5 6 
#
# 1 60.8451 22.1785 42.1914 0.0000 0.0000 0.0000
# 2 22.1785 65.4707 52.0572 0.0000 0.0000 0.0000
# 3 42.1914 52.0572 121.9123 0.0000 0.0000 0.0000
# 4 0.0000 0.0000 0.0000 20.7696 0.0000 0.0000
# 5 0.0000 0.0000 0.0000 0.0000 11.4930 0.0000
# 6 0.0000 0.0000 0.0000 0.0000 0.0000 63.1600
#
#
#
# Elastic Compliance Matrix: (Units=1/GPa)
#
#
# Indices 1 2 3 4 5 6 
#
# 1 0.021814 -0.002100 -0.006653 0.000000 0.000000 0.000000
# 2 -0.002100 0.023328 -0.009234 0.000000 0.000000 0.000000
# 3 -0.006653 -0.009234 0.014448 0.000000 0.000000 0.000000
# 4 0.000000 0.000000 0.000000 0.048147 0.000000 0.000000
# 5 0.000000 0.000000 0.000000 0.000000 0.087009 0.000000
# 6 0.000000 0.000000 0.000000 0.000000 0.000000 0.015833
#
#
# Mechanical properties :
#
#
# Convention : Reuss Voigt Hill
#
# Bulk Modulus (GPa) = 42.34446 53.45361 47.89904
# Shear Modulus (GPa) = 19.65218 27.87125 23.76171
#
# Velocity S-wave (km/s) = 3.76965 4.48925 4.14509
# Velocity P-wave (km/s) = 7.04029 8.09461 7.58579
#
# Compressibility (1/GPa) = 0.02361584
#
# Stress axis : x y z
#
# Youngs Moduli (GPa) = 45.84282 42.86734 69.21325
#
# Poissons Ratio (x) = 0.09001 0.46045
# Poissons Ratio (y) = 0.09626 0.63914
# Poissons Ratio (z) = 0.30498 0.39585
#
# Static dielectric constant tensor:
#      x y z
#    x 1.448490 0.000000 0.000000 
#    y 0.000000 1.455870 0.000000 
#    z 0.000000 0.000000 1.462100 
# 
# From -- ./inp_files/55798.got.cif
#   From: 2010.05.17/outbox.cif.g08.bks.cpg/sg65_28_cif.got.tgz:55798.got - 2010.06.03 17:01:31.
