data_PCOD9486412
_publ_section_title
;
Structure prediction by ZEFSAII (Michael W. Deem and Ramdas Pophale) SiO2 
 PCOD9486412
Probable space group: C M M M
;
_chemical_formula_sum "Si O2"
_cell_formula_units_Z 104
_cell_length_a 19.048944
_cell_length_b 8.772431
_cell_length_c 34.449213
_cell_angle_alpha 90.000000
_cell_angle_beta 90.000000
_cell_angle_gamma 90.000000
_cell_volume 5756.654577
_symmetry_space_group_name_H-M "C M M M"
_symmetry_group_IT_number 65
_symmetry_cell_setting 'orthorhombic'
loop_
_space_group_symop_operation_xyz
x,y,z
-x,-y,z
x,-y,-z
-x,y,-z
-x,-y,-z
x,y,-z
-x,y,z
x,-y,z
1/2+x,1/2+y,z
1/2-x,1/2-y,z
1/2+x,1/2-y,-z
1/2-x,1/2+y,-z
1/2-x,1/2-y,-z
1/2+x,1/2+y,-z
1/2-x,1/2+y,z
1/2+x,1/2-y,z
loop_
_atom_site_type_symbol
_atom_site_label
_atom_site_fract_x
_atom_site_fract_y
_atom_site_fract_z
Si Si1 0.828309 0.682608 0.915444
Si Si2 0.917194 0.183628 0.757504
Si Si3 0.081888 0.183043 0.153932
Si Si4 0.326421 0.683686 0.544235
Si Si5 0.581562 0.315540 0.617253
Si Si6 0.171371 0.683540 0.000000
Si Si7 0.828075 0.318367 0.312285
O O1 0.824418 0.500000 0.914079
O O2 0.750000 0.750000 0.913099
O O3 0.872796 0.742016 0.879518
O O4 0.859312 0.728302 0.958006
O O5 0.898592 0.226054 0.801875
O O6 0.868509 0.264462 0.726360
O O7 0.000000 0.218646 0.751327
O O8 0.910167 0.000000 0.753751
O O9 0.000000 0.221851 0.148833
O O10 0.088382 0.000000 0.151413
O O11 0.343374 0.731390 0.500000
O O12 0.321699 0.500000 0.544599
O O13 0.250000 0.750000 0.554295
O O14 0.383652 0.728139 0.576132
O O15 0.500000 0.271127 0.619646
O O16 0.584942 0.500000 0.620620
O O17 0.627018 0.243608 0.651513
O O18 0.250000 0.750000 0.000000
O O19 0.175113 0.500000 0.000000
O O20 0.824054 0.500000 0.313722
O O21 0.750000 0.250000 0.313353
#
# Coordination Sequence:
#
# PCOD9486412 Si02
#       7
#    16  16  16  16  16   8  16
#     4  10  19  32  52  76 103 136 175 219 263 310
#     4   9  19  38  61  81 105 138 173 212 261 315
#     4   9  19  36  56  78 106 139 173 211 258 312
#     4   9  18  33  54  80 109 143 183 224 266 313
#     4  10  21  37  57  81 111 146 181 220 268 319
#     4   8  16  30  47  70  99 133 173 215 261 308
#     4  12  25  39  57  81 109 140 177 221 265 313
#
# _framework density 18.066047999999999
#
# number of rings (size 3 to 8) (size 9 to 14) (size 15 to 20)
#    0.000    2.308    0.000    3.692    0.000    6.769 
#    0.000    3.462    0.000    2.308    0.000    3.231 
#    0.000    0.000    0.000    0.000    0.000    0.000 
#
# Total GULP energy -290134.562492 kJ/mol
# GULP energy per Si atom -5579.510817 kJ/mol
# Density = 1.802493 g / cm^3
# Si number density = 18.066048 Si / 1000 Ang^3
#
#
#
# Elastic Constant Matrix: (Units=GPa)
#
#
# Indices 1 2 3 4 5 6 
#
# 1 124.9389 50.1164 116.9905 0.0000 0.0000 0.0000
# 2 50.1164 37.4078 57.5880 0.0000 0.0000 0.0000
# 3 116.9905 57.5880 176.1313 0.0000 0.0000 0.0000
# 4 0.0000 0.0000 0.0000 24.1702 0.0000 0.0000
# 5 0.0000 0.0000 0.0000 0.0000 54.5878 0.0000
# 6 0.0000 0.0000 0.0000 0.0000 0.0000 28.5561
#
#
#
# Elastic Compliance Matrix: (Units=1/GPa)
#
#
# Indices 1 2 3 4 5 6 
#
# 1 0.025218 -0.016105 -0.011485 0.000000 0.000000 0.000000
# 2 -0.016105 0.064110 -0.010264 0.000000 0.000000 0.000000
# 3 -0.011485 -0.010264 0.016662 0.000000 0.000000 0.000000
# 4 0.000000 0.000000 0.000000 0.041373 0.000000 0.000000
# 5 0.000000 0.000000 0.000000 0.000000 0.018319 0.000000
# 6 0.000000 0.000000 0.000000 0.000000 0.000000 0.035019
#
#
# Mechanical properties :
#
#
# Convention : Reuss Voigt Hill
#
# Bulk Modulus (GPa) = 33.02256 87.54085 60.28171
# Shear Modulus (GPa) = 17.45173 29.04836 23.25005
#
# Velocity S-wave (km/s) = 3.11142 4.01421 3.59130
# Velocity P-wave (km/s) = 5.58806 8.36937 7.11592
#
# Compressibility (1/GPa) = 0.03028233
#
# Stress axis : x y z
#
# Youngs Moduli (GPa) = 39.65355 15.59811 60.01690
#
# Poissons Ratio (x) = 0.25121 0.68928
# Poissons Ratio (y) = 0.63864 0.61601
# Poissons Ratio (z) = 0.45541 0.16010
#
# Static dielectric constant tensor:
#      x y z
#    x 1.577100 0.000000 0.000000 
#    y 0.000000 1.610830 0.000000 
#    z 0.000000 0.000000 1.637090 
# 
# From -- ./inp_files/78175.got.cif
#   From: 2010.05.17/outbox.cif.g08.bks.cpg/sg65_40_cif.got.tgz:78175.got - 2010.06.03 17:01:31.
