data_PCOD9486260
_publ_section_title
;
Structure prediction by ZEFSAII (Michael W. Deem and Ramdas Pophale) SiO2 
 PCOD9486260
Probable space group: C M M M
;
_chemical_formula_sum "Si O2"
_cell_formula_units_Z 96
_cell_length_a 8.405302
_cell_length_b 20.791698
_cell_length_c 30.882992
_cell_angle_alpha 90.000000
_cell_angle_beta 90.000000
_cell_angle_gamma 90.000000
_cell_volume 5397.127148
_symmetry_space_group_name_H-M "C M M M"
_symmetry_group_IT_number 65
_symmetry_cell_setting 'orthorhombic'
loop_
_space_group_symop_operation_xyz
x,y,z
-x,-y,z
x,-y,-z
-x,y,-z
-x,-y,-z
x,y,-z
-x,y,z
x,-y,z
1/2+x,1/2+y,z
1/2-x,1/2-y,z
1/2+x,1/2-y,-z
1/2-x,1/2+y,-z
1/2-x,1/2-y,-z
1/2+x,1/2+y,-z
1/2-x,1/2+y,z
1/2+x,1/2-y,z
loop_
_atom_site_type_symbol
_atom_site_label
_atom_site_fract_x
_atom_site_fract_y
_atom_site_fract_z
Si Si1 0.805946 0.926897 0.881792
Si Si2 0.194060 0.073329 0.549444
Si Si3 0.311334 0.178891 0.715077
Si Si4 0.192229 0.073909 0.782548
Si Si5 0.307652 0.321406 0.950440
Si Si6 0.809375 0.821501 0.381668
O O1 0.758828 0.912396 0.832266
O O2 0.750697 0.874708 0.916474
O O3 0.000000 0.926532 0.882376
O O4 0.756412 0.000000 0.892175
O O5 0.242520 0.088148 0.500000
O O6 0.249246 0.125395 0.584224
O O7 0.000000 0.073889 0.549964
O O8 0.243020 0.000000 0.559580
O O9 0.500000 0.181666 0.712196
O O10 0.250000 0.250000 0.727471
O O11 0.259422 0.125299 0.749255
O O12 0.244303 0.164037 0.667273
O O13 0.000000 0.076582 0.780968
O O14 0.238794 0.000000 0.772553
O O15 0.500000 0.321632 0.949944
O O16 0.250000 0.250000 0.938968
O O17 0.256573 0.334899 0.000000
O O18 0.750000 0.750000 0.392662
O O19 0.000000 0.821077 0.382475
#
# Coordination Sequence:
#
# PCOD9486260 Si02
#       6
#    16  16  16  16  16  16
#     4   8  15  29  49  72  96 123 158 199 239 281
#     4   8  15  29  49  73  99 127 162 201 237 279
#     4  11  22  36  53  73 100 131 166 208 250 295
#     4   9  18  34  54  74  99 130 163 201 247 299
#     4   9  17  29  46  69  97 127 159 196 237 282
#     4  10  19  32  51  74 100 130 163 200 244 292
#
# _framework density 17.787241000000002
#
# number of rings (size 3 to 8) (size 9 to 14) (size 15 to 20)
#    0.000    2.833    0.000    4.500    0.000    2.333 
#    0.000    5.833    0.000    4.500    0.000    7.000 
#    0.000    0.000    0.000    0.000    0.000    0.000 
#
# Total GULP energy -267634.117041 kJ/mol
# GULP energy per Si atom -5575.710772 kJ/mol
# Density = 1.774676 g / cm^3
# Si number density = 17.787241 Si / 1000 Ang^3
#
#
#
# Elastic Constant Matrix: (Units=GPa)
#
#
# Indices 1 2 3 4 5 6 
#
# 1 31.9938 28.4653 26.1577 0.0000 0.0000 0.0000
# 2 28.4653 171.0358 144.8598 0.0000 0.0000 0.0000
# 3 26.1577 144.8598 142.4613 0.0000 0.0000 0.0000
# 4 0.0000 0.0000 0.0000 44.6488 0.0000 0.0000
# 5 0.0000 0.0000 0.0000 0.0000 14.0200 0.0000
# 6 0.0000 0.0000 0.0000 0.0000 0.0000 26.9915
#
#
#
# Elastic Compliance Matrix: (Units=1/GPa)
#
#
# Indices 1 2 3 4 5 6 
#
# 1 0.036977 -0.002909 -0.003832 0.000000 0.000000 0.000000
# 2 -0.002909 0.042357 -0.042536 0.000000 0.000000 0.000000
# 3 -0.003832 -0.042536 0.050975 0.000000 0.000000 0.000000
# 4 0.000000 0.000000 0.000000 0.022397 0.000000 0.000000
# 5 0.000000 0.000000 0.000000 0.000000 0.071327 0.000000
# 6 0.000000 0.000000 0.000000 0.000000 0.000000 0.037049
#
#
# Mechanical properties :
#
#
# Convention : Reuss Voigt Hill
#
# Bulk Modulus (GPa) = 31.49017 82.71738 57.10377
# Shear Modulus (GPa) = 13.50552 26.86594 20.18573
#
# Velocity S-wave (km/s) = 2.75850 3.89061 3.37240
# Velocity P-wave (km/s) = 5.28090 8.17234 6.88023
#
# Compressibility (1/GPa) = 0.03175594
#
# Stress axis : x y z
#
# Youngs Moduli (GPa) = 27.04407 23.60892 19.61742
#
# Poissons Ratio (x) = 0.06867 0.07517
# Poissons Ratio (y) = 0.07866 0.83445
# Poissons Ratio (z) = 0.10363 1.00423
#
# Static dielectric constant tensor:
#      x y z
#    x 1.620460 0.000000 0.000000 
#    y 0.000000 1.590160 0.000000 
#    z 0.000000 0.000000 1.598060 
# 
# From -- ./inp_files/73106.got.cif
#   From: 2010.05.17/outbox.cif.g08.bks.cpg/sg65_37_cif.got.tgz:73106.got - 2010.06.03 17:01:31.
