data_PCOD9486575
_publ_section_title
;
Structure prediction by ZEFSAII (Michael W. Deem and Ramdas Pophale) SiO2 
 PCOD9486575
Probable space group: C M M M
;
_chemical_formula_sum "Si O2"
_cell_formula_units_Z 104
_cell_length_a 26.839381
_cell_length_b 24.897066
_cell_length_c 7.692359
_cell_angle_alpha 90.000000
_cell_angle_beta 90.000000
_cell_angle_gamma 90.000000
_cell_volume 5140.202286
_symmetry_space_group_name_H-M "C M M M"
_symmetry_group_IT_number 65
_symmetry_cell_setting 'orthorhombic'
loop_
_space_group_symop_operation_xyz
x,y,z
-x,-y,z
x,-y,-z
-x,y,-z
-x,-y,-z
x,y,-z
-x,y,z
x,-y,z
1/2+x,1/2+y,z
1/2-x,1/2-y,z
1/2+x,1/2-y,-z
1/2-x,1/2+y,-z
1/2-x,1/2-y,-z
1/2+x,1/2+y,-z
1/2-x,1/2+y,z
1/2+x,1/2-y,z
loop_
_atom_site_type_symbol
_atom_site_label
_atom_site_fract_x
_atom_site_fract_y
_atom_site_fract_z
Si Si1 0.945014 0.384039 0.299685
Si Si2 0.556204 0.563176 0.788401
Si Si3 0.559714 0.000000 0.805808
Si Si4 0.843893 0.653989 0.289417
Si Si5 0.839596 0.887467 0.205627
Si Si6 0.763248 0.439082 0.209045
Si Si7 0.804835 0.768000 0.290151
O O1 0.948506 0.366672 0.500000
O O2 0.929617 0.446341 0.295554
O O3 0.898090 0.357568 0.213108
O O4 0.000000 0.377957 0.221088
O O5 0.500000 0.579929 0.730257
O O6 0.562264 0.500000 0.744581
O O7 0.605520 0.595369 0.726729
O O8 0.555368 0.566609 0.000000
O O9 0.500000 0.000000 0.823894
O O10 0.581882 0.000000 0.000000
O O11 0.845596 0.652986 0.500000
O O12 0.803110 0.608300 0.246203
O O13 0.834154 0.714999 0.238385
O O14 0.791553 0.920505 0.275086
O O15 0.825903 0.824679 0.226945
O O16 0.841333 0.899079 0.000000
O O17 0.775895 0.500000 0.270185
O O18 0.760550 0.441675 0.000000
O O19 0.803441 0.772470 0.500000
O O20 0.750000 0.750000 0.231157
#
# Coordination Sequence:
#
# PCOD9486575 Si02
#       7
#    16  16   8  16  16  16  16
#     4   9  18  33  51  69  91 122 163 206 243 286
#     4   8  14  27  50  80 112 144 176 211 254 308
#     4   9  17  29  47  71  97 125 155 189 238 295
#     4  10  21  36  53  72  95 130 172 209 248 300
#     4  10  19  32  54  80 105 134 173 215 254 303
#     4  10  21  34  49  75 108 134 159 202 258 306
#     4  10  20  36  54  72 100 136 174 214 255 301
#
# _framework density 20.232665999999998
#
# number of rings (size 3 to 8) (size 9 to 14) (size 15 to 20)
#    0.000    2.538    1.538    1.154    1.077    4.615 
#    0.000    0.769    0.000    2.769    0.000    1.077 
#    0.000    0.000    0.000    0.000    0.000    0.000 
#
# Total GULP energy -289525.661829 kJ/mol
# GULP energy per Si atom -5567.801189 kJ/mol
# Density = 2.018662 g / cm^3
# Si number density = 20.232666 Si / 1000 Ang^3
#
#
#
# Elastic Constant Matrix: (Units=GPa)
#
#
# Indices 1 2 3 4 5 6 
#
# 1 146.5233 54.9578 4.9068 0.0000 0.0000 0.0000
# 2 54.9578 96.1626 -3.7545 0.0000 0.0000 0.0000
# 3 4.9068 -3.7545 37.5602 0.0000 0.0000 0.0000
# 4 0.0000 0.0000 0.0000 29.1079 0.0000 0.0000
# 5 0.0000 0.0000 0.0000 0.0000 2.8789 0.0000
# 6 0.0000 0.0000 0.0000 0.0000 0.0000 44.4477
#
#
#
# Elastic Compliance Matrix: (Units=1/GPa)
#
#
# Indices 1 2 3 4 5 6 
#
# 1 0.008788 -0.005087 -0.001657 0.000000 0.000000 0.000000
# 2 -0.005087 0.013385 0.002003 0.000000 0.000000 0.000000
# 3 -0.001657 0.002003 0.027041 0.000000 0.000000 0.000000
# 4 0.000000 0.000000 0.000000 0.034355 0.000000 0.000000
# 5 0.000000 0.000000 0.000000 0.000000 0.347358 0.000000
# 6 0.000000 0.000000 0.000000 0.000000 0.000000 0.022498
#
#
# Mechanical properties :
#
#
# Convention : Reuss Voigt Hill
#
# Bulk Modulus (GPa) = 25.16942 43.60736 34.38839
# Shear Modulus (GPa) = 10.50086 30.22930 20.36508
#
# Velocity S-wave (km/s) = 2.28064 3.86953 3.17605
# Velocity P-wave (km/s) = 4.40478 6.44702 5.52115
#
# Compressibility (1/GPa) = 0.03973076
#
# Stress axis : x y z
#
# Youngs Moduli (GPa) = 113.78507 74.71205 36.98151
#
# Poissons Ratio (x) = 0.38009 0.06127
# Poissons Ratio (y) = 0.57887 -0.07406
# Poissons Ratio (z) = 0.18850 -0.14961
#
# Static dielectric constant tensor:
#      x y z
#    x 1.810150 0.000000 0.000000 
#    y 0.000000 1.737290 0.000000 
#    z 0.000000 0.000000 1.771700 
# 
# From -- ./inp_files/16485.got.cif
#   From: 2010.05.17/outbox.cif.g08.bks.cpg/sg65_9_cif.got.tgz:16485.got - 2010.06.03 17:01:31.
