data_PCOD9486442
_publ_section_title
;
Structure prediction by ZEFSAII (Michael W. Deem and Ramdas Pophale) SiO2 
 PCOD9486442
Probable space group: C M M M
;
_chemical_formula_sum "Si O2"
_cell_formula_units_Z 88
_cell_length_a 14.110799
_cell_length_b 29.058848
_cell_length_c 12.334759
_cell_angle_alpha 90.000000
_cell_angle_beta 90.000000
_cell_angle_gamma 90.000000
_cell_volume 5057.788533
_symmetry_space_group_name_H-M "C M M M"
_symmetry_group_IT_number 65
_symmetry_cell_setting 'orthorhombic'
loop_
_space_group_symop_operation_xyz
x,y,z
-x,-y,z
x,-y,-z
-x,y,-z
-x,-y,-z
x,y,-z
-x,y,z
x,-y,z
1/2+x,1/2+y,z
1/2-x,1/2-y,z
1/2+x,1/2-y,-z
1/2-x,1/2+y,-z
1/2-x,1/2-y,-z
1/2+x,1/2+y,-z
1/2-x,1/2+y,z
1/2+x,1/2-y,z
loop_
_atom_site_type_symbol
_atom_site_label
_atom_site_fract_x
_atom_site_fract_y
_atom_site_fract_z
Si Si1 0.608784 0.318158 0.223095
Si Si2 0.114065 0.600401 0.203974
Si Si3 0.384955 0.000000 0.876464
Si Si4 0.115432 0.334075 0.000000
Si Si5 0.383709 0.273846 0.000000
Si Si6 0.604808 0.768437 0.379236
Si Si7 0.238793 0.354735 0.625905
O O1 0.500000 0.334002 0.213032
O O2 0.608509 0.270739 0.290959
O O3 0.671644 0.352314 0.294326
O O4 0.645609 0.302494 0.105869
O O5 0.143430 0.548507 0.174410
O O6 0.162034 0.613051 0.317026
O O7 0.000000 0.602269 0.210518
O O8 0.141920 0.636794 0.108227
O O9 0.500000 0.000000 0.876421
O O10 0.352710 0.000000 0.000000
O O11 0.145968 0.280182 0.000000
O O12 0.000000 0.333038 0.000000
O O13 0.500000 0.272561 0.000000
O O14 0.610195 0.747516 0.500000
O O15 0.500000 0.791128 0.370252
O O16 0.687944 0.804794 0.369405
O O17 0.259169 0.364868 0.500000
#
# Coordination Sequence:
#
# PCOD9486442 Si02
#       7
#    16  16   8   8   8  16  16
#     4  10  20  34  49  66  94 132 174 217 257 296
#     4  10  19  32  52  77 105 133 163 200 246 303
#     4   9  16  32  55  79 106 135 161 192 242 306
#     4   9  16  28  49  75 102 133 167 205 247 291
#     4   9  18  31  46  66  95 130 168 212 259 295
#     4   9  17  30  47  65  91 132 176 213 247 285
#     4  11  22  33  47  70  99 133 175 216 251 293
#
# _framework density 17.398909
#
# number of rings (size 3 to 8) (size 9 to 14) (size 15 to 20)
#    0.000    2.273    0.909    2.727    0.000    7.273 
#    0.000    3.182    0.000    1.636    0.000    0.636 
#    0.000    2.182    0.000    0.000    0.000    0.000 
#
# Total GULP energy -245417.972608 kJ/mol
# GULP energy per Si atom -5577.681196 kJ/mol
# Density = 1.735931 g / cm^3
# Si number density = 17.398909 Si / 1000 Ang^3
#
#
#
# Elastic Constant Matrix: (Units=GPa)
#
#
# Indices 1 2 3 4 5 6 
#
# 1 56.3587 14.7668 33.0670 0.0000 0.0000 0.0000
# 2 14.7668 56.2440 40.2839 0.0000 0.0000 0.0000
# 3 33.0670 40.2839 124.5949 0.0000 0.0000 0.0000
# 4 0.0000 0.0000 0.0000 -17.2612 0.0000 0.0000
# 5 0.0000 0.0000 0.0000 0.0000 15.5271 0.0000
# 6 0.0000 0.0000 0.0000 0.0000 0.0000 11.3795
#
#
#
# Elastic Compliance Matrix: (Units=1/GPa)
#
#
# Indices 1 2 3 4 5 6 
#
# 1 0.021187 -0.001998 -0.004977 0.000000 0.000000 0.000000
# 2 -0.001998 0.023326 -0.007012 0.000000 0.000000 0.000000
# 3 -0.004977 -0.007012 0.011614 0.000000 0.000000 0.000000
# 4 0.000000 0.000000 0.000000 -0.057933 0.000000 0.000000
# 5 0.000000 0.000000 0.000000 0.000000 0.064403 0.000000
# 6 0.000000 0.000000 0.000000 0.000000 0.000000 0.087878
#
#
# Mechanical properties :
#
#
# Convention : Reuss Voigt Hill
#
# Bulk Modulus (GPa) = 35.51879 45.93701 40.72790
# Shear Modulus (GPa) = 26.61947 11.86774 19.24360
#
# Velocity S-wave (km/s) = 3.91570 2.61453 3.32930
# Velocity P-wave (km/s) = 6.39549 5.96439 6.18370
#
# Compressibility (1/GPa) = 0.02815411
#
# Stress axis : x y z
#
# Youngs Moduli (GPa) = 47.19853 42.87036 86.10406
#
# Poissons Ratio (x) = 0.08565 0.42854
# Poissons Ratio (y) = 0.09430 0.60372
# Poissons Ratio (z) = 0.23491 0.30059
#
# Static dielectric constant tensor:
#      x y z
#    x 1.660360 0.000000 0.000000 
#    y 0.000000 1.570980 0.000000 
#    z 0.000000 0.000000 1.619130 
# 
# From -- ./inp_files/25411.got.cif
#   From: 2010.05.17/outbox.cif.g08.bks.cpg/sg65_13_cif.got.tgz:25411.got - 2010.06.03 17:01:31.
