data_PCOD9486775
_publ_section_title
;
Structure prediction by ZEFSAII (Michael W. Deem and Ramdas Pophale) SiO2 
 PCOD9486775
Probable space group: C M M M
;
_chemical_formula_sum "Si O2"
_cell_formula_units_Z 72
_cell_length_a 30.877083
_cell_length_b 14.829404
_cell_length_c 7.561503
_cell_angle_alpha 90.000000
_cell_angle_beta 90.000000
_cell_angle_gamma 90.000000
_cell_volume 3462.327067
_symmetry_space_group_name_H-M "C M M M"
_symmetry_group_IT_number 65
_symmetry_cell_setting 'orthorhombic'
loop_
_space_group_symop_operation_xyz
x,y,z
-x,-y,z
x,-y,-z
-x,y,-z
-x,-y,-z
x,y,-z
-x,y,z
x,-y,z
1/2+x,1/2+y,z
1/2-x,1/2-y,z
1/2+x,1/2-y,-z
1/2-x,1/2+y,-z
1/2-x,1/2-y,-z
1/2+x,1/2+y,-z
1/2-x,1/2+y,z
1/2+x,1/2-y,z
loop_
_atom_site_type_symbol
_atom_site_label
_atom_site_fract_x
_atom_site_fract_y
_atom_site_fract_z
Si Si1 0.049947 0.803310 0.782325
Si Si2 0.269102 0.500000 0.211741
Si Si3 0.669169 0.000000 0.217634
Si Si4 0.206179 0.798916 0.707450
Si Si5 0.947257 0.000000 0.203402
Si Si6 0.874301 0.681858 0.796338
O O1 0.064710 0.903016 0.719791
O O2 0.082939 0.727532 0.718996
O O3 0.000000 0.788663 0.732206
O O4 0.050859 0.806109 0.000000
O O5 0.219160 0.500000 0.274485
O O6 0.290401 0.406171 0.269656
O O7 0.269103 0.500000 0.000000
O O8 0.644930 0.089834 0.279665
O O9 0.670349 0.000000 0.000000
O O10 0.203285 0.777911 0.500000
O O11 0.250000 0.750000 0.776032
O O12 0.164064 0.755152 0.793079
O O13 0.000000 0.000000 0.199998
O O14 0.931922 0.000000 0.000000
O O15 0.884966 0.660859 0.000000
#
# Coordination Sequence:
#
# PCOD9486775 Si02
#       6
#    16   8   8  16   8  16
#     4   8  14  25  44  71 103 136 172 219 269 317
#     4  11  21  36  58  78 105 141 179 218 266 320
#     4   9  18  31  49  74 102 135 176 225 266 314
#     4  11  23  37  53  77 108 138 174 221 270 315
#     4   7  10  19  36  61  94 127 156 193 248 308
#     4  10  19  33  53  76 104 139 183 223 267 320
#
# _framework density 20.795261
#
# number of rings (size 3 to 8) (size 9 to 14) (size 15 to 20)
#    0.000    2.556    2.222    2.333    0.000    1.778 
#    0.000    3.333    0.000    4.000    0.000    0.000 
#    0.000    6.222    0.000    0.000    0.000    0.000 
#
# Total GULP energy -200889.991320 kJ/mol
# GULP energy per Si atom -5580.277537 kJ/mol
# Density = 2.074793 g / cm^3
# Si number density = 20.795261 Si / 1000 Ang^3
#
#
#
# Elastic Constant Matrix: (Units=GPa)
#
#
# Indices 1 2 3 4 5 6 
#
# 1 92.0538 67.6190 -6.6063 0.0000 0.0000 0.0000
# 2 67.6190 170.5665 -11.3285 0.0000 0.0000 0.0000
# 3 -6.6063 -11.3285 52.4500 0.0000 0.0000 0.0000
# 4 0.0000 0.0000 0.0000 -4.8042 0.0000 0.0000
# 5 0.0000 0.0000 0.0000 0.0000 -16.0176 0.0000
# 6 0.0000 0.0000 0.0000 0.0000 0.0000 24.5501
#
#
#
# Elastic Compliance Matrix: (Units=1/GPa)
#
#
# Indices 1 2 3 4 5 6 
#
# 1 0.015347 -0.006042 0.000628 0.000000 0.000000 0.000000
# 2 -0.006042 0.008327 0.001037 0.000000 0.000000 0.000000
# 3 0.000628 0.001037 0.019369 0.000000 0.000000 0.000000
# 4 0.000000 0.000000 0.000000 -0.208150 0.000000 0.000000
# 5 0.000000 0.000000 0.000000 0.000000 -0.062431 0.000000
# 6 0.000000 0.000000 0.000000 0.000000 0.000000 0.040733
#
#
# Mechanical properties :
#
#
# Convention : Reuss Voigt Hill
#
# Bulk Modulus (GPa) = 29.16386 46.04873 37.60630
# Shear Modulus (GPa) = -30.00800 18.43806 -5.78497
#
# Velocity S-wave (km/s) = -3.80283 2.98089 -1.66970
# Velocity P-wave (km/s) = 2.28633 5.83434 3.79554
#
# Compressibility (1/GPa) = 0.03428901
#
# Stress axis : x y z
#
# Youngs Moduli (GPa) = 65.16052 120.08950 51.62902
#
# Poissons Ratio (x) = 0.72562 -0.03242
# Poissons Ratio (y) = 0.39372 -0.05356
# Poissons Ratio (z) = -0.04092 -0.12459
#
# Static dielectric constant tensor:
#      x y z
#    x 1.720920 0.000000 0.000000 
#    y 0.000000 1.750540 0.000000 
#    z 0.000000 0.000000 1.783560 
# 
# From -- ./inp_files/18071.got.cif
#   From: 2010.05.17/outbox.cif.g08.bks.cpg/sg65_10_cif.got.tgz:18071.got - 2010.06.03 17:01:31.
