data_PCOD9486901
_publ_section_title
;
Structure prediction by ZEFSAII (Michael W. Deem and Ramdas Pophale) SiO2 
 PCOD9486901
Probable space group: C M M M
;
_chemical_formula_sum "Si O2"
_cell_formula_units_Z 64
_cell_length_a 30.336906
_cell_length_b 13.093904
_cell_length_c 7.399219
_cell_angle_alpha 90.000000
_cell_angle_beta 90.000000
_cell_angle_gamma 90.000000
_cell_volume 2939.180922
_symmetry_space_group_name_H-M "C M M M"
_symmetry_group_IT_number 65
_symmetry_cell_setting 'orthorhombic'
loop_
_space_group_symop_operation_xyz
x,y,z
-x,-y,z
x,-y,-z
-x,y,-z
-x,-y,-z
x,y,-z
-x,y,z
x,-y,z
1/2+x,1/2+y,z
1/2-x,1/2-y,z
1/2+x,1/2-y,-z
1/2-x,1/2+y,-z
1/2-x,1/2-y,-z
1/2+x,1/2+y,-z
1/2-x,1/2+y,z
1/2+x,1/2-y,z
loop_
_atom_site_type_symbol
_atom_site_label
_atom_site_fract_x
_atom_site_fract_y
_atom_site_fract_z
Si Si1 0.739596 0.392408 0.719875
Si Si2 0.419173 0.726660 0.284910
Si Si3 0.324120 0.790384 0.719844
Si Si4 0.448314 0.500000 0.279744
Si Si5 0.000000 0.381089 0.214195
O O1 0.739974 0.388341 0.500000
O O2 0.721986 0.500000 0.779416
O O3 0.705806 0.305892 0.773984
O O4 0.790462 0.379108 0.776112
O O5 0.414145 0.713894 0.500000
O O6 0.373510 0.774755 0.214094
O O7 0.428959 0.610431 0.218158
O O8 0.458041 0.809501 0.260833
O O9 0.326659 0.795287 0.500000
O O10 0.500000 0.500000 0.232936
O O11 0.445345 0.500000 0.500000
O O12 0.000000 0.500000 0.285255
O O13 0.000000 0.390852 0.000000
#
# Coordination Sequence:
#
# PCOD9486901 Si02
#       5
#    16  16  16   8   8
#     4   8  13  22  35  58  97 135 162 194 237 284
#     4  10  19  33  54  79 104 133 171 211 251 298
#     4   8  15  24  38  65  97 130 165 197 237 288
#     4   9  16  28  48  76 106 128 158 212 260 293
#     4  11  25  42  55  70  98 133 168 211 260 309
#
# _framework density 21.774774000000001
#
# number of rings (size 3 to 8) (size 9 to 14) (size 15 to 20)
#    0.000    3.000    1.250    1.875    1.750    2.000 
#    0.000    3.750    0.000    0.000    0.000    3.500 
#    0.000    2.000    0.000    0.000    0.000    0.000 
#
# Total GULP energy -178136.205290 kJ/mol
# GULP energy per Si atom -5566.756415 kJ/mol
# Density = 2.172521 g / cm^3
# Si number density = 21.774774 Si / 1000 Ang^3
#
#
#
# Elastic Constant Matrix: (Units=GPa)
#
#
# Indices 1 2 3 4 5 6 
#
# 1 148.4633 24.9084 -9.8194 0.0000 0.0000 0.0000
# 2 24.9084 114.6038 -10.5719 0.0000 0.0000 0.0000
# 3 -9.8194 -10.5719 69.2789 0.0000 0.0000 0.0000
# 4 0.0000 0.0000 0.0000 13.6267 0.0000 0.0000
# 5 0.0000 0.0000 0.0000 0.0000 -53.9756 0.0000
# 6 0.0000 0.0000 0.0000 0.0000 0.0000 14.2891
#
#
#
# Elastic Compliance Matrix: (Units=1/GPa)
#
#
# Indices 1 2 3 4 5 6 
#
# 1 0.007031 -0.001457 0.000774 0.000000 0.000000 0.000000
# 2 -0.001457 0.009152 0.001190 0.000000 0.000000 0.000000
# 3 0.000774 0.001190 0.014726 0.000000 0.000000 0.000000
# 4 0.000000 0.000000 0.000000 0.073385 0.000000 0.000000
# 5 0.000000 0.000000 0.000000 0.000000 -0.018527 0.000000
# 6 0.000000 0.000000 0.000000 0.000000 0.000000 0.069984
#
#
# Mechanical properties :
#
#
# Convention : Reuss Voigt Hill
#
# Bulk Modulus (GPa) = 31.32397 37.93116 34.62756
# Shear Modulus (GPa) = 30.23386 16.64328 23.43857
#
# Velocity S-wave (km/s) = 3.73028 2.76767 3.28443
# Velocity P-wave (km/s) = 5.74195 5.26031 5.50640
#
# Compressibility (1/GPa) = 0.03192443
#
# Stress axis : x y z
#
# Youngs Moduli (GPa) = 142.22130 109.26428 67.90820
#
# Poissons Ratio (x) = 0.15917 -0.05258
# Poissons Ratio (y) = 0.20719 -0.08082
# Poissons Ratio (z) = -0.11012 -0.13004
#
# Static dielectric constant tensor:
#      x y z
#    x 1.814640 0.000000 0.000000 
#    y 0.000000 1.820760 0.000000 
#    z 0.000000 0.000000 1.858540 
# 
# From -- ./inp_files/17794.got.cif
#   From: 2010.05.17/outbox.cif.g08.bks.cpg/sg65_9_cif.got.tgz:17794.got - 2010.06.03 17:01:31.
