data_PCOD9487995
_publ_section_title
;
Structure prediction by ZEFSAII (Michael W. Deem and Ramdas Pophale) SiO2 
 PCOD9487995
Probable space group: C M M M
;
_chemical_formula_sum "Si O2"
_cell_formula_units_Z 88
_cell_length_a 14.449976
_cell_length_b 30.169956
_cell_length_c 9.248190
_cell_angle_alpha 90.000000
_cell_angle_beta 90.000000
_cell_angle_gamma 90.000000
_cell_volume 4031.795967
_symmetry_space_group_name_H-M "C M M M"
_symmetry_group_IT_number 65
_symmetry_cell_setting 'orthorhombic'
loop_
_space_group_symop_operation_xyz
x,y,z
-x,-y,z
x,-y,-z
-x,y,-z
-x,-y,-z
x,y,-z
-x,y,z
x,-y,z
1/2+x,1/2+y,z
1/2-x,1/2-y,z
1/2+x,1/2-y,-z
1/2-x,1/2+y,-z
1/2-x,1/2-y,-z
1/2+x,1/2+y,-z
1/2-x,1/2+y,z
1/2+x,1/2-y,z
loop_
_atom_site_type_symbol
_atom_site_label
_atom_site_fract_x
_atom_site_fract_y
_atom_site_fract_z
Si Si1 0.610935 0.452539 0.824871
Si Si2 0.113485 0.411271 0.164954
Si Si3 0.886752 0.500000 0.333794
Si Si4 0.888183 0.857656 0.167153
Si Si5 0.642859 0.739580 0.835627
Si Si6 0.607489 0.826746 0.339375
O O1 0.500000 0.453615 0.798248
O O2 0.648987 0.500000 0.772475
O O3 0.645216 0.404739 0.769881
O O4 0.621272 0.451610 0.000000
O O5 0.141241 0.455166 0.251709
O O6 0.146886 0.365807 0.239173
O O7 0.000000 0.410932 0.161021
O O8 0.145584 0.413818 0.000000
O O9 0.856619 0.500000 0.500000
O O10 0.000000 0.500000 0.333888
O O11 0.866897 0.809475 0.230740
O O12 0.000000 0.860382 0.163497
O O13 0.855329 0.855209 0.000000
O O14 0.750000 0.750000 0.848735
O O15 0.607034 0.779382 0.737999
O O16 0.603494 0.740131 0.000000
O O17 0.649340 0.824915 0.500000
O O18 0.500000 0.839159 0.355710
#
# Coordination Sequence:
#
# PCOD9487995 Si02
#       6
#    16  16   8  16  16  16
#     4   7   9  14  27  51  82 110 134 166 213 265
#     4   9  16  26  42  65  92 121 152 189 236 285
#     4   9  15  23  37  61  95 127 153 185 228 281
#     4   8  13  22  38  60  86 115 147 184 225 271
#     4  10  20  32  46  66  91 124 160 193 233 283
#     4  10  20  33  49  69  92 119 155 200 247 293
#
# _framework density 21.826502000000001
#
# number of rings (size 3 to 8) (size 9 to 14) (size 15 to 20)
#    0.000    3.182    0.000    3.545    0.000    5.455 
#    0.000    0.000    0.000    0.000    2.364    0.000 
#    0.000    0.727    0.000    6.727    0.000    5.455 
#
# Total GULP energy -245257.633724 kJ/mol
# GULP energy per Si atom -5574.037130 kJ/mol
# Density = 2.177682 g / cm^3
# Si number density = 21.826502 Si / 1000 Ang^3
#
#
#
# Elastic Constant Matrix: (Units=GPa)
#
#
# Indices 1 2 3 4 5 6 
#
# 1 44.8604 8.3567 -1.9746 0.0000 0.0000 0.0000
# 2 8.3567 280.1589 89.3820 0.0000 0.0000 0.0000
# 3 -1.9746 89.3820 114.1653 0.0000 0.0000 0.0000
# 4 0.0000 0.0000 0.0000 -39.7218 0.0000 0.0000
# 5 0.0000 0.0000 0.0000 0.0000 2.8031 0.0000
# 6 0.0000 0.0000 0.0000 0.0000 0.0000 14.4315
#
#
#
# Elastic Compliance Matrix: (Units=1/GPa)
#
#
# Indices 1 2 3 4 5 6 
#
# 1 0.022543 -0.001062 0.001221 0.000000 0.000000 0.000000
# 2 -0.001062 0.004808 -0.003783 0.000000 0.000000 0.000000
# 3 0.001221 -0.003783 0.011742 0.000000 0.000000 0.000000
# 4 0.000000 0.000000 0.000000 -0.025175 0.000000 0.000000
# 5 0.000000 0.000000 0.000000 0.000000 0.356754 0.000000
# 6 0.000000 0.000000 0.000000 0.000000 0.000000 0.069293
#
#
# Mechanical properties :
#
#
# Convention : Reuss Voigt Hill
#
# Bulk Modulus (GPa) = 31.40089 70.07917 50.74003
# Shear Modulus (GPa) = 10.92117 18.39725 14.65921
#
# Velocity S-wave (km/s) = 2.23931 2.90640 2.59438
# Velocity P-wave (km/s) = 4.59389 6.59090 5.68083
#
# Compressibility (1/GPa) = 0.03184623
#
# Stress axis : x y z
#
# Youngs Moduli (GPa) = 44.35973 207.99262 85.16607
#
# Poissons Ratio (x) = 0.22091 -0.10403
# Poissons Ratio (y) = 0.04711 0.32214
# Poissons Ratio (z) = -0.05418 0.78674
#
# Static dielectric constant tensor:
#      x y z
#    x 1.752010 0.000000 0.000000 
#    y 0.000000 1.837960 0.000000 
#    z 0.000000 0.000000 1.771500 
# 
# From -- ./inp_files/10097.got.cif
#   From: 2010.05.17/outbox.cif.g08.bks.cpg/sg65_6_cif.got.tgz:10097.got - 2010.06.03 17:01:31.
