data_PCOD9487957
_publ_section_title
;
Structure prediction by ZEFSAII (Michael W. Deem and Ramdas Pophale) SiO2 
 PCOD9487957
Probable space group: C M M M
;
_chemical_formula_sum "Si O2"
_cell_formula_units_Z 104
_cell_length_a 28.997608
_cell_length_b 7.687080
_cell_length_c 25.108293
_cell_angle_alpha 90.000000
_cell_angle_beta 90.000000
_cell_angle_gamma 90.000000
_cell_volume 5596.812573
_symmetry_space_group_name_H-M "C M M M"
_symmetry_group_IT_number 65
_symmetry_cell_setting 'orthorhombic'
loop_
_space_group_symop_operation_xyz
x,y,z
-x,-y,z
x,-y,-z
-x,y,-z
-x,-y,-z
x,y,-z
-x,y,z
x,-y,z
1/2+x,1/2+y,z
1/2-x,1/2-y,z
1/2+x,1/2-y,-z
1/2-x,1/2+y,-z
1/2-x,1/2-y,-z
1/2+x,1/2+y,-z
1/2-x,1/2+y,z
1/2+x,1/2-y,z
loop_
_atom_site_type_symbol
_atom_site_label
_atom_site_fract_x
_atom_site_fract_y
_atom_site_fract_z
Si Si1 0.606306 0.290345 0.279049
Si Si2 0.552416 0.791341 0.172346
Si Si3 0.447293 0.291788 0.615994
Si Si4 0.303320 0.709043 0.327007
Si Si5 0.444187 0.207069 0.057339
Si Si6 0.553239 0.793532 0.500000
Si Si7 0.304838 0.709200 0.556444
O O1 0.605949 0.500000 0.281751
O O2 0.582405 0.244022 0.224026
O O3 0.579089 0.226485 0.331739
O O4 0.659130 0.229989 0.284722
O O5 0.500000 0.725857 0.180615
O O6 0.571001 0.724288 0.115142
O O7 0.549496 0.000000 0.166906
O O8 0.500000 0.223495 0.615744
O O9 0.449331 0.500000 0.621023
O O10 0.426239 0.259434 0.557209
O O11 0.305614 0.500000 0.329571
O O12 0.250000 0.750000 0.317350
O O13 0.319199 0.774858 0.385594
O O14 0.500000 0.223230 0.058417
O O15 0.434137 0.000000 0.056027
O O16 0.428427 0.280048 0.000000
O O17 0.500000 0.722343 0.500000
O O18 0.551026 0.000000 0.500000
O O19 0.323816 0.777541 0.500000
O O20 0.310927 0.500000 0.556145
O O21 0.250000 0.750000 0.555737
#
# Coordination Sequence:
#
# PCOD9487957 Si02
#       7
#    16  16  16  16  16   8  16
#     4  10  20  32  45  65  90 118 151 183 219 266
#     4   9  17  28  44  68  95 123 155 187 218 253
#     4   9  17  30  46  62  82 111 145 176 210 259
#     4   9  18  32  47  64  84 109 142 179 222 269
#     4   7  10  19  37  61  89 120 152 183 212 245
#     4   9  17  29  45  63  82 105 136 179 226 261
#     4   8  13  23  40  59  76  94 119 156 205 258
#
# _framework density 18.582006
#
# number of rings (size 3 to 8) (size 9 to 14) (size 15 to 20)
#    0.000    3.308    0.000    2.077    0.000    3.077 
#    1.385    1.538    0.000    0.462    0.000    2.154 
#    0.000    0.615    0.000    1.385    0.000    2.154 
#
# Total GULP energy -289541.579606 kJ/mol
# GULP energy per Si atom -5568.107300 kJ/mol
# Density = 1.853971 g / cm^3
# Si number density = 18.582006 Si / 1000 Ang^3
#
#
#
# Elastic Constant Matrix: (Units=GPa)
#
#
# Indices 1 2 3 4 5 6 
#
# 1 68.9714 3.1362 78.3237 0.0000 0.0000 0.0000
# 2 3.1362 33.7365 7.5015 0.0000 0.0000 0.0000
# 3 78.3237 7.5015 203.9817 0.0000 0.0000 0.0000
# 4 0.0000 0.0000 0.0000 4.1022 0.0000 0.0000
# 5 0.0000 0.0000 0.0000 0.0000 13.2745 0.0000
# 6 0.0000 0.0000 0.0000 0.0000 0.0000 8.6284
#
#
#
# Elastic Compliance Matrix: (Units=1/GPa)
#
#
# Indices 1 2 3 4 5 6 
#
# 1 0.025710 -0.000197 -0.009865 0.000000 0.000000 0.000000
# 2 -0.000197 0.029887 -0.001024 0.000000 0.000000 0.000000
# 3 -0.009865 -0.001024 0.008728 0.000000 0.000000 0.000000
# 4 0.000000 0.000000 0.000000 0.243774 0.000000 0.000000
# 5 0.000000 0.000000 0.000000 0.000000 0.075332 0.000000
# 6 0.000000 0.000000 0.000000 0.000000 0.000000 0.115896
#
#
# Mechanical properties :
#
#
# Convention : Reuss Voigt Hill
#
# Bulk Modulus (GPa) = 23.72177 53.84581 38.78379
# Shear Modulus (GPa) = 9.33621 19.71624 14.52622
#
# Velocity S-wave (km/s) = 2.24393 3.26089 2.79899
# Velocity P-wave (km/s) = 4.41671 6.57406 5.60025
#
# Compressibility (1/GPa) = 0.04215537
#
# Stress axis : x y z
#
# Youngs Moduli (GPa) = 38.89518 33.45891 114.57553
#
# Poissons Ratio (x) = 0.00658 1.13026
# Poissons Ratio (y) = 0.00765 0.11728
# Poissons Ratio (z) = 0.38369 0.03425
#
# Static dielectric constant tensor:
#      x y z
#    x 1.883520 0.000000 0.000000 
#    y 0.000000 1.738810 0.000000 
#    z 0.000000 0.000000 1.698090 
# 
# From -- ./inp_files/71813.got.cif
#   From: 2010.05.17/outbox.cif.g08.bks.cpg/sg65_36_cif.got.tgz:71813.got - 2010.06.03 17:01:31.
