data_PCOD9487725
_publ_section_title
;
Structure prediction by ZEFSAII (Michael W. Deem and Ramdas Pophale) SiO2 
 PCOD9487725
Probable space group: C M M M
;
_chemical_formula_sum "Si O2"
_cell_formula_units_Z 68
_cell_length_a 10.185133
_cell_length_b 19.648647
_cell_length_c 20.277969
_cell_angle_alpha 90.000000
_cell_angle_beta 90.000000
_cell_angle_gamma 90.000000
_cell_volume 4058.109951
_symmetry_space_group_name_H-M "C M M M"
_symmetry_group_IT_number 65
_symmetry_cell_setting 'orthorhombic'
loop_
_space_group_symop_operation_xyz
x,y,z
-x,-y,z
x,-y,-z
-x,y,-z
-x,-y,-z
x,y,-z
-x,y,z
x,-y,z
1/2+x,1/2+y,z
1/2-x,1/2-y,z
1/2+x,1/2-y,-z
1/2-x,1/2+y,-z
1/2-x,1/2-y,-z
1/2+x,1/2+y,-z
1/2-x,1/2+y,z
1/2+x,1/2-y,z
loop_
_atom_site_type_symbol
_atom_site_label
_atom_site_fract_x
_atom_site_fract_y
_atom_site_fract_z
Si Si1 0.000000 0.859446 0.765701
Si Si2 0.232514 0.672239 0.305400
Si Si3 0.842229 0.577668 0.426641
Si Si4 0.000000 0.000000 0.846692
Si Si5 0.500000 0.203139 0.203355
Si Si6 0.276878 0.000000 0.077988
Si Si7 0.500000 0.889008 0.921470
O O1 0.868146 0.856118 0.722942
O O2 0.000000 0.928986 0.806625
O O3 0.000000 0.785361 0.801857
O O4 0.250000 0.750000 0.328220
O O5 0.192884 0.626203 0.366744
O O6 0.124821 0.677886 0.246680
O O7 0.796282 0.599265 0.500000
O O8 0.796218 0.500000 0.415282
O O9 0.000000 0.575557 0.429019
O O10 0.862630 0.000000 0.886577
O O11 0.500000 0.171483 0.130757
O O12 0.371039 0.935303 0.092001
O O13 0.252944 0.000000 0.000000
O O14 0.500000 0.872013 0.000000
#
# Coordination Sequence:
#
# PCOD9487725 Si02
#       7
#     8  16  16   4   8   8   8
#     4  10  24  34  50  79 113 136 179 225 260 314
#     4  10  20  36  55  77 108 145 177 222 269 314
#     4   9  18  34  56  82 108 135 179 231 266 310
#     4  12  21  36  52  76 109 150 170 206 272 334
#     4  10  19  38  57  77 105 141 181 227 267 308
#     4   9  19  35  55  81 109 137 173 217 267 320
#     4   9  18  36  60  83 107 135 180 233 267 305
#
# _framework density 16.756568999999999
#
# number of rings (size 3 to 8) (size 9 to 14) (size 15 to 20)
#    0.000    2.353    1.176    3.000    1.647    0.471 
#    4.235    1.765    0.000   10.588    0.000    0.000 
#    0.000    0.000    0.000    0.000    0.000    0.000 
#
# Total GULP energy -189403.537643 kJ/mol
# GULP energy per Si atom -5570.692284 kJ/mol
# Density = 1.671843 g / cm^3
# Si number density = 16.756569 Si / 1000 Ang^3
#
#
#
# Elastic Constant Matrix: (Units=GPa)
#
#
# Indices 1 2 3 4 5 6 
#
# 1 113.6664 52.0689 50.0835 0.0000 0.0000 0.0000
# 2 52.0689 112.4565 96.8215 0.0000 0.0000 0.0000
# 3 50.0835 96.8215 114.3074 0.0000 0.0000 0.0000
# 4 0.0000 0.0000 0.0000 7.6389 0.0000 0.0000
# 5 0.0000 0.0000 0.0000 0.0000 4.6193 0.0000
# 6 0.0000 0.0000 0.0000 0.0000 0.0000 46.0177
#
#
#
# Elastic Compliance Matrix: (Units=1/GPa)
#
#
# Indices 1 2 3 4 5 6 
#
# 1 0.011278 -0.003574 -0.001915 0.000000 0.000000 0.000000
# 2 -0.003574 0.033977 -0.027214 0.000000 0.000000 0.000000
# 3 -0.001915 -0.027214 0.032638 0.000000 0.000000 0.000000
# 4 0.000000 0.000000 0.000000 0.130909 0.000000 0.000000
# 5 0.000000 0.000000 0.000000 0.000000 0.216484 0.000000
# 6 0.000000 0.000000 0.000000 0.000000 0.000000 0.021731
#
#
# Mechanical properties :
#
#
# Convention : Reuss Voigt Hill
#
# Bulk Modulus (GPa) = 80.06744 82.04199 81.05471
# Shear Modulus (GPa) = 9.67896 21.08561 15.38228
#
# Velocity S-wave (km/s) = 2.40598 3.55117 3.03311
# Velocity P-wave (km/s) = 7.45686 8.11676 7.79380
#
# Compressibility (1/GPa) = 0.01248947
#
# Stress axis : x y z
#
# Youngs Moduli (GPa) = 88.66582 29.43149 30.63900
#
# Poissons Ratio (x) = 0.10517 0.05866
# Poissons Ratio (y) = 0.31685 0.83381
# Poissons Ratio (z) = 0.16977 0.80095
#
# Static dielectric constant tensor:
#      x y z
#    x 1.571150 0.000000 0.000000 
#    y 0.000000 1.566330 0.000000 
#    z 0.000000 0.000000 1.543420 
# 
# From -- ./inp_files/59073.got.cif
#   From: 2010.05.17/outbox.cif.g08.bks.cpg/sg65_30_cif.got.tgz:59073.got - 2010.06.03 17:01:31.
