data_PCOD9487199
_publ_section_title
;
Structure prediction by ZEFSAII (Michael W. Deem and Ramdas Pophale) SiO2 
 PCOD9487199
Probable space group: C M M M
;
_chemical_formula_sum "Si O2"
_cell_formula_units_Z 120
_cell_length_a 29.375475
_cell_length_b 9.074746
_cell_length_c 29.092650
_cell_angle_alpha 90.000000
_cell_angle_beta 90.000000
_cell_angle_gamma 90.000000
_cell_volume 7755.372425
_symmetry_space_group_name_H-M "C M M M"
_symmetry_group_IT_number 65
_symmetry_cell_setting 'orthorhombic'
loop_
_space_group_symop_operation_xyz
x,y,z
-x,-y,z
x,-y,-z
-x,y,-z
-x,-y,-z
x,y,-z
-x,y,z
x,-y,z
1/2+x,1/2+y,z
1/2-x,1/2-y,z
1/2+x,1/2-y,-z
1/2-x,1/2+y,-z
1/2-x,1/2-y,-z
1/2+x,1/2+y,-z
1/2-x,1/2+y,z
1/2+x,1/2-y,z
loop_
_atom_site_type_symbol
_atom_site_label
_atom_site_fract_x
_atom_site_fract_y
_atom_site_fract_z
Si Si1 0.297222 0.175841 0.083590
Si Si2 0.555521 0.329544 0.500000
Si Si3 0.446340 0.323474 0.140501
Si Si4 0.555307 0.830492 0.406621
Si Si5 0.888428 0.823969 0.948917
Si Si6 0.395381 0.177286 0.225971
Si Si7 0.945816 0.824247 0.311274
Si Si8 0.703232 0.175798 0.192450
O O1 0.250000 0.250000 0.068441
O O2 0.340841 0.241580 0.058424
O O3 0.302958 0.210498 0.138140
O O4 0.294825 0.000000 0.078260
O O5 0.569379 0.500000 0.500000
O O6 0.500000 0.327325 0.500000
O O7 0.570502 0.247458 0.546380
O O8 0.500000 0.292616 0.139406
O O9 0.440663 0.500000 0.147810
O O10 0.422530 0.284631 0.092242
O O11 0.422355 0.237221 0.181695
O O12 0.500000 0.831340 0.407957
O O13 0.567651 0.741649 0.360779
O O14 0.570400 0.000000 0.404315
O O15 0.880395 0.000000 0.945880
O O16 0.906547 0.792259 0.000000
O O17 0.417737 0.247705 0.270920
O O18 0.342448 0.219902 0.219030
O O19 0.398209 0.000000 0.227676
O O20 0.000000 0.795109 0.304562
O O21 0.939612 0.000000 0.310573
O O22 0.750000 0.250000 0.208110
O O23 0.707992 0.000000 0.195855
#
# Coordination Sequence:
#
# PCOD9487199 Si02
#       8
#    16   8  16  16  16  16  16  16
#     4  10  19  34  54  76  99 122 148 181 223 274
#     4   9  15  23  37  57  83 119 162 207 250 291
#     4  10  21  36  53  72  93 120 155 192 229 272
#     4   9  16  26  40  59  85 120 163 208 250 288
#     4  10  21  36  53  73  96 122 152 187 229 275
#     4  11  21  34  51  73  97 122 153 190 233 280
#     4  10  20  32  45  65  94 128 166 204 241 281
#     4   9  19  33  51  74  96 118 147 182 223 274
#
# _framework density 15.473144
#
# number of rings (size 3 to 8) (size 9 to 14) (size 15 to 20)
#    0.000    2.200    1.333    2.200    0.000    7.467 
#    0.000    1.333    0.000    0.000    0.000    1.867 
#    0.000    0.000    0.000    0.600    0.000    8.200 
#
# Total GULP energy -334747.947425 kJ/mol
# GULP energy per Si atom -5579.132457 kJ/mol
# Density = 1.543793 g / cm^3
# Si number density = 15.473144 Si / 1000 Ang^3
#
#
#
# Elastic Constant Matrix: (Units=GPa)
#
#
# Indices 1 2 3 4 5 6 
#
# 1 83.5468 43.7686 59.2584 0.0000 0.0000 0.0000
# 2 43.7686 61.4673 60.3014 0.0000 0.0000 0.0000
# 3 59.2584 60.3014 135.1358 0.0000 0.0000 0.0000
# 4 0.0000 0.0000 0.0000 21.3683 0.0000 0.0000
# 5 0.0000 0.0000 0.0000 0.0000 2.3834 0.0000
# 6 0.0000 0.0000 0.0000 0.0000 0.0000 21.5683
#
#
#
# Elastic Compliance Matrix: (Units=1/GPa)
#
#
# Indices 1 2 3 4 5 6 
#
# 1 0.020460 -0.010258 -0.004395 0.000000 0.000000 0.000000
# 2 -0.010258 0.034078 -0.010709 0.000000 0.000000 0.000000
# 3 -0.004395 -0.010709 0.014106 0.000000 0.000000 0.000000
# 4 0.000000 0.000000 0.000000 0.046798 0.000000 0.000000
# 5 0.000000 0.000000 0.000000 0.000000 0.419568 0.000000
# 6 0.000000 0.000000 0.000000 0.000000 0.000000 0.046364
#
#
# Mechanical properties :
#
#
# Convention : Reuss Voigt Hill
#
# Bulk Modulus (GPa) = 55.79675 67.42296 61.60985
# Shear Modulus (GPa) = 7.83612 16.85212 12.34412
#
# Velocity S-wave (km/s) = 2.25285 3.30376 2.82756
# Velocity P-wave (km/s) = 6.55025 7.63033 7.11083
#
# Compressibility (1/GPa) = 0.01792219
#
# Stress axis : x y z
#
# Youngs Moduli (GPa) = 48.87531 29.34411 70.89352
#
# Poissons Ratio (x) = 0.30100 0.31156
# Poissons Ratio (y) = 0.50134 0.75918
# Poissons Ratio (z) = 0.21480 0.31424
#
# Static dielectric constant tensor:
#      x y z
#    x 1.489090 0.000000 0.000000 
#    y 0.000000 1.515410 0.000000 
#    z 0.000000 0.000000 1.510340 
# 
# From -- ./inp_files/76152.got.cif
#   From: 2010.05.17/outbox.cif.g08.bks.cpg/sg65_39_cif.got.tgz:76152.got - 2010.06.03 17:01:31.
