data_PCOD9487809
_publ_section_title
;
Structure prediction by ZEFSAII (Michael W. Deem and Ramdas Pophale) SiO2 
 PCOD9487809
Probable space group: C M M M
;
_chemical_formula_sum "Si O2"
_cell_formula_units_Z 72
_cell_length_a 21.355151
_cell_length_b 7.287304
_cell_length_c 21.226667
_cell_angle_alpha 90.000000
_cell_angle_beta 90.000000
_cell_angle_gamma 90.000000
_cell_volume 3303.325277
_symmetry_space_group_name_H-M "C M M M"
_symmetry_group_IT_number 65
_symmetry_cell_setting 'orthorhombic'
loop_
_space_group_symop_operation_xyz
x,y,z
-x,-y,z
x,-y,-z
-x,y,-z
-x,-y,-z
x,y,-z
-x,y,z
x,-y,z
1/2+x,1/2+y,z
1/2-x,1/2-y,z
1/2+x,1/2-y,-z
1/2-x,1/2+y,-z
1/2-x,1/2-y,-z
1/2+x,1/2+y,-z
1/2-x,1/2+y,z
1/2+x,1/2-y,z
loop_
_atom_site_type_symbol
_atom_site_label
_atom_site_fract_x
_atom_site_fract_y
_atom_site_fract_z
Si Si1 0.681548 0.281959 0.701554
Si Si2 0.000000 0.204415 0.576025
Si Si3 0.425208 0.279724 0.067559
Si Si4 0.138377 0.775473 0.428907
Si Si5 0.427458 0.724312 0.206871
O O1 0.673052 0.500000 0.697997
O O2 0.750000 0.250000 0.729813
O O3 0.679964 0.213931 0.629379
O O4 0.622976 0.213269 0.742027
O O5 0.067637 0.285817 0.588976
O O6 0.000000 0.187819 0.500000
O O7 0.000000 0.000000 0.605113
O O8 0.500000 0.246760 0.066891
O O9 0.416657 0.500000 0.067200
O O10 0.405505 0.216295 0.136781
O O11 0.400017 0.211294 0.000000
O O12 0.154440 0.715613 0.500000
O O13 0.136865 0.000000 0.431402
O O14 0.500000 0.779674 0.217919
O O15 0.428245 0.500000 0.206920
#
# Coordination Sequence:
#
# PCOD9487809 Si02
#       5
#    16   8  16  16  16
#     4  10  20  31  44  62  87 116 142 173 213 253
#     4   7  10  18  34  58  83  99 118 162 216 249
#     4   7   9  15  30  54  83 108 129 163 212 253
#     4   8  14  24  39  60  83 106 135 172 213 252
#     4   8  14  24  40  63  85 107 141 180 212 244
#
# _framework density 21.796220000000002
#
# number of rings (size 3 to 8) (size 9 to 14) (size 15 to 20)
#    0.000    3.889    0.000    3.333    1.556    0.444 
#    0.000    0.000    0.000    1.333    0.000    0.000 
#    0.000    2.667    0.000    5.556    0.000    4.444 
#
# Total GULP energy -200444.662395 kJ/mol
# GULP energy per Si atom -5567.907289 kJ/mol
# Density = 2.174661 g / cm^3
# Si number density = 21.796220 Si / 1000 Ang^3
#
#
#
# Elastic Constant Matrix: (Units=GPa)
#
#
# Indices 1 2 3 4 5 6 
#
# 1 102.9352 -2.8342 76.5351 0.0000 0.0000 0.0000
# 2 -2.8342 88.6292 8.3125 0.0000 0.0000 0.0000
# 3 76.5351 8.3125 173.7637 0.0000 0.0000 0.0000
# 4 0.0000 0.0000 0.0000 -27.0039 0.0000 0.0000
# 5 0.0000 0.0000 0.0000 0.0000 1.9245 0.0000
# 6 0.0000 0.0000 0.0000 0.0000 0.0000 -5.9190
#
#
#
# Elastic Compliance Matrix: (Units=1/GPa)
#
#
# Indices 1 2 3 4 5 6 
#
# 1 0.014546 0.001071 -0.006458 0.000000 0.000000 0.000000
# 2 0.001071 0.011413 -0.001018 0.000000 0.000000 0.000000
# 3 -0.006458 -0.001018 0.008648 0.000000 0.000000 0.000000
# 4 0.000000 0.000000 0.000000 -0.037032 0.000000 0.000000
# 5 0.000000 0.000000 0.000000 0.000000 0.519610 0.000000
# 6 0.000000 0.000000 0.000000 0.000000 0.000000 -0.168946
#
#
# Mechanical properties :
#
#
# Convention : Reuss Voigt Hill
#
# Bulk Modulus (GPa) = 45.87762 58.81720 52.34741
# Shear Modulus (GPa) = 13.57537 12.68797 13.13167
#
# Velocity S-wave (km/s) = 2.49837 2.41533 2.45720
# Velocity P-wave (km/s) = 5.42370 5.90102 5.66739
#
# Compressibility (1/GPa) = 0.02179712
#
# Stress axis : x y z
#
# Youngs Moduli (GPa) = 68.74675 87.62207 115.63173
#
# Poissons Ratio (x) = -0.09383 0.74677
# Poissons Ratio (y) = -0.07362 0.11767
# Poissons Ratio (z) = 0.44398 0.08917
#
# Static dielectric constant tensor:
#      x y z
#    x 1.762910 0.000000 0.000000 
#    y 0.000000 1.907250 0.000000 
#    z 0.000000 0.000000 1.952070 
# 
# From -- ./inp_files/63462.got.cif
#   From: 2010.05.17/outbox.cif.g08.bks.cpg/sg65_32_cif.got.tgz:63462.got - 2010.06.03 17:01:31.
