data_PCOD9487984
_publ_section_title
;
Structure prediction by ZEFSAII (Michael W. Deem and Ramdas Pophale) SiO2 
 PCOD9487984
Probable space group: C M M M
;
_chemical_formula_sum "Si O2"
_cell_formula_units_Z 96
_cell_length_a 8.847504
_cell_length_b 28.506736
_cell_length_c 24.367782
_cell_angle_alpha 90.000000
_cell_angle_beta 90.000000
_cell_angle_gamma 90.000000
_cell_volume 6145.882630
_symmetry_space_group_name_H-M "C M M M"
_symmetry_group_IT_number 65
_symmetry_cell_setting 'orthorhombic'
loop_
_space_group_symop_operation_xyz
x,y,z
-x,-y,z
x,-y,-z
-x,y,-z
-x,-y,-z
x,y,-z
-x,y,z
x,-y,z
1/2+x,1/2+y,z
1/2-x,1/2-y,z
1/2+x,1/2-y,-z
1/2-x,1/2+y,-z
1/2-x,1/2-y,-z
1/2+x,1/2+y,-z
1/2-x,1/2+y,z
1/2+x,1/2-y,z
loop_
_atom_site_type_symbol
_atom_site_label
_atom_site_fract_x
_atom_site_fract_y
_atom_site_fract_z
Si Si1 0.180580 0.801074 0.063331
Si Si2 0.682119 0.445916 0.562906
Si Si3 0.818194 0.699084 0.272659
Si Si4 0.317652 0.143940 0.162079
Si Si5 0.317693 0.892912 0.663994
Si Si6 0.183981 0.552884 0.226107
O O1 0.250000 0.750000 0.075943
O O2 0.244420 0.838051 0.106500
O O3 0.000000 0.798289 0.067649
O O4 0.220057 0.812268 0.000000
O O5 0.726758 0.435331 0.500000
O O6 0.500000 0.444174 0.565388
O O7 0.727637 0.500000 0.574704
O O8 0.750222 0.411268 0.607568
O O9 0.750000 0.750000 0.281912
O O10 0.776825 0.678615 0.212579
O O11 0.772189 0.659283 0.316637
O O12 0.000000 0.701983 0.273962
O O13 0.500000 0.144692 0.157139
O O14 0.270620 0.091939 0.181659
O O15 0.500000 0.893804 0.660956
O O16 0.272183 0.927557 0.713956
O O17 0.237501 0.500000 0.216789
O O18 0.000000 0.552372 0.225680
#
# Coordination Sequence:
#
# PCOD9487984 Si02
#       6
#    16  16  16  16  16  16
#     4  10  20  32  46  65  89 116 146 181 221 263
#     4   9  18  31  45  64  92 121 146 176 217 263
#     4   9  18  30  44  66  93 118 145 179 219 261
#     4   9  17  29  46  68  92 117 146 180 217 258
#     4   9  17  29  46  68  91 115 147 184 218 256
#     4   8  14  26  45  68  93 119 145 177 218 259
#
# _framework density 15.620214000000001
#
# number of rings (size 3 to 8) (size 9 to 14) (size 15 to 20)
#    0.000    3.000    0.000    4.000    0.000    5.000 
#    0.000    3.333    0.000    2.500    0.000    3.500 
#    0.000    0.000    0.000    0.000    0.000    0.000 
#
# Total GULP energy -267452.018525 kJ/mol
# GULP energy per Si atom -5571.917053 kJ/mol
# Density = 1.558466 g / cm^3
# Si number density = 15.620214 Si / 1000 Ang^3
#
#
#
# Elastic Constant Matrix: (Units=GPa)
#
#
# Indices 1 2 3 4 5 6 
#
# 1 14.1087 31.1414 30.4000 0.0000 0.0000 0.0000
# 2 31.1414 151.6079 87.5099 0.0000 0.0000 0.0000
# 3 30.4000 87.5099 111.3310 0.0000 0.0000 0.0000
# 4 0.0000 0.0000 0.0000 23.4088 0.0000 0.0000
# 5 0.0000 0.0000 0.0000 0.0000 25.7718 0.0000
# 6 0.0000 0.0000 0.0000 0.0000 0.0000 22.7679
#
#
#
# Elastic Compliance Matrix: (Units=1/GPa)
#
#
# Indices 1 2 3 4 5 6 
#
# 1 0.193284 -0.016910 -0.039486 0.000000 0.000000 0.000000
# 2 -0.016910 0.013554 -0.006036 0.000000 0.000000 0.000000
# 3 -0.039486 -0.006036 0.024509 0.000000 0.000000 0.000000
# 4 0.000000 0.000000 0.000000 0.042719 0.000000 0.000000
# 5 0.000000 0.000000 0.000000 0.000000 0.038802 0.000000
# 6 0.000000 0.000000 0.000000 0.000000 0.000000 0.043922
#
#
# Mechanical properties :
#
#
# Convention : Reuss Voigt Hill
#
# Bulk Modulus (GPa) = 9.39130 63.90560 36.64845
# Shear Modulus (GPa) = 9.66843 22.92279 16.29561
#
# Velocity S-wave (km/s) = 2.49061 3.83496 3.23342
# Velocity P-wave (km/s) = 3.78103 7.78525 6.11990
#
# Compressibility (1/GPa) = 0.10648154
#
# Stress axis : x y z
#
# Youngs Moduli (GPa) = 5.17374 73.78167 40.80162
#
# Poissons Ratio (x) = 1.24765 1.61110
# Poissons Ratio (y) = 0.08749 0.24628
# Poissons Ratio (z) = 0.20429 0.44535
#
# Static dielectric constant tensor:
#      x y z
#    x 1.527420 0.000000 0.000000 
#    y 0.000000 1.515970 0.000000 
#    z 0.000000 0.000000 1.506660 
# 
# From -- ./inp_files/65758.got.cif
#   From: 2010.05.17/outbox.cif.g08.bks.cpg/sg65_33_cif.got.tgz:65758.got - 2010.06.03 17:01:31.
