data_PCOD9487944
_publ_section_title
;
Structure prediction by ZEFSAII (Michael W. Deem and Ramdas Pophale) SiO2 
 PCOD9487944
Probable space group: C M M M
;
_chemical_formula_sum "Si O2"
_cell_formula_units_Z 112
_cell_length_a 14.799895
_cell_length_b 19.580593
_cell_length_c 19.973634
_cell_angle_alpha 90.000000
_cell_angle_beta 90.000000
_cell_angle_gamma 90.000000
_cell_volume 5788.173787
_symmetry_space_group_name_H-M "C M M M"
_symmetry_group_IT_number 65
_symmetry_cell_setting 'orthorhombic'
loop_
_space_group_symop_operation_xyz
x,y,z
-x,-y,z
x,-y,-z
-x,y,-z
-x,-y,-z
x,y,-z
-x,y,z
x,-y,z
1/2+x,1/2+y,z
1/2-x,1/2-y,z
1/2+x,1/2-y,-z
1/2-x,1/2+y,-z
1/2-x,1/2-y,-z
1/2+x,1/2+y,-z
1/2-x,1/2+y,z
1/2+x,1/2-y,z
loop_
_atom_site_type_symbol
_atom_site_label
_atom_site_fract_x
_atom_site_fract_y
_atom_site_fract_z
Si Si1 0.188474 0.318048 0.927555
Si Si2 0.389496 0.205050 0.576369
Si Si3 0.889534 0.576915 0.331972
Si Si4 0.392600 0.170470 0.215687
Si Si5 0.351926 0.582077 0.072666
Si Si6 0.889355 0.202554 0.305268
Si Si7 0.106250 0.076484 0.776977
O O1 0.250000 0.250000 0.922153
O O2 0.131088 0.325761 0.861400
O O3 0.254662 0.382971 0.928522
O O4 0.141048 0.314038 0.000000
O O5 0.358571 0.207680 0.500000
O O6 0.500000 0.205002 0.575914
O O7 0.362740 0.135208 0.614635
O O8 0.361754 0.269789 0.621959
O O9 0.857659 0.500000 0.345041
O O10 0.861659 0.605138 0.258761
O O11 0.000000 0.575094 0.333595
O O12 0.500000 0.170864 0.221965
O O13 0.360479 0.238288 0.253804
O O14 0.350636 0.500000 0.073060
O O15 0.389903 0.601929 0.145596
O O16 0.394343 0.602104 0.000000
O O17 0.855686 0.131262 0.275301
O O18 0.000000 0.200419 0.305148
O O19 0.000000 0.070828 0.761909
O O20 0.145687 0.000000 0.773115
#
# Coordination Sequence:
#
# PCOD9487944 Si02
#       7
#    16  16  16  16  16  16  16
#     4  10  20  32  45  62  85 112 143 181 221 255
#     4   8  13  21  35  56  83 117 147 166 199 254
#     4   8  14  24  38  59  86 112 140 176 212 244
#     4   9  17  29  45  62  82 113 147 176 211 254
#     4   9  18  31  44  60  85 113 139 174 222 266
#     4   8  14  25  39  57  83 109 135 171 211 250
#     4   9  16  26  43  64  83 108 142 178 217 261
#
# _framework density 19.349799000000001
#
# number of rings (size 3 to 8) (size 9 to 14) (size 15 to 20)
#    0.000    3.286    0.000    2.571    0.000    1.429 
#    0.000    2.857    0.000    5.571    0.000    7.000 
#    0.000   36.571    0.000    6.000    0.000    6.571 
#
# Total GULP energy -311788.180708 kJ/mol
# GULP energy per Si atom -5567.646084 kJ/mol
# Density = 1.930576 g / cm^3
# Si number density = 19.349799 Si / 1000 Ang^3
#
#
#
# Elastic Constant Matrix: (Units=GPa)
#
#
# Indices 1 2 3 4 5 6 
#
# 1 17.0221 4.3235 5.9391 0.0000 0.0000 0.0000
# 2 4.3235 90.2382 82.6205 0.0000 0.0000 0.0000
# 3 5.9391 82.6205 182.1580 0.0000 0.0000 0.0000
# 4 0.0000 0.0000 0.0000 21.2960 0.0000 0.0000
# 5 0.0000 0.0000 0.0000 0.0000 62.4453 0.0000
# 6 0.0000 0.0000 0.0000 0.0000 0.0000 7.7225
#
#
#
# Elastic Compliance Matrix: (Units=1/GPa)
#
#
# Indices 1 2 3 4 5 6 
#
# 1 0.059601 -0.001841 -0.001108 0.000000 0.000000 0.000000
# 2 -0.001841 0.019009 -0.008562 0.000000 0.000000 0.000000
# 3 -0.001108 -0.008562 0.009409 0.000000 0.000000 0.000000
# 4 0.000000 0.000000 0.000000 0.046957 0.000000 0.000000
# 5 0.000000 0.000000 0.000000 0.000000 0.016014 0.000000
# 6 0.000000 0.000000 0.000000 0.000000 0.000000 0.129492
#
#
# Mechanical properties :
#
#
# Convention : Reuss Voigt Hill
#
# Bulk Modulus (GPa) = 15.38517 52.79829 34.09173
# Shear Modulus (GPa) = 15.37655 31.39511 23.38583
#
# Velocity S-wave (km/s) = 2.82203 4.03240 3.48024
# Velocity P-wave (km/s) = 4.31124 7.00184 5.81432
#
# Compressibility (1/GPa) = 0.06499764
#
# Stress axis : x y z
#
# Youngs Moduli (GPa) = 16.77812 52.60655 106.27883
#
# Poissons Ratio (x) = 0.09685 0.11779
# Poissons Ratio (y) = 0.03089 0.90994
# Poissons Ratio (z) = 0.01859 0.45041
#
# Static dielectric constant tensor:
#      x y z
#    x 1.710870 0.000000 0.000000 
#    y 0.000000 1.692460 0.000000 
#    z 0.000000 0.000000 1.703010 
# 
# From -- ./inp_files/54819.got.cif
#   From: 2010.05.17/outbox.cif.g08.bks.cpg/sg65_28_cif.got.tgz:54819.got - 2010.06.03 17:01:31.
