data_PCOD9487566
_publ_section_title
;
Structure prediction by ZEFSAII (Michael W. Deem and Ramdas Pophale) SiO2 
 PCOD9487566
Probable space group: C M M M
;
_chemical_formula_sum "Si O2"
_cell_formula_units_Z 88
_cell_length_a 14.541526
_cell_length_b 18.967223
_cell_length_c 18.108292
_cell_angle_alpha 90.000000
_cell_angle_beta 90.000000
_cell_angle_gamma 90.000000
_cell_volume 4994.490868
_symmetry_space_group_name_H-M "C M M M"
_symmetry_group_IT_number 65
_symmetry_cell_setting 'orthorhombic'
loop_
_space_group_symop_operation_xyz
x,y,z
-x,-y,z
x,-y,-z
-x,y,-z
-x,-y,-z
x,y,-z
-x,y,z
x,-y,z
1/2+x,1/2+y,z
1/2-x,1/2-y,z
1/2+x,1/2-y,-z
1/2-x,1/2+y,-z
1/2-x,1/2-y,-z
1/2+x,1/2+y,-z
1/2-x,1/2+y,z
1/2+x,1/2-y,z
loop_
_atom_site_type_symbol
_atom_site_label
_atom_site_fract_x
_atom_site_fract_y
_atom_site_fract_z
Si Si1 0.110529 0.347426 0.653352
Si Si2 0.611801 0.918622 0.500000
Si Si3 0.606447 0.296869 0.279899
Si Si4 0.247301 0.919544 0.754823
Si Si5 0.893504 0.752764 0.110710
Si Si6 0.253257 0.870389 0.080117
O O1 0.139776 0.378677 0.574534
O O2 0.134110 0.264919 0.663856
O O3 0.159089 0.392619 0.717143
O O4 0.000000 0.352579 0.660024
O O5 0.500000 0.919351 0.500000
O O6 0.642589 0.000000 0.500000
O O7 0.500000 0.316523 0.292313
O O8 0.671062 0.364581 0.274818
O O9 0.612163 0.259491 0.199528
O O10 0.251700 0.913415 0.843882
O O11 0.228165 0.000000 0.734318
O O12 0.836748 0.820039 0.082269
O O13 0.839127 0.683500 0.086093
O O14 0.000000 0.752915 0.089445
O O15 0.256404 0.906586 0.000000
#
# Coordination Sequence:
#
# PCOD9487566 Si02
#       6
#    16   8  16  16  16  16
#     4  10  19  35  59  83 108 138 171 212 258 311
#     4   9  18  32  53  86 120 142 167 207 258 316
#     4   9  18  34  56  77 101 135 179 223 259 307
#     4  11  22  35  52  74 107 145 178 218 267 319
#     4   9  16  30  51  73  97 129 170 219 268 311
#     4  10  20  31  46  72 101 132 177 222 263 316
#
# _framework density 17.619413000000002
#
# number of rings (size 3 to 8) (size 9 to 14) (size 15 to 20)
#    0.000    2.273    1.818    2.182    0.000    3.273 
#    0.000    1.818    0.000    0.000    0.000    7.636 
#    0.000    5.818    0.000    0.000    0.000    0.000 
#
# Total GULP energy -245347.887022 kJ/mol
# GULP energy per Si atom -5576.088341 kJ/mol
# Density = 1.757931 g / cm^3
# Si number density = 17.619413 Si / 1000 Ang^3
#
#
#
# Elastic Constant Matrix: (Units=GPa)
#
#
# Indices 1 2 3 4 5 6 
#
# 1 89.9013 43.3845 30.7422 0.0000 0.0000 0.0000
# 2 43.3845 126.0180 58.7701 0.0000 0.0000 0.0000
# 3 30.7422 58.7701 91.7450 0.0000 0.0000 0.0000
# 4 0.0000 0.0000 0.0000 -5.3438 0.0000 0.0000
# 5 0.0000 0.0000 0.0000 0.0000 11.6298 0.0000
# 6 0.0000 0.0000 0.0000 0.0000 0.0000 13.8729
#
#
#
# Elastic Compliance Matrix: (Units=1/GPa)
#
#
# Indices 1 2 3 4 5 6 
#
# 1 0.013652 -0.003660 -0.002230 0.000000 0.000000 0.000000
# 2 -0.003660 0.012297 -0.006651 0.000000 0.000000 0.000000
# 3 -0.002230 -0.006651 0.015907 0.000000 0.000000 0.000000
# 4 0.000000 0.000000 0.000000 -0.187131 0.000000 0.000000
# 5 0.000000 0.000000 0.000000 0.000000 0.085986 0.000000
# 6 0.000000 0.000000 0.000000 0.000000 0.000000 0.072083
#
#
# Mechanical properties :
#
#
# Convention : Reuss Voigt Hill
#
# Bulk Modulus (GPa) = 59.61330 63.71755 61.66542
# Shear Modulus (GPa) = 115.02601 15.68293 65.35447
#
# Velocity S-wave (km/s) = 8.08860 2.98668 6.09695
# Velocity P-wave (km/s) = 11.00642 6.93797 9.19991
#
# Compressibility (1/GPa) = 0.01677478
#
# Stress axis : x y z
#
# Youngs Moduli (GPa) = 73.24855 81.31951 62.86355
#
# Poissons Ratio (x) = 0.29763 0.14019
# Poissons Ratio (y) = 0.26809 0.41810
# Poissons Ratio (z) = 0.16335 0.54085
#
# Static dielectric constant tensor:
#      x y z
#    x 1.599800 0.000000 0.000000 
#    y 0.000000 1.574680 0.000000 
#    z 0.000000 0.000000 1.619730 
# 
# From -- ./inp_files/53030.got.cif
#   From: 2010.05.17/outbox.cif.g08.bks.cpg/sg65_27_cif.got.tgz:53030.got - 2010.06.03 17:01:31.
