data_PCOD9487391
_publ_section_title
;
Structure prediction by ZEFSAII (Michael W. Deem and Ramdas Pophale) SiO2 
 PCOD9487391
Probable space group: C M M M
;
_chemical_formula_sum "Si O2"
_cell_formula_units_Z 68
_cell_length_a 23.116775
_cell_length_b 17.711221
_cell_length_c 7.870354
_cell_angle_alpha 90.000000
_cell_angle_beta 90.000000
_cell_angle_gamma 90.000000
_cell_volume 3222.330003
_symmetry_space_group_name_H-M "C M M M"
_symmetry_group_IT_number 65
_symmetry_cell_setting 'orthorhombic'
loop_
_space_group_symop_operation_xyz
x,y,z
-x,-y,z
x,-y,-z
-x,y,-z
-x,-y,-z
x,y,-z
-x,y,z
x,-y,z
1/2+x,1/2+y,z
1/2-x,1/2-y,z
1/2+x,1/2-y,-z
1/2-x,1/2+y,-z
1/2-x,1/2-y,-z
1/2+x,1/2+y,-z
1/2-x,1/2+y,z
1/2+x,1/2-y,z
loop_
_atom_site_type_symbol
_atom_site_label
_atom_site_fract_x
_atom_site_fract_y
_atom_site_fract_z
Si Si1 0.500000 0.500000 0.288491
Si Si2 0.366400 0.500000 0.204680
Si Si3 0.209824 0.143077 0.301753
Si Si4 0.000000 0.177094 0.208865
Si Si5 0.616475 0.764609 0.204507
Si Si6 0.333719 0.914789 0.800270
O O1 0.430261 0.500000 0.276058
O O2 0.500000 0.593665 0.284357
O O3 0.332617 0.426595 0.264942
O O4 0.370331 0.500000 0.000000
O O5 0.222729 0.149343 0.500000
O O6 0.173878 0.216487 0.247051
O O7 0.269538 0.120540 0.212850
O O8 0.058169 0.221879 0.259538
O O9 0.000000 0.168153 0.000000
O O10 0.624418 0.849810 0.271664
O O11 0.613178 0.767770 0.000000
O O12 0.334913 0.000000 0.727525
O O13 0.347060 0.921651 0.000000
#
# Coordination Sequence:
#
# PCOD9487391 Si02
#       6
#     4   8  16   8  16  16
#     4  12  21  34  63  90 115 152 193 230 279 336
#     4  12  22  37  60  87 118 156 195 233 275 340
#     4  12  24  37  56  87 121 152 188 238 290 339
#     4  10  19  34  57  87 115 146 193 242 281 337
#     4  10  21  38  60  84 113 153 196 237 287 343
#     4  10  21  38  60  84 112 151 196 240 288 344
#
# _framework density 21.102741999999999
#
# number of rings (size 3 to 8) (size 9 to 14) (size 15 to 20)
#    0.000    1.176    3.529    4.235    0.000    3.765 
#    0.000    3.529    0.000    3.529    0.000    0.000 
#    0.000    3.765    0.000    0.000    0.000    0.000 
#
# Total GULP energy -189492.121502 kJ/mol
# GULP energy per Si atom -5573.297691 kJ/mol
# Density = 2.105471 g / cm^3
# Si number density = 21.102742 Si / 1000 Ang^3
#
#
#
# Elastic Constant Matrix: (Units=GPa)
#
#
# Indices 1 2 3 4 5 6 
#
# 1 75.0429 78.4585 -2.8315 0.0000 0.0000 0.0000
# 2 78.4585 226.0694 8.7594 0.0000 0.0000 0.0000
# 3 -2.8315 8.7594 31.9108 0.0000 0.0000 0.0000
# 4 0.0000 0.0000 0.0000 3.3782 0.0000 0.0000
# 5 0.0000 0.0000 0.0000 0.0000 -157.0687 0.0000
# 6 0.0000 0.0000 0.0000 0.0000 0.0000 26.6720
#
#
#
# Elastic Compliance Matrix: (Units=1/GPa)
#
#
# Indices 1 2 3 4 5 6 
#
# 1 0.021403 -0.007582 0.003981 0.000000 0.000000 0.000000
# 2 -0.007582 0.007157 -0.002637 0.000000 0.000000 0.000000
# 3 0.003981 -0.002637 0.032415 0.000000 0.000000 0.000000
# 4 0.000000 0.000000 0.000000 0.296017 0.000000 0.000000
# 5 0.000000 0.000000 0.000000 0.000000 -0.006367 0.000000
# 6 0.000000 0.000000 0.000000 0.000000 0.000000 0.037493
#
#
# Mechanical properties :
#
#
# Convention : Reuss Voigt Hill
#
# Bulk Modulus (GPa) = 20.62004 55.75510 38.18757
# Shear Modulus (GPa) = 11.99726 -8.82794 1.58466
#
# Velocity S-wave (km/s) = 2.38695 -2.04753 0.86750
# Velocity P-wave (km/s) = 4.17003 4.57037 4.37478
#
# Compressibility (1/GPa) = 0.04849650
#
# Stress axis : x y z
#
# Youngs Moduli (GPa) = 46.72150 139.72103 30.85036
#
# Poissons Ratio (x) = 1.05942 -0.12280
# Poissons Ratio (y) = 0.35426 0.08136
# Poissons Ratio (z) = -0.18598 0.36850
#
# Static dielectric constant tensor:
#      x y z
#    x 1.719290 0.000000 0.000000 
#    y 0.000000 1.783260 0.000000 
#    z 0.000000 0.000000 1.781700 
# 
# From -- ./inp_files/8985.got.cif
#   From: 2010.05.17/outbox.cif.g08.bks.cpg/sg65_5_cif.got.tgz:8985.got - 2010.06.03 17:01:31.
