data_PCOD9487469
_publ_section_title
;
Structure prediction by ZEFSAII (Michael W. Deem and Ramdas Pophale) SiO2 
 PCOD9487469
Probable space group: C M M M
;
_chemical_formula_sum "Si O2"
_cell_formula_units_Z 72
_cell_length_a 14.877790
_cell_length_b 32.564377
_cell_length_c 7.811862
_cell_angle_alpha 90.000000
_cell_angle_beta 90.000000
_cell_angle_gamma 90.000000
_cell_volume 3784.737480
_symmetry_space_group_name_H-M "C M M M"
_symmetry_group_IT_number 65
_symmetry_cell_setting 'orthorhombic'
loop_
_space_group_symop_operation_xyz
x,y,z
-x,-y,z
x,-y,-z
-x,y,-z
-x,-y,-z
x,y,-z
-x,y,z
x,-y,z
1/2+x,1/2+y,z
1/2-x,1/2-y,z
1/2+x,1/2-y,-z
1/2-x,1/2+y,-z
1/2-x,1/2-y,-z
1/2+x,1/2+y,-z
1/2-x,1/2+y,z
1/2+x,1/2-y,z
loop_
_atom_site_type_symbol
_atom_site_label
_atom_site_fract_x
_atom_site_fract_y
_atom_site_fract_z
Si Si1 0.194969 0.453886 0.706832
Si Si2 0.198339 0.366063 0.205952
Si Si3 0.000000 0.659319 0.198821
Si Si4 0.500000 0.951236 0.308712
Si Si5 0.311038 0.288199 0.207017
Si Si6 0.500000 0.747477 0.697320
O O1 0.187938 0.456111 0.500000
O O2 0.223986 0.500000 0.762597
O O3 0.239842 0.410682 0.749712
O O4 0.094736 0.444762 0.779788
O O5 0.263837 0.329873 0.267590
O O6 0.095756 0.356986 0.271527
O O7 0.193710 0.363115 0.000000
O O8 0.000000 0.708863 0.205320
O O9 0.000000 0.646578 0.000000
O O10 0.500000 0.932302 0.500000
O O11 0.500000 0.000000 0.333052
O O12 0.250000 0.250000 0.263627
O O13 0.411782 0.278850 0.263137
O O14 0.310675 0.288720 0.000000
O O15 0.500000 0.759373 0.500000
#
# Coordination Sequence:
#
# PCOD9487469 Si02
#       6
#    16  16   8   8  16   8
#     4   9  17  29  45  66  98 138 172 208 259 312
#     4  10  20  32  52  77 100 135 180 222 256 297
#     4  10  19  35  52  72 105 143 182 213 256 315
#     4   7  11  22  39  58  85 127 171 198 229 290
#     4  10  20  38  59  75 101 142 179 212 257 315
#     4  12  24  35  53  81 109 136 171 219 266 307
#
# _framework density 19.023776000000002
#
# number of rings (size 3 to 8) (size 9 to 14) (size 15 to 20)
#    0.000    2.333    2.222    3.000    0.000    2.667 
#    0.000    0.000    0.000    4.000    0.000    0.778 
#    0.000    6.222    0.000    0.000    0.000    0.000 
#
# Total GULP energy -200459.220223 kJ/mol
# GULP energy per Si atom -5568.311673 kJ/mol
# Density = 1.898048 g / cm^3
# Si number density = 19.023776 Si / 1000 Ang^3
#
#
#
# Elastic Constant Matrix: (Units=GPa)
#
#
# Indices 1 2 3 4 5 6 
#
# 1 99.4030 61.6744 6.5027 0.0000 0.0000 0.0000
# 2 61.6744 180.3171 5.0127 0.0000 0.0000 0.0000
# 3 6.5027 5.0127 28.5843 0.0000 0.0000 0.0000
# 4 0.0000 0.0000 0.0000 26.2320 0.0000 0.0000
# 5 0.0000 0.0000 0.0000 0.0000 45.9748 0.0000
# 6 0.0000 0.0000 0.0000 0.0000 0.0000 22.1830
#
#
#
# Elastic Compliance Matrix: (Units=1/GPa)
#
#
# Indices 1 2 3 4 5 6 
#
# 1 0.012903 -0.004353 -0.002172 0.000000 0.000000 0.000000
# 2 -0.004353 0.007041 -0.000245 0.000000 0.000000 0.000000
# 3 -0.002172 -0.000245 0.035521 0.000000 0.000000 0.000000
# 4 0.000000 0.000000 0.000000 0.038121 0.000000 0.000000
# 5 0.000000 0.000000 0.000000 0.000000 0.021751 0.000000
# 6 0.000000 0.000000 0.000000 0.000000 0.000000 0.045080
#
#
# Mechanical properties :
#
#
# Convention : Reuss Voigt Hill
#
# Bulk Modulus (GPa) = 23.85112 50.52043 37.18577
# Shear Modulus (GPa) = 26.60541 34.55228 30.57885
#
# Velocity S-wave (km/s) = 3.74376 4.26639 4.01359
# Velocity P-wave (km/s) = 5.59038 7.13327 6.40843
#
# Compressibility (1/GPa) = 0.04192676
#
# Stress axis : x y z
#
# Youngs Moduli (GPa) = 77.50241 142.01747 28.15218
#
# Poissons Ratio (x) = 0.61818 0.06115
# Poissons Ratio (y) = 0.33735 0.00689
# Poissons Ratio (z) = 0.16833 0.03474
#
# Static dielectric constant tensor:
#      x y z
#    x 1.752530 0.000000 0.000000 
#    y 0.000000 1.717110 0.000000 
#    z 0.000000 0.000000 1.706700 
# 
# From -- ./inp_files/7771.got.cif
#   From: 2010.05.17/outbox.cif.g08.bks.cpg/sg65_4_cif.got.tgz:7771.got - 2010.06.03 17:01:31.
