data_PCOD9487726
_publ_section_title
;
Structure prediction by ZEFSAII (Michael W. Deem and Ramdas Pophale) SiO2 
 PCOD9487726
Probable space group: C M M M
;
_chemical_formula_sum "Si O2"
_cell_formula_units_Z 80
_cell_length_a 9.573138
_cell_length_b 30.205548
_cell_length_c 15.980388
_cell_angle_alpha 90.000000
_cell_angle_beta 90.000000
_cell_angle_gamma 90.000000
_cell_volume 4620.919027
_symmetry_space_group_name_H-M "C M M M"
_symmetry_group_IT_number 65
_symmetry_cell_setting 'orthorhombic'
loop_
_space_group_symop_operation_xyz
x,y,z
-x,-y,z
x,-y,-z
-x,y,-z
-x,-y,-z
x,y,-z
-x,y,z
x,-y,z
1/2+x,1/2+y,z
1/2-x,1/2-y,z
1/2+x,1/2-y,-z
1/2-x,1/2+y,-z
1/2-x,1/2-y,-z
1/2+x,1/2+y,-z
1/2-x,1/2+y,z
1/2+x,1/2-y,z
loop_
_atom_site_type_symbol
_atom_site_label
_atom_site_fract_x
_atom_site_fract_y
_atom_site_fract_z
Si Si1 0.833973 0.668205 0.000000
Si Si2 0.335744 0.422670 0.000000
Si Si3 0.665108 0.449251 0.600351
Si Si4 0.160723 0.618898 0.709365
Si Si5 0.347034 0.048001 0.144699
Si Si6 0.832302 0.705276 0.813664
O O1 0.741985 0.624326 0.000000
O O2 0.804551 0.692490 0.911490
O O3 0.000000 0.657922 0.000000
O O4 0.277487 0.447681 0.919581
O O5 0.500000 0.417994 0.000000
O O6 0.679769 0.446003 0.500000
O O7 0.500000 0.445888 0.620557
O O8 0.709674 0.500000 0.623345
O O9 0.747137 0.408976 0.643973
O O10 0.158821 0.587019 0.789845
O O11 0.207354 0.666008 0.748517
O O12 0.000000 0.623473 0.679204
O O13 0.500000 0.050965 0.102060
O O14 0.341122 0.000000 0.186533
O O15 0.750000 0.750000 0.794642
O O16 0.000000 0.710903 0.807103
#
# Coordination Sequence:
#
# PCOD9487726 Si02
#       6
#     8   8  16  16  16  16
#     4  10  19  38  58  71 100 144 184 225 273 324
#     4  12  23  32  47  72 103 137 178 227 265 306
#     4   9  19  36  57  83 116 149 176 209 262 321
#     4  10  20  35  56  81 107 138 178 222 265 316
#     4  10  20  35  53  70  98 142 181 214 263 322
#     4  10  21  36  57  80 106 139 179 227 276 323
#
# _framework density 17.312574000000001
#
# number of rings (size 3 to 8) (size 9 to 14) (size 15 to 20)
#    0.000    2.000    2.000    2.700    0.000    5.600 
#    0.000    1.000    0.000    0.600    0.000    0.000 
#    0.000    0.000    0.000    0.000    0.000    0.000 
#
# Total GULP energy -222894.367930 kJ/mol
# GULP energy per Si atom -5572.359198 kJ/mol
# Density = 1.727317 g / cm^3
# Si number density = 17.312574 Si / 1000 Ang^3
#
#
#
# Elastic Constant Matrix: (Units=GPa)
#
#
# Indices 1 2 3 4 5 6 
#
# 1 67.5722 59.0373 39.6394 0.0000 0.0000 0.0000
# 2 59.0373 163.8420 47.1964 0.0000 0.0000 0.0000
# 3 39.6394 47.1964 62.7360 0.0000 0.0000 0.0000
# 4 0.0000 0.0000 0.0000 15.6726 0.0000 0.0000
# 5 0.0000 0.0000 0.0000 0.0000 42.7621 0.0000
# 6 0.0000 0.0000 0.0000 0.0000 0.0000 31.6374
#
#
#
# Elastic Compliance Matrix: (Units=1/GPa)
#
#
# Indices 1 2 3 4 5 6 
#
# 1 0.027875 -0.006346 -0.012838 0.000000 0.000000 0.000000
# 2 -0.006346 0.009237 -0.002939 0.000000 0.000000 0.000000
# 3 -0.012838 -0.002939 0.026263 0.000000 0.000000 0.000000
# 4 0.000000 0.000000 0.000000 0.063806 0.000000 0.000000
# 5 0.000000 0.000000 0.000000 0.000000 0.023385 0.000000
# 6 0.000000 0.000000 0.000000 0.000000 0.000000 0.031608
#
#
# Mechanical properties :
#
#
# Convention : Reuss Voigt Hill
#
# Bulk Modulus (GPa) = 52.28147 65.09960 58.69054
# Shear Modulus (GPa) = 21.47802 27.89955 24.68879
#
# Velocity S-wave (km/s) = 3.52604 4.01873 3.78042
# Velocity P-wave (km/s) = 6.84408 7.69530 7.28214
#
# Compressibility (1/GPa) = 0.01912724
#
# Stress axis : x y z
#
# Youngs Moduli (GPa) = 35.87494 108.26366 38.07650
#
# Poissons Ratio (x) = 0.68702 0.48884
# Poissons Ratio (y) = 0.22766 0.11192
# Poissons Ratio (z) = 0.46058 0.31821
#
# Static dielectric constant tensor:
#      x y z
#    x 1.592910 0.000000 0.000000 
#    y 0.000000 1.592210 0.000000 
#    z 0.000000 0.000000 1.592170 
# 
# From -- ./inp_files/50184.got.cif
#   From: 2010.05.17/outbox.cif.g08.bks.cpg/sg65_26_cif.got.tgz:50184.got - 2010.06.03 17:01:31.
