data_PCOD9487793
_publ_section_title
;
Structure prediction by ZEFSAII (Michael W. Deem and Ramdas Pophale) SiO2 
 PCOD9487793
Probable space group: C M M M
;
_chemical_formula_sum "Si O2"
_cell_formula_units_Z 88
_cell_length_a 30.833807
_cell_length_b 9.378153
_cell_length_c 23.344716
_cell_angle_alpha 90.000000
_cell_angle_beta 90.000000
_cell_angle_gamma 90.000000
_cell_volume 6750.455184
_symmetry_space_group_name_H-M "C M M M"
_symmetry_group_IT_number 65
_symmetry_cell_setting 'orthorhombic'
loop_
_space_group_symop_operation_xyz
x,y,z
-x,-y,z
x,-y,-z
-x,y,-z
-x,-y,-z
x,y,-z
-x,y,z
x,-y,z
1/2+x,1/2+y,z
1/2-x,1/2-y,z
1/2+x,1/2-y,-z
1/2-x,1/2+y,-z
1/2-x,1/2-y,-z
1/2+x,1/2+y,-z
1/2-x,1/2+y,z
1/2+x,1/2-y,z
loop_
_atom_site_type_symbol
_atom_site_label
_atom_site_fract_x
_atom_site_fract_y
_atom_site_fract_z
Si Si1 0.947148 0.664145 0.000000
Si Si2 0.052696 0.663525 0.776287
Si Si3 0.947104 0.836186 0.887124
Si Si4 0.292775 0.835247 0.430330
Si Si5 0.380438 0.668642 0.568593
Si Si6 0.051437 0.329331 0.645864
O O1 0.933457 0.745955 0.057472
O O2 0.933215 0.500000 0.000000
O O3 0.000000 0.664292 0.000000
O O4 0.066325 0.500000 0.786551
O O5 0.067290 0.764265 0.827730
O O6 0.064588 0.705297 0.711547
O O7 0.000000 0.663247 0.776909
O O8 0.000000 0.834738 0.886835
O O9 0.933465 0.000000 0.891516
O O10 0.291586 0.837494 0.500000
O O11 0.250000 0.750000 0.411253
O O12 0.336324 0.750735 0.414534
O O13 0.293206 0.000000 0.411230
O O14 0.385933 0.685513 0.500000
O O15 0.377076 0.500000 0.580429
O O16 0.420082 0.740348 0.601918
O O17 0.057572 0.500000 0.638072
O O18 0.000000 0.301069 0.639509
#
# Coordination Sequence:
#
# PCOD9487793 Si02
#       6
#     8  16  16  16  16  16
#     4   9  15  21  29  41  59  83 107 133 170 213
#     4   8  14  25  38  49  62  83 113 147 182 220
#     4   9  15  21  30  45  63  81 104 137 176 215
#     4   9  16  27  44  63  81  99 118 142 176 220
#     4  10  20  31  42  58  79 100 123 153 190 231
#     4   9  18  31  44  56  71  95 128 163 196 230
#
# _framework density 13.036158
#
# number of rings (size 3 to 8) (size 9 to 14) (size 15 to 20)
#    0.000    3.000    0.000    3.000    0.000    8.000 
#    0.000    3.636    0.000    0.000    0.000    0.000 
#    0.000    0.000    0.000    0.000    0.000    0.000 
#
# Total GULP energy -244943.688663 kJ/mol
# GULP energy per Si atom -5566.902015 kJ/mol
# Density = 1.300649 g / cm^3
# Si number density = 13.036158 Si / 1000 Ang^3
#
#
#
# Elastic Constant Matrix: (Units=GPa)
#
#
# Indices 1 2 3 4 5 6 
#
# 1 49.0819 48.3663 35.7298 0.0000 0.0000 0.0000
# 2 48.3663 117.7135 65.1472 0.0000 0.0000 0.0000
# 3 35.7298 65.1472 64.8451 0.0000 0.0000 0.0000
# 4 0.0000 0.0000 0.0000 19.1282 0.0000 0.0000
# 5 0.0000 0.0000 0.0000 0.0000 -0.5667 0.0000
# 6 0.0000 0.0000 0.0000 0.0000 0.0000 16.6252
#
#
#
# Elastic Compliance Matrix: (Units=1/GPa)
#
#
# Indices 1 2 3 4 5 6 
#
# 1 0.037851 -0.009031 -0.011783 0.000000 0.000000 0.000000
# 2 -0.009031 0.021289 -0.016412 0.000000 0.000000 0.000000
# 3 -0.011783 -0.016412 0.038402 0.000000 0.000000 0.000000
# 4 0.000000 0.000000 0.000000 0.052279 0.000000 0.000000
# 5 0.000000 0.000000 0.000000 0.000000 -1.764514 0.000000
# 6 0.000000 0.000000 0.000000 0.000000 0.000000 0.060150
#
#
# Mechanical properties :
#
#
# Convention : Reuss Voigt Hill
#
# Bulk Modulus (GPa) = 43.30811 58.90303 51.10557
# Shear Modulus (GPa) = -3.39583 12.53050 4.56733
#
# Velocity S-wave (km/s) = -1.61573 3.10370 1.87382
# Velocity P-wave (km/s) = 5.46012 7.62407 6.63096
#
# Compressibility (1/GPa) = 0.02309036
#
# Stress axis : x y z
#
# Youngs Moduli (GPa) = 26.41931 46.97262 26.04040
#
# Poissons Ratio (x) = 0.42423 0.30682
# Poissons Ratio (y) = 0.23860 0.42737
# Poissons Ratio (z) = 0.31129 0.77091
#
# Static dielectric constant tensor:
#      x y z
#    x 1.393910 0.000000 0.000000 
#    y 0.000000 1.436380 0.000000 
#    z 0.000000 0.000000 1.423410 
# 
# From -- ./inp_files/72042.got.cif
#   From: 2010.05.17/outbox.cif.g08.bks.cpg/sg65_37_cif.got.tgz:72042.got - 2010.06.03 17:01:31.
