data_PCOD9487421
_publ_section_title
;
Structure prediction by ZEFSAII (Michael W. Deem and Ramdas Pophale) SiO2 
 PCOD9487421
Probable space group: C M M M
;
_chemical_formula_sum "Si O2"
_cell_formula_units_Z 96
_cell_length_a 15.560994
_cell_length_b 20.242298
_cell_length_c 13.114880
_cell_angle_alpha 90.000000
_cell_angle_beta 90.000000
_cell_angle_gamma 90.000000
_cell_volume 4131.059694
_symmetry_space_group_name_H-M "C M M M"
_symmetry_group_IT_number 65
_symmetry_cell_setting 'orthorhombic'
loop_
_space_group_symop_operation_xyz
x,y,z
-x,-y,z
x,-y,-z
-x,y,-z
-x,-y,-z
x,y,-z
-x,y,z
x,-y,z
1/2+x,1/2+y,z
1/2-x,1/2-y,z
1/2+x,1/2-y,-z
1/2-x,1/2+y,-z
1/2-x,1/2-y,-z
1/2+x,1/2+y,-z
1/2-x,1/2+y,z
1/2+x,1/2-y,z
loop_
_atom_site_type_symbol
_atom_site_label
_atom_site_fract_x
_atom_site_fract_y
_atom_site_fract_z
Si Si1 0.781439 0.885857 0.378631
Si Si2 0.309671 0.923098 0.875156
Si Si3 0.403996 0.500000 0.624611
Si Si4 0.094034 0.222714 0.684400
Si Si5 0.500000 0.080093 0.119830
Si Si6 0.320598 0.308300 0.883746
Si Si7 0.092898 0.376205 0.623575
O O1 0.777279 0.894000 0.500000
O O2 0.851931 0.936704 0.340233
O O3 0.822685 0.814289 0.359885
O O4 0.685471 0.902930 0.342275
O O5 0.405486 0.898143 0.842712
O O6 0.232249 0.873482 0.849544
O O7 0.298056 0.000000 0.846546
O O8 0.312159 0.922305 0.000000
O O9 0.500000 0.500000 0.662981
O O10 0.406755 0.500000 0.500000
O O11 0.106065 0.211614 0.804810
O O12 0.095334 0.299005 0.653174
O O13 0.000000 0.196348 0.650339
O O14 0.500000 0.000000 0.126140
O O15 0.500000 0.097723 0.000000
O O16 0.250000 0.250000 0.881690
O O17 0.350319 0.316332 0.000000
O O18 0.092558 0.380388 0.500000
O O19 0.000000 0.405118 0.656318
#
# Coordination Sequence:
#
# PCOD9487421 Si02
#       7
#    16  16   8  16   8  16  16
#     4  10  19  34  58  85 115 147 181 228 280 331
#     4   8  14  28  52  78 103 133 171 223 283 340
#     4   9  18  32  51  81 120 156 189 224 265 319
#     4  11  22  36  56  79 108 147 187 235 287 336
#     4   7  10  20  44  78 104 120 154 208 272 344
#     4  10  21  37  54  75 108 148 190 234 283 342
#     4   9  18  33  57  89 116 140 177 224 280 346
#
# _framework density 23.238589999999999
#
# number of rings (size 3 to 8) (size 9 to 14) (size 15 to 20)
#    0.000    2.667    0.000    3.500    0.000    3.333 
#    3.000    0.417    1.833    2.500    0.000    2.333 
#    0.000    0.000    0.000    0.000    0.000    0.500 
#
# Total GULP energy -268164.886876 kJ/mol
# GULP energy per Si atom -5586.768477 kJ/mol
# Density = 2.318570 g / cm^3
# Si number density = 23.238590 Si / 1000 Ang^3
#
#
#
# Elastic Constant Matrix: (Units=GPa)
#
#
# Indices 1 2 3 4 5 6 
#
# 1 166.2042 20.4672 23.0592 0.0000 0.0000 0.0000
# 2 20.4672 49.9797 -11.6233 0.0000 0.0000 0.0000
# 3 23.0592 -11.6233 53.9911 0.0000 0.0000 0.0000
# 4 0.0000 0.0000 0.0000 18.9162 0.0000 0.0000
# 5 0.0000 0.0000 0.0000 0.0000 39.1435 0.0000
# 6 0.0000 0.0000 0.0000 0.0000 0.0000 19.8334
#
#
#
# Elastic Compliance Matrix: (Units=1/GPa)
#
#
# Indices 1 2 3 4 5 6 
#
# 1 0.007006 -0.003753 -0.003800 0.000000 0.000000 0.000000
# 2 -0.003753 0.023073 0.006570 0.000000 0.000000 0.000000
# 3 -0.003800 0.006570 0.021559 0.000000 0.000000 0.000000
# 4 0.000000 0.000000 0.000000 0.052865 0.000000 0.000000
# 5 0.000000 0.000000 0.000000 0.000000 0.025547 0.000000
# 6 0.000000 0.000000 0.000000 0.000000 0.000000 0.050420
#
#
# Mechanical properties :
#
#
# Convention : Reuss Voigt Hill
#
# Bulk Modulus (GPa) = 20.13212 37.10904 28.62058
# Shear Modulus (GPa) = 25.12651 31.46341 28.29496
#
# Velocity S-wave (km/s) = 3.29179 3.68357 3.49318
# Velocity P-wave (km/s) = 4.80935 5.83909 5.34906
#
# Compressibility (1/GPa) = 0.04967186
#
# Stress axis : x y z
#
# Youngs Moduli (GPa) = 142.73340 43.34099 46.38442
#
# Poissons Ratio (x) = 0.16265 0.17627
# Poissons Ratio (y) = 0.53565 -0.30474
# Poissons Ratio (z) = 0.54241 -0.28475
#
# Static dielectric constant tensor:
#      x y z
#    x 1.901930 0.000000 0.000000 
#    y 0.000000 1.854250 0.000000 
#    z 0.000000 0.000000 1.964220 
# 
# From -- ./inp_files/40460.got.cif
#   From: 2010.05.17/outbox.cif.g08.bks.cpg/sg65_21_cif.got.tgz:40460.got - 2010.06.03 17:01:31.
