data_PCOD9487727
_publ_section_title
;
Structure prediction by ZEFSAII (Michael W. Deem and Ramdas Pophale) SiO2 
 PCOD9487727
Probable space group: C M M M
;
_chemical_formula_sum "Si O2"
_cell_formula_units_Z 104
_cell_length_a 30.262847
_cell_length_b 9.171326
_cell_length_c 24.350294
_cell_angle_alpha 90.000000
_cell_angle_beta 90.000000
_cell_angle_gamma 90.000000
_cell_volume 6758.434705
_symmetry_space_group_name_H-M "C M M M"
_symmetry_group_IT_number 65
_symmetry_cell_setting 'orthorhombic'
loop_
_space_group_symop_operation_xyz
x,y,z
-x,-y,z
x,-y,-z
-x,y,-z
-x,-y,-z
x,y,-z
-x,y,z
x,-y,z
1/2+x,1/2+y,z
1/2-x,1/2-y,z
1/2+x,1/2-y,-z
1/2-x,1/2+y,-z
1/2-x,1/2-y,-z
1/2+x,1/2+y,-z
1/2-x,1/2+y,z
1/2+x,1/2-y,z
loop_
_atom_site_type_symbol
_atom_site_label
_atom_site_fract_x
_atom_site_fract_y
_atom_site_fract_z
Si Si1 0.703724 0.823204 0.377469
Si Si2 0.553331 0.166656 0.889974
Si Si3 0.618219 0.831841 0.691488
Si Si4 0.446043 0.668928 0.000000
Si Si5 0.078992 0.167093 0.500000
Si Si6 0.328033 0.174905 0.500000
Si Si7 0.552000 0.675204 0.224985
Si Si8 0.547450 0.840039 0.403666
O O1 0.750000 0.750000 0.362702
O O2 0.665226 0.781572 0.333828
O O3 0.692821 0.779545 0.441161
O O4 0.706164 0.000000 0.376800
O O5 0.500000 0.159423 0.894306
O O6 0.561878 0.257960 0.834988
O O7 0.569569 0.000000 0.886177
O O8 0.568801 0.247858 0.945038
O O9 0.589537 0.738742 0.734532
O O10 0.587021 0.834569 0.638199
O O11 0.622765 0.000000 0.711298
O O12 0.432513 0.500000 0.000000
O O13 0.500000 0.669919 0.000000
O O14 0.122639 0.264806 0.500000
O O15 0.051830 0.212835 0.446940
O O16 0.091276 0.000000 0.500000
O O17 0.328290 0.000000 0.500000
O O18 0.500000 0.714447 0.238427
O O19 0.554001 0.500000 0.224240
O O20 0.500000 0.831158 0.374880
O O21 0.549340 0.000000 0.431382
#
# Coordination Sequence:
#
# PCOD9487727 Si02
#       8
#    16  16  16   8   8   8  16  16
#     4  10  21  36  57  77  95 116 144 185 233 287
#     4   9  16  26  41  61  87 123 167 206 237 277
#     4  10  20  35  53  70  89 119 156 190 225 276
#     4   9  15  23  37  59  89 123 160 205 250 281
#     4  12  23  32  47  70  95 117 142 185 229 268
#     4  10  19  38  58  71  92 120 148 179 223 288
#     4  10  20  32  46  67  96 128 161 201 244 278
#     4  10  20  35  53  67  86 120 155 184 221 274
#
# _framework density 15.388178
#
# number of rings (size 3 to 8) (size 9 to 14) (size 15 to 20)
#    0.000    2.077    1.538    2.769    0.000    7.385 
#    0.000    0.000    0.000    0.000    0.000    0.000 
#    0.000    0.000    0.000    0.692    0.000    9.462 
#
# Total GULP energy -289632.830062 kJ/mol
# GULP energy per Si atom -5569.862117 kJ/mol
# Density = 1.535315 g / cm^3
# Si number density = 15.388178 Si / 1000 Ang^3
#
#
#
# Elastic Constant Matrix: (Units=GPa)
#
#
# Indices 1 2 3 4 5 6 
#
# 1 101.5037 27.2201 42.2636 0.0000 0.0000 0.0000
# 2 27.2201 54.5802 48.2552 0.0000 0.0000 0.0000
# 3 42.2636 48.2552 98.9708 0.0000 0.0000 0.0000
# 4 0.0000 0.0000 0.0000 -38.4199 0.0000 0.0000
# 5 0.0000 0.0000 0.0000 0.0000 -96.1004 0.0000
# 6 0.0000 0.0000 0.0000 0.0000 0.0000 19.8296
#
#
#
# Elastic Compliance Matrix: (Units=1/GPa)
#
#
# Indices 1 2 3 4 5 6 
#
# 1 0.012188 -0.002596 -0.003939 0.000000 0.000000 0.000000
# 2 -0.002596 0.032756 -0.014863 0.000000 0.000000 0.000000
# 3 -0.003939 -0.014863 0.019033 0.000000 0.000000 0.000000
# 4 0.000000 0.000000 0.000000 -0.026028 0.000000 0.000000
# 5 0.000000 0.000000 0.000000 0.000000 -0.010406 0.000000
# 6 0.000000 0.000000 0.000000 0.000000 0.000000 0.050430
#
#
# Mechanical properties :
#
#
# Convention : Reuss Voigt Hill
#
# Bulk Modulus (GPa) = 47.20925 54.50359 50.85642
# Shear Modulus (GPa) = 39.11488 -13.78376 12.66556
#
# Velocity S-wave (km/s) = 5.04717 -2.99613 2.87203
# Velocity P-wave (km/s) = 8.04430 4.85046 6.64220
#
# Compressibility (1/GPa) = 0.02118229
#
# Stress axis : x y z
#
# Youngs Moduli (GPa) = 82.04723 30.52831 52.54142
#
# Poissons Ratio (x) = 0.07925 0.20696
# Poissons Ratio (y) = 0.21298 0.78090
# Poissons Ratio (z) = 0.32319 0.45373
#
# Static dielectric constant tensor:
#      x y z
#    x 1.498880 0.000000 0.000000 
#    y 0.000000 1.530590 0.000000 
#    z 0.000000 0.000000 1.518480 
# 
# From -- ./inp_files/71923.got.cif
#   From: 2010.05.17/outbox.cif.g08.bks.cpg/sg65_36_cif.got.tgz:71923.got - 2010.06.03 17:01:31.
