data_PCOD9487745
_publ_section_title
;
Structure prediction by ZEFSAII (Michael W. Deem and Ramdas Pophale) SiO2 
 PCOD9487745
Probable space group: C M M M
;
_chemical_formula_sum "Si O2"
_cell_formula_units_Z 80
_cell_length_a 23.950178
_cell_length_b 18.764026
_cell_length_c 7.255183
_cell_angle_alpha 90.000000
_cell_angle_beta 90.000000
_cell_angle_gamma 90.000000
_cell_volume 3260.492029
_symmetry_space_group_name_H-M "C M M M"
_symmetry_group_IT_number 65
_symmetry_cell_setting 'orthorhombic'
loop_
_space_group_symop_operation_xyz
x,y,z
-x,-y,z
x,-y,-z
-x,y,-z
-x,-y,-z
x,y,-z
-x,y,z
x,-y,z
1/2+x,1/2+y,z
1/2-x,1/2-y,z
1/2+x,1/2-y,-z
1/2-x,1/2+y,-z
1/2-x,1/2-y,-z
1/2+x,1/2+y,-z
1/2-x,1/2+y,z
1/2+x,1/2-y,z
loop_
_atom_site_type_symbol
_atom_site_label
_atom_site_fract_x
_atom_site_fract_y
_atom_site_fract_z
Si Si1 0.063706 0.152931 0.722989
Si Si2 0.168176 0.227826 0.792431
Si Si3 0.932591 0.000000 0.279957
Si Si4 0.933856 0.500000 0.775614
Si Si5 0.340471 0.886527 0.776535
Si Si6 0.784081 0.077093 0.777099
O O1 0.065562 0.153315 0.500000
O O2 0.102430 0.213462 0.797160
O O3 0.000000 0.160119 0.777808
O O4 0.086440 0.076251 0.789889
O O5 0.170984 0.305948 0.707805
O O6 0.192712 0.154056 0.710292
O O7 0.190824 0.232062 0.000000
O O8 0.925872 0.000000 0.500000
O O9 0.000000 0.000000 0.250078
O O10 0.895369 0.431415 0.718723
O O11 0.000000 0.500000 0.719064
O O12 0.934593 0.500000 0.000000
O O13 0.281872 0.924159 0.735642
O O14 0.344952 0.881773 0.000000
O O15 0.807758 0.000000 0.713032
O O16 0.789939 0.078255 0.000000
#
# Coordination Sequence:
#
# PCOD9487745 Si02
#       6
#    16  16   8   8  16  16
#     4   9  18  33  50  67  93 133 172 200 236 293
#     4  10  20  29  46  77 104 125 159 210 260 299
#     4   7  12  26  46  61  77 113 163 197 214 257
#     4   9  16  26  43  66  93 131 174 209 244 290
#     4   9  16  29  45  65  98 135 164 199 250 302
#     4   9  16  28  46  67  96 133 168 198 243 308
#
# _framework density 24.536173999999999
#
# number of rings (size 3 to 8) (size 9 to 14) (size 15 to 20)
#    0.000    3.000    1.000    1.800    1.400    3.600 
#    0.000    2.000    0.000    4.200    0.000    0.700 
#    0.000    2.400    0.000    0.000    0.000    0.000 
#
# Total GULP energy -223130.738104 kJ/mol
# GULP energy per Si atom -5578.268453 kJ/mol
# Density = 2.448033 g / cm^3
# Si number density = 24.536174 Si / 1000 Ang^3
#
#
#
# Elastic Constant Matrix: (Units=GPa)
#
#
# Indices 1 2 3 4 5 6 
#
# 1 144.8917 74.8252 6.6217 0.0000 0.0000 0.0000
# 2 74.8252 229.0330 9.3909 0.0000 0.0000 0.0000
# 3 6.6217 9.3909 110.0945 0.0000 0.0000 0.0000
# 4 0.0000 0.0000 0.0000 -17.6403 0.0000 0.0000
# 5 0.0000 0.0000 0.0000 0.0000 13.1451 0.0000
# 6 0.0000 0.0000 0.0000 0.0000 0.0000 49.1342
#
#
#
# Elastic Compliance Matrix: (Units=1/GPa)
#
#
# Indices 1 2 3 4 5 6 
#
# 1 0.008310 -0.002704 -0.000269 0.000000 0.000000 0.000000
# 2 -0.002704 0.005261 -0.000286 0.000000 0.000000 0.000000
# 3 -0.000269 -0.000286 0.009124 0.000000 0.000000 0.000000
# 4 0.000000 0.000000 0.000000 -0.056688 0.000000 0.000000
# 5 0.000000 0.000000 0.000000 0.000000 0.076074 0.000000
# 6 0.000000 0.000000 0.000000 0.000000 0.000000 0.020352
#
#
# Mechanical properties :
#
#
# Convention : Reuss Voigt Hill
#
# Bulk Modulus (GPa) = 61.81697 73.96609 67.89153
# Shear Modulus (GPa) = 67.25470 35.13990 51.19730
#
# Velocity S-wave (km/s) = 5.24118 3.78850 4.57289
# Velocity P-wave (km/s) = 7.86610 7.02483 7.45733
#
# Compressibility (1/GPa) = 0.01617679
#
# Stress axis : x y z
#
# Youngs Moduli (GPa) = 120.33111 190.06688 109.60461
#
# Poissons Ratio (x) = 0.51394 0.02950
# Poissons Ratio (y) = 0.32537 0.03136
# Poissons Ratio (z) = 0.03239 0.05439
#
# Static dielectric constant tensor:
#      x y z
#    x 1.924820 0.000000 0.000000 
#    y 0.000000 1.981780 0.000000 
#    z 0.000000 0.000000 1.938890 
# 
# From -- ./inp_files/30722.got.cif
#   From: 2010.05.17/outbox.cif.g08.bks.cpg/sg65_16_cif.got.tgz:30722.got - 2010.06.03 17:01:31.
