data_PCOD9487891
_publ_section_title
;
Structure prediction by ZEFSAII (Michael W. Deem and Ramdas Pophale) SiO2 
 PCOD9487891
Probable space group: C M M M
;
_chemical_formula_sum "Si O2"
_cell_formula_units_Z 112
_cell_length_a 21.332985
_cell_length_b 18.087213
_cell_length_c 13.984469
_cell_angle_alpha 90.000000
_cell_angle_beta 90.000000
_cell_angle_gamma 90.000000
_cell_volume 5395.966708
_symmetry_space_group_name_H-M "C M M M"
_symmetry_group_IT_number 65
_symmetry_cell_setting 'orthorhombic'
loop_
_space_group_symop_operation_xyz
x,y,z
-x,-y,z
x,-y,-z
-x,y,-z
-x,-y,-z
x,y,-z
-x,y,z
x,-y,z
1/2+x,1/2+y,z
1/2-x,1/2-y,z
1/2+x,1/2-y,-z
1/2-x,1/2+y,-z
1/2-x,1/2-y,-z
1/2+x,1/2+y,-z
1/2-x,1/2+y,z
1/2+x,1/2-y,z
loop_
_atom_site_type_symbol
_atom_site_label
_atom_site_fract_x
_atom_site_fract_y
_atom_site_fract_z
Si Si1 0.831997 0.184253 0.610476
Si Si2 0.606213 0.083031 0.242612
Si Si3 0.568981 0.585476 0.299471
Si Si4 0.929521 0.282310 0.109854
Si Si5 0.744414 0.586292 0.753595
Si Si6 0.639611 0.368298 0.888220
Si Si7 0.571152 0.191464 0.386177
O O1 0.813035 0.193073 0.500000
O O2 0.886674 0.124282 0.624575
O O3 0.777966 0.147835 0.675934
O O4 0.870056 0.257001 0.646017
O O5 0.579544 0.146783 0.174985
O O6 0.681378 0.086244 0.236629
O O7 0.584626 0.110038 0.346841
O O8 0.585621 0.000000 0.220385
O O9 0.500000 0.618035 0.303254
O O10 0.566505 0.500000 0.321727
O O11 0.595893 0.593894 0.191960
O O12 0.878425 0.217981 0.123840
O O13 0.000000 0.251023 0.123981
O O14 0.925024 0.305814 0.000000
O O15 0.725945 0.500000 0.729742
O O16 0.708451 0.609991 0.850597
O O17 0.629839 0.387394 0.000000
O O18 0.572124 0.195445 0.500000
O O19 0.500000 0.213047 0.355751
#
# Coordination Sequence:
#
# PCOD9487891 Si02
#       7
#    16  16  16  16  16  16  16
#     4  10  20  36  59  82 110 150 188 228 281 332
#     4  11  24  41  60  82 113 152 188 231 289 338
#     4  10  20  31  47  78 115 148 188 233 273 326
#     4  10  22  39  60  88 116 143 184 235 284 340
#     4  10  23  39  55  83 118 151 194 238 271 322
#     4  10  20  36  59  82 110 150 188 228 281 332
#     4  10  22  39  60  88 116 143 184 235 284 340
#
# _framework density 20.756243000000001
#
# number of rings (size 3 to 8) (size 9 to 14) (size 15 to 20)
#    0.000    1.857    0.000    4.714    0.000    9.143 
#    0.000    8.571    0.000    0.000    0.000    0.000 
#    0.000    0.000    0.000    0.000    0.000    0.000 
#
# Total GULP energy -312343.729838 kJ/mol
# GULP energy per Si atom -5577.566604 kJ/mol
# Density = 2.070900 g / cm^3
# Si number density = 20.756243 Si / 1000 Ang^3
#
#
#
# Elastic Constant Matrix: (Units=GPa)
#
#
# Indices 1 2 3 4 5 6 
#
# 1 66.6620 18.0780 8.3090 0.0000 0.0000 0.0000
# 2 18.0780 87.1849 3.7956 0.0000 0.0000 0.0000
# 3 8.3090 3.7956 43.1060 0.0000 0.0000 0.0000
# 4 0.0000 0.0000 0.0000 -9.7607 0.0000 0.0000
# 5 0.0000 0.0000 0.0000 0.0000 18.3238 0.0000
# 6 0.0000 0.0000 0.0000 0.0000 0.0000 22.6032
#
#
#
# Elastic Compliance Matrix: (Units=1/GPa)
#
#
# Indices 1 2 3 4 5 6 
#
# 1 0.016235 -0.003243 -0.002844 0.000000 0.000000 0.000000
# 2 -0.003243 0.012162 -0.000446 0.000000 0.000000 0.000000
# 3 -0.002844 -0.000446 0.023786 0.000000 0.000000 0.000000
# 4 0.000000 0.000000 0.000000 -0.102451 0.000000 0.000000
# 5 0.000000 0.000000 0.000000 0.000000 0.054574 0.000000
# 6 0.000000 0.000000 0.000000 0.000000 0.000000 0.044242
#
#
# Mechanical properties :
#
#
# Convention : Reuss Voigt Hill
#
# Bulk Modulus (GPa) = 25.56362 28.59089 27.07725
# Shear Modulus (GPa) = 66.97887 17.35127 42.16507
#
# Velocity S-wave (km/s) = 5.68677 2.89442 4.51204
# Velocity P-wave (km/s) = 7.44728 4.99747 6.34179
#
# Compressibility (1/GPa) = 0.03911809
#
# Stress axis : x y z
#
# Youngs Moduli (GPa) = 61.59583 82.22577 42.04140
#
# Poissons Ratio (x) = 0.26662 0.11956
# Poissons Ratio (y) = 0.19973 0.01874
# Poissons Ratio (z) = 0.17517 0.03666
#
# Static dielectric constant tensor:
#      x y z
#    x 1.772690 0.000000 0.000000 
#    y 0.000000 1.745350 0.000000 
#    z 0.000000 0.000000 1.744790 
# 
# From -- ./inp_files/45776.got.cif
#   From: 2010.05.17/outbox.cif.g08.bks.cpg/sg65_23_cif.got.tgz:45776.got - 2010.06.03 17:01:31.
