data_PCOD9487022
_publ_section_title
;
Structure prediction by ZEFSAII (Michael W. Deem and Ramdas Pophale) SiO2 
 PCOD9487022
Probable space group: C M M M
;
_chemical_formula_sum "Si O2"
_cell_formula_units_Z 52
_cell_length_a 7.561405
_cell_length_b 14.675134
_cell_length_c 18.355474
_cell_angle_alpha 90.000000
_cell_angle_beta 90.000000
_cell_angle_gamma 90.000000
_cell_volume 2036.808410
_symmetry_space_group_name_H-M "C M M M"
_symmetry_group_IT_number 65
_symmetry_cell_setting 'orthorhombic'
loop_
_space_group_symop_operation_xyz
x,y,z
-x,-y,z
x,-y,-z
-x,y,-z
-x,-y,-z
x,y,-z
-x,y,z
x,-y,z
1/2+x,1/2+y,z
1/2-x,1/2-y,z
1/2+x,1/2-y,-z
1/2-x,1/2+y,-z
1/2-x,1/2-y,-z
1/2+x,1/2+y,-z
1/2-x,1/2+y,z
1/2+x,1/2-y,z
loop_
_atom_site_type_symbol
_atom_site_label
_atom_site_fract_x
_atom_site_fract_y
_atom_site_fract_z
Si Si1 0.212479 0.641326 0.921616
Si Si2 0.000000 0.676263 0.500000
Si Si3 0.196047 0.894566 0.602216
Si Si4 0.789125 0.642286 0.764121
O O1 0.250000 0.750000 0.921695
O O2 0.276478 0.607207 0.842930
O O3 0.000000 0.628661 0.921459
O O4 0.279148 0.606620 0.000000
O O5 0.153914 0.662225 0.563288
O O6 0.209777 0.893338 0.689467
O O7 0.000000 0.862654 0.580882
O O8 0.217875 0.000000 0.580019
O O9 0.750000 0.750000 0.763756
O O10 0.000000 0.627029 0.760787
#
# Coordination Sequence:
#
# PCOD9487022 Si02
#       4
#    16   4  16  16
#     4   8  14  25  44  73 106 143 185 224 265 316
#     4  12  23  42  66  86 108 142 187 234 283 338
#     4  11  23  39  62  87 111 143 187 234 278 334
#     4  10  19  33  55  81 117 153 184 230 281 333
#
# _framework density 25.530138000000001
#
# number of rings (size 3 to 8) (size 9 to 14) (size 15 to 20)
#    0.000    2.154    1.538    2.769    0.000    2.462 
#    0.000    0.769    0.000    0.923    0.000    6.462 
#    0.000    0.000    0.000    0.000    0.000    0.000 
#
# Total GULP energy -144954.687288 kJ/mol
# GULP energy per Si atom -5575.180280 kJ/mol
# Density = 2.547203 g / cm^3
# Si number density = 25.530138 Si / 1000 Ang^3
#
#
#
# Elastic Constant Matrix: (Units=GPa)
#
#
# Indices 1 2 3 4 5 6 
#
# 1 166.5198 15.3023 49.0211 0.0000 0.0000 0.0000
# 2 15.3023 95.2486 13.0211 0.0000 0.0000 0.0000
# 3 49.0211 13.0211 308.7456 0.0000 0.0000 0.0000
# 4 0.0000 0.0000 0.0000 746.4715 0.0000 0.0000
# 5 0.0000 0.0000 0.0000 0.0000 17.8935 0.0000
# 6 0.0000 0.0000 0.0000 0.0000 0.0000 0.1155
#
#
#
# Elastic Compliance Matrix: (Units=1/GPa)
#
#
# Indices 1 2 3 4 5 6 
#
# 1 0.006374 -0.000891 -0.000974 0.000000 0.000000 0.000000
# 2 -0.000891 0.010684 -0.000309 0.000000 0.000000 0.000000
# 3 -0.000974 -0.000309 0.003407 0.000000 0.000000 0.000000
# 4 0.000000 0.000000 0.000000 0.001340 0.000000 0.000000
# 5 0.000000 0.000000 0.000000 0.000000 0.055886 0.000000
# 6 0.000000 0.000000 0.000000 0.000000 0.000000 8.655483
#
#
# Mechanical properties :
#
#
# Convention : Reuss Voigt Hill
#
# Bulk Modulus (GPa) = 62.04998 80.57811 71.31405
# Shear Modulus (GPa) = 0.57189 185.77409 93.17299
#
# Velocity S-wave (km/s) = 0.47381 8.53959 6.04769
# Velocity P-wave (km/s) = 4.96555 11.35179 8.76128
#
# Compressibility (1/GPa) = 0.01611604
#
# Stress axis : x y z
#
# Youngs Moduli (GPa) = 156.88686 93.59597 293.54160
#
# Poissons Ratio (x) = 0.08338 0.28605
# Poissons Ratio (y) = 0.13976 0.09075
# Poissons Ratio (z) = 0.15288 0.02894
#
# Static dielectric constant tensor:
#      x y z
#    x 1.924500 0.000000 0.000000 
#    y 0.000000 2.053210 0.000000 
#    z 0.000000 0.000000 2.038620 
# 
# From -- ./inp_files/35681.got.cif
#   From: 2010.05.17/outbox.cif.g08.bks.cpg/sg65_18_cif.got.tgz:35681.got - 2010.06.03 17:01:31.
