data_PCOD9487906
_publ_section_title
;
Structure prediction by ZEFSAII (Michael W. Deem and Ramdas Pophale) SiO2 
 PCOD9487906
Probable space group: C M M M
;
_chemical_formula_sum "Si O2"
_cell_formula_units_Z 88
_cell_length_a 27.641143
_cell_length_b 7.401033
_cell_length_c 23.466953
_cell_angle_alpha 90.000000
_cell_angle_beta 90.000000
_cell_angle_gamma 90.000000
_cell_volume 4800.705246
_symmetry_space_group_name_H-M "C M M M"
_symmetry_group_IT_number 65
_symmetry_cell_setting 'orthorhombic'
loop_
_space_group_symop_operation_xyz
x,y,z
-x,-y,z
x,-y,-z
-x,y,-z
-x,-y,-z
x,y,-z
-x,y,z
x,-y,z
1/2+x,1/2+y,z
1/2-x,1/2-y,z
1/2+x,1/2-y,-z
1/2-x,1/2+y,-z
1/2-x,1/2-y,-z
1/2+x,1/2+y,-z
1/2-x,1/2+y,z
1/2+x,1/2-y,z
loop_
_atom_site_type_symbol
_atom_site_label
_atom_site_fract_x
_atom_site_fract_y
_atom_site_fract_z
Si Si1 0.942890 0.000000 0.785338
Si Si2 0.865767 0.280271 0.387361
Si Si3 0.942541 0.000000 0.647911
Si Si4 0.192424 0.284964 0.500000
Si Si5 0.194749 0.715672 0.064476
Si Si6 0.869464 0.280646 0.830597
Si Si7 0.193526 0.713956 0.276555
O O1 0.934635 0.000000 0.716726
O O2 0.917721 0.825619 0.813934
O O3 0.000000 0.000000 0.794565
O O4 0.871812 0.500000 0.387557
O O5 0.915873 0.174197 0.379236
O O6 0.835902 0.224055 0.443506
O O7 0.833619 0.222559 0.332985
O O8 0.000000 0.000000 0.638083
O O9 0.188148 0.500000 0.500000
O O10 0.250000 0.250000 0.500000
O O11 0.189798 0.500000 0.061619
O O12 0.250000 0.750000 0.083850
O O13 0.154937 0.776115 0.109803
O O14 0.189771 0.787749 0.000000
O O15 0.875475 0.500000 0.830114
O O16 0.831670 0.223942 0.781225
O O17 0.187180 0.500000 0.276733
O O18 0.250000 0.750000 0.278086
#
# Coordination Sequence:
#
# PCOD9487906 Si02
#       7
#     8  16   8   8  16  16  16
#     4  11  24  40  62  88 110 148 203 251 306 350
#     4  10  22  40  57  85 122 151 192 242 287 350
#     4  11  24  41  66  88 110 155 201 251 309 342
#     4  10  22  38  60  89 121 164 196 226 285 350
#     4   9  18  32  52  82 119 159 195 227 279 348
#     4  10  21  37  55  83 117 148 190 241 295 346
#     4  10  20  31  51  80 112 151 184 225 285 340
#
# _framework density 18.330639999999999
#
# number of rings (size 3 to 8) (size 9 to 14) (size 15 to 20)
#    0.000    2.000    1.818    1.091    5.091    0.727 
#    0.000    2.727    0.000    2.727    0.000    2.545 
#    0.000    0.000    0.000    0.000    0.000    0.000 
#
# Total GULP energy -245489.709442 kJ/mol
# GULP energy per Si atom -5579.311578 kJ/mol
# Density = 1.828892 g / cm^3
# Si number density = 18.330640 Si / 1000 Ang^3
#
#
#
# Elastic Constant Matrix: (Units=GPa)
#
#
# Indices 1 2 3 4 5 6 
#
# 1 162.0788 42.3918 77.7740 0.0000 0.0000 0.0000
# 2 42.3918 84.4845 33.6328 0.0000 0.0000 0.0000
# 3 77.7740 33.6328 118.7408 0.0000 0.0000 0.0000
# 4 0.0000 0.0000 0.0000 -7.3322 0.0000 0.0000
# 5 0.0000 0.0000 0.0000 0.0000 27.5484 0.0000
# 6 0.0000 0.0000 0.0000 0.0000 0.0000 33.5858
#
#
#
# Elastic Compliance Matrix: (Units=1/GPa)
#
#
# Indices 1 2 3 4 5 6 
#
# 1 0.009469 -0.002572 -0.005474 0.000000 0.000000 0.000000
# 2 -0.002572 0.014040 -0.002292 0.000000 0.000000 0.000000
# 3 -0.005474 -0.002292 0.012656 0.000000 0.000000 0.000000
# 4 0.000000 0.000000 0.000000 -0.136386 0.000000 0.000000
# 5 0.000000 0.000000 0.000000 0.000000 0.036300 0.000000
# 6 0.000000 0.000000 0.000000 0.000000 0.000000 0.029774
#
#
# Mechanical properties :
#
#
# Convention : Reuss Voigt Hill
#
# Bulk Modulus (GPa) = 64.56084 74.76682 69.66383
# Shear Modulus (GPa) = -601.81956 24.86079 -288.47939
#
# Velocity S-wave (km/s) = -18.13908 3.68671 -12.55855
# Velocity P-wave (km/s) = 20.08494 7.68108 13.12261
#
# Compressibility (1/GPa) = 0.01548927
#
# Stress axis : x y z
#
# Youngs Moduli (GPa) = 105.60610 71.22730 79.01396
#
# Poissons Ratio (x) = 0.18322 0.43249
# Poissons Ratio (y) = 0.27165 0.18108
# Poissons Ratio (z) = 0.57804 0.16324
#
# Static dielectric constant tensor:
#      x y z
#    x 1.545410 0.000000 0.000000 
#    y 0.000000 2.115760 0.000000 
#    z 0.000000 0.000000 1.654310 
# 
# From -- ./inp_files/65272.got.cif
#   From: 2010.05.17/outbox.cif.g08.bks.cpg/sg65_33_cif.got.tgz:65272.got - 2010.06.03 17:01:31.
