data_PCOD9487387
_publ_section_title
;
Structure prediction by ZEFSAII (Michael W. Deem and Ramdas Pophale) SiO2 
 PCOD9487387
Probable space group: C M M M
;
_chemical_formula_sum "Si O2"
_cell_formula_units_Z 66
_cell_length_a 8.846071
_cell_length_b 15.789704
_cell_length_c 26.229188
_cell_angle_alpha 90.000000
_cell_angle_beta 90.000000
_cell_angle_gamma 90.000000
_cell_volume 3663.610165
_symmetry_space_group_name_H-M "C M M M"
_symmetry_group_IT_number 65
_symmetry_cell_setting 'orthorhombic'
loop_
_space_group_symop_operation_xyz
x,y,z
-x,-y,z
x,-y,-z
-x,y,-z
-x,-y,-z
x,y,-z
-x,y,z
x,-y,z
1/2+x,1/2+y,z
1/2-x,1/2-y,z
1/2+x,1/2-y,-z
1/2-x,1/2+y,-z
1/2-x,1/2-y,-z
1/2+x,1/2+y,-z
1/2-x,1/2+y,z
1/2+x,1/2-y,z
loop_
_atom_site_type_symbol
_atom_site_label
_atom_site_fract_x
_atom_site_fract_y
_atom_site_fract_z
Si Si1 0.817613 0.340334 0.373725
Si Si2 0.500000 0.000000 0.000000
Si Si3 0.684488 0.000000 0.441424
Si Si4 0.179218 0.601510 0.739809
Si Si5 0.820570 0.839373 0.156012
Si Si6 0.833184 0.500000 0.105497
O O1 0.750000 0.250000 0.387931
O O2 0.768014 0.416199 0.410817
O O3 0.775523 0.363549 0.315518
O O4 0.000000 0.336571 0.375453
O O5 0.628899 0.000000 0.045766
O O6 0.500000 0.000000 0.441129
O O7 0.734145 0.000000 0.500000
O O8 0.199900 0.500000 0.740422
O O9 0.270875 0.642582 0.785783
O O10 0.000000 0.618529 0.747015
O O11 0.750000 0.750000 0.139760
O O12 0.753810 0.916643 0.123305
O O13 0.000000 0.836573 0.152096
O O14 0.000000 0.500000 0.131849
#
# Coordination Sequence:
#
# PCOD9487387 Si02
#       6
#    16   2   8  16  16   8
#     4  10  20  35  55  81 112 149 193 240 295 355
#     4   8  24  44  78  88 124 162 210 248 314 340
#     4   9  18  35  57  77 102 145 198 244 294 360
#     4  10  19  34  57  85 119 161 195 238 297 363
#     4  12  24  38  62  96 129 163 202 245 298 363
#     4  10  21  44  68  91 122 159 202 252 300 346
#
# _framework density 18.015017
#
# number of rings (size 3 to 8) (size 9 to 14) (size 15 to 20)
#    0.364    1.333    2.424    3.273    0.000    3.394 
#    0.000    2.424    0.000    0.727    0.000    0.000 
#    0.000    0.000    0.000    0.000    0.000    0.000 
#
# Total GULP energy -184024.346683 kJ/mol
# GULP energy per Si atom -5576.495354 kJ/mol
# Density = 1.797401 g / cm^3
# Si number density = 18.015017 Si / 1000 Ang^3
#
#
#
# Elastic Constant Matrix: (Units=GPa)
#
#
# Indices 1 2 3 4 5 6 
#
# 1 82.9937 67.4679 46.4833 0.0000 0.0000 0.0000
# 2 67.4679 178.6885 80.5463 0.0000 0.0000 0.0000
# 3 46.4833 80.5463 144.6890 0.0000 0.0000 0.0000
# 4 0.0000 0.0000 0.0000 -1.0404 0.0000 0.0000
# 5 0.0000 0.0000 0.0000 0.0000 -4.2697 0.0000
# 6 0.0000 0.0000 0.0000 0.0000 0.0000 28.8441
#
#
#
# Elastic Compliance Matrix: (Units=1/GPa)
#
#
# Indices 1 2 3 4 5 6 
#
# 1 0.018137 -0.005636 -0.002689 0.000000 0.000000 0.000000
# 2 -0.005636 0.009222 -0.003323 0.000000 0.000000 0.000000
# 3 -0.002689 -0.003323 0.009625 0.000000 0.000000 0.000000
# 4 0.000000 0.000000 0.000000 -0.961212 0.000000 0.000000
# 5 0.000000 0.000000 0.000000 0.000000 -0.234210 0.000000
# 6 0.000000 0.000000 0.000000 0.000000 0.000000 0.034669
#
#
# Mechanical properties :
#
#
# Convention : Reuss Voigt Hill
#
# Bulk Modulus (GPa) = 73.05866 88.37404 80.71635
# Shear Modulus (GPa) = -4.56242 18.83171 7.13465
#
# Velocity S-wave (km/s) = -1.59313 3.23667 1.99223
# Velocity P-wave (km/s) = 6.10395 7.94546 7.08479
#
# Compressibility (1/GPa) = 0.01368763
#
# Stress axis : x y z
#
# Youngs Moduli (GPa) = 55.13659 108.43327 103.89122
#
# Poissons Ratio (x) = 0.61109 0.27940
# Poissons Ratio (y) = 0.31073 0.34527
# Poissons Ratio (z) = 0.14828 0.36036
#
# Static dielectric constant tensor:
#      x y z
#    x 1.613070 0.000000 0.000000 
#    y 0.000000 1.607410 0.000000 
#    z 0.000000 0.000000 1.597940 
# 
# From -- ./inp_files/72440.got.cif
#   From: 2010.05.17/outbox.cif.g08.bks.cpg/sg65_37_cif.got.tgz:72440.got - 2010.06.03 17:01:31.
