data_PCOD9487025
_publ_section_title
;
Structure prediction by ZEFSAII (Michael W. Deem and Ramdas Pophale) SiO2 
 PCOD9487025
Probable space group: C M M M
;
_chemical_formula_sum "Si O2"
_cell_formula_units_Z 64
_cell_length_a 9.129146
_cell_length_b 15.019558
_cell_length_c 24.815130
_cell_angle_alpha 90.000000
_cell_angle_beta 90.000000
_cell_angle_gamma 90.000000
_cell_volume 3402.544859
_symmetry_space_group_name_H-M "C M M M"
_symmetry_group_IT_number 65
_symmetry_cell_setting 'orthorhombic'
loop_
_space_group_symop_operation_xyz
x,y,z
-x,-y,z
x,-y,-z
-x,y,-z
-x,-y,-z
x,y,-z
-x,y,z
x,-y,z
1/2+x,1/2+y,z
1/2-x,1/2-y,z
1/2+x,1/2-y,-z
1/2-x,1/2+y,-z
1/2-x,1/2-y,-z
1/2+x,1/2+y,-z
1/2-x,1/2+y,z
1/2+x,1/2-y,z
loop_
_atom_site_type_symbol
_atom_site_label
_atom_site_fract_x
_atom_site_fract_y
_atom_site_fract_z
Si Si1 0.331414 0.108982 0.000000
Si Si2 0.323877 0.500000 0.584546
Si Si3 0.822936 0.152444 0.500000
Si Si4 0.331807 0.607848 0.108832
Si Si5 0.825126 0.659988 0.219383
Si Si6 0.674265 0.000000 0.699873
O O1 0.246928 0.137021 0.946107
O O2 0.500000 0.138387 0.000000
O O3 0.332266 0.000000 0.000000
O O4 0.500000 0.500000 0.587300
O O5 0.282545 0.589043 0.550881
O O6 0.256538 0.500000 0.643540
O O7 0.750000 0.250000 0.500000
O O8 0.000000 0.162714 0.500000
O O9 0.500000 0.639201 0.111256
O O10 0.333957 0.500000 0.108417
O O11 0.242767 0.637040 0.161240
O O12 0.750000 0.750000 0.238102
O O13 0.790921 0.584144 0.262643
O O14 0.000000 0.667931 0.214515
O O15 0.500000 0.000000 0.689681
#
# Coordination Sequence:
#
# PCOD9487025 Si02
#       6
#     8   8   8  16  16   8
#     4   9  17  29  50  79 110 146 185 230 289 353
#     4   9  20  38  60  86 121 159 199 238 285 341
#     4   9  19  37  60  90 124 161 197 239 286 336
#     4  10  19  33  55  82 111 145 188 237 290 352
#     4  11  23  40  59  83 114 151 194 242 294 351
#     4  10  23  41  61  85 119 156 197 244 290 340
#
# _framework density 18.809449999999998
#
# number of rings (size 3 to 8) (size 9 to 14) (size 15 to 20)
#    0.000    2.125    1.250    2.625    0.000    6.500 
#    0.000    6.875    0.000    0.000    0.000    0.000 
#    0.000    0.000    0.000    0.000    0.000    0.000 
#
# Total GULP energy -178752.401660 kJ/mol
# GULP energy per Si atom -5586.012552 kJ/mol
# Density = 1.876664 g / cm^3
# Si number density = 18.809450 Si / 1000 Ang^3
#
#
#
# Elastic Constant Matrix: (Units=GPa)
#
#
# Indices 1 2 3 4 5 6 
#
# 1 109.1903 69.2934 92.1174 0.0000 0.0000 0.0000
# 2 69.2934 136.0534 84.2884 0.0000 0.0000 0.0000
# 3 92.1174 84.2884 183.6883 0.0000 0.0000 0.0000
# 4 0.0000 0.0000 0.0000 -73.2120 0.0000 0.0000
# 5 0.0000 0.0000 0.0000 0.0000 39.3303 0.0000
# 6 0.0000 0.0000 0.0000 0.0000 0.0000 28.6542
#
#
#
# Elastic Compliance Matrix: (Units=1/GPa)
#
#
# Indices 1 2 3 4 5 6 
#
# 1 0.018020 -0.005001 -0.006742 0.000000 0.000000 0.000000
# 2 -0.005001 0.011657 -0.002841 0.000000 0.000000 0.000000
# 3 -0.006742 -0.002841 0.010129 0.000000 0.000000 0.000000
# 4 0.000000 0.000000 0.000000 -0.013659 0.000000 0.000000
# 5 0.000000 0.000000 0.000000 0.000000 0.025426 0.000000
# 6 0.000000 0.000000 0.000000 0.000000 0.000000 0.034899
#
#
# Mechanical properties :
#
#
# Convention : Reuss Voigt Hill
#
# Bulk Modulus (GPa) = 94.00579 102.25894 98.13236
# Shear Modulus (GPa) = 41.95150 11.17002 26.56076
#
# Velocity S-wave (km/s) = 4.72777 2.43955 3.76186
# Velocity P-wave (km/s) = 8.93806 7.90057 8.43528
#
# Compressibility (1/GPa) = 0.01063764
#
# Stress axis : x y z
#
# Youngs Moduli (GPa) = 55.49492 85.78347 98.72871
#
# Poissons Ratio (x) = 0.42899 0.66562
# Poissons Ratio (y) = 0.27752 0.28052
# Poissons Ratio (z) = 0.37414 0.24373
#
# Static dielectric constant tensor:
#      x y z
#    x 1.629530 0.000000 0.000000 
#    y 0.000000 1.654020 0.000000 
#    z 0.000000 0.000000 1.611780 
# 
# From -- ./inp_files/66880.got.cif
#   From: 2010.05.17/outbox.cif.g08.bks.cpg/sg65_34_cif.got.tgz:66880.got - 2010.06.03 17:01:31.
