data_PCOD9487213
_publ_section_title
;
Structure prediction by ZEFSAII (Michael W. Deem and Ramdas Pophale) SiO2 
 PCOD9487213
Probable space group: C M M M
;
_chemical_formula_sum "Si O2"
_cell_formula_units_Z 96
_cell_length_a 14.671044
_cell_length_b 25.422428
_cell_length_c 14.398798
_cell_angle_alpha 90.000000
_cell_angle_beta 90.000000
_cell_angle_gamma 90.000000
_cell_volume 5370.370947
_symmetry_space_group_name_H-M "C M M M"
_symmetry_group_IT_number 65
_symmetry_cell_setting 'orthorhombic'
loop_
_space_group_symop_operation_xyz
x,y,z
-x,-y,z
x,-y,-z
-x,y,-z
-x,-y,-z
x,y,-z
-x,y,z
x,-y,z
1/2+x,1/2+y,z
1/2-x,1/2-y,z
1/2+x,1/2-y,-z
1/2-x,1/2+y,-z
1/2-x,1/2-y,-z
1/2+x,1/2+y,-z
1/2-x,1/2+y,z
1/2+x,1/2-y,z
loop_
_atom_site_type_symbol
_atom_site_label
_atom_site_fract_x
_atom_site_fract_y
_atom_site_fract_z
Si Si1 0.139652 0.165570 0.743912
Si Si2 0.697356 0.061453 0.103643
Si Si3 0.860544 0.250417 0.106515
Si Si4 0.500000 0.160934 0.392883
Si Si5 0.000000 0.787073 0.604813
Si Si6 0.352008 0.846753 0.760589
Si Si7 0.600308 0.439909 0.832875
O O1 0.114133 0.197549 0.837949
O O2 0.087490 0.192811 0.660540
O O3 0.248367 0.167943 0.733619
O O4 0.109141 0.105460 0.756406
O O5 0.655157 0.100430 0.178447
O O6 0.807813 0.067324 0.107537
O O7 0.677386 0.000000 0.120734
O O8 0.666656 0.075544 0.000000
O O9 0.750000 0.250000 0.102393
O O10 0.886666 0.299857 0.171584
O O11 0.892694 0.253177 0.000000
O O12 0.500000 0.141985 0.500000
O O13 0.500000 0.224235 0.395967
O O14 0.413198 0.145862 0.329968
O O15 0.000000 0.806692 0.500000
O O16 0.500000 0.434419 0.878046
O O17 0.604934 0.500000 0.797301
#
# Coordination Sequence:
#
# PCOD9487213 Si02
#       7
#    16  16  16   8   8  16  16
#     4  10  19  34  54  78 113 146 181 220 266 325
#     4   9  18  33  54  82 115 152 188 220 260 316
#     4   9  17  30  50  76 106 142 178 213 259 315
#     4  11  24  40  59  82 106 133 180 240 293 341
#     4  11  22  36  55  81 110 138 179 230 278 330
#     4  10  20  36  58  78 111 144 178 224 278 326
#     4   9  17  29  50  77 112 155 190 220 255 304
#
# _framework density 17.875859999999999
#
# number of rings (size 3 to 8) (size 9 to 14) (size 15 to 20)
#    0.000    2.333    2.500    0.500    0.000    5.000 
#    0.000    6.667    0.000    3.000    0.000    4.667 
#    0.000    0.000    0.000    0.000    0.000    0.000 
#
# Total GULP energy -267587.140671 kJ/mol
# GULP energy per Si atom -5574.732097 kJ/mol
# Density = 1.783517 g / cm^3
# Si number density = 17.875860 Si / 1000 Ang^3
#
#
#
# Elastic Constant Matrix: (Units=GPa)
#
#
# Indices 1 2 3 4 5 6 
#
# 1 78.9898 31.7504 58.4088 0.0000 0.0000 0.0000
# 2 31.7504 77.0217 50.5953 0.0000 0.0000 0.0000
# 3 58.4088 50.5953 146.4856 0.0000 0.0000 0.0000
# 4 0.0000 0.0000 0.0000 18.4698 0.0000 0.0000
# 5 0.0000 0.0000 0.0000 0.0000 15.5175 0.0000
# 6 0.0000 0.0000 0.0000 0.0000 0.0000 13.7440
#
#
#
# Elastic Compliance Matrix: (Units=1/GPa)
#
#
# Indices 1 2 3 4 5 6 
#
# 1 0.018709 -0.003637 -0.006204 0.000000 0.000000 0.000000
# 2 -0.003637 0.017501 -0.004594 0.000000 0.000000 0.000000
# 3 -0.006204 -0.004594 0.010887 0.000000 0.000000 0.000000
# 4 0.000000 0.000000 0.000000 0.054142 0.000000 0.000000
# 5 0.000000 0.000000 0.000000 0.000000 0.064444 0.000000
# 6 0.000000 0.000000 0.000000 0.000000 0.000000 0.072759
#
#
# Mechanical properties :
#
#
# Convention : Reuss Voigt Hill
#
# Bulk Modulus (GPa) = 54.86542 64.88957 59.87750
# Shear Modulus (GPa) = 18.28901 20.32908 19.30904
#
# Velocity S-wave (km/s) = 3.20208 3.37595 3.29017
# Velocity P-wave (km/s) = 6.66560 7.18157 6.92839
#
# Compressibility (1/GPa) = 0.01822642
#
# Stress axis : x y z
#
# Youngs Moduli (GPa) = 53.44961 57.14038 91.85171
#
# Poissons Ratio (x) = 0.20783 0.56982
# Poissons Ratio (y) = 0.19441 0.42200
# Poissons Ratio (z) = 0.33159 0.26252
#
# Static dielectric constant tensor:
#      x y z
#    x 1.654250 0.000000 0.000000 
#    y 0.000000 1.615910 0.000000 
#    z 0.000000 0.000000 1.583630 
# 
# From -- ./inp_files/40691.got.cif
#   From: 2010.05.17/outbox.cif.g08.bks.cpg/sg65_21_cif.got.tgz:40691.got - 2010.06.03 17:01:31.
