data_PCOD9487645
_publ_section_title
;
Structure prediction by ZEFSAII (Michael W. Deem and Ramdas Pophale) SiO2 
 PCOD9487645
Probable space group: C M M M
;
_chemical_formula_sum "Si O2"
_cell_formula_units_Z 128
_cell_length_a 17.906856
_cell_length_b 18.635724
_cell_length_c 21.103994
_cell_angle_alpha 90.000000
_cell_angle_beta 90.000000
_cell_angle_gamma 90.000000
_cell_volume 7042.555298
_symmetry_space_group_name_H-M "C M M M"
_symmetry_group_IT_number 65
_symmetry_cell_setting 'orthorhombic'
loop_
_space_group_symop_operation_xyz
x,y,z
-x,-y,z
x,-y,-z
-x,y,-z
-x,-y,-z
x,y,-z
-x,y,z
x,-y,z
1/2+x,1/2+y,z
1/2-x,1/2-y,z
1/2+x,1/2-y,-z
1/2-x,1/2+y,-z
1/2-x,1/2-y,-z
1/2+x,1/2+y,-z
1/2-x,1/2+y,z
1/2+x,1/2-y,z
loop_
_atom_site_type_symbol
_atom_site_label
_atom_site_fract_x
_atom_site_fract_y
_atom_site_fract_z
Si Si1 0.776960 0.666495 0.209803
Si Si2 0.414055 0.415815 0.906073
Si Si3 0.777026 0.826794 0.427031
Si Si4 0.371104 0.582523 0.239512
Si Si5 0.241104 0.163573 0.068640
Si Si6 0.873644 0.585660 0.571225
Si Si7 0.579233 0.328427 0.351753
Si Si8 0.082965 0.665816 0.697206
O O1 0.750000 0.750000 0.211882
O O2 0.709532 0.620244 0.238198
O O3 0.780535 0.643541 0.135311
O O4 0.851303 0.655687 0.251410
O O5 0.500000 0.396833 0.924039
O O6 0.401724 0.500000 0.924302
O O7 0.406799 0.412871 0.830070
O O8 0.345089 0.365259 0.927892
O O9 0.796478 0.813150 0.500000
O O10 0.750000 0.750000 0.399701
O O11 0.710020 0.882828 0.424403
O O12 0.850327 0.851440 0.392063
O O13 0.362964 0.500000 0.256573
O O14 0.420092 0.623870 0.289565
O O15 0.250000 0.250000 0.067384
O O16 0.270576 0.137283 0.000000
O O17 0.901705 0.607534 0.500000
O O18 0.875247 0.500000 0.573181
O O19 0.911464 0.616943 0.634168
O O20 0.500000 0.334021 0.385940
O O21 0.589133 0.246676 0.329196
O O22 0.000000 0.656804 0.725442
#
# Coordination Sequence:
#
# PCOD9487645 Si02
#       8
#    16  16  16  16  16  16  16  16
#     4  10  19  36  58  79 109 151 190 236 284 330
#     4   9  18  33  55  85 119 150 183 232 293 346
#     4  10  20  36  56  76 103 140 180 223 267 322
#     4  10  20  34  55  82 111 147 186 223 270 335
#     4   9  19  35  53  78 114 157 200 236 276 338
#     4  10  22  40  62  86 111 144 185 231 285 339
#     4  11  22  33  51  80 111 144 180 221 272 328
#     4  11  23  36  55  84 113 144 187 233 282 339
#
# _framework density 18.175219999999999
#
# number of rings (size 3 to 8) (size 9 to 14) (size 15 to 20)
#    0.000    2.000    2.500    1.125    0.000    4.000 
#    0.000    2.500    0.000    1.125    0.000    2.625 
#    0.000    0.500    0.000   13.500    0.000    0.000 
#
# Total GULP energy -356652.037853 kJ/mol
# GULP energy per Si atom -5572.688091 kJ/mol
# Density = 1.813385 g / cm^3
# Si number density = 18.175220 Si / 1000 Ang^3
#
#
#
# Elastic Constant Matrix: (Units=GPa)
#
#
# Indices 1 2 3 4 5 6 
#
# 1 112.2534 22.4021 57.4028 0.0000 0.0000 0.0000
# 2 22.4021 83.3061 23.5141 0.0000 0.0000 0.0000
# 3 57.4028 23.5141 94.0458 0.0000 0.0000 0.0000
# 4 0.0000 0.0000 0.0000 50.8654 0.0000 0.0000
# 5 0.0000 0.0000 0.0000 0.0000 -0.2447 0.0000
# 6 0.0000 0.0000 0.0000 0.0000 0.0000 -111.0823
#
#
#
# Elastic Compliance Matrix: (Units=1/GPa)
#
#
# Indices 1 2 3 4 5 6 
#
# 1 0.013093 -0.001361 -0.007651 0.000000 0.000000 0.000000
# 2 -0.001361 0.013057 -0.002434 0.000000 0.000000 0.000000
# 3 -0.007651 -0.002434 0.015912 0.000000 0.000000 0.000000
# 4 0.000000 0.000000 0.000000 0.019660 0.000000 0.000000
# 5 0.000000 0.000000 0.000000 0.000000 -4.086598 0.000000
# 6 0.000000 0.000000 0.000000 0.000000 0.000000 -0.009002
#
#
# Mechanical properties :
#
#
# Convention : Reuss Voigt Hill
#
# Bulk Modulus (GPa) = 52.16711 55.13815 53.65263
# Shear Modulus (GPa) = -1.24856 0.32677 -0.46090
#
# Velocity S-wave (km/s) = -0.82973 0.42448 -0.50412
# Velocity P-wave (km/s) = 5.27700 5.53562 5.40786
#
# Compressibility (1/GPa) = 0.01916917
#
# Stress axis : x y z
#
# Youngs Moduli (GPa) = 76.37946 76.58775 62.84743
#
# Poissons Ratio (x) = 0.10425 0.48084
# Poissons Ratio (y) = 0.10397 0.15296
# Poissons Ratio (z) = 0.58438 0.18640
#
# Static dielectric constant tensor:
#      x y z
#    x 1.625600 0.000000 0.000000 
#    y 0.000000 1.611070 0.000000 
#    z 0.000000 0.000000 1.661220 
# 
# From -- ./inp_files/64097.got.cif
#   From: 2010.05.17/outbox.cif.g08.bks.cpg/sg65_33_cif.got.tgz:64097.got - 2010.06.03 17:01:31.
