data_PCOD9487430
_publ_section_title
;
Structure prediction by ZEFSAII (Michael W. Deem and Ramdas Pophale) SiO2 
 PCOD9487430
Probable space group: C M M M
;
_chemical_formula_sum "Si O2"
_cell_formula_units_Z 66
_cell_length_a 15.849054
_cell_length_b 7.843109
_cell_length_c 26.063961
_cell_angle_alpha 90.000000
_cell_angle_beta 90.000000
_cell_angle_gamma 90.000000
_cell_volume 3239.903037
_symmetry_space_group_name_H-M "C M M M"
_symmetry_group_IT_number 65
_symmetry_cell_setting 'orthorhombic'
loop_
_space_group_symop_operation_xyz
x,y,z
-x,-y,z
x,-y,-z
-x,y,-z
-x,-y,-z
x,y,-z
-x,y,z
x,-y,z
1/2+x,1/2+y,z
1/2-x,1/2-y,z
1/2+x,1/2-y,-z
1/2-x,1/2+y,-z
1/2-x,1/2-y,-z
1/2+x,1/2+y,-z
1/2-x,1/2+y,z
1/2+x,1/2-y,z
loop_
_atom_site_type_symbol
_atom_site_label
_atom_site_fract_x
_atom_site_fract_y
_atom_site_fract_z
Si Si1 0.000000 0.500000 0.000000
Si Si2 0.500000 0.688692 0.916976
Si Si3 0.655955 0.295170 0.628195
Si Si4 0.155489 0.302763 0.148762
Si Si5 0.500000 0.290930 0.558924
Si Si6 0.599162 0.706148 0.260156
O O1 0.000000 0.347402 0.044365
O O2 0.500000 0.500000 0.940757
O O3 0.417397 0.703237 0.880977
O O4 0.648902 0.500000 0.630068
O O5 0.750000 0.250000 0.611660
O O6 0.582912 0.234613 0.589966
O O7 0.638775 0.233128 0.686248
O O8 0.143635 0.500000 0.136524
O O9 0.250000 0.250000 0.134261
O O10 0.143153 0.276472 0.209568
O O11 0.500000 0.500000 0.558881
O O12 0.500000 0.235540 0.500000
O O13 0.500000 0.750726 0.259417
O O14 0.605076 0.500000 0.258255
#
# Coordination Sequence:
#
# PCOD9487430 Si02
#       6
#     2   8  16  16   8  16
#     4  12  26  52  76 106 136 182 238 276 330 398
#     4  12  25  48  76 102 139 180 222 284 338 382
#     4  10  20  35  55  82 115 153 200 253 309 381
#     4  12  24  41  66 101 137 173 220 267 323 400
#     4   9  18  35  57  77 103 150 205 256 314 382
#     4  10  19  34  58  88 123 166 204 249 319 389
#
# _framework density 20.370978999999998
#
# number of rings (size 3 to 8) (size 9 to 14) (size 15 to 20)
#    0.000    1.333    3.636    3.091    0.000    3.394 
#    0.000    1.212    0.000    0.727    0.000    0.000 
#    0.000    0.000    0.000    0.000    0.000    0.000 
#
# Total GULP energy -184221.661442 kJ/mol
# GULP energy per Si atom -5582.474589 kJ/mol
# Density = 2.032461 g / cm^3
# Si number density = 20.370979 Si / 1000 Ang^3
#
#
#
# Elastic Constant Matrix: (Units=GPa)
#
#
# Indices 1 2 3 4 5 6 
#
# 1 168.8091 23.7378 63.2115 0.0000 0.0000 0.0000
# 2 23.7378 89.1780 29.7435 0.0000 0.0000 0.0000
# 3 63.2115 29.7435 135.1694 0.0000 0.0000 0.0000
# 4 0.0000 0.0000 0.0000 38.2471 0.0000 0.0000
# 5 0.0000 0.0000 0.0000 0.0000 -0.9134 0.0000
# 6 0.0000 0.0000 0.0000 0.0000 0.0000 20.5742
#
#
#
# Elastic Compliance Matrix: (Units=1/GPa)
#
#
# Indices 1 2 3 4 5 6 
#
# 1 0.007242 -0.000861 -0.003197 0.000000 0.000000 0.000000
# 2 -0.000861 0.012204 -0.002283 0.000000 0.000000 0.000000
# 3 -0.003197 -0.002283 0.009396 0.000000 0.000000 0.000000
# 4 0.000000 0.000000 0.000000 0.026146 0.000000 0.000000
# 5 0.000000 0.000000 0.000000 0.000000 -1.094777 0.000000
# 6 0.000000 0.000000 0.000000 0.000000 0.000000 0.048605
#
#
# Mechanical properties :
#
#
# Convention : Reuss Voigt Hill
#
# Bulk Modulus (GPa) = 61.88356 69.61578 65.74967
# Shear Modulus (GPa) = -5.13813 30.01249 12.43718
#
# Velocity S-wave (km/s) = -1.58989 3.84252 2.47358
# Velocity P-wave (km/s) = 5.20326 7.34403 6.36430
#
# Compressibility (1/GPa) = 0.01615938
#
# Stress axis : x y z
#
# Youngs Moduli (GPa) = 138.07943 81.93942 106.43283
#
# Poissons Ratio (x) = 0.07058 0.34029
# Poissons Ratio (y) = 0.11894 0.24295
# Poissons Ratio (z) = 0.44147 0.18704
#
# Static dielectric constant tensor:
#      x y z
#    x 1.715410 0.000000 0.000000 
#    y 0.000000 1.740920 0.000000 
#    z 0.000000 0.000000 1.691740 
# 
# From -- ./inp_files/74551.got.cif
#   From: 2010.05.17/outbox.cif.g08.bks.cpg/sg65_38_cif.got.tgz:74551.got - 2010.06.03 17:01:31.
