data_PCOD9487198
_publ_section_title
;
Structure prediction by ZEFSAII (Michael W. Deem and Ramdas Pophale) SiO2 
 PCOD9487198
Probable space group: C M M M
;
_chemical_formula_sum "Si O2"
_cell_formula_units_Z 56
_cell_length_a 25.261961
_cell_length_b 15.189930
_cell_length_c 7.700407
_cell_angle_alpha 90.000000
_cell_angle_beta 90.000000
_cell_angle_gamma 90.000000
_cell_volume 2954.857305
_symmetry_space_group_name_H-M "C M M M"
_symmetry_group_IT_number 65
_symmetry_cell_setting 'orthorhombic'
loop_
_space_group_symop_operation_xyz
x,y,z
-x,-y,z
x,-y,-z
-x,y,-z
-x,-y,-z
x,y,-z
-x,y,z
x,-y,z
1/2+x,1/2+y,z
1/2-x,1/2-y,z
1/2+x,1/2-y,-z
1/2-x,1/2+y,-z
1/2-x,1/2-y,-z
1/2+x,1/2+y,-z
1/2-x,1/2+y,z
1/2+x,1/2-y,z
loop_
_atom_site_type_symbol
_atom_site_label
_atom_site_fract_x
_atom_site_fract_y
_atom_site_fract_z
Si Si1 0.000000 0.103131 0.213196
Si Si2 0.707979 0.000000 0.701642
Si Si3 0.389187 0.678301 0.200091
Si Si4 0.334774 0.500000 0.701667
Si Si5 0.700864 0.807500 0.297335
O O1 0.947170 0.153835 0.270321
O O2 0.000000 0.000000 0.266767
O O3 0.000000 0.101545 0.000000
O O4 0.692945 0.905054 0.779497
O O5 0.688938 0.000000 0.500000
O O6 0.771696 0.000000 0.704616
O O7 0.357322 0.586857 0.210933
O O8 0.352353 0.750674 0.288638
O O9 0.395062 0.705034 0.000000
O O10 0.351578 0.500000 0.500000
O O11 0.715360 0.822434 0.500000
O O12 0.750000 0.750000 0.222804
#
# Coordination Sequence:
#
# PCOD9487198 Si02
#       5
#     8   8  16   8  16
#     4   9  18  34  52  71 104 143 169 204 268 320
#     4   9  18  33  52  73 104 144 171 198 254 317
#     4  11  21  34  52  77 106 139 176 215 259 308
#     4  11  19  32  52  77 107 141 174 208 254 312
#     4  10  19  34  54  76 105 140 174 208 257 314
#
# _framework density 18.951844999999999
#
# number of rings (size 3 to 8) (size 9 to 14) (size 15 to 20)
#    0.000    1.857    4.286    1.286    0.000    0.571 
#    0.000    4.286    0.000    0.857    0.000    6.000 
#    0.000    0.000    0.000    0.000    0.000    0.000 
#
# Total GULP energy -156172.177590 kJ/mol
# GULP energy per Si atom -5577.577771 kJ/mol
# Density = 1.890871 g / cm^3
# Si number density = 18.951845 Si / 1000 Ang^3
#
#
#
# Elastic Constant Matrix: (Units=GPa)
#
#
# Indices 1 2 3 4 5 6 
#
# 1 101.4910 59.8821 -3.4199 0.0000 0.0000 0.0000
# 2 59.8821 174.7013 -0.6306 0.0000 0.0000 0.0000
# 3 -3.4199 -0.6306 33.1530 0.0000 0.0000 0.0000
# 4 0.0000 0.0000 0.0000 8.4232 0.0000 0.0000
# 5 0.0000 0.0000 0.0000 0.0000 17.7760 0.0000
# 6 0.0000 0.0000 0.0000 0.0000 0.0000 35.4877
#
#
#
# Elastic Compliance Matrix: (Units=1/GPa)
#
#
# Indices 1 2 3 4 5 6 
#
# 1 0.012398 -0.004245 0.001198 0.000000 0.000000 0.000000
# 2 -0.004245 0.007178 -0.000301 0.000000 0.000000 0.000000
# 3 0.001198 -0.000301 0.030281 0.000000 0.000000 0.000000
# 4 0.000000 0.000000 0.000000 0.118720 0.000000 0.000000
# 5 0.000000 0.000000 0.000000 0.000000 0.056256 0.000000
# 6 0.000000 0.000000 0.000000 0.000000 0.000000 0.028179
#
#
# Mechanical properties :
#
#
# Convention : Reuss Voigt Hill
#
# Bulk Modulus (GPa) = 23.16946 46.77872 34.97409
# Shear Modulus (GPa) = 18.24178 29.23830 23.74004
#
# Velocity S-wave (km/s) = 3.10584 3.93207 3.54312
# Velocity P-wave (km/s) = 5.01135 6.73435 5.93570
#
# Compressibility (1/GPa) = 0.04316026
#
# Stress axis : x y z
#
# Youngs Moduli (GPa) = 80.65575 139.31119 33.02399
#
# Poissons Ratio (x) = 0.59144 -0.03957
# Poissons Ratio (y) = 0.34242 0.00995
# Poissons Ratio (z) = -0.09664 0.04199
#
# Static dielectric constant tensor:
#      x y z
#    x 1.639610 0.000000 0.000000 
#    y 0.000000 1.671820 0.000000 
#    z 0.000000 0.000000 1.698690 
# 
# From -- ./inp_files/6580.got.cif
#   From: 2010.05.17/outbox.cif.g08.bks.cpg/sg65_4_cif.got.tgz:6580.got - 2010.06.03 17:01:31.
