data_PCOD9487510
_publ_section_title
;
Structure prediction by ZEFSAII (Michael W. Deem and Ramdas Pophale) SiO2 
 PCOD9487510
Probable space group: C M M M
;
_chemical_formula_sum "Si O2"
_cell_formula_units_Z 90
_cell_length_a 23.524277
_cell_length_b 28.576739
_cell_length_c 7.282468
_cell_angle_alpha 90.000000
_cell_angle_beta 90.000000
_cell_angle_gamma 90.000000
_cell_volume 4895.618169
_symmetry_space_group_name_H-M "C M M M"
_symmetry_group_IT_number 65
_symmetry_cell_setting 'orthorhombic'
loop_
_space_group_symop_operation_xyz
x,y,z
-x,-y,z
x,-y,-z
-x,y,-z
-x,-y,-z
x,y,-z
-x,y,z
x,-y,z
1/2+x,1/2+y,z
1/2-x,1/2-y,z
1/2+x,1/2-y,-z
1/2-x,1/2+y,-z
1/2-x,1/2-y,-z
1/2+x,1/2+y,-z
1/2-x,1/2+y,z
1/2+x,1/2-y,z
loop_
_atom_site_type_symbol
_atom_site_label
_atom_site_fract_x
_atom_site_fract_y
_atom_site_fract_z
Si Si1 0.169483 0.796161 0.500000
Si Si2 0.786880 0.053463 0.777554
Si Si3 0.000000 0.000000 0.500000
Si Si4 0.673853 0.110417 0.221004
Si Si5 0.063130 0.446202 0.223004
Si Si6 0.621771 0.631520 0.781078
Si Si7 0.000000 0.087487 0.781219
Si Si8 0.305412 0.190342 0.500000
O O1 0.142279 0.822823 0.326579
O O2 0.237309 0.804015 0.500000
O O3 0.163776 0.740303 0.500000
O O4 0.727210 0.077435 0.726590
O O5 0.837804 0.088004 0.723015
O O6 0.792423 0.000000 0.712874
O O7 0.787757 0.051657 0.000000
O O8 0.000000 0.041196 0.659772
O O9 0.615411 0.085662 0.278282
O O10 0.679565 0.159397 0.322904
O O11 0.674918 0.115533 0.000000
O O12 0.071465 0.500000 0.280395
O O13 0.000000 0.431023 0.280902
O O14 0.063370 0.446471 0.000000
O O15 0.557002 0.617101 0.743264
O O16 0.628621 0.637764 0.000000
O O17 0.000000 0.076284 0.000000
#
# Coordination Sequence:
#
# PCOD9487510 Si02
#       8
#     8  16   2  16  16  16   8   8
#     4  11  23  41  61  82 110 142 186 244 296 349
#     4   9  17  30  52  82 115 150 183 219 269 332
#     4  12  22  36  56  90 132 164 194 232 290 334
#     4  10  19  35  56  81 114 149 184 229 283 334
#     4   8  14  27  52  82 112 150 188 219 261 326
#     4  10  21  40  62  85 114 151 193 238 287 336
#     4  10  23  39  61  88 119 159 204 241 277 347
#     4  11  24  38  57  87 111 137 190 241 289 350
#
# _framework density 18.383786000000001
#
# number of rings (size 3 to 8) (size 9 to 14) (size 15 to 20)
#    0.000    2.311    1.778    1.733    1.244    2.844 
#    0.000    4.889    3.911    1.067    0.000    0.000 
#    0.000    0.000    0.000    0.000    0.000    0.000 
#
# Total GULP energy -250988.198131 kJ/mol
# GULP energy per Si atom -5577.515514 kJ/mol
# Density = 1.834194 g / cm^3
# Si number density = 18.383786 Si / 1000 Ang^3
#
#
#
# Elastic Constant Matrix: (Units=GPa)
#
#
# Indices 1 2 3 4 5 6 
#
# 1 154.2298 86.1740 36.4493 0.0000 0.0000 0.0000
# 2 86.1740 150.7388 47.8072 0.0000 0.0000 0.0000
# 3 36.4493 47.8072 95.2979 0.0000 0.0000 0.0000
# 4 0.0000 0.0000 0.0000 20.4561 0.0000 0.0000
# 5 0.0000 0.0000 0.0000 0.0000 -6.6486 0.0000
# 6 0.0000 0.0000 0.0000 0.0000 0.0000 15.7771
#
#
#
# Elastic Compliance Matrix: (Units=1/GPa)
#
#
# Indices 1 2 3 4 5 6 
#
# 1 0.009622 -0.005153 -0.001095 0.000000 0.000000 0.000000
# 2 -0.005153 0.010649 -0.003371 0.000000 0.000000 0.000000
# 3 -0.001095 -0.003371 0.012603 0.000000 0.000000 0.000000
# 4 0.000000 0.000000 0.000000 0.048885 0.000000 0.000000
# 5 0.000000 0.000000 0.000000 0.000000 -0.150407 0.000000
# 6 0.000000 0.000000 0.000000 0.000000 0.000000 0.063383
#
#
# Mechanical properties :
#
#
# Convention : Reuss Voigt Hill
#
# Bulk Modulus (GPa) = 73.33801 82.34750 77.84276
# Shear Modulus (GPa) = 269.97176 21.23930 145.60553
#
# Velocity S-wave (km/s) = 12.13145 3.40270 8.90927
# Velocity P-wave (km/s) = 15.36908 7.76715 12.17656
#
# Compressibility (1/GPa) = 0.01363549
#
# Stress axis : x y z
#
# Youngs Moduli (GPa) = 103.92837 93.90295 79.34346
#
# Poissons Ratio (x) = 0.48392 0.08688
# Poissons Ratio (y) = 0.53559 0.26749
# Poissons Ratio (z) = 0.11379 0.31657
#
# Static dielectric constant tensor:
#      x y z
#    x 1.626410 0.000000 0.000000 
#    y 0.000000 1.582850 0.000000 
#    z 0.000000 0.000000 1.685310 
# 
# From -- ./inp_files/14118.got.cif
#   From: 2010.05.17/outbox.cif.g08.bks.cpg/sg65_8_cif.got.tgz:14118.got - 2010.06.03 17:01:31.
