data_PCOD9487574
_publ_section_title
;
Structure prediction by ZEFSAII (Michael W. Deem and Ramdas Pophale) SiO2 
 PCOD9487574
Probable space group: C M M M
;
_chemical_formula_sum "Si O2"
_cell_formula_units_Z 88
_cell_length_a 23.557432
_cell_length_b 22.800507
_cell_length_c 7.782827
_cell_angle_alpha 90.000000
_cell_angle_beta 90.000000
_cell_angle_gamma 90.000000
_cell_volume 4180.322881
_symmetry_space_group_name_H-M "C M M M"
_symmetry_group_IT_number 65
_symmetry_cell_setting 'orthorhombic'
loop_
_space_group_symop_operation_xyz
x,y,z
-x,-y,z
x,-y,-z
-x,y,-z
-x,-y,-z
x,y,-z
-x,y,z
x,-y,z
1/2+x,1/2+y,z
1/2-x,1/2-y,z
1/2+x,1/2-y,-z
1/2-x,1/2+y,-z
1/2-x,1/2-y,-z
1/2+x,1/2+y,-z
1/2-x,1/2+y,z
1/2+x,1/2-y,z
loop_
_atom_site_type_symbol
_atom_site_label
_atom_site_fract_x
_atom_site_fract_y
_atom_site_fract_z
Si Si1 0.847723 0.161189 0.698223
Si Si2 0.615091 0.124176 0.296670
Si Si3 0.437230 0.243138 0.710552
Si Si4 0.269723 0.813426 0.804147
Si Si5 0.062628 0.068631 0.206873
Si Si6 0.566962 0.000000 0.710495
O O1 0.833693 0.173264 0.500000
O O2 0.886057 0.214912 0.767639
O O3 0.789202 0.151756 0.795484
O O4 0.888350 0.105775 0.709910
O O5 0.604807 0.120901 0.500000
O O6 0.575275 0.176953 0.231584
O O7 0.678925 0.149355 0.274283
O O8 0.598536 0.059746 0.229475
O O9 0.436278 0.244733 0.500000
O O10 0.500000 0.262273 0.765394
O O11 0.250000 0.750000 0.727911
O O12 0.286867 0.801828 0.000000
O O13 0.000000 0.088879 0.262997
O O14 0.067324 0.000000 0.245906
O O15 0.065658 0.074977 0.000000
O O16 0.500000 0.000000 0.757916
O O17 0.568582 0.000000 0.500000
#
# Coordination Sequence:
#
# PCOD9487574 Si02
#       6
#    16  16  16  16  16   8
#     4  11  21  34  56  84 113 144 189 239 285 339
#     4  10  19  35  59  85 116 151 190 233 282 341
#     4   9  17  29  50  82 115 143 174 222 283 340
#     4  11  23  39  58  79 110 149 192 237 288 349
#     4   9  19  37  58  80 112 152 187 222 275 340
#     4   9  18  34  61  95 123 151 190 237 288 345
#
# _framework density 21.051003999999999
#
# number of rings (size 3 to 8) (size 9 to 14) (size 15 to 20)
#    0.000    2.091    1.818    2.727    0.000    4.364 
#    1.636    1.364    0.000    3.818    0.000    0.000 
#    0.000    0.000    0.000    0.000    0.000    0.000 
#
# Total GULP energy -245560.108053 kJ/mol
# GULP energy per Si atom -5580.911547 kJ/mol
# Density = 2.100309 g / cm^3
# Si number density = 21.051004 Si / 1000 Ang^3
#
#
#
# Elastic Constant Matrix: (Units=GPa)
#
#
# Indices 1 2 3 4 5 6 
#
# 1 116.5180 45.5514 0.0945 0.0000 0.0000 0.0000
# 2 45.5514 101.2762 9.5868 0.0000 0.0000 0.0000
# 3 0.0945 9.5868 28.2994 0.0000 0.0000 0.0000
# 4 0.0000 0.0000 0.0000 11.7164 0.0000 0.0000
# 5 0.0000 0.0000 0.0000 0.0000 -0.8205 0.0000
# 6 0.0000 0.0000 0.0000 0.0000 0.0000 -15.0639
#
#
#
# Elastic Compliance Matrix: (Units=1/GPa)
#
#
# Indices 1 2 3 4 5 6 
#
# 1 0.010484 -0.004868 0.001614 0.000000 0.000000 0.000000
# 2 -0.004868 0.012462 -0.004205 0.000000 0.000000 0.000000
# 3 0.001614 -0.004205 0.036756 0.000000 0.000000 0.000000
# 4 0.000000 0.000000 0.000000 0.085350 0.000000 0.000000
# 5 0.000000 0.000000 0.000000 0.000000 -1.218808 0.000000
# 6 0.000000 0.000000 0.000000 0.000000 0.000000 -0.066384
#
#
# Mechanical properties :
#
#
# Convention : Reuss Voigt Hill
#
# Bulk Modulus (GPa) = 22.33004 39.61767 30.97386
# Shear Modulus (GPa) = -4.50331 11.89047 3.69358
#
# Velocity S-wave (km/s) = -1.46420 2.37922 1.32604
# Velocity P-wave (km/s) = 2.78785 5.13890 4.13403
#
# Compressibility (1/GPa) = 0.04478272
#
# Stress axis : x y z
#
# Youngs Moduli (GPa) = 95.38084 80.24565 27.20671
#
# Poissons Ratio (x) = 0.39067 -0.04392
# Poissons Ratio (y) = 0.46435 0.11441
# Poissons Ratio (z) = -0.15397 0.33746
#
# Static dielectric constant tensor:
#      x y z
#    x 1.750850 0.000000 0.000000 
#    y 0.000000 1.776300 0.000000 
#    z 0.000000 0.000000 1.805530 
# 
# From -- ./inp_files/11754.got.cif
#   From: 2010.05.17/outbox.cif.g08.bks.cpg/sg65_6_cif.got.tgz:11754.got - 2010.06.03 17:01:31.
