data_PCOD9488013
_publ_section_title
;
Structure prediction by ZEFSAII (Michael W. Deem and Ramdas Pophale) SiO2 
 PCOD9488013
Probable space group: C M M M
;
_chemical_formula_sum "Si O2"
_cell_formula_units_Z 88
_cell_length_a 7.509542
_cell_length_b 16.764173
_cell_length_c 31.753523
_cell_angle_alpha 90.000000
_cell_angle_beta 90.000000
_cell_angle_gamma 90.000000
_cell_volume 3997.491059
_symmetry_space_group_name_H-M "C M M M"
_symmetry_group_IT_number 65
_symmetry_cell_setting 'orthorhombic'
loop_
_space_group_symop_operation_xyz
x,y,z
-x,-y,z
x,-y,-z
-x,y,-z
-x,-y,-z
x,y,-z
-x,y,z
x,-y,z
1/2+x,1/2+y,z
1/2-x,1/2-y,z
1/2+x,1/2-y,-z
1/2-x,1/2+y,-z
1/2-x,1/2-y,-z
1/2+x,1/2+y,-z
1/2-x,1/2+y,z
1/2+x,1/2-y,z
loop_
_atom_site_type_symbol
_atom_site_label
_atom_site_fract_x
_atom_site_fract_y
_atom_site_fract_z
Si Si1 0.286326 0.090399 0.722476
Si Si2 0.212482 0.907840 0.814136
Si Si3 0.213343 0.158926 0.901480
Si Si4 0.287127 0.842536 0.634041
Si Si5 0.285633 0.094687 0.454808
Si Si6 0.282359 0.500000 0.951309
O O1 0.500000 0.089217 0.719410
O O2 0.246652 0.128010 0.767865
O O3 0.217469 0.124732 0.678528
O O4 0.219410 0.000000 0.725578
O O5 0.279357 0.857131 0.853711
O O6 0.000000 0.913208 0.818405
O O7 0.281270 0.000000 0.816114
O O8 0.250000 0.250000 0.915236
O O9 0.276289 0.082528 0.928808
O O10 0.000000 0.152907 0.901410
O O11 0.500000 0.858841 0.633622
O O12 0.250000 0.750000 0.634307
O O13 0.214737 0.874556 0.589633
O O14 0.218630 0.127127 0.500000
O O15 0.500000 0.107957 0.454746
O O16 0.257347 0.000000 0.455143
O O17 0.500000 0.500000 0.949716
O O18 0.229323 0.500000 0.000000
#
# Coordination Sequence:
#
# PCOD9488013 Si02
#       6
#    16  16  16  16  16   8
#     4   9  18  32  50  71  95 127 168 210 250 291
#     4   9  17  32  53  74 100 135 174 213 255 308
#     4  10  20  35  56  83 112 144 183 225 270 320
#     4  10  20  32  46  67  97 127 155 194 243 293
#     4   8  14  27  49  72  89 112 153 199 238 282
#     4   9  18  36  61  83 109 149 189 223 266 325
#
# _framework density 22.013807
#
# number of rings (size 3 to 8) (size 9 to 14) (size 15 to 20)
#    0.000    2.818    0.909    1.091    0.000    5.091 
#    0.000    4.091    0.000    2.182    0.000    1.273 
#    0.000    0.000    0.000    0.000    0.000    0.000 
#
# Total GULP energy -245264.927381 kJ/mol
# GULP energy per Si atom -5574.202895 kJ/mol
# Density = 2.196370 g / cm^3
# Si number density = 22.013807 Si / 1000 Ang^3
#
#
#
# Elastic Constant Matrix: (Units=GPa)
#
#
# Indices 1 2 3 4 5 6 
#
# 1 58.8869 0.8398 8.9761 0.0000 0.0000 0.0000
# 2 0.8398 103.6378 95.8602 0.0000 0.0000 0.0000
# 3 8.9761 95.8602 228.9052 0.0000 0.0000 0.0000
# 4 0.0000 0.0000 0.0000 -10.4170 0.0000 0.0000
# 5 0.0000 0.0000 0.0000 0.0000 9.6164 0.0000
# 6 0.0000 0.0000 0.0000 0.0000 0.0000 17.7998
#
#
#
# Elastic Compliance Matrix: (Units=1/GPa)
#
#
# Indices 1 2 3 4 5 6 
#
# 1 0.017123 0.000787 -0.001001 0.000000 0.000000 0.000000
# 2 0.000787 0.015786 -0.006642 0.000000 0.000000 0.000000
# 3 -0.001001 -0.006642 0.007189 0.000000 0.000000 0.000000
# 4 0.000000 0.000000 0.000000 -0.095997 0.000000 0.000000
# 5 0.000000 0.000000 0.000000 0.000000 0.103990 0.000000
# 6 0.000000 0.000000 0.000000 0.000000 0.000000 0.056181
#
#
# Mechanical properties :
#
#
# Convention : Reuss Voigt Hill
#
# Bulk Modulus (GPa) = 37.89724 66.97579 52.43652
# Shear Modulus (GPa) = 39.43907 22.45008 30.94457
#
# Velocity S-wave (km/s) = 4.23728 3.19692 3.75332
# Velocity P-wave (km/s) = 6.41809 6.64211 6.53106
#
# Compressibility (1/GPa) = 0.02638715
#
# Stress axis : x y z
#
# Youngs Moduli (GPa) = 58.40068 63.34818 139.09710
#
# Poissons Ratio (x) = -0.04987 0.13926
# Poissons Ratio (y) = -0.04598 0.92383
# Poissons Ratio (z) = 0.05847 0.42073
#
# Static dielectric constant tensor:
#      x y z
#    x 1.867950 0.000000 0.000000 
#    y 0.000000 1.773170 0.000000 
#    z 0.000000 0.000000 1.807380 
# 
# From -- ./inp_files/74231.got.cif
#   From: 2010.05.17/outbox.cif.g08.bks.cpg/sg65_38_cif.got.tgz:74231.got - 2010.06.03 17:01:31.
