data_PCOD9488098
_publ_section_title
;
Structure prediction by ZEFSAII (Michael W. Deem and Ramdas Pophale) SiO2 
 PCOD9488098
Probable space group: C M M M
;
_chemical_formula_sum "Si O2"
_cell_formula_units_Z 96
_cell_length_a 23.158352
_cell_length_b 27.571888
_cell_length_c 8.848073
_cell_angle_alpha 90.000000
_cell_angle_beta 90.000000
_cell_angle_gamma 90.000000
_cell_volume 5649.667038
_symmetry_space_group_name_H-M "C M M M"
_symmetry_group_IT_number 65
_symmetry_cell_setting 'orthorhombic'
loop_
_space_group_symop_operation_xyz
x,y,z
-x,-y,z
x,-y,-z
-x,y,-z
-x,-y,-z
x,y,-z
-x,y,z
x,-y,z
1/2+x,1/2+y,z
1/2-x,1/2-y,z
1/2+x,1/2-y,-z
1/2-x,1/2+y,-z
1/2-x,1/2-y,-z
1/2+x,1/2+y,-z
1/2-x,1/2+y,z
1/2+x,1/2-y,z
loop_
_atom_site_type_symbol
_atom_site_label
_atom_site_fract_x
_atom_site_fract_y
_atom_site_fract_z
Si Si1 0.238538 0.805703 0.333066
Si Si2 0.145852 0.632101 0.328657
Si Si3 0.431106 0.787904 0.177969
Si Si4 0.737989 0.943418 0.317197
Si Si5 0.567240 0.684523 0.680797
Si Si6 0.336533 0.376999 0.174761
O O1 0.210674 0.814008 0.500000
O O2 0.250000 0.750000 0.313418
O O3 0.299592 0.832000 0.337608
O O4 0.201749 0.828837 0.200982
O O5 0.124683 0.622673 0.500000
O O6 0.099168 0.663127 0.237491
O O7 0.178702 0.583976 0.267585
O O8 0.500000 0.792045 0.201607
O O9 0.412328 0.737780 0.260477
O O10 0.419664 0.782345 0.000000
O O11 0.739915 0.938099 0.500000
O O12 0.795363 0.917547 0.251414
O O13 0.736975 0.000000 0.279137
O O14 0.570166 0.684617 0.500000
O O15 0.500000 0.679966 0.726849
O O16 0.604308 0.639818 0.746027
O O17 0.345438 0.388198 0.000000
#
# Coordination Sequence:
#
# PCOD9488098 Si02
#       6
#    16  16  16  16  16  16
#     4   9  17  29  45  66  95 129 163 199 237 283
#     4   9  17  29  48  73  97 125 163 204 245 290
#     4  10  20  32  47  71 104 138 169 202 242 289
#     4   9  19  37  58  76  96 125 162 206 254 300
#     4  10  20  34  52  72  98 136 176 207 237 280
#     4  11  21  31  48  74 102 129 158 198 247 297
#
# _framework density 16.992152999999998
#
# number of rings (size 3 to 8) (size 9 to 14) (size 15 to 20)
#    0.000    2.333    0.000    4.500    0.000    6.667 
#    0.000    0.000    0.000    1.000    0.000    7.000 
#    0.000    0.000    0.000    0.000    0.000    0.000 
#
# Total GULP energy -267327.010789 kJ/mol
# GULP energy per Si atom -5569.312725 kJ/mol
# Density = 1.695348 g / cm^3
# Si number density = 16.992153 Si / 1000 Ang^3
#
#
#
# Elastic Constant Matrix: (Units=GPa)
#
#
# Indices 1 2 3 4 5 6 
#
# 1 41.3564 14.2361 18.1875 0.0000 0.0000 0.0000
# 2 14.2361 91.9822 19.5626 0.0000 0.0000 0.0000
# 3 18.1875 19.5626 49.0727 0.0000 0.0000 0.0000
# 4 0.0000 0.0000 0.0000 12.9734 0.0000 0.0000
# 5 0.0000 0.0000 0.0000 0.0000 152.6077 0.0000
# 6 0.0000 0.0000 0.0000 0.0000 0.0000 24.7553
#
#
#
# Elastic Compliance Matrix: (Units=1/GPa)
#
#
# Indices 1 2 3 4 5 6 
#
# 1 0.029381 -0.002438 -0.009917 0.000000 0.000000 0.000000
# 2 -0.002438 0.012081 -0.003912 0.000000 0.000000 0.000000
# 3 -0.009917 -0.003912 0.025613 0.000000 0.000000 0.000000
# 4 0.000000 0.000000 0.000000 0.077081 0.000000 0.000000
# 5 0.000000 0.000000 0.000000 0.000000 0.006553 0.000000
# 6 0.000000 0.000000 0.000000 0.000000 0.000000 0.040395
#
#
# Mechanical properties :
#
#
# Convention : Reuss Voigt Hill
#
# Bulk Modulus (GPa) = 28.95244 31.82040 30.38642
# Shear Modulus (GPa) = 21.26282 46.76229 34.01256
#
# Velocity S-wave (km/s) = 3.54125 5.25164 4.47885
# Velocity P-wave (km/s) = 5.81346 7.45252 6.68343
#
# Compressibility (1/GPa) = 0.03453941
#
# Stress axis : x y z
#
# Youngs Moduli (GPa) = 34.03597 82.77392 39.04248
#
# Poissons Ratio (x) = 0.20181 0.38719
# Poissons Ratio (y) = 0.08298 0.15275
# Poissons Ratio (z) = 0.33754 0.32385
#
# Static dielectric constant tensor:
#      x y z
#    x 1.648760 0.000000 0.000000 
#    y 0.000000 1.624940 0.000000 
#    z 0.000000 0.000000 1.606910 
# 
# From -- ./inp_files/14586.got.cif
#   From: 2010.05.17/outbox.cif.g08.bks.cpg/sg65_8_cif.got.tgz:14586.got - 2010.06.03 17:01:31.
