data_PCOD9488210
_publ_section_title
;
Structure prediction by ZEFSAII (Michael W. Deem and Ramdas Pophale) SiO2 
 PCOD9488210
Probable space group: C M M M
;
_chemical_formula_sum "Si O2"
_cell_formula_units_Z 82
_cell_length_a 26.044371
_cell_length_b 23.403699
_cell_length_c 9.225712
_cell_angle_alpha 90.000000
_cell_angle_beta 90.000000
_cell_angle_gamma 90.000000
_cell_volume 5623.390854
_symmetry_space_group_name_H-M "C M M M"
_symmetry_group_IT_number 65
_symmetry_cell_setting 'orthorhombic'
loop_
_space_group_symop_operation_xyz
x,y,z
-x,-y,z
x,-y,-z
-x,y,-z
-x,-y,-z
x,y,-z
-x,y,z
x,-y,z
1/2+x,1/2+y,z
1/2-x,1/2-y,z
1/2+x,1/2-y,-z
1/2-x,1/2+y,-z
1/2-x,1/2-y,-z
1/2+x,1/2+y,-z
1/2-x,1/2+y,z
1/2+x,1/2-y,z
loop_
_atom_site_type_symbol
_atom_site_label
_atom_site_fract_x
_atom_site_fract_y
_atom_site_fract_z
Si Si1 0.060738 0.877215 0.337046
Si Si2 0.500000 0.500000 0.000000
Si Si3 0.788487 0.000000 0.169331
Si Si4 0.797812 0.705179 0.165712
Si Si5 0.265637 0.382858 0.673036
Si Si6 0.356478 0.313270 0.828080
Si Si7 0.408677 0.500000 0.240761
O O1 0.069546 0.855343 0.500000
O O2 0.089072 0.837348 0.221639
O O3 0.000000 0.880411 0.310543
O O4 0.083498 0.941069 0.326599
O O5 0.454286 0.500000 0.123885
O O6 0.767721 0.944152 0.250839
O O7 0.850798 0.000000 0.179954
O O8 0.774633 0.000000 0.000000
O O9 0.750000 0.750000 0.168414
O O10 0.782863 0.654731 0.273460
O O11 0.845842 0.746227 0.199434
O O12 0.801539 0.683961 0.000000
O O13 0.267921 0.386894 0.500000
O O14 0.315103 0.349016 0.735709
O O15 0.347893 0.323032 0.000000
#
# Coordination Sequence:
#
# PCOD9488210 Si02
#       7
#    16   2   8  16  16  16   8
#     4  11  23  35  47  64  89 118 152 198 243 276
#     4  12  24  36  46  72  72 116 174 204 236 282
#     4  12  23  33  47  67  89 122 153 189 234 271
#     4   8  16  32  48  65  86 113 145 182 223 270
#     4  11  21  31  47  68  91 114 145 187 229 276
#     4  10  20  32  49  66  86 116 152 188 226 272
#     4  12  23  33  49  60  85 116 157 202 237 273
#
# _framework density 14.581950000000001
#
# number of rings (size 3 to 8) (size 9 to 14) (size 15 to 20)
#    0.000    1.561    3.415    4.098    1.366    6.244 
#    0.000    0.000    0.000    0.000    0.000    0.000 
#    0.000    0.000    0.000    0.878    0.000   16.390 
#
# Total GULP energy -228380.744242 kJ/mol
# GULP energy per Si atom -5570.262055 kJ/mol
# Density = 1.454876 g / cm^3
# Si number density = 14.581950 Si / 1000 Ang^3
#
#
#
# Elastic Constant Matrix: (Units=GPa)
#
#
# Indices 1 2 3 4 5 6 
#
# 1 36.2148 35.1209 30.0675 0.0000 0.0000 0.0000
# 2 35.1209 84.8145 64.5790 0.0000 0.0000 0.0000
# 3 30.0675 64.5790 124.6607 0.0000 0.0000 0.0000
# 4 0.0000 0.0000 0.0000 2.8147 0.0000 0.0000
# 5 0.0000 0.0000 0.0000 0.0000 20.1986 0.0000
# 6 0.0000 0.0000 0.0000 0.0000 0.0000 18.7642
#
#
#
# Elastic Compliance Matrix: (Units=1/GPa)
#
#
# Indices 1 2 3 4 5 6 
#
# 1 0.046458 -0.017679 -0.002047 0.000000 0.000000 0.000000
# 2 -0.017679 0.026198 -0.009307 0.000000 0.000000 0.000000
# 3 -0.002047 -0.009307 0.013337 0.000000 0.000000 0.000000
# 4 0.000000 0.000000 0.000000 0.355276 0.000000 0.000000
# 5 0.000000 0.000000 0.000000 0.000000 0.049508 0.000000
# 6 0.000000 0.000000 0.000000 0.000000 0.000000 0.053293
#
#
# Mechanical properties :
#
#
# Convention : Reuss Voigt Hill
#
# Bulk Modulus (GPa) = 35.80924 56.13610 45.97267
# Shear Modulus (GPa) = 8.17734 16.08367 12.13050
#
# Velocity S-wave (km/s) = 2.37066 3.32472 2.88737
# Velocity P-wave (km/s) = 5.66603 7.30198 6.53540
#
# Compressibility (1/GPa) = 0.02792576
#
# Stress axis : x y z
#
# Youngs Moduli (GPa) = 21.52504 38.17080 74.97879
#
# Poissons Ratio (x) = 0.67483 0.15347
# Poissons Ratio (y) = 0.38054 0.69786
# Poissons Ratio (z) = 0.04406 0.35527
#
# Static dielectric constant tensor:
#      x y z
#    x 1.485340 0.000000 0.000000 
#    y 0.000000 1.489350 0.000000 
#    z 0.000000 0.000000 1.497430 
# 
# From -- ./inp_files/13898.got.cif
#   From: 2010.05.17/outbox.cif.g08.bks.cpg/sg65_7_cif.got.tgz:13898.got - 2010.06.03 17:01:31.
