data_PCOD9488607
_publ_section_title
;
Structure prediction by ZEFSAII (Michael W. Deem and Ramdas Pophale) SiO2 
 PCOD9488607
Probable space group: C M M M
;
_chemical_formula_sum "Si O2"
_cell_formula_units_Z 116
_cell_length_a 9.087348
_cell_length_b 30.303507
_cell_length_c 25.094222
_cell_angle_alpha 90.000000
_cell_angle_beta 90.000000
_cell_angle_gamma 90.000000
_cell_volume 6910.409558
_symmetry_space_group_name_H-M "C M M M"
_symmetry_group_IT_number 65
_symmetry_cell_setting 'orthorhombic'
loop_
_space_group_symop_operation_xyz
x,y,z
-x,-y,z
x,-y,-z
-x,y,-z
-x,-y,-z
x,y,-z
-x,y,z
x,-y,z
1/2+x,1/2+y,z
1/2-x,1/2-y,z
1/2+x,1/2-y,-z
1/2-x,1/2+y,-z
1/2-x,1/2-y,-z
1/2+x,1/2+y,-z
1/2-x,1/2+y,z
1/2+x,1/2-y,z
loop_
_atom_site_type_symbol
_atom_site_label
_atom_site_fract_x
_atom_site_fract_y
_atom_site_fract_z
Si Si1 0.826505 0.051490 0.345328
Si Si2 0.176943 0.863748 0.195555
Si Si3 0.674460 0.203469 0.275185
Si Si4 0.824446 0.551010 0.231967
Si Si5 0.500000 0.310064 0.000000
Si Si6 0.160473 0.794798 0.891400
Si Si7 0.172936 0.295782 0.403062
Si Si8 0.176637 0.883978 0.559378
O O1 0.733427 0.058871 0.292072
O O2 0.780104 0.082515 0.393835
O O3 0.000000 0.059674 0.333578
O O4 0.812553 0.000000 0.360179
O O5 0.244163 0.835842 0.244534
O O6 0.245821 0.912329 0.196298
O O7 0.218949 0.835420 0.143181
O O8 0.000000 0.866850 0.199572
O O9 0.500000 0.203918 0.263079
O O10 0.750000 0.250000 0.259844
O O11 0.691220 0.198613 0.338976
O O12 0.788183 0.500000 0.218453
O O13 0.000000 0.556173 0.230020
O O14 0.374241 0.307974 0.047800
O O15 0.250000 0.750000 0.889223
O O16 0.000000 0.784436 0.866742
O O17 0.250000 0.250000 0.418179
O O18 0.247211 0.337265 0.430988
O O19 0.000000 0.293759 0.414582
O O20 0.211678 0.900582 0.500000
O O21 0.000000 0.878508 0.562653
#
# Coordination Sequence:
#
# PCOD9488607 Si02
#       8
#    16  16  16  16   4  16  16  16
#     4   9  18  34  56  79 102 133 169 203 249 313
#     4  11  21  32  49  79 108 138 174 216 259 305
#     4  10  20  33  50  73 106 139 169 208 257 314
#     4  10  21  36  54  76 105 138 170 210 262 318
#     4   8  18  36  54  72 111 150 183 222 248 290
#     4   9  19  32  52  76 106 146 181 217 252 292
#     4  10  21  36  53  71  92 128 170 207 254 310
#     4  10  21  35  51  73 100 128 163 210 257 300
#
# _framework density 16.786269999999998
#
# number of rings (size 3 to 8) (size 9 to 14) (size 15 to 20)
#    0.414    1.793    0.000    3.103    0.000    8.276 
#    0.000    1.379    0.000    0.000    0.000    3.862 
#    0.000    1.103    0.000    0.000    0.000    0.000 
#
# Total GULP energy -322961.370006 kJ/mol
# GULP energy per Si atom -5568.299483 kJ/mol
# Density = 1.674806 g / cm^3
# Si number density = 16.786270 Si / 1000 Ang^3
#
#
#
# Elastic Constant Matrix: (Units=GPa)
#
#
# Indices 1 2 3 4 5 6 
#
# 1 43.9511 36.7767 28.6806 0.0000 0.0000 0.0000
# 2 36.7767 94.9316 49.9790 0.0000 0.0000 0.0000
# 3 28.6806 49.9790 56.6541 0.0000 0.0000 0.0000
# 4 0.0000 0.0000 0.0000 7.2143 0.0000 0.0000
# 5 0.0000 0.0000 0.0000 0.0000 19.0268 0.0000
# 6 0.0000 0.0000 0.0000 0.0000 0.0000 28.0905
#
#
#
# Elastic Compliance Matrix: (Units=1/GPa)
#
#
# Indices 1 2 3 4 5 6 
#
# 1 0.037255 -0.008409 -0.011442 0.000000 0.000000 0.000000
# 2 -0.008409 0.021567 -0.014769 0.000000 0.000000 0.000000
# 3 -0.011442 -0.014769 0.036472 0.000000 0.000000 0.000000
# 4 0.000000 0.000000 0.000000 0.138614 0.000000 0.000000
# 5 0.000000 0.000000 0.000000 0.000000 0.052557 0.000000
# 6 0.000000 0.000000 0.000000 0.000000 0.000000 0.035599
#
#
# Mechanical properties :
#
#
# Convention : Reuss Voigt Hill
#
# Bulk Modulus (GPa) = 38.38068 47.37883 42.87976
# Shear Modulus (GPa) = 12.50030 16.20635 14.35333
#
# Velocity S-wave (km/s) = 2.73183 3.11054 2.92732
# Velocity P-wave (km/s) = 5.73276 6.41768 6.08487
#
# Compressibility (1/GPa) = 0.02605478
#
# Stress axis : x y z
#
# Youngs Moduli (GPa) = 26.84173 46.36711 27.41807
#
# Poissons Ratio (x) = 0.38990 0.31372
# Poissons Ratio (y) = 0.22571 0.40494
# Poissons Ratio (z) = 0.30713 0.68480
#
# Static dielectric constant tensor:
#      x y z
#    x 1.573820 0.000000 0.000000 
#    y 0.000000 1.563360 0.000000 
#    z 0.000000 0.000000 1.559430 
# 
# From -- ./inp_files/74075.got.cif
#   From: 2010.05.17/outbox.cif.g08.bks.cpg/sg65_38_cif.got.tgz:74075.got - 2010.06.03 17:01:31.
