data_PCOD9488677
_publ_section_title
;
Structure prediction by ZEFSAII (Michael W. Deem and Ramdas Pophale) SiO2 
 PCOD9488677
Probable space group: C M M M
;
_chemical_formula_sum "Si O2"
_cell_formula_units_Z 88
_cell_length_a 19.419251
_cell_length_b 18.671156
_cell_length_c 13.980598
_cell_angle_alpha 90.000000
_cell_angle_beta 90.000000
_cell_angle_gamma 90.000000
_cell_volume 5069.083333
_symmetry_space_group_name_H-M "C M M M"
_symmetry_group_IT_number 65
_symmetry_cell_setting 'orthorhombic'
loop_
_space_group_symop_operation_xyz
x,y,z
-x,-y,z
x,-y,-z
-x,y,-z
-x,-y,-z
x,y,-z
-x,y,z
x,-y,z
1/2+x,1/2+y,z
1/2-x,1/2-y,z
1/2+x,1/2-y,-z
1/2-x,1/2+y,-z
1/2-x,1/2-y,-z
1/2+x,1/2+y,-z
1/2-x,1/2+y,z
1/2+x,1/2-y,z
loop_
_atom_site_type_symbol
_atom_site_label
_atom_site_fract_x
_atom_site_fract_y
_atom_site_fract_z
Si Si1 0.344714 0.083904 0.693721
Si Si2 0.919157 0.708139 0.785008
Si Si3 0.685294 0.301757 0.111442
Si Si4 0.919333 0.817649 0.389256
Si Si5 0.315147 0.584357 0.721846
Si Si6 0.577249 0.086591 0.500000
O O1 0.377803 0.134489 0.773368
O O2 0.263022 0.093220 0.684816
O O3 0.381898 0.104666 0.595181
O O4 0.358022 0.000000 0.712690
O O5 0.883043 0.756202 0.865336
O O6 0.910240 0.752628 0.685625
O O7 0.000000 0.696775 0.800197
O O8 0.750000 0.250000 0.137018
O O9 0.682957 0.370808 0.179579
O O10 0.690741 0.319939 0.000000
O O11 0.904509 0.799209 0.500000
O O12 0.869283 0.879782 0.350676
O O13 0.000000 0.838795 0.383608
O O14 0.328464 0.500000 0.734811
O O15 0.500000 0.117194 0.500000
O O16 0.571950 0.000000 0.500000
#
# Coordination Sequence:
#
# PCOD9488677 Si02
#       6
#    16  16  16  16  16   8
#     4  10  20  33  50  78 114 149 186 224 263 315
#     4  10  20  35  56  81 109 143 183 224 270 323
#     4  10  20  38  60  80 105 138 178 224 275 327
#     4   9  20  36  54  79 110 147 187 225 269 320
#     4  10  21  36  56  83 112 142 181 225 271 325
#     4   9  18  30  44  67 103 149 190 219 255 301
#
# _framework density 17.360140000000001
#
# number of rings (size 3 to 8) (size 9 to 14) (size 15 to 20)
#    0.000    2.273    1.818    0.545    2.545    2.545 
#    0.000    1.818    0.000    0.545    0.000    6.364 
#    0.000    0.000    0.000    0.000    0.000    0.000 
#
# Total GULP energy -245400.640231 kJ/mol
# GULP energy per Si atom -5577.287278 kJ/mol
# Density = 1.732063 g / cm^3
# Si number density = 17.360140 Si / 1000 Ang^3
#
#
#
# Elastic Constant Matrix: (Units=GPa)
#
#
# Indices 1 2 3 4 5 6 
#
# 1 82.9857 45.0711 13.3166 0.0000 0.0000 0.0000
# 2 45.0711 65.5503 7.9284 0.0000 0.0000 0.0000
# 3 13.3166 7.9284 49.8875 0.0000 0.0000 0.0000
# 4 0.0000 0.0000 0.0000 15.1727 0.0000 0.0000
# 5 0.0000 0.0000 0.0000 0.0000 21.4765 0.0000
# 6 0.0000 0.0000 0.0000 0.0000 0.0000 19.0871
#
#
#
# Elastic Compliance Matrix: (Units=1/GPa)
#
#
# Indices 1 2 3 4 5 6 
#
# 1 0.019712 -0.013170 -0.003169 0.000000 0.000000 0.000000
# 2 -0.013170 0.024354 -0.000355 0.000000 0.000000 0.000000
# 3 -0.003169 -0.000355 0.020947 0.000000 0.000000 0.000000
# 4 0.000000 0.000000 0.000000 0.065908 0.000000 0.000000
# 5 0.000000 0.000000 0.000000 0.000000 0.046563 0.000000
# 6 0.000000 0.000000 0.000000 0.000000 0.000000 0.052391
#
#
# Mechanical properties :
#
#
# Convention : Reuss Voigt Hill
#
# Bulk Modulus (GPa) = 31.61998 36.78396 34.20197
# Shear Modulus (GPa) = 18.26126 19.95443 19.10784
#
# Velocity S-wave (km/s) = 3.24683 3.39402 3.32124
# Velocity P-wave (km/s) = 5.68415 6.04929 5.86956
#
# Compressibility (1/GPa) = 0.03162557
#
# Stress axis : x y z
#
# Youngs Moduli (GPa) = 50.73149 41.06126 47.73884
#
# Poissons Ratio (x) = 0.54078 0.15127
# Poissons Ratio (y) = 0.66814 0.01694
# Poissons Ratio (z) = 0.16075 0.01457
#
# Static dielectric constant tensor:
#      x y z
#    x 1.581990 0.000000 0.000000 
#    y 0.000000 1.592260 0.000000 
#    z 0.000000 0.000000 1.575650 
# 
# From -- ./inp_files/42482.got.cif
#   From: 2010.05.17/outbox.cif.g08.bks.cpg/sg65_22_cif.got.tgz:42482.got - 2010.06.03 17:01:31.
