data_PCOD9488484
_publ_section_title
;
Structure prediction by ZEFSAII (Michael W. Deem and Ramdas Pophale) SiO2 
 PCOD9488484
Probable space group: C M M M
;
_chemical_formula_sum "Si O2"
_cell_formula_units_Z 80
_cell_length_a 26.709378
_cell_length_b 19.558619
_cell_length_c 9.011968
_cell_angle_alpha 90.000000
_cell_angle_beta 90.000000
_cell_angle_gamma 90.000000
_cell_volume 4707.838998
_symmetry_space_group_name_H-M "C M M M"
_symmetry_group_IT_number 65
_symmetry_cell_setting 'orthorhombic'
loop_
_space_group_symop_operation_xyz
x,y,z
-x,-y,z
x,-y,-z
-x,y,-z
-x,-y,-z
x,y,-z
-x,y,z
x,-y,z
1/2+x,1/2+y,z
1/2-x,1/2-y,z
1/2+x,1/2-y,-z
1/2-x,1/2+y,-z
1/2-x,1/2-y,-z
1/2+x,1/2+y,-z
1/2-x,1/2+y,z
1/2+x,1/2-y,z
loop_
_atom_site_type_symbol
_atom_site_label
_atom_site_fract_x
_atom_site_fract_y
_atom_site_fract_z
Si Si1 0.191870 0.831301 0.820537
Si Si2 0.500000 0.416925 0.828908
Si Si3 0.195130 0.327983 0.820023
Si Si4 0.396050 0.581173 0.676873
Si Si5 0.102938 0.419833 0.821341
Si Si6 0.500000 0.083182 0.671184
O O1 0.185928 0.751161 0.780799
O O2 0.248850 0.849612 0.774672
O O3 0.149804 0.877268 0.746098
O O4 0.188287 0.837096 0.000000
O O5 0.500000 0.500000 0.826688
O O6 0.551064 0.395894 0.747581
O O7 0.500000 0.394687 0.000000
O O8 0.150496 0.376472 0.768805
O O9 0.195523 0.330147 0.000000
O O10 0.397810 0.589696 0.500000
O O11 0.390070 0.500000 0.708429
O O12 0.109634 0.500000 0.784780
O O13 0.050897 0.394931 0.751519
O O14 0.099390 0.414763 0.000000
O O15 0.500000 0.103735 0.500000
O O16 0.500000 0.000000 0.677750
#
# Coordination Sequence:
#
# PCOD9488484 Si02
#       6
#    16   8  16  16  16   8
#     4   9  17  32  52  71  95 128 164 198 234 281
#     4   9  17  31  52  75  96 123 161 199 238 287
#     4   8  16  31  50  72  97 125 159 201 241 274
#     4  10  20  33  49  72 102 130 157 196 244 289
#     4   9  16  28  48  71  93 120 155 192 232 279
#     4   9  17  29  44  65  94 123 151 189 236 279
#
# _framework density 16.992934000000002
#
# number of rings (size 3 to 8) (size 9 to 14) (size 15 to 20)
#    0.000    3.000    0.000    2.400    0.000    4.400 
#    0.000    7.000    0.000    4.800    0.000    0.000 
#    0.000    0.000    0.000    0.000    0.000    0.000 
#
# Total GULP energy -222871.034263 kJ/mol
# GULP energy per Si atom -5571.775857 kJ/mol
# Density = 1.695426 g / cm^3
# Si number density = 16.992934 Si / 1000 Ang^3
#
#
#
# Elastic Constant Matrix: (Units=GPa)
#
#
# Indices 1 2 3 4 5 6 
#
# 1 218.9475 89.8624 66.5479 0.0000 0.0000 0.0000
# 2 89.8624 52.3118 37.8349 0.0000 0.0000 0.0000
# 3 66.5479 37.8349 45.5370 0.0000 0.0000 0.0000
# 4 0.0000 0.0000 0.0000 15.7480 0.0000 0.0000
# 5 0.0000 0.0000 0.0000 0.0000 0.3603 0.0000
# 6 0.0000 0.0000 0.0000 0.0000 0.0000 -36.1039
#
#
#
# Elastic Compliance Matrix: (Units=1/GPa)
#
#
# Indices 1 2 3 4 5 6 
#
# 1 0.015517 -0.025695 -0.001327 0.000000 0.000000 0.000000
# 2 -0.025695 0.090451 -0.037602 0.000000 0.000000 0.000000
# 3 -0.001327 -0.037602 0.055141 0.000000 0.000000 0.000000
# 4 0.000000 0.000000 0.000000 0.063500 0.000000 0.000000
# 5 0.000000 0.000000 0.000000 0.000000 2.775405 0.000000
# 6 0.000000 0.000000 0.000000 0.000000 0.000000 -0.027698
#
#
# Mechanical properties :
#
#
# Convention : Reuss Voigt Hill
#
# Bulk Modulus (GPa) = 31.38563 78.36519 54.87541
# Shear Modulus (GPa) = 1.60659 4.17097 2.88878
#
# Velocity S-wave (km/s) = 0.97339 1.56839 1.30525
# Velocity P-wave (km/s) = 4.44671 7.03536 5.88513
#
# Compressibility (1/GPa) = 0.03186171
#
# Stress axis : x y z
#
# Youngs Moduli (GPa) = 64.44708 11.05571 18.13523
#
# Poissons Ratio (x) = 0.28408 0.02407
# Poissons Ratio (y) = 1.65596 0.68191
# Poissons Ratio (z) = 0.08553 0.41571
#
# Static dielectric constant tensor:
#      x y z
#    x 1.567440 0.000000 0.000000 
#    y 0.000000 1.561910 0.000000 
#    z 0.000000 0.000000 1.564260 
# 
# From -- ./inp_files/13822.got.cif
#   From: 2010.05.17/outbox.cif.g08.bks.cpg/sg65_7_cif.got.tgz:13822.got - 2010.06.03 17:01:31.
