data_PCOD9488119
_publ_section_title
;
Structure prediction by ZEFSAII (Michael W. Deem and Ramdas Pophale) SiO2 
 PCOD9488119
Probable space group: C M M M
;
_chemical_formula_sum "Si O2"
_cell_formula_units_Z 56
_cell_length_a 7.577464
_cell_length_b 34.639817
_cell_length_c 10.772522
_cell_angle_alpha 90.000000
_cell_angle_beta 90.000000
_cell_angle_gamma 90.000000
_cell_volume 2827.592756
_symmetry_space_group_name_H-M "C M M M"
_symmetry_group_IT_number 65
_symmetry_cell_setting 'orthorhombic'
loop_
_space_group_symop_operation_xyz
x,y,z
-x,-y,z
x,-y,-z
-x,y,-z
-x,-y,-z
x,y,-z
-x,y,z
x,-y,z
1/2+x,1/2+y,z
1/2-x,1/2-y,z
1/2+x,1/2-y,-z
1/2-x,1/2+y,-z
1/2-x,1/2-y,-z
1/2+x,1/2+y,-z
1/2-x,1/2+y,z
1/2+x,1/2-y,z
loop_
_atom_site_type_symbol
_atom_site_label
_atom_site_fract_x
_atom_site_fract_y
_atom_site_fract_z
Si Si1 0.711873 0.704868 0.000000
Si Si2 0.213134 0.584071 0.142752
Si Si3 0.712385 0.295546 0.500000
Si Si4 0.289796 0.335153 0.750708
Si Si5 0.296149 0.000000 0.150891
O O1 0.750000 0.750000 0.000000
O O2 0.782362 0.685263 0.874790
O O3 0.500000 0.699477 0.000000
O O4 0.261083 0.619380 0.230699
O O5 0.280472 0.541806 0.184270
O O6 0.000000 0.581673 0.137798
O O7 0.273420 0.591725 0.000000
O O8 0.500000 0.299788 0.500000
O O9 0.750000 0.250000 0.500000
O O10 0.780514 0.316289 0.375342
O O11 0.500000 0.328500 0.749805
O O12 0.500000 0.000000 0.193658
O O13 0.298329 0.000000 0.000000
#
# Coordination Sequence:
#
# PCOD9488119 Si02
#       5
#     8  16   8  16   8
#     4  10  20  32  48  69  94 121 153 198 245 286
#     4   9  16  28  49  76 102 130 163 199 241 289
#     4  10  22  38  54  71  96 131 167 204 247 294
#     4  10  20  34  50  71 100 129 159 201 248 291
#     4   7  12  24  43  70 103 130 156 196 241 282
#
# _framework density 19.804832999999999
#
# number of rings (size 3 to 8) (size 9 to 14) (size 15 to 20)
#    0.000    2.714    1.429    2.571    0.000    2.286 
#    0.000    0.714    0.000    3.429    0.000    6.000 
#    0.000    0.000    0.000    0.000    0.000    0.000 
#
# Total GULP energy -156138.018423 kJ/mol
# GULP energy per Si atom -5576.357801 kJ/mol
# Density = 1.975976 g / cm^3
# Si number density = 19.804833 Si / 1000 Ang^3
#
#
#
# Elastic Constant Matrix: (Units=GPa)
#
#
# Indices 1 2 3 4 5 6 
#
# 1 44.1095 -10.8820 15.6380 0.0000 0.0000 0.0000
# 2 -10.8820 200.6981 107.3870 0.0000 0.0000 0.0000
# 3 15.6380 107.3870 149.9279 0.0000 0.0000 0.0000
# 4 0.0000 0.0000 0.0000 28.3054 0.0000 0.0000
# 5 0.0000 0.0000 0.0000 0.0000 -0.9090 0.0000
# 6 0.0000 0.0000 0.0000 0.0000 0.0000 19.5340
#
#
#
# Elastic Compliance Matrix: (Units=1/GPa)
#
#
# Indices 1 2 3 4 5 6 
#
# 1 0.025948 0.004629 -0.006022 0.000000 0.000000 0.000000
# 2 0.004629 0.008905 -0.006861 0.000000 0.000000 0.000000
# 3 -0.006022 -0.006861 0.012212 0.000000 0.000000 0.000000
# 4 0.000000 0.000000 0.000000 0.035329 0.000000 0.000000
# 5 0.000000 0.000000 0.000000 0.000000 -1.100066 0.000000
# 6 0.000000 0.000000 0.000000 0.000000 0.000000 0.051193
#
#
# Mechanical properties :
#
#
# Convention : Reuss Voigt Hill
#
# Bulk Modulus (GPa) = 32.72568 68.78015 50.75292
# Shear Modulus (GPa) = -5.32036 28.22557 11.45260
#
# Velocity S-wave (km/s) = -1.64080 3.77926 2.40734
# Velocity P-wave (km/s) = 3.60143 7.33813 5.78007
#
# Compressibility (1/GPa) = 0.03055704
#
# Stress axis : x y z
#
# Youngs Moduli (GPa) = 38.53877 112.30131 81.88585
#
# Poissons Ratio (x) = -0.51986 0.49313
# Poissons Ratio (y) = -0.17840 0.56181
# Poissons Ratio (z) = 0.23209 0.77048
#
# Static dielectric constant tensor:
#      x y z
#    x 1.746200 0.000000 0.000000 
#    y 0.000000 1.713230 0.000000 
#    z 0.000000 0.000000 1.686450 
# 
# From -- ./inp_files/20814.got.cif
#   From: 2010.05.17/outbox.cif.g08.bks.cpg/sg65_11_cif.got.tgz:20814.got - 2010.06.03 17:01:31.
