data_PCOD9488829
_publ_section_title
;
Structure prediction by ZEFSAII (Michael W. Deem and Ramdas Pophale) SiO2 
 PCOD9488829
Probable space group: C M M M
;
_chemical_formula_sum "Si O2"
_cell_formula_units_Z 120
_cell_length_a 27.244078
_cell_length_b 8.905427
_cell_length_c 28.444180
_cell_angle_alpha 90.000000
_cell_angle_beta 90.000000
_cell_angle_gamma 90.000000
_cell_volume 6901.131156
_symmetry_space_group_name_H-M "C M M M"
_symmetry_group_IT_number 65
_symmetry_cell_setting 'orthorhombic'
loop_
_space_group_symop_operation_xyz
x,y,z
-x,-y,z
x,-y,-z
-x,y,-z
-x,-y,-z
x,y,-z
-x,y,z
x,-y,z
1/2+x,1/2+y,z
1/2-x,1/2-y,z
1/2+x,1/2-y,-z
1/2-x,1/2+y,-z
1/2-x,1/2-y,-z
1/2+x,1/2+y,-z
1/2-x,1/2+y,z
1/2+x,1/2-y,z
loop_
_atom_site_type_symbol
_atom_site_label
_atom_site_fract_x
_atom_site_fract_y
_atom_site_fract_z
Si Si1 0.644313 0.179812 0.359254
Si Si2 0.000000 0.317233 0.945936
Si Si3 0.943633 0.176646 0.303877
Si Si4 0.400376 0.819790 0.785900
Si Si5 0.800789 0.321034 0.266007
Si Si6 0.600979 0.818260 0.104680
Si Si7 0.302794 0.679446 0.055982
Si Si8 0.196411 0.820797 0.554251
O O1 0.592857 0.235150 0.338188
O O2 0.683510 0.225267 0.318754
O O3 0.659056 0.253430 0.408182
O O4 0.644666 0.000000 0.362919
O O5 0.949079 0.270144 0.921553
O O6 0.000000 0.500000 0.944380
O O7 0.000000 0.269737 0.000000
O O8 0.935356 0.237673 0.251057
O O9 0.000000 0.197471 0.317391
O O10 0.931700 0.000000 0.305202
O O11 0.345584 0.781898 0.768161
O O12 0.405378 0.780976 0.840312
O O13 0.407084 0.000000 0.780771
O O14 0.796222 0.500000 0.266031
O O15 0.750000 0.250000 0.251645
O O16 0.650347 0.747255 0.083093
O O17 0.605273 0.000000 0.100809
O O18 0.300976 0.500000 0.062536
O O19 0.250000 0.750000 0.070116
O O20 0.308961 0.710264 0.000000
O O21 0.183196 0.786684 0.500000
O O22 0.250000 0.750000 0.563016
O O23 0.199433 0.000000 0.559437
#
# Coordination Sequence:
#
# PCOD9488829 Si02
#       8
#    16   8  16  16  16  16  16  16
#     4  10  20  34  53  77 104 138 182 226 270 320
#     4   9  18  32  53  81 107 135 175 221 268 319
#     4  10  21  36  55  78 104 136 176 223 272 321
#     4   9  20  35  51  75 105 137 175 213 258 315
#     4   9  18  31  46  69  99 133 170 209 252 304
#     4  10  20  35  56  81 108 141 179 221 269 323
#     4  10  21  37  57  80 106 139 178 220 267 319
#     4  10  20  33  51  78 113 150 185 223 268 318
#
# _framework density 17.388452999999998
#
# number of rings (size 3 to 8) (size 9 to 14) (size 15 to 20)
#    0.000    2.333    0.000    3.200    0.933    8.000 
#    0.000    1.667    0.000    1.600    0.000    2.800 
#    0.000    0.000    0.000    0.000    0.000    0.000 
#
# Total GULP energy -334795.242778 kJ/mol
# GULP energy per Si atom -5579.920713 kJ/mol
# Density = 1.734888 g / cm^3
# Si number density = 17.388453 Si / 1000 Ang^3
#
#
#
# Elastic Constant Matrix: (Units=GPa)
#
#
# Indices 1 2 3 4 5 6 
#
# 1 94.4721 34.4958 58.9797 0.0000 0.0000 0.0000
# 2 34.4958 37.4323 44.2006 0.0000 0.0000 0.0000
# 3 58.9797 44.2006 123.3882 0.0000 0.0000 0.0000
# 4 0.0000 0.0000 0.0000 22.2777 0.0000 0.0000
# 5 0.0000 0.0000 0.0000 0.0000 6.5622 0.0000
# 6 0.0000 0.0000 0.0000 0.0000 0.0000 28.1126
#
#
#
# Elastic Compliance Matrix: (Units=1/GPa)
#
#
# Indices 1 2 3 4 5 6 
#
# 1 0.017240 -0.010670 -0.004418 0.000000 0.000000 0.000000
# 2 -0.010670 0.052903 -0.013851 0.000000 0.000000 0.000000
# 3 -0.004418 -0.013851 0.015178 0.000000 0.000000 0.000000
# 4 0.000000 0.000000 0.000000 0.044888 0.000000 0.000000
# 5 0.000000 0.000000 0.000000 0.000000 0.152388 0.000000
# 6 0.000000 0.000000 0.000000 0.000000 0.000000 0.035571
#
#
# Mechanical properties :
#
#
# Convention : Reuss Voigt Hill
#
# Bulk Modulus (GPa) = 36.43978 58.96053 47.70016
# Shear Modulus (GPa) = 12.98050 19.23161 16.10606
#
# Velocity S-wave (km/s) = 2.73518 3.32926 3.04674
# Velocity P-wave (km/s) = 5.56568 6.98285 6.31415
#
# Compressibility (1/GPa) = 0.02744253
#
# Stress axis : x y z
#
# Youngs Moduli (GPa) = 58.00613 18.90252 65.88408
#
# Poissons Ratio (x) = 0.20169 0.29110
# Poissons Ratio (y) = 0.61892 0.91255
# Poissons Ratio (z) = 0.25629 0.26182
#
# Static dielectric constant tensor:
#      x y z
#    x 1.573170 0.000000 0.000000 
#    y 0.000000 1.584300 0.000000 
#    z 0.000000 0.000000 1.583750 
# 
# From -- ./inp_files/76159.got.cif
#   From: 2010.05.17/outbox.cif.g08.bks.cpg/sg65_39_cif.got.tgz:76159.got - 2010.06.03 17:01:31.
