data_PCOD9488788
_publ_section_title
;
Structure prediction by ZEFSAII (Michael W. Deem and Ramdas Pophale) SiO2 
 PCOD9488788
Probable space group: C M M M
;
_chemical_formula_sum "Si O2"
_cell_formula_units_Z 56
_cell_length_a 18.676613
_cell_length_b 7.909305
_cell_length_c 18.669338
_cell_angle_alpha 90.000000
_cell_angle_beta 90.000000
_cell_angle_gamma 90.000000
_cell_volume 2757.816474
_symmetry_space_group_name_H-M "C M M M"
_symmetry_group_IT_number 65
_symmetry_cell_setting 'orthorhombic'
loop_
_space_group_symop_operation_xyz
x,y,z
-x,-y,z
x,-y,-z
-x,y,-z
-x,-y,-z
x,y,-z
-x,y,z
x,-y,z
1/2+x,1/2+y,z
1/2-x,1/2-y,z
1/2+x,1/2-y,-z
1/2-x,1/2+y,-z
1/2-x,1/2-y,-z
1/2+x,1/2+y,-z
1/2-x,1/2+y,z
1/2+x,1/2-y,z
loop_
_atom_site_type_symbol
_atom_site_label
_atom_site_fract_x
_atom_site_fract_y
_atom_site_fract_z
Si Si1 0.418708 0.202795 0.641956
Si Si2 0.166842 0.199957 0.500000
Si Si3 0.083030 0.293767 0.919867
Si Si4 0.167215 0.295863 0.780779
O O1 0.500000 0.268414 0.636507
O O2 0.373490 0.237076 0.570835
O O3 0.377618 0.267334 0.712369
O O4 0.423278 0.000000 0.649290
O O5 0.250000 0.250000 0.500000
O O6 0.162890 0.000000 0.500000
O O7 0.084650 0.500000 0.919909
O O8 0.132579 0.234193 0.855176
O O9 0.000000 0.245918 0.907994
O O10 0.104334 0.238530 0.000000
O O11 0.162158 0.500000 0.781090
O O12 0.250000 0.250000 0.774629
#
# Coordination Sequence:
#
# PCOD9488788 Si02
#       4
#    16   8  16  16
#     4  10  21  38  59  81 107 140 178 220 266 316
#     4  12  25  40  59  83 111 141 175 216 263 316
#     4   8  14  27  49  75 101 132 174 220 260 303
#     4  10  20  33  51  77 107 139 175 215 261 312
#
# _framework density 20.30592
#
# number of rings (size 3 to 8) (size 9 to 14) (size 15 to 20)
#    0.000    2.286    0.000    4.286    0.000    9.714 
#    0.000    0.000    0.000    2.571    0.000    2.000 
#    0.000    0.000    0.000    0.000    0.000    0.000 
#
# Total GULP energy -156377.702137 kJ/mol
# GULP energy per Si atom -5584.917933 kJ/mol
# Density = 2.025970 g / cm^3
# Si number density = 20.305920 Si / 1000 Ang^3
#
#
#
# Elastic Constant Matrix: (Units=GPa)
#
#
# Indices 1 2 3 4 5 6 
#
# 1 198.1755 4.9324 140.5781 0.0000 0.0000 0.0000
# 2 4.9324 21.3397 6.4382 0.0000 0.0000 0.0000
# 3 140.5781 6.4382 216.1093 0.0000 0.0000 0.0000
# 4 0.0000 0.0000 0.0000 -9.9823 0.0000 0.0000
# 5 0.0000 0.0000 0.0000 0.0000 19.4291 0.0000
# 6 0.0000 0.0000 0.0000 0.0000 0.0000 25.2006
#
#
#
# Elastic Compliance Matrix: (Units=1/GPa)
#
#
# Indices 1 2 3 4 5 6 
#
# 1 0.009372 -0.000330 -0.006086 0.000000 0.000000 0.000000
# 2 -0.000330 0.047298 -0.001194 0.000000 0.000000 0.000000
# 3 -0.006086 -0.001194 0.008622 0.000000 0.000000 0.000000
# 4 0.000000 0.000000 0.000000 -0.100177 0.000000 0.000000
# 5 0.000000 0.000000 0.000000 0.000000 0.051469 0.000000
# 6 0.000000 0.000000 0.000000 0.000000 0.000000 0.039682
#
#
# Mechanical properties :
#
#
# Convention : Reuss Voigt Hill
#
# Bulk Modulus (GPa) = 19.97210 82.16910 51.07060
# Shear Modulus (GPa) = 56.70423 25.84119 41.27271
#
# Velocity S-wave (km/s) = 5.29014 3.57121 4.51327
# Velocity P-wave (km/s) = 6.86812 7.58671 7.23634
#
# Compressibility (1/GPa) = 0.05006985
#
# Stress axis : x y z
#
# Youngs Moduli (GPa) = 106.70391 21.14270 115.98143
#
# Poissons Ratio (x) = 0.00697 0.70591
# Poissons Ratio (y) = 0.03520 0.13854
# Poissons Ratio (z) = 0.64945 0.02525
#
# Static dielectric constant tensor:
#      x y z
#    x 1.671180 0.000000 0.000000 
#    y 0.000000 1.742250 0.000000 
#    z 0.000000 0.000000 1.738300 
# 
# From -- ./inp_files/43564.got.cif
#   From: 2010.05.17/outbox.cif.g08.bks.cpg/sg65_22_cif.got.tgz:43564.got - 2010.06.03 17:01:31.
