data_PCOD9488778
_publ_section_title
;
Structure prediction by ZEFSAII (Michael W. Deem and Ramdas Pophale) SiO2 
 PCOD9488778
Probable space group: C M M M
;
_chemical_formula_sum "Si O2"
_cell_formula_units_Z 80
_cell_length_a 16.379033
_cell_length_b 30.200986
_cell_length_c 7.375367
_cell_angle_alpha 90.000000
_cell_angle_beta 90.000000
_cell_angle_gamma 90.000000
_cell_volume 3648.320770
_symmetry_space_group_name_H-M "C M M M"
_symmetry_group_IT_number 65
_symmetry_cell_setting 'orthorhombic'
loop_
_space_group_symop_operation_xyz
x,y,z
-x,-y,z
x,-y,-z
-x,y,-z
-x,-y,-z
x,y,-z
-x,y,z
x,-y,z
1/2+x,1/2+y,z
1/2-x,1/2-y,z
1/2+x,1/2-y,-z
1/2-x,1/2+y,-z
1/2-x,1/2-y,-z
1/2+x,1/2+y,-z
1/2-x,1/2+y,z
1/2+x,1/2-y,z
loop_
_atom_site_type_symbol
_atom_site_label
_atom_site_fract_x
_atom_site_fract_y
_atom_site_fract_z
Si Si1 0.000000 0.280225 0.711908
Si Si2 0.593298 0.639176 0.278933
Si Si3 0.860770 0.450402 0.218727
Si Si4 0.830317 0.048874 0.712908
Si Si5 0.000000 0.615902 0.219242
Si Si6 0.663161 0.268721 0.278346
O O1 0.084317 0.259448 0.783917
O O2 0.000000 0.267921 0.500000
O O3 0.000000 0.333130 0.726059
O O4 0.595290 0.638306 0.500000
O O5 0.500000 0.647468 0.225924
O O6 0.624033 0.591630 0.212492
O O7 0.648620 0.680489 0.223659
O O8 0.885947 0.500000 0.278332
O O9 0.766922 0.443927 0.272354
O O10 0.921000 0.411903 0.281376
O O11 0.863609 0.450527 0.000000
O O12 0.850938 0.046883 0.500000
O O13 0.848383 0.000000 0.789943
O O14 0.000000 0.615437 0.000000
O O15 0.664177 0.267331 0.500000
O O16 0.750000 0.250000 0.217280
#
# Coordination Sequence:
#
# PCOD9488778 Si02
#       6
#     8  16  16  16   8  16
#     4  10  20  33  51  77 101 124 166 212 247 290
#     4   9  16  28  46  68  98 132 163 197 240 294
#     4   9  18  34  53  70  94 132 171 199 231 290
#     4   9  18  30  47  75 104 125 154 203 255 292
#     4  10  21  34  50  72 100 131 163 201 247 294
#     4   9  17  29  46  70  98 128 164 205 244 286
#
# _framework density 21.927897000000002
#
# number of rings (size 3 to 8) (size 9 to 14) (size 15 to 20)
#    0.000    2.800    1.000    0.300    2.800    2.400 
#    0.000    2.000    0.000    5.400    0.000    2.800 
#    0.000    0.000    0.000    0.000    0.000    0.000 
#
# Total GULP energy -223363.734164 kJ/mol
# GULP energy per Si atom -5584.093354 kJ/mol
# Density = 2.187799 g / cm^3
# Si number density = 21.927897 Si / 1000 Ang^3
#
#
#
# Elastic Constant Matrix: (Units=GPa)
#
#
# Indices 1 2 3 4 5 6 
#
# 1 136.6912 110.0441 3.6959 0.0000 0.0000 0.0000
# 2 110.0441 195.7508 2.1784 0.0000 0.0000 0.0000
# 3 3.6959 2.1784 77.4404 0.0000 0.0000 0.0000
# 4 0.0000 0.0000 0.0000 -23.2921 0.0000 0.0000
# 5 0.0000 0.0000 0.0000 0.0000 7.4801 0.0000
# 6 0.0000 0.0000 0.0000 0.0000 0.0000 45.2327
#
#
#
# Elastic Compliance Matrix: (Units=1/GPa)
#
#
# Indices 1 2 3 4 5 6 
#
# 1 0.013378 -0.007516 -0.000427 0.000000 0.000000 0.000000
# 2 -0.007516 0.009333 0.000096 0.000000 0.000000 0.000000
# 3 -0.000427 0.000096 0.012931 0.000000 0.000000 0.000000
# 4 0.000000 0.000000 0.000000 -0.042933 0.000000 0.000000
# 5 0.000000 0.000000 0.000000 0.000000 0.133689 0.000000
# 6 0.000000 0.000000 0.000000 0.000000 0.000000 0.022108
#
#
# Mechanical properties :
#
#
# Convention : Reuss Voigt Hill
#
# Bulk Modulus (GPa) = 50.13049 71.30214 60.71632
# Shear Modulus (GPa) = 29.26576 25.48173 27.37375
#
# Velocity S-wave (km/s) = 3.65723 3.41261 3.53704
# Velocity P-wave (km/s) = 6.38318 6.93651 6.66558
#
# Compressibility (1/GPa) = 0.01994794
#
# Stress axis : x y z
#
# Youngs Moduli (GPa) = 74.74947 107.15092 77.33453
#
# Poissons Ratio (x) = 0.80533 0.03303
# Poissons Ratio (y) = 0.56181 -0.00744
# Poissons Ratio (z) = 0.03192 -0.01031
#
# Static dielectric constant tensor:
#      x y z
#    x 1.750900 0.000000 0.000000 
#    y 0.000000 1.776230 0.000000 
#    z 0.000000 0.000000 1.836590 
# 
# From -- ./inp_files/26669.got.cif
#   From: 2010.05.17/outbox.cif.g08.bks.cpg/sg65_14_cif.got.tgz:26669.got - 2010.06.03 17:01:31.
