data_PCOD9488230
_publ_section_title
;
Structure prediction by ZEFSAII (Michael W. Deem and Ramdas Pophale) SiO2 
 PCOD9488230
Probable space group: C M M M
;
_chemical_formula_sum "Si O2"
_cell_formula_units_Z 72
_cell_length_a 14.829192
_cell_length_b 23.327496
_cell_length_c 9.886605
_cell_angle_alpha 90.000000
_cell_angle_beta 90.000000
_cell_angle_gamma 90.000000
_cell_volume 3420.052674
_symmetry_space_group_name_H-M "C M M M"
_symmetry_group_IT_number 65
_symmetry_cell_setting 'orthorhombic'
loop_
_space_group_symop_operation_xyz
x,y,z
-x,-y,z
x,-y,-z
-x,y,-z
-x,-y,-z
x,y,-z
-x,y,z
x,-y,z
1/2+x,1/2+y,z
1/2-x,1/2-y,z
1/2+x,1/2-y,-z
1/2-x,1/2+y,-z
1/2-x,1/2-y,-z
1/2+x,1/2+y,-z
1/2-x,1/2+y,z
1/2+x,1/2-y,z
loop_
_atom_site_type_symbol
_atom_site_label
_atom_site_fract_x
_atom_site_fract_y
_atom_site_fract_z
Si Si1 0.894502 0.664143 0.650933
Si Si2 0.610631 0.500000 0.655208
Si Si3 0.145399 0.234755 0.848114
Si Si4 0.108940 0.102701 0.846536
Si Si5 0.610266 0.065281 0.154453
O O1 0.855152 0.668890 0.500000
O O2 0.891514 0.722792 0.735098
O O3 0.854947 0.613114 0.742674
O O4 0.000000 0.649966 0.636344
O O5 0.500000 0.500000 0.653645
O O6 0.640861 0.500000 0.500000
O O7 0.640017 0.555950 0.738842
O O8 0.250000 0.250000 0.855392
O O9 0.133633 0.168109 0.814340
O O10 0.106829 0.244153 0.000000
O O11 0.000000 0.100014 0.848538
O O12 0.139984 0.089593 0.000000
O O13 0.500000 0.066276 0.155248
O O14 0.636812 0.000000 0.187353
O O15 0.637124 0.078588 0.000000
#
# Coordination Sequence:
#
# PCOD9488230 Si02
#       5
#    16   8  16  16  16
#     4  10  20  32  49  75 104 134 169 210 258 311
#     4   9  17  29  49  79 109 133 162 207 260 313
#     4  10  21  36  54  75 102 137 178 218 258 306
#     4   9  17  31  53  79 105 134 169 212 261 310
#     4   8  14  26  46  71  97 126 162 206 252 293
#
# _framework density 21.052306999999999
#
# number of rings (size 3 to 8) (size 9 to 14) (size 15 to 20)
#    0.000    2.778    0.000    2.333    0.000    5.333 
#    0.000    4.444    2.444    0.000    0.000    0.000 
#    0.000    0.000    0.000    0.000    0.000    0.000 
#
# Total GULP energy -200964.305286 kJ/mol
# GULP energy per Si atom -5582.341813 kJ/mol
# Density = 2.100439 g / cm^3
# Si number density = 21.052307 Si / 1000 Ang^3
#
#
#
# Elastic Constant Matrix: (Units=GPa)
#
#
# Indices 1 2 3 4 5 6 
#
# 1 38.0336 4.5876 5.6839 0.0000 0.0000 0.0000
# 2 4.5876 181.0144 164.4322 0.0000 0.0000 0.0000
# 3 5.6839 164.4322 202.6414 0.0000 0.0000 0.0000
# 4 0.0000 0.0000 0.0000 17.2699 0.0000 0.0000
# 5 0.0000 0.0000 0.0000 0.0000 1.1975 0.0000
# 6 0.0000 0.0000 0.0000 0.0000 0.0000 6.3363
#
#
#
# Elastic Compliance Matrix: (Units=1/GPa)
#
#
# Indices 1 2 3 4 5 6 
#
# 1 0.026403 0.000014 -0.000752 0.000000 0.000000 0.000000
# 2 0.000014 0.021014 -0.017052 0.000000 0.000000 0.000000
# 3 -0.000752 -0.017052 0.018793 0.000000 0.000000 0.000000
# 4 0.000000 0.000000 0.000000 0.057904 0.000000 0.000000
# 5 0.000000 0.000000 0.000000 0.000000 0.835055 0.000000
# 6 0.000000 0.000000 0.000000 0.000000 0.000000 0.157820
#
#
# Mechanical properties :
#
#
# Convention : Reuss Voigt Hill
#
# Bulk Modulus (GPa) = 32.64795 85.67744 59.16270
# Shear Modulus (GPa) = 4.30004 21.42645 12.86325
#
# Velocity S-wave (km/s) = 1.43073 3.19372 2.47455
# Velocity P-wave (km/s) = 4.27446 7.37465 6.02729
#
# Compressibility (1/GPa) = 0.03062979
#
# Stress axis : x y z
#
# Youngs Moduli (GPa) = 37.87412 47.58672 53.21161
#
# Poissons Ratio (x) = -0.00065 0.04000
# Poissons Ratio (y) = -0.00052 0.90738
# Poissons Ratio (z) = 0.02847 0.81146
#
# Static dielectric constant tensor:
#      x y z
#    x 2.187150 0.000000 0.000000 
#    y 0.000000 1.721240 0.000000 
#    z 0.000000 0.000000 1.761890 
# 
# From -- ./inp_files/11210.got.cif
#   From: 2010.05.17/outbox.cif.g08.bks.cpg/sg65_6_cif.got.tgz:11210.got - 2010.06.03 17:01:31.
