data_PCOD9488999
_publ_section_title
;
Structure prediction by ZEFSAII (Michael W. Deem and Ramdas Pophale) SiO2 
 PCOD9488999
Probable space group: C M M M
;
_chemical_formula_sum "Si O2"
_cell_formula_units_Z 88
_cell_length_a 14.166610
_cell_length_b 19.032961
_cell_length_c 17.406102
_cell_angle_alpha 90.000000
_cell_angle_beta 90.000000
_cell_angle_gamma 90.000000
_cell_volume 4693.251418
_symmetry_space_group_name_H-M "C M M M"
_symmetry_group_IT_number 65
_symmetry_cell_setting 'orthorhombic'
loop_
_space_group_symop_operation_xyz
x,y,z
-x,-y,z
x,-y,-z
-x,y,-z
-x,-y,-z
x,y,-z
-x,y,z
x,-y,z
1/2+x,1/2+y,z
1/2-x,1/2-y,z
1/2+x,1/2-y,-z
1/2-x,1/2+y,-z
1/2-x,1/2-y,-z
1/2+x,1/2+y,-z
1/2-x,1/2+y,z
1/2+x,1/2-y,z
loop_
_atom_site_type_symbol
_atom_site_label
_atom_site_fract_x
_atom_site_fract_y
_atom_site_fract_z
Si Si1 0.893499 0.395354 0.500000
Si Si2 0.139282 0.766831 0.500000
Si Si3 0.115368 0.653955 0.913051
Si Si4 0.613651 0.209158 0.245338
Si Si5 0.108294 0.846087 0.341070
Si Si6 0.606632 0.000000 0.906768
Si Si7 0.201946 0.578197 0.336563
O O1 0.901912 0.310947 0.500000
O O2 0.837974 0.416691 0.423318
O O3 0.000000 0.423181 0.500000
O O4 0.250000 0.750000 0.500000
O O5 0.112728 0.810546 0.425032
O O6 0.140664 0.705316 0.844161
O O7 0.150080 0.575633 0.889327
O O8 0.000000 0.649830 0.915582
O O9 0.146144 0.670631 0.000000
O O10 0.500000 0.203703 0.251006
O O11 0.638874 0.282787 0.284309
O O12 0.654936 0.142045 0.289846
O O13 0.186211 0.906465 0.337210
O O14 0.000000 0.866672 0.324771
O O15 0.500000 0.000000 0.874395
O O16 0.599257 0.000000 0.000000
O O17 0.180842 0.500000 0.306280
#
# Coordination Sequence:
#
# PCOD9488999 Si02
#       7
#     8   8  16  16  16   8  16
#     4  12  23  38  57  82 114 145 174 205 262 329
#     4  12  18  35  62  82 107 138 178 223 259 315
#     4   8  14  25  43  71 107 143 175 207 253 317
#     4  10  20  33  54  82 111 143 176 215 265 325
#     4  11  22  39  60  78 100 139 190 233 266 304
#     4   7  10  18  34  58  94 137 168 192 231 295
#     4  12  25  38  54  79 111 144 178 223 270 315
#
# _framework density 18.750328
#
# number of rings (size 3 to 8) (size 9 to 14) (size 15 to 20)
#    0.000    1.727    3.636    3.273    1.273    2.182 
#    0.000    0.000    0.000    4.364    0.000    0.000 
#    0.000    0.000    0.000    8.727    0.000    0.000 
#
# Total GULP energy -245513.220006 kJ/mol
# GULP energy per Si atom -5579.845909 kJ/mol
# Density = 1.870765 g / cm^3
# Si number density = 18.750328 Si / 1000 Ang^3
#
#
#
# Elastic Constant Matrix: (Units=GPa)
#
#
# Indices 1 2 3 4 5 6 
#
# 1 82.8602 20.9112 6.9589 0.0000 0.0000 0.0000
# 2 20.9112 51.9383 16.7002 0.0000 0.0000 0.0000
# 3 6.9589 16.7002 106.4347 0.0000 0.0000 0.0000
# 4 0.0000 0.0000 0.0000 -19.5481 0.0000 0.0000
# 5 0.0000 0.0000 0.0000 0.0000 -5.9202 0.0000
# 6 0.0000 0.0000 0.0000 0.0000 0.0000 -9.5825
#
#
#
# Elastic Compliance Matrix: (Units=1/GPa)
#
#
# Indices 1 2 3 4 5 6 
#
# 1 0.013434 -0.005399 -0.000031 0.000000 0.000000 0.000000
# 2 -0.005399 0.022446 -0.003169 0.000000 0.000000 0.000000
# 3 -0.000031 -0.003169 0.009895 0.000000 0.000000 0.000000
# 4 0.000000 0.000000 0.000000 -0.051156 0.000000 0.000000
# 5 0.000000 0.000000 0.000000 0.000000 -0.168913 0.000000
# 6 0.000000 0.000000 0.000000 0.000000 0.000000 -0.104357
#
#
# Mechanical properties :
#
#
# Convention : Reuss Voigt Hill
#
# Bulk Modulus (GPa) = 34.99329 36.70820 35.85075
# Shear Modulus (GPa) = -19.84691 6.10069 -6.87311
#
# Velocity S-wave (km/s) = -3.25696 1.80574 -1.91665
# Velocity P-wave (km/s) = 2.13531 4.89566 3.77671
#
# Compressibility (1/GPa) = 0.02857690
#
# Stress axis : x y z
#
# Youngs Moduli (GPa) = 74.44046 44.55121 101.06420
#
# Poissons Ratio (x) = 0.24051 0.00316
# Poissons Ratio (y) = 0.40187 0.32027
# Poissons Ratio (z) = 0.00233 0.14118
#
# Static dielectric constant tensor:
#      x y z
#    x 1.708390 0.000000 0.000000 
#    y 0.000000 1.649400 0.000000 
#    z 0.000000 0.000000 1.658400 
# 
# From -- ./inp_files/53082.got.cif
#   From: 2010.05.17/outbox.cif.g08.bks.cpg/sg65_27_cif.got.tgz:53082.got - 2010.06.03 17:01:31.
