data_PCOD9488196
_publ_section_title
;
Structure prediction by ZEFSAII (Michael W. Deem and Ramdas Pophale) SiO2 
 PCOD9488196
Probable space group: C M M M
;
_chemical_formula_sum "Si O2"
_cell_formula_units_Z 96
_cell_length_a 9.115568
_cell_length_b 19.569456
_cell_length_c 31.008084
_cell_angle_alpha 90.000000
_cell_angle_beta 90.000000
_cell_angle_gamma 90.000000
_cell_volume 5531.429992
_symmetry_space_group_name_H-M "C M M M"
_symmetry_group_IT_number 65
_symmetry_cell_setting 'orthorhombic'
loop_
_space_group_symop_operation_xyz
x,y,z
-x,-y,z
x,-y,-z
-x,y,-z
-x,-y,-z
x,y,-z
-x,y,z
x,-y,z
1/2+x,1/2+y,z
1/2-x,1/2-y,z
1/2+x,1/2-y,-z
1/2-x,1/2+y,-z
1/2-x,1/2-y,-z
1/2+x,1/2+y,-z
1/2-x,1/2+y,z
1/2+x,1/2-y,z
loop_
_atom_site_type_symbol
_atom_site_label
_atom_site_fract_x
_atom_site_fract_y
_atom_site_fract_z
Si Si1 0.824608 0.322058 0.804314
Si Si2 0.175757 0.323021 0.295428
Si Si3 0.673708 0.321852 0.051187
Si Si4 0.676715 0.920429 0.118020
Si Si5 0.327060 0.581858 0.364679
Si Si6 0.170704 0.417037 0.452066
O O1 0.750000 0.250000 0.815227
O O2 0.788565 0.339465 0.754662
O O3 0.782792 0.380337 0.838190
O O4 0.000000 0.313129 0.806677
O O5 0.250000 0.250000 0.304927
O O6 0.239799 0.378971 0.327639
O O7 0.000000 0.318279 0.299569
O O8 0.500000 0.317366 0.059277
O O9 0.750000 0.250000 0.062797
O O10 0.745656 0.381625 0.078890
O O11 0.696172 0.332751 0.000000
O O12 0.500000 0.915649 0.113031
O O13 0.716089 0.000000 0.120013
O O14 0.500000 0.595317 0.361144
O O15 0.304293 0.500000 0.361221
O O16 0.267457 0.604625 0.411582
O O17 0.217690 0.393990 0.500000
O O18 0.175203 0.500000 0.452705
O O19 0.000000 0.397874 0.445804
#
# Coordination Sequence:
#
# PCOD9488196 Si02
#       6
#    16  16  16  16  16  16
#     4   9  19  35  55  77 100 131 171 213 255 303
#     4  10  20  35  55  76 101 134 171 211 256 307
#     4  10  21  37  57  80 106 138 178 220 259 304
#     4  10  21  36  54  79 111 142 172 210 258 309
#     4  10  20  32  48  74 106 136 169 211 256 302
#     4   8  14  26  45  69  97 130 169 210 251 299
#
# _framework density 17.355367000000001
#
# number of rings (size 3 to 8) (size 9 to 14) (size 15 to 20)
#    0.000    2.500    0.000    2.500    0.000    6.333 
#    0.000    5.000    0.000    0.500    0.000    0.000 
#    0.000    0.000    0.000    0.000    0.000    0.000 
#
# Total GULP energy -267761.277789 kJ/mol
# GULP energy per Si atom -5578.359954 kJ/mol
# Density = 1.731587 g / cm^3
# Si number density = 17.355367 Si / 1000 Ang^3
#
#
#
# Elastic Constant Matrix: (Units=GPa)
#
#
# Indices 1 2 3 4 5 6 
#
# 1 66.8105 60.4763 66.6696 0.0000 0.0000 0.0000
# 2 60.4763 104.4828 85.3597 0.0000 0.0000 0.0000
# 3 66.6696 85.3597 110.6886 0.0000 0.0000 0.0000
# 4 0.0000 0.0000 0.0000 33.2767 0.0000 0.0000
# 5 0.0000 0.0000 0.0000 0.0000 20.3171 0.0000
# 6 0.0000 0.0000 0.0000 0.0000 0.0000 28.3807
#
#
#
# Elastic Compliance Matrix: (Units=1/GPa)
#
#
# Indices 1 2 3 4 5 6 
#
# 1 0.040767 -0.009558 -0.017184 0.000000 0.000000 0.000000
# 2 -0.009558 0.028110 -0.015921 0.000000 0.000000 0.000000
# 3 -0.017184 -0.015921 0.031662 0.000000 0.000000 0.000000
# 4 0.000000 0.000000 0.000000 0.030051 0.000000 0.000000
# 5 0.000000 0.000000 0.000000 0.000000 0.049220 0.000000
# 6 0.000000 0.000000 0.000000 0.000000 0.000000 0.035235
#
#
# Mechanical properties :
#
#
# Convention : Reuss Voigt Hill
#
# Bulk Modulus (GPa) = 65.72827 78.55478 72.14152
# Shear Modulus (GPa) = 16.36973 21.02666 18.69819
#
# Velocity S-wave (km/s) = 3.07450 3.48449 3.28590
# Velocity P-wave (km/s) = 7.11039 7.84536 7.48690
#
# Compressibility (1/GPa) = 0.01521415
#
# Stress axis : x y z
#
# Youngs Moduli (GPa) = 24.52961 35.57457 31.58328
#
# Poissons Ratio (x) = 0.34001 0.54273
# Poissons Ratio (y) = 0.23444 0.50283
# Poissons Ratio (z) = 0.42152 0.56638
#
# Static dielectric constant tensor:
#      x y z
#    x 1.576300 0.000000 0.000000 
#    y 0.000000 1.559600 0.000000 
#    z 0.000000 0.000000 1.595650 
# 
# From -- ./inp_files/73090.got.cif
#   From: 2010.05.17/outbox.cif.g08.bks.cpg/sg65_37_cif.got.tgz:73090.got - 2010.06.03 17:01:31.
