data_PCOD9488087
_publ_section_title
;
Structure prediction by ZEFSAII (Michael W. Deem and Ramdas Pophale) SiO2 
 PCOD9488087
Probable space group: C M M M
;
_chemical_formula_sum "Si O2"
_cell_formula_units_Z 112
_cell_length_a 19.046445
_cell_length_b 7.516621
_cell_length_c 37.452813
_cell_angle_alpha 90.000000
_cell_angle_beta 90.000000
_cell_angle_gamma 90.000000
_cell_volume 5361.928545
_symmetry_space_group_name_H-M "C M M M"
_symmetry_group_IT_number 65
_symmetry_cell_setting 'orthorhombic'
loop_
_space_group_symop_operation_xyz
x,y,z
-x,-y,z
x,-y,-z
-x,y,-z
-x,-y,-z
x,y,-z
-x,y,z
x,-y,z
1/2+x,1/2+y,z
1/2-x,1/2-y,z
1/2+x,1/2-y,-z
1/2-x,1/2+y,-z
1/2-x,1/2-y,-z
1/2+x,1/2+y,-z
1/2-x,1/2+y,z
1/2+x,1/2-y,z
loop_
_atom_site_type_symbol
_atom_site_label
_atom_site_fract_x
_atom_site_fract_y
_atom_site_fract_z
Si Si1 0.581226 0.283058 0.459978
Si Si2 0.919716 0.713117 0.244351
Si Si3 0.581005 0.217957 0.107866
Si Si4 0.332463 0.786727 0.176902
Si Si5 0.167825 0.786637 0.392027
Si Si6 0.831447 0.286789 0.040117
Si Si7 0.580117 0.286703 0.675360
O O1 0.601708 0.225734 0.500000
O O2 0.500000 0.232343 0.453801
O O3 0.582682 0.500000 0.460064
O O4 0.630423 0.219759 0.428043
O O5 0.923321 0.500000 0.240759
O O6 0.869601 0.780999 0.213008
O O7 0.894440 0.749412 0.284534
O O8 0.000000 0.781216 0.241061
O O9 0.500000 0.272202 0.110448
O O10 0.626315 0.277830 0.141877
O O11 0.617835 0.278593 0.071291
O O12 0.581839 0.000000 0.107746
O O13 0.250000 0.750000 0.175574
O O14 0.340053 0.000000 0.176939
O O15 0.250000 0.750000 0.391550
O O16 0.128896 0.718844 0.356467
O O17 0.159178 0.000000 0.392226
O O18 0.839469 0.500000 0.038785
O O19 0.750000 0.250000 0.048822
O O20 0.845196 0.217779 0.000000
O O21 0.500000 0.218702 0.672290
O O22 0.576820 0.500000 0.672017
#
# Coordination Sequence:
#
# PCOD9488087 Si02
#       7
#    16  16  16  16  16  16  16
#     4   8  14  27  49  73  93 118 157 199 232 267
#     4   9  18  33  52  72  93 119 154 194 234 277
#     4   9  17  30  49  71  94 122 158 198 235 272
#     4  10  20  33  50  71  95 124 156 191 233 280
#     4  10  20  32  47  70  99 127 155 190 232 277
#     4   9  17  29  47  71  97 125 156 191 232 278
#     4   9  18  33  52  71  92 122 159 196 232 271
#
# _framework density 20.888007000000002
#
# number of rings (size 3 to 8) (size 9 to 14) (size 15 to 20)
#    0.000    2.857    0.000    1.714    0.000    5.714 
#    0.000    4.286    0.000    3.857    0.000    3.000 
#    0.000    0.000    0.000    0.000    0.000    0.000 
#
# Total GULP energy -312607.511913 kJ/mol
# GULP energy per Si atom -5582.276998 kJ/mol
# Density = 2.084046 g / cm^3
# Si number density = 20.888007 Si / 1000 Ang^3
#
#
#
# Elastic Constant Matrix: (Units=GPa)
#
#
# Indices 1 2 3 4 5 6 
#
# 1 160.0004 -0.2400 155.4751 0.0000 0.0000 0.0000
# 2 -0.2400 54.6651 6.9319 0.0000 0.0000 0.0000
# 3 155.4751 6.9319 232.3184 0.0000 0.0000 0.0000
# 4 0.0000 0.0000 0.0000 7.1040 0.0000 0.0000
# 5 0.0000 0.0000 0.0000 0.0000 42.6520 0.0000
# 6 0.0000 0.0000 0.0000 0.0000 0.0000 21.6560
#
#
#
# Elastic Compliance Matrix: (Units=1/GPa)
#
#
# Indices 1 2 3 4 5 6 
#
# 1 0.018013 0.001614 -0.012103 0.000000 0.000000 0.000000
# 2 0.001614 0.018507 -0.001632 0.000000 0.000000 0.000000
# 3 -0.012103 -0.001632 0.012453 0.000000 0.000000 0.000000
# 4 0.000000 0.000000 0.000000 0.140765 0.000000 0.000000
# 5 0.000000 0.000000 0.000000 0.000000 0.023446 0.000000
# 6 0.000000 0.000000 0.000000 0.000000 0.000000 0.046177
#
#
# Mechanical properties :
#
#
# Convention : Reuss Voigt Hill
#
# Bulk Modulus (GPa) = 40.43620 85.70199 63.06909
# Shear Modulus (GPa) = 17.13222 33.27021 25.20122
#
# Velocity S-wave (km/s) = 2.86701 3.99531 3.47723
# Velocity P-wave (km/s) = 5.51001 7.89947 6.81036
#
# Compressibility (1/GPa) = 0.02473031
#
# Stress axis : x y z
#
# Youngs Moduli (GPa) = 55.51426 54.03281 80.30148
#
# Poissons Ratio (x) = -0.08720 0.97191
# Poissons Ratio (y) = -0.08959 0.13107
# Poissons Ratio (z) = 0.67191 0.08820
#
# Static dielectric constant tensor:
#      x y z
#    x 1.697530 0.000000 0.000000 
#    y 0.000000 1.833200 0.000000 
#    z 0.000000 0.000000 1.744700 
# 
# From -- ./inp_files/77662.got.cif
#   From: 2010.05.17/outbox.cif.g08.bks.cpg/sg65_39_cif.got.tgz:77662.got - 2010.06.03 17:01:31.
