data_PCOD9488428
_publ_section_title
;
Structure prediction by ZEFSAII (Michael W. Deem and Ramdas Pophale) SiO2 
 PCOD9488428
Probable space group: C M M M
;
_chemical_formula_sum "Si O2"
_cell_formula_units_Z 112
_cell_length_a 18.851763
_cell_length_b 9.725035
_cell_length_c 37.372668
_cell_angle_alpha 90.000000
_cell_angle_beta 90.000000
_cell_angle_gamma 90.000000
_cell_volume 6851.682770
_symmetry_space_group_name_H-M "C M M M"
_symmetry_group_IT_number 65
_symmetry_cell_setting 'orthorhombic'
loop_
_space_group_symop_operation_xyz
x,y,z
-x,-y,z
x,-y,-z
-x,y,-z
-x,-y,-z
x,y,-z
-x,y,z
x,-y,z
1/2+x,1/2+y,z
1/2-x,1/2-y,z
1/2+x,1/2-y,-z
1/2-x,1/2+y,-z
1/2-x,1/2-y,-z
1/2+x,1/2+y,-z
1/2-x,1/2+y,z
1/2+x,1/2-y,z
loop_
_atom_site_type_symbol
_atom_site_label
_atom_site_fract_x
_atom_site_fract_y
_atom_site_fract_z
Si Si1 0.413488 0.841548 0.893768
Si Si2 0.418495 0.832767 0.814433
Si Si3 0.822235 0.334706 0.747076
Si Si4 0.916041 0.837591 0.608307
Si Si5 0.678288 0.663563 0.459772
Si Si6 0.416558 0.162702 0.677170
Si Si7 0.413643 0.659698 0.960154
O O1 0.500000 0.841352 0.893801
O O2 0.393831 0.789366 0.854111
O O3 0.388685 0.750791 0.927020
O O4 0.391083 0.000000 0.897909
O O5 0.500000 0.787274 0.808442
O O6 0.367204 0.793962 0.782224
O O7 0.420470 0.000000 0.815411
O O8 0.809472 0.500000 0.748621
O O9 0.750000 0.250000 0.745370
O O10 0.869975 0.307781 0.712039
O O11 0.874686 0.800487 0.572217
O O12 0.893656 0.749865 0.642726
O O13 0.000000 0.815522 0.603163
O O14 0.904953 0.000000 0.615178
O O15 0.649517 0.688567 0.500000
O O16 0.693253 0.500000 0.457275
O O17 0.750000 0.750000 0.456101
O O18 0.500000 0.191871 0.684273
O O19 0.410750 0.000000 0.669444
O O20 0.500000 0.664356 0.959817
O O21 0.393783 0.500000 0.955881
O O22 0.391467 0.706317 0.000000
#
# Coordination Sequence:
#
# PCOD9488428 Si02
#       7
#    16  16  16  16  16  16  16
#     4   8  13  21  35  55  75  98 135 179 214 246
#     4   8  14  27  47  66  84 112 150 186 219 259
#     4  10  20  33  49  69  93 119 148 184 224 267
#     4   9  18  32  50  72  96 121 150 188 232 271
#     4   9  18  32  49  69  94 125 159 192 227 270
#     4   9  18  33  52  71  91 120 157 190 221 264
#     4   8  13  20  29  44  72 109 140 165 202 254
#
# _framework density 16.346350000000001
#
# number of rings (size 3 to 8) (size 9 to 14) (size 15 to 20)
#    0.000    3.286    0.000    1.714    0.000    4.000 
#    0.000    6.429    0.000    2.143    0.000    4.000 
#    0.000    0.571    0.000    1.286    0.000    3.429 
#
# Total GULP energy -311738.696577 kJ/mol
# GULP energy per Si atom -5566.762439 kJ/mol
# Density = 1.630915 g / cm^3
# Si number density = 16.346350 Si / 1000 Ang^3
#
#
#
# Elastic Constant Matrix: (Units=GPa)
#
#
# Indices 1 2 3 4 5 6 
#
# 1 48.7007 34.0254 71.0602 0.0000 0.0000 0.0000
# 2 34.0254 38.3668 75.1276 0.0000 0.0000 0.0000
# 3 71.0602 75.1276 198.4530 0.0000 0.0000 0.0000
# 4 0.0000 0.0000 0.0000 23.4126 0.0000 0.0000
# 5 0.0000 0.0000 0.0000 0.0000 -5.0638 0.0000
# 6 0.0000 0.0000 0.0000 0.0000 0.0000 19.6760
#
#
#
# Elastic Compliance Matrix: (Units=1/GPa)
#
#
# Indices 1 2 3 4 5 6 
#
# 1 0.055119 -0.039562 -0.004760 0.000000 0.000000 0.000000
# 2 -0.039562 0.129140 -0.034722 0.000000 0.000000 0.000000
# 3 -0.004760 -0.034722 0.019888 0.000000 0.000000 0.000000
# 4 0.000000 0.000000 0.000000 0.042712 0.000000 0.000000
# 5 0.000000 0.000000 0.000000 0.000000 -0.197481 0.000000
# 6 0.000000 0.000000 0.000000 0.000000 0.000000 0.050823
#
#
# Mechanical properties :
#
#
# Convention : Reuss Voigt Hill
#
# Bulk Modulus (GPa) = 21.71090 71.77190 46.74140
# Shear Modulus (GPa) = 18.27207 14.62546 16.44876
#
# Velocity S-wave (km/s) = 3.34699 2.99444 3.17561
# Velocity P-wave (km/s) = 5.31480 7.48050 6.48864
#
# Compressibility (1/GPa) = 0.04605982
#
# Stress axis : x y z
#
# Youngs Moduli (GPa) = 18.14259 7.74352 50.28155
#
# Poissons Ratio (x) = 0.30635 0.23933
# Poissons Ratio (y) = 0.71775 1.74589
# Poissons Ratio (z) = 0.08636 0.26887
#
# Static dielectric constant tensor:
#      x y z
#    x 1.526530 0.000000 0.000000 
#    y 0.000000 1.541930 0.000000 
#    z 0.000000 0.000000 1.560510 
# 
# From -- ./inp_files/77698.got.cif
#   From: 2010.05.17/outbox.cif.g08.bks.cpg/sg65_39_cif.got.tgz:77698.got - 2010.06.03 17:01:31.
