data_PCOD9488394
_publ_section_title
;
Structure prediction by ZEFSAII (Michael W. Deem and Ramdas Pophale) SiO2 
 PCOD9488394
Probable space group: C M M M
;
_chemical_formula_sum "Si O2"
_cell_formula_units_Z 104
_cell_length_a 8.714398
_cell_length_b 27.784124
_cell_length_c 27.297102
_cell_angle_alpha 90.000000
_cell_angle_beta 90.000000
_cell_angle_gamma 90.000000
_cell_volume 6609.226600
_symmetry_space_group_name_H-M "C M M M"
_symmetry_group_IT_number 65
_symmetry_cell_setting 'orthorhombic'
loop_
_space_group_symop_operation_xyz
x,y,z
-x,-y,z
x,-y,-z
-x,y,-z
-x,-y,-z
x,y,-z
-x,y,z
x,-y,z
1/2+x,1/2+y,z
1/2-x,1/2-y,z
1/2+x,1/2-y,-z
1/2-x,1/2+y,-z
1/2-x,1/2-y,-z
1/2+x,1/2+y,-z
1/2-x,1/2+y,z
1/2+x,1/2-y,z
loop_
_atom_site_type_symbol
_atom_site_label
_atom_site_fract_x
_atom_site_fract_y
_atom_site_fract_z
Si Si1 0.816003 0.195684 0.446370
Si Si2 0.184304 0.146707 0.750278
Si Si3 0.816978 0.695803 0.345441
Si Si4 0.184762 0.099289 0.099847
Si Si5 0.816197 0.555246 0.198152
Si Si6 0.816061 0.801958 0.850942
Si Si7 0.184076 0.443304 0.000000
O O1 0.779754 0.173880 0.500000
O O2 0.750000 0.250000 0.447795
O O3 0.743771 0.174526 0.397071
O O4 0.000000 0.197680 0.441467
O O5 0.258597 0.165610 0.700647
O O6 0.240504 0.093765 0.765514
O O7 0.229992 0.180950 0.796189
O O8 0.000000 0.147588 0.746556
O O9 0.500000 0.801435 0.346288
O O10 0.750000 0.750000 0.340817
O O11 0.252501 0.067612 0.144145
O O12 0.228410 0.154490 0.112864
O O13 0.248675 0.081377 0.048440
O O14 0.000000 0.095993 0.100758
O O15 0.780672 0.500000 0.210412
O O16 0.000000 0.561393 0.198176
O O17 0.750000 0.750000 0.862901
O O18 0.000000 0.799086 0.851384
O O19 0.224154 0.500000 0.000000
O O20 0.000000 0.439352 0.000000
#
# Coordination Sequence:
#
# PCOD9488394 Si02
#       7
#    16  16  16  16  16  16   8
#     4   9  16  26  40  58  83 118 159 199 238 281
#     4  10  20  33  48  69  96 125 161 199 235 280
#     4  11  20  29  43  64  93 127 162 200 241 282
#     4  10  21  36  53  75 100 126 158 191 228 279
#     4  10  20  34  52  74  99 125 154 190 234 283
#     4   9  19  33  50  71  94 123 157 192 227 269
#     4  11  23  37  54  77 100 121 152 195 240 283
#
# _framework density 15.735578
#
# number of rings (size 3 to 8) (size 9 to 14) (size 15 to 20)
#    0.000    2.077    0.000    6.231    0.000    9.538 
#    0.000    0.385    0.000    0.000    0.000    0.000 
#    0.000    0.615    0.000    6.462    0.000    2.769 
#
# Total GULP energy -290087.273573 kJ/mol
# GULP energy per Si atom -5578.601415 kJ/mol
# Density = 1.569976 g / cm^3
# Si number density = 15.735578 Si / 1000 Ang^3
#
#
#
# Elastic Constant Matrix: (Units=GPa)
#
#
# Indices 1 2 3 4 5 6 
#
# 1 77.6455 38.3108 54.2188 0.0000 0.0000 0.0000
# 2 38.3108 87.7450 58.9933 0.0000 0.0000 0.0000
# 3 54.2188 58.9933 152.4016 0.0000 0.0000 0.0000
# 4 0.0000 0.0000 0.0000 16.6013 0.0000 0.0000
# 5 0.0000 0.0000 0.0000 0.0000 23.8798 0.0000
# 6 0.0000 0.0000 0.0000 0.0000 0.0000 25.1334
#
#
#
# Elastic Compliance Matrix: (Units=1/GPa)
#
#
# Indices 1 2 3 4 5 6 
#
# 1 0.018610 -0.004967 -0.004698 0.000000 0.000000 0.000000
# 2 -0.004967 0.016732 -0.004710 0.000000 0.000000 0.000000
# 3 -0.004698 -0.004710 0.010056 0.000000 0.000000 0.000000
# 4 0.000000 0.000000 0.000000 0.060236 0.000000 0.000000
# 5 0.000000 0.000000 0.000000 0.000000 0.041876 0.000000
# 6 0.000000 0.000000 0.000000 0.000000 0.000000 0.039788
#
#
# Mechanical properties :
#
#
# Convention : Reuss Voigt Hill
#
# Bulk Modulus (GPa) = 60.06463 68.98197 64.52330
# Shear Modulus (GPa) = 22.56342 24.20753 23.38547
#
# Velocity S-wave (km/s) = 3.79081 3.92649 3.85925
# Velocity P-wave (km/s) = 7.57723 8.03056 7.80718
#
# Compressibility (1/GPa) = 0.01664873
#
# Stress axis : x y z
#
# Youngs Moduli (GPa) = 53.73327 59.76685 99.44156
#
# Poissons Ratio (x) = 0.29685 0.46721
# Poissons Ratio (y) = 0.26688 0.46834
# Poissons Ratio (z) = 0.25245 0.28148
#
# Static dielectric constant tensor:
#      x y z
#    x 1.525660 0.000000 0.000000 
#    y 0.000000 1.508590 0.000000 
#    z 0.000000 0.000000 1.536100 
# 
# From -- ./inp_files/73808.got.cif
#   From: 2010.05.17/outbox.cif.g08.bks.cpg/sg65_37_cif.got.tgz:73808.got - 2010.06.03 17:01:31.
