data_PCOD9488838
_publ_section_title
;
Structure prediction by ZEFSAII (Michael W. Deem and Ramdas Pophale) SiO2 
 PCOD9488838
Probable space group: C M M M
;
_chemical_formula_sum "Si O2"
_cell_formula_units_Z 80
_cell_length_a 18.049533
_cell_length_b 31.834780
_cell_length_c 7.797860
_cell_angle_alpha 90.000000
_cell_angle_beta 90.000000
_cell_angle_gamma 90.000000
_cell_volume 4480.673065
_symmetry_space_group_name_H-M "C M M M"
_symmetry_group_IT_number 65
_symmetry_cell_setting 'orthorhombic'
loop_
_space_group_symop_operation_xyz
x,y,z
-x,-y,z
x,-y,-z
-x,y,-z
-x,-y,-z
x,y,-z
-x,y,z
x,-y,z
1/2+x,1/2+y,z
1/2-x,1/2-y,z
1/2+x,1/2-y,-z
1/2-x,1/2+y,-z
1/2-x,1/2-y,-z
1/2+x,1/2+y,-z
1/2-x,1/2+y,z
1/2+x,1/2-y,z
loop_
_atom_site_type_symbol
_atom_site_label
_atom_site_fract_x
_atom_site_fract_y
_atom_site_fract_z
Si Si1 0.728172 0.453320 0.206313
Si Si2 0.838496 0.179603 0.192869
Si Si3 0.314675 0.870270 0.796497
Si Si4 0.588078 0.166927 0.500000
Si Si5 0.838301 0.757977 0.500000
Si Si6 0.416815 0.595321 0.704397
O O1 0.744843 0.500000 0.271421
O O2 0.783397 0.415965 0.258827
O O3 0.645324 0.439013 0.253956
O O4 0.731607 0.453968 0.000000
O O5 0.755619 0.161236 0.222085
O O6 0.856149 0.214166 0.333508
O O7 0.890992 0.138990 0.211610
O O8 0.842778 0.196289 0.000000
O O9 0.378087 0.855217 0.669117
O O10 0.333754 0.871172 0.000000
O O11 0.500000 0.165694 0.500000
O O12 0.618240 0.214526 0.500000
O O13 0.750000 0.750000 0.500000
O O14 0.415972 0.601914 0.500000
O O15 0.500000 0.583787 0.757362
#
# Coordination Sequence:
#
# PCOD9488838 Si02
#       6
#    16  16  16   8   8  16
#     4   9  19  35  57  85 112 146 196 241 280 332
#     4  10  20  36  61  85 108 152 203 233 271 332
#     4   9  19  38  61  84 113 149 189 231 277 334
#     4  12  26  40  59  87 115 147 185 227 291 352
#     4  12  22  38  60  84 115 146 180 239 286 328
#     4  10  20  33  51  79 121 162 194 232 279 328
#
# _framework density 17.85446
#
# number of rings (size 3 to 8) (size 9 to 14) (size 15 to 20)
#    0.000    2.000    3.000    1.800    4.200    4.800 
#    0.000    2.000    0.000    1.200    0.000    2.800 
#    0.000    0.000    0.000    0.000    0.000    0.000 
#
# Total GULP energy -223291.415539 kJ/mol
# GULP energy per Si atom -5582.285388 kJ/mol
# Density = 1.781382 g / cm^3
# Si number density = 17.854460 Si / 1000 Ang^3
#
#
#
# Elastic Constant Matrix: (Units=GPa)
#
#
# Indices 1 2 3 4 5 6 
#
# 1 104.5571 66.9052 50.6936 0.0000 0.0000 0.0000
# 2 66.9052 122.9819 62.9566 0.0000 0.0000 0.0000
# 3 50.6936 62.9566 91.1594 0.0000 0.0000 0.0000
# 4 0.0000 0.0000 0.0000 23.3367 0.0000 0.0000
# 5 0.0000 0.0000 0.0000 0.0000 -5.1268 0.0000
# 6 0.0000 0.0000 0.0000 0.0000 0.0000 10.5424
#
#
#
# Elastic Compliance Matrix: (Units=1/GPa)
#
#
# Indices 1 2 3 4 5 6 
#
# 1 0.015731 -0.006311 -0.004389 0.000000 0.000000 0.000000
# 2 -0.006311 0.015110 -0.006926 0.000000 0.000000 0.000000
# 3 -0.004389 -0.006926 0.018194 0.000000 0.000000 0.000000
# 4 0.000000 0.000000 0.000000 0.042851 0.000000 0.000000
# 5 0.000000 0.000000 0.000000 0.000000 -0.195053 0.000000
# 6 0.000000 0.000000 0.000000 0.000000 0.000000 0.094855
#
#
# Mechanical properties :
#
#
# Convention : Reuss Voigt Hill
#
# Bulk Modulus (GPa) = 72.55654 75.53434 74.04544
# Shear Modulus (GPa) = 158.56064 14.95997 86.76030
#
# Velocity S-wave (km/s) = 9.43399 2.89776 6.97844
# Velocity P-wave (km/s) = 12.62509 7.32076 10.31955
#
# Compressibility (1/GPa) = 0.01378236
#
# Stress axis : x y z
#
# Youngs Moduli (GPa) = 63.57071 66.18141 54.96364
#
# Poissons Ratio (x) = 0.41766 0.24125
# Poissons Ratio (y) = 0.40118 0.38067
# Poissons Ratio (z) = 0.27903 0.45836
#
# Static dielectric constant tensor:
#      x y z
#    x 1.584610 0.000000 0.000000 
#    y 0.000000 1.609610 0.000000 
#    z 0.000000 0.000000 1.624570 
# 
# From -- ./inp_files/9913.got.cif
#   From: 2010.05.17/outbox.cif.g08.bks.cpg/sg65_5_cif.got.tgz:9913.got - 2010.06.03 17:01:31.
