data_PCOD9488439
_publ_section_title
;
Structure prediction by ZEFSAII (Michael W. Deem and Ramdas Pophale) SiO2 
 PCOD9488439
Probable space group: C M M M
;
_chemical_formula_sum "Si O2"
_cell_formula_units_Z 72
_cell_length_a 8.239093
_cell_length_b 33.135020
_cell_length_c 14.044765
_cell_angle_alpha 90.000000
_cell_angle_beta 90.000000
_cell_angle_gamma 90.000000
_cell_volume 3834.256116
_symmetry_space_group_name_H-M "C M M M"
_symmetry_group_IT_number 65
_symmetry_cell_setting 'orthorhombic'
loop_
_space_group_symop_operation_xyz
x,y,z
-x,-y,z
x,-y,-z
-x,y,-z
-x,-y,-z
x,y,-z
-x,y,z
x,-y,z
1/2+x,1/2+y,z
1/2-x,1/2-y,z
1/2+x,1/2-y,-z
1/2-x,1/2+y,-z
1/2-x,1/2-y,-z
1/2+x,1/2+y,-z
1/2-x,1/2+y,z
1/2+x,1/2-y,z
loop_
_atom_site_type_symbol
_atom_site_label
_atom_site_fract_x
_atom_site_fract_y
_atom_site_fract_z
Si Si1 0.807318 0.794119 0.298548
Si Si2 0.698299 0.376419 0.393796
Si Si3 0.301609 0.500000 0.110111
Si Si4 0.694034 0.833046 0.893482
Si Si5 0.303320 0.584250 0.800380
O O1 0.750000 0.750000 0.327289
O O2 0.747142 0.831460 0.362870
O O3 0.758570 0.804398 0.190078
O O4 0.000000 0.794859 0.303818
O O5 0.753347 0.386668 0.500000
O O6 0.500000 0.376361 0.394649
O O7 0.747717 0.405852 0.307931
O O8 0.500000 0.500000 0.111737
O O9 0.248034 0.458961 0.161431
O O10 0.251632 0.500000 0.000000
O O11 0.500000 0.830471 0.893066
O O12 0.744051 0.878551 0.864785
O O13 0.753718 0.823546 0.000000
O O14 0.500000 0.584978 0.803065
#
# Coordination Sequence:
#
# PCOD9488439 Si02
#       5
#    16  16   8  16  16
#     4  10  20  33  50  71  96 125 157 196 239 284
#     4   8  15  29  48  69  94 124 158 197 240 283
#     4   9  16  26  44  72 102 129 161 199 236 279
#     4  10  20  33  49  69  95 127 161 198 240 285
#     4   9  17  30  49  71  96 128 163 198 237 283
#
# _framework density 18.778089000000001
#
# number of rings (size 3 to 8) (size 9 to 14) (size 15 to 20)
#    0.000    2.778    0.000    3.333    0.000    3.556 
#    0.000    1.111    0.000   21.333    0.000    0.000 
#    0.000    7.111    0.000    0.000    0.000    0.000 
#
# Total GULP energy -200766.941532 kJ/mol
# GULP energy per Si atom -5576.859487 kJ/mol
# Density = 1.873535 g / cm^3
# Si number density = 18.778089 Si / 1000 Ang^3
#
#
#
# Elastic Constant Matrix: (Units=GPa)
#
#
# Indices 1 2 3 4 5 6 
#
# 1 15.2748 6.1616 3.8911 0.0000 0.0000 0.0000
# 2 6.1616 101.3425 33.2160 0.0000 0.0000 0.0000
# 3 3.8911 33.2160 114.8748 0.0000 0.0000 0.0000
# 4 0.0000 0.0000 0.0000 9.9845 0.0000 0.0000
# 5 0.0000 0.0000 0.0000 0.0000 7.5084 0.0000
# 6 0.0000 0.0000 0.0000 0.0000 0.0000 16.9113
#
#
#
# Elastic Compliance Matrix: (Units=1/GPa)
#
#
# Indices 1 2 3 4 5 6 
#
# 1 0.067265 -0.003693 -0.001211 0.000000 0.000000 0.000000
# 2 -0.003693 0.011103 -0.003085 0.000000 0.000000 0.000000
# 3 -0.001211 -0.003085 0.009638 0.000000 0.000000 0.000000
# 4 0.000000 0.000000 0.000000 0.100155 0.000000 0.000000
# 5 0.000000 0.000000 0.000000 0.000000 0.133184 0.000000
# 6 0.000000 0.000000 0.000000 0.000000 0.000000 0.059132
#
#
# Mechanical properties :
#
#
# Convention : Reuss Voigt Hill
#
# Bulk Modulus (GPa) = 13.88333 35.33661 24.60997
# Shear Modulus (GPa) = 11.89157 19.42907 15.66032
#
# Velocity S-wave (km/s) = 2.51921 3.22011 2.89098
# Velocity P-wave (km/s) = 3.98388 5.71702 4.92726
#
# Compressibility (1/GPa) = 0.07202885
#
# Stress axis : x y z
#
# Youngs Moduli (GPa) = 14.86652 90.06297 103.75289
#
# Poissons Ratio (x) = 0.33260 0.12561
# Poissons Ratio (y) = 0.05490 0.32012
# Poissons Ratio (z) = 0.01800 0.27788
#
# Static dielectric constant tensor:
#      x y z
#    x 1.654100 0.000000 0.000000 
#    y 0.000000 1.637630 0.000000 
#    z 0.000000 0.000000 1.662950 
# 
# From -- ./inp_files/36962.got.cif
#   From: 2010.05.17/outbox.cif.g08.bks.cpg/sg65_19_cif.got.tgz:36962.got - 2010.06.03 17:01:31.
