data_PCOD9488710
_publ_section_title
;
Structure prediction by ZEFSAII (Michael W. Deem and Ramdas Pophale) SiO2 
 PCOD9488710
Probable space group: C M M M
;
_chemical_formula_sum "Si O2"
_cell_formula_units_Z 120
_cell_length_a 28.571601
_cell_length_b 28.113318
_cell_length_c 7.660661
_cell_angle_alpha 90.000000
_cell_angle_beta 90.000000
_cell_angle_gamma 90.000000
_cell_volume 6153.368529
_symmetry_space_group_name_H-M "C M M M"
_symmetry_group_IT_number 65
_symmetry_cell_setting 'orthorhombic'
loop_
_space_group_symop_operation_xyz
x,y,z
-x,-y,z
x,-y,-z
-x,y,-z
-x,-y,-z
x,y,-z
-x,y,z
x,-y,z
1/2+x,1/2+y,z
1/2-x,1/2-y,z
1/2+x,1/2-y,-z
1/2-x,1/2+y,-z
1/2-x,1/2-y,-z
1/2+x,1/2+y,-z
1/2-x,1/2+y,z
1/2+x,1/2-y,z
loop_
_atom_site_type_symbol
_atom_site_label
_atom_site_fract_x
_atom_site_fract_y
_atom_site_fract_z
Si Si1 0.447329 0.710289 0.709152
Si Si2 0.141086 0.148537 0.206299
Si Si3 0.053736 0.500000 0.713364
Si Si4 0.945903 0.317083 0.287270
Si Si5 0.265044 0.698256 0.789203
Si Si6 0.311933 0.447067 0.709083
Si Si7 0.782770 0.601711 0.291473
Si Si8 0.387596 0.907944 0.714143
O O1 0.450104 0.713416 0.500000
O O2 0.500000 0.699607 0.773584
O O3 0.408312 0.671533 0.748686
O O4 0.433774 0.763508 0.771476
O O5 0.184515 0.179936 0.278547
O O6 0.150293 0.094022 0.257106
O O7 0.145512 0.150312 0.000000
O O8 0.053242 0.500000 0.500000
O O9 0.081312 0.547205 0.768030
O O10 0.000000 0.500000 0.771182
O O11 0.944673 0.317358 0.500000
O O12 0.911633 0.358738 0.228290
O O13 0.000000 0.326518 0.238037
O O14 0.250000 0.750000 0.724055
O O15 0.228503 0.656941 0.742421
O O16 0.267298 0.700773 0.000000
O O17 0.307718 0.449920 0.500000
O O18 0.322502 0.500000 0.775132
O O19 0.261773 0.427843 0.777849
O O20 0.783518 0.594467 0.500000
O O21 0.834020 0.588323 0.225525
O O22 0.387144 0.907550 0.500000
#
# Coordination Sequence:
#
# PCOD9488710 Si02
#       8
#    16  16   8  16  16  16  16  16
#     4   9  18  32  51  74 101 133 165 198 239 291
#     4  10  20  33  51  75 100 129 164 204 247 290
#     4   9  16  24  36  58  93 135 167 199 254 309
#     4   8  14  25  40  60  89 125 163 201 240 284
#     4   9  19  34  48  65  96 133 163 195 240 293
#     4   9  18  33  52  71  97 131 163 199 244 298
#     4   9  18  29  44  71  97 122 160 204 246 283
#     4   9  16  24  38  62  92 125 163 207 249 290
#
# _framework density 19.501515000000001
#
# number of rings (size 3 to 8) (size 9 to 14) (size 15 to 20)
#    0.000    3.000    0.000    1.600    2.800    2.933 
#    0.000    0.000    0.000    0.400    0.000    2.800 
#    0.000    2.133    0.000    0.000    0.000    0.267 
#
# Total GULP energy -334642.311076 kJ/mol
# GULP energy per Si atom -5577.371851 kJ/mol
# Density = 1.945713 g / cm^3
# Si number density = 19.501515 Si / 1000 Ang^3
#
#
#
# Elastic Constant Matrix: (Units=GPa)
#
#
# Indices 1 2 3 4 5 6 
#
# 1 136.4274 111.3781 4.1783 0.0000 0.0000 0.0000
# 2 111.3781 171.8798 6.2106 0.0000 0.0000 0.0000
# 3 4.1783 6.2106 35.0888 0.0000 0.0000 0.0000
# 4 0.0000 0.0000 0.0000 -20.8076 0.0000 0.0000
# 5 0.0000 0.0000 0.0000 0.0000 -1.9695 0.0000
# 6 0.0000 0.0000 0.0000 0.0000 0.0000 22.3402
#
#
#
# Elastic Compliance Matrix: (Units=1/GPa)
#
#
# Indices 1 2 3 4 5 6 
#
# 1 0.015563 -0.010083 -0.000069 0.000000 0.000000 0.000000
# 2 -0.010083 0.012387 -0.000992 0.000000 0.000000 0.000000
# 3 -0.000069 -0.000992 0.028683 0.000000 0.000000 0.000000
# 4 0.000000 0.000000 0.000000 -0.048059 0.000000 0.000000
# 5 0.000000 0.000000 0.000000 0.000000 -0.507745 0.000000
# 6 0.000000 0.000000 0.000000 0.000000 0.000000 0.044762
#
#
# Mechanical properties :
#
#
# Convention : Reuss Voigt Hill
#
# Bulk Modulus (GPa) = 29.11441 65.21444 47.16443
# Shear Modulus (GPa) = -11.88571 14.68789 1.40109
#
# Velocity S-wave (km/s) = -2.47144 2.74737 0.84853
# Velocity P-wave (km/s) = 2.61108 6.60131 5.01971
#
# Compressibility (1/GPa) = 0.03434726
#
# Stress axis : x y z
#
# Youngs Moduli (GPa) = 64.25367 80.72751 34.86404
#
# Poissons Ratio (x) = 0.81394 0.00239
# Poissons Ratio (y) = 0.64784 0.03458
# Poissons Ratio (z) = 0.00441 0.08008
#
# Static dielectric constant tensor:
#      x y z
#    x 1.735200 0.000000 0.000000 
#    y 0.000000 1.731260 0.000000 
#    z 0.000000 0.000000 1.717630 
# 
# From -- ./inp_files/17101.got.cif
#   From: 2010.05.17/outbox.cif.g08.bks.cpg/sg65_9_cif.got.tgz:17101.got - 2010.06.03 17:01:31.
