data_PCOD9488646
_publ_section_title
;
Structure prediction by ZEFSAII (Michael W. Deem and Ramdas Pophale) SiO2 
 PCOD9488646
Probable space group: C M M M
;
_chemical_formula_sum "Si O2"
_cell_formula_units_Z 104
_cell_length_a 26.557606
_cell_length_b 24.383664
_cell_length_c 7.806023
_cell_angle_alpha 90.000000
_cell_angle_beta 90.000000
_cell_angle_gamma 90.000000
_cell_volume 5054.959907
_symmetry_space_group_name_H-M "C M M M"
_symmetry_group_IT_number 65
_symmetry_cell_setting 'orthorhombic'
loop_
_space_group_symop_operation_xyz
x,y,z
-x,-y,z
x,-y,-z
-x,y,-z
-x,-y,-z
x,y,-z
-x,y,z
x,-y,z
1/2+x,1/2+y,z
1/2-x,1/2-y,z
1/2+x,1/2-y,-z
1/2-x,1/2+y,-z
1/2-x,1/2-y,-z
1/2+x,1/2+y,-z
1/2-x,1/2+y,z
1/2+x,1/2-y,z
loop_
_atom_site_type_symbol
_atom_site_label
_atom_site_fract_x
_atom_site_fract_y
_atom_site_fract_z
Si Si1 0.206835 0.940268 0.799408
Si Si2 0.745273 0.170179 0.304593
Si Si3 0.500000 0.562664 0.709428
Si Si4 0.652574 0.718733 0.702822
Si Si5 0.441146 0.936772 0.208993
Si Si6 0.605600 0.606625 0.708546
Si Si7 0.868953 0.662443 0.198623
O O1 0.228469 0.889148 0.697564
O O2 0.147056 0.935241 0.777092
O O3 0.224548 0.000000 0.741894
O O4 0.219596 0.933615 0.000000
O O5 0.733182 0.186900 0.500000
O O6 0.789511 0.210386 0.232430
O O7 0.691783 0.158875 0.216436
O O8 0.500000 0.500000 0.763885
O O9 0.500000 0.563184 0.500000
O O10 0.550378 0.591873 0.766468
O O11 0.657858 0.711283 0.500000
O O12 0.621658 0.666994 0.768619
O O13 0.624542 0.775967 0.730719
O O14 0.500000 0.925591 0.256139
O O15 0.401975 0.889011 0.268594
O O16 0.429151 0.000000 0.263162
O O17 0.439364 0.937346 0.000000
O O18 0.607177 0.604584 0.500000
O O19 0.881894 0.664620 0.000000
#
# Coordination Sequence:
#
# PCOD9488646 Si02
#       7
#    16  16   8  16  16  16  16
#     4  10  20  33  50  74 105 138 173 217 268 317
#     4  10  21  36  54  75 104 143 181 216 258 315
#     4   9  16  28  51  79 101 129 178 229 262 300
#     4   9  19  35  51  71 104 144 179 213 258 314
#     4   8  16  34  57  78 104 138 173 211 258 316
#     4   9  18  33  52  73 100 138 182 223 262 308
#     4  11  21  32  54  85 107 131 171 218 265 316
#
# _framework density 20.573854000000001
#
# number of rings (size 3 to 8) (size 9 to 14) (size 15 to 20)
#    0.000    2.538    0.000    3.692    0.000    7.385 
#    1.385    1.923    0.000    4.154    0.000    4.308 
#    0.000    0.000    0.000    0.000    0.000    0.000 
#
# Total GULP energy -289733.871013 kJ/mol
# GULP energy per Si atom -5571.805212 kJ/mol
# Density = 2.052703 g / cm^3
# Si number density = 20.573854 Si / 1000 Ang^3
#
#
#
# Elastic Constant Matrix: (Units=GPa)
#
#
# Indices 1 2 3 4 5 6 
#
# 1 98.0949 69.5245 -0.9786 0.0000 0.0000 0.0000
# 2 69.5245 159.3568 6.0773 0.0000 0.0000 0.0000
# 3 -0.9786 6.0773 26.0115 0.0000 0.0000 0.0000
# 4 0.0000 0.0000 0.0000 21.1924 0.0000 0.0000
# 5 0.0000 0.0000 0.0000 0.0000 10.7053 0.0000
# 6 0.0000 0.0000 0.0000 0.0000 0.0000 32.5711
#
#
#
# Elastic Compliance Matrix: (Units=1/GPa)
#
#
# Indices 1 2 3 4 5 6 
#
# 1 0.014870 -0.006567 0.002094 0.000000 0.000000 0.000000
# 2 -0.006567 0.009232 -0.002404 0.000000 0.000000 0.000000
# 3 0.002094 -0.002404 0.039085 0.000000 0.000000 0.000000
# 4 0.000000 0.000000 0.000000 0.047187 0.000000 0.000000
# 5 0.000000 0.000000 0.000000 0.000000 0.093412 0.000000
# 6 0.000000 0.000000 0.000000 0.000000 0.000000 0.030702
#
#
# Mechanical properties :
#
#
# Convention : Reuss Voigt Hill
#
# Bulk Modulus (GPa) = 20.22997 48.07887 34.15442
# Shear Modulus (GPa) = 18.88795 26.81643 22.85219
#
# Velocity S-wave (km/s) = 3.03323 3.61421 3.33639
# Velocity P-wave (km/s) = 4.70335 6.39033 5.61061
#
# Compressibility (1/GPa) = 0.04943161
#
# Stress axis : x y z
#
# Youngs Moduli (GPa) = 67.25148 108.31828 25.58533
#
# Poissons Ratio (x) = 0.71135 -0.05357
# Poissons Ratio (y) = 0.44165 0.06151
# Poissons Ratio (z) = -0.14081 0.26040
#
# Static dielectric constant tensor:
#      x y z
#    x 1.745750 0.000000 0.000000 
#    y 0.000000 1.757470 0.000000 
#    z 0.000000 0.000000 1.742040 
# 
# From -- ./inp_files/16775.got.cif
#   From: 2010.05.17/outbox.cif.g08.bks.cpg/sg65_9_cif.got.tgz:16775.got - 2010.06.03 17:01:31.
