data_PCOD9488616
_publ_section_title
;
Structure prediction by ZEFSAII (Michael W. Deem and Ramdas Pophale) SiO2 
 PCOD9488616
Probable space group: C M M M
;
_chemical_formula_sum "Si O2"
_cell_formula_units_Z 88
_cell_length_a 29.324080
_cell_length_b 14.370508
_cell_length_c 9.485198
_cell_angle_alpha 90.000000
_cell_angle_beta 90.000000
_cell_angle_gamma 90.000000
_cell_volume 3997.080708
_symmetry_space_group_name_H-M "C M M M"
_symmetry_group_IT_number 65
_symmetry_cell_setting 'orthorhombic'
loop_
_space_group_symop_operation_xyz
x,y,z
-x,-y,z
x,-y,-z
-x,y,-z
-x,-y,-z
x,y,-z
-x,y,z
x,-y,z
1/2+x,1/2+y,z
1/2-x,1/2-y,z
1/2+x,1/2-y,-z
1/2-x,1/2+y,-z
1/2-x,1/2-y,-z
1/2+x,1/2+y,-z
1/2-x,1/2+y,z
1/2+x,1/2-y,z
loop_
_atom_site_type_symbol
_atom_site_label
_atom_site_fract_x
_atom_site_fract_y
_atom_site_fract_z
Si Si1 0.761228 0.357713 0.839265
Si Si2 0.410786 0.614167 0.837754
Si Si3 0.136605 0.612185 0.160279
Si Si4 0.500000 0.613533 0.337840
Si Si5 0.550399 0.113726 0.336718
Si Si6 0.325945 0.392207 0.657688
O O1 0.750000 0.250000 0.850935
O O2 0.812609 0.368750 0.784013
O O3 0.722777 0.393370 0.733967
O O4 0.758826 0.396595 0.000000
O O5 0.410443 0.500000 0.841640
O O6 0.454565 0.641679 0.745620
O O7 0.364404 0.647541 0.761994
O O8 0.413720 0.644468 0.000000
O O9 0.132794 0.500000 0.155449
O O10 0.093460 0.646585 0.247803
O O11 0.135152 0.647537 0.000000
O O12 0.500000 0.500000 0.340628
O O13 0.500000 0.645196 0.500000
O O14 0.555052 0.140719 0.500000
O O15 0.500000 0.142729 0.285753
O O16 0.550657 0.000000 0.333549
O O17 0.324649 0.350436 0.500000
O O18 0.339264 0.500000 0.641103
#
# Coordination Sequence:
#
# PCOD9488616 Si02
#       6
#    16  16  16   8  16  16
#     4  10  21  36  52  71  97 132 170 209 252 299
#     4   9  16  26  42  65  93 125 159 195 239 291
#     4   9  17  29  47  72 100 129 163 203 246 292
#     4   9  15  23  37  61  95 127 155 193 240 289
#     4   8  14  25  42  67  99 130 158 191 235 288
#     4  10  20  33  50  73  99 127 162 205 253 302
#
# _framework density 22.016067
#
# number of rings (size 3 to 8) (size 9 to 14) (size 15 to 20)
#    0.000    2.818    0.000    2.455    0.000    6.545 
#    0.000    3.636    0.000    0.000    2.364    0.000 
#    0.000    0.000    0.000    0.000    0.000    0.000 
#
# Total GULP energy -245707.005092 kJ/mol
# GULP energy per Si atom -5584.250116 kJ/mol
# Density = 2.196596 g / cm^3
# Si number density = 22.016067 Si / 1000 Ang^3
#
#
#
# Elastic Constant Matrix: (Units=GPa)
#
#
# Indices 1 2 3 4 5 6 
#
# 1 248.4358 3.4127 132.0375 0.0000 0.0000 0.0000
# 2 3.4127 49.9501 1.4185 0.0000 0.0000 0.0000
# 3 132.0375 1.4185 165.1098 0.0000 0.0000 0.0000
# 4 0.0000 0.0000 0.0000 2.2444 0.0000 0.0000
# 5 0.0000 0.0000 0.0000 0.0000 20.1944 0.0000
# 6 0.0000 0.0000 0.0000 0.0000 0.0000 20.9762
#
#
#
# Elastic Compliance Matrix: (Units=1/GPa)
#
#
# Indices 1 2 3 4 5 6 
#
# 1 0.007006 -0.000320 -0.005600 0.000000 0.000000 0.000000
# 2 -0.000320 0.020039 0.000083 0.000000 0.000000 0.000000
# 3 -0.005600 0.000083 0.010534 0.000000 0.000000 0.000000
# 4 0.000000 0.000000 0.000000 0.445554 0.000000 0.000000
# 5 0.000000 0.000000 0.000000 0.000000 0.049519 0.000000
# 6 0.000000 0.000000 0.000000 0.000000 0.000000 0.047673
#
#
# Mechanical properties :
#
#
# Convention : Reuss Voigt Hill
#
# Bulk Modulus (GPa) = 38.59917 81.91479 60.25698
# Shear Modulus (GPa) = 8.32457 30.45813 19.39135
#
# Velocity S-wave (km/s) = 1.94662 3.72351 2.97102
# Velocity P-wave (km/s) = 4.75634 7.46818 6.26085
#
# Compressibility (1/GPa) = 0.02590729
#
# Stress axis : x y z
#
# Youngs Moduli (GPa) = 142.74219 49.90160 94.93206
#
# Poissons Ratio (x) = 0.01595 0.53158
# Poissons Ratio (y) = 0.04562 -0.00792
# Poissons Ratio (z) = 0.79930 -0.00416
#
# Static dielectric constant tensor:
#      x y z
#    x 1.772460 0.000000 0.000000 
#    y 0.000000 1.683960 0.000000 
#    z 0.000000 0.000000 1.782100 
# 
# From -- ./inp_files/18286.got.cif
#   From: 2010.05.17/outbox.cif.g08.bks.cpg/sg65_10_cif.got.tgz:18286.got - 2010.06.03 17:01:31.
