data_PCOD9488647
_publ_section_title
;
Structure prediction by ZEFSAII (Michael W. Deem and Ramdas Pophale) SiO2 
 PCOD9488647
Probable space group: C M M M
;
_chemical_formula_sum "Si O2"
_cell_formula_units_Z 88
_cell_length_a 27.885942
_cell_length_b 8.833024
_cell_length_c 21.624925
_cell_angle_alpha 90.000000
_cell_angle_beta 90.000000
_cell_angle_gamma 90.000000
_cell_volume 5326.590867
_symmetry_space_group_name_H-M "C M M M"
_symmetry_group_IT_number 65
_symmetry_cell_setting 'orthorhombic'
loop_
_space_group_symop_operation_xyz
x,y,z
-x,-y,z
x,-y,-z
-x,y,-z
-x,-y,-z
x,y,-z
-x,y,z
x,-y,z
1/2+x,1/2+y,z
1/2-x,1/2-y,z
1/2+x,1/2-y,-z
1/2-x,1/2+y,-z
1/2-x,1/2-y,-z
1/2+x,1/2+y,-z
1/2-x,1/2+y,z
1/2+x,1/2-y,z
loop_
_atom_site_type_symbol
_atom_site_label
_atom_site_fract_x
_atom_site_fract_y
_atom_site_fract_z
Si Si1 0.643326 0.318254 0.314396
Si Si2 0.444650 0.180800 0.246408
Si Si3 0.697094 0.819122 0.428987
Si Si4 0.056663 0.681806 0.000000
Si Si5 0.801769 0.818560 0.189315
Si Si6 0.899346 0.817746 0.124207
O O1 0.641179 0.500000 0.316127
O O2 0.592042 0.251238 0.295403
O O3 0.662640 0.252715 0.378219
O O4 0.679145 0.274762 0.257788
O O5 0.500000 0.211060 0.261174
O O6 0.431137 0.254378 0.180575
O O7 0.437711 0.000000 0.242602
O O8 0.682600 0.786663 0.500000
O O9 0.750000 0.750000 0.420105
O O10 0.699286 0.000000 0.421234
O O11 0.081990 0.748638 0.060657
O O12 0.060267 0.500000 0.000000
O O13 0.000000 0.721495 0.000000
O O14 0.750000 0.750000 0.176307
O O15 0.844398 0.776088 0.141934
O O16 0.797955 0.000000 0.188413
O O17 0.902484 0.000000 0.122864
#
# Coordination Sequence:
#
# PCOD9488647 Si02
#       6
#    16  16  16   8  16  16
#     4  10  20  33  51  76 104 135 172 212 254 302
#     4  10  20  34  53  77 104 133 167 209 256 304
#     4  10  20  33  50  74 105 139 173 210 254 303
#     4  11  23  37  54  77 102 129 166 209 254 305
#     4   9  19  33  50  74 101 130 165 204 245 292
#     4  10  21  36  53  76 104 133 168 207 250 302
#
# _framework density 16.520886999999998
#
# number of rings (size 3 to 8) (size 9 to 14) (size 15 to 20)
#    0.000    2.091    0.000    4.636    0.000   11.273 
#    0.000    0.455    0.000    0.545    0.000    3.818 
#    0.000    0.000    0.000    0.000    0.000    0.000 
#
# Total GULP energy -245619.058851 kJ/mol
# GULP energy per Si atom -5582.251338 kJ/mol
# Density = 1.648328 g / cm^3
# Si number density = 16.520887 Si / 1000 Ang^3
#
#
#
# Elastic Constant Matrix: (Units=GPa)
#
#
# Indices 1 2 3 4 5 6 
#
# 1 145.0576 67.0180 95.6766 0.0000 0.0000 0.0000
# 2 67.0180 70.3439 64.9372 0.0000 0.0000 0.0000
# 3 95.6766 64.9372 147.4438 0.0000 0.0000 0.0000
# 4 0.0000 0.0000 0.0000 30.3858 0.0000 0.0000
# 5 0.0000 0.0000 0.0000 0.0000 16.3380 0.0000
# 6 0.0000 0.0000 0.0000 0.0000 0.0000 31.9556
#
#
#
# Elastic Compliance Matrix: (Units=1/GPa)
#
#
# Indices 1 2 3 4 5 6 
#
# 1 0.014675 -0.008746 -0.005670 0.000000 0.000000 0.000000
# 2 -0.008746 0.029168 -0.007171 0.000000 0.000000 0.000000
# 3 -0.005670 -0.007171 0.013620 0.000000 0.000000 0.000000
# 4 0.000000 0.000000 0.000000 0.032910 0.000000 0.000000
# 5 0.000000 0.000000 0.000000 0.000000 0.061207 0.000000
# 6 0.000000 0.000000 0.000000 0.000000 0.000000 0.031293
#
#
# Mechanical properties :
#
#
# Convention : Reuss Voigt Hill
#
# Bulk Modulus (GPa) = 69.98918 90.90099 80.44508
# Shear Modulus (GPa) = 21.66272 24.75012 23.20642
#
# Velocity S-wave (km/s) = 3.62502 3.87474 3.75196
# Velocity P-wave (km/s) = 7.74449 8.66946 8.21999
#
# Compressibility (1/GPa) = 0.01428792
#
# Stress axis : x y z
#
# Youngs Moduli (GPa) = 68.14401 34.28376 73.42170
#
# Poissons Ratio (x) = 0.29986 0.41633
# Poissons Ratio (y) = 0.59601 0.52649
# Poissons Ratio (z) = 0.38641 0.24584
#
# Static dielectric constant tensor:
#      x y z
#    x 1.542700 0.000000 0.000000 
#    y 0.000000 1.551110 0.000000 
#    z 0.000000 0.000000 1.537600 
# 
# From -- ./inp_files/60711.got.cif
#   From: 2010.05.17/outbox.cif.g08.bks.cpg/sg65_31_cif.got.tgz:60711.got - 2010.06.03 17:01:31.
