data_PCOD9488168
_publ_section_title
;
Structure prediction by ZEFSAII (Michael W. Deem and Ramdas Pophale) SiO2 
 PCOD9488168
Probable space group: C M M M
;
_chemical_formula_sum "Si O2"
_cell_formula_units_Z 96
_cell_length_a 29.052526
_cell_length_b 20.881225
_cell_length_c 7.491173
_cell_angle_alpha 90.000000
_cell_angle_beta 90.000000
_cell_angle_gamma 90.000000
_cell_volume 4544.537572
_symmetry_space_group_name_H-M "C M M M"
_symmetry_group_IT_number 65
_symmetry_cell_setting 'orthorhombic'
loop_
_space_group_symop_operation_xyz
x,y,z
-x,-y,z
x,-y,-z
-x,y,-z
-x,-y,-z
x,y,-z
-x,y,z
x,-y,z
1/2+x,1/2+y,z
1/2-x,1/2-y,z
1/2+x,1/2-y,-z
1/2-x,1/2+y,-z
1/2-x,1/2-y,-z
1/2+x,1/2+y,-z
1/2-x,1/2+y,z
1/2+x,1/2-y,z
loop_
_atom_site_type_symbol
_atom_site_label
_atom_site_fract_x
_atom_site_fract_y
_atom_site_fract_z
Si Si1 0.051945 0.311340 0.211483
Si Si2 0.387531 0.308083 0.219338
Si Si3 0.118722 0.572515 0.714883
Si Si4 0.947336 0.072253 0.217428
Si Si5 0.222923 0.426843 0.715487
Si Si6 0.283329 0.304726 0.789965
O O1 0.082293 0.252290 0.280650
O O2 0.080610 0.376311 0.234164
O O3 0.000000 0.314538 0.284227
O O4 0.047897 0.300345 0.000000
O O5 0.412349 0.373407 0.276182
O O6 0.335022 0.304154 0.282411
O O7 0.387202 0.308116 0.000000
O O8 0.120126 0.571103 0.500000
O O9 0.108808 0.500000 0.776231
O O10 0.170691 0.589738 0.775058
O O11 0.000000 0.086542 0.271126
O O12 0.935838 0.000000 0.274619
O O13 0.947101 0.072252 0.000000
O O14 0.222830 0.427126 0.500000
O O15 0.232897 0.500000 0.773485
O O16 0.258904 0.373408 0.773265
O O17 0.250000 0.250000 0.712791
O O18 0.288218 0.290447 0.000000
#
# Coordination Sequence:
#
# PCOD9488168 Si02
#       6
#    16  16  16  16  16  16
#     4  10  20  33  51  75 102 132 165 203 247 292
#     4   9  17  29  44  65  97 131 160 194 238 288
#     4   9  19  36  55  73  96 129 166 203 246 296
#     4   8  13  22  38  60  86 118 155 191 227 272
#     4   9  19  36  55  74  98 130 169 210 251 299
#     4  10  20  32  48  73 103 132 163 202 248 296
#
# _framework density 21.124262000000002
#
# number of rings (size 3 to 8) (size 9 to 14) (size 15 to 20)
#    0.000    2.833    0.000    3.000    0.000    6.333 
#    0.000    5.833    0.000    0.000    0.000    0.000 
#    0.000    0.000    0.000    8.833    0.000    7.667 
#
# Total GULP energy -267991.140370 kJ/mol
# GULP energy per Si atom -5583.148758 kJ/mol
# Density = 2.107618 g / cm^3
# Si number density = 21.124262 Si / 1000 Ang^3
#
#
#
# Elastic Constant Matrix: (Units=GPa)
#
#
# Indices 1 2 3 4 5 6 
#
# 1 179.9309 115.8262 4.5253 0.0000 0.0000 0.0000
# 2 115.8262 132.9978 -4.0331 0.0000 0.0000 0.0000
# 3 4.5253 -4.0331 55.1936 0.0000 0.0000 0.0000
# 4 0.0000 0.0000 0.0000 20.9148 0.0000 0.0000
# 5 0.0000 0.0000 0.0000 0.0000 7.3238 0.0000
# 6 0.0000 0.0000 0.0000 0.0000 0.0000 37.4107
#
#
#
# Elastic Compliance Matrix: (Units=1/GPa)
#
#
# Indices 1 2 3 4 5 6 
#
# 1 0.012839 -0.011238 -0.001874 0.000000 0.000000 0.000000
# 2 -0.011238 0.017373 0.002191 0.000000 0.000000 0.000000
# 3 -0.001874 0.002191 0.018432 0.000000 0.000000 0.000000
# 4 0.000000 0.000000 0.000000 0.047813 0.000000 0.000000
# 5 0.000000 0.000000 0.000000 0.000000 0.136542 0.000000
# 6 0.000000 0.000000 0.000000 0.000000 0.000000 0.026730
#
#
# Mechanical properties :
#
#
# Convention : Reuss Voigt Hill
#
# Bulk Modulus (GPa) = 37.31204 66.75100 52.03152
# Shear Modulus (GPa) = 17.21139 29.91677 23.56408
#
# Velocity S-wave (km/s) = 2.85751 3.76736 3.34353
# Velocity P-wave (km/s) = 5.34683 7.11279 6.29208
#
# Compressibility (1/GPa) = 0.02680100
#
# Stress axis : x y z
#
# Youngs Moduli (GPa) = 77.88613 57.56149 54.25410
#
# Poissons Ratio (x) = 0.64690 0.10167
# Poissons Ratio (y) = 0.87531 -0.11886
# Poissons Ratio (z) = 0.14595 -0.12611
#
# Static dielectric constant tensor:
#      x y z
#    x 1.738550 0.000000 0.000000 
#    y 0.000000 1.727170 0.000000 
#    z 0.000000 0.000000 1.797710 
# 
# From -- ./inp_files/12236.got.cif
#   From: 2010.05.17/outbox.cif.g08.bks.cpg/sg65_7_cif.got.tgz:12236.got - 2010.06.03 17:01:31.
