data_PCOD9488890
_publ_section_title
;
Structure prediction by ZEFSAII (Michael W. Deem and Ramdas Pophale) SiO2 
 PCOD9488890
Probable space group: C M M M
;
_chemical_formula_sum "Si O2"
_cell_formula_units_Z 80
_cell_length_a 9.332765
_cell_length_b 17.314957
_cell_length_c 26.857148
_cell_angle_alpha 90.000000
_cell_angle_beta 90.000000
_cell_angle_gamma 90.000000
_cell_volume 4340.019094
_symmetry_space_group_name_H-M "C M M M"
_symmetry_group_IT_number 65
_symmetry_cell_setting 'orthorhombic'
loop_
_space_group_symop_operation_xyz
x,y,z
-x,-y,z
x,-y,-z
-x,y,-z
-x,-y,-z
x,y,-z
-x,y,z
x,-y,z
1/2+x,1/2+y,z
1/2-x,1/2-y,z
1/2+x,1/2-y,-z
1/2-x,1/2+y,-z
1/2-x,1/2-y,-z
1/2+x,1/2+y,-z
1/2-x,1/2+y,z
1/2+x,1/2-y,z
loop_
_atom_site_type_symbol
_atom_site_label
_atom_site_fract_x
_atom_site_fract_y
_atom_site_fract_z
Si Si1 0.827837 0.668436 0.757928
Si Si2 0.668367 0.593841 0.445296
Si Si3 0.836658 0.092989 0.847742
Si Si4 0.833962 0.405892 0.944065
Si Si5 0.829573 0.409035 0.652547
O O1 0.750000 0.750000 0.762045
O O2 0.763314 0.617067 0.802094
O O3 0.792598 0.632894 0.703839
O O4 0.000000 0.674017 0.762042
O O5 0.719915 0.620346 0.500000
O O6 0.500000 0.611719 0.441222
O O7 0.680902 0.500000 0.445393
O O8 0.751319 0.621844 0.396704
O O9 0.767611 0.121118 0.899640
O O10 0.000000 0.120951 0.841324
O O11 0.840687 0.000000 0.849741
O O12 0.830410 0.500000 0.943908
O O13 0.000000 0.384060 0.935307
O O14 0.792393 0.381284 0.000000
O O15 0.794228 0.500000 0.658103
O O16 0.000000 0.403105 0.645168
#
# Coordination Sequence:
#
# PCOD9488890 Si02
#       5
#    16  16  16  16  16
#     4  11  23  38  54  72  99 134 172 214 259 307
#     4   8  14  25  43  70 102 131 158 193 240 291
#     4  10  20  33  52  79 107 135 170 210 251 298
#     4   8  14  26  46  73 104 136 168 203 246 294
#     4   9  18  32  51  75 100 128 163 203 248 297
#
# _framework density 18.433098000000001
#
# number of rings (size 3 to 8) (size 9 to 14) (size 15 to 20)
#    0.000    2.800    0.000    3.000    0.000    4.400 
#    0.000    6.000    0.000    1.200    0.000    0.000 
#    0.000    0.000    0.000    0.000    0.000    0.000 
#
# Total GULP energy -222961.726567 kJ/mol
# GULP energy per Si atom -5574.043164 kJ/mol
# Density = 1.839114 g / cm^3
# Si number density = 18.433098 Si / 1000 Ang^3
#
#
#
# Elastic Constant Matrix: (Units=GPa)
#
#
# Indices 1 2 3 4 5 6 
#
# 1 75.0628 16.3651 77.8017 0.0000 0.0000 0.0000
# 2 16.3651 10.3453 17.2978 0.0000 0.0000 0.0000
# 3 77.8017 17.2978 165.9432 0.0000 0.0000 0.0000
# 4 0.0000 0.0000 0.0000 -11.5221 0.0000 0.0000
# 5 0.0000 0.0000 0.0000 0.0000 31.2925 0.0000
# 6 0.0000 0.0000 0.0000 0.0000 0.0000 16.2201
#
#
#
# Elastic Compliance Matrix: (Units=1/GPa)
#
#
# Indices 1 2 3 4 5 6 
#
# 1 0.032671 -0.031573 -0.012026 0.000000 0.000000 0.000000
# 2 -0.031573 0.147579 -0.000581 0.000000 0.000000 0.000000
# 3 -0.012026 -0.000581 0.011725 0.000000 0.000000 0.000000
# 4 0.000000 0.000000 0.000000 -0.086790 0.000000 0.000000
# 5 0.000000 0.000000 0.000000 0.000000 0.031957 0.000000
# 6 0.000000 0.000000 0.000000 0.000000 0.000000 0.061652
#
#
# Mechanical properties :
#
#
# Convention : Reuss Voigt Hill
#
# Bulk Modulus (GPa) = 9.65116 52.69783 31.17450
# Shear Modulus (GPa) = 15.54282 16.52388 16.03335
#
# Velocity S-wave (km/s) = 2.90694 2.99728 2.95246
# Velocity P-wave (km/s) = 4.06377 6.37409 5.34524
#
# Compressibility (1/GPa) = 0.10361449
#
# Stress axis : x y z
#
# Youngs Moduli (GPa) = 30.60818 6.77605 85.28606
#
# Poissons Ratio (x) = 0.21394 1.02569
# Poissons Ratio (y) = 0.96639 0.04952
# Poissons Ratio (z) = 0.36811 0.00393
#
# Static dielectric constant tensor:
#      x y z
#    x 1.620300 0.000000 0.000000 
#    y 0.000000 1.638240 0.000000 
#    z 0.000000 0.000000 1.639230 
# 
# From -- ./inp_files/72841.got.cif
#   From: 2010.05.17/outbox.cif.g08.bks.cpg/sg65_37_cif.got.tgz:72841.got - 2010.06.03 17:01:31.
