data_PCOD9488191
_publ_section_title
;
Structure prediction by ZEFSAII (Michael W. Deem and Ramdas Pophale) SiO2 
 PCOD9488191
Probable space group: C M M M
;
_chemical_formula_sum "Si O2"
_cell_formula_units_Z 88
_cell_length_a 9.166807
_cell_length_b 19.486671
_cell_length_c 29.156833
_cell_angle_alpha 90.000000
_cell_angle_beta 90.000000
_cell_angle_gamma 90.000000
_cell_volume 5208.301177
_symmetry_space_group_name_H-M "C M M M"
_symmetry_group_IT_number 65
_symmetry_cell_setting 'orthorhombic'
loop_
_space_group_symop_operation_xyz
x,y,z
-x,-y,z
x,-y,-z
-x,y,-z
-x,-y,-z
x,y,-z
-x,y,z
x,-y,z
1/2+x,1/2+y,z
1/2-x,1/2-y,z
1/2+x,1/2-y,-z
1/2-x,1/2+y,-z
1/2-x,1/2-y,-z
1/2+x,1/2+y,-z
1/2-x,1/2+y,z
1/2+x,1/2-y,z
loop_
_atom_site_type_symbol
_atom_site_label
_atom_site_fract_x
_atom_site_fract_y
_atom_site_fract_z
Si Si1 0.330555 0.083312 0.051087
Si Si2 0.825163 0.323972 0.218247
Si Si3 0.327850 0.417726 0.856387
Si Si4 0.831575 0.916465 0.500000
Si Si5 0.325317 0.177104 0.676621
Si Si6 0.675014 0.080472 0.593079
O O1 0.500000 0.102898 0.058243
O O2 0.232115 0.104732 0.093720
O O3 0.326924 0.000000 0.050358
O O4 0.285053 0.106429 0.000000
O O5 0.750000 0.250000 0.210927
O O6 0.759470 0.377894 0.182711
O O7 0.792686 0.344772 0.271062
O O8 0.000000 0.318434 0.213111
O O9 0.500000 0.404214 0.852734
O O10 0.305391 0.500000 0.852398
O O11 0.751610 0.894457 0.453440
O O12 0.000000 0.895655 0.500000
O O13 0.825589 0.000000 0.500000
O O14 0.500000 0.185475 0.673777
O O15 0.250000 0.250000 0.668706
O O16 0.280727 0.123319 0.637716
O O17 0.500000 0.085693 0.587535
O O18 0.709969 0.000000 0.599453
#
# Coordination Sequence:
#
# PCOD9488191 Si02
#       6
#    16  16  16   8  16  16
#     4   8  14  26  45  69  97 129 164 201 243 291
#     4  10  20  35  54  73  97 131 168 205 248 299
#     4  10  20  32  48  74 105 133 165 206 247 289
#     4   9  17  29  46  71 100 127 157 193 236 283
#     4   9  19  34  52  73  96 125 160 199 242 289
#     4   9  17  31  51  73  97 126 160 196 235 281
#
# _framework density 16.896104999999999
#
# number of rings (size 3 to 8) (size 9 to 14) (size 15 to 20)
#    0.000    2.818    0.000    1.909    0.000    4.727 
#    0.000    4.091    0.000    2.727    0.000    0.000 
#    0.000    0.000    0.000    0.000    0.000    0.000 
#
# Total GULP energy -245198.730963 kJ/mol
# GULP energy per Si atom -5572.698431 kJ/mol
# Density = 1.685765 g / cm^3
# Si number density = 16.896105 Si / 1000 Ang^3
#
#
#
# Elastic Constant Matrix: (Units=GPa)
#
#
# Indices 1 2 3 4 5 6 
#
# 1 70.0565 42.4225 82.0706 0.0000 0.0000 0.0000
# 2 42.4225 41.2217 71.1517 0.0000 0.0000 0.0000
# 3 82.0706 71.1517 173.2874 0.0000 0.0000 0.0000
# 4 0.0000 0.0000 0.0000 -17.1971 0.0000 0.0000
# 5 0.0000 0.0000 0.0000 0.0000 22.8130 0.0000
# 6 0.0000 0.0000 0.0000 0.0000 0.0000 22.9985
#
#
#
# Elastic Compliance Matrix: (Units=1/GPa)
#
#
# Indices 1 2 3 4 5 6 
#
# 1 0.040245 -0.029243 -0.007053 0.000000 0.000000 0.000000
# 2 -0.029243 0.104534 -0.029072 0.000000 0.000000 0.000000
# 3 -0.007053 -0.029072 0.021048 0.000000 0.000000 0.000000
# 4 0.000000 0.000000 0.000000 -0.058149 0.000000 0.000000
# 5 0.000000 0.000000 0.000000 0.000000 0.043835 0.000000
# 6 0.000000 0.000000 0.000000 0.000000 0.000000 0.043481
#
#
# Mechanical properties :
#
#
# Convention : Reuss Voigt Hill
#
# Bulk Modulus (GPa) = 28.49713 75.09503 51.79608
# Shear Modulus (GPa) = 14.81798 11.65093 13.23446
#
# Velocity S-wave (km/s) = 2.96464 2.62880 2.80176
# Velocity P-wave (km/s) = 5.34991 7.33183 6.41784
#
# Compressibility (1/GPa) = 0.03509126
#
# Stress axis : x y z
#
# Youngs Moduli (GPa) = 24.84776 9.56623 47.50965
#
# Poissons Ratio (x) = 0.27974 0.33511
# Poissons Ratio (y) = 0.72662 1.38121
# Poissons Ratio (z) = 0.17526 0.27811
#
# Static dielectric constant tensor:
#      x y z
#    x 1.561390 0.000000 0.000000 
#    y 0.000000 1.546240 0.000000 
#    z 0.000000 0.000000 1.574750 
# 
# From -- ./inp_files/73151.got.cif
#   From: 2010.05.17/outbox.cif.g08.bks.cpg/sg65_37_cif.got.tgz:73151.got - 2010.06.03 17:01:31.
