data_PCOD9488160
_publ_section_title
;
Structure prediction by ZEFSAII (Michael W. Deem and Ramdas Pophale) SiO2 
 PCOD9488160
Probable space group: C M M M
;
_chemical_formula_sum "Si O2"
_cell_formula_units_Z 96
_cell_length_a 33.002026
_cell_length_b 15.717322
_cell_length_c 9.299325
_cell_angle_alpha 90.000000
_cell_angle_beta 90.000000
_cell_angle_gamma 90.000000
_cell_volume 4823.592140
_symmetry_space_group_name_H-M "C M M M"
_symmetry_group_IT_number 65
_symmetry_cell_setting 'orthorhombic'
loop_
_space_group_symop_operation_xyz
x,y,z
-x,-y,z
x,-y,-z
-x,y,-z
-x,-y,-z
x,y,-z
-x,y,z
x,-y,z
1/2+x,1/2+y,z
1/2-x,1/2-y,z
1/2+x,1/2-y,-z
1/2-x,1/2+y,-z
1/2-x,1/2-y,-z
1/2+x,1/2+y,-z
1/2-x,1/2+y,z
1/2+x,1/2-y,z
loop_
_atom_site_type_symbol
_atom_site_label
_atom_site_fract_x
_atom_site_fract_y
_atom_site_fract_z
Si Si1 0.123333 0.637394 0.163217
Si Si2 0.791960 0.900438 0.327308
Si Si3 0.455205 0.850240 0.328166
Si Si4 0.795967 0.398330 0.337723
Si Si5 0.043921 0.167036 0.172920
Si Si6 0.630430 0.341528 0.162120
O O1 0.083739 0.608946 0.251862
O O2 0.165246 0.615401 0.240147
O O3 0.123233 0.740185 0.158507
O O4 0.121870 0.605976 0.000000
O O5 0.792422 0.894036 0.500000
O O6 0.747632 0.865940 0.281610
O O7 0.831311 0.857823 0.261306
O O8 0.794624 0.000000 0.288087
O O9 0.449432 0.848191 0.500000
O O10 0.500000 0.888056 0.299057
O O11 0.456937 0.754417 0.263632
O O12 0.803058 0.364596 0.500000
O O13 0.790561 0.500000 0.349769
O O14 0.086479 0.121674 0.208245
O O15 0.000000 0.124288 0.196812
O O16 0.046112 0.185771 0.000000
O O17 0.639489 0.371205 0.000000
#
# Coordination Sequence:
#
# PCOD9488160 Si02
#       6
#    16  16  16  16  16  16
#     4  10  20  32  48  73 102 128 156 193 237 282
#     4   9  19  35  52  69  91 123 161 198 239 287
#     4   9  16  26  43  68  96 126 160 194 229 273
#     4   9  19  36  54  70  91 122 160 198 237 285
#     4   8  14  26  43  64  94 128 158 191 233 279
#     4   9  18  30  46  72 100 125 156 195 236 277
#
# _framework density 19.902180999999999
#
# number of rings (size 3 to 8) (size 9 to 14) (size 15 to 20)
#    0.000    3.000    0.000    3.000    0.000    6.333 
#    0.000    5.000    0.000    1.000    0.000    7.000 
#    0.000    0.000    0.000    0.000    0.000    0.000 
#
# Total GULP energy -267289.025851 kJ/mol
# GULP energy per Si atom -5568.521372 kJ/mol
# Density = 1.985688 g / cm^3
# Si number density = 19.902181 Si / 1000 Ang^3
#
#
#
# Elastic Constant Matrix: (Units=GPa)
#
#
# Indices 1 2 3 4 5 6 
#
# 1 230.5511 16.3450 82.0468 0.0000 0.0000 0.0000
# 2 16.3450 14.2099 8.9616 0.0000 0.0000 0.0000
# 3 82.0468 8.9616 71.1616 0.0000 0.0000 0.0000
# 4 0.0000 0.0000 0.0000 42.8190 0.0000 0.0000
# 5 0.0000 0.0000 0.0000 0.0000 33.3072 0.0000
# 6 0.0000 0.0000 0.0000 0.0000 0.0000 50.3950
#
#
#
# Elastic Compliance Matrix: (Units=1/GPa)
#
#
# Indices 1 2 3 4 5 6 
#
# 1 0.007508 -0.003451 -0.008222 0.000000 0.000000 0.000000
# 2 -0.003451 0.078031 -0.005848 0.000000 0.000000 0.000000
# 3 -0.008222 -0.005848 0.024269 0.000000 0.000000 0.000000
# 4 0.000000 0.000000 0.000000 0.023354 0.000000 0.000000
# 5 0.000000 0.000000 0.000000 0.000000 0.030024 0.000000
# 6 0.000000 0.000000 0.000000 0.000000 0.000000 0.019843
#
#
# Mechanical properties :
#
#
# Convention : Reuss Voigt Hill
#
# Bulk Modulus (GPa) = 13.37507 58.95881 36.16694
# Shear Modulus (GPa) = 20.57683 39.20885 29.89284
#
# Velocity S-wave (km/s) = 3.21892 4.44337 3.87975
# Velocity P-wave (km/s) = 4.53324 7.48421 6.18723
#
# Compressibility (1/GPa) = 0.07476596
#
# Stress axis : x y z
#
# Youngs Moduli (GPa) = 133.19055 12.81545 41.20561
#
# Poissons Ratio (x) = 0.04422 0.33879
# Poissons Ratio (y) = 0.45963 0.24097
# Poissons Ratio (z) = 1.09508 0.07494
#
# Static dielectric constant tensor:
#      x y z
#    x 1.773100 0.000000 0.000000 
#    y 0.000000 1.726330 0.000000 
#    z 0.000000 0.000000 1.677340 
# 
# From -- ./inp_files/12262.got.cif
#   From: 2010.05.17/outbox.cif.g08.bks.cpg/sg65_7_cif.got.tgz:12262.got - 2010.06.03 17:01:31.
