data_PCOD9488772
_publ_section_title
;
Structure prediction by ZEFSAII (Michael W. Deem and Ramdas Pophale) SiO2 
 PCOD9488772
Probable space group: C M M M
;
_chemical_formula_sum "Si O2"
_cell_formula_units_Z 72
_cell_length_a 32.631725
_cell_length_b 8.616913
_cell_length_c 13.865890
_cell_angle_alpha 90.000000
_cell_angle_beta 90.000000
_cell_angle_gamma 90.000000
_cell_volume 3898.876610
_symmetry_space_group_name_H-M "C M M M"
_symmetry_group_IT_number 65
_symmetry_cell_setting 'orthorhombic'
loop_
_space_group_symop_operation_xyz
x,y,z
-x,-y,z
x,-y,-z
-x,y,-z
-x,-y,-z
x,y,-z
-x,y,z
x,-y,z
1/2+x,1/2+y,z
1/2-x,1/2-y,z
1/2+x,1/2-y,-z
1/2-x,1/2+y,-z
1/2-x,1/2-y,-z
1/2+x,1/2+y,-z
1/2-x,1/2+y,z
1/2+x,1/2-y,z
loop_
_atom_site_type_symbol
_atom_site_label
_atom_site_fract_x
_atom_site_fract_y
_atom_site_fract_z
Si Si1 0.622776 0.685946 0.391024
Si Si2 0.582883 0.814118 0.201990
Si Si3 0.331572 0.811527 0.892980
Si Si4 0.000000 0.185807 0.888598
Si Si5 0.706149 0.186480 0.307531
O O1 0.610900 0.728027 0.500000
O O2 0.622736 0.500000 0.382281
O O3 0.593778 0.756936 0.309143
O O4 0.668416 0.748042 0.368913
O O5 0.621933 0.766990 0.135824
O O6 0.540834 0.746503 0.162688
O O7 0.581079 0.000000 0.201118
O O8 0.303119 0.763479 0.803600
O O9 0.330536 0.000000 0.894787
O O10 0.320714 0.755016 0.000000
O O11 0.000000 0.000000 0.886554
O O12 0.000000 0.238210 0.000000
O O13 0.750000 0.250000 0.338423
O O14 0.705466 0.000000 0.311758
#
# Coordination Sequence:
#
# PCOD9488772 Si02
#       5
#    16  16  16   8  16
#     4  10  21  38  59  80 105 139 177 222 277 332
#     4  10  20  35  57  83 111 143 180 224 269 319
#     4   8  15  29  49  73 102 137 175 214 260 314
#     4  11  23  37  56  85 120 153 183 218 260 309
#     4  10  20  33  51  76 106 140 179 225 272 321
#
# _framework density 18.466858999999999
#
# number of rings (size 3 to 8) (size 9 to 14) (size 15 to 20)
#    0.000    2.333    0.000    4.333    0.000    4.444 
#    0.000    0.556    0.000   16.000    0.000    0.000 
#    0.000    0.000    0.000    0.000    0.000    0.000 
#
# Total GULP energy -200949.562228 kJ/mol
# GULP energy per Si atom -5581.932284 kJ/mol
# Density = 1.842483 g / cm^3
# Si number density = 18.466859 Si / 1000 Ang^3
#
#
#
# Elastic Constant Matrix: (Units=GPa)
#
#
# Indices 1 2 3 4 5 6 
#
# 1 100.5440 22.3875 26.5593 0.0000 0.0000 0.0000
# 2 22.3875 42.0868 22.7798 0.0000 0.0000 0.0000
# 3 26.5593 22.7798 98.2791 0.0000 0.0000 0.0000
# 4 0.0000 0.0000 0.0000 23.0852 0.0000 0.0000
# 5 0.0000 0.0000 0.0000 0.0000 -16.6755 0.0000
# 6 0.0000 0.0000 0.0000 0.0000 0.0000 25.9813
#
#
#
# Elastic Compliance Matrix: (Units=1/GPa)
#
#
# Indices 1 2 3 4 5 6 
#
# 1 0.011600 -0.005115 -0.001949 0.000000 0.000000 0.000000
# 2 -0.005115 0.029425 -0.005438 0.000000 0.000000 0.000000
# 3 -0.001949 -0.005438 0.011962 0.000000 0.000000 0.000000
# 4 0.000000 0.000000 0.000000 0.043318 0.000000 0.000000
# 5 0.000000 0.000000 0.000000 0.000000 -0.059968 0.000000
# 6 0.000000 0.000000 0.000000 0.000000 0.000000 0.038489
#
#
# Mechanical properties :
#
#
# Convention : Reuss Voigt Hill
#
# Bulk Modulus (GPa) = 35.73711 42.70701 39.22206
# Shear Modulus (GPa) = 45.80529 17.75708 31.78118
#
# Velocity S-wave (km/s) = 4.98577 3.10427 4.15298
# Velocity P-wave (km/s) = 7.24830 6.00210 6.65444
#
# Compressibility (1/GPa) = 0.02798212
#
# Stress axis : x y z
#
# Youngs Moduli (GPa) = 86.20858 33.98494 83.59627
#
# Poissons Ratio (x) = 0.17385 0.16294
# Poissons Ratio (y) = 0.44099 0.45459
# Poissons Ratio (z) = 0.16803 0.18481
#
# Static dielectric constant tensor:
#      x y z
#    x 1.601740 0.000000 0.000000 
#    y 0.000000 1.615610 0.000000 
#    z 0.000000 0.000000 1.648740 
# 
# From -- ./inp_files/47472.got.cif
#   From: 2010.05.17/outbox.cif.g08.bks.cpg/sg65_24_cif.got.tgz:47472.got - 2010.06.03 17:01:31.
