data_PCOD9488023
_publ_section_title
;
Structure prediction by ZEFSAII (Michael W. Deem and Ramdas Pophale) SiO2 
 PCOD9488023
Probable space group: C M M M
;
_chemical_formula_sum "Si O2"
_cell_formula_units_Z 104
_cell_length_a 8.431747
_cell_length_b 29.497371
_cell_length_c 23.676485
_cell_angle_alpha 90.000000
_cell_angle_beta 90.000000
_cell_angle_gamma 90.000000
_cell_volume 5888.682037
_symmetry_space_group_name_H-M "C M M M"
_symmetry_group_IT_number 65
_symmetry_cell_setting 'orthorhombic'
loop_
_space_group_symop_operation_xyz
x,y,z
-x,-y,z
x,-y,-z
-x,y,-z
-x,-y,-z
x,y,-z
-x,y,z
x,-y,z
1/2+x,1/2+y,z
1/2-x,1/2-y,z
1/2+x,1/2-y,-z
1/2-x,1/2+y,-z
1/2-x,1/2-y,-z
1/2+x,1/2+y,-z
1/2-x,1/2+y,z
1/2+x,1/2-y,z
loop_
_atom_site_type_symbol
_atom_site_label
_atom_site_fract_x
_atom_site_fract_y
_atom_site_fract_z
Si Si1 0.310268 0.140351 0.665842
Si Si2 0.808412 0.698613 0.225701
Si Si3 0.692110 0.198442 0.000000
Si Si4 0.189461 0.948718 0.281214
Si Si5 0.806263 0.353986 0.112381
Si Si6 0.810139 0.799976 0.435136
Si Si7 0.191123 0.449405 0.153911
O O1 0.500000 0.139776 0.666716
O O2 0.254687 0.171191 0.718895
O O3 0.248130 0.089955 0.676961
O O4 0.252552 0.163094 0.608361
O O5 0.750000 0.750000 0.226625
O O6 0.756270 0.672993 0.168662
O O7 0.000000 0.698680 0.225831
O O8 0.750000 0.250000 0.000000
O O9 0.745627 0.171887 0.943850
O O10 0.500000 0.198823 0.000000
O O11 0.262958 0.940869 0.219098
O O12 0.000000 0.946470 0.276116
O O13 0.233595 0.000000 0.298378
O O14 0.753643 0.406286 0.117814
O O15 0.000000 0.354218 0.112114
O O16 0.757666 0.807841 0.500000
O O17 0.750000 0.750000 0.418193
O O18 0.000000 0.799759 0.433975
O O19 0.249790 0.500000 0.138502
O O20 0.000000 0.450308 0.150672
#
# Coordination Sequence:
#
# PCOD9488023 Si02
#       7
#    16  16   8  16  16  16  16
#     4  11  21  34  54  78 106 140 177 218 264 315
#     4  10  20  32  46  69 101 131 165 210 259 306
#     4  10  20  34  53  69  95 135 174 216 255 306
#     4  10  20  33  51  78 109 137 170 214 264 319
#     4   9  17  32  49  71  99 130 169 213 258 305
#     4  10  21  37  56  79 110 147 184 221 261 308
#     4   9  16  30  52  73  98 132 167 207 260 320
#
# _framework density 17.660996000000001
#
# number of rings (size 3 to 8) (size 9 to 14) (size 15 to 20)
#    0.000    2.154    1.538    2.308    0.000    4.308 
#    0.000    1.154    0.000    2.769    0.000    3.231 
#    0.000    3.077    0.000    0.000    0.000    0.000 
#
# Total GULP energy -290200.482028 kJ/mol
# GULP energy per Si atom -5580.778501 kJ/mol
# Density = 1.762080 g / cm^3
# Si number density = 17.660996 Si / 1000 Ang^3
#
#
#
# Elastic Constant Matrix: (Units=GPa)
#
#
# Indices 1 2 3 4 5 6 
#
# 1 11.5495 18.1519 12.2871 0.0000 0.0000 0.0000
# 2 18.1519 176.0026 81.6383 0.0000 0.0000 0.0000
# 3 12.2871 81.6383 94.6269 0.0000 0.0000 0.0000
# 4 0.0000 0.0000 0.0000 33.3152 0.0000 0.0000
# 5 0.0000 0.0000 0.0000 0.0000 12.1547 0.0000
# 6 0.0000 0.0000 0.0000 0.0000 0.0000 27.3472
#
#
#
# Elastic Compliance Matrix: (Units=1/GPa)
#
#
# Indices 1 2 3 4 5 6 
#
# 1 0.106225 -0.007598 -0.007238 0.000000 0.000000 0.000000
# 2 -0.007598 0.010016 -0.007654 0.000000 0.000000 0.000000
# 3 -0.007238 -0.007654 0.018111 0.000000 0.000000 0.000000
# 4 0.000000 0.000000 0.000000 0.030016 0.000000 0.000000
# 5 0.000000 0.000000 0.000000 0.000000 0.082273 0.000000
# 6 0.000000 0.000000 0.000000 0.000000 0.000000 0.036567
#
#
# Mechanical properties :
#
#
# Convention : Reuss Voigt Hill
#
# Bulk Modulus (GPa) = 11.18923 56.25928 33.72426
# Shear Modulus (GPa) = 13.96725 25.90353 19.93539
#
# Velocity S-wave (km/s) = 2.81526 3.83392 3.36338
# Velocity P-wave (km/s) = 4.11302 7.17794 5.84978
#
# Compressibility (1/GPa) = 0.08937166
#
# Stress axis : x y z
#
# Youngs Moduli (GPa) = 9.41394 99.84160 55.21370
#
# Poissons Ratio (x) = 0.75861 0.39963
# Poissons Ratio (y) = 0.07153 0.42263
# Poissons Ratio (z) = 0.06814 0.76423
#
# Static dielectric constant tensor:
#      x y z
#    x 1.599820 0.000000 0.000000 
#    y 0.000000 1.602700 0.000000 
#    z 0.000000 0.000000 1.583490 
# 
# From -- ./inp_files/68524.got.cif
#   From: 2010.05.17/outbox.cif.g08.bks.cpg/sg65_35_cif.got.tgz:68524.got - 2010.06.03 17:01:31.
