data_PCOD9488926
_publ_section_title
;
Structure prediction by ZEFSAII (Michael W. Deem and Ramdas Pophale) SiO2 
 PCOD9488926
Probable space group: C M M M
;
_chemical_formula_sum "Si O2"
_cell_formula_units_Z 72
_cell_length_a 17.515944
_cell_length_b 25.074685
_cell_length_c 7.586065
_cell_angle_alpha 90.000000
_cell_angle_beta 90.000000
_cell_angle_gamma 90.000000
_cell_volume 3331.851168
_symmetry_space_group_name_H-M "C M M M"
_symmetry_group_IT_number 65
_symmetry_cell_setting 'orthorhombic'
loop_
_space_group_symop_operation_xyz
x,y,z
-x,-y,z
x,-y,-z
-x,y,-z
-x,-y,-z
x,y,-z
-x,y,z
x,-y,z
1/2+x,1/2+y,z
1/2-x,1/2-y,z
1/2+x,1/2-y,-z
1/2-x,1/2+y,-z
1/2-x,1/2-y,-z
1/2+x,1/2+y,-z
1/2-x,1/2+y,z
1/2+x,1/2-y,z
loop_
_atom_site_type_symbol
_atom_site_label
_atom_site_fract_x
_atom_site_fract_y
_atom_site_fract_z
Si Si1 0.380773 0.351581 0.295717
Si Si2 0.085479 0.439033 0.214491
Si Si3 0.083087 0.266942 0.204299
Si Si4 0.204513 0.650311 0.786184
Si Si5 0.000000 0.938905 0.715133
O O1 0.401690 0.345376 0.500000
O O2 0.405768 0.296339 0.208128
O O3 0.289989 0.355705 0.280449
O O4 0.426664 0.403432 0.230469
O O5 0.098320 0.500000 0.270483
O O6 0.150997 0.398806 0.269081
O O7 0.000000 0.422729 0.269970
O O8 0.085290 0.438750 0.000000
O O9 0.157526 0.297351 0.274954
O O10 0.000000 0.280043 0.283862
O O11 0.079281 0.284117 0.000000
O O12 0.211069 0.651548 0.000000
O O13 0.000000 0.941767 0.500000
O O14 0.000000 0.000000 0.778196
#
# Coordination Sequence:
#
# PCOD9488926 Si02
#       5
#    16  16  16  16   8
#     4  11  22  37  56  78 104 137 178 224 270 319
#     4   8  14  27  49  76 106 139 175 215 257 305
#     4  10  20  35  56  79 108 144 178 214 263 321
#     4  10  20  33  52  81 112 141 175 216 266 321
#     4   9  20  40  61  77  99 139 186 227 272 326
#
# _framework density 21.609608999999999
#
# number of rings (size 3 to 8) (size 9 to 14) (size 15 to 20)
#    0.000    2.333    1.111    2.667    0.000    7.111 
#    0.000    0.000    0.000    6.667    0.000    1.556 
#    0.000    0.000    0.000    0.000    0.000    0.000 
#
# Total GULP energy -201001.173016 kJ/mol
# GULP energy per Si atom -5583.365917 kJ/mol
# Density = 2.156042 g / cm^3
# Si number density = 21.609609 Si / 1000 Ang^3
#
#
#
# Elastic Constant Matrix: (Units=GPa)
#
#
# Indices 1 2 3 4 5 6 
#
# 1 188.0737 86.8369 -0.5247 0.0000 0.0000 0.0000
# 2 86.8369 135.9936 -3.8642 0.0000 0.0000 0.0000
# 3 -0.5247 -3.8642 48.0324 0.0000 0.0000 0.0000
# 4 0.0000 0.0000 0.0000 -2.1878 0.0000 0.0000
# 5 0.0000 0.0000 0.0000 0.0000 20.3396 0.0000
# 6 0.0000 0.0000 0.0000 0.0000 0.0000 12.1844
#
#
#
# Elastic Compliance Matrix: (Units=1/GPa)
#
#
# Indices 1 2 3 4 5 6 
#
# 1 0.007545 -0.004826 -0.000306 0.000000 0.000000 0.000000
# 2 -0.004826 0.010457 0.000789 0.000000 0.000000 0.000000
# 3 -0.000306 0.000789 0.020879 0.000000 0.000000 0.000000
# 4 0.000000 0.000000 0.000000 -0.457081 0.000000 0.000000
# 5 0.000000 0.000000 0.000000 0.000000 0.049165 0.000000
# 6 0.000000 0.000000 0.000000 0.000000 0.000000 0.082072
#
#
# Mechanical properties :
#
#
# Convention : Reuss Voigt Hill
#
# Bulk Modulus (GPa) = 33.11865 59.66617 46.39241
# Shear Modulus (GPa) = -18.64210 25.37735 3.36763
#
# Velocity S-wave (km/s) = -2.94032 3.43060 1.24971
# Velocity P-wave (km/s) = 1.95751 6.58505 4.85771
#
# Compressibility (1/GPa) = 0.03019447
#
# Stress axis : x y z
#
# Youngs Moduli (GPa) = 132.54643 95.62633 47.89409
#
# Poissons Ratio (x) = 0.46151 0.01465
# Poissons Ratio (y) = 0.63969 -0.03777
# Poissons Ratio (z) = 0.04054 -0.07541
#
# Static dielectric constant tensor:
#      x y z
#    x 1.773240 0.000000 0.000000 
#    y 0.000000 1.768170 0.000000 
#    z 0.000000 0.000000 1.826660 
# 
# From -- ./inp_files/7320.got.cif
#   From: 2010.05.17/outbox.cif.g08.bks.cpg/sg65_4_cif.got.tgz:7320.got - 2010.06.03 17:01:31.
