data_PCOD9488516
_publ_section_title
;
Structure prediction by ZEFSAII (Michael W. Deem and Ramdas Pophale) SiO2 
 PCOD9488516
Probable space group: C M M M
;
_chemical_formula_sum "Si O2"
_cell_formula_units_Z 88
_cell_length_a 7.184362
_cell_length_b 34.918637
_cell_length_c 14.044034
_cell_angle_alpha 90.000000
_cell_angle_beta 90.000000
_cell_angle_gamma 90.000000
_cell_volume 3523.200530
_symmetry_space_group_name_H-M "C M M M"
_symmetry_group_IT_number 65
_symmetry_cell_setting 'orthorhombic'
loop_
_space_group_symop_operation_xyz
x,y,z
-x,-y,z
x,-y,-z
-x,y,-z
-x,-y,-z
x,y,-z
-x,y,z
x,-y,z
1/2+x,1/2+y,z
1/2-x,1/2-y,z
1/2+x,1/2-y,-z
1/2-x,1/2+y,-z
1/2-x,1/2-y,-z
1/2+x,1/2+y,-z
1/2-x,1/2+y,z
1/2+x,1/2-y,z
loop_
_atom_site_type_symbol
_atom_site_label
_atom_site_fract_x
_atom_site_fract_y
_atom_site_fract_z
Si Si1 0.273966 0.067392 0.500000
Si Si2 0.273705 0.187334 0.106908
Si Si3 0.775459 0.601997 0.158062
Si Si4 0.273722 0.958355 0.701818
Si Si5 0.772446 0.343742 0.500000
Si Si6 0.725741 0.042673 0.000000
Si Si7 0.219672 0.293268 0.680544
O O1 0.500000 0.068408 0.500000
O O2 0.219267 0.044669 0.406834
O O3 0.216686 0.111869 0.500000
O O4 0.500000 0.190015 0.104731
O O5 0.215393 0.142984 0.120809
O O6 0.211348 0.204784 0.208954
O O7 0.286447 0.299484 0.000000
O O8 0.716742 0.583066 0.256453
O O9 0.000000 0.605350 0.158097
O O10 0.720166 0.567869 0.088880
O O11 0.500000 0.958589 0.711012
O O12 0.214995 0.000000 0.742505
O O13 0.712697 0.322045 0.402276
O O14 0.000000 0.342373 0.500000
O O15 0.500000 0.041101 0.000000
O O16 0.794517 0.000000 0.000000
O O17 0.250000 0.250000 0.646590
O O18 0.000000 0.301230 0.688526
#
# Coordination Sequence:
#
# PCOD9488516 Si02
#       7
#     8  16  16  16   8   8  16
#     4   9  15  23  34  48  69 100 139 179 212 247
#     4   9  16  27  42  60  82 112 150 188 222 262
#     4   9  14  21  31  45  67  98 137 177 211 243
#     4   9  15  20  27  42  67 100 139 181 216 246
#     4   9  17  30  46  65  85 110 147 187 224 265
#     4   9  14  18  26  42  65  94 131 171 205 237
#     4  10  20  33  50  70  92 116 146 186 228 272
#
# _framework density 24.977291000000001
#
# number of rings (size 3 to 8) (size 9 to 14) (size 15 to 20)
#    0.000    2.818    0.909    2.182    0.000    8.000 
#    0.000    0.000    0.000    0.000    0.000    0.000 
#    0.000    0.000    0.000    0.000    0.000   48.182 
#
# Total GULP energy -245460.220728 kJ/mol
# GULP energy per Si atom -5578.641380 kJ/mol
# Density = 2.492044 g / cm^3
# Si number density = 24.977291 Si / 1000 Ang^3
#
#
#
# Elastic Constant Matrix: (Units=GPa)
#
#
# Indices 1 2 3 4 5 6 
#
# 1 126.4323 -9.2423 1.2418 0.0000 0.0000 0.0000
# 2 -9.2423 119.8415 18.8188 0.0000 0.0000 0.0000
# 3 1.2418 18.8188 116.1275 0.0000 0.0000 0.0000
# 4 0.0000 0.0000 0.0000 44.7176 0.0000 0.0000
# 5 0.0000 0.0000 0.0000 0.0000 -18.8680 0.0000
# 6 0.0000 0.0000 0.0000 0.0000 0.0000 -22.5120
#
#
#
# Elastic Compliance Matrix: (Units=1/GPa)
#
#
# Indices 1 2 3 4 5 6 
#
# 1 0.007958 0.000643 -0.000189 0.000000 0.000000 0.000000
# 2 0.000643 0.008614 -0.001403 0.000000 0.000000 0.000000
# 3 -0.000189 -0.001403 0.008841 0.000000 0.000000 0.000000
# 4 0.000000 0.000000 0.000000 0.022363 0.000000 0.000000
# 5 0.000000 0.000000 0.000000 0.000000 -0.053000 0.000000
# 6 0.000000 0.000000 0.000000 0.000000 0.000000 -0.044421
#
#
# Mechanical properties :
#
#
# Convention : Reuss Voigt Hill
#
# Bulk Modulus (GPa) = 42.52490 42.67090 42.59790
# Shear Modulus (GPa) = -125.28582 24.10637 -50.58972
#
# Velocity S-wave (km/s) = -7.09005 3.11003 -4.50536
# Velocity P-wave (km/s) = 7.06843 5.47881 3.15795
#
# Compressibility (1/GPa) = 0.02351564
#
# Stress axis : x y z
#
# Youngs Moduli (GPa) = 125.65546 116.08643 113.11468
#
# Poissons Ratio (x) = -0.07470 0.02142
# Poissons Ratio (y) = -0.08086 0.15868
# Poissons Ratio (z) = 0.02380 0.16285
#
# Static dielectric constant tensor:
#      x y z
#    x 2.191060 0.000000 0.000000 
#    y 0.000000 1.893910 0.000000 
#    z 0.000000 0.000000 2.272950 
# 
# From -- ./inp_files/38873.got.cif
#   From: 2010.05.17/outbox.cif.g08.bks.cpg/sg65_20_cif.got.tgz:38873.got - 2010.06.03 17:01:31.
