data_PCOD9488263
_publ_section_title
;
Structure prediction by ZEFSAII (Michael W. Deem and Ramdas Pophale) SiO2 
 PCOD9488263
Probable space group: C M M M
;
_chemical_formula_sum "Si O2"
_cell_formula_units_Z 112
_cell_length_a 28.795095
_cell_length_b 15.059473
_cell_length_c 14.987762
_cell_angle_alpha 90.000000
_cell_angle_beta 90.000000
_cell_angle_gamma 90.000000
_cell_volume 6499.277462
_symmetry_space_group_name_H-M "C M M M"
_symmetry_group_IT_number 65
_symmetry_cell_setting 'orthorhombic'
loop_
_space_group_symop_operation_xyz
x,y,z
-x,-y,z
x,-y,-z
-x,y,-z
-x,-y,-z
x,y,-z
-x,y,z
x,-y,z
1/2+x,1/2+y,z
1/2-x,1/2-y,z
1/2+x,1/2-y,-z
1/2-x,1/2+y,-z
1/2-x,1/2-y,-z
1/2+x,1/2+y,-z
1/2-x,1/2+y,z
1/2+x,1/2-y,z
loop_
_atom_site_type_symbol
_atom_site_label
_atom_site_fract_x
_atom_site_fract_y
_atom_site_fract_z
Si Si1 0.196565 0.773636 0.233922
Si Si2 0.424572 0.904783 0.396259
Si Si3 0.637710 0.395165 0.894233
Si Si4 0.280150 0.604485 0.397842
Si Si5 0.176838 0.400508 0.326112
Si Si6 0.553472 0.605513 0.230923
Si Si7 0.554084 0.709825 0.601191
O O1 0.250000 0.750000 0.212932
O O2 0.173149 0.831556 0.157386
O O3 0.196687 0.832495 0.324639
O O4 0.172917 0.679463 0.256156
O O5 0.437733 0.907336 0.500000
O O6 0.368950 0.899390 0.386457
O O7 0.443594 0.811083 0.364328
O O8 0.439095 0.000000 0.355917
O O9 0.648073 0.500000 0.877165
O O10 0.587210 0.376278 0.851562
O O11 0.638239 0.381414 0.000000
O O12 0.290791 0.628713 0.500000
O O13 0.291702 0.500000 0.384661
O O14 0.224533 0.613023 0.380717
O O15 0.179909 0.500000 0.286130
O O16 0.500000 0.635558 0.217185
O O17 0.552301 0.500000 0.243764
O O18 0.574017 0.648741 0.321079
O O19 0.574013 0.704248 0.500000
O O20 0.500000 0.684519 0.593582
#
# Coordination Sequence:
#
# PCOD9488263 Si02
#       7
#    16  16  16  16  16  16  16
#     4  10  20  32  50  72  98 131 165 199 239 292
#     4   9  16  25  38  57  84 121 163 201 232 264
#     4  10  21  37  56  76  98 124 158 205 256 299
#     4   9  17  29  45  67  97 130 163 199 238 282
#     4   9  17  28  43  64  90 122 160 200 239 279
#     4   9  18  33  53  76 100 126 158 196 240 293
#     4   9  17  28  43  66  97 130 159 188 227 279
#
# _framework density 17.232686000000001
#
# number of rings (size 3 to 8) (size 9 to 14) (size 15 to 20)
#    0.000    2.714    0.000    1.714    0.000    6.571 
#    0.000    5.000    0.000    1.286    0.000    0.000 
#    0.000    0.000    0.000   12.286    0.000    0.429 
#
# Total GULP energy -311924.305951 kJ/mol
# GULP energy per Si atom -5570.076892 kJ/mol
# Density = 1.719346 g / cm^3
# Si number density = 17.232686 Si / 1000 Ang^3
#
#
#
# Elastic Constant Matrix: (Units=GPa)
#
#
# Indices 1 2 3 4 5 6 
#
# 1 44.1247 32.4604 34.2958 0.0000 0.0000 0.0000
# 2 32.4604 77.0582 66.9832 0.0000 0.0000 0.0000
# 3 34.2958 66.9832 105.0628 0.0000 0.0000 0.0000
# 4 0.0000 0.0000 0.0000 17.0625 0.0000 0.0000
# 5 0.0000 0.0000 0.0000 0.0000 18.8261 0.0000
# 6 0.0000 0.0000 0.0000 0.0000 0.0000 19.1376
#
#
#
# Elastic Compliance Matrix: (Units=1/GPa)
#
#
# Indices 1 2 3 4 5 6 
#
# 1 0.033713 -0.010398 -0.004376 0.000000 0.000000 0.000000
# 2 -0.010398 0.032317 -0.017209 0.000000 0.000000 0.000000
# 3 -0.004376 -0.017209 0.021918 0.000000 0.000000 0.000000
# 4 0.000000 0.000000 0.000000 0.058608 0.000000 0.000000
# 5 0.000000 0.000000 0.000000 0.000000 0.053118 0.000000
# 6 0.000000 0.000000 0.000000 0.000000 0.000000 0.052253
#
#
# Mechanical properties :
#
#
# Convention : Reuss Voigt Hill
#
# Bulk Modulus (GPa) = 41.69767 54.85828 48.27798
# Shear Modulus (GPa) = 15.43745 17.17234 16.30489
#
# Velocity S-wave (km/s) = 2.99628 3.16016 3.07931
# Velocity P-wave (km/s) = 6.01827 6.72447 6.38115
#
# Compressibility (1/GPa) = 0.02398215
#
# Stress axis : x y z
#
# Youngs Moduli (GPa) = 29.66184 30.94387 45.62360
#
# Poissons Ratio (x) = 0.32175 0.19965
# Poissons Ratio (y) = 0.30842 0.78515
# Poissons Ratio (z) = 0.12980 0.53253
#
# Static dielectric constant tensor:
#      x y z
#    x 1.621300 0.000000 0.000000 
#    y 0.000000 1.625590 0.000000 
#    z 0.000000 0.000000 1.559150 
# 
# From -- ./inp_files/47946.got.cif
#   From: 2010.05.17/outbox.cif.g08.bks.cpg/sg65_24_cif.got.tgz:47946.got - 2010.06.03 17:01:31.
