data_PCOD9489169
_publ_section_title
;
Structure prediction by ZEFSAII (Michael W. Deem and Ramdas Pophale) SiO2 
 PCOD9489169
Probable space group: C M M M
;
_chemical_formula_sum "Si O2"
_cell_formula_units_Z 72
_cell_length_a 25.751605
_cell_length_b 7.632573
_cell_length_c 17.725513
_cell_angle_alpha 90.000000
_cell_angle_beta 90.000000
_cell_angle_gamma 90.000000
_cell_volume 3483.967395
_symmetry_space_group_name_H-M "C M M M"
_symmetry_group_IT_number 65
_symmetry_cell_setting 'orthorhombic'
loop_
_space_group_symop_operation_xyz
x,y,z
-x,-y,z
x,-y,-z
-x,y,-z
-x,-y,-z
x,y,-z
-x,y,z
x,-y,z
1/2+x,1/2+y,z
1/2-x,1/2-y,z
1/2+x,1/2-y,-z
1/2-x,1/2+y,-z
1/2-x,1/2-y,-z
1/2+x,1/2+y,-z
1/2-x,1/2+y,z
1/2+x,1/2-y,z
loop_
_atom_site_type_symbol
_atom_site_label
_atom_site_fract_x
_atom_site_fract_y
_atom_site_fract_z
Si Si1 0.829437 0.795151 0.580310
Si Si2 0.500000 0.784944 0.086027
Si Si3 0.082266 0.706122 0.205969
Si Si4 0.806687 0.207835 0.746158
Si Si5 0.442938 0.786879 0.374545
O O1 0.812286 0.717003 0.500000
O O2 0.810584 0.717701 0.660153
O O3 0.891987 0.781929 0.584494
O O4 0.814892 0.000000 0.579980
O O5 0.450043 0.726618 0.134978
O O6 0.500000 0.000000 0.082903
O O7 0.500000 0.723868 0.000000
O O8 0.071051 0.500000 0.208613
O O9 0.144134 0.728696 0.206299
O O10 0.062870 0.773533 0.287288
O O11 0.750000 0.250000 0.776904
O O12 0.812511 0.000000 0.740562
O O13 0.500000 0.736119 0.402724
O O14 0.440183 0.000000 0.376905
#
# Coordination Sequence:
#
# PCOD9489169 Si02
#       5
#    16   8  16  16  16
#     4   9  19  33  45  62  91 124 160 205 255 301
#     4   9  16  28  53  87 114 135 160 192 237 291
#     4   9  16  30  51  75 104 134 163 199 239 287
#     4  10  20  34  52  73  95 127 170 212 252 295
#     4   9  16  27  44  65  91 126 165 201 238 284
#
# _framework density 20.666096
#
# number of rings (size 3 to 8) (size 9 to 14) (size 15 to 20)
#    0.000    2.778    1.111    0.667    0.000    2.667 
#    0.000    2.778    0.000    2.000    0.000    0.000 
#    0.000    0.000    0.000    0.000    0.000    0.000 
#
# Total GULP energy -200805.667757 kJ/mol
# GULP energy per Si atom -5577.935215 kJ/mol
# Density = 2.061906 g / cm^3
# Si number density = 20.666096 Si / 1000 Ang^3
#
#
#
# Elastic Constant Matrix: (Units=GPa)
#
#
# Indices 1 2 3 4 5 6 
#
# 1 133.7133 -16.1936 46.5805 0.0000 0.0000 0.0000
# 2 -16.1936 40.4426 5.6777 0.0000 0.0000 0.0000
# 3 46.5805 5.6777 126.6990 0.0000 0.0000 0.0000
# 4 0.0000 0.0000 0.0000 7.2954 0.0000 0.0000
# 5 0.0000 0.0000 0.0000 0.0000 51.4173 0.0000
# 6 0.0000 0.0000 0.0000 0.0000 0.0000 18.4926
#
#
#
# Elastic Compliance Matrix: (Units=1/GPa)
#
#
# Indices 1 2 3 4 5 6 
#
# 1 0.009236 0.004201 -0.003584 0.000000 0.000000 0.000000
# 2 0.004201 0.026794 -0.002745 0.000000 0.000000 0.000000
# 3 -0.003584 -0.002745 0.009333 0.000000 0.000000 0.000000
# 4 0.000000 0.000000 0.000000 0.137072 0.000000 0.000000
# 5 0.000000 0.000000 0.000000 0.000000 0.019449 0.000000
# 6 0.000000 0.000000 0.000000 0.000000 0.000000 0.054076
#
#
# Mechanical properties :
#
#
# Convention : Reuss Voigt Hill
#
# Bulk Modulus (GPa) = 24.32635 41.44266 32.88450
# Shear Modulus (GPa) = 18.25364 33.09374 25.67369
#
# Velocity S-wave (km/s) = 2.97520 4.00603 3.52846
# Velocity P-wave (km/s) = 4.85789 6.44164 5.70499
#
# Compressibility (1/GPa) = 0.04110769
#
# Stress axis : x y z
#
# Youngs Moduli (GPa) = 108.27238 37.32169 107.14290
#
# Poissons Ratio (x) = -0.15680 0.38398
# Poissons Ratio (y) = -0.45488 0.29414
# Poissons Ratio (z) = 0.38803 0.10246
#
# Static dielectric constant tensor:
#      x y z
#    x 1.765470 0.000000 0.000000 
#    y 0.000000 1.784740 0.000000 
#    z 0.000000 0.000000 1.744280 
# 
# From -- ./inp_files/49492.got.cif
#   From: 2010.05.17/outbox.cif.g08.bks.cpg/sg65_25_cif.got.tgz:49492.got - 2010.06.03 17:01:31.
