data_PCOD9489220
_publ_section_title
;
Structure prediction by ZEFSAII (Michael W. Deem and Ramdas Pophale) SiO2 
 PCOD9489220
Probable space group: C M M M
;
_chemical_formula_sum "Si O2"
_cell_formula_units_Z 88
_cell_length_a 9.246050
_cell_length_b 16.242931
_cell_length_c 29.467407
_cell_angle_alpha 90.000000
_cell_angle_beta 90.000000
_cell_angle_gamma 90.000000
_cell_volume 4425.502176
_symmetry_space_group_name_H-M "C M M M"
_symmetry_group_IT_number 65
_symmetry_cell_setting 'orthorhombic'
loop_
_space_group_symop_operation_xyz
x,y,z
-x,-y,z
x,-y,-z
-x,y,-z
-x,-y,-z
x,y,-z
-x,y,z
x,-y,z
1/2+x,1/2+y,z
1/2-x,1/2-y,z
1/2+x,1/2-y,-z
1/2-x,1/2+y,-z
1/2-x,1/2-y,-z
1/2+x,1/2+y,-z
1/2-x,1/2+y,z
1/2+x,1/2-y,z
loop_
_atom_site_type_symbol
_atom_site_label
_atom_site_fract_x
_atom_site_fract_y
_atom_site_fract_z
Si Si1 0.174171 0.836392 0.597734
Si Si2 0.334020 0.899261 0.139876
Si Si3 0.662683 0.097239 0.318385
Si Si4 0.166412 0.899047 0.230380
Si Si5 0.331628 0.600392 0.050469
Si Si6 0.175310 0.093473 0.500000
O O1 0.250000 0.750000 0.606102
O O2 0.239563 0.892469 0.637157
O O3 0.217909 0.864440 0.547044
O O4 0.000000 0.833531 0.600080
O O5 0.500000 0.873336 0.144065
O O6 0.241348 0.873580 0.183470
O O7 0.263816 0.871120 0.092601
O O8 0.332425 0.000000 0.139462
O O9 0.500000 0.131436 0.324463
O O10 0.743494 0.130835 0.273933
O O11 0.648281 0.000000 0.310557
O O12 0.000000 0.872867 0.232845
O O13 0.166576 0.000000 0.230916
O O14 0.500000 0.622879 0.056678
O O15 0.326925 0.500000 0.050606
O O16 0.284265 0.626966 0.000000
O O17 0.000000 0.092242 0.500000
O O18 0.227801 0.000000 0.500000
#
# Coordination Sequence:
#
# PCOD9489220 Si02
#       6
#    16  16  16  16  16   8
#     4  11  22  37  57  80 109 142 175 210 251 299
#     4   9  15  21  30  46  69  97 132 179 233 284
#     4  10  20  34  52  75 102 130 165 210 256 302
#     4   9  16  26  41  60  82 111 148 190 238 291
#     4   8  13  20  28  38  56  87 129 176 225 279
#     4   9  19  36  59  85 110 139 176 215 252 294
#
# _framework density 19.884747999999998
#
# number of rings (size 3 to 8) (size 9 to 14) (size 15 to 20)
#    0.000    2.636    0.000    3.545    0.000    6.545 
#    0.000    3.182    0.000    3.273    0.000    0.000 
#    0.000    0.000    0.000    0.000    0.000    0.909 
#
# Total GULP energy -245422.243109 kJ/mol
# GULP energy per Si atom -5577.778252 kJ/mol
# Density = 1.983949 g / cm^3
# Si number density = 19.884748 Si / 1000 Ang^3
#
#
#
# Elastic Constant Matrix: (Units=GPa)
#
#
# Indices 1 2 3 4 5 6 
#
# 1 138.4123 8.0029 89.7761 0.0000 0.0000 0.0000
# 2 8.0029 6.8725 -2.3988 0.0000 0.0000 0.0000
# 3 89.7761 -2.3988 168.2926 0.0000 0.0000 0.0000
# 4 0.0000 0.0000 0.0000 -19.8512 0.0000 0.0000
# 5 0.0000 0.0000 0.0000 0.0000 134.1567 0.0000
# 6 0.0000 0.0000 0.0000 0.0000 0.0000 8.3217
#
#
#
# Elastic Compliance Matrix: (Units=1/GPa)
#
#
# Indices 1 2 3 4 5 6 
#
# 1 0.012834 -0.017421 -0.007094 0.000000 0.000000 0.000000
# 2 -0.017421 0.169883 0.011715 0.000000 0.000000 0.000000
# 3 -0.007094 0.011715 0.009894 0.000000 0.000000 0.000000
# 4 0.000000 0.000000 0.000000 -0.050375 0.000000 0.000000
# 5 0.000000 0.000000 0.000000 0.000000 0.007454 0.000000
# 6 0.000000 0.000000 0.000000 0.000000 0.000000 0.120168
#
#
# Mechanical properties :
#
#
# Convention : Reuss Voigt Hill
#
# Bulk Modulus (GPa) = 5.98770 56.03754 31.01262
# Shear Modulus (GPa) = 14.23982 39.07190 26.65586
#
# Velocity S-wave (km/s) = 2.67894 4.43755 3.66528
# Velocity P-wave (km/s) = 3.54778 7.38228 5.79158
#
# Compressibility (1/GPa) = 0.16700892
#
# Stress axis : x y z
#
# Youngs Moduli (GPa) = 77.92042 5.88640 101.07593
#
# Poissons Ratio (x) = 0.10255 0.71708
# Poissons Ratio (y) = 1.35744 -1.18407
# Poissons Ratio (z) = 0.55280 -0.06896
#
# Static dielectric constant tensor:
#      x y z
#    x 1.678630 0.000000 0.000000 
#    y 0.000000 1.760500 0.000000 
#    z 0.000000 0.000000 1.786220 
# 
# From -- ./inp_files/76679.got.cif
#   From: 2010.05.17/outbox.cif.g08.bks.cpg/sg65_39_cif.got.tgz:76679.got - 2010.06.03 17:01:31.
