data_PCOD9489128
_publ_section_title
;
Structure prediction by ZEFSAII (Michael W. Deem and Ramdas Pophale) SiO2 
 PCOD9489128
Probable space group: C M M M
;
_chemical_formula_sum "Si O2"
_cell_formula_units_Z 104
_cell_length_a 9.232673
_cell_length_b 28.874315
_cell_length_c 29.560910
_cell_angle_alpha 90.000000
_cell_angle_beta 90.000000
_cell_angle_gamma 90.000000
_cell_volume 7880.557521
_symmetry_space_group_name_H-M "C M M M"
_symmetry_group_IT_number 65
_symmetry_cell_setting 'orthorhombic'
loop_
_space_group_symop_operation_xyz
x,y,z
-x,-y,z
x,-y,-z
-x,y,-z
-x,-y,-z
x,y,-z
-x,y,z
x,-y,z
1/2+x,1/2+y,z
1/2-x,1/2-y,z
1/2+x,1/2-y,-z
1/2-x,1/2+y,-z
1/2-x,1/2-y,-z
1/2+x,1/2+y,-z
1/2-x,1/2+y,z
1/2+x,1/2-y,z
loop_
_atom_site_type_symbol
_atom_site_label
_atom_site_fract_x
_atom_site_fract_y
_atom_site_fract_z
Si Si1 0.825453 0.944967 0.168882
Si Si2 0.324993 0.110741 0.910905
Si Si3 0.666467 0.443748 0.728859
Si Si4 0.327807 0.701156 0.054024
Si Si5 0.833355 0.556503 0.360370
Si Si6 0.675273 0.052502 0.000000
Si Si7 0.669469 0.556233 0.450180
O O1 0.739110 0.915108 0.132624
O O2 0.785662 0.931195 0.220450
O O3 0.000000 0.939234 0.164213
O O4 0.795417 0.000000 0.163064
O O5 0.500000 0.114413 0.908910
O O6 0.251122 0.160343 0.918929
O O7 0.284151 0.079920 0.954849
O O8 0.500000 0.429255 0.722860
O O9 0.667402 0.500000 0.728398
O O10 0.759098 0.427823 0.686173
O O11 0.500000 0.703090 0.063311
O O12 0.250000 0.750000 0.063392
O O13 0.310216 0.692153 0.000000
O O14 0.826314 0.500000 0.360360
O O15 0.754121 0.572509 0.406024
O O16 0.000000 0.569883 0.361309
O O17 0.500000 0.050450 0.000000
O O18 0.731100 0.000000 0.000000
O O19 0.722569 0.571390 0.500000
O O20 0.500000 0.568075 0.446380
O O21 0.677460 0.500000 0.450083
#
# Coordination Sequence:
#
# PCOD9489128 Si02
#       7
#    16  16  16  16  16   8  16
#     4   9  18  31  44  59  80 105 134 166 198 232
#     4  11  20  31  47  65  87 110 133 159 193 234
#     4   8  14  25  38  48  62  88 119 150 184 223
#     4  10  20  34  52  70  88 106 129 158 191 228
#     4   9  15  20  28  43  60  77 102 140 182 222
#     4   9  18  30  42  59  84 111 136 159 184 221
#     4   8  13  20  28  37  51  74 103 133 170 220
#
# _framework density 13.197036000000001
#
# number of rings (size 3 to 8) (size 9 to 14) (size 15 to 20)
#    0.000    2.846    0.769    3.231    0.000    4.308 
#    0.000    3.077    0.000    1.846    0.000    0.000 
#    0.000    0.000    0.000    0.000    0.000    0.000 
#
# Total GULP energy -289485.868757 kJ/mol
# GULP energy per Si atom -5567.035938 kJ/mol
# Density = 1.316700 g / cm^3
# Si number density = 13.197036 Si / 1000 Ang^3
#
#
#
# Elastic Constant Matrix: (Units=GPa)
#
#
# Indices 1 2 3 4 5 6 
#
# 1 73.4048 34.3748 73.5275 0.0000 0.0000 0.0000
# 2 34.3748 51.4235 40.3085 0.0000 0.0000 0.0000
# 3 73.5275 40.3085 142.6023 0.0000 0.0000 0.0000
# 4 0.0000 0.0000 0.0000 0.8321 0.0000 0.0000
# 5 0.0000 0.0000 0.0000 0.0000 12.4035 0.0000
# 6 0.0000 0.0000 0.0000 0.0000 0.0000 13.7280
#
#
#
# Elastic Compliance Matrix: (Units=1/GPa)
#
#
# Indices 1 2 3 4 5 6 
#
# 1 0.032385 -0.010996 -0.013590 0.000000 0.000000 0.000000
# 2 -0.010996 0.028715 -0.002447 0.000000 0.000000 0.000000
# 3 -0.013590 -0.002447 0.014711 0.000000 0.000000 0.000000
# 4 0.000000 0.000000 0.000000 1.201744 0.000000 0.000000
# 5 0.000000 0.000000 0.000000 0.000000 0.080622 0.000000
# 6 0.000000 0.000000 0.000000 0.000000 0.000000 0.072844
#
#
# Mechanical properties :
#
#
# Convention : Reuss Voigt Hill
#
# Bulk Modulus (GPa) = 45.98640 62.65024 54.31832
# Shear Modulus (GPa) = 3.35045 13.34070 8.34558
#
# Velocity S-wave (km/s) = 1.59509 3.18289 2.51745
# Velocity P-wave (km/s) = 6.18984 7.81561 7.04975
#
# Compressibility (1/GPa) = 0.02174556
#
# Stress axis : x y z
#
# Youngs Moduli (GPa) = 30.87849 34.82538 67.97429
#
# Poissons Ratio (x) = 0.38293 0.92378
# Poissons Ratio (y) = 0.33953 0.16634
# Poissons Ratio (z) = 0.41964 0.08522
#
# Static dielectric constant tensor:
#      x y z
#    x 1.436950 0.000000 0.000000 
#    y 0.000000 1.395110 0.000000 
#    z 0.000000 0.000000 1.443680 
# 
# From -- ./inp_files/74055.got.cif
#   From: 2010.05.17/outbox.cif.g08.bks.cpg/sg65_38_cif.got.tgz:74055.got - 2010.06.03 17:01:31.
