data_PCOD9489787
_publ_section_title
;
Structure prediction by ZEFSAII (Michael W. Deem and Ramdas Pophale) SiO2 
 PCOD9489787
Probable space group: C M M M
;
_chemical_formula_sum "Si O2"
_cell_formula_units_Z 116
_cell_length_a 18.196496
_cell_length_b 21.580604
_cell_length_c 16.697334
_cell_angle_alpha 90.000000
_cell_angle_beta 90.000000
_cell_angle_gamma 90.000000
_cell_volume 6556.899037
_symmetry_space_group_name_H-M "C M M M"
_symmetry_group_IT_number 65
_symmetry_cell_setting 'orthorhombic'
loop_
_space_group_symop_operation_xyz
x,y,z
-x,-y,z
x,-y,-z
-x,y,-z
-x,-y,-z
x,y,-z
-x,y,z
x,-y,z
1/2+x,1/2+y,z
1/2-x,1/2-y,z
1/2+x,1/2-y,-z
1/2-x,1/2+y,-z
1/2-x,1/2-y,-z
1/2+x,1/2+y,-z
1/2-x,1/2+y,z
1/2+x,1/2-y,z
loop_
_atom_site_type_symbol
_atom_site_label
_atom_site_fract_x
_atom_site_fract_y
_atom_site_fract_z
Si Si1 0.217350 0.500000 0.500000
Si Si2 0.585811 0.736179 0.830665
Si Si3 0.584417 0.128130 0.905258
Si Si4 0.823582 0.209056 0.329982
Si Si5 0.584425 0.808344 0.593952
Si Si6 0.785474 0.398609 0.644132
Si Si7 0.211236 0.184854 0.908706
Si Si8 0.281555 0.932320 0.827196
O O1 0.216420 0.553940 0.570993
O O2 0.500000 0.724250 0.821196
O O3 0.594955 0.808363 0.854815
O O4 0.630978 0.715954 0.752138
O O5 0.625072 0.697786 0.900542
O O6 0.500000 0.108854 0.896101
O O7 0.640906 0.078685 0.871090
O O8 0.596798 0.140392 0.000000
O O9 0.750000 0.250000 0.321582
O O10 0.878007 0.241377 0.393338
O O11 0.788951 0.143348 0.354265
O O12 0.582358 0.822892 0.500000
O O13 0.500000 0.810388 0.624790
O O14 0.641501 0.855760 0.634490
O O15 0.790195 0.428349 0.731860
O O16 0.250000 0.250000 0.884174
O O17 0.234744 0.126809 0.855781
O O18 0.232939 0.172968 0.000000
O O19 0.251334 0.000000 0.848940
#
# Coordination Sequence:
#
# PCOD9489787 Si02
#       8
#     4  16  16  16  16  16  16  16
#     4  12  24  44  63  88 107 162 212 252 290 360
#     4  11  20  34  59  91 122 156 199 245 298 355
#     4  10  21  36  56  87 128 170 208 243 288 354
#     4  10  20  34  59  88 119 151 190 247 302 358
#     4  10  21  36  56  89 124 150 183 237 304 368
#     4  11  23  40  62  83 117 154 204 246 298 359
#     4  11  22  38  60  88 123 163 206 250 296 351
#     4  12  24  39  59  87 119 160 205 259 301 357
#
# _framework density 17.691289999999999
#
# number of rings (size 3 to 8) (size 9 to 14) (size 15 to 20)
#    0.000    1.241    4.138    3.310    0.966    4.690 
#    0.000    1.379    0.000    0.414    0.000    4.345 
#    0.000    0.000    0.000    0.000    0.000    0.000 
#
# Total GULP energy -322964.930624 kJ/mol
# GULP energy per Si atom -5568.360873 kJ/mol
# Density = 1.765102 g / cm^3
# Si number density = 17.691290 Si / 1000 Ang^3
#
#
#
# Elastic Constant Matrix: (Units=GPa)
#
#
# Indices 1 2 3 4 5 6 
#
# 1 86.2585 45.9703 22.7127 0.0000 0.0000 0.0000
# 2 45.9703 103.5415 39.7919 0.0000 0.0000 0.0000
# 3 22.7127 39.7919 79.5854 0.0000 0.0000 0.0000
# 4 0.0000 0.0000 0.0000 -14.7150 0.0000 0.0000
# 5 0.0000 0.0000 0.0000 0.0000 25.8882 0.0000
# 6 0.0000 0.0000 0.0000 0.0000 0.0000 9.6914
#
#
#
# Elastic Compliance Matrix: (Units=1/GPa)
#
#
# Indices 1 2 3 4 5 6 
#
# 1 0.015278 -0.006322 -0.001199 0.000000 0.000000 0.000000
# 2 -0.006322 0.014571 -0.005481 0.000000 0.000000 0.000000
# 3 -0.001199 -0.005481 0.015648 0.000000 0.000000 0.000000
# 4 0.000000 0.000000 0.000000 -0.067958 0.000000 0.000000
# 5 0.000000 0.000000 0.000000 0.000000 0.038628 0.000000
# 6 0.000000 0.000000 0.000000 0.000000 0.000000 0.103184
#
#
# Mechanical properties :
#
#
# Convention : Reuss Voigt Hill
#
# Bulk Modulus (GPa) = 51.30277 54.03723 52.67000
# Shear Modulus (GPa) = 32.92626 14.90028 23.91327
#
# Velocity S-wave (km/s) = 4.31879 2.90528 3.68053
# Velocity P-wave (km/s) = 7.34378 6.47032 6.92085
#
# Compressibility (1/GPa) = 0.01949212
#
# Stress axis : x y z
#
# Youngs Moduli (GPa) = 65.45266 68.62721 63.90629
#
# Poissons Ratio (x) = 0.43389 0.07663
# Poissons Ratio (y) = 0.41382 0.35029
# Poissons Ratio (z) = 0.07848 0.37616
#
# Static dielectric constant tensor:
#      x y z
#    x 1.612970 0.000000 0.000000 
#    y 0.000000 1.616720 0.000000 
#    z 0.000000 0.000000 1.648250 
# 
# From -- ./inp_files/43168.got.cif
#   From: 2010.05.17/outbox.cif.g08.bks.cpg/sg65_22_cif.got.tgz:43168.got - 2010.06.03 17:01:31.
