data_PCOD9489644
_publ_section_title
;
Structure prediction by ZEFSAII (Michael W. Deem and Ramdas Pophale) SiO2 
 PCOD9489644
Probable space group: C M M M
;
_chemical_formula_sum "Si O2"
_cell_formula_units_Z 104
_cell_length_a 14.418693
_cell_length_b 17.787212
_cell_length_c 21.684437
_cell_angle_alpha 90.000000
_cell_angle_beta 90.000000
_cell_angle_gamma 90.000000
_cell_volume 5561.371760
_symmetry_space_group_name_H-M "C M M M"
_symmetry_group_IT_number 65
_symmetry_cell_setting 'orthorhombic'
loop_
_space_group_symop_operation_xyz
x,y,z
-x,-y,z
x,-y,-z
-x,y,-z
-x,-y,-z
x,y,-z
-x,y,z
x,-y,z
1/2+x,1/2+y,z
1/2-x,1/2-y,z
1/2+x,1/2-y,-z
1/2-x,1/2+y,-z
1/2-x,1/2-y,-z
1/2+x,1/2+y,-z
1/2-x,1/2+y,z
1/2+x,1/2-y,z
loop_
_atom_site_type_symbol
_atom_site_label
_atom_site_fract_x
_atom_site_fract_y
_atom_site_fract_z
Si Si1 0.396910 0.324393 0.176459
Si Si2 0.110423 0.686205 0.734645
Si Si3 0.280289 0.830813 0.392116
Si Si4 0.705933 0.910578 0.839086
Si Si5 0.389665 0.088479 0.500000
Si Si6 0.895896 0.909764 0.572294
Si Si7 0.648266 0.213041 0.069140
O O1 0.500000 0.357149 0.185553
O O2 0.374338 0.266950 0.232294
O O3 0.312561 0.382010 0.167759
O O4 0.400523 0.269292 0.116899
O O5 0.165137 0.681047 0.671051
O O6 0.150241 0.623205 0.780891
O O7 0.000000 0.677091 0.726350
O O8 0.250000 0.750000 0.417436
O O9 0.344530 0.874100 0.440245
O O10 0.184550 0.876455 0.386078
O O11 0.661982 0.867335 0.897979
O O12 0.700692 0.000000 0.843065
O O13 0.500000 0.098145 0.500000
O O14 0.367687 0.000000 0.500000
O O15 0.878293 0.890038 0.500000
O O16 0.000000 0.883645 0.588060
O O17 0.894757 0.000000 0.575551
O O18 0.750000 0.250000 0.064926
O O19 0.610139 0.208490 0.000000
#
# Coordination Sequence:
#
# PCOD9489644 Si02
#       7
#    16  16  16  16   8  16  16
#     4   9  18  35  57  80 109 149 192 232 279 336
#     4  10  22  41  61  78 106 147 189 232 278 331
#     4  12  23  38  60  89 111 138 181 235 281 323
#     4  10  20  34  54  84 117 148 186 232 284 340
#     4  11  25  42  57  79 115 153 184 217 266 332
#     4   9  19  37  59  81 109 145 177 210 264 332
#     4   8  15  30  52  77 108 150 195 233 270 320
#
# _framework density 18.700422
#
# number of rings (size 3 to 8) (size 9 to 14) (size 15 to 20)
#    0.000    2.231    0.769    3.923    0.000    3.692 
#    0.000    0.769    0.000    0.000    0.000    8.615 
#    0.000    0.000    0.000    0.000    0.000    0.000 
#
# Total GULP energy -290235.501448 kJ/mol
# GULP energy per Si atom -5581.451951 kJ/mol
# Density = 1.865786 g / cm^3
# Si number density = 18.700422 Si / 1000 Ang^3
#
#
#
# Elastic Constant Matrix: (Units=GPa)
#
#
# Indices 1 2 3 4 5 6 
#
# 1 82.2513 28.0024 32.9140 0.0000 0.0000 0.0000
# 2 28.0024 90.1109 20.7940 0.0000 0.0000 0.0000
# 3 32.9140 20.7940 100.0446 0.0000 0.0000 0.0000
# 4 0.0000 0.0000 0.0000 19.7566 0.0000 0.0000
# 5 0.0000 0.0000 0.0000 0.0000 -7.2094 0.0000
# 6 0.0000 0.0000 0.0000 0.0000 0.0000 5.7194
#
#
#
# Elastic Compliance Matrix: (Units=1/GPa)
#
#
# Indices 1 2 3 4 5 6 
#
# 1 0.015105 -0.003726 -0.004195 0.000000 0.000000 0.000000
# 2 -0.003726 0.012576 -0.001388 0.000000 0.000000 0.000000
# 3 -0.004195 -0.001388 0.011664 0.000000 0.000000 0.000000
# 4 0.000000 0.000000 0.000000 0.050616 0.000000 0.000000
# 5 0.000000 0.000000 0.000000 0.000000 -0.138708 0.000000
# 6 0.000000 0.000000 0.000000 0.000000 0.000000 0.174843
#
#
# Mechanical properties :
#
#
# Convention : Reuss Voigt Hill
#
# Bulk Modulus (GPa) = 48.24651 48.42530 48.33591
# Shear Modulus (GPa) = 32.97655 16.36641 24.67148
#
# Velocity S-wave (km/s) = 4.20386 2.96157 3.63616
# Velocity P-wave (km/s) = 7.02986 6.13564 6.59791
#
# Compressibility (1/GPa) = 0.02072689
#
# Stress axis : x y z
#
# Youngs Moduli (GPa) = 66.20300 79.51918 85.73260
#
# Poissons Ratio (x) = 0.29628 0.35965
# Poissons Ratio (y) = 0.24667 0.11900
# Poissons Ratio (z) = 0.27772 0.11037
#
# Static dielectric constant tensor:
#      x y z
#    x 1.672860 0.000000 0.000000 
#    y 0.000000 1.650290 0.000000 
#    z 0.000000 0.000000 1.654140 
# 
# From -- ./inp_files/62853.got.cif
#   From: 2010.05.17/outbox.cif.g08.bks.cpg/sg65_32_cif.got.tgz:62853.got - 2010.06.03 17:01:31.
