data_PCOD9489318
_publ_section_title
;
Structure prediction by ZEFSAII (Michael W. Deem and Ramdas Pophale) SiO2 
 PCOD9489318
Probable space group: C M M M
;
_chemical_formula_sum "Si O2"
_cell_formula_units_Z 72
_cell_length_a 9.129325
_cell_length_b 20.274041
_cell_length_c 23.238363
_cell_angle_alpha 90.000000
_cell_angle_beta 90.000000
_cell_angle_gamma 90.000000
_cell_volume 4301.149320
_symmetry_space_group_name_H-M "C M M M"
_symmetry_group_IT_number 65
_symmetry_cell_setting 'orthorhombic'
loop_
_space_group_symop_operation_xyz
x,y,z
-x,-y,z
x,-y,-z
-x,y,-z
-x,-y,-z
x,y,-z
-x,y,z
x,-y,z
1/2+x,1/2+y,z
1/2-x,1/2-y,z
1/2+x,1/2-y,-z
1/2-x,1/2+y,-z
1/2-x,1/2-y,-z
1/2+x,1/2+y,-z
1/2-x,1/2+y,z
1/2+x,1/2-y,z
loop_
_atom_site_type_symbol
_atom_site_label
_atom_site_fract_x
_atom_site_fract_y
_atom_site_fract_z
Si Si1 0.824812 0.679807 0.151372
Si Si2 0.176231 0.423063 0.617875
Si Si3 0.824334 0.680302 0.284737
Si Si4 0.674873 0.422751 0.932876
Si Si5 0.168315 0.919864 0.500000
O O1 0.750000 0.750000 0.138246
O O2 0.789307 0.663912 0.218245
O O3 0.762313 0.624491 0.109325
O O4 0.000000 0.685202 0.145996
O O5 0.215286 0.500000 0.627936
O O6 0.219872 0.376700 0.670899
O O7 0.249877 0.400136 0.558436
O O8 0.000000 0.420253 0.611668
O O9 0.750000 0.750000 0.298739
O O10 0.000000 0.687744 0.288394
O O11 0.500000 0.413525 0.925185
O O12 0.707028 0.500000 0.922349
O O13 0.708285 0.408906 0.000000
O O14 0.000000 0.898094 0.500000
O O15 0.170351 0.000000 0.500000
#
# Coordination Sequence:
#
# PCOD9489318 Si02
#       5
#    16  16  16  16   8
#     4  10  20  34  53  76 102 133 169 208 249 295
#     4   9  17  31  51  72  95 126 162 197 238 289
#     4   9  19  34  51  72  99 130 162 200 244 289
#     4   9  19  36  55  75 102 134 166 204 251 299
#     4   9  17  29  46  71 100 125 155 199 244 283
#
# _framework density 16.739711
#
# number of rings (size 3 to 8) (size 9 to 14) (size 15 to 20)
#    0.000    2.778    0.000    1.667    0.000    5.333 
#    0.000    3.889    0.000    2.667    0.000    0.000 
#    0.000    0.000    0.000    0.000    0.000    0.000 
#
# Total GULP energy -200708.678842 kJ/mol
# GULP energy per Si atom -5575.241079 kJ/mol
# Density = 1.670161 g / cm^3
# Si number density = 16.739711 Si / 1000 Ang^3
#
#
#
# Elastic Constant Matrix: (Units=GPa)
#
#
# Indices 1 2 3 4 5 6 
#
# 1 45.7636 57.0222 65.4166 0.0000 0.0000 0.0000
# 2 57.0222 106.7857 107.5049 0.0000 0.0000 0.0000
# 3 65.4166 107.5049 136.4260 0.0000 0.0000 0.0000
# 4 0.0000 0.0000 0.0000-7270.2713 0.0000 0.0000
# 5 0.0000 0.0000 0.0000 0.0000 23.0732 0.0000
# 6 0.0000 0.0000 0.0000 0.0000 0.0000 28.7976
#
#
#
# Elastic Compliance Matrix: (Units=1/GPa)
#
#
# Indices 1 2 3 4 5 6 
#
# 1 0.076694 -0.019019 -0.021787 0.000000 0.000000 0.000000
# 2 -0.019019 0.050025 -0.030300 0.000000 0.000000 0.000000
# 3 -0.021787 -0.030300 0.041654 0.000000 0.000000 0.000000
# 4 0.000000 0.000000 0.000000 -0.000138 0.000000 0.000000
# 5 0.000000 0.000000 0.000000 0.000000 0.043340 0.000000
# 6 0.000000 0.000000 0.000000 0.000000 0.000000 0.034725
#
#
# Mechanical properties :
#
#
# Convention : Reuss Voigt Hill
#
# Bulk Modulus (GPa) = 38.22830 83.20697 60.71763
# Shear Modulus (GPa) = 12.58700 -1439.74465 -713.57883
#
# Velocity S-wave (km/s) = 2.74510 -29.35889 -20.66893
# Velocity P-wave (km/s) = 5.73881 33.15788 23.09233
#
# Compressibility (1/GPa) = 0.02615863
#
# Stress axis : x y z
#
# Youngs Moduli (GPa) = 13.03884 19.98990 24.00724
#
# Poissons Ratio (x) = 0.38020 0.52306
# Poissons Ratio (y) = 0.24799 0.72743
# Poissons Ratio (z) = 0.28408 0.60570
#
# Static dielectric constant tensor:
#      x y z
#    x 1.556740 0.000000 0.000000 
#    y 0.000000 1.538770 0.000000 
#    z 0.000000 0.000000 1.553090 
# 
# From -- ./inp_files/49529.got.cif
#   From: 2010.05.17/outbox.cif.g08.bks.cpg/sg65_25_cif.got.tgz:49529.got - 2010.06.03 17:01:31.
