data_PCOD9489993
_publ_section_title
;
Structure prediction by ZEFSAII (Michael W. Deem and Ramdas Pophale) SiO2 
 PCOD9489993
Probable space group: C M M M
;
_chemical_formula_sum "Si O2"
_cell_formula_units_Z 88
_cell_length_a 7.978466
_cell_length_b 32.063843
_cell_length_c 17.790473
_cell_angle_alpha 90.000000
_cell_angle_beta 90.000000
_cell_angle_gamma 90.000000
_cell_volume 4551.163806
_symmetry_space_group_name_H-M "C M M M"
_symmetry_group_IT_number 65
_symmetry_cell_setting 'orthorhombic'
loop_
_space_group_symop_operation_xyz
x,y,z
-x,-y,z
x,-y,-z
-x,y,-z
-x,-y,-z
x,y,-z
-x,y,z
x,-y,z
1/2+x,1/2+y,z
1/2-x,1/2-y,z
1/2+x,1/2-y,-z
1/2-x,1/2+y,-z
1/2-x,1/2-y,-z
1/2+x,1/2+y,-z
1/2-x,1/2+y,z
1/2+x,1/2-y,z
loop_
_atom_site_type_symbol
_atom_site_label
_atom_site_fract_x
_atom_site_fract_y
_atom_site_fract_z
Si Si1 0.300337 0.135905 0.123454
Si Si2 0.802281 0.201657 0.000000
Si Si3 0.197649 0.454806 0.889417
Si Si4 0.701441 0.635167 0.702685
Si Si5 0.796724 0.955345 0.715519
Si Si6 0.297584 0.297259 0.585232
O O1 0.500000 0.131647 0.124214
O O2 0.233466 0.091242 0.090975
O O3 0.244002 0.141446 0.209623
O O4 0.257013 0.175132 0.072046
O O5 0.750000 0.250000 0.000000
O O6 0.000000 0.200901 0.000000
O O7 0.268197 0.500000 0.914933
O O8 0.220114 0.455133 0.799129
O O9 0.000000 0.455355 0.908485
O O10 0.500000 0.636198 0.697736
O O11 0.756160 0.588355 0.679785
O O12 0.767783 0.670328 0.646842
O O13 0.000000 0.954381 0.723279
O O14 0.752239 0.000000 0.679871
O O15 0.238260 0.305930 0.500000
O O16 0.500000 0.299682 0.584199
O O17 0.250000 0.250000 0.604294
#
# Coordination Sequence:
#
# PCOD9489993 Si02
#       6
#    16   8  16  16  16  16
#     4  10  20  35  55  79 105 132 167 207 247 293
#     4  12  26  44  61  74  95 129 168 209 255 300
#     4   8  14  26  46  72 101 131 161 195 236 283
#     4   9  17  30  49  73 100 130 165 204 245 290
#     4   8  13  22  39  64  93 125 160 197 237 282
#     4   9  18  32  49  69  95 127 161 200 247 296
#
# _framework density 19.335712999999998
#
# number of rings (size 3 to 8) (size 9 to 14) (size 15 to 20)
#    0.000    2.909    0.000    1.364    0.000    2.182 
#    0.000    2.273    0.000    3.273    0.000    3.818 
#    0.000    0.000    0.000   34.000    0.000   18.545 
#
# Total GULP energy -245006.112715 kJ/mol
# GULP energy per Si atom -5568.320744 kJ/mol
# Density = 1.929170 g / cm^3
# Si number density = 19.335713 Si / 1000 Ang^3
#
#
#
# Elastic Constant Matrix: (Units=GPa)
#
#
# Indices 1 2 3 4 5 6 
#
# 1 18.3358 10.4993 6.4905 0.0000 0.0000 0.0000
# 2 10.4993 226.5640 103.7194 0.0000 0.0000 0.0000
# 3 6.4905 103.7194 88.6930 0.0000 0.0000 0.0000
# 4 0.0000 0.0000 0.000013542.1391 0.0000 0.0000
# 5 0.0000 0.0000 0.0000 0.0000 -15.1427 0.0000
# 6 0.0000 0.0000 0.0000 0.0000 0.0000 17.4072
#
#
#
# Elastic Compliance Matrix: (Units=1/GPa)
#
#
# Indices 1 2 3 4 5 6 
#
# 1 0.056242 -0.001554 -0.002298 0.000000 0.000000 0.000000
# 2 -0.001554 0.009542 -0.011045 0.000000 0.000000 0.000000
# 3 -0.002298 -0.011045 0.024359 0.000000 0.000000 0.000000
# 4 0.000000 0.000000 0.000000 0.000074 0.000000 0.000000
# 5 0.000000 0.000000 0.000000 0.000000 -0.066038 0.000000
# 6 0.000000 0.000000 0.000000 0.000000 0.000000 0.057447
#
#
# Mechanical properties :
#
#
# Convention : Reuss Voigt Hill
#
# Bulk Modulus (GPa) = 16.57048 63.89010 40.23029
# Shear Modulus (GPa) = 38.01221 2723.07297 1380.54259
#
# Velocity S-wave (km/s) = 4.43866 37.56820 26.74950
# Velocity P-wave (km/s) = 5.90402 43.76004 31.22338
#
# Compressibility (1/GPa) = 0.06034827
#
# Stress axis : x y z
#
# Youngs Moduli (GPa) = 17.78041 104.79872 41.05218
#
# Poissons Ratio (x) = 0.16288 0.09434
# Poissons Ratio (y) = 0.02763 0.45342
# Poissons Ratio (z) = 0.04086 1.15750
#
# Static dielectric constant tensor:
#      x y z
#    x 1.707730 0.000000 0.000000 
#    y 0.000000 1.721160 0.000000 
#    z 0.000000 0.000000 1.634660 
# 
# From -- ./inp_files/50325.got.cif
#   From: 2010.05.17/outbox.cif.g08.bks.cpg/sg65_26_cif.got.tgz:50325.got - 2010.06.03 17:01:31.
