data_PCOD9489757
_publ_section_title
;
Structure prediction by ZEFSAII (Michael W. Deem and Ramdas Pophale) SiO2 
 PCOD9489757
Probable space group: C M M M
;
_chemical_formula_sum "Si O2"
_cell_formula_units_Z 120
_cell_length_a 19.667178
_cell_length_b 21.971647
_cell_length_c 14.982487
_cell_angle_alpha 90.000000
_cell_angle_beta 90.000000
_cell_angle_gamma 90.000000
_cell_volume 6474.236665
_symmetry_space_group_name_H-M "C M M M"
_symmetry_group_IT_number 65
_symmetry_cell_setting 'orthorhombic'
loop_
_space_group_symop_operation_xyz
x,y,z
-x,-y,z
x,-y,-z
-x,y,-z
-x,-y,-z
x,y,-z
-x,y,z
x,-y,z
1/2+x,1/2+y,z
1/2-x,1/2-y,z
1/2+x,1/2-y,-z
1/2-x,1/2+y,-z
1/2-x,1/2-y,-z
1/2+x,1/2+y,-z
1/2-x,1/2+y,z
1/2+x,1/2-y,z
loop_
_atom_site_type_symbol
_atom_site_label
_atom_site_fract_x
_atom_site_fract_y
_atom_site_fract_z
Si Si1 0.079852 0.174198 0.393959
Si Si2 0.625559 0.341895 0.103723
Si Si3 0.332385 0.751003 0.743992
Si Si4 0.248880 0.432912 0.097814
Si Si5 0.812371 0.389475 0.271217
Si Si6 0.187555 0.927364 0.394119
Si Si7 0.426176 0.072176 0.597793
Si Si8 0.000000 0.071157 0.891327
O O1 0.083315 0.187735 0.500000
O O2 0.125846 0.221447 0.337969
O O3 0.116562 0.108475 0.381258
O O4 0.000000 0.174269 0.367905
O O5 0.640623 0.286130 0.169879
O O6 0.693596 0.382221 0.105010
O O7 0.565350 0.387679 0.133756
O O8 0.612489 0.323815 0.000000
O O9 0.250000 0.750000 0.734582
O O10 0.340956 0.822882 0.749866
O O11 0.281161 0.500000 0.103276
O O12 0.199097 0.424012 0.179279
O O13 0.216551 0.427706 0.000000
O O14 0.742171 0.395431 0.328405
O O15 0.867999 0.418204 0.333307
O O16 0.206194 0.920764 0.500000
O O17 0.184442 0.000000 0.375427
O O18 0.408718 0.097623 0.500000
O O19 0.500000 0.097054 0.624165
O O20 0.432366 0.000000 0.588980
O O21 0.000000 0.000000 0.860565
O O22 0.000000 0.068002 0.000000
#
# Coordination Sequence:
#
# PCOD9489757 Si02
#       8
#    16  16  16  16  16  16  16   8
#     4  10  23  42  62  85 118 159 200 247 300 357
#     4  10  21  38  61  89 122 158 197 242 295 352
#     4  12  24  40  57  83 117 162 208 246 287 343
#     4  10  20  34  56  86 118 151 192 242 290 346
#     4  12  22  36  58  85 118 158 199 245 295 352
#     4  10  20  35  60  92 121 152 194 245 304 370
#     4   9  19  37  61  89 117 144 184 244 312 369
#     4   9  18  36  64  96 127 159 194 241 307 365
#
# _framework density 18.535004000000001
#
# number of rings (size 3 to 8) (size 9 to 14) (size 15 to 20)
#    0.000    1.667    2.667    2.400    0.933    5.600 
#    0.000    3.333    0.000    0.400    0.000    1.867 
#    0.000    0.000    0.000    0.000    0.000    0.000 
#
# Total GULP energy -334410.761631 kJ/mol
# GULP energy per Si atom -5573.512694 kJ/mol
# Density = 1.849282 g / cm^3
# Si number density = 18.535004 Si / 1000 Ang^3
#
#
#
# Elastic Constant Matrix: (Units=GPa)
#
#
# Indices 1 2 3 4 5 6 
#
# 1 109.1399 31.9724 70.7808 0.0000 0.0000 0.0000
# 2 31.9724 99.0416 26.4429 0.0000 0.0000 0.0000
# 3 70.7808 26.4429 73.4655 0.0000 0.0000 0.0000
# 4 0.0000 0.0000 0.0000 33.8074 0.0000 0.0000
# 5 0.0000 0.0000 0.0000 0.0000 -27.7226 0.0000
# 6 0.0000 0.0000 0.0000 0.0000 0.0000 28.4130
#
#
#
# Elastic Compliance Matrix: (Units=1/GPa)
#
#
# Indices 1 2 3 4 5 6 
#
# 1 0.024707 -0.001793 -0.023159 0.000000 0.000000 0.000000
# 2 -0.001793 0.011300 -0.002340 0.000000 0.000000 0.000000
# 3 -0.023159 -0.002340 0.036767 0.000000 0.000000 0.000000
# 4 0.000000 0.000000 0.000000 0.029579 0.000000 0.000000
# 5 0.000000 0.000000 0.000000 0.000000 -0.036072 0.000000
# 6 0.000000 0.000000 0.000000 0.000000 0.000000 0.035195
#
#
# Mechanical properties :
#
#
# Convention : Reuss Voigt Hill
#
# Bulk Modulus (GPa) = 54.97385 60.00438 57.48912
# Shear Modulus (GPa) = 30.84070 17.06296 23.95183
#
# Velocity S-wave (km/s) = 4.08354 3.03740 3.59869
# Velocity P-wave (km/s) = 7.20816 6.68916 6.95350
#
# Compressibility (1/GPa) = 0.01819047
#
# Stress axis : x y z
#
# Youngs Moduli (GPa) = 40.47445 88.49333 27.19861
#
# Poissons Ratio (x) = 0.15864 0.62989
# Poissons Ratio (y) = 0.07256 0.06365
# Poissons Ratio (z) = 0.93734 0.20709
#
# Static dielectric constant tensor:
#      x y z
#    x 1.675340 0.000000 0.000000 
#    y 0.000000 1.653540 0.000000 
#    z 0.000000 0.000000 1.672990 
# 
# From -- ./inp_files/44699.got.cif
#   From: 2010.05.17/outbox.cif.g08.bks.cpg/sg65_23_cif.got.tgz:44699.got - 2010.06.03 17:01:31.
