data_PCOD9489894
_publ_section_title
;
Structure prediction by ZEFSAII (Michael W. Deem and Ramdas Pophale) SiO2 
 PCOD9489894
Probable space group: C M M M
;
_chemical_formula_sum "Si O2"
_cell_formula_units_Z 104
_cell_length_a 7.954108
_cell_length_b 30.213540
_cell_length_c 20.660112
_cell_angle_alpha 90.000000
_cell_angle_beta 90.000000
_cell_angle_gamma 90.000000
_cell_volume 4965.074482
_symmetry_space_group_name_H-M "C M M M"
_symmetry_group_IT_number 65
_symmetry_cell_setting 'orthorhombic'
loop_
_space_group_symop_operation_xyz
x,y,z
-x,-y,z
x,-y,-z
-x,y,-z
-x,-y,-z
x,y,-z
-x,y,z
x,-y,z
1/2+x,1/2+y,z
1/2-x,1/2-y,z
1/2+x,1/2-y,-z
1/2-x,1/2+y,-z
1/2-x,1/2-y,-z
1/2+x,1/2+y,-z
1/2-x,1/2+y,z
1/2+x,1/2-y,z
loop_
_atom_site_type_symbol
_atom_site_label
_atom_site_fract_x
_atom_site_fract_y
_atom_site_fract_z
Si Si1 0.300774 0.950848 0.338847
Si Si2 0.702179 0.201144 0.260802
Si Si3 0.800259 0.106540 0.069811
Si Si4 0.798007 0.948493 0.808034
Si Si5 0.201266 0.298947 0.112408
Si Si6 0.698628 0.698616 0.500000
Si Si7 0.797534 0.641442 0.376243
O O1 0.500000 0.953812 0.351671
O O2 0.278482 0.940041 0.262613
O O3 0.233033 0.908969 0.378579
O O4 0.227520 0.000000 0.350032
O O5 0.500000 0.198309 0.258461
O O6 0.750000 0.250000 0.284581
O O7 0.763647 0.197046 0.187072
O O8 0.766818 0.165006 0.310925
O O9 0.732888 0.082517 0.134139
O O10 0.772794 0.158983 0.075640
O O11 0.000000 0.097703 0.069668
O O12 0.731919 0.091360 0.000000
O O13 0.000000 0.942950 0.801834
O O14 0.765682 0.000000 0.824153
O O15 0.250000 0.250000 0.088847
O O16 0.000000 0.302003 0.111495
O O17 0.500000 0.697398 0.500000
O O18 0.750000 0.750000 0.500000
O O19 0.759864 0.672233 0.436948
O O20 0.000000 0.638997 0.370852
#
# Coordination Sequence:
#
# PCOD9489894 Si02
#       7
#    16  16  16  16  16   8  16
#     4   9  18  34  58  86 113 142 178 221 268 316
#     4   9  18  31  50  76 102 129 165 212 263 314
#     4  10  21  35  50  71 101 138 180 222 265 318
#     4   9  18  33  54  80 109 141 177 220 270 320
#     4  10  20  35  54  76 102 132 170 218 271 324
#     4  12  26  42  59  82 113 149 186 221 261 310
#     4  10  20  36  57  81 111 146 182 219 261 311
#
# _framework density 20.946311999999999
#
# number of rings (size 3 to 8) (size 9 to 14) (size 15 to 20)
#    0.000    2.308    0.000    2.538    0.000    5.846 
#    0.000    1.923    0.000    2.308    0.000    3.231 
#    0.000    0.000    0.000    0.000    0.000    0.000 
#
# Total GULP energy -290272.236034 kJ/mol
# GULP energy per Si atom -5582.158385 kJ/mol
# Density = 2.089864 g / cm^3
# Si number density = 20.946312 Si / 1000 Ang^3
#
#
#
# Elastic Constant Matrix: (Units=GPa)
#
#
# Indices 1 2 3 4 5 6 
#
# 1 16.9485 -1.1640 -5.8500 0.0000 0.0000 0.0000
# 2 -1.1640 135.7289 53.3587 0.0000 0.0000 0.0000
# 3 -5.8500 53.3587 49.4243 0.0000 0.0000 0.0000
# 4 0.0000 0.0000 0.0000 63.7046 0.0000 0.0000
# 5 0.0000 0.0000 0.0000 0.0000 -135.7636 0.0000
# 6 0.0000 0.0000 0.0000 0.0000 0.0000 19.5488
#
#
#
# Elastic Compliance Matrix: (Units=1/GPa)
#
#
# Indices 1 2 3 4 5 6 
#
# 1 0.062828 -0.004143 0.011910 0.000000 0.000000 0.000000
# 2 -0.004143 0.013074 -0.014605 0.000000 0.000000 0.000000
# 3 0.011910 -0.014605 0.037410 0.000000 0.000000 0.000000
# 4 0.000000 0.000000 0.000000 0.015697 0.000000 0.000000
# 5 0.000000 0.000000 0.000000 0.000000 -0.007366 0.000000
# 6 0.000000 0.000000 0.000000 0.000000 0.000000 0.051154
#
#
# Mechanical properties :
#
#
# Convention : Reuss Voigt Hill
#
# Bulk Modulus (GPa) = 10.03662 32.75457 21.39559
# Shear Modulus (GPa) = 22.75975 -0.11823 11.32076
#
# Velocity S-wave (km/s) = 3.29990 -0.23784 2.32731
# Velocity P-wave (km/s) = 4.39558 3.94917 4.17834
#
# Compressibility (1/GPa) = 0.09963518
#
# Stress axis : x y z
#
# Youngs Moduli (GPa) = 15.91639 76.48994 26.73083
#
# Poissons Ratio (x) = 0.31691 -0.31835
# Poissons Ratio (y) = 0.06594 0.39040
# Poissons Ratio (z) = -0.18956 1.11712
#
# Static dielectric constant tensor:
#      x y z
#    x 1.744910 0.000000 0.000000 
#    y 0.000000 1.741860 0.000000 
#    z 0.000000 0.000000 1.823850 
# 
# From -- ./inp_files/60365.got.cif
#   From: 2010.05.17/outbox.cif.g08.bks.cpg/sg65_31_cif.got.tgz:60365.got - 2010.06.03 17:01:31.
