data_PCOD9489755
_publ_section_title
;
Structure prediction by ZEFSAII (Michael W. Deem and Ramdas Pophale) SiO2 
 PCOD9489755
Probable space group: C M M M
;
_chemical_formula_sum "Si O2"
_cell_formula_units_Z 112
_cell_length_a 25.295740
_cell_length_b 14.651694
_cell_length_c 15.320959
_cell_angle_alpha 90.000000
_cell_angle_beta 90.000000
_cell_angle_gamma 90.000000
_cell_volume 5678.337201
_symmetry_space_group_name_H-M "C M M M"
_symmetry_group_IT_number 65
_symmetry_cell_setting 'orthorhombic'
loop_
_space_group_symop_operation_xyz
x,y,z
-x,-y,z
x,-y,-z
-x,y,-z
-x,-y,-z
x,y,-z
-x,y,z
x,-y,z
1/2+x,1/2+y,z
1/2-x,1/2-y,z
1/2+x,1/2-y,-z
1/2-x,1/2+y,-z
1/2-x,1/2-y,-z
1/2+x,1/2+y,-z
1/2-x,1/2+y,z
1/2+x,1/2-y,z
loop_
_atom_site_type_symbol
_atom_site_label
_atom_site_fract_x
_atom_site_fract_y
_atom_site_fract_z
Si Si1 0.937035 0.273111 0.403325
Si Si2 0.772231 0.351332 0.211929
Si Si3 0.369884 0.200164 0.898466
Si Si4 0.137206 0.894393 0.634321
Si Si5 0.563348 0.895485 0.240360
Si Si6 0.241045 0.609163 0.594441
Si Si7 0.658041 0.401413 0.161810
O O1 0.929142 0.312918 0.500000
O O2 0.904903 0.178867 0.397421
O O3 0.919282 0.341989 0.327587
O O4 0.000000 0.255952 0.392479
O O5 0.750000 0.250000 0.211660
O O6 0.821197 0.352905 0.147296
O O7 0.786000 0.368592 0.313284
O O8 0.721433 0.404672 0.176531
O O9 0.418813 0.164556 0.841954
O O10 0.358839 0.308824 0.886505
O O11 0.374302 0.179435 0.000000
O O12 0.196747 0.866282 0.606293
O O13 0.136222 0.893460 0.739530
O O14 0.128761 0.000000 0.606507
O O15 0.500000 0.899799 0.243105
O O16 0.583358 0.000000 0.236490
O O17 0.221910 0.645081 0.500000
O O18 0.239771 0.500000 0.590190
O O19 0.641335 0.500000 0.124415
#
# Coordination Sequence:
#
# PCOD9489755 Si02
#       7
#    16  16  16  16  16  16  16
#     4  10  20  34  56  86 117 151 192 236 286 343
#     4   9  19  33  52  82 118 151 188 232 276 329
#     4  11  23  40  63  89 114 144 191 248 299 348
#     4   9  16  30  53  83 120 160 197 230 271 331
#     4  10  23  44  65  84 111 147 190 244 301 352
#     4   9  17  30  50  76 110 156 199 229 267 328
#     4   9  18  35  59  86 121 161 191 222 278 349
#
# _framework density 19.724084000000001
#
# number of rings (size 3 to 8) (size 9 to 14) (size 15 to 20)
#    0.000    2.429    1.429    1.714    0.000    6.286 
#    0.000    3.571    0.000    0.429    0.000    1.000 
#    0.000    0.000    0.000    0.000    0.000    0.000 
#
# Total GULP energy -312298.709185 kJ/mol
# GULP energy per Si atom -5576.762664 kJ/mol
# Density = 1.967919 g / cm^3
# Si number density = 19.724084 Si / 1000 Ang^3
#
#
#
# Elastic Constant Matrix: (Units=GPa)
#
#
# Indices 1 2 3 4 5 6 
#
# 1 35.1695 27.1369 28.8247 0.0000 0.0000 0.0000
# 2 27.1369 100.0024 44.9385 0.0000 0.0000 0.0000
# 3 28.8247 44.9385 150.7680 0.0000 0.0000 0.0000
# 4 0.0000 0.0000 0.0000 10.6080 0.0000 0.0000
# 5 0.0000 0.0000 0.0000 0.0000 22.8402 0.0000
# 6 0.0000 0.0000 0.0000 0.0000 0.0000 30.3818
#
#
#
# Elastic Compliance Matrix: (Units=1/GPa)
#
#
# Indices 1 2 3 4 5 6 
#
# 1 0.038929 -0.008336 -0.004958 0.000000 0.000000 0.000000
# 2 -0.008336 0.013331 -0.002380 0.000000 0.000000 0.000000
# 3 -0.004958 -0.002380 0.008290 0.000000 0.000000 0.000000
# 4 0.000000 0.000000 0.000000 0.094268 0.000000 0.000000
# 5 0.000000 0.000000 0.000000 0.000000 0.043782 0.000000
# 6 0.000000 0.000000 0.000000 0.000000 0.000000 0.032914
#
#
# Mechanical properties :
#
#
# Convention : Reuss Voigt Hill
#
# Bulk Modulus (GPa) = 34.24323 54.19335 44.21829
# Shear Modulus (GPa) = 18.34204 25.10198 21.72201
#
# Velocity S-wave (km/s) = 3.05279 3.57130 3.32217
# Velocity P-wave (km/s) = 5.46121 6.67390 6.09778
#
# Compressibility (1/GPa) = 0.02920286
#
# Stress axis : x y z
#
# Youngs Moduli (GPa) = 25.68750 75.01158 120.62756
#
# Poissons Ratio (x) = 0.62529 0.59808
# Poissons Ratio (y) = 0.21413 0.28708
# Poissons Ratio (z) = 0.12736 0.17852
#
# Static dielectric constant tensor:
#      x y z
#    x 1.710630 0.000000 0.000000 
#    y 0.000000 1.755910 0.000000 
#    z 0.000000 0.000000 1.700800 
# 
# From -- ./inp_files/40845.got.cif
#   From: 2010.05.17/outbox.cif.g08.bks.cpg/sg65_21_cif.got.tgz:40845.got - 2010.06.03 17:01:31.
