data_PCOD9489807
_publ_section_title
;
Structure prediction by ZEFSAII (Michael W. Deem and Ramdas Pophale) SiO2 
 PCOD9489807
Probable space group: C M M M
;
_chemical_formula_sum "Si O2"
_cell_formula_units_Z 104
_cell_length_a 29.607143
_cell_length_b 7.609657
_cell_length_c 23.925471
_cell_angle_alpha 90.000000
_cell_angle_beta 90.000000
_cell_angle_gamma 90.000000
_cell_volume 5390.413473
_symmetry_space_group_name_H-M "C M M M"
_symmetry_group_IT_number 65
_symmetry_cell_setting 'orthorhombic'
loop_
_space_group_symop_operation_xyz
x,y,z
-x,-y,z
x,-y,-z
-x,y,-z
-x,-y,-z
x,y,-z
-x,y,z
x,-y,z
1/2+x,1/2+y,z
1/2-x,1/2-y,z
1/2+x,1/2-y,-z
1/2-x,1/2+y,-z
1/2-x,1/2-y,-z
1/2+x,1/2+y,-z
1/2-x,1/2+y,z
1/2+x,1/2-y,z
loop_
_atom_site_type_symbol
_atom_site_label
_atom_site_fract_x
_atom_site_fract_y
_atom_site_fract_z
Si Si1 0.697041 0.290893 0.281150
Si Si2 0.856749 0.293564 0.392696
Si Si3 0.855897 0.784322 0.829530
Si Si4 0.550280 0.788330 0.652849
Si Si5 0.696960 0.211849 0.500000
Si Si6 0.802415 0.788972 0.937359
Si Si7 0.950049 0.789115 0.783990
O O1 0.691391 0.500000 0.282809
O O2 0.750000 0.250000 0.282137
O O3 0.671735 0.220329 0.335708
O O4 0.673941 0.227768 0.223778
O O5 0.863152 0.500000 0.404414
O O6 0.906785 0.219035 0.381321
O O7 0.828293 0.220327 0.444507
O O8 0.833849 0.723739 0.887350
O O9 0.907198 0.725506 0.818884
O O10 0.855523 0.000000 0.829872
O O11 0.500000 0.723116 0.637708
O O12 0.557651 0.748677 0.718410
O O13 0.549605 0.000000 0.647543
O O14 0.750000 0.250000 0.500000
O O15 0.693988 0.000000 0.500000
O O16 0.750000 0.750000 0.924945
O O17 0.807104 0.000000 0.938994
O O18 0.812295 0.721586 0.000000
O O19 0.000000 0.720617 0.798744
O O20 0.951188 0.000000 0.789898
#
# Coordination Sequence:
#
# PCOD9489807 Si02
#       7
#    16  16  16  16   8  16  16
#     4  11  21  32  47  69  97 124 154 195 241 285
#     4  10  20  35  52  71  96 125 158 194 234 281
#     4   9  17  29  45  69  96 121 154 193 236 280
#     4   9  17  30  49  73  99 123 150 190 237 282
#     4  10  22  38  53  69  91 125 164 198 231 278
#     4   9  17  30  47  65  90 125 161 195 231 275
#     4   9  16  28  47  69  94 124 156 189 229 282
#
# _framework density 19.293510000000001
#
# number of rings (size 3 to 8) (size 9 to 14) (size 15 to 20)
#    0.000    2.462    1.538    1.385    0.000    1.846 
#    0.000    1.923    0.000    2.769    0.000    3.231 
#    0.000    4.308    0.000    7.692    0.000    8.000 
#
# Total GULP energy -290144.688759 kJ/mol
# GULP energy per Si atom -5579.705553 kJ/mol
# Density = 1.924960 g / cm^3
# Si number density = 19.293510 Si / 1000 Ang^3
#
#
#
# Elastic Constant Matrix: (Units=GPa)
#
#
# Indices 1 2 3 4 5 6 
#
# 1 208.3469 0.6856 118.9512 0.0000 0.0000 0.0000
# 2 0.6856 40.3003 3.1910 0.0000 0.0000 0.0000
# 3 118.9512 3.1910 147.2988 0.0000 0.0000 0.0000
# 4 0.0000 0.0000 0.0000 15.0921 0.0000 0.0000
# 5 0.0000 0.0000 0.0000 0.0000 32.5378 0.0000
# 6 0.0000 0.0000 0.0000 0.0000 0.0000 -3.8857
#
#
#
# Elastic Compliance Matrix: (Units=1/GPa)
#
#
# Indices 1 2 3 4 5 6 
#
# 1 0.008913 0.000419 -0.007207 0.000000 0.000000 0.000000
# 2 0.000419 0.024876 -0.000877 0.000000 0.000000 0.000000
# 3 -0.007207 -0.000877 0.012628 0.000000 0.000000 0.000000
# 4 0.000000 0.000000 0.000000 0.066260 0.000000 0.000000
# 5 0.000000 0.000000 0.000000 0.000000 0.030733 0.000000
# 6 0.000000 0.000000 0.000000 0.000000 0.000000 -0.257351
#
#
# Mechanical properties :
#
#
# Convention : Reuss Voigt Hill
#
# Bulk Modulus (GPa) = 32.16806 71.28907 51.72857
# Shear Modulus (GPa) = -56.65744 26.95671 -14.85036
#
# Velocity S-wave (km/s) = -5.42492 3.74196 -2.77737
# Velocity P-wave (km/s) = 4.74664 7.46322 4.07241
#
# Compressibility (1/GPa) = 0.03108674
#
# Stress axis : x y z
#
# Youngs Moduli (GPa) = 112.19887 40.19927 79.19166
#
# Poissons Ratio (x) = -0.01684 0.57070
# Poissons Ratio (y) = -0.04701 0.06947
# Poissons Ratio (z) = 0.80857 0.03527
#
# Static dielectric constant tensor:
#      x y z
#    x 1.683190 0.000000 0.000000 
#    y 0.000000 1.714740 0.000000 
#    z 0.000000 0.000000 1.651100 
# 
# From -- ./inp_files/60826.got.cif
#   From: 2010.05.17/outbox.cif.g08.bks.cpg/sg65_31_cif.got.tgz:60826.got - 2010.06.03 17:01:31.
