data_PCOD9489975
_publ_section_title
;
Structure prediction by ZEFSAII (Michael W. Deem and Ramdas Pophale) SiO2 
 PCOD9489975
Probable space group: C M M M
;
_chemical_formula_sum "Si O2"
_cell_formula_units_Z 104
_cell_length_a 20.186383
_cell_length_b 8.903716
_cell_length_c 33.638040
_cell_angle_alpha 90.000000
_cell_angle_beta 90.000000
_cell_angle_gamma 90.000000
_cell_volume 6045.893470
_symmetry_space_group_name_H-M "C M M M"
_symmetry_group_IT_number 65
_symmetry_cell_setting 'orthorhombic'
loop_
_space_group_symop_operation_xyz
x,y,z
-x,-y,z
x,-y,-z
-x,y,-z
-x,-y,-z
x,y,-z
-x,y,z
x,-y,z
1/2+x,1/2+y,z
1/2-x,1/2-y,z
1/2+x,1/2-y,-z
1/2-x,1/2+y,-z
1/2-x,1/2-y,-z
1/2+x,1/2+y,-z
1/2-x,1/2+y,z
1/2+x,1/2-y,z
loop_
_atom_site_type_symbol
_atom_site_label
_atom_site_fract_x
_atom_site_fract_y
_atom_site_fract_z
Si Si1 0.922133 0.179315 0.694675
Si Si2 0.919522 0.173073 0.000000
Si Si3 0.821446 0.680645 0.150641
Si Si4 0.076874 0.318895 0.082788
Si Si5 0.821787 0.179365 0.546515
Si Si6 0.177870 0.680358 0.757548
Si Si7 0.422170 0.179160 0.391188
O O1 0.876169 0.252765 0.727929
O O2 0.906172 0.248316 0.651529
O O3 0.000000 0.210174 0.702439
O O4 0.912860 0.000000 0.693798
O O5 0.899042 0.253405 0.040728
O O6 0.000000 0.178753 0.000000
O O7 0.898947 0.000000 0.000000
O O8 0.816482 0.500000 0.148617
O O9 0.750000 0.750000 0.141288
O O10 0.876827 0.729526 0.119182
O O11 0.838026 0.719123 0.196400
O O12 0.078193 0.500000 0.080499
O O13 0.000000 0.273829 0.088897
O O14 0.836303 0.210777 0.500000
O O15 0.750000 0.250000 0.555438
O O16 0.876476 0.250341 0.575010
O O17 0.819201 0.000000 0.551743
O O18 0.180572 0.500000 0.753989
O O19 0.250000 0.750000 0.748792
O O20 0.500000 0.208990 0.399137
O O21 0.412805 0.000000 0.389303
#
# Coordination Sequence:
#
# PCOD9489975 Si02
#       7
#    16   8  16  16  16  16  16
#     4  10  21  37  56  79 108 139 173 216 263 310
#     4   9  17  29  46  71 100 127 159 203 252 295
#     4   9  19  34  52  74 101 133 166 205 251 299
#     4   9  17  31  51  73  97 128 166 204 245 296
#     4  10  21  37  57  81 110 143 179 220 264 310
#     4  10  20  35  55  78 105 137 174 214 257 308
#     4  10  21  37  57  81 109 141 177 217 262 312
#
# _framework density 17.201758999999999
#
# number of rings (size 3 to 8) (size 9 to 14) (size 15 to 20)
#    0.000    2.385    0.000    2.077    0.000    6.462 
#    0.000    6.538    0.000    1.846    0.000    0.000 
#    0.000    0.000    0.000    0.000    0.000    0.000 
#
# Total GULP energy -290162.715102 kJ/mol
# GULP energy per Si atom -5580.052214 kJ/mol
# Density = 1.716261 g / cm^3
# Si number density = 17.201759 Si / 1000 Ang^3
#
#
#
# Elastic Constant Matrix: (Units=GPa)
#
#
# Indices 1 2 3 4 5 6 
#
# 1 106.5346 59.3320 114.1863 0.0000 0.0000 0.0000
# 2 59.3320 62.4664 69.5045 0.0000 0.0000 0.0000
# 3 114.1863 69.5045 151.8879 0.0000 0.0000 0.0000
# 4 0.0000 0.0000 0.0000 23.9245 0.0000 0.0000
# 5 0.0000 0.0000 0.0000 0.0000 74.7155 0.0000
# 6 0.0000 0.0000 0.0000 0.0000 0.0000 29.9737
#
#
#
# Elastic Compliance Matrix: (Units=1/GPa)
#
#
# Indices 1 2 3 4 5 6 
#
# 1 0.052475 -0.012117 -0.033905 0.000000 0.000000 0.000000
# 2 -0.012117 0.035413 -0.007096 0.000000 0.000000 0.000000
# 3 -0.033905 -0.007096 0.035320 0.000000 0.000000 0.000000
# 4 0.000000 0.000000 0.000000 0.041798 0.000000 0.000000
# 5 0.000000 0.000000 0.000000 0.000000 0.013384 0.000000
# 6 0.000000 0.000000 0.000000 0.000000 0.000000 0.033363
#
#
# Mechanical properties :
#
#
# Convention : Reuss Voigt Hill
#
# Bulk Modulus (GPa) = 58.91896 89.65937 74.28917
# Shear Modulus (GPa) = 15.44907 30.91381 23.18144
#
# Velocity S-wave (km/s) = 3.00010 4.24386 3.67498
# Velocity P-wave (km/s) = 6.80638 8.73207 7.82866
#
# Compressibility (1/GPa) = 0.01697246
#
# Stress axis : x y z
#
# Youngs Moduli (GPa) = 19.05683 28.23837 28.31282
#
# Poissons Ratio (x) = 0.34216 0.95994
# Poissons Ratio (y) = 0.23091 0.20090
# Poissons Ratio (z) = 0.64611 0.20037
#
# Static dielectric constant tensor:
#      x y z
#    x 1.557820 0.000000 0.000000 
#    y 0.000000 1.573110 0.000000 
#    z 0.000000 0.000000 1.564710 
# 
# From -- ./inp_files/73316.got.cif
#   From: 2010.05.17/outbox.cif.g08.bks.cpg/sg65_37_cif.got.tgz:73316.got - 2010.06.03 17:01:31.
