data_PCOD9489653
_publ_section_title
;
Structure prediction by ZEFSAII (Michael W. Deem and Ramdas Pophale) SiO2 
 PCOD9489653
Probable space group: C M M M
;
_chemical_formula_sum "Si O2"
_cell_formula_units_Z 90
_cell_length_a 9.107839
_cell_length_b 25.157682
_cell_length_c 21.965519
_cell_angle_alpha 90.000000
_cell_angle_beta 90.000000
_cell_angle_gamma 90.000000
_cell_volume 5033.005875
_symmetry_space_group_name_H-M "C M M M"
_symmetry_group_IT_number 65
_symmetry_cell_setting 'orthorhombic'
loop_
_space_group_symop_operation_xyz
x,y,z
-x,-y,z
x,-y,-z
-x,y,-z
-x,-y,-z
x,y,-z
-x,y,z
x,-y,z
1/2+x,1/2+y,z
1/2-x,1/2-y,z
1/2+x,1/2-y,-z
1/2-x,1/2+y,-z
1/2-x,1/2-y,-z
1/2+x,1/2+y,-z
1/2-x,1/2+y,z
1/2+x,1/2-y,z
loop_
_atom_site_type_symbol
_atom_site_label
_atom_site_fract_x
_atom_site_fract_y
_atom_site_fract_z
Si Si1 0.830856 0.912991 0.168846
Si Si2 0.325908 0.896032 0.430790
Si Si3 0.174732 0.694943 0.336875
Si Si4 0.325110 0.500000 0.614743
Si Si5 0.323796 0.193459 0.193364
Si Si6 0.702456 0.500000 0.067774
Si Si7 0.500000 0.000000 0.000000
Si Si8 0.676873 0.000000 0.747298
O O1 0.751568 0.856545 0.160699
O O2 0.833877 0.948486 0.107821
O O3 0.739533 0.948622 0.216924
O O4 0.000000 0.905867 0.189288
O O5 0.309916 0.876306 0.500000
O O6 0.500000 0.908200 0.421488
O O7 0.280533 0.852651 0.380930
O O8 0.231089 0.948326 0.420656
O O9 0.250000 0.750000 0.354084
O O10 0.205942 0.684573 0.265654
O O11 0.000000 0.700942 0.342458
O O12 0.500000 0.500000 0.622420
O O13 0.243710 0.500000 0.679983
O O14 0.500000 0.194965 0.184347
O O15 0.250000 0.250000 0.177137
O O16 0.640019 0.500000 0.000000
O O17 0.873737 0.500000 0.052932
O O18 0.500000 0.000000 0.746285
#
# Coordination Sequence:
#
# PCOD9489653 Si02
#       8
#    16  16  16   8  16   8   2   8
#     4  11  22  35  56  86 120 148 184 230 276 324
#     4  10  21  37  55  74 100 137 179 218 265 331
#     4   9  19  35  54  78 103 135 174 220 271 321
#     4  12  24  37  53  75 105 135 173 224 277 331
#     4  10  20  34  55  79 111 149 189 230 277 331
#     4   9  21  36  59  85 119 151 191 228 271 310
#     4   8  20  36  58  88 116 152 202 228 258 326
#     4  11  22  35  56  81 108 142 180 220 277 335
#
# _framework density 17.881958000000001
#
# number of rings (size 3 to 8) (size 9 to 14) (size 15 to 20)
#    0.267    1.600    0.000    4.800    3.733    5.333 
#    0.000    0.000    0.000    0.533    0.000    0.000 
#    0.000    0.000    0.000    0.000    0.000    0.000 
#
# Total GULP energy -250856.060921 kJ/mol
# GULP energy per Si atom -5574.579132 kJ/mol
# Density = 1.784126 g / cm^3
# Si number density = 17.881958 Si / 1000 Ang^3
#
#
#
# Elastic Constant Matrix: (Units=GPa)
#
#
# Indices 1 2 3 4 5 6 
#
# 1 119.8312 48.1049 23.1010 0.0000 0.0000 0.0000
# 2 48.1049 143.7244 38.0235 0.0000 0.0000 0.0000
# 3 23.1010 38.0235 62.2087 0.0000 0.0000 0.0000
# 4 0.0000 0.0000 0.0000 26.9644 0.0000 0.0000
# 5 0.0000 0.0000 0.0000 0.0000 20.4796 0.0000
# 6 0.0000 0.0000 0.0000 0.0000 0.0000 37.1965
#
#
#
# Elastic Compliance Matrix: (Units=1/GPa)
#
#
# Indices 1 2 3 4 5 6 
#
# 1 0.009836 -0.002774 -0.001957 0.000000 0.000000 0.000000
# 2 -0.002774 0.009083 -0.004521 0.000000 0.000000 0.000000
# 3 -0.001957 -0.004521 0.019565 0.000000 0.000000 0.000000
# 4 0.000000 0.000000 0.000000 0.037086 0.000000 0.000000
# 5 0.000000 0.000000 0.000000 0.000000 0.048829 0.000000
# 6 0.000000 0.000000 0.000000 0.000000 0.000000 0.026884
#
#
# Mechanical properties :
#
#
# Convention : Reuss Voigt Hill
#
# Bulk Modulus (GPa) = 50.05310 60.46924 55.26117
# Shear Modulus (GPa) = 28.33708 31.36375 29.85041
#
# Velocity S-wave (km/s) = 3.98512 4.19254 4.09014
# Velocity P-wave (km/s) = 7.01616 7.57138 7.29905
#
# Compressibility (1/GPa) = 0.01997878
#
# Stress axis : x y z
#
# Youngs Moduli (GPa) = 101.66651 110.10183 51.11166
#
# Poissons Ratio (x) = 0.30548 0.10001
# Poissons Ratio (y) = 0.28207 0.23108
# Poissons Ratio (z) = 0.19894 0.49779
#
# Static dielectric constant tensor:
#      x y z
#    x 1.603620 0.000000 0.000000 
#    y 0.000000 1.599620 0.000000 
#    z 0.000000 0.000000 1.611960 
# 
# From -- ./inp_files/59957.got.cif
#   From: 2010.05.17/outbox.cif.g08.bks.cpg/sg65_30_cif.got.tgz:59957.got - 2010.06.03 17:01:31.
