data_PCOD9489321
_publ_section_title
;
Structure prediction by ZEFSAII (Michael W. Deem and Ramdas Pophale) SiO2 
 PCOD9489321
Probable space group: C M M M
;
_chemical_formula_sum "Si O2"
_cell_formula_units_Z 96
_cell_length_a 8.199400
_cell_length_b 19.371100
_cell_length_c 31.685043
_cell_angle_alpha 90.000000
_cell_angle_beta 90.000000
_cell_angle_gamma 90.000000
_cell_volume 5032.579654
_symmetry_space_group_name_H-M "C M M M"
_symmetry_group_IT_number 65
_symmetry_cell_setting 'orthorhombic'
loop_
_space_group_symop_operation_xyz
x,y,z
-x,-y,z
x,-y,-z
-x,y,-z
-x,-y,-z
x,y,-z
-x,y,z
x,-y,z
1/2+x,1/2+y,z
1/2-x,1/2-y,z
1/2+x,1/2-y,-z
1/2-x,1/2+y,-z
1/2-x,1/2-y,-z
1/2+x,1/2+y,-z
1/2-x,1/2+y,z
1/2+x,1/2-y,z
loop_
_atom_site_type_symbol
_atom_site_label
_atom_site_fract_x
_atom_site_fract_y
_atom_site_fract_z
Si Si1 0.303139 0.421645 0.548323
Si Si2 0.696512 0.921066 0.296969
Si Si3 0.801041 0.080113 0.046658
Si Si4 0.695521 0.328700 0.780490
Si Si5 0.302984 0.328215 0.124239
Si Si6 0.194192 0.671082 0.624978
O O1 0.250934 0.408018 0.500000
O O2 0.500000 0.421278 0.548697
O O3 0.249928 0.500000 0.559617
O O4 0.242862 0.366072 0.581584
O O5 0.500000 0.923697 0.300052
O O6 0.740198 0.881589 0.254092
O O7 0.759131 0.875394 0.336240
O O8 0.757240 0.000000 0.298042
O O9 0.742187 0.123704 0.086447
O O10 0.000000 0.082202 0.047044
O O11 0.754473 0.000000 0.050665
O O12 0.749325 0.105027 0.000000
O O13 0.500000 0.330127 0.779767
O O14 0.750000 0.250000 0.771314
O O15 0.751950 0.346408 0.828199
O O16 0.500000 0.331421 0.124429
O O17 0.250000 0.250000 0.116339
O O18 0.250000 0.750000 0.627320
O O19 0.000000 0.671270 0.627869
#
# Coordination Sequence:
#
# PCOD9489321 Si02
#       6
#    16  16  16  16  16  16
#     4   9  19  37  60  85 113 144 178 218 263 309
#     4  10  22  39  57  79 107 136 170 215 263 311
#     4   8  14  26  45  68  94 126 164 205 248 293
#     4  10  20  34  53  76 103 136 172 211 257 308
#     4   9  18  31  48  72 100 128 162 205 249 297
#     4  11  23  38  57  81 109 142 179 218 261 308
#
# _framework density 19.075704000000002
#
# number of rings (size 3 to 8) (size 9 to 14) (size 15 to 20)
#    0.000    2.500    0.000    3.000    0.000    6.333 
#    0.000    2.500    0.000    0.500    0.000    1.167 
#    0.000    0.000    0.000    0.000    0.000    0.000 
#
# Total GULP energy -267837.999732 kJ/mol
# GULP energy per Si atom -5579.958328 kJ/mol
# Density = 1.903229 g / cm^3
# Si number density = 19.075704 Si / 1000 Ang^3
#
#
#
# Elastic Constant Matrix: (Units=GPa)
#
#
# Indices 1 2 3 4 5 6 
#
# 1 13.5769 17.8514 15.0616 0.0000 0.0000 0.0000
# 2 17.8514 161.4943 132.0726 0.0000 0.0000 0.0000
# 3 15.0616 132.0726 166.5649 0.0000 0.0000 0.0000
# 4 0.0000 0.0000 0.0000 39.9395 0.0000 0.0000
# 5 0.0000 0.0000 0.0000 0.0000 -2.5485 0.0000
# 6 0.0000 0.0000 0.0000 0.0000 0.0000 10.7718
#
#
#
# Elastic Compliance Matrix: (Units=1/GPa)
#
#
# Indices 1 2 3 4 5 6 
#
# 1 0.086207 -0.008972 -0.000681 0.000000 0.000000 0.000000
# 2 -0.008972 0.018548 -0.013896 0.000000 0.000000 0.000000
# 3 -0.000681 -0.013896 0.017084 0.000000 0.000000 0.000000
# 4 0.000000 0.000000 0.000000 0.025038 0.000000 0.000000
# 5 0.000000 0.000000 0.000000 0.000000 -0.392393 0.000000
# 6 0.000000 0.000000 0.000000 0.000000 0.000000 0.092835
#
#
# Mechanical properties :
#
#
# Convention : Reuss Voigt Hill
#
# Bulk Modulus (GPa) = 13.37963 74.62302 44.00133
# Shear Modulus (GPa) = -61.98153 21.40926 -20.28613
#
# Velocity S-wave (km/s) = -5.70639 3.35376 -3.26460
# Velocity P-wave (km/s) = 6.03225 7.36215 2.98439
#
# Compressibility (1/GPa) = 0.07474048
#
# Stress axis : x y z
#
# Youngs Moduli (GPa) = 11.59998 53.91311 58.53545
#
# Poissons Ratio (x) = 0.48373 0.03985
# Poissons Ratio (y) = 0.10408 0.81341
# Poissons Ratio (z) = 0.00790 0.74918
#
# Static dielectric constant tensor:
#      x y z
#    x 1.664110 0.000000 0.000000 
#    y 0.000000 1.636530 0.000000 
#    z 0.000000 0.000000 1.673330 
# 
# From -- ./inp_files/73081.got.cif
#   From: 2010.05.17/outbox.cif.g08.bks.cpg/sg65_37_cif.got.tgz:73081.got - 2010.06.03 17:01:31.
