data_PCOD9489878
_publ_section_title
;
Structure prediction by ZEFSAII (Michael W. Deem and Ramdas Pophale) SiO2 
 PCOD9489878
Probable space group: C M M M
;
_chemical_formula_sum "Si O2"
_cell_formula_units_Z 80
_cell_length_a 8.589985
_cell_length_b 28.211394
_cell_length_c 19.280068
_cell_angle_alpha 90.000000
_cell_angle_beta 90.000000
_cell_angle_gamma 90.000000
_cell_volume 4672.243980
_symmetry_space_group_name_H-M "C M M M"
_symmetry_group_IT_number 65
_symmetry_cell_setting 'orthorhombic'
loop_
_space_group_symop_operation_xyz
x,y,z
-x,-y,z
x,-y,-z
-x,y,-z
-x,-y,-z
x,y,-z
-x,y,z
x,-y,z
1/2+x,1/2+y,z
1/2-x,1/2-y,z
1/2+x,1/2-y,-z
1/2-x,1/2+y,-z
1/2-x,1/2-y,-z
1/2+x,1/2+y,-z
1/2-x,1/2+y,z
1/2+x,1/2-y,z
loop_
_atom_site_type_symbol
_atom_site_label
_atom_site_fract_x
_atom_site_fract_y
_atom_site_fract_z
Si Si1 0.684875 0.106036 0.287837
Si Si2 0.810555 0.147434 0.077223
Si Si3 0.813251 0.801757 0.216899
Si Si4 0.688263 0.446623 0.154826
Si Si5 0.187632 0.055203 0.420603
O O1 0.500000 0.107338 0.282774
O O2 0.752896 0.157348 0.267924
O O3 0.750743 0.070056 0.229588
O O4 0.737067 0.088003 0.362839
O O5 0.761333 0.182180 0.139265
O O6 0.764647 0.094245 0.100598
O O7 0.000000 0.148403 0.076068
O O8 0.754744 0.158983 0.000000
O O9 0.750000 0.750000 0.233287
O O10 0.000000 0.801783 0.218220
O O11 0.500000 0.446198 0.157444
O O12 0.738937 0.500000 0.138092
O O13 0.230940 0.066952 0.500000
O O14 0.000000 0.058334 0.415420
O O15 0.229762 0.000000 0.408287
#
# Coordination Sequence:
#
# PCOD9489878 Si02
#       5
#    16  16  16  16  16
#     4  11  21  32  49  73 101 132 166 205 245 288
#     4   8  15  28  46  70  98 126 159 201 248 298
#     4  10  20  35  54  74  96 124 161 205 252 301
#     4   9  17  29  46  68  96 132 170 206 245 290
#     4   9  18  33  53  77 106 139 170 199 236 283
#
# _framework density 17.122392999999999
#
# number of rings (size 3 to 8) (size 9 to 14) (size 15 to 20)
#    0.000    2.600    0.000    4.800    0.000    4.400 
#    0.000    3.000    0.000   15.000    0.000    5.600 
#    0.000    0.000    0.000    0.000    0.000    0.000 
#
# Total GULP energy -223085.239786 kJ/mol
# GULP energy per Si atom -5577.130995 kJ/mol
# Density = 1.708342 g / cm^3
# Si number density = 17.122393 Si / 1000 Ang^3
#
#
#
# Elastic Constant Matrix: (Units=GPa)
#
#
# Indices 1 2 3 4 5 6 
#
# 1 23.2643 14.9449 16.3602 0.0000 0.0000 0.0000
# 2 14.9449 77.3157 34.6085 0.0000 0.0000 0.0000
# 3 16.3602 34.6085 99.7976 0.0000 0.0000 0.0000
# 4 0.0000 0.0000 0.0000 7.6711 0.0000 0.0000
# 5 0.0000 0.0000 0.0000 0.0000 -6.2880 0.0000
# 6 0.0000 0.0000 0.0000 0.0000 0.0000 22.1580
#
#
#
# Elastic Compliance Matrix: (Units=1/GPa)
#
#
# Indices 1 2 3 4 5 6 
#
# 1 0.051904 -0.007368 -0.005954 0.000000 0.000000 0.000000
# 2 -0.007368 0.016357 -0.004464 0.000000 0.000000 0.000000
# 3 -0.005954 -0.004464 0.012545 0.000000 0.000000 0.000000
# 4 0.000000 0.000000 0.000000 0.130360 0.000000 0.000000
# 5 0.000000 0.000000 0.000000 0.000000 -0.159034 0.000000
# 6 0.000000 0.000000 0.000000 0.000000 0.000000 0.045130
#
#
# Mechanical properties :
#
#
# Convention : Reuss Voigt Hill
#
# Bulk Modulus (GPa) = 22.10764 36.91164 29.50964
# Shear Modulus (GPa) = 33.80393 13.67248 23.73821
#
# Velocity S-wave (km/s) = 4.44808 2.82887 3.72746
# Velocity P-wave (km/s) = 6.27057 5.68105 5.98308
#
# Compressibility (1/GPa) = 0.04523323
#
# Stress axis : x y z
#
# Youngs Moduli (GPa) = 19.26623 61.13750 79.71619
#
# Poissons Ratio (x) = 0.45045 0.47461
# Poissons Ratio (y) = 0.14195 0.35589
# Poissons Ratio (z) = 0.11471 0.27294
#
# Static dielectric constant tensor:
#      x y z
#    x 1.577490 0.000000 0.000000 
#    y 0.000000 1.566110 0.000000 
#    z 0.000000 0.000000 1.573210 
# 
# From -- ./inp_files/49841.got.cif
#   From: 2010.05.17/outbox.cif.g08.bks.cpg/sg65_25_cif.got.tgz:49841.got - 2010.06.03 17:01:31.
