data_PCOD9489442
_publ_section_title
;
Structure prediction by ZEFSAII (Michael W. Deem and Ramdas Pophale) SiO2 
 PCOD9489442
Probable space group: C M M M
;
_chemical_formula_sum "Si O2"
_cell_formula_units_Z 88
_cell_length_a 20.921613
_cell_length_b 15.964404
_cell_length_c 14.310445
_cell_angle_alpha 90.000000
_cell_angle_beta 90.000000
_cell_angle_gamma 90.000000
_cell_volume 4779.704118
_symmetry_space_group_name_H-M "C M M M"
_symmetry_group_IT_number 65
_symmetry_cell_setting 'orthorhombic'
loop_
_space_group_symop_operation_xyz
x,y,z
-x,-y,z
x,-y,-z
-x,y,-z
-x,-y,-z
x,y,-z
-x,y,z
x,-y,z
1/2+x,1/2+y,z
1/2-x,1/2-y,z
1/2+x,1/2-y,-z
1/2-x,1/2+y,-z
1/2-x,1/2-y,-z
1/2+x,1/2+y,-z
1/2-x,1/2+y,z
1/2+x,1/2-y,z
loop_
_atom_site_type_symbol
_atom_site_label
_atom_site_fract_x
_atom_site_fract_y
_atom_site_fract_z
Si Si1 0.500000 0.400153 0.605659
Si Si2 0.073619 0.665414 0.394781
Si Si3 0.814545 0.197151 0.395782
Si Si4 0.422880 0.733661 0.109795
Si Si5 0.076485 0.409186 0.197845
Si Si6 0.381259 0.598332 0.743359
O O1 0.500000 0.500000 0.593420
O O2 0.500000 0.363486 0.500000
O O3 0.561437 0.384005 0.669506
O O4 0.077822 0.630040 0.500000
O O5 0.126711 0.737358 0.387485
O O6 0.084706 0.603082 0.309045
O O7 0.000000 0.696970 0.382867
O O8 0.818385 0.159135 0.500000
O O9 0.750000 0.250000 0.389043
O O10 0.820103 0.128761 0.315043
O O11 0.500000 0.729234 0.123279
O O12 0.400366 0.824246 0.148367
O O13 0.392635 0.658364 0.168834
O O14 0.409982 0.726970 0.000000
O O15 0.102395 0.500000 0.167938
O O16 0.000000 0.410884 0.180247
O O17 0.381157 0.500000 0.766032
#
# Coordination Sequence:
#
# PCOD9489442 Si02
#       6
#     8  16  16  16  16  16
#     4   9  18  30  49  83 118 147 185 231 275 329
#     4   9  17  30  52  80 111 148 186 226 278 343
#     4  10  21  36  55  81 117 156 193 233 282 342
#     4  10  20  34  53  81 118 153 189 241 302 352
#     4   9  17  30  49  76 109 144 189 240 288 338
#     4  11  21  35  56  83 116 153 195 237 284 343
#
# _framework density 18.411182
#
# number of rings (size 3 to 8) (size 9 to 14) (size 15 to 20)
#    0.000    2.273    2.727    0.545    1.273    2.182 
#    0.000    5.455    0.000    3.818    0.000    0.000 
#    0.000    0.000    0.000    0.000    0.000    0.000 
#
# Total GULP energy -245267.166104 kJ/mol
# GULP energy per Si atom -5574.253775 kJ/mol
# Density = 1.836928 g / cm^3
# Si number density = 18.411182 Si / 1000 Ang^3
#
#
#
# Elastic Constant Matrix: (Units=GPa)
#
#
# Indices 1 2 3 4 5 6 
#
# 1 37.5424 23.4784 19.5393 0.0000 0.0000 0.0000
# 2 23.4784 149.4601 85.5306 0.0000 0.0000 0.0000
# 3 19.5393 85.5306 122.9751 0.0000 0.0000 0.0000
# 4 0.0000 0.0000 0.0000 6.9901 0.0000 0.0000
# 5 0.0000 0.0000 0.0000 0.0000 11.4848 0.0000
# 6 0.0000 0.0000 0.0000 0.0000 0.0000 9.9873
#
#
#
# Elastic Compliance Matrix: (Units=1/GPa)
#
#
# Indices 1 2 3 4 5 6 
#
# 1 0.029984 -0.003295 -0.002472 0.000000 0.000000 0.000000
# 2 -0.003295 0.011477 -0.007459 0.000000 0.000000 0.000000
# 3 -0.002472 -0.007459 0.013712 0.000000 0.000000 0.000000
# 4 0.000000 0.000000 0.000000 0.143059 0.000000 0.000000
# 5 0.000000 0.000000 0.000000 0.000000 0.087071 0.000000
# 6 0.000000 0.000000 0.000000 0.000000 0.000000 0.100128
#
#
# Mechanical properties :
#
#
# Convention : Reuss Voigt Hill
#
# Bulk Modulus (GPa) = 34.81825 63.00824 48.91325
# Shear Modulus (GPa) = 11.86362 17.78773 14.82568
#
# Velocity S-wave (km/s) = 2.54120 3.11165 2.84078
# Velocity P-wave (km/s) = 5.25003 6.87073 6.11431
#
# Compressibility (1/GPa) = 0.02872057
#
# Stress axis : x y z
#
# Youngs Moduli (GPa) = 33.35105 87.13317 72.92867
#
# Poissons Ratio (x) = 0.28714 0.18029
# Poissons Ratio (y) = 0.10991 0.54394
# Poissons Ratio (z) = 0.08245 0.64989
#
# Static dielectric constant tensor:
#      x y z
#    x 1.652620 0.000000 0.000000 
#    y 0.000000 1.661860 0.000000 
#    z 0.000000 0.000000 1.634340 
# 
# From -- ./inp_files/44005.got.cif
#   From: 2010.05.17/outbox.cif.g08.bks.cpg/sg65_23_cif.got.tgz:44005.got - 2010.06.03 17:01:31.
