data_PCOD9489328
_publ_section_title
;
Structure prediction by ZEFSAII (Michael W. Deem and Ramdas Pophale) SiO2 
 PCOD9489328
Probable space group: C M M M
;
_chemical_formula_sum "Si O2"
_cell_formula_units_Z 88
_cell_length_a 28.219343
_cell_length_b 19.290123
_cell_length_c 8.763137
_cell_angle_alpha 90.000000
_cell_angle_beta 90.000000
_cell_angle_gamma 90.000000
_cell_volume 4770.253914
_symmetry_space_group_name_H-M "C M M M"
_symmetry_group_IT_number 65
_symmetry_cell_setting 'orthorhombic'
loop_
_space_group_symop_operation_xyz
x,y,z
-x,-y,z
x,-y,-z
-x,y,-z
-x,-y,-z
x,y,-z
-x,y,z
x,-y,z
1/2+x,1/2+y,z
1/2-x,1/2-y,z
1/2+x,1/2-y,-z
1/2-x,1/2+y,-z
1/2-x,1/2-y,-z
1/2+x,1/2+y,-z
1/2-x,1/2+y,z
1/2+x,1/2-y,z
loop_
_atom_site_type_symbol
_atom_site_label
_atom_site_fract_x
_atom_site_fract_y
_atom_site_fract_z
Si Si1 0.152733 0.830945 0.317101
Si Si2 0.943927 0.500000 0.673018
Si Si3 0.191545 0.318136 0.680452
Si Si4 0.269379 0.579237 0.817418
Si Si5 0.905763 0.637846 0.820011
Si Si6 0.946839 0.212518 0.182077
O O1 0.153002 0.833039 0.500000
O O2 0.182898 0.761820 0.269749
O O3 0.180238 0.896002 0.248311
O O4 0.098803 0.822605 0.259644
O O5 0.923914 0.500000 0.500000
O O6 0.929114 0.567681 0.765213
O O7 0.000000 0.500000 0.660655
O O8 0.200980 0.317485 0.500000
O O9 0.231168 0.364884 0.759232
O O10 0.141311 0.351942 0.721228
O O11 0.258054 0.500000 0.769959
O O12 0.270533 0.581219 0.000000
O O13 0.938749 0.705008 0.794993
O O14 0.893867 0.635869 0.000000
O O15 0.000000 0.193243 0.234662
O O16 0.944268 0.199907 0.000000
#
# Coordination Sequence:
#
# PCOD9489328 Si02
#       6
#    16   8  16  16  16  16
#     4  10  21  37  58  85 114 146 184 226 277 332
#     4  11  23  35  47  67 101 145 187 231 284 331
#     4  10  21  37  57  82 112 146 184 227 276 330
#     4  11  24  39  57  82 112 147 188 230 277 331
#     4  10  20  34  53  76 105 141 185 231 272 324
#     4   9  18  34  57  83 109 140 180 225 274 327
#
# _framework density 18.447655999999998
#
# number of rings (size 3 to 8) (size 9 to 14) (size 15 to 20)
#    0.000    1.909    0.000    3.545    1.273    8.364 
#    0.000    0.000    0.000    0.545    0.000    3.818 
#    0.000    0.000    0.000    0.000    0.000    0.000 
#
# Total GULP energy -245591.903018 kJ/mol
# GULP energy per Si atom -5581.634160 kJ/mol
# Density = 1.840567 g / cm^3
# Si number density = 18.447656 Si / 1000 Ang^3
#
#
#
# Elastic Constant Matrix: (Units=GPa)
#
#
# Indices 1 2 3 4 5 6 
#
# 1 103.8958 42.0263 25.0534 0.0000 0.0000 0.0000
# 2 42.0263 43.9757 20.2711 0.0000 0.0000 0.0000
# 3 25.0534 20.2711 37.5463 0.0000 0.0000 0.0000
# 4 0.0000 0.0000 0.0000 23.1570 0.0000 0.0000
# 5 0.0000 0.0000 0.0000 0.0000 11.2984 0.0000
# 6 0.0000 0.0000 0.0000 0.0000 0.0000 2.7493
#
#
#
# Elastic Compliance Matrix: (Units=1/GPa)
#
#
# Indices 1 2 3 4 5 6 
#
# 1 0.015977 -0.013786 -0.003218 0.000000 0.000000 0.000000
# 2 -0.013786 0.042169 -0.013568 0.000000 0.000000 0.000000
# 3 -0.003218 -0.013568 0.036107 0.000000 0.000000 0.000000
# 4 0.000000 0.000000 0.000000 0.043184 0.000000 0.000000
# 5 0.000000 0.000000 0.000000 0.000000 0.088508 0.000000
# 6 0.000000 0.000000 0.000000 0.000000 0.000000 0.363723
#
#
# Mechanical properties :
#
#
# Convention : Reuss Voigt Hill
#
# Bulk Modulus (GPa) = 30.20360 40.01326 35.10843
# Shear Modulus (GPa) = 7.55461 13.97876 10.76668
#
# Velocity S-wave (km/s) = 2.02584 2.75572 2.41847
# Velocity P-wave (km/s) = 4.67763 5.64469 5.18376
#
# Compressibility (1/GPa) = 0.03310864
#
# Stress axis : x y z
#
# Youngs Moduli (GPa) = 62.58816 23.71425 27.69575
#
# Poissons Ratio (x) = 0.32692 0.08914
# Poissons Ratio (y) = 0.86282 0.37578
# Poissons Ratio (z) = 0.20143 0.32176
#
# Static dielectric constant tensor:
#      x y z
#    x 1.636950 0.000000 0.000000 
#    y 0.000000 1.630070 0.000000 
#    z 0.000000 0.000000 1.625650 
# 
# From -- ./inp_files/18328.got.cif
#   From: 2010.05.17/outbox.cif.g08.bks.cpg/sg65_10_cif.got.tgz:18328.got - 2010.06.03 17:01:31.
