data_PCOD9489511
_publ_section_title
;
Structure prediction by ZEFSAII (Michael W. Deem and Ramdas Pophale) SiO2 
 PCOD9489511
Probable space group: C M M M
;
_chemical_formula_sum "Si O2"
_cell_formula_units_Z 96
_cell_length_a 24.768807
_cell_length_b 23.831563
_cell_length_c 8.460790
_cell_angle_alpha 90.000000
_cell_angle_beta 90.000000
_cell_angle_gamma 90.000000
_cell_volume 4994.229913
_symmetry_space_group_name_H-M "C M M M"
_symmetry_group_IT_number 65
_symmetry_cell_setting 'orthorhombic'
loop_
_space_group_symop_operation_xyz
x,y,z
-x,-y,z
x,-y,-z
-x,y,-z
-x,-y,-z
x,y,-z
-x,y,z
x,-y,z
1/2+x,1/2+y,z
1/2-x,1/2-y,z
1/2+x,1/2-y,-z
1/2-x,1/2+y,-z
1/2-x,1/2-y,-z
1/2+x,1/2+y,-z
1/2-x,1/2+y,z
1/2+x,1/2-y,z
loop_
_atom_site_type_symbol
_atom_site_label
_atom_site_fract_x
_atom_site_fract_y
_atom_site_fract_z
Si Si1 0.338818 0.137108 0.188523
Si Si2 0.882653 0.062640 0.692079
Si Si3 0.334571 0.265239 0.812693
Si Si4 0.560861 0.325725 0.690885
Si Si5 0.561105 0.065007 0.690692
Si Si6 0.275237 0.627395 0.311400
O O1 0.334395 0.201514 0.247432
O O2 0.391253 0.104833 0.250513
O O3 0.282018 0.110421 0.240008
O O4 0.342038 0.138618 0.000000
O O5 0.881845 0.060482 0.500000
O O6 0.926639 0.109555 0.733351
O O7 0.824533 0.087428 0.741469
O O8 0.892264 0.000000 0.751208
O O9 0.393819 0.289261 0.775017
O O10 0.292987 0.309535 0.737356
O O11 0.324180 0.264925 0.000000
O O12 0.567781 0.320500 0.500000
O O13 0.500000 0.310023 0.731087
O O14 0.561525 0.066030 0.500000
O O15 0.500000 0.081205 0.741643
O O16 0.570006 0.000000 0.739608
O O17 0.271988 0.624903 0.500000
#
# Coordination Sequence:
#
# PCOD9489511 Si02
#       6
#    16  16  16  16  16  16
#     4  11  23  36  54  81 108 138 176 213 258 320
#     4   8  15  29  49  74 103 133 167 210 257 301
#     4  10  21  36  52  73 106 143 176 215 265 318
#     4   9  18  32  51  76 103 134 176 220 260 307
#     4   9  20  40  62  82 106 137 174 217 263 310
#     4  10  20  34  54  79 106 138 177 220 265 311
#
# _framework density 19.222182
#
# number of rings (size 3 to 8) (size 9 to 14) (size 15 to 20)
#    0.000    2.500    0.000    3.500    0.000    7.333 
#    0.000    7.500    0.000   12.000    0.000    4.667 
#    0.000    0.000    0.000    0.000    0.000    0.000 
#
# Total GULP energy -267797.968476 kJ/mol
# GULP energy per Si atom -5579.124343 kJ/mol
# Density = 1.917843 g / cm^3
# Si number density = 19.222182 Si / 1000 Ang^3
#
#
#
# Elastic Constant Matrix: (Units=GPa)
#
#
# Indices 1 2 3 4 5 6 
#
# 1 102.8556 3.1351 7.6796 0.0000 0.0000 0.0000
# 2 3.1351 22.7653 1.7734 0.0000 0.0000 0.0000
# 3 7.6796 1.7734 12.7326 0.0000 0.0000 0.0000
# 4 0.0000 0.0000 0.0000 31.0698 0.0000 0.0000
# 5 0.0000 0.0000 0.0000 0.0000 7.9166 0.0000
# 6 0.0000 0.0000 0.0000 0.0000 0.0000 13.7104
#
#
#
# Elastic Compliance Matrix: (Units=1/GPa)
#
#
# Indices 1 2 3 4 5 6 
#
# 1 0.010201 -0.000936 -0.006022 0.000000 0.000000 0.000000
# 2 -0.000936 0.044494 -0.005633 0.000000 0.000000 0.000000
# 3 -0.006022 -0.005633 0.082955 0.000000 0.000000 0.000000
# 4 0.000000 0.000000 0.000000 0.032186 0.000000 0.000000
# 5 0.000000 0.000000 0.000000 0.000000 0.126317 0.000000
# 6 0.000000 0.000000 0.000000 0.000000 0.000000 0.072937
#
#
# Mechanical properties :
#
#
# Convention : Reuss Voigt Hill
#
# Bulk Modulus (GPa) = 8.89135 18.16998 13.53067
# Shear Modulus (GPa) = 11.58049 18.92372 15.25211
#
# Velocity S-wave (km/s) = 2.45716 3.14104 2.81991
# Velocity P-wave (km/s) = 3.56171 4.75688 4.20201
#
# Compressibility (1/GPa) = 0.11246880
#
# Stress axis : x y z
#
# Youngs Moduli (GPa) = 98.03422 22.47481 12.05467
#
# Poissons Ratio (x) = 0.02103 0.07259
# Poissons Ratio (y) = 0.09172 0.06790
# Poissons Ratio (z) = 0.59037 0.12660
#
# Static dielectric constant tensor:
#      x y z
#    x 1.653600 0.000000 0.000000 
#    y 0.000000 1.681950 0.000000 
#    z 0.000000 0.000000 1.666300 
# 
# From -- ./inp_files/14279.got.cif
#   From: 2010.05.17/outbox.cif.g08.bks.cpg/sg65_8_cif.got.tgz:14279.got - 2010.06.03 17:01:31.
