data_PCOD9489041
_publ_section_title
;
Structure prediction by ZEFSAII (Michael W. Deem and Ramdas Pophale) SiO2 
 PCOD9489041
Probable space group: C M M M
;
_chemical_formula_sum "Si O2"
_cell_formula_units_Z 88
_cell_length_a 16.937518
_cell_length_b 18.671654
_cell_length_c 20.186576
_cell_angle_alpha 90.000000
_cell_angle_beta 90.000000
_cell_angle_gamma 90.000000
_cell_volume 6384.034450
_symmetry_space_group_name_H-M "C M M M"
_symmetry_group_IT_number 65
_symmetry_cell_setting 'orthorhombic'
loop_
_space_group_symop_operation_xyz
x,y,z
-x,-y,z
x,-y,-z
-x,y,-z
-x,-y,-z
x,y,-z
-x,y,z
x,-y,z
1/2+x,1/2+y,z
1/2-x,1/2-y,z
1/2+x,1/2-y,-z
1/2-x,1/2+y,-z
1/2-x,1/2-y,-z
1/2+x,1/2+y,-z
1/2-x,1/2+y,z
1/2+x,1/2-y,z
loop_
_atom_site_type_symbol
_atom_site_label
_atom_site_fract_x
_atom_site_fract_y
_atom_site_fract_z
Si Si1 0.093627 0.783433 0.077477
Si Si2 0.593763 0.086427 0.428845
Si Si3 0.848652 0.351316 0.851517
Si Si4 0.197666 0.082999 0.077937
Si Si5 0.500000 0.914811 0.075027
Si Si6 0.095634 0.414220 0.282035
O O1 0.141922 0.730690 0.125331
O O2 0.123370 0.864463 0.086511
O O3 0.000000 0.776178 0.089243
O O4 0.109188 0.764421 0.000000
O O5 0.626576 0.112446 0.500000
O O6 0.500000 0.101882 0.429303
O O7 0.622324 0.108520 0.356085
O O8 0.600697 0.000000 0.428980
O O9 0.768978 0.385995 0.878878
O O10 0.922284 0.389016 0.888146
O O11 0.862219 0.368736 0.774670
O O12 0.181940 0.000000 0.093385
O O13 0.220706 0.086931 0.000000
O O14 0.500000 0.000000 0.073861
O O15 0.500000 0.887198 0.000000
O O16 0.110230 0.500000 0.273081
O O17 0.000000 0.405582 0.277173
#
# Coordination Sequence:
#
# PCOD9489041 Si02
#       6
#    16  16  16  16   8  16
#     4  10  20  34  49  62  78 105 140 177 216 253
#     4   7  10  17  29  45  68 102 142 174 194 220
#     4  12  19  28  42  61  87 110 135 167 207 252
#     4  10  21  34  47  62  80 105 139 179 216 249
#     4  11  20  26  36  54  80 114 142 164 194 237
#     4   9  15  22  33  52  80 112 141 168 199 236
#
# _framework density 13.784387000000001
#
# number of rings (size 3 to 8) (size 9 to 14) (size 15 to 20)
#    0.000    2.273    1.818    5.455    0.000    3.273 
#    0.000    1.818    0.000    0.000    0.000    0.000 
#    0.000    2.909    0.000    0.727    0.000    1.091 
#
# Total GULP energy -245021.611448 kJ/mol
# GULP energy per Si atom -5568.672987 kJ/mol
# Density = 1.375301 g / cm^3
# Si number density = 13.784387 Si / 1000 Ang^3
#
#
#
# Elastic Constant Matrix: (Units=GPa)
#
#
# Indices 1 2 3 4 5 6 
#
# 1 18.0131 16.5352 17.1819 0.0000 0.0000 0.0000
# 2 16.5352 76.6613 37.5534 0.0000 0.0000 0.0000
# 3 17.1819 37.5534 113.4590 0.0000 0.0000 0.0000
# 4 0.0000 0.0000 0.0000 12.6380 0.0000 0.0000
# 5 0.0000 0.0000 0.0000 0.0000 8.0333 0.0000
# 6 0.0000 0.0000 0.0000 0.0000 0.0000 5.4205
#
#
#
# Elastic Compliance Matrix: (Units=1/GPa)
#
#
# Indices 1 2 3 4 5 6 
#
# 1 0.073644 -0.012438 -0.007036 0.000000 0.000000 0.000000
# 2 -0.012438 0.017669 -0.003965 0.000000 0.000000 0.000000
# 3 -0.007036 -0.003965 0.011191 0.000000 0.000000 0.000000
# 4 0.000000 0.000000 0.000000 0.079126 0.000000 0.000000
# 5 0.000000 0.000000 0.000000 0.000000 0.124482 0.000000
# 6 0.000000 0.000000 0.000000 0.000000 0.000000 0.184486
#
#
# Mechanical properties :
#
#
# Convention : Reuss Voigt Hill
#
# Bulk Modulus (GPa) = 17.97658 38.96382 28.47020
# Shear Modulus (GPa) = 8.99252 14.34255 11.66753
#
# Velocity S-wave (km/s) = 2.55692 3.22917 2.91251
# Velocity P-wave (km/s) = 4.66762 6.49856 5.65765
#
# Compressibility (1/GPa) = 0.05562795
#
# Stress axis : x y z
#
# Youngs Moduli (GPa) = 13.57892 56.59536 89.35358
#
# Poissons Ratio (x) = 0.70392 0.62866
# Poissons Ratio (y) = 0.16889 0.35426
# Poissons Ratio (z) = 0.09554 0.22439
#
# Static dielectric constant tensor:
#      x y z
#    x 1.430220 0.000000 0.000000 
#    y 0.000000 1.464120 0.000000 
#    z 0.000000 0.000000 1.486870 
# 
# From -- ./inp_files/63752.got.cif
#   From: 2010.05.17/outbox.cif.g08.bks.cpg/sg65_32_cif.got.tgz:63752.got - 2010.06.03 17:01:31.
