data_PCOD9489215
_publ_section_title
;
Structure prediction by ZEFSAII (Michael W. Deem and Ramdas Pophale) SiO2 
 PCOD9489215
Probable space group: C M M M
;
_chemical_formula_sum "Si O2"
_cell_formula_units_Z 104
_cell_length_a 24.399749
_cell_length_b 10.236624
_cell_length_c 25.421930
_cell_angle_alpha 90.000000
_cell_angle_beta 90.000000
_cell_angle_gamma 90.000000
_cell_volume 6349.662307
_symmetry_space_group_name_H-M "C M M M"
_symmetry_group_IT_number 65
_symmetry_cell_setting 'orthorhombic'
loop_
_space_group_symop_operation_xyz
x,y,z
-x,-y,z
x,-y,-z
-x,y,-z
-x,-y,-z
x,y,-z
-x,y,z
x,-y,z
1/2+x,1/2+y,z
1/2-x,1/2-y,z
1/2+x,1/2-y,-z
1/2-x,1/2+y,-z
1/2-x,1/2-y,-z
1/2+x,1/2+y,-z
1/2-x,1/2+y,z
1/2+x,1/2-y,z
loop_
_atom_site_type_symbol
_atom_site_label
_atom_site_fract_x
_atom_site_fract_y
_atom_site_fract_z
Si Si1 0.566628 0.851943 0.060859
Si Si2 0.750000 0.250000 0.376676
Si Si3 0.438329 0.210289 0.437149
Si Si4 0.934668 0.652705 0.244482
Si Si5 0.640417 0.852053 0.655792
Si Si6 0.409346 0.500000 0.563121
Si Si7 0.933346 0.151729 0.849933
Si Si8 0.217903 0.000000 0.437420
O O1 0.500000 0.851732 0.062284
O O2 0.584929 0.736003 0.099262
O O3 0.583245 0.000000 0.076995
O O4 0.582641 0.832165 0.000000
O O5 0.693658 0.238731 0.344867
O O6 0.753273 0.125501 0.413998
O O7 0.426856 0.196438 0.500000
O O8 0.500000 0.159749 0.427850
O O9 0.392019 0.152372 0.399637
O O10 0.437128 0.364264 0.422508
O O11 0.924478 0.500000 0.228828
O O12 0.902239 0.679590 0.298113
O O13 0.918925 0.758237 0.200256
O O14 0.000000 0.663249 0.253249
O O15 0.659528 0.000000 0.664868
O O16 0.409641 0.500000 0.500000
O O17 0.345937 0.500000 0.579601
O O18 0.000000 0.147706 0.851315
O O19 0.914877 0.000000 0.848332
O O20 0.219361 0.000000 0.500000
#
# Coordination Sequence:
#
# PCOD9489215 Si02
#       8
#    16   8  16  16  16   8  16   8
#     4   8  13  21  35  57  87 127 171 206 238 281
#     4  12  23  40  56  78 100 124 157 198 242 294
#     4  10  20  34  52  74  99 124 151 188 236 291
#     4   9  18  34  53  68  89 126 166 203 244 292
#     4  11  23  38  54  73  95 123 160 199 243 296
#     4   9  17  32  51  72  96 123 152 178 221 287
#     4   9  16  26  40  63  93 122 161 208 249 287
#     4  11  22  37  58  79  99 126 157 189 233 296
#
# _framework density 16.378823000000001
#
# number of rings (size 3 to 8) (size 9 to 14) (size 15 to 20)
#    0.000    2.308    2.308    1.846    0.000    4.923 
#    2.769    2.308    0.000    0.000    0.000    0.000 
#    0.000    0.000    0.000    0.692    0.000    6.923 
#
# Total GULP energy -289664.915110 kJ/mol
# GULP energy per Si atom -5570.479137 kJ/mol
# Density = 1.634154 g / cm^3
# Si number density = 16.378823 Si / 1000 Ang^3
#
#
#
# Elastic Constant Matrix: (Units=GPa)
#
#
# Indices 1 2 3 4 5 6 
#
# 1 42.9940 24.3834 29.5887 0.0000 0.0000 0.0000
# 2 24.3834 117.9987 55.2082 0.0000 0.0000 0.0000
# 3 29.5887 55.2082 86.5697 0.0000 0.0000 0.0000
# 4 0.0000 0.0000 0.0000 20.1315 0.0000 0.0000
# 5 0.0000 0.0000 0.0000 0.0000 4.0399 0.0000
# 6 0.0000 0.0000 0.0000 0.0000 0.0000 38.4597
#
#
#
# Elastic Compliance Matrix: (Units=1/GPa)
#
#
# Indices 1 2 3 4 5 6 
#
# 1 0.030756 -0.002048 -0.009206 0.000000 0.000000 0.000000
# 2 -0.002048 0.012215 -0.007090 0.000000 0.000000 0.000000
# 3 -0.009206 -0.007090 0.019219 0.000000 0.000000 0.000000
# 4 0.000000 0.000000 0.000000 0.049673 0.000000 0.000000
# 5 0.000000 0.000000 0.000000 0.000000 0.247532 0.000000
# 6 0.000000 0.000000 0.000000 0.000000 0.000000 0.026001
#
#
# Mechanical properties :
#
#
# Convention : Reuss Voigt Hill
#
# Bulk Modulus (GPa) = 39.21186 51.76923 45.49055
# Shear Modulus (GPa) = 11.61206 21.75168 16.68187
#
# Velocity S-wave (km/s) = 2.66553 3.64818 3.19486
# Velocity P-wave (km/s) = 5.78498 7.03005 6.43769
#
# Compressibility (1/GPa) = 0.02550249
#
# Stress axis : x y z
#
# Youngs Moduli (GPa) = 32.51360 81.86609 52.03104
#
# Poissons Ratio (x) = 0.16769 0.47899
# Poissons Ratio (y) = 0.06660 0.36889
# Poissons Ratio (z) = 0.29932 0.58042
#
# Static dielectric constant tensor:
#      x y z
#    x 1.547610 0.000000 0.000000 
#    y 0.000000 1.592390 0.000000 
#    z 0.000000 0.000000 1.544960 
# 
# From -- ./inp_files/75838.got.cif
#   From: 2010.05.17/outbox.cif.g08.bks.cpg/sg65_38_cif.got.tgz:75838.got - 2010.06.03 17:01:31.
