data_PCOD9490668
_publ_section_title
;
Structure prediction by ZEFSAII (Michael W. Deem and Ramdas Pophale) SiO2 
 PCOD9490668
Probable space group: C M M M
;
_chemical_formula_sum "Si O2"
_cell_formula_units_Z 64
_cell_length_a 7.811674
_cell_length_b 34.817820
_cell_length_c 10.163019
_cell_angle_alpha 90.000000
_cell_angle_beta 90.000000
_cell_angle_gamma 90.000000
_cell_volume 2764.193390
_symmetry_space_group_name_H-M "C M M M"
_symmetry_group_IT_number 65
_symmetry_cell_setting 'orthorhombic'
loop_
_space_group_symop_operation_xyz
x,y,z
-x,-y,z
x,-y,-z
-x,y,-z
-x,-y,-z
x,y,-z
-x,y,z
x,-y,z
1/2+x,1/2+y,z
1/2-x,1/2-y,z
1/2+x,1/2-y,-z
1/2-x,1/2+y,-z
1/2-x,1/2-y,-z
1/2+x,1/2+y,-z
1/2-x,1/2+y,z
1/2+x,1/2-y,z
loop_
_atom_site_type_symbol
_atom_site_label
_atom_site_fract_x
_atom_site_fract_y
_atom_site_fract_z
Si Si1 0.794553 0.794553 0.713186
Si Si2 0.204546 0.205412 0.000000
Si Si3 0.298854 0.567193 0.150633
Si Si4 0.289944 0.500000 0.653620
Si Si5 0.700172 0.875589 0.360738
O O1 0.750000 0.750000 0.683265
O O2 0.723758 0.829843 0.632575
O O3 0.000000 0.796119 0.709761
O O4 0.728592 0.806245 0.859075
O O5 0.250000 0.250000 0.000000
O O6 0.000000 0.199392 0.000000
O O7 0.500000 0.558780 0.137125
O O8 0.231995 0.536175 0.256818
O O9 0.281791 0.607070 0.229304
O O10 0.228771 0.566971 0.000000
O O11 0.500000 0.500000 0.649035
O O12 0.233559 0.500000 0.500000
O O13 0.771051 0.891783 0.500000
O O14 0.500000 0.884497 0.354669
#
# Coordination Sequence:
#
# PCOD9490668 Si02
#       5
#    16   8  16   8  16
#     4  10  20  36  59  86 117 154 200 252 308 367
#     4   8  16  30  50  78 108 137 176 229 286 346
#     4  10  21  38  63  94 126 159 200 249 300 357
#     4   9  17  33  62  97 130 163 198 238 292 357
#     4  11  25  42  58  82 119 162 208 255 305 362
#
# _framework density 23.153227999999999
#
# number of rings (size 3 to 8) (size 9 to 14) (size 15 to 20)
#    0.000    2.125    0.000    2.625    1.750    6.500 
#    0.000    0.625    0.000    3.750    0.000    0.000 
#    0.000    0.000    0.000    0.000    0.000    0.000 
#
# Total GULP energy -178305.315046 kJ/mol
# GULP energy per Si atom -5572.041095 kJ/mol
# Density = 2.310053 g / cm^3
# Si number density = 23.153228 Si / 1000 Ang^3
#
#
#
# Elastic Constant Matrix: (Units=GPa)
#
#
# Indices 1 2 3 4 5 6 
#
# 1 40.0835 -9.3678 8.3157 0.0000 0.0000 0.0000
# 2 -9.3678 118.7773 68.9624 0.0000 0.0000 0.0000
# 3 8.3157 68.9624 243.5889 0.0000 0.0000 0.0000
# 4 0.0000 0.0000 0.0000 35.1455 0.0000 0.0000
# 5 0.0000 0.0000 0.0000 0.0000 39.3282 0.0000
# 6 0.0000 0.0000 0.0000 0.0000 0.0000 9.4704
#
#
#
# Elastic Compliance Matrix: (Units=1/GPa)
#
#
# Indices 1 2 3 4 5 6 
#
# 1 0.026031 0.003074 -0.001759 0.000000 0.000000 0.000000
# 2 0.003074 0.010438 -0.003060 0.000000 0.000000 0.000000
# 3 -0.001759 -0.003060 0.005032 0.000000 0.000000 0.000000
# 4 0.000000 0.000000 0.000000 0.028453 0.000000 0.000000
# 5 0.000000 0.000000 0.000000 0.000000 0.025427 0.000000
# 6 0.000000 0.000000 0.000000 0.000000 0.000000 0.105593
#
#
# Mechanical properties :
#
#
# Convention : Reuss Voigt Hill
#
# Bulk Modulus (GPa) = 26.30769 59.80781 43.05775
# Shear Modulus (GPa) = 23.02721 39.09144 31.05933
#
# Velocity S-wave (km/s) = 3.15708 4.11345 3.66658
# Velocity P-wave (km/s) = 4.96756 6.96046 6.04668
#
# Compressibility (1/GPa) = 0.03801170
#
# Stress axis : x y z
#
# Youngs Moduli (GPa) = 38.41519 95.80094 198.74059
#
# Poissons Ratio (x) = -0.29453 0.34959
# Poissons Ratio (y) = -0.11810 0.60817
# Poissons Ratio (z) = 0.06757 0.29316
#
# Static dielectric constant tensor:
#      x y z
#    x 1.843130 0.000000 0.000000 
#    y 0.000000 1.891400 0.000000 
#    z 0.000000 0.000000 2.133610 
# 
# From -- ./inp_files/20974.got.cif
#   From: 2010.05.17/outbox.cif.g08.bks.cpg/sg65_11_cif.got.tgz:20974.got - 2010.06.03 17:01:31.
