data_PCOD9490711
_publ_section_title
;
Structure prediction by ZEFSAII (Michael W. Deem and Ramdas Pophale) SiO2 
 PCOD9490711
Probable space group: C M M M
;
_chemical_formula_sum "Si O2"
_cell_formula_units_Z 80
_cell_length_a 23.805727
_cell_length_b 20.976727
_cell_length_c 8.187608
_cell_angle_alpha 90.000000
_cell_angle_beta 90.000000
_cell_angle_gamma 90.000000
_cell_volume 4088.614991
_symmetry_space_group_name_H-M "C M M M"
_symmetry_group_IT_number 65
_symmetry_cell_setting 'orthorhombic'
loop_
_space_group_symop_operation_xyz
x,y,z
-x,-y,z
x,-y,-z
-x,y,-z
-x,-y,-z
x,y,-z
-x,y,z
x,-y,z
1/2+x,1/2+y,z
1/2-x,1/2-y,z
1/2+x,1/2-y,-z
1/2-x,1/2+y,-z
1/2-x,1/2-y,-z
1/2+x,1/2+y,-z
1/2-x,1/2+y,z
1/2+x,1/2-y,z
loop_
_atom_site_type_symbol
_atom_site_label
_atom_site_fract_x
_atom_site_fract_y
_atom_site_fract_z
Si Si1 0.250306 0.926081 0.303826
Si Si2 0.631270 0.625414 0.697868
Si Si3 0.631040 0.875310 0.806145
Si Si4 0.064813 0.749257 0.196819
Si Si5 0.565876 0.000000 0.695004
Si Si6 0.563859 0.500000 0.300807
O O1 0.246210 0.930288 0.500000
O O2 0.195051 0.888142 0.246458
O O3 0.307175 0.889200 0.262284
O O4 0.251700 0.000000 0.243312
O O5 0.631333 0.627770 0.500000
O O6 0.600547 0.688502 0.758747
O O7 0.595890 0.563532 0.750137
O O8 0.598281 0.813121 0.741987
O O9 0.594403 0.937346 0.766594
O O10 0.636509 0.868453 0.000000
O O11 0.000000 0.752203 0.256718
O O12 0.062002 0.744937 0.000000
O O13 0.500000 0.000000 0.730164
O O14 0.574492 0.000000 0.500000
O O15 0.500000 0.500000 0.244308
O O16 0.563825 0.500000 0.500000
#
# Coordination Sequence:
#
# PCOD9490711 Si02
#       6
#    16  16  16  16   8   8
#     4  10  20  37  60  87 122 154 189 243 299 347
#     4  10  20  36  60  88 116 153 196 240 292 350
#     4  11  23  39  61  86 115 156 202 243 290 351
#     4  10  23  42  59  81 119 159 194 242 298 348
#     4  11  23  38  59  88 118 149 192 247 302 353
#     4   9  16  29  53  84 112 141 186 239 284 333
#
# _framework density 19.566527000000001
#
# number of rings (size 3 to 8) (size 9 to 14) (size 15 to 20)
#    0.000    1.800    2.000    2.100    0.000    6.000 
#    0.000    4.500    0.000    1.800    0.000    0.000 
#    0.000    0.000    0.000    0.000    0.000    0.000 
#
# Total GULP energy -223409.975649 kJ/mol
# GULP energy per Si atom -5585.249391 kJ/mol
# Density = 1.952199 g / cm^3
# Si number density = 19.566527 Si / 1000 Ang^3
#
#
#
# Elastic Constant Matrix: (Units=GPa)
#
#
# Indices 1 2 3 4 5 6 
#
# 1 -160.1799 -15.8956 71.8764 0.0000 0.0000 0.0000
# 2 -15.8956 149.2547 24.6425 0.0000 0.0000 0.0000
# 3 71.8764 24.6425 -2.3049 0.0000 0.0000 0.0000
# 4 0.0000 0.0000 0.0000 23.5077 0.0000 0.0000
# 5 0.0000 0.0000 0.0000 0.0000 17.2626 0.0000
# 6 0.0000 0.0000 0.0000 0.0000 0.0000 53.5733
#
#
#
# Elastic Compliance Matrix: (Units=1/GPa)
#
#
# Indices 1 2 3 4 5 6 
#
# 1 0.001410 -0.002572 0.016487 0.000000 0.000000 0.000000
# 2 -0.002572 0.007113 -0.004159 0.000000 0.000000 0.000000
# 3 0.016487 -0.004159 0.035823 0.000000 0.000000 0.000000
# 4 0.000000 0.000000 0.000000 0.042539 0.000000 0.000000
# 5 0.000000 0.000000 0.000000 0.000000 0.057929 0.000000
# 6 0.000000 0.000000 0.000000 0.000000 0.000000 0.018666
#
#
# Mechanical properties :
#
#
# Convention : Reuss Voigt Hill
#
# Bulk Modulus (GPa) = 15.65933 16.44628 16.05281
# Shear Modulus (GPa) = 30.25665 12.61184 21.43424
#
# Velocity S-wave (km/s) = 3.93663 2.54158 3.31336
# Velocity P-wave (km/s) = 5.35567 4.12751 4.78119
#
# Compressibility (1/GPa) = 0.06385968
#
# Stress axis : x y z
#
# Youngs Moduli (GPa) = 708.98339 140.59455 27.91503
#
# Poissons Ratio (x) = 0.36159 -0.46024
# Poissons Ratio (y) = 1.82343 0.11609
# Poissons Ratio (z) = -11.68921 0.58468
#
# Static dielectric constant tensor:
#      x y z
#    x 1.676860 0.000000 0.000000 
#    y 0.000000 1.652540 0.000000 
#    z 0.000000 0.000000 1.698380 
# 
# From -- ./inp_files/13827.got.cif
#   From: 2010.05.17/outbox.cif.g08.bks.cpg/sg65_7_cif.got.tgz:13827.got - 2010.06.03 17:01:31.
