data_PCOD9490233
_publ_section_title
;
Structure prediction by ZEFSAII (Michael W. Deem and Ramdas Pophale) SiO2 
 PCOD9490233
Probable space group: C M M M
;
_chemical_formula_sum "Si O2"
_cell_formula_units_Z 100
_cell_length_a 7.691089
_cell_length_b 28.298039
_cell_length_c 18.992681
_cell_angle_alpha 90.000000
_cell_angle_beta 90.000000
_cell_angle_gamma 90.000000
_cell_volume 4133.619066
_symmetry_space_group_name_H-M "C M M M"
_symmetry_group_IT_number 65
_symmetry_cell_setting 'orthorhombic'
loop_
_space_group_symop_operation_xyz
x,y,z
-x,-y,z
x,-y,-z
-x,y,-z
-x,-y,-z
x,y,-z
-x,y,z
x,-y,z
1/2+x,1/2+y,z
1/2-x,1/2-y,z
1/2+x,1/2-y,-z
1/2-x,1/2+y,-z
1/2-x,1/2-y,-z
1/2+x,1/2+y,-z
1/2-x,1/2+y,z
1/2+x,1/2-y,z
loop_
_atom_site_type_symbol
_atom_site_label
_atom_site_fract_x
_atom_site_fract_y
_atom_site_fract_z
Si Si1 0.295090 0.841814 0.579663
Si Si2 0.296317 0.404444 0.922647
Si Si3 0.691418 0.929305 0.229019
Si Si4 0.000000 0.000000 0.266895
Si Si5 0.291663 0.800320 0.121538
Si Si6 0.704459 0.449043 0.415446
Si Si7 0.796264 0.319820 0.273085
O O1 0.222447 0.834849 0.500000
O O2 0.500000 0.831108 0.575729
O O3 0.280848 0.897686 0.599121
O O4 0.221249 0.814512 0.648001
O O5 0.500000 0.416725 0.918211
O O6 0.205608 0.427905 0.855827
O O7 0.279413 0.347635 0.914030
O O8 0.230426 0.417753 0.000000
O O9 0.500000 0.945509 0.250190
O O10 0.708557 0.875246 0.253663
O O11 0.847015 0.959347 0.259142
O O12 0.500000 0.806401 0.124589
O O13 0.250000 0.750000 0.087554
O O14 0.218501 0.798349 0.201934
O O15 0.710992 0.450622 0.500000
O O16 0.500000 0.449792 0.395852
O O17 0.779181 0.500000 0.392391
O O18 0.000000 0.305654 0.277108
#
# Coordination Sequence:
#
# PCOD9490233 Si02
#       7
#    16  16  16   4  16  16  16
#     4   9  16  28  48  71  95 130 177 225 279 345
#     4  10  20  37  61  89 122 155 191 234 283 346
#     4  10  21  39  60  83 117 158 201 255 301 342
#     4  12  22  40  61  88 117 152 222 258 292 354
#     4  10  20  35  57  83 112 147 189 236 289 354
#     4   8  14  25  37  53  83 119 155 200 254 311
#     4   8  17  35  54  75 107 144 185 234 294 356
#
# _framework density 24.191877000000002
#
# number of rings (size 3 to 8) (size 9 to 14) (size 15 to 20)
#    0.000    2.720    0.800    2.640    0.000    1.920 
#    2.880    2.400    0.000    1.440    0.000    0.000 
#    0.000    0.000    0.000    0.000    0.000    0.640 
#
# Total GULP energy -278627.138678 kJ/mol
# GULP energy per Si atom -5572.542774 kJ/mol
# Density = 2.413682 g / cm^3
# Si number density = 24.191877 Si / 1000 Ang^3
#
#
#
# Elastic Constant Matrix: (Units=GPa)
#
#
# Indices 1 2 3 4 5 6 
#
# 1 98.0863 10.6747 2.9599 0.0000 0.0000 0.0000
# 2 10.6747 35.9017 -11.4453 0.0000 0.0000 0.0000
# 3 2.9599 -11.4453 153.0057 0.0000 0.0000 0.0000
# 4 0.0000 0.0000 0.0000 13.0585 0.0000 0.0000
# 5 0.0000 0.0000 0.0000 0.0000 16.8345 0.0000
# 6 0.0000 0.0000 0.0000 0.0000 0.0000 20.2299
#
#
#
# Elastic Compliance Matrix: (Units=1/GPa)
#
#
# Indices 1 2 3 4 5 6 
#
# 1 0.010566 -0.003285 -0.000450 0.000000 0.000000 0.000000
# 2 -0.003285 0.029556 0.002274 0.000000 0.000000 0.000000
# 3 -0.000450 0.002274 0.006715 0.000000 0.000000 0.000000
# 4 0.000000 0.000000 0.000000 0.076578 0.000000 0.000000
# 5 0.000000 0.000000 0.000000 0.000000 0.059402 0.000000
# 6 0.000000 0.000000 0.000000 0.000000 0.000000 0.049432
#
#
# Mechanical properties :
#
#
# Convention : Reuss Voigt Hill
#
# Bulk Modulus (GPa) = 22.77148 32.37472 27.57310
# Shear Modulus (GPa) = 20.01535 29.01155 24.51345
#
# Velocity S-wave (km/s) = 2.87950 3.46674 3.18668
# Velocity P-wave (km/s) = 4.52644 5.42549 4.99623
#
# Compressibility (1/GPa) = 0.04391459
#
# Stress axis : x y z
#
# Youngs Moduli (GPa) = 94.64136 33.83448 148.93048
#
# Poissons Ratio (x) = 0.11115 0.06704
# Poissons Ratio (y) = 0.31091 -0.33873
# Poissons Ratio (z) = 0.04260 -0.07695
#
# Static dielectric constant tensor:
#      x y z
#    x 1.887200 0.000000 0.000000 
#    y 0.000000 2.122160 0.000000 
#    z 0.000000 0.000000 2.043340 
# 
# From -- ./inp_files/60903.got.cif
#   From: 2010.05.17/outbox.cif.g08.bks.cpg/sg65_31_cif.got.tgz:60903.got - 2010.06.03 17:01:31.
