data_PCOD9490987
_publ_section_title
;
Structure prediction by ZEFSAII (Michael W. Deem and Ramdas Pophale) SiO2 
 PCOD9490987
Probable space group: C M M M
;
_chemical_formula_sum "Si O2"
_cell_formula_units_Z 64
_cell_length_a 18.903331
_cell_length_b 13.619590
_cell_length_c 12.912831
_cell_angle_alpha 90.000000
_cell_angle_beta 90.000000
_cell_angle_gamma 90.000000
_cell_volume 3324.480883
_symmetry_space_group_name_H-M "C M M M"
_symmetry_group_IT_number 65
_symmetry_cell_setting 'orthorhombic'
loop_
_space_group_symop_operation_xyz
x,y,z
-x,-y,z
x,-y,-z
-x,y,-z
-x,-y,-z
x,y,-z
-x,y,z
x,-y,z
1/2+x,1/2+y,z
1/2-x,1/2-y,z
1/2+x,1/2-y,-z
1/2-x,1/2+y,-z
1/2-x,1/2-y,-z
1/2+x,1/2+y,-z
1/2-x,1/2+y,z
1/2+x,1/2-y,z
loop_
_atom_site_type_symbol
_atom_site_label
_atom_site_fract_x
_atom_site_fract_y
_atom_site_fract_z
Si Si1 0.252004 0.000000 0.688981
Si Si2 0.083757 0.788066 0.879188
Si Si3 0.371740 0.840050 0.693092
Si Si4 0.142922 0.000000 0.500000
Si Si5 0.650616 0.500000 0.120212
Si Si6 0.500000 0.000000 0.309848
Si Si7 0.583569 0.286364 0.500000
O O1 0.301643 0.095468 0.679277
O O2 0.193029 0.000000 0.600572
O O3 0.214785 0.000000 0.800282
O O4 0.125534 0.718114 0.801301
O O5 0.105320 0.901276 0.862995
O O6 0.000000 0.776375 0.859443
O O7 0.096903 0.764059 0.000000
O O8 0.381991 0.763004 0.600749
O O9 0.437838 0.914713 0.689646
O O10 0.096854 0.901896 0.500000
O O11 0.673519 0.500000 0.000000
O O12 0.500000 0.264789 0.500000
#
# Coordination Sequence:
#
# PCOD9490987 Si02
#       7
#     8  16  16   4   8   4   8
#     4  11  26  42  59  89 128 167 203 246 295 372
#     4  10  20  38  63  93 122 158 206 259 308 353
#     4  11  23  40  64  91 121 162 204 248 306 357
#     4  12  27  44  60  93 130 160 196 246 306 361
#     4  10  22  39  62  88 125 167 206 248 300 365
#     4  10  20  41  61  88 122 148 205 247 294 352
#     4  12  24  42  69  93 119 156 204 255 303 357
#
# _framework density 19.251125999999999
#
# number of rings (size 3 to 8) (size 9 to 14) (size 15 to 20)
#    0.000    1.250    2.500    2.812    0.000    9.500 
#    0.000    8.750    0.000    0.000    0.000    0.000 
#    0.000    0.000    0.000    0.000    0.000    0.000 
#
# Total GULP energy -178385.412258 kJ/mol
# GULP energy per Si atom -5574.544133 kJ/mol
# Density = 1.920731 g / cm^3
# Si number density = 19.251126 Si / 1000 Ang^3
#
#
#
# Elastic Constant Matrix: (Units=GPa)
#
#
# Indices 1 2 3 4 5 6 
#
# 1 33.0789 -2.4339 21.7392 0.0000 0.0000 0.0000
# 2 -2.4339 117.0165 49.3219 0.0000 0.0000 0.0000
# 3 21.7392 49.3219 73.8772 0.0000 0.0000 0.0000
# 4 0.0000 0.0000 0.0000 20.0622 0.0000 0.0000
# 5 0.0000 0.0000 0.0000 0.0000 18.6242 0.0000
# 6 0.0000 0.0000 0.0000 0.0000 0.0000 28.4156
#
#
#
# Elastic Compliance Matrix: (Units=1/GPa)
#
#
# Indices 1 2 3 4 5 6 
#
# 1 0.042981 0.008663 -0.018431 0.000000 0.000000 0.000000
# 2 0.008663 0.013638 -0.011654 0.000000 0.000000 0.000000
# 3 -0.018431 -0.011654 0.026740 0.000000 0.000000 0.000000
# 4 0.000000 0.000000 0.000000 0.049845 0.000000 0.000000
# 5 0.000000 0.000000 0.000000 0.000000 0.053694 0.000000
# 6 0.000000 0.000000 0.000000 0.000000 0.000000 0.035192
#
#
# Mechanical properties :
#
#
# Convention : Reuss Voigt Hill
#
# Bulk Modulus (GPa) = 24.68285 40.13634 32.40959
# Shear Modulus (GPa) = 17.95724 23.77675 20.86700
#
# Velocity S-wave (km/s) = 3.05747 3.51819 3.29589
# Velocity P-wave (km/s) = 5.03126 6.11536 5.59960
#
# Compressibility (1/GPa) = 0.04051397
#
# Stress axis : x y z
#
# Youngs Moduli (GPa) = 23.26618 73.32368 37.39707
#
# Poissons Ratio (x) = -0.63517 0.68926
# Poissons Ratio (y) = -0.20154 0.43583
# Poissons Ratio (z) = 0.42882 0.85453
#
# Static dielectric constant tensor:
#      x y z
#    x 1.636550 0.000000 0.000000 
#    y 0.000000 1.644850 0.000000 
#    z 0.000000 0.000000 1.666280 
# 
# From -- ./inp_files/42000.got.cif
#   From: 2010.05.17/outbox.cif.g08.bks.cpg/sg65_21_cif.got.tgz:42000.got - 2010.06.03 17:01:31.
