data_PCOD9490049
_publ_section_title
;
Structure prediction by ZEFSAII (Michael W. Deem and Ramdas Pophale) SiO2 
 PCOD9490049
Probable space group: C M M M
;
_chemical_formula_sum "Si O2"
_cell_formula_units_Z 88
_cell_length_a 22.913474
_cell_length_b 23.028655
_cell_length_c 8.472316
_cell_angle_alpha 90.000000
_cell_angle_beta 90.000000
_cell_angle_gamma 90.000000
_cell_volume 4470.557226
_symmetry_space_group_name_H-M "C M M M"
_symmetry_group_IT_number 65
_symmetry_cell_setting 'orthorhombic'
loop_
_space_group_symop_operation_xyz
x,y,z
-x,-y,z
x,-y,-z
-x,y,-z
-x,-y,-z
x,y,-z
-x,y,z
x,-y,z
1/2+x,1/2+y,z
1/2-x,1/2-y,z
1/2+x,1/2-y,-z
1/2-x,1/2+y,-z
1/2-x,1/2-y,-z
1/2+x,1/2+y,-z
1/2-x,1/2+y,z
1/2+x,1/2-y,z
loop_
_atom_site_type_symbol
_atom_site_label
_atom_site_fract_x
_atom_site_fract_y
_atom_site_fract_z
Si Si1 0.160821 0.625932 0.688417
Si Si2 0.208513 0.129055 0.816970
Si Si3 0.564389 0.789447 0.813218
Si Si4 0.500000 0.433227 0.308169
Si Si5 0.648074 0.000000 0.319376
Si Si6 0.590383 0.335164 0.314654
Si Si7 0.229237 0.000000 0.819733
O O1 0.168588 0.620697 0.500000
O O2 0.224540 0.636661 0.763362
O O3 0.115880 0.676370 0.727801
O O4 0.134850 0.563739 0.749190
O O5 0.159373 0.159877 0.715441
O O6 0.195931 0.059982 0.803261
O O7 0.202976 0.146151 0.000000
O O8 0.500000 0.809923 0.762160
O O9 0.568601 0.721263 0.776601
O O10 0.570190 0.798621 0.000000
O O11 0.500000 0.500000 0.249930
O O12 0.500000 0.436621 0.500000
O O13 0.555911 0.393496 0.263422
O O14 0.627515 0.000000 0.500000
O O15 0.718640 0.000000 0.305639
O O16 0.578605 0.327050 0.500000
O O17 0.254353 0.000000 0.000000
#
# Coordination Sequence:
#
# PCOD9490049 Si02
#       7
#    16  16  16   8   8  16   8
#     4  10  20  37  62  90 119 151 192 237 287 344
#     4  10  20  35  55  85 121 155 192 237 292 345
#     4  11  24  42  62  83 113 153 195 238 292 350
#     4   9  20  38  59  87 121 156 197 246 293 337
#     4   8  16  32  55  85 117 146 180 229 281 332
#     4  11  22  38  61  86 116 154 199 244 290 342
#     4   8  16  30  50  76 114 156 189 223 275 343
#
# _framework density 19.684348
#
# number of rings (size 3 to 8) (size 9 to 14) (size 15 to 20)
#    0.000    2.091    0.909    2.182    1.273    3.273 
#    0.000    4.091    0.000    4.909    0.000    0.000 
#    0.000    0.000    0.000    0.000    0.000    0.000 
#
# Total GULP energy -245330.926140 kJ/mol
# GULP energy per Si atom -5575.702867 kJ/mol
# Density = 1.963955 g / cm^3
# Si number density = 19.684348 Si / 1000 Ang^3
#
#
#
# Elastic Constant Matrix: (Units=GPa)
#
#
# Indices 1 2 3 4 5 6 
#
# 1 92.1155 35.9982 6.4764 0.0000 0.0000 0.0000
# 2 35.9982 78.2353 -0.1638 0.0000 0.0000 0.0000
# 3 6.4764 -0.1638 27.7263 0.0000 0.0000 0.0000
# 4 0.0000 0.0000 0.0000 21.2651 0.0000 0.0000
# 5 0.0000 0.0000 0.0000 0.0000 16.3882 0.0000
# 6 0.0000 0.0000 0.0000 0.0000 0.0000 17.3145
#
#
#
# Elastic Compliance Matrix: (Units=1/GPa)
#
#
# Indices 1 2 3 4 5 6 
#
# 1 0.013513 -0.006224 -0.003193 0.000000 0.000000 0.000000
# 2 -0.006224 0.015649 0.001546 0.000000 0.000000 0.000000
# 3 -0.003193 0.001546 0.036822 0.000000 0.000000 0.000000
# 4 0.000000 0.000000 0.000000 0.047025 0.000000 0.000000
# 5 0.000000 0.000000 0.000000 0.000000 0.061020 0.000000
# 6 0.000000 0.000000 0.000000 0.000000 0.000000 0.057755
#
#
# Mechanical properties :
#
#
# Convention : Reuss Voigt Hill
#
# Bulk Modulus (GPa) = 19.90379 31.41097 25.65738
# Shear Modulus (GPa) = 18.91980 21.37798 20.14889
#
# Velocity S-wave (km/s) = 3.10362 3.29909 3.20285
# Velocity P-wave (km/s) = 4.79340 5.52304 5.17110
#
# Compressibility (1/GPa) = 0.05024169
#
# Stress axis : x y z
#
# Youngs Moduli (GPa) = 74.00353 63.90109 27.15776
#
# Poissons Ratio (x) = 0.39774 0.08672
# Poissons Ratio (y) = 0.46062 -0.04200
# Poissons Ratio (z) = 0.23631 -0.09881
#
# Static dielectric constant tensor:
#      x y z
#    x 1.668980 0.000000 0.000000 
#    y 0.000000 1.729320 0.000000 
#    z 0.000000 0.000000 1.675790 
# 
# From -- ./inp_files/14031.got.cif
#   From: 2010.05.17/outbox.cif.g08.bks.cpg/sg65_8_cif.got.tgz:14031.got - 2010.06.03 17:01:31.
