data_PCOD9490219
_publ_section_title
;
Structure prediction by ZEFSAII (Michael W. Deem and Ramdas Pophale) SiO2 
 PCOD9490219
Probable space group: C M M M
;
_chemical_formula_sum "Si O2"
_cell_formula_units_Z 64
_cell_length_a 16.968780
_cell_length_b 8.959208
_cell_length_c 22.264137
_cell_angle_alpha 90.000000
_cell_angle_beta 90.000000
_cell_angle_gamma 90.000000
_cell_volume 3384.746160
_symmetry_space_group_name_H-M "C M M M"
_symmetry_group_IT_number 65
_symmetry_cell_setting 'orthorhombic'
loop_
_space_group_symop_operation_xyz
x,y,z
-x,-y,z
x,-y,-z
-x,y,-z
-x,-y,-z
x,y,-z
-x,y,z
x,-y,z
1/2+x,1/2+y,z
1/2-x,1/2-y,z
1/2+x,1/2-y,-z
1/2-x,1/2+y,-z
1/2-x,1/2-y,-z
1/2+x,1/2+y,-z
1/2-x,1/2+y,z
1/2+x,1/2-y,z
loop_
_atom_site_type_symbol
_atom_site_label
_atom_site_fract_x
_atom_site_fract_y
_atom_site_fract_z
Si Si1 0.834886 0.822972 0.000000
Si Si2 0.500000 0.318675 0.429884
Si Si3 0.165647 0.177896 0.225412
Si Si4 0.335924 0.679152 0.366685
Si Si5 0.592342 0.167686 0.115117
O O1 0.750000 0.750000 0.000000
O O2 0.875206 0.764222 0.939508
O O3 0.831821 0.000000 0.000000
O O4 0.500000 0.500000 0.424548
O O5 0.500000 0.279297 0.500000
O O6 0.583880 0.269922 0.400602
O O7 0.250000 0.250000 0.211444
O O8 0.150070 0.208104 0.295728
O O9 0.107530 0.254367 0.178752
O O10 0.166915 0.000000 0.217162
O O11 0.328626 0.500000 0.375084
O O12 0.250000 0.750000 0.382852
O O13 0.500000 0.155215 0.105865
O O14 0.627390 0.000000 0.114553
#
# Coordination Sequence:
#
# PCOD9490219 Si02
#       5
#     8   8  16  16  16
#     4  12  25  42  63  83 109 147 189 232 279 336
#     4   9  18  34  57  85 117 156 199 240 289 351
#     4  10  20  35  57  82 112 146 189 236 284 342
#     4   9  19  35  57  84 116 154 196 245 294 348
#     4  11  24  40  58  83 115 147 183 231 286 338
#
# _framework density 18.908360999999999
#
# number of rings (size 3 to 8) (size 9 to 14) (size 15 to 20)
#    0.000    1.875    0.000    3.750    1.750    5.000 
#    0.000    0.625    0.000    0.750    0.000    0.000 
#    0.000    0.000    0.000    0.000    0.000    0.000 
#
# Total GULP energy -178538.992512 kJ/mol
# GULP energy per Si atom -5579.343516 kJ/mol
# Density = 1.886532 g / cm^3
# Si number density = 18.908361 Si / 1000 Ang^3
#
#
#
# Elastic Constant Matrix: (Units=GPa)
#
#
# Indices 1 2 3 4 5 6 
#
# 1 143.1904 51.8274 77.4794 0.0000 0.0000 0.0000
# 2 51.8274 100.9226 53.5696 0.0000 0.0000 0.0000
# 3 77.4794 53.5696 82.8308 0.0000 0.0000 0.0000
# 4 0.0000 0.0000 0.0000 20.7872 0.0000 0.0000
# 5 0.0000 0.0000 0.0000 0.0000 23.2959 0.0000
# 6 0.0000 0.0000 0.0000 0.0000 0.0000 27.9566
#
#
#
# Elastic Compliance Matrix: (Units=1/GPa)
#
#
# Indices 1 2 3 4 5 6 
#
# 1 0.014150 -0.000367 -0.012998 0.000000 0.000000 0.000000
# 2 -0.000367 0.015098 -0.009421 0.000000 0.000000 0.000000
# 3 -0.012998 -0.009421 0.030324 0.000000 0.000000 0.000000
# 4 0.000000 0.000000 0.000000 0.048107 0.000000 0.000000
# 5 0.000000 0.000000 0.000000 0.000000 0.042926 0.000000
# 6 0.000000 0.000000 0.000000 0.000000 0.000000 0.035770
#
#
# Mechanical properties :
#
#
# Convention : Reuss Voigt Hill
#
# Bulk Modulus (GPa) = 71.43241 76.96628 74.19935
# Shear Modulus (GPa) = 21.13153 24.01241 22.57197
#
# Velocity S-wave (km/s) = 3.34664 3.56748 3.45883
# Velocity P-wave (km/s) = 7.26592 7.60016 7.43492
#
# Compressibility (1/GPa) = 0.01399925
#
# Stress axis : x y z
#
# Youngs Moduli (GPa) = 70.67200 66.23553 32.97687
#
# Poissons Ratio (x) = 0.02431 0.42865
# Poissons Ratio (y) = 0.02593 0.31067
# Poissons Ratio (z) = 0.91862 0.62400
#
# Static dielectric constant tensor:
#      x y z
#    x 1.663440 0.000000 0.000000 
#    y 0.000000 1.656570 0.000000 
#    z 0.000000 0.000000 1.644070 
# 
# From -- ./inp_files/66765.got.cif
#   From: 2010.05.17/outbox.cif.g08.bks.cpg/sg65_34_cif.got.tgz:66765.got - 2010.06.03 17:01:31.
