data_PCOD9490617
_publ_section_title
;
Structure prediction by ZEFSAII (Michael W. Deem and Ramdas Pophale) SiO2 
 PCOD9490617
Probable space group: C M M M
;
_chemical_formula_sum "Si O2"
_cell_formula_units_Z 90
_cell_length_a 24.865482
_cell_length_b 23.158718
_cell_length_c 7.715400
_cell_angle_alpha 90.000000
_cell_angle_beta 90.000000
_cell_angle_gamma 90.000000
_cell_volume 4442.933810
_symmetry_space_group_name_H-M "C M M M"
_symmetry_group_IT_number 65
_symmetry_cell_setting 'orthorhombic'
loop_
_space_group_symop_operation_xyz
x,y,z
-x,-y,z
x,-y,-z
-x,y,-z
-x,-y,-z
x,y,-z
-x,y,z
x,-y,z
1/2+x,1/2+y,z
1/2-x,1/2-y,z
1/2+x,1/2-y,-z
1/2-x,1/2+y,-z
1/2-x,1/2-y,-z
1/2+x,1/2+y,-z
1/2-x,1/2+y,z
1/2+x,1/2-y,z
loop_
_atom_site_type_symbol
_atom_site_label
_atom_site_fract_x
_atom_site_fract_y
_atom_site_fract_z
Si Si1 0.246407 0.317985 0.208265
Si Si2 0.866574 0.373632 0.299958
Si Si3 0.938447 0.065620 0.709677
Si Si4 0.636288 0.330153 0.202386
Si Si5 0.439235 0.229407 0.797627
Si Si6 0.904314 0.500000 0.710594
Si Si7 0.000000 0.500000 0.000000
O O1 0.250000 0.250000 0.248894
O O2 0.193147 0.348436 0.277271
O O3 0.303999 0.340917 0.273186
O O4 0.241974 0.323719 0.000000
O O5 0.881438 0.368758 0.500000
O O6 0.909811 0.332235 0.208162
O O7 0.871818 0.440811 0.253410
O O8 0.936325 0.068072 0.500000
O O9 0.898975 0.112906 0.783323
O O10 0.000000 0.078041 0.761246
O O11 0.925674 0.000000 0.761757
O O12 0.601536 0.277200 0.279920
O O13 0.645382 0.315036 0.000000
O O14 0.500000 0.228877 0.724279
O O15 0.444755 0.245013 0.000000
O O16 0.917626 0.500000 0.500000
O O17 0.953535 0.500000 0.844577
#
# Coordination Sequence:
#
# PCOD9490617 Si02
#       7
#    16  16  16  16  16   8   2
#     4  10  20  39  64  86 116 156 201 252 298 367
#     4  11  24  42  62  87 128 162 202 265 315 369
#     4   9  19  36  56  79 113 156 195 232 283 361
#     4  10  20  36  58  87 116 148 194 255 302 348
#     4  10  21  36  59  88 120 154 197 243 299 380
#     4  10  27  47  65 104 137 165 227 280 318 400
#     4  12  26  44  84  98 120 196 210 264 356 402
#
# _framework density 20.256886000000002
#
# number of rings (size 3 to 8) (size 9 to 14) (size 15 to 20)
#    0.000    1.956    1.778    1.733    3.733    3.556 
#    1.600    0.889    0.000    0.000    0.000    0.000 
#    0.000    0.000    0.000    0.000    0.000    0.000 
#
# Total GULP energy -250794.884005 kJ/mol
# GULP energy per Si atom -5573.219645 kJ/mol
# Density = 2.021078 g / cm^3
# Si number density = 20.256886 Si / 1000 Ang^3
#
#
#
# Elastic Constant Matrix: (Units=GPa)
#
#
# Indices 1 2 3 4 5 6 
#
# 1 128.1676 50.2880 12.4433 0.0000 0.0000 0.0000
# 2 50.2880 61.1223 5.0196 0.0000 0.0000 0.0000
# 3 12.4433 5.0196 38.0376 0.0000 0.0000 0.0000
# 4 0.0000 0.0000 0.0000 24.4508 0.0000 0.0000
# 5 0.0000 0.0000 0.0000 0.0000 5.3725 0.0000
# 6 0.0000 0.0000 0.0000 0.0000 0.0000 12.9098
#
#
#
# Elastic Compliance Matrix: (Units=1/GPa)
#
#
# Indices 1 2 3 4 5 6 
#
# 1 0.011771 -0.009471 -0.002601 0.000000 0.000000 0.000000
# 2 -0.009471 0.024160 -0.000090 0.000000 0.000000 0.000000
# 3 -0.002601 -0.000090 0.027152 0.000000 0.000000 0.000000
# 4 0.000000 0.000000 0.000000 0.040898 0.000000 0.000000
# 5 0.000000 0.000000 0.000000 0.000000 0.186132 0.000000
# 6 0.000000 0.000000 0.000000 0.000000 0.000000 0.077461
#
#
# Mechanical properties :
#
#
# Convention : Reuss Voigt Hill
#
# Bulk Modulus (GPa) = 25.79973 40.31434 33.05704
# Shear Modulus (GPa) = 12.35125 19.18507 15.76816
#
# Velocity S-wave (km/s) = 2.47195 3.08082 2.79303
# Velocity P-wave (km/s) = 4.57289 5.70964 5.17259
#
# Compressibility (1/GPa) = 0.03876010
#
# Stress axis : x y z
#
# Youngs Moduli (GPa) = 84.95654 41.39070 36.82904
#
# Poissons Ratio (x) = 0.39200 0.09578
# Poissons Ratio (y) = 0.80460 0.00332
# Poissons Ratio (z) = 0.22095 0.00373
#
# Static dielectric constant tensor:
#      x y z
#    x 1.724750 0.000000 0.000000 
#    y 0.000000 1.704330 0.000000 
#    z 0.000000 0.000000 1.760790 
# 
# From -- ./inp_files/14043.got.cif
#   From: 2010.05.17/outbox.cif.g08.bks.cpg/sg65_8_cif.got.tgz:14043.got - 2010.06.03 17:01:31.
