data_PCOD9490284
_publ_section_title
;
Structure prediction by ZEFSAII (Michael W. Deem and Ramdas Pophale) SiO2 
 PCOD9490284
Probable space group: C M M M
;
_chemical_formula_sum "Si O2"
_cell_formula_units_Z 88
_cell_length_a 17.689064
_cell_length_b 32.867645
_cell_length_c 7.737800
_cell_angle_alpha 90.000000
_cell_angle_beta 90.000000
_cell_angle_gamma 90.000000
_cell_volume 4498.740484
_symmetry_space_group_name_H-M "C M M M"
_symmetry_group_IT_number 65
_symmetry_cell_setting 'orthorhombic'
loop_
_space_group_symop_operation_xyz
x,y,z
-x,-y,z
x,-y,-z
-x,y,-z
-x,-y,-z
x,y,-z
-x,y,z
x,-y,z
1/2+x,1/2+y,z
1/2-x,1/2-y,z
1/2+x,1/2-y,-z
1/2-x,1/2+y,-z
1/2-x,1/2-y,-z
1/2+x,1/2+y,-z
1/2-x,1/2+y,z
1/2+x,1/2-y,z
loop_
_atom_site_type_symbol
_atom_site_label
_atom_site_fract_x
_atom_site_fract_y
_atom_site_fract_z
Si Si1 0.500000 0.545828 0.791814
Si Si2 0.586015 0.091660 0.706965
Si Si3 0.592014 0.182529 0.808903
Si Si4 0.091902 0.834179 0.500000
Si Si5 0.907679 0.260156 0.500000
Si Si6 0.730270 0.955111 0.205401
Si Si7 0.639670 0.395453 0.790332
O O1 0.500000 0.500000 0.721557
O O2 0.426484 0.572064 0.749159
O O3 0.500000 0.542553 0.000000
O O4 0.584336 0.093690 0.500000
O O5 0.500000 0.084950 0.768587
O O6 0.613175 0.135807 0.772500
O O7 0.644127 0.057223 0.762175
O O8 0.500000 0.182501 0.803099
O O9 0.618118 0.214195 0.665832
O O10 0.616479 0.194279 0.000000
O O11 0.114035 0.786825 0.500000
O O12 0.122920 0.856713 0.671211
O O13 0.000000 0.837092 0.500000
O O14 0.000000 0.260748 0.500000
O O15 0.783786 0.918475 0.264524
O O16 0.747693 0.000000 0.277107
O O17 0.743410 0.957144 0.000000
O O18 0.639195 0.387539 0.000000
#
# Coordination Sequence:
#
# PCOD9490284 Si02
#       7
#     8  16  16   8   8  16  16
#     4   9  16  31  57  81 106 145 189 238 287 331
#     4  10  20  35  57  85 119 152 188 236 286 339
#     4   9  16  30  54  82 111 146 187 230 281 335
#     4  11  22  36  57  86 118 152 192 234 293 353
#     4   9  18  32  51  82 118 144 181 237 281 337
#     4  10  22  39  58  82 113 153 198 240 286 339
#     4  10  21  38  57  80 115 153 193 241 289 340
#
# _framework density 19.561032000000001
#
# number of rings (size 3 to 8) (size 9 to 14) (size 15 to 20)
#    0.000    2.273    1.818    1.091    1.273    4.727 
#    0.000    5.455    0.000    2.182    0.000    3.818 
#    0.000    0.000    0.000    0.000    0.000    0.000 
#
# Total GULP energy -245494.207474 kJ/mol
# GULP energy per Si atom -5579.413806 kJ/mol
# Density = 1.951651 g / cm^3
# Si number density = 19.561032 Si / 1000 Ang^3
#
#
#
# Elastic Constant Matrix: (Units=GPa)
#
#
# Indices 1 2 3 4 5 6 
#
# 1 49.9004 6.4374 -4.4855 0.0000 0.0000 0.0000
# 2 6.4374 60.3046 18.1771 0.0000 0.0000 0.0000
# 3 -4.4855 18.1771 65.1399 0.0000 0.0000 0.0000
# 4 0.0000 0.0000 0.0000 25.7436 0.0000 0.0000
# 5 0.0000 0.0000 0.0000 0.0000 16.2311 0.0000
# 6 0.0000 0.0000 0.0000 0.0000 0.0000 66.4382
#
#
#
# Elastic Compliance Matrix: (Units=1/GPa)
#
#
# Indices 1 2 3 4 5 6 
#
# 1 0.020610 -0.002869 0.002220 0.000000 0.000000 0.000000
# 2 -0.002869 0.018505 -0.005361 0.000000 0.000000 0.000000
# 3 0.002220 -0.005361 0.017000 0.000000 0.000000 0.000000
# 4 0.000000 0.000000 0.000000 0.038845 0.000000 0.000000
# 5 0.000000 0.000000 0.000000 0.000000 0.061610 0.000000
# 6 0.000000 0.000000 0.000000 0.000000 0.000000 0.015052
#
#
# Mechanical properties :
#
#
# Convention : Reuss Voigt Hill
#
# Bulk Modulus (GPa) = 22.67902 23.95587 23.31745
# Shear Modulus (GPa) = 25.20922 32.03032 28.61977
#
# Velocity S-wave (km/s) = 3.59381 4.05094 3.82920
# Velocity P-wave (km/s) = 5.37027 5.84410 5.61218
#
# Compressibility (1/GPa) = 0.04409361
#
# Stress axis : x y z
#
# Youngs Moduli (GPa) = 48.52116 54.04023 58.82195
#
# Poissons Ratio (x) = 0.15505 -0.13057
# Poissons Ratio (y) = 0.13921 0.31536
# Poissons Ratio (z) = -0.10771 0.28972
#
# Static dielectric constant tensor:
#      x y z
#    x 1.700020 0.000000 0.000000 
#    y 0.000000 1.657690 0.000000 
#    z 0.000000 0.000000 1.709790 
# 
# From -- ./inp_files/10219.got.cif
#   From: 2010.05.17/outbox.cif.g08.bks.cpg/sg65_6_cif.got.tgz:10219.got - 2010.06.03 17:01:31.
