data_PCOD9490844
_publ_section_title
;
Structure prediction by ZEFSAII (Michael W. Deem and Ramdas Pophale) SiO2 
 PCOD9490844
Probable space group: C M M M
;
_chemical_formula_sum "Si O2"
_cell_formula_units_Z 64
_cell_length_a 25.693450
_cell_length_b 8.523565
_cell_length_c 15.059199
_cell_angle_alpha 90.000000
_cell_angle_beta 90.000000
_cell_angle_gamma 90.000000
_cell_volume 3297.961436
_symmetry_space_group_name_H-M "C M M M"
_symmetry_group_IT_number 65
_symmetry_cell_setting 'orthorhombic'
loop_
_space_group_symop_operation_xyz
x,y,z
-x,-y,z
x,-y,-z
-x,y,-z
-x,-y,-z
x,y,-z
-x,y,z
x,-y,z
1/2+x,1/2+y,z
1/2-x,1/2-y,z
1/2+x,1/2-y,-z
1/2-x,1/2+y,-z
1/2-x,1/2-y,-z
1/2+x,1/2+y,-z
1/2-x,1/2+y,z
1/2+x,1/2-y,z
loop_
_atom_site_type_symbol
_atom_site_label
_atom_site_fract_x
_atom_site_fract_y
_atom_site_fract_z
Si Si1 0.000000 0.311053 0.339951
Si Si2 0.691740 0.689214 0.000000
Si Si3 0.000000 0.184649 0.858311
Si Si4 0.614993 0.186990 0.647348
Si Si5 0.808402 0.814816 0.500000
Si Si6 0.386889 0.690902 0.848180
O O1 0.000000 0.216300 0.247597
O O2 0.944410 0.275560 0.383986
O O3 0.000000 0.500000 0.321197
O O4 0.750000 0.750000 0.000000
O O5 0.659199 0.739353 0.913368
O O6 0.692459 0.500000 0.000000
O O7 0.056706 0.245120 0.886219
O O8 0.000000 0.000000 0.878750
O O9 0.658529 0.259683 0.585043
O O10 0.619459 0.244877 0.748810
O O11 0.620437 0.000000 0.644833
O O12 0.750000 0.750000 0.500000
O O13 0.805346 0.000000 0.500000
O O14 0.388073 0.500000 0.843986
#
# Coordination Sequence:
#
# PCOD9490844 Si02
#       6
#     8   8   8  16   8  16
#     4   8  16  31  54  83 115 146 177 213 265 329
#     4  10  22  37  53  75 107 144 187 230 270 322
#     4   8  14  27  51  79 107 136 174 223 275 325
#     4  10  20  37  60  86 115 148 182 223 273 327
#     4  12  26  43  60  81 109 144 188 234 275 326
#     4   9  18  34  55  81 110 143 181 226 276 326
#
# _framework density 19.405926999999998
#
# number of rings (size 3 to 8) (size 9 to 14) (size 15 to 20)
#    0.000    2.500    0.000    1.875    0.000    4.000 
#    0.000    7.500    0.000    0.000    0.000    9.625 
#    0.000    0.000    0.000    0.000    0.000    0.000 
#
# Total GULP energy -178447.810423 kJ/mol
# GULP energy per Si atom -5576.494076 kJ/mol
# Density = 1.936176 g / cm^3
# Si number density = 19.405927 Si / 1000 Ang^3
#
#
#
# Elastic Constant Matrix: (Units=GPa)
#
#
# Indices 1 2 3 4 5 6 
#
# 1 237.9607 56.0291 99.4671 0.0000 0.0000 0.0000
# 2 56.0291 48.0935 30.7962 0.0000 0.0000 0.0000
# 3 99.4671 30.7962 106.7483 0.0000 0.0000 0.0000
# 4 0.0000 0.0000 0.0000 10.1185 0.0000 0.0000
# 5 0.0000 0.0000 0.0000 0.0000 33.5951 0.0000
# 6 0.0000 0.0000 0.0000 0.0000 0.0000 28.8517
#
#
#
# Elastic Compliance Matrix: (Units=1/GPa)
#
#
# Indices 1 2 3 4 5 6 
#
# 1 0.007922 -0.005523 -0.005789 0.000000 0.000000 0.000000
# 2 -0.005523 0.029355 -0.003322 0.000000 0.000000 0.000000
# 3 -0.005789 -0.003322 0.015720 0.000000 0.000000 0.000000
# 4 0.000000 0.000000 0.000000 0.098829 0.000000 0.000000
# 5 0.000000 0.000000 0.000000 0.000000 0.029766 0.000000
# 6 0.000000 0.000000 0.000000 0.000000 0.000000 0.034660
#
#
# Mechanical properties :
#
#
# Convention : Reuss Voigt Hill
#
# Bulk Modulus (GPa) = 42.14236 85.04301 63.59268
# Shear Modulus (GPa) = 19.72932 28.28040 24.00486
#
# Velocity S-wave (km/s) = 3.19198 3.82161 3.52090
# Velocity P-wave (km/s) = 5.94545 7.96187 7.02637
#
# Compressibility (1/GPa) = 0.02372910
#
# Stress axis : x y z
#
# Youngs Moduli (GPa) = 126.22341 34.06632 63.61238
#
# Poissons Ratio (x) = 0.18815 0.36824
# Poissons Ratio (y) = 0.69712 0.21134
# Poissons Ratio (z) = 0.73068 0.11318
#
# Static dielectric constant tensor:
#      x y z
#    x 1.718580 0.000000 0.000000 
#    y 0.000000 1.672800 0.000000 
#    z 0.000000 0.000000 1.678280 
# 
# From -- ./inp_files/45158.got.cif
#   From: 2010.05.17/outbox.cif.g08.bks.cpg/sg65_23_cif.got.tgz:45158.got - 2010.06.03 17:01:31.
