data_PCOD9490803
_publ_section_title
;
Structure prediction by ZEFSAII (Michael W. Deem and Ramdas Pophale) SiO2 
 PCOD9490803
Probable space group: C M M M
;
_chemical_formula_sum "Si O2"
_cell_formula_units_Z 72
_cell_length_a 15.137072
_cell_length_b 8.250576
_cell_length_c 28.677156
_cell_angle_alpha 90.000000
_cell_angle_beta 90.000000
_cell_angle_gamma 90.000000
_cell_volume 3581.477480
_symmetry_space_group_name_H-M "C M M M"
_symmetry_group_IT_number 65
_symmetry_cell_setting 'orthorhombic'
loop_
_space_group_symop_operation_xyz
x,y,z
-x,-y,z
x,-y,-z
-x,y,-z
-x,-y,-z
x,y,-z
-x,y,z
x,-y,z
1/2+x,1/2+y,z
1/2-x,1/2-y,z
1/2+x,1/2-y,-z
1/2-x,1/2+y,-z
1/2-x,1/2-y,-z
1/2+x,1/2+y,-z
1/2-x,1/2+y,z
1/2+x,1/2-y,z
loop_
_atom_site_type_symbol
_atom_site_label
_atom_site_fract_x
_atom_site_fract_y
_atom_site_fract_z
Si Si1 0.146974 0.803500 0.000000
Si Si2 0.500000 0.191273 0.272058
Si Si3 0.850018 0.804384 0.447649
Si Si4 0.148631 0.194207 0.797747
Si Si5 0.000000 0.195682 0.378082
Si Si6 0.647464 0.303981 0.899744
O O1 0.250000 0.750000 0.000000
O O2 0.109558 0.748270 0.949814
O O3 0.143220 0.000000 0.000000
O O4 0.585491 0.247553 0.243105
O O5 0.500000 0.255631 0.324558
O O6 0.500000 0.000000 0.273944
O O7 0.876924 0.750991 0.500000
O O8 0.750000 0.750000 0.439901
O O9 0.915087 0.746246 0.407321
O O10 0.852551 0.000000 0.447738
O O11 0.250000 0.250000 0.792252
O O12 0.114211 0.251014 0.849053
O O13 0.147726 0.000000 0.798074
O O14 0.000000 0.000000 0.379634
O O15 0.642517 0.500000 0.899903
O O16 0.750000 0.250000 0.899960
#
# Coordination Sequence:
#
# PCOD9490803 Si02
#       6
#     8   8  16  16   8  16
#     4   8  12  20  36  65 100 129 160 202 254 317
#     4  12  26  41  57  80 109 146 193 241 286 331
#     4   9  18  34  58  87 117 149 183 218 262 318
#     4  10  20  37  59  82 108 142 184 230 281 336
#     4  10  21  38  58  80 111 149 186 227 275 325
#     4   8  14  24  43  70 100 132 167 209 261 323
#
# _framework density 20.103435000000001
#
# number of rings (size 3 to 8) (size 9 to 14) (size 15 to 20)
#    0.000    2.667    0.000    2.000    0.000    4.000 
#    0.000    2.222    0.000    4.000    0.000    4.667 
#    0.000    0.000    0.000    0.000    0.000    0.000 
#
# Total GULP energy -200686.719064 kJ/mol
# GULP energy per Si atom -5574.631085 kJ/mol
# Density = 2.005768 g / cm^3
# Si number density = 20.103435 Si / 1000 Ang^3
#
#
#
# Elastic Constant Matrix: (Units=GPa)
#
#
# Indices 1 2 3 4 5 6 
#
# 1 92.9311 13.9109 101.0962 0.0000 0.0000 0.0000
# 2 13.9109 25.2702 28.8747 0.0000 0.0000 0.0000
# 3 101.0962 28.8747 253.2323 0.0000 0.0000 0.0000
# 4 0.0000 0.0000 0.0000 18.5904 0.0000 0.0000
# 5 0.0000 0.0000 0.0000 0.0000 842.0754 0.0000
# 6 0.0000 0.0000 0.0000 0.0000 0.0000 19.1570
#
#
#
# Elastic Compliance Matrix: (Units=1/GPa)
#
#
# Indices 1 2 3 4 5 6 
#
# 1 0.019116 -0.002073 -0.007395 0.000000 0.000000 0.000000
# 2 -0.002073 0.045725 -0.004386 0.000000 0.000000 0.000000
# 3 -0.007395 -0.004386 0.007401 0.000000 0.000000 0.000000
# 4 0.000000 0.000000 0.000000 0.053791 0.000000 0.000000
# 5 0.000000 0.000000 0.000000 0.000000 0.001188 0.000000
# 6 0.000000 0.000000 0.000000 0.000000 0.000000 0.052200
#
#
# Mechanical properties :
#
#
# Convention : Reuss Voigt Hill
#
# Bulk Modulus (GPa) = 22.45484 73.24414 47.84949
# Shear Modulus (GPa) = 22.52506 191.13467 106.82987
#
# Velocity S-wave (km/s) = 3.35096 9.76125 7.29763
# Velocity P-wave (km/s) = 5.11525 12.78888 9.73964
#
# Compressibility (1/GPa) = 0.04453383
#
# Stress axis : x y z
#
# Youngs Moduli (GPa) = 52.31272 21.86967 135.11017
#
# Poissons Ratio (x) = 0.04534 0.99915
# Poissons Ratio (y) = 0.10845 0.59262
# Poissons Ratio (z) = 0.38686 0.09592
#
# Static dielectric constant tensor:
#      x y z
#    x 1.698210 0.000000 0.000000 
#    y 0.000000 1.691160 0.000000 
#    z 0.000000 0.000000 1.763840 
# 
# From -- ./inp_files/74697.got.cif
#   From: 2010.05.17/outbox.cif.g08.bks.cpg/sg65_38_cif.got.tgz:74697.got - 2010.06.03 17:01:31.
