data_PCOD9490138
_publ_section_title
;
Structure prediction by ZEFSAII (Michael W. Deem and Ramdas Pophale) SiO2 
 PCOD9490138
Probable space group: C M M M
;
_chemical_formula_sum "Si O2"
_cell_formula_units_Z 64
_cell_length_a 8.426796
_cell_length_b 15.289266
_cell_length_c 22.044871
_cell_angle_alpha 90.000000
_cell_angle_beta 90.000000
_cell_angle_gamma 90.000000
_cell_volume 2840.250721
_symmetry_space_group_name_H-M "C M M M"
_symmetry_group_IT_number 65
_symmetry_cell_setting 'orthorhombic'
loop_
_space_group_symop_operation_xyz
x,y,z
-x,-y,z
x,-y,-z
-x,y,-z
-x,-y,-z
x,y,-z
-x,y,z
x,-y,z
1/2+x,1/2+y,z
1/2-x,1/2-y,z
1/2+x,1/2-y,-z
1/2-x,1/2+y,-z
1/2-x,1/2-y,-z
1/2+x,1/2+y,-z
1/2-x,1/2+y,z
1/2+x,1/2-y,z
loop_
_atom_site_type_symbol
_atom_site_label
_atom_site_fract_x
_atom_site_fract_y
_atom_site_fract_z
Si Si1 0.174538 0.600201 0.373205
Si Si2 0.183088 0.892956 0.000000
Si Si3 0.322247 0.105428 0.872028
Si Si4 0.685276 0.347069 0.254158
Si Si5 0.000000 0.104913 0.572043
O O1 0.167234 0.500000 0.395743
O O2 0.210361 0.598152 0.301329
O O3 0.333760 0.641209 0.401829
O O4 0.000000 0.639967 0.384441
O O5 0.265020 0.863574 0.937855
O O6 0.000000 0.867041 0.000000
O O7 0.188623 0.000000 0.000000
O O8 0.500000 0.138132 0.859458
O O9 0.212526 0.129904 0.815900
O O10 0.326291 0.000000 0.874748
O O11 0.500000 0.356281 0.268824
O O12 0.750000 0.250000 0.263295
O O13 0.000000 0.113442 0.500000
O O14 0.000000 0.000000 0.587450
#
# Coordination Sequence:
#
# PCOD9490138 Si02
#       5
#    16   8  16  16   8
#     4  10  20  36  59  88 119 152 191 234 283 337
#     4   9  17  31  52  79 108 143 184 229 281 335
#     4  10  20  35  56  82 112 145 186 233 283 340
#     4  12  24  38  56  81 112 150 191 238 287 341
#     4   9  18  34  58  90 122 151 188 232 279 333
#
# _framework density 22.533221999999999
#
# number of rings (size 3 to 8) (size 9 to 14) (size 15 to 20)
#    0.000    1.750    1.250    4.125    0.000    6.500 
#    0.000    3.125    0.000    0.750    0.000    0.000 
#    0.000    0.000    0.000    0.000    0.000    0.000 
#
# Total GULP energy -178769.413846 kJ/mol
# GULP energy per Si atom -5586.544183 kJ/mol
# Density = 2.248194 g / cm^3
# Si number density = 22.533222 Si / 1000 Ang^3
#
#
#
# Elastic Constant Matrix: (Units=GPa)
#
#
# Indices 1 2 3 4 5 6 
#
# 1 204.0253 10.8307 48.3268 0.0000 0.0000 0.0000
# 2 10.8307 34.2533 -4.4944 0.0000 0.0000 0.0000
# 3 48.3268 -4.4944 70.4339 0.0000 0.0000 0.0000
# 4 0.0000 0.0000 0.0000 -22.9518 0.0000 0.0000
# 5 0.0000 0.0000 0.0000 0.0000 17.9942 0.0000
# 6 0.0000 0.0000 0.0000 0.0000 0.0000 15.4780
#
#
#
# Elastic Compliance Matrix: (Units=1/GPa)
#
#
# Indices 1 2 3 4 5 6 
#
# 1 0.006054 -0.002480 -0.004312 0.000000 0.000000 0.000000
# 2 -0.002480 0.030457 0.003645 0.000000 0.000000 0.000000
# 3 -0.004312 0.003645 0.017389 0.000000 0.000000 0.000000
# 4 0.000000 0.000000 0.000000 -0.043570 0.000000 0.000000
# 5 0.000000 0.000000 0.000000 0.000000 0.055573 0.000000
# 6 0.000000 0.000000 0.000000 0.000000 0.000000 0.064608
#
#
# Mechanical properties :
#
#
# Convention : Reuss Voigt Hill
#
# Bulk Modulus (GPa) = 21.00592 46.44873 33.72733
# Shear Modulus (GPa) = 32.74920 19.04072 25.89496
#
# Velocity S-wave (km/s) = 3.81645 2.91005 3.39365
# Velocity P-wave (km/s) = 5.36310 5.65238 5.50964
#
# Compressibility (1/GPa) = 0.04760563
#
# Stress axis : x y z
#
# Youngs Moduli (GPa) = 165.16671 32.83337 57.50696
#
# Poissons Ratio (x) = 0.08143 0.24799
# Poissons Ratio (y) = 0.40965 -0.20963
# Poissons Ratio (z) = 0.71227 -0.11969
#
# Static dielectric constant tensor:
#      x y z
#    x 1.838900 0.000000 0.000000 
#    y 0.000000 1.770850 0.000000 
#    z 0.000000 0.000000 1.809030 
# 
# From -- ./inp_files/58772.got.cif
#   From: 2010.05.17/outbox.cif.g08.bks.cpg/sg65_30_cif.got.tgz:58772.got - 2010.06.03 17:01:31.
