data_PCOD9490895
_publ_section_title
;
Structure prediction by ZEFSAII (Michael W. Deem and Ramdas Pophale) SiO2 
 PCOD9490895
Probable space group: C M M M
;
_chemical_formula_sum "Si O2"
_cell_formula_units_Z 64
_cell_length_a 17.038740
_cell_length_b 22.695396
_cell_length_c 8.728430
_cell_angle_alpha 90.000000
_cell_angle_beta 90.000000
_cell_angle_gamma 90.000000
_cell_volume 3375.292187
_symmetry_space_group_name_H-M "C M M M"
_symmetry_group_IT_number 65
_symmetry_cell_setting 'orthorhombic'
loop_
_space_group_symop_operation_xyz
x,y,z
-x,-y,z
x,-y,-z
-x,y,-z
-x,-y,-z
x,y,-z
-x,y,z
x,-y,z
1/2+x,1/2+y,z
1/2-x,1/2-y,z
1/2+x,1/2-y,-z
1/2-x,1/2+y,-z
1/2-x,1/2-y,-z
1/2+x,1/2+y,-z
1/2-x,1/2+y,z
1/2+x,1/2-y,z
loop_
_atom_site_type_symbol
_atom_site_label
_atom_site_fract_x
_atom_site_fract_y
_atom_site_fract_z
Si Si1 0.907662 0.236429 0.184411
Si Si2 0.646571 0.859519 0.317705
Si Si3 0.000000 0.569233 0.183455
Si Si4 0.909859 0.000000 0.186859
Si Si5 0.316472 0.616873 0.814763
O O1 0.868617 0.292734 0.262495
O O2 0.864319 0.175918 0.226290
O O3 0.000000 0.233943 0.222969
O O4 0.901642 0.243455 0.000000
O O5 0.644513 0.862243 0.500000
O O6 0.576699 0.899007 0.249576
O O7 0.730325 0.880673 0.255764
O O8 0.000000 0.500000 0.220864
O O9 0.000000 0.575860 0.000000
O O10 0.864102 0.941133 0.233725
O O11 0.000000 0.000000 0.238899
O O12 0.911432 0.000000 0.000000
O O13 0.309685 0.615768 0.000000
#
# Coordination Sequence:
#
# PCOD9490895 Si02
#       5
#    16  16   8   8  16
#     4  10  20  37  62  89 120 161 210 259 303 353
#     4  12  25  40  60  90 126 162 200 246 305 367
#     4  11  25  45  69  91 117 156 203 252 305 363
#     4   9  18  36  63  94 123 152 201 259 304 347
#     4  10  21  37  61  91 122 161 208 256 303 354
#
# _framework density 18.961321999999999
#
# number of rings (size 3 to 8) (size 9 to 14) (size 15 to 20)
#    0.000    1.500    1.250    4.125    1.750    8.000 
#    0.000    0.000    0.000    3.000    0.000    0.000 
#    0.000    0.000    0.000    0.000    0.000    0.000 
#
# Total GULP energy -178944.795502 kJ/mol
# GULP energy per Si atom -5592.024859 kJ/mol
# Density = 1.891817 g / cm^3
# Si number density = 18.961322 Si / 1000 Ang^3
#
#
#
# Elastic Constant Matrix: (Units=GPa)
#
#
# Indices 1 2 3 4 5 6 
#
# 1 207.1089 126.7628 54.3606 0.0000 0.0000 0.0000
# 2 126.7628 207.1800 64.6504 0.0000 0.0000 0.0000
# 3 54.3606 64.6504 37.3391 0.0000 0.0000 0.0000
# 4 0.0000 0.0000 0.0000 -19.2398 0.0000 0.0000
# 5 0.0000 0.0000 0.0000 0.0000 -8.3756 0.0000
# 6 0.0000 0.0000 0.0000 0.0000 0.0000 -61.8124
#
#
#
# Elastic Compliance Matrix: (Units=1/GPa)
#
#
# Indices 1 2 3 4 5 6 
#
# 1 0.008563 -0.002935 -0.007385 0.000000 0.000000 0.000000
# 2 -0.002935 0.011505 -0.015648 0.000000 0.000000 0.000000
# 3 -0.007385 -0.015648 0.064628 0.000000 0.000000 0.000000
# 4 0.000000 0.000000 0.000000 -0.051976 0.000000 0.000000
# 5 0.000000 0.000000 0.000000 0.000000 -0.119394 0.000000
# 6 0.000000 0.000000 0.000000 0.000000 0.000000 -0.016178
#
#
# Mechanical properties :
#
#
# Convention : Reuss Voigt Hill
#
# Bulk Modulus (GPa) = 30.52563 104.79730 67.66146
# Shear Modulus (GPa) = -125.01451 -4.16194 -64.58823
#
# Velocity S-wave (km/s) = -8.12862 -1.48315 -5.84270
# Velocity P-wave (km/s) = 8.48324 7.24265 3.12326
#
# Compressibility (1/GPa) = 0.03275936
#
# Stress axis : x y z
#
# Youngs Moduli (GPa) = 116.78092 86.91608 15.47324
#
# Poissons Ratio (x) = 0.25507 0.11428
# Poissons Ratio (y) = 0.34272 0.24213
# Poissons Ratio (z) = 0.86247 1.36009
#
# Static dielectric constant tensor:
#      x y z
#    x 1.622180 0.000000 0.000000 
#    y 0.000000 1.634130 0.000000 
#    z 0.000000 0.000000 1.629920 
# 
# From -- ./inp_files/6744.got.cif
#   From: 2010.05.17/outbox.cif.g08.bks.cpg/sg65_4_cif.got.tgz:6744.got - 2010.06.03 17:01:31.
