data_PCOD9490107
_publ_section_title
;
Structure prediction by ZEFSAII (Michael W. Deem and Ramdas Pophale) SiO2 
 PCOD9490107
Probable space group: C M M M
;
_chemical_formula_sum "Si O2"
_cell_formula_units_Z 104
_cell_length_a 17.764484
_cell_length_b 18.650858
_cell_length_c 17.968869
_cell_angle_alpha 90.000000
_cell_angle_beta 90.000000
_cell_angle_gamma 90.000000
_cell_volume 5953.497221
_symmetry_space_group_name_H-M "C M M M"
_symmetry_group_IT_number 65
_symmetry_cell_setting 'orthorhombic'
loop_
_space_group_symop_operation_xyz
x,y,z
-x,-y,z
x,-y,-z
-x,y,-z
-x,-y,-z
x,y,-z
-x,y,z
x,-y,z
1/2+x,1/2+y,z
1/2-x,1/2-y,z
1/2+x,1/2-y,-z
1/2-x,1/2+y,-z
1/2-x,1/2-y,-z
1/2+x,1/2+y,-z
1/2-x,1/2+y,z
1/2+x,1/2-y,z
loop_
_atom_site_type_symbol
_atom_site_label
_atom_site_fract_x
_atom_site_fract_y
_atom_site_fract_z
Si Si1 0.681000 0.304398 0.322514
Si Si2 0.142179 0.836880 0.157779
Si Si3 0.779297 0.416711 0.589289
Si Si4 0.500000 0.414286 0.913447
Si Si5 0.913213 0.689151 0.410900
Si Si6 0.087256 0.310195 0.089383
Si Si7 0.715710 0.916975 0.910516
O O1 0.750000 0.250000 0.304224
O O2 0.645715 0.332600 0.246485
O O3 0.716629 0.368960 0.370016
O O4 0.622163 0.257533 0.369684
O O5 0.073511 0.883834 0.126642
O O6 0.127967 0.757241 0.126611
O O7 0.219119 0.870925 0.127579
O O8 0.768389 0.412561 0.500000
O O9 0.778109 0.500000 0.611161
O O10 0.859277 0.378493 0.605894
O O11 0.500000 0.500000 0.912226
O O12 0.500000 0.390383 0.000000
O O13 0.909441 0.700613 0.500000
O O14 0.000000 0.677494 0.390207
O O15 0.135366 0.380987 0.106524
O O16 0.000000 0.313836 0.112609
O O17 0.088711 0.300262 0.000000
O O18 0.719425 0.000000 0.888084
O O19 0.726513 0.913548 0.000000
#
# Coordination Sequence:
#
# PCOD9490107 Si02
#       7
#    16  16  16   8  16  16  16
#     4  10  21  35  54  79 109 146 185 222 267 321
#     4  12  22  36  57  80 107 142 186 233 276 329
#     4   9  18  34  56  82 112 146 184 224 267 318
#     4  11  24  40  58  80 108 142 180 231 292 342
#     4   9  18  33  56  83 112 146 182 222 267 318
#     4  10  20  35  56  81 108 140 179 223 274 332
#     4  10  21  36  55  79 108 142 179 222 275 335
#
# _framework density 17.468724000000002
#
# number of rings (size 3 to 8) (size 9 to 14) (size 15 to 20)
#    0.000    1.923    0.769    3.692    1.077    6.154 
#    0.000    3.077    0.000    0.000    0.000    6.462 
#    0.000    0.000    0.000    0.000    0.000    0.000 
#
# Total GULP energy -290327.900428 kJ/mol
# GULP energy per Si atom -5583.228854 kJ/mol
# Density = 1.742896 g / cm^3
# Si number density = 17.468724 Si / 1000 Ang^3
#
#
#
# Elastic Constant Matrix: (Units=GPa)
#
#
# Indices 1 2 3 4 5 6 
#
# 1 91.9239 66.5993 42.5973 0.0000 0.0000 0.0000
# 2 66.5993 119.9490 51.6600 0.0000 0.0000 0.0000
# 3 42.5973 51.6600 50.6679 0.0000 0.0000 0.0000
# 4 0.0000 0.0000 0.0000 -778.6077 0.0000 0.0000
# 5 0.0000 0.0000 0.0000 0.0000 -14.2426 0.0000
# 6 0.0000 0.0000 0.0000 0.0000 0.0000 40.4242
#
#
#
# Elastic Compliance Matrix: (Units=1/GPa)
#
#
# Indices 1 2 3 4 5 6 
#
# 1 0.020776 -0.007154 -0.010172 0.000000 0.000000 0.000000
# 2 -0.007154 0.017327 -0.011652 0.000000 0.000000 0.000000
# 3 -0.010172 -0.011652 0.040168 0.000000 0.000000 0.000000
# 4 0.000000 0.000000 0.000000 -0.001284 0.000000 0.000000
# 5 0.000000 0.000000 0.000000 0.000000 -0.070212 0.000000
# 6 0.000000 0.000000 0.000000 0.000000 0.000000 0.024738
#
#
# Mechanical properties :
#
#
# Convention : Reuss Voigt Hill
#
# Bulk Modulus (GPa) = 49.22536 64.91713 57.07124
# Shear Modulus (GPa) = 51.95306 -143.70626 -45.87660
#
# Velocity S-wave (km/s) = 5.45941 -9.07984 -5.13022
# Velocity P-wave (km/s) = 8.24503 8.52538 1.53321
#
# Compressibility (1/GPa) = 0.02031473
#
# Stress axis : x y z
#
# Youngs Moduli (GPa) = 48.13344 57.71173 24.89530
#
# Poissons Ratio (x) = 0.41289 0.25323
# Poissons Ratio (y) = 0.34436 0.29008
# Poissons Ratio (z) = 0.48961 0.67246
#
# Static dielectric constant tensor:
#      x y z
#    x 1.580650 0.000000 0.000000 
#    y 0.000000 1.574850 0.000000 
#    z 0.000000 0.000000 1.579550 
# 
# From -- ./inp_files/54600.got.cif
#   From: 2010.05.17/outbox.cif.g08.bks.cpg/sg65_28_cif.got.tgz:54600.got - 2010.06.03 17:01:31.
