data_PCOD9490784
_publ_section_title
;
Structure prediction by ZEFSAII (Michael W. Deem and Ramdas Pophale) SiO2 
 PCOD9490784
Probable space group: C M M M
;
_chemical_formula_sum "Si O2"
_cell_formula_units_Z 88
_cell_length_a 22.719579
_cell_length_b 8.747151
_cell_length_c 25.384635
_cell_angle_alpha 90.000000
_cell_angle_beta 90.000000
_cell_angle_gamma 90.000000
_cell_volume 5044.728829
_symmetry_space_group_name_H-M "C M M M"
_symmetry_group_IT_number 65
_symmetry_cell_setting 'orthorhombic'
loop_
_space_group_symop_operation_xyz
x,y,z
-x,-y,z
x,-y,-z
-x,y,-z
-x,-y,-z
x,y,-z
-x,y,z
x,-y,z
1/2+x,1/2+y,z
1/2-x,1/2-y,z
1/2+x,1/2-y,-z
1/2-x,1/2+y,-z
1/2-x,1/2-y,-z
1/2+x,1/2+y,-z
1/2-x,1/2+y,z
1/2+x,1/2-y,z
loop_
_atom_site_type_symbol
_atom_site_label
_atom_site_fract_x
_atom_site_fract_y
_atom_site_fract_z
Si Si1 0.685102 0.684191 0.179113
Si Si2 0.568992 0.315738 0.112849
Si Si3 0.879753 0.681830 0.398917
Si Si4 0.070699 0.672854 0.000000
Si Si5 0.500000 0.682661 0.563029
Si Si6 0.686558 0.317024 0.697528
Si Si7 0.185728 0.182567 0.500000
O O1 0.689028 0.500000 0.174018
O O2 0.750000 0.750000 0.163114
O O3 0.624881 0.733803 0.149018
O O4 0.676869 0.721610 0.241054
O O5 0.500000 0.265922 0.124823
O O6 0.567512 0.500000 0.114547
O O7 0.584572 0.260065 0.053935
O O8 0.874151 0.500000 0.400858
O O9 0.944618 0.738775 0.410818
O O10 0.858830 0.744092 0.342798
O O11 0.843688 0.755849 0.446887
O O12 0.094757 0.500000 0.000000
O O13 0.000000 0.662398 0.000000
O O14 0.500000 0.500000 0.570961
O O15 0.500000 0.708873 0.500000
O O16 0.686447 0.500000 0.692366
O O17 0.750000 0.250000 0.682618
O O18 0.250000 0.250000 0.500000
O O19 0.183830 0.000000 0.500000
#
# Coordination Sequence:
#
# PCOD9490784 Si02
#       7
#    16  16  16   8   8  16   8
#     4   9  19  35  56  81 109 146 186 227 276 329
#     4   9  17  32  54  79 108 142 185 229 273 324
#     4  12  24  39  59  83 111 142 177 220 269 323
#     4   9  17  29  48  77 110 143 181 223 276 327
#     4  11  23  41  63  83 108 144 180 215 262 325
#     4  10  20  37  58  82 110 143 183 224 271 323
#     4  12  24  39  58  83 110 138 176 222 272 322
#
# _framework density 17.443950999999998
#
# number of rings (size 3 to 8) (size 9 to 14) (size 15 to 20)
#    0.000    1.818    0.909    4.091    0.000    2.909 
#    1.636    0.455    0.000    0.000    0.000    0.000 
#    0.000    0.000    0.000    0.000    0.000    0.000 
#
# Total GULP energy -245309.223760 kJ/mol
# GULP energy per Si atom -5575.209631 kJ/mol
# Density = 1.740425 g / cm^3
# Si number density = 17.443951 Si / 1000 Ang^3
#
#
#
# Elastic Constant Matrix: (Units=GPa)
#
#
# Indices 1 2 3 4 5 6 
#
# 1 156.2300 46.2304 79.5326 0.0000 0.0000 0.0000
# 2 46.2304 79.8192 44.2684 0.0000 0.0000 0.0000
# 3 79.5326 44.2684 96.0181 0.0000 0.0000 0.0000
# 4 0.0000 0.0000 0.0000 24.7227 0.0000 0.0000
# 5 0.0000 0.0000 0.0000 0.0000 41.1602 0.0000
# 6 0.0000 0.0000 0.0000 0.0000 0.0000 28.6089
#
#
#
# Elastic Compliance Matrix: (Units=1/GPa)
#
#
# Indices 1 2 3 4 5 6 
#
# 1 0.011260 -0.001812 -0.008491 0.000000 0.000000 0.000000
# 2 -0.001812 0.017124 -0.006394 0.000000 0.000000 0.000000
# 3 -0.008491 -0.006394 0.020396 0.000000 0.000000 0.000000
# 4 0.000000 0.000000 0.000000 0.040449 0.000000 0.000000
# 5 0.000000 0.000000 0.000000 0.000000 0.024295 0.000000
# 6 0.000000 0.000000 0.000000 0.000000 0.000000 0.034954
#
#
# Mechanical properties :
#
#
# Convention : Reuss Voigt Hill
#
# Bulk Modulus (GPa) = 64.99707 74.68112 69.83910
# Shear Modulus (GPa) = 26.73803 29.70074 28.21939
#
# Velocity S-wave (km/s) = 3.91934 4.13078 4.02645
# Velocity P-wave (km/s) = 7.60415 8.10285 7.85745
#
# Compressibility (1/GPa) = 0.01538531
#
# Stress axis : x y z
#
# Youngs Moduli (GPa) = 88.81330 58.39756 49.03036
#
# Poissons Ratio (x) = 0.10584 0.41631
# Poissons Ratio (y) = 0.16096 0.31349
# Poissons Ratio (z) = 0.75410 0.37338
#
# Static dielectric constant tensor:
#      x y z
#    x 1.580730 0.000000 0.000000 
#    y 0.000000 1.588020 0.000000 
#    z 0.000000 0.000000 1.583680 
# 
# From -- ./inp_files/71080.got.cif
#   From: 2010.05.17/outbox.cif.g08.bks.cpg/sg65_36_cif.got.tgz:71080.got - 2010.06.03 17:01:31.
