data_PCOD9490410
_publ_section_title
;
Structure prediction by ZEFSAII (Michael W. Deem and Ramdas Pophale) SiO2 
 PCOD9490410
Probable space group: C M M M
;
_chemical_formula_sum "Si O2"
_cell_formula_units_Z 68
_cell_length_a 28.744559
_cell_length_b 11.126554
_cell_length_c 11.248824
_cell_angle_alpha 90.000000
_cell_angle_beta 90.000000
_cell_angle_gamma 90.000000
_cell_volume 3597.687622
_symmetry_space_group_name_H-M "C M M M"
_symmetry_group_IT_number 65
_symmetry_cell_setting 'orthorhombic'
loop_
_space_group_symop_operation_xyz
x,y,z
-x,-y,z
x,-y,-z
-x,y,-z
-x,-y,-z
x,y,-z
-x,y,z
x,-y,z
1/2+x,1/2+y,z
1/2-x,1/2-y,z
1/2+x,1/2-y,-z
1/2-x,1/2+y,-z
1/2-x,1/2-y,-z
1/2+x,1/2+y,-z
1/2-x,1/2+y,z
1/2+x,1/2-y,z
loop_
_atom_site_type_symbol
_atom_site_label
_atom_site_fract_x
_atom_site_fract_y
_atom_site_fract_z
Si Si1 0.307549 0.135230 0.500000
Si Si2 0.000000 0.000000 0.814152
Si Si3 0.250000 0.250000 0.702518
Si Si4 0.500000 0.141892 0.637293
Si Si5 0.075721 0.805908 0.258263
Si Si6 0.874759 0.131280 0.500000
Si Si7 0.668217 0.642518 0.139250
O O1 0.275540 0.155796 0.615518
O O2 0.342750 0.249444 0.500000
O O3 0.327780 0.000000 0.500000
O O4 0.040639 0.103969 0.806436
O O5 0.288734 0.313264 0.782785
O O6 0.500000 0.187383 0.500000
O O7 0.454425 0.191478 0.703289
O O8 0.500000 0.000000 0.634730
O O9 0.093808 0.862013 0.382552
O O10 0.121748 0.788835 0.180693
O O11 0.850043 0.000000 0.500000
O O12 0.660198 0.500000 0.159618
O O13 0.677050 0.660582 0.000000
#
# Coordination Sequence:
#
# PCOD9490410 Si02
#       7
#     8   4   8   8  16   8  16
#     4  11  25  39  62  98 133 165 213 268 333 404
#     4  10  20  35  61  90 124 158 203 255 328 374
#     4  11  23  42  64  90 127 171 212 264 334 393
#     4  10  22  38  59  91 127 167 203 254 324 398
#     4  11  21  37  60  92 125 161 205 264 318 385
#     4  12  21  35  63  93 133 170 208 266 333 393
#     4  11  23  42  64  90 124 167 221 275 318 378
#
# _framework density 18.901029999999999
#
# number of rings (size 3 to 8) (size 9 to 14) (size 15 to 20)
#    0.000    1.059    5.882    1.059    0.000    3.294 
#    0.000    2.941    0.000    4.235    0.000    0.000 
#    0.000    0.000    0.000    0.000    0.000    0.000 
#
# Total GULP energy -189310.381931 kJ/mol
# GULP energy per Si atom -5567.952410 kJ/mol
# Density = 1.885801 g / cm^3
# Si number density = 18.901030 Si / 1000 Ang^3
#
#
#
# Elastic Constant Matrix: (Units=GPa)
#
#
# Indices 1 2 3 4 5 6 
#
# 1 126.4117 42.4132 36.8558 0.0000 0.0000 0.0000
# 2 42.4132 110.2245 20.3120 0.0000 0.0000 0.0000
# 3 36.8558 20.3120 84.1255 0.0000 0.0000 0.0000
# 4 0.0000 0.0000 0.0000 4.6341 0.0000 0.0000
# 5 0.0000 0.0000 0.0000 0.0000 -5.9351 0.0000
# 6 0.0000 0.0000 0.0000 0.0000 0.0000 6.8599
#
#
#
# Elastic Compliance Matrix: (Units=1/GPa)
#
#
# Indices 1 2 3 4 5 6 
#
# 1 0.010040 -0.003195 -0.003627 0.000000 0.000000 0.000000
# 2 -0.003195 0.010512 -0.001138 0.000000 0.000000 0.000000
# 3 -0.003627 -0.001138 0.013751 0.000000 0.000000 0.000000
# 4 0.000000 0.000000 0.000000 0.215793 0.000000 0.000000
# 5 0.000000 0.000000 0.000000 0.000000 -0.168489 0.000000
# 6 0.000000 0.000000 0.000000 0.000000 0.000000 0.145775
#
#
# Mechanical properties :
#
#
# Convention : Reuss Voigt Hill
#
# Bulk Modulus (GPa) = 54.40176 57.76927 56.08552
# Shear Modulus (GPa) = 20.04573 15.85714 17.95144
#
# Velocity S-wave (km/s) = 3.26016 2.89962 3.08516
# Velocity P-wave (km/s) = 6.55869 6.46845 6.51373
#
# Compressibility (1/GPa) = 0.01838176
#
# Stress axis : x y z
#
# Youngs Moduli (GPa) = 99.60020 95.13365 72.72222
#
# Poissons Ratio (x) = 0.30394 0.26378
# Poissons Ratio (y) = 0.31821 0.08278
# Poissons Ratio (z) = 0.36127 0.10829
#
# Static dielectric constant tensor:
#      x y z
#    x 1.652700 0.000000 0.000000 
#    y 0.000000 1.650890 0.000000 
#    z 0.000000 0.000000 1.663970 
# 
# From -- ./inp_files/32053.got.cif
#   From: 2010.05.17/outbox.cif.g08.bks.cpg/sg65_17_cif.got.tgz:32053.got - 2010.06.03 17:01:31.
