data_PCOD9490265
_publ_section_title
;
Structure prediction by ZEFSAII (Michael W. Deem and Ramdas Pophale) SiO2 
 PCOD9490265
Probable space group: C M M M
;
_chemical_formula_sum "Si O2"
_cell_formula_units_Z 64
_cell_length_a 39.166279
_cell_length_b 10.476002
_cell_length_c 8.604908
_cell_angle_alpha 90.000000
_cell_angle_beta 90.000000
_cell_angle_gamma 90.000000
_cell_volume 3530.645529
_symmetry_space_group_name_H-M "C M M M"
_symmetry_group_IT_number 65
_symmetry_cell_setting 'orthorhombic'
loop_
_space_group_symop_operation_xyz
x,y,z
-x,-y,z
x,-y,-z
-x,y,-z
-x,-y,-z
x,y,-z
-x,y,z
x,-y,z
1/2+x,1/2+y,z
1/2-x,1/2-y,z
1/2+x,1/2-y,-z
1/2-x,1/2+y,-z
1/2-x,1/2-y,-z
1/2+x,1/2+y,-z
1/2-x,1/2+y,z
1/2+x,1/2-y,z
loop_
_atom_site_type_symbol
_atom_site_label
_atom_site_fract_x
_atom_site_fract_y
_atom_site_fract_z
Si Si1 0.278238 0.852871 0.187745
Si Si2 0.039126 0.500000 0.810748
Si Si3 0.146592 0.647949 0.314038
Si Si4 0.960359 0.000000 0.686310
Si Si5 0.578802 0.254359 0.813563
O O1 0.250000 0.750000 0.237606
O O2 0.315446 0.821584 0.255387
O O3 0.269930 0.000000 0.232265
O O4 0.280255 0.849087 0.000000
O O5 0.058699 0.627081 0.760914
O O6 0.000000 0.500000 0.758266
O O7 0.960984 0.500000 0.000000
O O8 0.145491 0.654020 0.500000
O O9 0.139679 0.500000 0.266047
O O10 0.117506 0.737373 0.243531
O O11 0.940576 0.123776 0.747384
O O12 0.960085 0.000000 0.500000
O O13 0.000000 0.000000 0.738743
O O14 0.578309 0.259597 0.000000
#
# Coordination Sequence:
#
# PCOD9490265 Si02
#       5
#    16   8  16   8  16
#     4   9  18  34  56  81 110 145 187 234 281 333
#     4   9  18  32  55  87 114 137 180 239 285 327
#     4  10  20  35  57  84 117 153 189 233 286 344
#     4  11  25  43  59  81 118 157 190 233 293 353
#     4  11  21  37  61  86 114 150 194 240 285 339
#
# _framework density 18.126998
#
# number of rings (size 3 to 8) (size 9 to 14) (size 15 to 20)
#    0.000    2.000    1.250    2.625    0.000    3.500 
#    2.250    0.000    0.000    3.000    0.000    0.000 
#    0.000    0.000    0.000    0.000    0.000    0.000 
#
# Total GULP energy -178688.592261 kJ/mol
# GULP energy per Si atom -5584.018508 kJ/mol
# Density = 1.808574 g / cm^3
# Si number density = 18.126998 Si / 1000 Ang^3
#
#
#
# Elastic Constant Matrix: (Units=GPa)
#
#
# Indices 1 2 3 4 5 6 
#
# 1 179.1805 111.4163 43.7269 0.0000 0.0000 0.0000
# 2 111.4163 153.5823 39.9586 0.0000 0.0000 0.0000
# 3 43.7269 39.9586 37.7698 0.0000 0.0000 0.0000
# 4 0.0000 0.0000 0.0000 19.6180 0.0000 0.0000
# 5 0.0000 0.0000 0.0000 0.0000 25.1534 0.0000
# 6 0.0000 0.0000 0.0000 0.0000 0.0000 37.0727
#
#
#
# Elastic Compliance Matrix: (Units=1/GPa)
#
#
# Indices 1 2 3 4 5 6 
#
# 1 0.011060 -0.006474 -0.005955 0.000000 0.000000 0.000000
# 2 -0.006474 0.012774 -0.006019 0.000000 0.000000 0.000000
# 3 -0.005955 -0.006019 0.039738 0.000000 0.000000 0.000000
# 4 0.000000 0.000000 0.000000 0.050974 0.000000 0.000000
# 5 0.000000 0.000000 0.000000 0.000000 0.039756 0.000000
# 6 0.000000 0.000000 0.000000 0.000000 0.000000 0.026974
#
#
# Mechanical properties :
#
#
# Convention : Reuss Voigt Hill
#
# Bulk Modulus (GPa) = 37.48707 84.52625 61.00666
# Shear Modulus (GPa) = 22.02031 28.06420 25.04226
#
# Velocity S-wave (km/s) = 3.48915 3.93898 3.72087
# Velocity P-wave (km/s) = 6.07926 8.21089 7.22413
#
# Compressibility (1/GPa) = 0.02667586
#
# Stress axis : x y z
#
# Youngs Moduli (GPa) = 90.41745 78.28588 25.16473
#
# Poissons Ratio (x) = 0.50682 0.14986
# Poissons Ratio (y) = 0.58536 0.15146
# Poissons Ratio (z) = 0.53844 0.47119
#
# Static dielectric constant tensor:
#      x y z
#    x 1.599590 0.000000 0.000000 
#    y 0.000000 1.590960 0.000000 
#    z 0.000000 0.000000 1.603380 
# 
# From -- ./inp_files/17799.got.cif
#   From: 2010.05.17/outbox.cif.g08.bks.cpg/sg65_9_cif.got.tgz:17799.got - 2010.06.03 17:01:31.
