data_PCOD9490609
_publ_section_title
;
Structure prediction by ZEFSAII (Michael W. Deem and Ramdas Pophale) SiO2 
 PCOD9490609
Probable space group: C M M M
;
_chemical_formula_sum "Si O2"
_cell_formula_units_Z 104
_cell_length_a 13.530721
_cell_length_b 18.457542
_cell_length_c 19.513302
_cell_angle_alpha 90.000000
_cell_angle_beta 90.000000
_cell_angle_gamma 90.000000
_cell_volume 4873.327190
_symmetry_space_group_name_H-M "C M M M"
_symmetry_group_IT_number 65
_symmetry_cell_setting 'orthorhombic'
loop_
_space_group_symop_operation_xyz
x,y,z
-x,-y,z
x,-y,-z
-x,y,-z
-x,-y,-z
x,y,-z
-x,y,z
x,-y,z
1/2+x,1/2+y,z
1/2-x,1/2-y,z
1/2+x,1/2-y,-z
1/2-x,1/2+y,-z
1/2-x,1/2-y,-z
1/2+x,1/2+y,-z
1/2-x,1/2+y,z
1/2+x,1/2-y,z
loop_
_atom_site_type_symbol
_atom_site_label
_atom_site_fract_x
_atom_site_fract_y
_atom_site_fract_z
Si Si1 0.883639 0.152718 0.634432
Si Si2 0.291511 0.668397 0.221401
Si Si3 0.119967 0.307712 0.423151
Si Si4 0.701057 0.670856 0.924182
Si Si5 0.380005 0.500000 0.420678
Si Si6 0.103307 0.419193 0.917636
Si Si7 0.382017 0.086673 0.294246
O O1 0.862832 0.159956 0.714446
O O2 0.848537 0.225704 0.596834
O O3 0.843227 0.075034 0.610967
O O4 0.000000 0.150495 0.620761
O O5 0.250000 0.750000 0.222092
O O6 0.350439 0.661191 0.149150
O O7 0.196425 0.616426 0.237884
O O8 0.154687 0.327136 0.500000
O O9 0.141160 0.364505 0.361967
O O10 0.000000 0.306429 0.425758
O O11 0.750000 0.750000 0.928162
O O12 0.795607 0.621072 0.910478
O O13 0.656619 0.655857 0.000000
O O14 0.500000 0.500000 0.413884
O O15 0.355596 0.500000 0.500000
O O16 0.107378 0.500000 0.888409
O O17 0.000000 0.383802 0.894097
O O18 0.095868 0.425168 0.000000
O O19 0.500000 0.098231 0.278073
O O20 0.369563 0.000000 0.304417
#
# Coordination Sequence:
#
# PCOD9490609 Si02
#       7
#    16  16  16  16   8  16  16
#     4  10  20  36  58  84 114 149 191 238 290 343
#     4  11  22  37  58  80 111 150 189 234 284 345
#     4   9  17  33  59  85 112 152 195 234 280 337
#     4   9  19  35  53  76 108 143 181 226 279 340
#     4   9  18  34  58  86 114 144 182 237 296 338
#     4   8  14  27  49  77 107 135 167 214 272 330
#     4  10  22  39  58  84 120 158 196 236 282 342
#
# _framework density 21.340657
#
# number of rings (size 3 to 8) (size 9 to 14) (size 15 to 20)
#    0.000    2.538    1.538    0.923    1.077    3.385 
#    0.000    7.692    0.000    1.385    0.000    0.000 
#    0.000    1.846    0.000    0.308    0.000    0.000 
#
# Total GULP energy -289655.464591 kJ/mol
# GULP energy per Si atom -5570.297396 kJ/mol
# Density = 2.129208 g / cm^3
# Si number density = 21.340657 Si / 1000 Ang^3
#
#
#
# Elastic Constant Matrix: (Units=GPa)
#
#
# Indices 1 2 3 4 5 6 
#
# 1 30.3796 18.4913 -10.3274 0.0000 0.0000 0.0000
# 2 18.4913 117.1793 51.6209 0.0000 0.0000 0.0000
# 3 -10.3274 51.6209 156.0203 0.0000 0.0000 0.0000
# 4 0.0000 0.0000 0.0000 18.7908 0.0000 0.0000
# 5 0.0000 0.0000 0.0000 0.0000 13.7742 0.0000
# 6 0.0000 0.0000 0.0000 0.0000 0.0000 -28.4380
#
#
#
# Elastic Compliance Matrix: (Units=1/GPa)
#
#
# Indices 1 2 3 4 5 6 
#
# 1 0.040159 -0.008789 0.005566 0.000000 0.000000 0.000000
# 2 -0.008789 0.011914 -0.004524 0.000000 0.000000 0.000000
# 3 0.005566 -0.004524 0.008275 0.000000 0.000000 0.000000
# 4 0.000000 0.000000 0.000000 0.053217 0.000000 0.000000
# 5 0.000000 0.000000 0.000000 0.000000 0.072599 0.000000
# 6 0.000000 0.000000 0.000000 0.000000 0.000000 -0.035164
#
#
# Mechanical properties :
#
#
# Convention : Reuss Voigt Hill
#
# Bulk Modulus (GPa) = 22.29462 47.01653 34.65558
# Shear Modulus (GPa) = 27.55669 17.07837 22.31753
#
# Velocity S-wave (km/s) = 3.59733 2.83198 3.23735
# Velocity P-wave (km/s) = 5.26537 5.72475 5.49986
#
# Compressibility (1/GPa) = 0.04485387
#
# Stress axis : x y z
#
# Youngs Moduli (GPa) = 24.90110 83.93716 120.85278
#
# Poissons Ratio (x) = 0.73775 -0.67270
# Poissons Ratio (y) = 0.21886 0.54668
# Poissons Ratio (z) = -0.13861 0.37969
#
# Static dielectric constant tensor:
#      x y z
#    x 1.791650 0.000000 0.000000 
#    y 0.000000 1.833030 0.000000 
#    z 0.000000 0.000000 1.831990 
# 
# From -- ./inp_files/62861.got.cif
#   From: 2010.05.17/outbox.cif.g08.bks.cpg/sg65_32_cif.got.tgz:62861.got - 2010.06.03 17:01:31.
