data_PCOD9490666
_publ_section_title
;
Structure prediction by ZEFSAII (Michael W. Deem and Ramdas Pophale) SiO2 
 PCOD9490666
Probable space group: C M M M
;
_chemical_formula_sum "Si O2"
_cell_formula_units_Z 66
_cell_length_a 15.915293
_cell_length_b 26.062046
_cell_length_c 7.547939
_cell_angle_alpha 90.000000
_cell_angle_beta 90.000000
_cell_angle_gamma 90.000000
_cell_volume 3130.772620
_symmetry_space_group_name_H-M "C M M M"
_symmetry_group_IT_number 65
_symmetry_cell_setting 'orthorhombic'
loop_
_space_group_symop_operation_xyz
x,y,z
-x,-y,z
x,-y,-z
-x,y,-z
-x,-y,-z
x,y,-z
-x,y,z
x,-y,z
1/2+x,1/2+y,z
1/2-x,1/2-y,z
1/2+x,1/2-y,-z
1/2-x,1/2+y,-z
1/2-x,1/2-y,-z
1/2+x,1/2+y,-z
1/2-x,1/2+y,z
1/2+x,1/2-y,z
loop_
_atom_site_type_symbol
_atom_site_label
_atom_site_fract_x
_atom_site_fract_y
_atom_site_fract_z
Si Si1 0.343382 0.125126 0.297924
Si Si2 0.594946 0.235473 0.792341
Si Si3 0.833145 0.156888 0.712488
Si Si4 0.000000 0.000000 0.000000
Si Si5 0.000000 0.092556 0.285525
Si Si6 0.500000 0.059705 0.717335
O O1 0.332088 0.106615 0.500000
O O2 0.376519 0.183550 0.300503
O O3 0.250844 0.129875 0.215321
O O4 0.416385 0.089455 0.219854
O O5 0.500000 0.249458 0.734178
O O6 0.654509 0.284248 0.767543
O O7 0.592813 0.223308 0.000000
O O8 0.825371 0.157895 0.500000
O O9 0.917149 0.125956 0.755412
O O10 0.000000 0.955647 0.842873
O O11 0.000000 0.081516 0.500000
O O12 0.500000 0.062963 0.500000
O O13 0.500000 0.000000 0.765371
#
# Coordination Sequence:
#
# PCOD9490666 Si02
#       6
#    16  16  16   2   8   8
#     4  10  20  36  59  86 116 154 200 245 299 363
#     4  11  22  34  55  85 122 160 195 241 302 369
#     4  10  21  37  60  89 119 156 198 246 304 366
#     4  12  26  44  72  90 120 166 210 252 314 394
#     4  10  23  44  66  92 127 160 202 264 312 360
#     4   9  18  35  59  85 111 146 197 252 296 346
#
# _framework density 21.081057999999999
#
# number of rings (size 3 to 8) (size 9 to 14) (size 15 to 20)
#    0.000    1.818    2.424    1.636    1.697    4.848 
#    2.182    0.000    0.000    1.455    0.000    0.000 
#    0.000    0.000    0.000    0.000    0.000    0.000 
#
# Total GULP energy -184026.561789 kJ/mol
# GULP energy per Si atom -5576.562478 kJ/mol
# Density = 2.103308 g / cm^3
# Si number density = 21.081058 Si / 1000 Ang^3
#
#
#
# Elastic Constant Matrix: (Units=GPa)
#
#
# Indices 1 2 3 4 5 6 
#
# 1 189.9533 72.7781 15.9701 0.0000 0.0000 0.0000
# 2 72.7781 139.3052 21.8899 0.0000 0.0000 0.0000
# 3 15.9701 21.8899 60.0398 0.0000 0.0000 0.0000
# 4 0.0000 0.0000 0.0000 226.3692 0.0000 0.0000
# 5 0.0000 0.0000 0.0000 0.0000 -3.8205 0.0000
# 6 0.0000 0.0000 0.0000 0.0000 0.0000 11.0742
#
#
#
# Elastic Compliance Matrix: (Units=1/GPa)
#
#
# Indices 1 2 3 4 5 6 
#
# 1 0.006598 -0.003364 -0.000529 0.000000 0.000000 0.000000
# 2 -0.003364 0.009330 -0.002507 0.000000 0.000000 0.000000
# 3 -0.000529 -0.002507 0.017710 0.000000 0.000000 0.000000
# 4 0.000000 0.000000 0.000000 0.004418 0.000000 0.000000
# 5 0.000000 0.000000 0.000000 0.000000 -0.261749 0.000000
# 6 0.000000 0.000000 0.000000 0.000000 0.000000 0.090300
#
#
# Mechanical properties :
#
#
# Convention : Reuss Voigt Hill
#
# Bulk Modulus (GPa) = 47.98612 67.84160 57.91386
# Shear Modulus (GPa) = -43.99506 65.30194 10.65344
#
# Velocity S-wave (km/s) = -4.57327 5.57170 2.25045
# Velocity P-wave (km/s) = 2.25262 8.58155 5.85528
#
# Compressibility (1/GPa) = 0.02083936
#
# Stress axis : x y z
#
# Youngs Moduli (GPa) = 151.56822 107.18375 56.46478
#
# Poissons Ratio (x) = 0.36055 0.02984
# Poissons Ratio (y) = 0.50985 0.14155
# Poissons Ratio (z) = 0.08011 0.26869
#
# Static dielectric constant tensor:
#      x y z
#    x 1.804900 0.000000 0.000000 
#    y 0.000000 1.685420 0.000000 
#    z 0.000000 0.000000 1.779700 
# 
# From -- ./inp_files/7154.got.cif
#   From: 2010.05.17/outbox.cif.g08.bks.cpg/sg65_4_cif.got.tgz:7154.got - 2010.06.03 17:01:31.
