data_PCOD9491187
_publ_section_title
;
Structure prediction by ZEFSAII (Michael W. Deem and Ramdas Pophale) SiO2 
 PCOD9491187
Probable space group: C M M M
;
_chemical_formula_sum "Si O2"
_cell_formula_units_Z 72
_cell_length_a 25.955358
_cell_length_b 8.705853
_cell_length_c 18.464346
_cell_angle_alpha 90.000000
_cell_angle_beta 90.000000
_cell_angle_gamma 90.000000
_cell_volume 4172.268825
_symmetry_space_group_name_H-M "C M M M"
_symmetry_group_IT_number 65
_symmetry_cell_setting 'orthorhombic'
loop_
_space_group_symop_operation_xyz
x,y,z
-x,-y,z
x,-y,-z
-x,y,-z
-x,-y,-z
x,y,-z
-x,y,z
x,-y,z
1/2+x,1/2+y,z
1/2-x,1/2-y,z
1/2+x,1/2-y,-z
1/2-x,1/2+y,-z
1/2-x,1/2-y,-z
1/2+x,1/2+y,-z
1/2-x,1/2+y,z
1/2+x,1/2-y,z
loop_
_atom_site_type_symbol
_atom_site_label
_atom_site_fract_x
_atom_site_fract_y
_atom_site_fract_z
Si Si1 0.558723 0.319078 0.329929
Si Si2 0.699751 0.000000 0.416542
Si Si3 0.250000 0.750000 0.315062
Si Si4 0.306784 0.181785 0.919562
Si Si5 0.151458 0.173854 0.218396
Si Si6 0.923516 0.500000 0.583173
O O1 0.500000 0.320366 0.301526
O O2 0.567197 0.500000 0.357918
O O3 0.603188 0.292663 0.270478
O O4 0.561409 0.165851 0.381059
O O5 0.721092 0.138837 0.369900
O O6 0.638403 0.000000 0.415973
O O7 0.717429 0.000000 0.500000
O O8 0.204518 0.814069 0.264254
O O9 0.250000 0.250000 0.906223
O O10 0.342928 0.224348 0.852778
O O11 0.301415 0.000000 0.921311
O O12 0.323687 0.234789 0.000000
O O13 0.146088 0.000000 0.192964
O O14 0.940944 0.500000 0.500000
#
# Coordination Sequence:
#
# PCOD9491187 Si02
#       6
#    16   8   8  16  16   8
#     4  10  23  42  61  86 117 152 200 252 300 352
#     4  11  24  39  56  81 117 153 194 237 291 359
#     4  12  21  36  55  82 112 148 190 232 283 344
#     4  10  21  34  52  82 119 153 185 227 282 344
#     4  11  22  35  58  84 110 150 190 236 282 344
#     4  11  23  40  63  90 116 153 200 250 306 357
#
# _framework density 17.256796999999999
#
# number of rings (size 3 to 8) (size 9 to 14) (size 15 to 20)
#    0.000    1.333    4.444    1.333    3.111    2.667 
#    0.000    1.111    0.000    0.667    0.000    4.667 
#    0.000    0.000    0.000    0.000    0.000    0.000 
#
# Total GULP energy -200405.367003 kJ/mol
# GULP energy per Si atom -5566.815750 kJ/mol
# Density = 1.721752 g / cm^3
# Si number density = 17.256797 Si / 1000 Ang^3
#
#
#
# Elastic Constant Matrix: (Units=GPa)
#
#
# Indices 1 2 3 4 5 6 
#
# 1 106.9238 33.3548 44.0558 0.0000 0.0000 0.0000
# 2 33.3548 105.0409 59.5055 0.0000 0.0000 0.0000
# 3 44.0558 59.5055 107.4492 0.0000 0.0000 0.0000
# 4 0.0000 0.0000 0.0000 38.9107 0.0000 0.0000
# 5 0.0000 0.0000 0.0000 0.0000 1.8049 0.0000
# 6 0.0000 0.0000 0.0000 0.0000 0.0000 21.8090
#
#
#
# Elastic Compliance Matrix: (Units=1/GPa)
#
#
# Indices 1 2 3 4 5 6 
#
# 1 0.011396 -0.001416 -0.003889 0.000000 0.000000 0.000000
# 2 -0.001416 0.014048 -0.007199 0.000000 0.000000 0.000000
# 3 -0.003889 -0.007199 0.014888 0.000000 0.000000 0.000000
# 4 0.000000 0.000000 0.000000 0.025700 0.000000 0.000000
# 5 0.000000 0.000000 0.000000 0.000000 0.554058 0.000000
# 6 0.000000 0.000000 0.000000 0.000000 0.000000 0.045853
#
#
# Mechanical properties :
#
#
# Convention : Reuss Voigt Hill
#
# Bulk Modulus (GPa) = 65.25300 65.91622 65.58461
# Shear Modulus (GPa) = 7.18330 24.67144 15.92737
#
# Velocity S-wave (km/s) = 2.04246 3.78519 3.04132
# Velocity P-wave (km/s) = 6.59221 7.57521 7.10074
#
# Compressibility (1/GPa) = 0.01532497
#
# Stress axis : x y z
#
# Youngs Moduli (GPa) = 87.74736 71.18384 67.16787
#
# Poissons Ratio (x) = 0.10079 0.26118
# Poissons Ratio (y) = 0.12425 0.48356
# Poissons Ratio (z) = 0.34121 0.51247
#
# Static dielectric constant tensor:
#      x y z
#    x 1.568930 0.000000 0.000000 
#    y 0.000000 1.653270 0.000000 
#    z 0.000000 0.000000 1.582010 
# 
# From -- ./inp_files/56470.got.cif
#   From: 2010.05.17/outbox.cif.g08.bks.cpg/sg65_29_cif.got.tgz:56470.got - 2010.06.03 17:01:31.
