data_PCOD9491163
_publ_section_title
;
Structure prediction by ZEFSAII (Michael W. Deem and Ramdas Pophale) SiO2 
 PCOD9491163
Probable space group: C M M M
;
_chemical_formula_sum "Si O2"
_cell_formula_units_Z 96
_cell_length_a 17.622465
_cell_length_b 31.072600
_cell_length_c 7.378651
_cell_angle_alpha 90.000000
_cell_angle_beta 90.000000
_cell_angle_gamma 90.000000
_cell_volume 4040.370768
_symmetry_space_group_name_H-M "C M M M"
_symmetry_group_IT_number 65
_symmetry_cell_setting 'orthorhombic'
loop_
_space_group_symop_operation_xyz
x,y,z
-x,-y,z
x,-y,-z
-x,y,-z
-x,-y,-z
x,y,-z
-x,y,z
x,-y,z
1/2+x,1/2+y,z
1/2-x,1/2-y,z
1/2+x,1/2-y,-z
1/2-x,1/2+y,-z
1/2-x,1/2-y,-z
1/2+x,1/2+y,-z
1/2-x,1/2+y,z
1/2+x,1/2-y,z
loop_
_atom_site_type_symbol
_atom_site_label
_atom_site_fract_x
_atom_site_fract_y
_atom_site_fract_z
Si Si1 0.910548 0.214249 0.787641
Si Si2 0.584383 0.142360 0.278007
Si Si3 0.087825 0.879004 0.221439
Si Si4 0.620704 0.047603 0.290605
Si Si5 0.307627 0.785656 0.701447
Si Si6 0.201997 0.952256 0.219008
O O1 0.880737 0.167898 0.724802
O O2 0.881468 0.255729 0.688615
O O3 0.000000 0.210425 0.771299
O O4 0.892632 0.219489 0.000000
O O5 0.588290 0.143019 0.500000
O O6 0.500000 0.158755 0.226984
O O7 0.590340 0.092710 0.216302
O O8 0.656848 0.170923 0.215848
O O9 0.144079 0.916099 0.282045
O O10 0.000000 0.884771 0.278649
O O11 0.086238 0.878737 0.000000
O O12 0.596053 0.046322 0.500000
O O13 0.712021 0.052059 0.285252
O O14 0.602415 0.000000 0.212523
O O15 0.277373 0.795495 0.500000
O O16 0.250000 0.750000 0.785414
O O17 0.174883 0.000000 0.268751
O O18 0.205453 0.949963 0.000000
#
# Coordination Sequence:
#
# PCOD9491163 Si02
#       6
#    16  16  16  16  16  16
#     4   9  18  33  51  70  96 130 166 204 244 287
#     4   9  18  33  52  73  99 129 161 202 246 286
#     4   8  15  28  46  69  96 127 164 204 243 283
#     4   9  18  32  51  74  97 124 159 200 247 295
#     4  10  21  34  50  75 102 131 165 201 243 293
#     4   9  17  29  47  71  98 128 161 199 244 293
#
# _framework density 23.760196000000001
#
# number of rings (size 3 to 8) (size 9 to 14) (size 15 to 20)
#    0.000    3.000    0.000    1.500    2.333    2.000 
#    0.000    4.167    0.000    3.000    0.000    4.667 
#    0.000    0.000    0.000    0.000    0.000    0.000 
#
# Total GULP energy -267726.230138 kJ/mol
# GULP energy per Si atom -5577.629795 kJ/mol
# Density = 2.370612 g / cm^3
# Si number density = 23.760196 Si / 1000 Ang^3
#
#
#
# Elastic Constant Matrix: (Units=GPa)
#
#
# Indices 1 2 3 4 5 6 
#
# 1 60.2060 44.8524 6.2536 0.0000 0.0000 0.0000
# 2 44.8524 141.5057 8.4455 0.0000 0.0000 0.0000
# 3 6.2536 8.4455 76.0418 0.0000 0.0000 0.0000
# 4 0.0000 0.0000 0.0000 -36.7786 0.0000 0.0000
# 5 0.0000 0.0000 0.0000 0.0000 9.1905 0.0000
# 6 0.0000 0.0000 0.0000 0.0000 0.0000 47.2602
#
#
#
# Elastic Compliance Matrix: (Units=1/GPa)
#
#
# Indices 1 2 3 4 5 6 
#
# 1 0.021825 -0.006856 -0.001033 0.000000 0.000000 0.000000
# 2 -0.006856 0.009268 -0.000465 0.000000 0.000000 0.000000
# 3 -0.001033 -0.000465 0.013287 0.000000 0.000000 0.000000
# 4 0.000000 0.000000 0.000000 -0.027190 0.000000 0.000000
# 5 0.000000 0.000000 0.000000 0.000000 0.108809 0.000000
# 6 0.000000 0.000000 0.000000 0.000000 0.000000 0.021159
#
#
# Mechanical properties :
#
#
# Convention : Reuss Voigt Hill
#
# Bulk Modulus (GPa) = 36.14024 44.09517 40.11770
# Shear Modulus (GPa) = 28.88658 18.48120 23.68389
#
# Velocity S-wave (km/s) = 3.49055 2.79197 3.16062
# Velocity P-wave (km/s) = 5.61148 5.38444 5.49913
#
# Compressibility (1/GPa) = 0.02766999
#
# Stress axis : x y z
#
# Youngs Moduli (GPa) = 45.82005 107.90130 75.25962
#
# Poissons Ratio (x) = 0.73976 0.07777
# Poissons Ratio (y) = 0.31414 0.03503
# Poissons Ratio (z) = 0.04735 0.05023
#
# Static dielectric constant tensor:
#      x y z
#    x 1.904160 0.000000 0.000000 
#    y 0.000000 1.918630 0.000000 
#    z 0.000000 0.000000 1.951130 
# 
# From -- ./inp_files/16325.got.cif
#   From: 2010.05.17/outbox.cif.g08.bks.cpg/sg65_9_cif.got.tgz:16325.got - 2010.06.03 17:01:31.
