data_PCOD9491374
_publ_section_title
;
Structure prediction by ZEFSAII (Michael W. Deem and Ramdas Pophale) SiO2 
 PCOD9491374
Probable space group: C M M M
;
_chemical_formula_sum "Si O2"
_cell_formula_units_Z 104
_cell_length_a 8.146493
_cell_length_b 29.250351
_cell_length_c 25.501604
_cell_angle_alpha 90.000000
_cell_angle_beta 90.000000
_cell_angle_gamma 90.000000
_cell_volume 6076.720595
_symmetry_space_group_name_H-M "C M M M"
_symmetry_group_IT_number 65
_symmetry_cell_setting 'orthorhombic'
loop_
_space_group_symop_operation_xyz
x,y,z
-x,-y,z
x,-y,-z
-x,y,-z
-x,-y,-z
x,y,-z
-x,y,z
x,-y,z
1/2+x,1/2+y,z
1/2-x,1/2-y,z
1/2+x,1/2-y,-z
1/2-x,1/2+y,-z
1/2-x,1/2-y,-z
1/2+x,1/2+y,-z
1/2-x,1/2+y,z
1/2+x,1/2-y,z
loop_
_atom_site_type_symbol
_atom_site_label
_atom_site_fract_x
_atom_site_fract_y
_atom_site_fract_z
Si Si1 0.500000 0.444633 0.440190
Si Si2 0.693458 0.889820 0.261132
Si Si3 0.309236 0.298757 0.215644
Si Si4 0.690341 0.800940 0.902121
Si Si5 0.807196 0.554834 0.632862
Si Si6 0.194171 0.895233 0.057282
Si Si7 0.199205 0.947033 0.160268
O O1 0.500000 0.500000 0.441950
O O2 0.500000 0.427732 0.500000
O O3 0.667857 0.432269 0.409495
O O4 0.500000 0.880798 0.260708
O O5 0.781381 0.841266 0.253727
O O6 0.730830 0.917714 0.313894
O O7 0.738314 0.920382 0.210941
O O8 0.500000 0.295243 0.201712
O O9 0.250000 0.250000 0.237149
O O10 0.216136 0.306882 0.160585
O O11 0.500000 0.805199 0.914741
O O12 0.750000 0.750000 0.915267
O O13 0.783721 0.841670 0.930803
O O14 0.794199 0.500000 0.642129
O O15 0.000000 0.563456 0.618347
O O16 0.260695 0.923078 0.106989
O O17 0.000000 0.905109 0.055548
O O18 0.264405 0.906419 0.000000
O O19 0.000000 0.944332 0.160997
O O20 0.246453 0.000000 0.161893
#
# Coordination Sequence:
#
# PCOD9491374 Si02
#       7
#     8  16  16  16  16  16  16
#     4   9  18  32  52  78 112 154 195 233 273 313
#     4  11  21  34  53  78 108 143 175 217 266 315
#     4  11  21  34  53  77 105 137 169 207 260 322
#     4  11  21  35  55  76  99 127 161 204 256 318
#     4   9  19  33  50  77 113 152 192 231 270 315
#     4  10  21  37  54  72  97 128 166 212 262 318
#     4  10  21  35  53  76  99 131 173 214 263 320
#
# _framework density 17.114495000000002
#
# number of rings (size 3 to 8) (size 9 to 14) (size 15 to 20)
#    0.000    1.769    1.538    4.615    2.154    2.154 
#    0.000    3.077    0.000    0.000    0.000    2.154 
#    0.000    0.615    0.308    0.000    0.000    0.000 
#
# Total GULP energy -290236.662527 kJ/mol
# GULP energy per Si atom -5581.474279 kJ/mol
# Density = 1.707554 g / cm^3
# Si number density = 17.114495 Si / 1000 Ang^3
#
#
#
# Elastic Constant Matrix: (Units=GPa)
#
#
# Indices 1 2 3 4 5 6 
#
# 1 41.5825 9.0710 38.0201 0.0000 0.0000 0.0000
# 2 9.0710 65.2761 41.5689 0.0000 0.0000 0.0000
# 3 38.0201 41.5689 114.8823 0.0000 0.0000 0.0000
# 4 0.0000 0.0000 0.0000 14.6091 0.0000 0.0000
# 5 0.0000 0.0000 0.0000 0.0000 20.0409 0.0000
# 6 0.0000 0.0000 0.0000 0.0000 0.0000 18.4285
#
#
#
# Elastic Compliance Matrix: (Units=1/GPa)
#
#
# Indices 1 2 3 4 5 6 
#
# 1 0.035011 0.003266 -0.012768 0.000000 0.000000 0.000000
# 2 0.003266 0.020211 -0.008394 0.000000 0.000000 0.000000
# 3 -0.012768 -0.008394 0.015968 0.000000 0.000000 0.000000
# 4 0.000000 0.000000 0.000000 0.068450 0.000000 0.000000
# 5 0.000000 0.000000 0.000000 0.000000 0.049898 0.000000
# 6 0.000000 0.000000 0.000000 0.000000 0.000000 0.054264
#
#
# Mechanical properties :
#
#
# Convention : Reuss Voigt Hill
#
# Bulk Modulus (GPa) = 28.25154 44.34009 36.29582
# Shear Modulus (GPa) = 17.15892 19.48775 18.32334
#
# Velocity S-wave (km/s) = 3.16981 3.37808 3.27560
# Velocity P-wave (km/s) = 5.47176 6.41712 5.96320
#
# Compressibility (1/GPa) = 0.03539630
#
# Stress axis : x y z
#
# Youngs Moduli (GPa) = 28.56271 49.47759 62.62704
#
# Poissons Ratio (x) = -0.16159 0.79965
# Poissons Ratio (y) = -0.09328 0.52569
# Poissons Ratio (z) = 0.36470 0.41532
#
# Static dielectric constant tensor:
#      x y z
#    x 1.607530 0.000000 0.000000 
#    y 0.000000 1.576260 0.000000 
#    z 0.000000 0.000000 1.567890 
# 
# From -- ./inp_files/68518.got.cif
#   From: 2010.05.17/outbox.cif.g08.bks.cpg/sg65_35_cif.got.tgz:68518.got - 2010.06.03 17:01:31.
