data_PCOD9491759
_publ_section_title
;
Structure prediction by ZEFSAII (Michael W. Deem and Ramdas Pophale) SiO2 
 PCOD9491759
Probable space group: C M M M
;
_chemical_formula_sum "Si O2"
_cell_formula_units_Z 88
_cell_length_a 9.078270
_cell_length_b 26.710492
_cell_length_c 19.255072
_cell_angle_alpha 90.000000
_cell_angle_beta 90.000000
_cell_angle_gamma 90.000000
_cell_volume 4669.067255
_symmetry_space_group_name_H-M "C M M M"
_symmetry_group_IT_number 65
_symmetry_cell_setting 'orthorhombic'
loop_
_space_group_symop_operation_xyz
x,y,z
-x,-y,z
x,-y,-z
-x,y,-z
-x,-y,-z
x,y,-z
-x,y,z
x,-y,z
1/2+x,1/2+y,z
1/2-x,1/2-y,z
1/2+x,1/2-y,-z
1/2-x,1/2+y,-z
1/2-x,1/2-y,-z
1/2+x,1/2+y,-z
1/2-x,1/2+y,z
1/2+x,1/2-y,z
loop_
_atom_site_type_symbol
_atom_site_label
_atom_site_fract_x
_atom_site_fract_y
_atom_site_fract_z
Si Si1 0.333283 0.299046 0.415954
Si Si2 0.827180 0.500000 0.916543
Si Si3 0.329744 0.443433 0.292387
Si Si4 0.173752 0.302640 0.083708
Si Si5 0.322332 0.598987 0.852489
Si Si6 0.175457 0.403435 0.578824
O O1 0.341407 0.294370 0.500000
O O2 0.500000 0.302657 0.389620
O O3 0.250000 0.250000 0.389428
O O4 0.242490 0.349191 0.403489
O O5 0.748161 0.449707 0.889268
O O6 0.000000 0.500000 0.895386
O O7 0.821426 0.500000 0.000000
O O8 0.500000 0.434151 0.311606
O O9 0.320025 0.500000 0.264445
O O10 0.288824 0.406954 0.229608
O O11 0.233780 0.438753 0.361005
O O12 0.250000 0.250000 0.103494
O O13 0.253932 0.350252 0.117438
O O14 0.000000 0.302134 0.101061
O O15 0.186202 0.307298 0.000000
O O16 0.500000 0.598116 0.860693
O O17 0.222927 0.416852 0.500000
O O18 0.000000 0.401160 0.579148
#
# Coordination Sequence:
#
# PCOD9491759 Si02
#       6
#    16   8  16  16  16  16
#     4   9  16  28  49  76 106 139 173 216 274 334
#     4  11  23  37  57  89 124 157 196 241 287 342
#     4  10  22  41  60  80 110 149 193 240 295 356
#     4  10  21  38  61  91 126 164 205 247 294 350
#     4  11  22  39  61  87 120 158 200 247 297 352
#     4  10  21  36  55  82 112 143 187 240 292 352
#
# _framework density 18.847448
#
# number of rings (size 3 to 8) (size 9 to 14) (size 15 to 20)
#    0.000    1.909    0.909    3.000    0.000    9.455 
#    0.000    2.727    0.000    4.364    0.000    0.000 
#    0.000    0.000    0.000    0.000    0.000    0.000 
#
# Total GULP energy -245608.966477 kJ/mol
# GULP energy per Si atom -5582.021965 kJ/mol
# Density = 1.880455 g / cm^3
# Si number density = 18.847448 Si / 1000 Ang^3
#
#
#
# Elastic Constant Matrix: (Units=GPa)
#
#
# Indices 1 2 3 4 5 6 
#
# 1 107.6227 63.3174 57.7265 0.0000 0.0000 0.0000
# 2 63.3174 128.2822 50.3137 0.0000 0.0000 0.0000
# 3 57.7265 50.3137 69.2016 0.0000 0.0000 0.0000
# 4 0.0000 0.0000 0.0000 24.3012 0.0000 0.0000
# 5 0.0000 0.0000 0.0000 0.0000 23.3341 0.0000
# 6 0.0000 0.0000 0.0000 0.0000 0.0000 36.3581
#
#
#
# Elastic Compliance Matrix: (Units=1/GPa)
#
#
# Indices 1 2 3 4 5 6 
#
# 1 0.018349 -0.004271 -0.012201 0.000000 0.000000 0.000000
# 2 -0.004271 0.011899 -0.005088 0.000000 0.000000 0.000000
# 3 -0.012201 -0.005088 0.028328 0.000000 0.000000 0.000000
# 4 0.000000 0.000000 0.000000 0.041150 0.000000 0.000000
# 5 0.000000 0.000000 0.000000 0.000000 0.042856 0.000000
# 6 0.000000 0.000000 0.000000 0.000000 0.000000 0.027504
#
#
# Mechanical properties :
#
#
# Convention : Reuss Voigt Hill
#
# Bulk Modulus (GPa) = 64.70444 71.98017 68.34230
# Shear Modulus (GPa) = 22.89811 25.71527 24.30669
#
# Velocity S-wave (km/s) = 3.48935 3.69777 3.59507
# Velocity P-wave (km/s) = 7.11612 7.51699 7.31930
#
# Compressibility (1/GPa) = 0.01545489
#
# Stress axis : x y z
#
# Youngs Moduli (GPa) = 54.49923 84.03847 35.30115
#
# Poissons Ratio (x) = 0.35896 0.43070
# Poissons Ratio (y) = 0.23279 0.17963
# Poissons Ratio (z) = 0.66493 0.42762
#
# Static dielectric constant tensor:
#      x y z
#    x 1.641210 0.000000 0.000000 
#    y 0.000000 1.650340 0.000000 
#    z 0.000000 0.000000 1.650460 
# 
# From -- ./inp_files/59816.got.cif
#   From: 2010.05.17/outbox.cif.g08.bks.cpg/sg65_30_cif.got.tgz:59816.got - 2010.06.03 17:01:31.
