data_PCOD9491080
_publ_section_title
;
Structure prediction by ZEFSAII (Michael W. Deem and Ramdas Pophale) SiO2 
 PCOD9491080
Probable space group: C M M M
;
_chemical_formula_sum "Si O2"
_cell_formula_units_Z 120
_cell_length_a 33.157100
_cell_length_b 14.530221
_cell_length_c 14.439058
_cell_angle_alpha 90.000000
_cell_angle_beta 90.000000
_cell_angle_gamma 90.000000
_cell_volume 6956.449229
_symmetry_space_group_name_H-M "C M M M"
_symmetry_group_IT_number 65
_symmetry_cell_setting 'orthorhombic'
loop_
_space_group_symop_operation_xyz
x,y,z
-x,-y,z
x,-y,-z
-x,y,-z
-x,-y,-z
x,y,-z
-x,y,z
x,-y,z
1/2+x,1/2+y,z
1/2-x,1/2-y,z
1/2+x,1/2-y,-z
1/2-x,1/2+y,-z
1/2-x,1/2-y,-z
1/2+x,1/2+y,-z
1/2-x,1/2+y,z
1/2+x,1/2-y,z
loop_
_atom_site_type_symbol
_atom_site_label
_atom_site_fract_x
_atom_site_fract_y
_atom_site_fract_z
Si Si1 0.547950 0.821780 0.230487
Si Si2 0.664381 0.102528 0.889493
Si Si3 0.745496 0.889732 0.776479
Si Si4 0.895897 0.610348 0.609797
Si Si5 0.196414 0.612263 0.394718
Si Si6 0.680619 0.610595 0.894736
Si Si7 0.894646 0.228788 0.109357
Si Si8 0.048228 0.500000 0.104008
O O1 0.500000 0.815880 0.244522
O O2 0.572143 0.839661 0.324959
O O3 0.566768 0.736285 0.174593
O O4 0.556591 0.909247 0.163136
O O5 0.707854 0.120680 0.845615
O O6 0.633182 0.182483 0.867614
O O7 0.651157 0.000000 0.857826
O O8 0.668474 0.100672 0.000000
O O9 0.729443 0.854681 0.678205
O O10 0.786153 0.852781 0.822791
O O11 0.751622 0.000000 0.765800
O O12 0.901615 0.627879 0.500000
O O13 0.899867 0.500000 0.623177
O O14 0.849536 0.636601 0.633128
O O15 0.296503 0.857682 0.500000
O O16 0.196944 0.500000 0.394540
O O17 0.682367 0.500000 0.894995
O O18 0.635610 0.644428 0.874410
O O19 0.690207 0.642576 0.000000
O O20 0.905162 0.232409 0.000000
O O21 0.000000 0.500000 0.092664
O O22 0.066707 0.500000 0.000000
#
# Coordination Sequence:
#
# PCOD9491080 Si02
#       8
#    16  16  16  16  16  16  16   8
#     4  11  21  32  47  68  94 126 162 198 241 292
#     4   9  17  27  40  63  94 124 153 183 219 270
#     4   9  15  25  44  66  91 122 154 195 238 277
#     4   9  17  30  47  68  97 133 172 208 236 269
#     4   8  14  24  40  64  92 123 158 194 232 278
#     4   9  18  33  51  70  92 120 159 206 254 296
#     4  10  21  33  47  68  94 128 163 198 241 291
#     4   9  18  30  43  63  93 127 156 184 223 277
#
# _framework density 17.25018
#
# number of rings (size 3 to 8) (size 9 to 14) (size 15 to 20)
#    0.000    2.733    0.667    2.400    0.933    4.267 
#    0.000    2.667    0.000    1.200    0.000    4.667 
#    0.000    0.000    0.000    1.200    0.000    0.000 
#
# Total GULP energy -334648.556036 kJ/mol
# GULP energy per Si atom -5577.475934 kJ/mol
# Density = 1.721092 g / cm^3
# Si number density = 17.250180 Si / 1000 Ang^3
#
#
#
# Elastic Constant Matrix: (Units=GPa)
#
#
# Indices 1 2 3 4 5 6 
#
# 1 94.5061 17.7376 67.2799 0.0000 0.0000 0.0000
# 2 17.7376 15.6342 15.5371 0.0000 0.0000 0.0000
# 3 67.2799 15.5371 94.8447 0.0000 0.0000 0.0000
# 4 0.0000 0.0000 0.0000 9.8995 0.0000 0.0000
# 5 0.0000 0.0000 0.0000 0.0000 25.2469 0.0000
# 6 0.0000 0.0000 0.0000 0.0000 0.0000 19.0676
#
#
#
# Elastic Compliance Matrix: (Units=1/GPa)
#
#
# Indices 1 2 3 4 5 6 
#
# 1 0.023077 -0.011841 -0.014430 0.000000 0.000000 0.000000
# 2 -0.011841 0.082476 -0.005111 0.000000 0.000000 0.000000
# 3 -0.014430 -0.005111 0.021617 0.000000 0.000000 0.000000
# 4 0.000000 0.000000 0.000000 0.101015 0.000000 0.000000
# 5 0.000000 0.000000 0.000000 0.000000 0.039609 0.000000
# 6 0.000000 0.000000 0.000000 0.000000 0.000000 0.052445
#
#
# Mechanical properties :
#
#
# Convention : Reuss Voigt Hill
#
# Bulk Modulus (GPa) = 15.52671 45.12159 30.32415
# Shear Modulus (GPa) = 12.36180 17.80483 15.08331
#
# Velocity S-wave (km/s) = 2.67988 3.21620 2.96021
# Velocity P-wave (km/s) = 4.31232 6.32502 5.41304
#
# Compressibility (1/GPa) = 0.06440513
#
# Stress axis : x y z
#
# Youngs Moduli (GPa) = 43.33364 12.12473 46.25943
#
# Poissons Ratio (x) = 0.14357 0.66753
# Poissons Ratio (y) = 0.51311 0.23645
# Poissons Ratio (z) = 0.62531 0.06197
#
# Static dielectric constant tensor:
#      x y z
#    x 1.591240 0.000000 0.000000 
#    y 0.000000 1.601770 0.000000 
#    z 0.000000 0.000000 1.608100 
# 
# From -- ./inp_files/48079.got.cif
#   From: 2010.05.17/outbox.cif.g08.bks.cpg/sg65_25_cif.got.tgz:48079.got - 2010.06.03 17:01:31.
