data_PCOD9491057
_publ_section_title
;
Structure prediction by ZEFSAII (Michael W. Deem and Ramdas Pophale) SiO2 
 PCOD9491057
Probable space group: C M M M
;
_chemical_formula_sum "Si O2"
_cell_formula_units_Z 84
_cell_length_a 15.555204
_cell_length_b 23.940910
_cell_length_c 11.693660
_cell_angle_alpha 90.000000
_cell_angle_beta 90.000000
_cell_angle_gamma 90.000000
_cell_volume 4354.786094
_symmetry_space_group_name_H-M "C M M M"
_symmetry_group_IT_number 65
_symmetry_cell_setting 'orthorhombic'
loop_
_space_group_symop_operation_xyz
x,y,z
-x,-y,z
x,-y,-z
-x,y,-z
-x,-y,-z
x,y,-z
-x,y,z
x,-y,z
1/2+x,1/2+y,z
1/2-x,1/2-y,z
1/2+x,1/2-y,-z
1/2-x,1/2+y,-z
1/2-x,1/2-y,-z
1/2+x,1/2+y,-z
1/2-x,1/2+y,z
1/2+x,1/2-y,z
loop_
_atom_site_type_symbol
_atom_site_label
_atom_site_fract_x
_atom_site_fract_y
_atom_site_fract_z
Si Si1 0.396132 0.712415 0.630207
Si Si2 0.313389 0.938468 0.763398
Si Si3 0.232962 0.685158 0.000000
Si Si4 0.653526 0.622272 0.816632
Si Si5 0.899947 0.335750 0.362126
Si Si6 0.898105 0.403407 0.000000
Si Si7 0.500000 0.604434 0.000000
O O1 0.364599 0.704176 0.500000
O O2 0.500000 0.716564 0.625562
O O3 0.373439 0.661456 0.711658
O O4 0.367136 0.773941 0.673246
O O5 0.211246 0.929835 0.778018
O O6 0.347906 0.887303 0.687874
O O7 0.333297 0.000000 0.717362
O O8 0.358400 0.931672 0.887261
O O9 0.250000 0.750000 0.000000
O O10 0.280379 0.658980 0.891293
O O11 0.136582 0.660785 0.000000
O O12 0.575244 0.606745 0.899318
O O13 0.897797 0.336034 0.500000
O O14 0.000000 0.341425 0.326091
O O15 0.000000 0.406417 0.000000
#
# Coordination Sequence:
#
# PCOD9491057 Si02
#       7
#    16  16   8  16  16   8   4
#     4   9  18  35  61  89 118 150 186 237 292 350
#     4  11  24  40  57  82 119 157 196 247 295 341
#     4   9  21  36  51  82 124 154 181 234 299 348
#     4  10  21  37  59  84 118 150 194 242 298 360
#     4   9  20  38  60  89 120 155 196 233 286 355
#     4  10  22  39  58  82 110 153 203 236 282 347
#     4  10  20  42  59  88 110 150 199 250 300 360
#
# _framework density 19.289121999999999
#
# number of rings (size 3 to 8) (size 9 to 14) (size 15 to 20)
#    0.000    2.286    0.952    2.571    5.333    3.048 
#    3.429    3.810    0.000    0.000    0.000    1.333 
#    0.000    0.000    0.000    0.000    0.000    0.000 
#
# Total GULP energy -233839.722106 kJ/mol
# GULP energy per Si atom -5567.612431 kJ/mol
# Density = 1.924522 g / cm^3
# Si number density = 19.289122 Si / 1000 Ang^3
#
#
#
# Elastic Constant Matrix: (Units=GPa)
#
#
# Indices 1 2 3 4 5 6 
#
# 1 102.1485 29.2854 19.9186 0.0000 0.0000 0.0000
# 2 29.2854 70.4779 17.9780 0.0000 0.0000 0.0000
# 3 19.9186 17.9780 53.8522 0.0000 0.0000 0.0000
# 4 0.0000 0.0000 0.0000 -40.6780 0.0000 0.0000
# 5 0.0000 0.0000 0.0000 0.0000 32.7552 0.0000
# 6 0.0000 0.0000 0.0000 0.0000 0.0000 14.7563
#
#
#
# Elastic Compliance Matrix: (Units=1/GPa)
#
#
# Indices 1 2 3 4 5 6 
#
# 1 0.011516 -0.004043 -0.002910 0.000000 0.000000 0.000000
# 2 -0.004043 0.016929 -0.004156 0.000000 0.000000 0.000000
# 3 -0.002910 -0.004156 0.021033 0.000000 0.000000 0.000000
# 4 0.000000 0.000000 0.000000 -0.024583 0.000000 0.000000
# 5 0.000000 0.000000 0.000000 0.000000 0.030530 0.000000
# 6 0.000000 0.000000 0.000000 0.000000 0.000000 0.067768
#
#
# Mechanical properties :
#
#
# Convention : Reuss Voigt Hill
#
# Bulk Modulus (GPa) = 36.68340 40.09361 38.38850
# Shear Modulus (GPa) = 32.36306 11.98646 22.17476
#
# Velocity S-wave (km/s) = 4.10052 2.49551 3.39425
# Velocity P-wave (km/s) = 6.44034 5.39761 5.94189
#
# Compressibility (1/GPa) = 0.02726029
#
# Stress axis : x y z
#
# Youngs Moduli (GPa) = 86.83432 59.07024 47.54411
#
# Poissons Ratio (x) = 0.23882 0.13835
# Poissons Ratio (y) = 0.35107 0.19760
# Poissons Ratio (z) = 0.25267 0.24550
#
# Static dielectric constant tensor:
#      x y z
#    x 1.697890 0.000000 0.000000 
#    y 0.000000 1.685710 0.000000 
#    z 0.000000 0.000000 1.677980 
# 
# From -- ./inp_files/24882.got.cif
#   From: 2010.05.17/outbox.cif.g08.bks.cpg/sg65_13_cif.got.tgz:24882.got - 2010.06.03 17:01:31.
