data_PCOD9491541
_publ_section_title
;
Structure prediction by ZEFSAII (Michael W. Deem and Ramdas Pophale) SiO2 
 PCOD9491541
Probable space group: C M M M
;
_chemical_formula_sum "Si O2"
_cell_formula_units_Z 96
_cell_length_a 9.103853
_cell_length_b 19.141813
_cell_length_c 31.662510
_cell_angle_alpha 90.000000
_cell_angle_beta 90.000000
_cell_angle_gamma 90.000000
_cell_volume 5517.643612
_symmetry_space_group_name_H-M "C M M M"
_symmetry_group_IT_number 65
_symmetry_cell_setting 'orthorhombic'
loop_
_space_group_symop_operation_xyz
x,y,z
-x,-y,z
x,-y,-z
-x,y,-z
-x,-y,-z
x,y,-z
-x,y,z
x,-y,z
1/2+x,1/2+y,z
1/2-x,1/2-y,z
1/2+x,1/2-y,-z
1/2-x,1/2+y,-z
1/2-x,1/2-y,-z
1/2+x,1/2+y,-z
1/2-x,1/2+y,z
1/2+x,1/2-y,z
loop_
_atom_site_type_symbol
_atom_site_label
_atom_site_fract_x
_atom_site_fract_y
_atom_site_fract_z
Si Si1 0.676618 0.417219 0.119727
Si Si2 0.823472 0.674259 0.620232
Si Si3 0.176314 0.580883 0.700657
Si Si4 0.325068 0.581719 0.549635
Si Si5 0.169741 0.915116 0.786446
Si Si6 0.324940 0.174457 0.048199
O O1 0.500000 0.408034 0.116806
O O2 0.706029 0.500000 0.116338
O O3 0.721841 0.392862 0.166977
O O4 0.757411 0.376291 0.082957
O O5 0.750000 0.750000 0.621351
O O6 0.780140 0.629576 0.661712
O O7 0.766338 0.631611 0.579786
O O8 0.000000 0.680192 0.619256
O O9 0.224109 0.500000 0.693785
O O10 0.239673 0.606117 0.745434
O O11 0.000000 0.580668 0.702964
O O12 0.295828 0.594256 0.500000
O O13 0.500000 0.591924 0.556402
O O14 0.292398 0.500000 0.558366
O O15 0.000000 0.894097 0.781445
O O16 0.172826 0.000000 0.787538
O O17 0.500000 0.180706 0.053357
O O18 0.250000 0.250000 0.052681
O O19 0.296005 0.150019 0.000000
#
# Coordination Sequence:
#
# PCOD9491541 Si02
#       6
#    16  16  16  16  16  16
#     4   9  18  33  53  78 107 136 168 208 254 305
#     4  11  23  37  53  76 108 143 178 216 259 307
#     4   9  18  33  53  76 101 131 170 214 257 303
#     4   9  19  37  60  84 108 135 171 214 258 308
#     4   8  15  29  50  76 103 131 165 205 250 302
#     4  10  21  36  53  73  99 133 173 214 256 306
#
# _framework density 17.398731000000002
#
# number of rings (size 3 to 8) (size 9 to 14) (size 15 to 20)
#    0.000    2.667    0.000    3.000    0.000    5.333 
#    0.000    6.667    0.000    2.000    0.000    0.000 
#    0.000    0.000    0.000    0.000    0.000    0.000 
#
# Total GULP energy -267664.917588 kJ/mol
# GULP energy per Si atom -5576.352450 kJ/mol
# Density = 1.735913 g / cm^3
# Si number density = 17.398731 Si / 1000 Ang^3
#
#
#
# Elastic Constant Matrix: (Units=GPa)
#
#
# Indices 1 2 3 4 5 6 
#
# 1 47.4933 52.6360 69.8917 0.0000 0.0000 0.0000
# 2 52.6360 82.7282 91.7567 0.0000 0.0000 0.0000
# 3 69.8917 91.7567 157.5473 0.0000 0.0000 0.0000
# 4 0.0000 0.0000 0.0000 -16.7579 0.0000 0.0000
# 5 0.0000 0.0000 0.0000 0.0000 35.9621 0.0000
# 6 0.0000 0.0000 0.0000 0.0000 0.0000 22.8910
#
#
#
# Elastic Compliance Matrix: (Units=1/GPa)
#
#
# Indices 1 2 3 4 5 6 
#
# 1 0.086001 -0.035032 -0.017749 0.000000 0.000000 0.000000
# 2 -0.035032 0.048414 -0.012655 0.000000 0.000000 0.000000
# 3 -0.017749 -0.012655 0.021592 0.000000 0.000000 0.000000
# 4 0.000000 0.000000 0.000000 -0.059674 0.000000 0.000000
# 5 0.000000 0.000000 0.000000 0.000000 0.027807 0.000000
# 6 0.000000 0.000000 0.000000 0.000000 0.000000 0.043685
#
#
# Mechanical properties :
#
#
# Convention : Reuss Voigt Hill
#
# Bulk Modulus (GPa) = 39.78820 79.59306 59.69063
# Shear Modulus (GPa) = 16.28265 13.31802 14.80034
#
# Velocity S-wave (km/s) = 3.06249 2.76969 2.91976
# Velocity P-wave (km/s) = 5.95174 7.48826 6.76377
#
# Compressibility (1/GPa) = 0.02513308
#
# Stress axis : x y z
#
# Youngs Moduli (GPa) = 11.62780 20.65537 46.31419
#
# Poissons Ratio (x) = 0.72360 0.82203
# Poissons Ratio (y) = 0.40735 0.58612
# Poissons Ratio (z) = 0.20638 0.26140
#
# Static dielectric constant tensor:
#      x y z
#    x 1.577950 0.000000 0.000000 
#    y 0.000000 1.569330 0.000000 
#    z 0.000000 0.000000 1.589960 
# 
# From -- ./inp_files/73141.got.cif
#   From: 2010.05.17/outbox.cif.g08.bks.cpg/sg65_37_cif.got.tgz:73141.got - 2010.06.03 17:01:31.
