data_PCOD9491338
_publ_section_title
;
Structure prediction by ZEFSAII (Michael W. Deem and Ramdas Pophale) SiO2 
 PCOD9491338
Probable space group: C M M M
;
_chemical_formula_sum "Si O2"
_cell_formula_units_Z 88
_cell_length_a 18.913540
_cell_length_b 8.039027
_cell_length_c 30.872865
_cell_angle_alpha 90.000000
_cell_angle_beta 90.000000
_cell_angle_gamma 90.000000
_cell_volume 4694.109794
_symmetry_space_group_name_H-M "C M M M"
_symmetry_group_IT_number 65
_symmetry_cell_setting 'orthorhombic'
loop_
_space_group_symop_operation_xyz
x,y,z
-x,-y,z
x,-y,-z
-x,y,-z
-x,-y,-z
x,y,-z
-x,y,z
x,-y,z
1/2+x,1/2+y,z
1/2-x,1/2-y,z
1/2+x,1/2-y,-z
1/2-x,1/2+y,-z
1/2-x,1/2-y,-z
1/2+x,1/2+y,-z
1/2-x,1/2+y,z
1/2+x,1/2-y,z
loop_
_atom_site_type_symbol
_atom_site_label
_atom_site_fract_x
_atom_site_fract_y
_atom_site_fract_z
Si Si1 0.169555 0.198853 0.951123
Si Si2 0.331465 0.799210 0.213427
Si Si3 0.586405 0.000000 0.449998
Si Si4 0.913938 0.185345 0.606622
Si Si5 0.919941 0.699796 0.869122
Si Si6 0.082695 0.701306 0.702208
O O1 0.250000 0.250000 0.940701
O O2 0.117078 0.261933 0.914533
O O3 0.166244 0.000000 0.951667
O O4 0.153850 0.260544 0.000000
O O5 0.250000 0.750000 0.212405
O O6 0.372835 0.737083 0.170913
O O7 0.370469 0.743272 0.257280
O O8 0.335349 0.000000 0.213242
O O9 0.609675 0.834572 0.424454
O O10 0.500000 0.000000 0.449309
O O11 0.608244 0.000000 0.500000
O O12 0.894380 0.222759 0.656374
O O13 0.000000 0.187710 0.605802
O O14 0.890957 0.000000 0.593770
O O15 0.923121 0.500000 0.864871
O O16 0.000000 0.764370 0.867348
O O17 0.086564 0.500000 0.698397
O O18 0.000000 0.742782 0.709682
#
# Coordination Sequence:
#
# PCOD9491338 Si02
#       6
#    16  16   8  16  16  16
#     4  10  21  37  57  80 106 138 176 219 269 323
#     4  10  21  35  52  75 104 137 170 214 263 316
#     4   9  16  26  40  62  98 140 176 214 264 318
#     4   9  16  26  42  66  95 131 175 218 262 314
#     4  10  21  37  56  79 107 140 180 220 265 322
#     4   9  16  30  51  70  94 133 175 213 258 314
#
# _framework density 18.746897000000001
#
# number of rings (size 3 to 8) (size 9 to 14) (size 15 to 20)
#    0.000    2.455    0.909    1.636    0.000    7.273 
#    0.000    3.636    0.000    3.273    0.000    0.000 
#    0.000    0.727    0.364    0.000    0.000    0.000 
#
# Total GULP energy -245519.949319 kJ/mol
# GULP energy per Si atom -5579.998848 kJ/mol
# Density = 1.870423 g / cm^3
# Si number density = 18.746897 Si / 1000 Ang^3
#
#
#
# Elastic Constant Matrix: (Units=GPa)
#
#
# Indices 1 2 3 4 5 6 
#
# 1 89.3362 29.1081 84.5711 0.0000 0.0000 0.0000
# 2 29.1081 64.5065 53.5252 0.0000 0.0000 0.0000
# 3 84.5711 53.5252 161.6249 0.0000 0.0000 0.0000
# 4 0.0000 0.0000 0.0000 -1.2813 0.0000 0.0000
# 5 0.0000 0.0000 0.0000 0.0000 -7.9905 0.0000
# 6 0.0000 0.0000 0.0000 0.0000 0.0000 20.2412
#
#
#
# Elastic Compliance Matrix: (Units=1/GPa)
#
#
# Indices 1 2 3 4 5 6 
#
# 1 0.022194 -0.000522 -0.011440 0.000000 0.000000 0.000000
# 2 -0.000522 0.021389 -0.006810 0.000000 0.000000 0.000000
# 3 -0.011440 -0.006810 0.014428 0.000000 0.000000 0.000000
# 4 0.000000 0.000000 0.000000 -0.780449 0.000000 0.000000
# 5 0.000000 0.000000 0.000000 0.000000 -0.125148 0.000000
# 6 0.000000 0.000000 0.000000 0.000000 0.000000 0.049404
#
#
# Mechanical properties :
#
#
# Convention : Reuss Voigt Hill
#
# Bulk Modulus (GPa) = 48.86084 72.20851 60.53468
# Shear Modulus (GPa) = -6.63292 12.07809 2.72258
#
# Velocity S-wave (km/s) = -1.88304 2.54100 1.20641
# Velocity P-wave (km/s) = 4.62517 6.87096 5.85672
#
# Compressibility (1/GPa) = 0.02046629
#
# Stress axis : x y z
#
# Youngs Moduli (GPa) = 45.05800 46.75377 69.30743
#
# Poissons Ratio (x) = 0.02442 0.79288
# Poissons Ratio (y) = 0.02353 0.47198
# Poissons Ratio (z) = 0.51546 0.31839
#
# Static dielectric constant tensor:
#      x y z
#    x 1.617310 0.000000 0.000000 
#    y 0.000000 1.673750 0.000000 
#    z 0.000000 0.000000 1.638160 
# 
# From -- ./inp_files/77901.got.cif
#   From: 2010.05.17/outbox.cif.g08.bks.cpg/sg65_39_cif.got.tgz:77901.got - 2010.06.03 17:01:31.
