data_PCOD9491393
_publ_section_title
;
Structure prediction by ZEFSAII (Michael W. Deem and Ramdas Pophale) SiO2 
 PCOD9491393
Probable space group: C M M M
;
_chemical_formula_sum "Si O2"
_cell_formula_units_Z 72
_cell_length_a 19.352421
_cell_length_b 8.445016
_cell_length_c 23.694602
_cell_angle_alpha 90.000000
_cell_angle_beta 90.000000
_cell_angle_gamma 90.000000
_cell_volume 3872.444465
_symmetry_space_group_name_H-M "C M M M"
_symmetry_group_IT_number 65
_symmetry_cell_setting 'orthorhombic'
loop_
_space_group_symop_operation_xyz
x,y,z
-x,-y,z
x,-y,-z
-x,y,-z
-x,-y,-z
x,y,-z
-x,y,z
x,-y,z
1/2+x,1/2+y,z
1/2-x,1/2-y,z
1/2+x,1/2-y,-z
1/2-x,1/2+y,-z
1/2-x,1/2-y,-z
1/2+x,1/2+y,-z
1/2-x,1/2+y,z
1/2+x,1/2-y,z
loop_
_atom_site_type_symbol
_atom_site_label
_atom_site_fract_x
_atom_site_fract_y
_atom_site_fract_z
Si Si1 0.671817 0.308358 0.000000
Si Si2 0.172076 0.810508 0.332202
Si Si3 0.420223 0.308726 0.105663
Si Si4 0.920648 0.192972 0.436104
Si Si5 0.920433 0.310551 0.769898
O O1 0.750000 0.250000 0.000000
O O2 0.630144 0.255789 0.055722
O O3 0.671569 0.500000 0.000000
O O4 0.250000 0.750000 0.330884
O O5 0.131215 0.751579 0.387847
O O6 0.129729 0.757652 0.277286
O O7 0.172967 0.000000 0.333985
O O8 0.500000 0.262275 0.094001
O O9 0.418389 0.500000 0.107925
O O10 0.400962 0.243451 0.167063
O O11 0.902860 0.243003 0.500000
O O12 0.000000 0.240821 0.424253
O O13 0.919965 0.000000 0.435815
O O14 0.918960 0.500000 0.767302
O O15 0.000000 0.257149 0.760094
#
# Coordination Sequence:
#
# PCOD9491393 Si02
#       5
#     8  16  16  16  16
#     4  10  21  35  53  79 109 140 172 212 262 314
#     4  11  22  35  53  78 109 145 181 218 265 318
#     4   9  18  35  58  80 103 136 179 220 258 307
#     4   8  15  30  53  79 104 133 174 221 265 313
#     4  10  21  37  57  81 108 138 176 223 270 316
#
# _framework density 18.592908000000001
#
# number of rings (size 3 to 8) (size 9 to 14) (size 15 to 20)
#    0.000    2.444    0.000    3.000    0.000    5.778 
#    0.000    2.222    0.000    5.333    0.000    7.778 
#    0.000    0.000    0.000    0.000    0.000    0.000 
#
# Total GULP energy -200950.563404 kJ/mol
# GULP energy per Si atom -5581.960095 kJ/mol
# Density = 1.855059 g / cm^3
# Si number density = 18.592908 Si / 1000 Ang^3
#
#
#
# Elastic Constant Matrix: (Units=GPa)
#
#
# Indices 1 2 3 4 5 6 
#
# 1 154.0428 29.7399 146.8544 0.0000 0.0000 0.0000
# 2 29.7399 21.6812 34.1747 0.0000 0.0000 0.0000
# 3 146.8544 34.1747 193.9708 0.0000 0.0000 0.0000
# 4 0.0000 0.0000 0.0000 8.4484 0.0000 0.0000
# 5 0.0000 0.0000 0.0000 0.0000 -9.8985 0.0000
# 6 0.0000 0.0000 0.0000 0.0000 0.0000 19.8844
#
#
#
# Elastic Compliance Matrix: (Units=1/GPa)
#
#
# Indices 1 2 3 4 5 6 
#
# 1 0.023863 -0.005892 -0.017029 0.000000 0.000000 0.000000
# 2 -0.005892 0.065311 -0.007046 0.000000 0.000000 0.000000
# 3 -0.017029 -0.007046 0.019289 0.000000 0.000000 0.000000
# 4 0.000000 0.000000 0.000000 0.118366 0.000000 0.000000
# 5 0.000000 0.000000 0.000000 0.000000 -0.101026 0.000000
# 6 0.000000 0.000000 0.000000 0.000000 0.000000 0.050291
#
#
# Mechanical properties :
#
#
# Convention : Reuss Voigt Hill
#
# Bulk Modulus (GPa) = 20.60576 87.91476 54.26026
# Shear Modulus (GPa) = 19.82517 14.28191 17.05354
#
# Velocity S-wave (km/s) = 3.26893 2.77454 3.03183
# Velocity P-wave (km/s) = 5.03533 7.59281 6.44225
#
# Compressibility (1/GPa) = 0.04853013
#
# Stress axis : x y z
#
# Youngs Moduli (GPa) = 41.90538 15.31138 51.84234
#
# Poissons Ratio (x) = 0.09021 0.88281
# Poissons Ratio (y) = 0.24689 0.36529
# Poissons Ratio (z) = 0.71360 0.10789
#
# Static dielectric constant tensor:
#      x y z
#    x 1.617470 0.000000 0.000000 
#    y 0.000000 1.639340 0.000000 
#    z 0.000000 0.000000 1.626290 
# 
# From -- ./inp_files/64292.got.cif
#   From: 2010.05.17/outbox.cif.g08.bks.cpg/sg65_33_cif.got.tgz:64292.got - 2010.06.03 17:01:31.
