data_PCOD9491306
_publ_section_title
;
Structure prediction by ZEFSAII (Michael W. Deem and Ramdas Pophale) SiO2 
 PCOD9491306
Probable space group: C M M M
;
_chemical_formula_sum "Si O2"
_cell_formula_units_Z 72
_cell_length_a 7.499995
_cell_length_b 14.737430
_cell_length_c 29.156207
_cell_angle_alpha 90.000000
_cell_angle_beta 90.000000
_cell_angle_gamma 90.000000
_cell_volume 3222.654550
_symmetry_space_group_name_H-M "C M M M"
_symmetry_group_IT_number 65
_symmetry_cell_setting 'orthorhombic'
loop_
_space_group_symop_operation_xyz
x,y,z
-x,-y,z
x,-y,-z
-x,y,-z
-x,-y,-z
x,y,-z
-x,y,z
x,-y,z
1/2+x,1/2+y,z
1/2-x,1/2-y,z
1/2+x,1/2-y,-z
1/2-x,1/2+y,-z
1/2-x,1/2-y,-z
1/2+x,1/2+y,-z
1/2-x,1/2+y,z
1/2+x,1/2-y,z
loop_
_atom_site_type_symbol
_atom_site_label
_atom_site_fract_x
_atom_site_fract_y
_atom_site_fract_z
Si Si1 0.213962 0.000000 0.319982
Si Si2 0.713823 0.356458 0.752160
Si Si3 0.713386 0.143906 0.500000
Si Si4 0.714148 0.358529 0.049381
Si Si5 0.786928 0.500000 0.427300
Si Si6 0.786287 0.858304 0.148070
O O1 0.280235 0.913542 0.290971
O O2 0.252413 0.000000 0.373551
O O3 0.000000 0.000000 0.317177
O O4 0.500000 0.367143 0.753887
O O5 0.750000 0.250000 0.747274
O O6 0.781396 0.389292 0.802211
O O7 0.500000 0.136399 0.500000
O O8 0.750000 0.250000 0.500000
O O9 0.778996 0.088361 0.544676
O O10 0.500000 0.371942 0.049329
O O11 0.750000 0.250000 0.049420
O O12 0.781867 0.392679 0.098760
O O13 0.781636 0.392680 0.000000
O O14 0.000000 0.500000 0.431659
O O15 0.750000 0.750000 0.148211
O O16 0.000000 0.872758 0.147678
#
# Coordination Sequence:
#
# PCOD9491306 Si02
#       6
#     8  16   8  16   8  16
#     4  10  21  35  51  74 103 134 170 209 246 286
#     4   9  18  32  48  67  93 126 164 204 246 293
#     4   9  19  37  60  84 110 141 173 203 240 286
#     4   8  12  17  27  46  71  98 131 174 224 277
#     4   9  20  38  56  78 110 141 169 204 244 286
#     4   8  13  22  36  53  76 108 144 184 231 282
#
# _framework density 22.341830999999999
#
# number of rings (size 3 to 8) (size 9 to 14) (size 15 to 20)
#    0.000    3.333    0.000    0.667    0.000    2.667 
#    0.000    5.556    0.000    0.000    0.000    0.778 
#    0.000    6.222    0.000    0.000    0.000  374.667 
#
# Total GULP energy -200613.220179 kJ/mol
# GULP energy per Si atom -5572.589449 kJ/mol
# Density = 2.229098 g / cm^3
# Si number density = 22.341831 Si / 1000 Ang^3
#
#
#
# Elastic Constant Matrix: (Units=GPa)
#
#
# Indices 1 2 3 4 5 6 
#
# 1 65.9713 -0.2941 11.7110 0.0000 0.0000 0.0000
# 2 -0.2941 129.3427 103.2778 0.0000 0.0000 0.0000
# 3 11.7110 103.2778 303.6392 0.0000 0.0000 0.0000
# 4 0.0000 0.0000 0.0000 31.4660 0.0000 0.0000
# 5 0.0000 0.0000 0.0000 0.0000 8.2811 0.0000
# 6 0.0000 0.0000 0.0000 0.0000 0.0000 3.1872
#
#
#
# Elastic Compliance Matrix: (Units=1/GPa)
#
#
# Indices 1 2 3 4 5 6 
#
# 1 0.015308 0.000695 -0.000827 0.000000 0.000000 0.000000
# 2 0.000695 0.010646 -0.003648 0.000000 0.000000 0.000000
# 3 -0.000827 -0.003648 0.004566 0.000000 0.000000 0.000000
# 4 0.000000 0.000000 0.000000 0.031780 0.000000 0.000000
# 5 0.000000 0.000000 0.000000 0.000000 0.120757 0.000000
# 6 0.000000 0.000000 0.000000 0.000000 0.000000 0.313751
#
#
# Mechanical properties :
#
#
# Convention : Reuss Voigt Hill
#
# Bulk Modulus (GPa) = 43.55305 80.92694 62.24000
# Shear Modulus (GPa) = 9.76522 34.20410 21.98466
#
# Velocity S-wave (km/s) = 2.09292 3.91697 3.14030
# Velocity P-wave (km/s) = 5.03753 7.53377 6.40837
#
# Compressibility (1/GPa) = 0.02296051
#
# Stress axis : x y z
#
# Youngs Moduli (GPa) = 65.32545 93.93519 219.01053
#
# Poissons Ratio (x) = -0.06528 0.18108
# Poissons Ratio (y) = -0.04540 0.79889
# Poissons Ratio (z) = 0.05401 0.34265
#
# Static dielectric constant tensor:
#      x y z
#    x 1.864100 0.000000 0.000000 
#    y 0.000000 1.694270 0.000000 
#    z 0.000000 0.000000 1.866620 
# 
# From -- ./inp_files/72597.got.cif
#   From: 2010.05.17/outbox.cif.g08.bks.cpg/sg65_37_cif.got.tgz:72597.got - 2010.06.03 17:01:31.
