data_PCOD9491399
_publ_section_title
;
Structure prediction by ZEFSAII (Michael W. Deem and Ramdas Pophale) SiO2 
 PCOD9491399
Probable space group: C M M M
;
_chemical_formula_sum "Si O2"
_cell_formula_units_Z 66
_cell_length_a 19.988911
_cell_length_b 8.761111
_cell_length_c 20.818642
_cell_angle_alpha 90.000000
_cell_angle_beta 90.000000
_cell_angle_gamma 90.000000
_cell_volume 3645.866097
_symmetry_space_group_name_H-M "C M M M"
_symmetry_group_IT_number 65
_symmetry_cell_setting 'orthorhombic'
loop_
_space_group_symop_operation_xyz
x,y,z
-x,-y,z
x,-y,-z
-x,y,-z
-x,-y,-z
x,y,-z
-x,y,z
x,-y,z
1/2+x,1/2+y,z
1/2-x,1/2-y,z
1/2+x,1/2-y,-z
1/2-x,1/2+y,-z
1/2-x,1/2-y,-z
1/2+x,1/2+y,-z
1/2-x,1/2+y,z
1/2+x,1/2-y,z
loop_
_atom_site_type_symbol
_atom_site_label
_atom_site_fract_x
_atom_site_fract_y
_atom_site_fract_z
Si Si1 0.922852 0.184114 0.884854
Si Si2 0.000000 0.000000 0.500000
Si Si3 0.821869 0.682896 0.634095
Si Si4 0.423189 0.816162 0.745463
Si Si5 0.361470 0.668071 0.500000
Si Si6 0.824965 0.184989 0.000000
O O1 0.905496 0.246648 0.814507
O O2 0.000000 0.231436 0.899915
O O3 0.922758 0.000000 0.883344
O O4 0.869067 0.232293 0.938082
O O5 0.059820 0.869904 0.500000
O O6 0.819692 0.500000 0.633119
O O7 0.750000 0.750000 0.651366
O O8 0.875432 0.732683 0.687737
O O9 0.841605 0.744435 0.564187
O O10 0.500000 0.772458 0.731502
O O11 0.420183 0.000000 0.750327
O O12 0.327132 0.500000 0.500000
O O13 0.750000 0.250000 0.000000
O O14 0.821074 0.000000 0.000000
#
# Coordination Sequence:
#
# PCOD9491399 Si02
#       6
#    16   2  16  16   8   8
#     4   9  18  35  57  80 104 141 184 227 272 323
#     4   8  24  40  62  92 112 144 180 242 292 316
#     4  11  23  39  59  84 115 155 191 230 281 336
#     4   9  20  37  57  81 111 143 183 231 278 328
#     4  10  22  40  60  86 114 143 186 230 282 330
#     4  10  21  35  53  79 111 142 178 222 272 326
#
# _framework density 18.102694
#
# number of rings (size 3 to 8) (size 9 to 14) (size 15 to 20)
#    0.364    1.939    0.000    1.818    1.697    5.333 
#    0.000    5.455    0.000    3.636    0.000    0.000 
#    0.000    0.000    0.000    0.000    0.000    0.000 
#
# Total GULP energy -183841.543304 kJ/mol
# GULP energy per Si atom -5570.955858 kJ/mol
# Density = 1.806149 g / cm^3
# Si number density = 18.102694 Si / 1000 Ang^3
#
#
#
# Elastic Constant Matrix: (Units=GPa)
#
#
# Indices 1 2 3 4 5 6 
#
# 1 138.0506 39.0903 120.8039 0.0000 0.0000 0.0000
# 2 39.0903 34.9101 42.8075 0.0000 0.0000 0.0000
# 3 120.8039 42.8075 181.7376 0.0000 0.0000 0.0000
# 4 0.0000 0.0000 0.0000 29.5557 0.0000 0.0000
# 5 0.0000 0.0000 0.0000 0.0000 43.1069 0.0000
# 6 0.0000 0.0000 0.0000 0.0000 0.0000 24.0616
#
#
#
# Elastic Compliance Matrix: (Units=1/GPa)
#
#
# Indices 1 2 3 4 5 6 
#
# 1 0.018799 -0.008053 -0.010599 0.000000 0.000000 0.000000
# 2 -0.008053 0.043729 -0.004947 0.000000 0.000000 0.000000
# 3 -0.010599 -0.004947 0.013713 0.000000 0.000000 0.000000
# 4 0.000000 0.000000 0.000000 0.033834 0.000000 0.000000
# 5 0.000000 0.000000 0.000000 0.000000 0.023198 0.000000
# 6 0.000000 0.000000 0.000000 0.000000 0.000000 0.041560
#
#
# Mechanical properties :
#
#
# Convention : Reuss Voigt Hill
#
# Bulk Modulus (GPa) = 34.43276 84.45575 59.44426
# Shear Modulus (GPa) = 21.57846 29.47796 25.52821
#
# Velocity S-wave (km/s) = 3.45629 4.03969 3.75932
# Velocity P-wave (km/s) = 5.91523 8.27730 7.19388
#
# Compressibility (1/GPa) = 0.02904211
#
# Stress axis : x y z
#
# Youngs Moduli (GPa) = 53.19428 22.86832 72.92304
#
# Poissons Ratio (x) = 0.18416 0.77292
# Poissons Ratio (y) = 0.42838 0.36075
# Poissons Ratio (z) = 0.56381 0.11313
#
# Static dielectric constant tensor:
#      x y z
#    x 1.613580 0.000000 0.000000 
#    y 0.000000 1.623600 0.000000 
#    z 0.000000 0.000000 1.593840 
# 
# From -- ./inp_files/55420.got.cif
#   From: 2010.05.17/outbox.cif.g08.bks.cpg/sg65_28_cif.got.tgz:55420.got - 2010.06.03 17:01:31.
