data_PCOD9491008
_publ_section_title
;
Structure prediction by ZEFSAII (Michael W. Deem and Ramdas Pophale) SiO2 
 PCOD9491008
Probable space group: C M M M
;
_chemical_formula_sum "Si O2"
_cell_formula_units_Z 90
_cell_length_a 24.451298
_cell_length_b 9.377721
_cell_length_c 19.538842
_cell_angle_alpha 90.000000
_cell_angle_beta 90.000000
_cell_angle_gamma 90.000000
_cell_volume 4480.206661
_symmetry_space_group_name_H-M "C M M M"
_symmetry_group_IT_number 65
_symmetry_cell_setting 'orthorhombic'
loop_
_space_group_symop_operation_xyz
x,y,z
-x,-y,z
x,-y,-z
-x,y,-z
-x,-y,-z
x,y,-z
-x,y,z
x,-y,z
1/2+x,1/2+y,z
1/2-x,1/2-y,z
1/2+x,1/2-y,-z
1/2-x,1/2+y,-z
1/2-x,1/2-y,-z
1/2+x,1/2+y,-z
1/2-x,1/2+y,z
1/2+x,1/2-y,z
loop_
_atom_site_type_symbol
_atom_site_label
_atom_site_fract_x
_atom_site_fract_y
_atom_site_fract_z
Si Si1 0.807749 0.330099 0.229308
Si Si2 0.000000 0.232310 0.373567
Si Si3 0.796907 0.151457 0.579922
Si Si4 0.433762 0.828343 0.000000
Si Si5 0.500000 0.660464 0.217803
Si Si6 0.000000 0.000000 0.500000
Si Si7 0.619552 0.843211 0.632999
Si Si8 0.606616 0.674737 0.137511
O O1 0.799924 0.500000 0.216329
O O2 0.750000 0.250000 0.240093
O O3 0.849219 0.321370 0.294773
O O4 0.839391 0.246997 0.168835
O O5 0.000000 0.157256 0.299297
O O6 0.945001 0.325685 0.369709
O O7 0.000000 0.125689 0.438338
O O8 0.784807 0.135796 0.500000
O O9 0.750000 0.250000 0.609130
O O10 0.855313 0.221732 0.585982
O O11 0.795971 0.000000 0.615300
O O12 0.409222 0.746559 0.065629
O O13 0.500000 0.813043 0.000000
O O14 0.422193 0.000000 0.000000
O O15 0.500000 0.500000 0.190710
O O16 0.556195 0.720330 0.187705
O O17 0.635803 0.000000 0.607905
O O18 0.611244 0.500000 0.134725
#
# Coordination Sequence:
#
# PCOD9491008 Si02
#       8
#    16   8  16   8   8   2  16  16
#     4  11  24  43  66  98 134 176 232 294 354 418
#     4  12  25  46  65  98 136 179 224 278 347 411
#     4  10  22  39  62  87 117 155 204 261 327 398
#     4  11  23  39  62 103 152 193 239 288 350 414
#     4  10  20  38  66  98 134 174 228 284 346 399
#     4  12  32  44  70 100 148 182 238 280 348 446
#     4  11  25  42  65  93 128 167 219 279 342 406
#     4  11  22  40  68 102 138 189 232 293 343 413
#
# _framework density 20.088357999999999
#
# number of rings (size 3 to 8) (size 9 to 14) (size 15 to 20)
#    0.000    1.156    3.111    2.667    2.489    4.267 
#    0.000    0.889    0.000    0.000    0.000    0.000 
#    0.000    0.000    0.000    0.000    0.000    0.000 
#
# Total GULP energy -250689.247878 kJ/mol
# GULP energy per Si atom -5570.872175 kJ/mol
# Density = 2.004264 g / cm^3
# Si number density = 20.088358 Si / 1000 Ang^3
#
#
#
# Elastic Constant Matrix: (Units=GPa)
#
#
# Indices 1 2 3 4 5 6 
#
# 1 136.6474 64.5771 35.5413 0.0000 0.0000 0.0000
# 2 64.5771 159.0849 49.5393 0.0000 0.0000 0.0000
# 3 35.5413 49.5393 123.8431 0.0000 0.0000 0.0000
# 4 0.0000 0.0000 0.0000 6.5916 0.0000 0.0000
# 5 0.0000 0.0000 0.0000 0.0000 30.9647 0.0000
# 6 0.0000 0.0000 0.0000 0.0000 0.0000 16.5381
#
#
#
# Elastic Compliance Matrix: (Units=1/GPa)
#
#
# Indices 1 2 3 4 5 6 
#
# 1 0.009239 -0.003341 -0.001315 0.000000 0.000000 0.000000
# 2 -0.003341 0.008388 -0.002397 0.000000 0.000000 0.000000
# 3 -0.001315 -0.002397 0.009411 0.000000 0.000000 0.000000
# 4 0.000000 0.000000 0.000000 0.151708 0.000000 0.000000
# 5 0.000000 0.000000 0.000000 0.000000 0.032295 0.000000
# 6 0.000000 0.000000 0.000000 0.000000 0.000000 0.060466
#
#
# Mechanical properties :
#
#
# Convention : Reuss Voigt Hill
#
# Bulk Modulus (GPa) = 77.32168 79.87676 78.59922
# Shear Modulus (GPa) = 17.24590 28.81339 23.02964
#
# Velocity S-wave (km/s) = 2.93320 3.79137 3.38955
# Velocity P-wave (km/s) = 7.07431 7.68212 7.38447
#
# Compressibility (1/GPa) = 0.01293298
#
# Stress axis : x y z
#
# Youngs Moduli (GPa) = 108.23712 119.21163 106.26007
#
# Poissons Ratio (x) = 0.39827 0.13974
# Poissons Ratio (y) = 0.36160 0.25468
# Poissons Ratio (z) = 0.14234 0.28572
#
# Static dielectric constant tensor:
#      x y z
#    x 1.742170 0.000000 0.000000 
#    y 0.000000 1.752440 0.000000 
#    z 0.000000 0.000000 1.722850 
# 
# From -- ./inp_files/65305.got.cif
#   From: 2010.05.17/outbox.cif.g08.bks.cpg/sg65_33_cif.got.tgz:65305.got - 2010.06.03 17:01:31.
