data_PCOD9491747
_publ_section_title
;
Structure prediction by ZEFSAII (Michael W. Deem and Ramdas Pophale) SiO2 
 PCOD9491747
Probable space group: C M M M
;
_chemical_formula_sum "Si O2"
_cell_formula_units_Z 80
_cell_length_a 8.553974
_cell_length_b 18.916678
_cell_length_c 26.184124
_cell_angle_alpha 90.000000
_cell_angle_beta 90.000000
_cell_angle_gamma 90.000000
_cell_volume 4236.925681
_symmetry_space_group_name_H-M "C M M M"
_symmetry_group_IT_number 65
_symmetry_cell_setting 'orthorhombic'
loop_
_space_group_symop_operation_xyz
x,y,z
-x,-y,z
x,-y,-z
-x,y,-z
-x,-y,-z
x,y,-z
-x,y,z
x,-y,z
1/2+x,1/2+y,z
1/2-x,1/2-y,z
1/2+x,1/2-y,-z
1/2-x,1/2+y,-z
1/2-x,1/2-y,-z
1/2+x,1/2+y,-z
1/2-x,1/2+y,z
1/2+x,1/2-y,z
loop_
_atom_site_type_symbol
_atom_site_label
_atom_site_fract_x
_atom_site_fract_y
_atom_site_fract_z
Si Si1 0.810651 0.418560 0.845187
Si Si2 0.311214 0.581147 0.650719
Si Si3 0.812757 0.328095 0.558648
Si Si4 0.687675 0.329646 0.749619
Si Si5 0.188770 0.671472 0.057895
O O1 0.760062 0.500000 0.841126
O O2 0.746760 0.372100 0.798841
O O3 0.761034 0.383368 0.898786
O O4 0.000000 0.417138 0.843502
O O5 0.500000 0.581737 0.650000
O O6 0.259386 0.500000 0.656381
O O7 0.250961 0.615720 0.598700
O O8 0.259934 0.628600 0.698751
O O9 0.764577 0.343132 0.500000
O O10 0.750000 0.250000 0.571884
O O11 0.000000 0.326897 0.560648
O O12 0.500000 0.328020 0.750146
O O13 0.750000 0.250000 0.749664
O O14 0.250000 0.750000 0.069804
O O15 0.000000 0.673490 0.058155
O O16 0.239314 0.653474 0.000000
#
# Coordination Sequence:
#
# PCOD9491747 Si02
#       5
#    16  16  16  16  16
#     4  10  21  36  55  81 111 143 181 224 272 325
#     4  10  22  39  58  82 112 145 181 222 271 325
#     4  10  21  37  58  84 113 146 185 227 270 318
#     4  11  23  39  59  82 109 142 182 226 272 323
#     4   9  18  33  53  77 106 141 181 224 268 317
#
# _framework density 18.881616000000001
#
# number of rings (size 3 to 8) (size 9 to 14) (size 15 to 20)
#    0.000    2.000    0.000    3.000    0.000    9.200 
#    0.000    4.000    0.000    0.000    0.000    4.200 
#    0.000    0.000    0.000    0.000    0.000    0.000 
#
# Total GULP energy -223457.525484 kJ/mol
# GULP energy per Si atom -5586.438137 kJ/mol
# Density = 1.883864 g / cm^3
# Si number density = 18.881616 Si / 1000 Ang^3
#
#
#
# Elastic Constant Matrix: (Units=GPa)
#
#
# Indices 1 2 3 4 5 6 
#
# 1 14.3088 32.6946 26.7914 0.0000 0.0000 0.0000
# 2 32.6946 198.4776 121.8005 0.0000 0.0000 0.0000
# 3 26.7914 121.8005 134.8679 0.0000 0.0000 0.0000
# 4 0.0000 0.0000 0.0000 -11.0509 0.0000 0.0000
# 5 0.0000 0.0000 0.0000 0.0000 25.6599 0.0000
# 6 0.0000 0.0000 0.0000 0.0000 0.0000 24.8535
#
#
#
# Elastic Compliance Matrix: (Units=1/GPa)
#
#
# Indices 1 2 3 4 5 6 
#
# 1 0.122394 -0.011757 -0.013696 0.000000 0.000000 0.000000
# 2 -0.011757 0.012432 -0.008892 0.000000 0.000000 0.000000
# 3 -0.013696 -0.008892 0.018165 0.000000 0.000000 0.000000
# 4 0.000000 0.000000 0.000000 -0.090490 0.000000 0.000000
# 5 0.000000 0.000000 0.000000 0.000000 0.038971 0.000000
# 6 0.000000 0.000000 0.000000 0.000000 0.000000 0.040236
#
#
# Mechanical properties :
#
#
# Convention : Reuss Voigt Hill
#
# Bulk Modulus (GPa) = 11.86204 78.91417 45.38811
# Shear Modulus (GPa) = 20.96463 18.98367 19.97415
#
# Velocity S-wave (km/s) = 3.33576 3.17425 3.25601
# Velocity P-wave (km/s) = 4.59700 7.43770 6.18271
#
# Compressibility (1/GPa) = 0.08430251
#
# Stress axis : x y z
#
# Youngs Moduli (GPa) = 8.17034 80.44057 55.04981
#
# Poissons Ratio (x) = 0.94573 0.75395
# Poissons Ratio (y) = 0.09606 0.48948
# Poissons Ratio (z) = 0.11190 0.71524
#
# Static dielectric constant tensor:
#      x y z
#    x 1.643520 0.000000 0.000000 
#    y 0.000000 1.618780 0.000000 
#    z 0.000000 0.000000 1.645340 
# 
# From -- ./inp_files/72784.got.cif
#   From: 2010.05.17/outbox.cif.g08.bks.cpg/sg65_37_cif.got.tgz:72784.got - 2010.06.03 17:01:31.
