data_PCOD9491258
_publ_section_title
;
Structure prediction by ZEFSAII (Michael W. Deem and Ramdas Pophale) SiO2 
 PCOD9491258
Probable space group: C M M M
;
_chemical_formula_sum "Si O2"
_cell_formula_units_Z 116
_cell_length_a 17.266734
_cell_length_b 26.461544
_cell_length_c 14.443398
_cell_angle_alpha 90.000000
_cell_angle_beta 90.000000
_cell_angle_gamma 90.000000
_cell_volume 6599.252696
_symmetry_space_group_name_H-M "C M M M"
_symmetry_group_IT_number 65
_symmetry_cell_setting 'orthorhombic'
loop_
_space_group_symop_operation_xyz
x,y,z
-x,-y,z
x,-y,-z
-x,y,-z
-x,-y,-z
x,y,-z
-x,y,z
x,-y,z
1/2+x,1/2+y,z
1/2-x,1/2-y,z
1/2+x,1/2-y,-z
1/2-x,1/2+y,-z
1/2-x,1/2-y,-z
1/2+x,1/2+y,-z
1/2-x,1/2+y,z
1/2+x,1/2-y,z
loop_
_atom_site_type_symbol
_atom_site_label
_atom_site_fract_x
_atom_site_fract_y
_atom_site_fract_z
Si Si1 0.174639 0.804371 0.607095
Si Si2 0.137983 0.000000 0.500000
Si Si3 0.407488 0.257533 0.111023
Si Si4 0.086547 0.059574 0.147150
Si Si5 0.304716 0.644731 0.101348
Si Si6 0.909629 0.088694 0.637042
Si Si7 0.908563 0.696992 0.603211
Si Si8 0.690401 0.181793 0.243077
O O1 0.202900 0.803828 0.500000
O O2 0.127645 0.856284 0.621733
O O3 0.121795 0.754501 0.617632
O O4 0.242168 0.802355 0.683521
O O5 0.131863 0.955165 0.579566
O O6 0.500000 0.255858 0.133992
O O7 0.369823 0.312963 0.125446
O O8 0.353983 0.221633 0.175603
O O9 0.400785 0.246210 0.000000
O O10 0.152016 0.092010 0.099704
O O11 0.091882 0.073890 0.255397
O O12 0.000000 0.073865 0.115133
O O13 0.095269 0.000000 0.135100
O O14 0.236060 0.645452 0.174587
O O15 0.274327 0.658683 0.000000
O O16 0.000000 0.089446 0.608443
O O17 0.884937 0.680828 0.500000
O O18 0.874131 0.663334 0.685132
O O19 0.000000 0.697816 0.607624
#
# Coordination Sequence:
#
# PCOD9491258 Si02
#       8
#    16   4  16  16  16  16  16  16
#     4  11  21  32  49  73 103 141 178 213 253 309
#     4  12  21  32  52  76 104 138 183 236 269 290
#     4  10  21  36  54  76 102 136 180 224 266 315
#     4  10  21  36  53  75 104 139 182 223 259 305
#     4  11  22  36  54  76 104 140 179 222 269 314
#     4  11  20  31  48  72 101 137 179 220 258 297
#     4  10  21  35  50  72 103 139 178 216 255 305
#     4  12  22  34  51  75 105 141 177 220 266 315
#
# _framework density 17.577748
#
# number of rings (size 3 to 8) (size 9 to 14) (size 15 to 20)
#    0.000    1.241    2.759    5.172    0.000    3.862 
#    0.000    0.690    0.000    0.000    0.000    0.000 
#    0.000    2.207    0.000   10.759    1.103    0.000 
#
# Total GULP energy -323074.593483 kJ/mol
# GULP energy per Si atom -5570.251612 kJ/mol
# Density = 1.753774 g / cm^3
# Si number density = 17.577748 Si / 1000 Ang^3
#
#
#
# Elastic Constant Matrix: (Units=GPa)
#
#
# Indices 1 2 3 4 5 6 
#
# 1 76.8341 23.9078 43.2069 0.0000 0.0000 0.0000
# 2 23.9078 52.1028 20.1917 0.0000 0.0000 0.0000
# 3 43.2069 20.1917 105.7099 0.0000 0.0000 0.0000
# 4 0.0000 0.0000 0.0000 19.2533 0.0000 0.0000
# 5 0.0000 0.0000 0.0000 0.0000 14.8508 0.0000
# 6 0.0000 0.0000 0.0000 0.0000 0.0000 18.6231
#
#
#
# Elastic Compliance Matrix: (Units=1/GPa)
#
#
# Indices 1 2 3 4 5 6 
#
# 1 0.018486 -0.005998 -0.006410 0.000000 0.000000 0.000000
# 2 -0.005998 0.022673 -0.001879 0.000000 0.000000 0.000000
# 3 -0.006410 -0.001879 0.012439 0.000000 0.000000 0.000000
# 4 0.000000 0.000000 0.000000 0.051939 0.000000 0.000000
# 5 0.000000 0.000000 0.000000 0.000000 0.067336 0.000000
# 6 0.000000 0.000000 0.000000 0.000000 0.000000 0.053697
#
#
# Mechanical properties :
#
#
# Convention : Reuss Voigt Hill
#
# Bulk Modulus (GPa) = 39.96302 45.47333 42.71817
# Shear Modulus (GPa) = 18.97625 20.36813 19.67219
#
# Velocity S-wave (km/s) = 3.28923 3.40773 3.34900
# Velocity P-wave (km/s) = 6.09998 6.43502 6.26974
#
# Compressibility (1/GPa) = 0.02502313
#
# Stress axis : x y z
#
# Youngs Moduli (GPa) = 54.09440 44.10440 80.39359
#
# Poissons Ratio (x) = 0.26456 0.51533
# Poissons Ratio (y) = 0.32448 0.15107
# Poissons Ratio (z) = 0.34675 0.08288
#
# Static dielectric constant tensor:
#      x y z
#    x 1.611760 0.000000 0.000000 
#    y 0.000000 1.568760 0.000000 
#    z 0.000000 0.000000 1.687120 
# 
# From -- ./inp_files/43164.got.cif
#   From: 2010.05.17/outbox.cif.g08.bks.cpg/sg65_22_cif.got.tgz:43164.got - 2010.06.03 17:01:31.
