data_PCOD9491768
_publ_section_title
;
Structure prediction by ZEFSAII (Michael W. Deem and Ramdas Pophale) SiO2 
 PCOD9491768
Probable space group: C M M M
;
_chemical_formula_sum "Si O2"
_cell_formula_units_Z 88
_cell_length_a 8.976544
_cell_length_b 21.393577
_cell_length_c 23.591529
_cell_angle_alpha 90.000000
_cell_angle_beta 90.000000
_cell_angle_gamma 90.000000
_cell_volume 4530.526318
_symmetry_space_group_name_H-M "C M M M"
_symmetry_group_IT_number 65
_symmetry_cell_setting 'orthorhombic'
loop_
_space_group_symop_operation_xyz
x,y,z
-x,-y,z
x,-y,-z
-x,y,-z
-x,-y,-z
x,y,-z
-x,y,z
x,-y,z
1/2+x,1/2+y,z
1/2-x,1/2-y,z
1/2+x,1/2-y,-z
1/2-x,1/2+y,-z
1/2-x,1/2-y,-z
1/2+x,1/2+y,-z
1/2-x,1/2+y,z
1/2+x,1/2-y,z
loop_
_atom_site_type_symbol
_atom_site_label
_atom_site_fract_x
_atom_site_fract_y
_atom_site_fract_z
Si Si1 0.823312 0.187146 0.828605
Si Si2 0.322751 0.868922 0.933193
Si Si3 0.176273 0.570540 0.232588
Si Si4 0.177322 0.815303 0.566762
Si Si5 0.170517 0.000000 0.931348
Si Si6 0.176260 0.429850 0.631337
O O1 0.750000 0.250000 0.804349
O O2 0.762305 0.178126 0.892388
O O3 0.767821 0.125864 0.795584
O O4 0.000000 0.191822 0.828001
O O5 0.500000 0.866069 0.924114
O O6 0.260587 0.937555 0.917132
O O7 0.293811 0.858775 0.000000
O O8 0.221342 0.500000 0.215154
O O9 0.192134 0.574233 0.300636
O O10 0.000000 0.577724 0.219325
O O11 0.214158 0.822970 0.500000
O O12 0.250000 0.750000 0.586095
O O13 0.238032 0.874424 0.600833
O O14 0.000000 0.810911 0.572341
O O15 0.000000 0.000000 0.909629
O O16 0.161223 0.000000 0.000000
O O17 0.225061 0.500000 0.614178
O O18 0.000000 0.424492 0.618869
#
# Coordination Sequence:
#
# PCOD9491768 Si02
#       6
#    16  16  16  16   8  16
#     4  12  26  42  61  86 118 153 194 240 291 351
#     4  10  21  38  60  85 115 152 191 233 287 347
#     4   9  20  41  66  89 116 151 192 239 292 350
#     4  10  21  36  55  82 118 160 203 246 292 343
#     4   9  17  31  53  83 115 145 183 229 272 323
#     4   9  19  37  61  88 117 152 194 240 292 349
#
# _framework density 19.423791999999999
#
# number of rings (size 3 to 8) (size 9 to 14) (size 15 to 20)
#    0.000    2.091    0.000    4.091    1.273    6.182 
#    0.000    3.636    0.000    0.000    0.000    0.000 
#    0.000    0.000    0.000    0.000    0.000    0.000 
#
# Total GULP energy -245854.328408 kJ/mol
# GULP energy per Si atom -5587.598373 kJ/mol
# Density = 1.937958 g / cm^3
# Si number density = 19.423792 Si / 1000 Ang^3
#
#
#
# Elastic Constant Matrix: (Units=GPa)
#
#
# Indices 1 2 3 4 5 6 
#
# 1 110.8043 79.8852 37.8949 0.0000 0.0000 0.0000
# 2 79.8852 170.2726 55.5268 0.0000 0.0000 0.0000
# 3 37.8949 55.5268 45.2217 0.0000 0.0000 0.0000
# 4 0.0000 0.0000 0.0000 8.6354 0.0000 0.0000
# 5 0.0000 0.0000 0.0000 0.0000 31.3181 0.0000
# 6 0.0000 0.0000 0.0000 0.0000 0.0000 37.2568
#
#
#
# Elastic Compliance Matrix: (Units=1/GPa)
#
#
# Indices 1 2 3 4 5 6 
#
# 1 0.014673 -0.004794 -0.006409 0.000000 0.000000 0.000000
# 2 -0.004794 0.011361 -0.009933 0.000000 0.000000 0.000000
# 3 -0.006409 -0.009933 0.039681 0.000000 0.000000 0.000000
# 4 0.000000 0.000000 0.000000 0.115802 0.000000 0.000000
# 5 0.000000 0.000000 0.000000 0.000000 0.031930 0.000000
# 6 0.000000 0.000000 0.000000 0.000000 0.000000 0.026841
#
#
# Mechanical properties :
#
#
# Convention : Reuss Voigt Hill
#
# Bulk Modulus (GPa) = 42.65770 74.76804 58.71287
# Shear Modulus (GPa) = 17.21909 25.64150 21.43030
#
# Velocity S-wave (km/s) = 2.98064 3.63727 3.32520
# Velocity P-wave (km/s) = 5.81849 7.49775 6.71085
#
# Compressibility (1/GPa) = 0.02344242
#
# Stress axis : x y z
#
# Youngs Moduli (GPa) = 68.15170 88.01828 25.20105
#
# Poissons Ratio (x) = 0.42195 0.16153
# Poissons Ratio (y) = 0.32671 0.25032
# Poissons Ratio (z) = 0.43682 0.87429
#
# Static dielectric constant tensor:
#      x y z
#    x 1.644970 0.000000 0.000000 
#    y 0.000000 1.678120 0.000000 
#    z 0.000000 0.000000 1.690720 
# 
# From -- ./inp_files/67551.got.cif
#   From: 2010.05.17/outbox.cif.g08.bks.cpg/sg65_34_cif.got.tgz:67551.got - 2010.06.03 17:01:31.
