data_PCOD9491836
_publ_section_title
;
Structure prediction by ZEFSAII (Michael W. Deem and Ramdas Pophale) SiO2 
 PCOD9491836
Probable space group: C M M M
;
_chemical_formula_sum "Si O2"
_cell_formula_units_Z 72
_cell_length_a 14.462493
_cell_length_b 13.962580
_cell_length_c 18.846776
_cell_angle_alpha 90.000000
_cell_angle_beta 90.000000
_cell_angle_gamma 90.000000
_cell_volume 3805.799503
_symmetry_space_group_name_H-M "C M M M"
_symmetry_group_IT_number 65
_symmetry_cell_setting 'orthorhombic'
loop_
_space_group_symop_operation_xyz
x,y,z
-x,-y,z
x,-y,-z
-x,y,-z
-x,-y,-z
x,y,-z
-x,y,z
x,-y,z
1/2+x,1/2+y,z
1/2-x,1/2-y,z
1/2+x,1/2-y,-z
1/2-x,1/2+y,-z
1/2-x,1/2-y,-z
1/2+x,1/2+y,-z
1/2-x,1/2+y,z
1/2+x,1/2-y,z
loop_
_atom_site_type_symbol
_atom_site_label
_atom_site_fract_x
_atom_site_fract_y
_atom_site_fract_z
Si Si1 0.609896 0.393587 0.284432
Si Si2 0.142192 0.228938 0.580853
Si Si3 0.500000 0.108850 0.414224
Si Si4 0.272876 0.111545 0.083117
Si Si5 0.388663 0.722636 0.852769
O O1 0.500000 0.401453 0.275035
O O2 0.650320 0.500000 0.273272
O O3 0.625603 0.354541 0.363135
O O4 0.637770 0.315682 0.225689
O O5 0.112573 0.205708 0.500000
O O6 0.250000 0.250000 0.579525
O O7 0.087291 0.324514 0.604563
O O8 0.500000 0.101341 0.500000
O O9 0.500000 0.000000 0.386336
O O10 0.343671 0.175108 0.129038
O O11 0.169147 0.150501 0.096965
O O12 0.278434 0.000000 0.100282
O O13 0.294968 0.125144 0.000000
O O14 0.500000 0.721700 0.861568
#
# Coordination Sequence:
#
# PCOD9491836 Si02
#       5
#    16  16   8  16  16
#     4  10  21  37  58  83 114 152 194 242 295 347
#     4  10  21  36  57  85 114 149 197 246 294 349
#     4   9  18  36  57  77 111 151 185 234 294 347
#     4  10  22  39  61  91 120 150 194 242 288 342
#     4  10  21  38  59  84 120 159 195 234 289 350
#
# _framework density 18.918495
#
# number of rings (size 3 to 8) (size 9 to 14) (size 15 to 20)
#    0.000    2.111    1.111    2.000    3.111    4.889 
#    0.000    6.667    0.000    0.000    0.000    0.000 
#    0.000    0.000    0.000    0.000    0.000    0.000 
#
# Total GULP energy -200648.185351 kJ/mol
# GULP energy per Si atom -5573.560704 kJ/mol
# Density = 1.887544 g / cm^3
# Si number density = 18.918495 Si / 1000 Ang^3
#
#
#
# Elastic Constant Matrix: (Units=GPa)
#
#
# Indices 1 2 3 4 5 6 
#
# 1 109.9561 57.9058 24.5320 0.0000 0.0000 0.0000
# 2 57.9058 156.2832 63.0252 0.0000 0.0000 0.0000
# 3 24.5320 63.0252 79.9859 0.0000 0.0000 0.0000
# 4 0.0000 0.0000 0.0000 16.4649 0.0000 0.0000
# 5 0.0000 0.0000 0.0000 0.0000 37.5840 0.0000
# 6 0.0000 0.0000 0.0000 0.0000 0.0000 11.9859
#
#
#
# Elastic Compliance Matrix: (Units=1/GPa)
#
#
# Indices 1 2 3 4 5 6 
#
# 1 0.011303 -0.004089 -0.000244 0.000000 0.000000 0.000000
# 2 -0.004089 0.010858 -0.007302 0.000000 0.000000 0.000000
# 3 -0.000244 -0.007302 0.018331 0.000000 0.000000 0.000000
# 4 0.000000 0.000000 0.000000 0.060735 0.000000 0.000000
# 5 0.000000 0.000000 0.000000 0.000000 0.026607 0.000000
# 6 0.000000 0.000000 0.000000 0.000000 0.000000 0.083432
#
#
# Mechanical properties :
#
#
# Convention : Reuss Voigt Hill
#
# Bulk Modulus (GPa) = 58.06931 70.79457 64.43194
# Shear Modulus (GPa) = 20.80935 26.59109 23.70022
#
# Velocity S-wave (km/s) = 3.32014 3.75315 3.54327
# Velocity P-wave (km/s) = 6.74232 7.50224 7.13241
#
# Compressibility (1/GPa) = 0.01722080
#
# Stress axis : x y z
#
# Youngs Moduli (GPa) = 88.47543 92.09472 54.55367
#
# Poissons Ratio (x) = 0.37660 0.01333
# Poissons Ratio (y) = 0.36180 0.39834
# Poissons Ratio (z) = 0.02162 0.67245
#
# Static dielectric constant tensor:
#      x y z
#    x 1.654280 0.000000 0.000000 
#    y 0.000000 1.662560 0.000000 
#    z 0.000000 0.000000 1.686900 
# 
# From -- ./inp_files/52733.got.cif
#   From: 2010.05.17/outbox.cif.g08.bks.cpg/sg65_27_cif.got.tgz:52733.got - 2010.06.03 17:01:31.
