data_PCOD9491716
_publ_section_title
;
Structure prediction by ZEFSAII (Michael W. Deem and Ramdas Pophale) SiO2 
 PCOD9491716
Probable space group: C M M M
;
_chemical_formula_sum "Si O2"
_cell_formula_units_Z 112
_cell_length_a 29.977517
_cell_length_b 13.628015
_cell_length_c 13.982858
_cell_angle_alpha 90.000000
_cell_angle_beta 90.000000
_cell_angle_gamma 90.000000
_cell_volume 5712.473628
_symmetry_space_group_name_H-M "C M M M"
_symmetry_group_IT_number 65
_symmetry_cell_setting 'orthorhombic'
loop_
_space_group_symop_operation_xyz
x,y,z
-x,-y,z
x,-y,-z
-x,y,-z
-x,-y,-z
x,y,-z
-x,y,z
x,-y,z
1/2+x,1/2+y,z
1/2-x,1/2-y,z
1/2+x,1/2-y,-z
1/2-x,1/2+y,-z
1/2-x,1/2-y,-z
1/2+x,1/2+y,-z
1/2-x,1/2+y,z
1/2+x,1/2-y,z
loop_
_atom_site_type_symbol
_atom_site_label
_atom_site_fract_x
_atom_site_fract_y
_atom_site_fract_z
Si Si1 0.780633 0.616661 0.890677
Si Si2 0.319994 0.112383 0.386551
Si Si3 0.949593 0.616188 0.208002
Si Si4 0.914075 0.281217 0.387838
Si Si5 0.870069 0.882984 0.714712
Si Si6 0.370813 0.762747 0.112945
Si Si7 0.229946 0.117676 0.708207
O O1 0.790451 0.500000 0.882179
O O2 0.825309 0.676528 0.866760
O O3 0.740020 0.638041 0.819443
O O4 0.768256 0.636600 0.000000
O O5 0.313516 0.109922 0.500000
O O6 0.365846 0.168123 0.369013
O O7 0.274618 0.155092 0.342892
O O8 0.325612 0.000000 0.351813
O O9 0.940879 0.500000 0.213089
O O10 0.945927 0.663319 0.314021
O O11 0.912514 0.669384 0.143688
O O12 0.000000 0.630934 0.171758
O O13 0.924880 0.289431 0.500000
O O14 0.905856 0.169893 0.353351
O O15 0.873094 0.832021 0.818691
O O16 0.819914 0.857157 0.678313
O O17 0.874543 0.000000 0.718914
O O18 0.371805 0.741005 0.000000
O O19 0.231600 0.000000 0.694476
#
# Coordination Sequence:
#
# PCOD9491716 Si02
#       7
#    16  16  16  16  16  16  16
#     4   9  17  29  47  73 105 140 176 214 261 321
#     4   9  17  29  47  73 105 140 176 214 261 321
#     4  10  21  37  60  91 121 142 161 194 248 320
#     4  10  21  36  55  79 108 144 182 219 263 318
#     4  10  22  37  52  73 102 141 191 241 279 307
#     4  10  21  36  55  79 108 144 182 219 263 318
#     4   9  17  30  47  68 100 140 180 226 273 310
#
# _framework density 19.606217999999998
#
# number of rings (size 3 to 8) (size 9 to 14) (size 15 to 20)
#    0.000    2.429    0.000    2.571    0.000    7.429 
#    0.000    7.143    0.000    6.857    0.000    8.000 
#    0.000    0.000    0.000    0.000    0.000    0.000 
#
# Total GULP energy -312626.136430 kJ/mol
# GULP energy per Si atom -5582.609579 kJ/mol
# Density = 1.956159 g / cm^3
# Si number density = 19.606218 Si / 1000 Ang^3
#
#
#
# Elastic Constant Matrix: (Units=GPa)
#
#
# Indices 1 2 3 4 5 6 
#
# 1 49.3181 12.0089 -6.6353 0.0000 0.0000 0.0000
# 2 12.0089 94.4748 -10.2489 0.0000 0.0000 0.0000
# 3 -6.6353 -10.2489 23.1480 0.0000 0.0000 0.0000
# 4 0.0000 0.0000 0.0000 11.3767 0.0000 0.0000
# 5 0.0000 0.0000 0.0000 0.0000 -15.6485 0.0000
# 6 0.0000 0.0000 0.0000 0.0000 0.0000 24.2700
#
#
#
# Elastic Compliance Matrix: (Units=1/GPa)
#
#
# Indices 1 2 3 4 5 6 
#
# 1 0.021505 -0.002169 0.005204 0.000000 0.000000 0.000000
# 2 -0.002169 0.011338 0.004398 0.000000 0.000000 0.000000
# 3 0.005204 0.004398 0.046639 0.000000 0.000000 0.000000
# 4 0.000000 0.000000 0.000000 0.087899 0.000000 0.000000
# 5 0.000000 0.000000 0.000000 0.000000 -0.063904 0.000000
# 6 0.000000 0.000000 0.000000 0.000000 0.000000 0.041203
#
#
# Mechanical properties :
#
#
# Convention : Reuss Voigt Hill
#
# Bulk Modulus (GPa) = 10.59908 17.46558 14.03233
# Shear Modulus (GPa) = 31.00520 15.45405 23.22963
#
# Velocity S-wave (km/s) = 3.98099 2.81057 3.44584
# Velocity P-wave (km/s) = 5.15255 4.41134 4.79629
#
# Compressibility (1/GPa) = 0.09434784
#
# Stress axis : x y z
#
# Youngs Moduli (GPa) = 46.50117 88.20168 21.44116
#
# Poissons Ratio (x) = 0.19131 -0.11158
# Poissons Ratio (y) = 0.10086 -0.09430
# Poissons Ratio (z) = -0.24199 -0.38792
#
# Static dielectric constant tensor:
#      x y z
#    x 1.672590 0.000000 0.000000 
#    y 0.000000 1.733290 0.000000 
#    z 0.000000 0.000000 1.696670 
# 
# From -- ./inp_files/45770.got.cif
#   From: 2010.05.17/outbox.cif.g08.bks.cpg/sg65_23_cif.got.tgz:45770.got - 2010.06.03 17:01:31.
