data_PCOD9491644
_publ_section_title
;
Structure prediction by ZEFSAII (Michael W. Deem and Ramdas Pophale) SiO2 
 PCOD9491644
Probable space group: C M M M
;
_chemical_formula_sum "Si O2"
_cell_formula_units_Z 88
_cell_length_a 8.698031
_cell_length_b 19.848239
_cell_length_c 28.360810
_cell_angle_alpha 90.000000
_cell_angle_beta 90.000000
_cell_angle_gamma 90.000000
_cell_volume 4896.227201
_symmetry_space_group_name_H-M "C M M M"
_symmetry_group_IT_number 65
_symmetry_cell_setting 'orthorhombic'
loop_
_space_group_symop_operation_xyz
x,y,z
-x,-y,z
x,-y,-z
-x,y,-z
-x,-y,-z
x,y,-z
-x,y,z
x,-y,z
1/2+x,1/2+y,z
1/2-x,1/2-y,z
1/2+x,1/2-y,-z
1/2-x,1/2+y,-z
1/2-x,1/2-y,-z
1/2+x,1/2+y,-z
1/2-x,1/2+y,z
1/2+x,1/2-y,z
loop_
_atom_site_type_symbol
_atom_site_label
_atom_site_fract_x
_atom_site_fract_y
_atom_site_fract_z
Si Si1 0.316661 0.080135 0.260286
Si Si2 0.316119 0.324504 0.446490
Si Si3 0.817313 0.822190 0.183292
Si Si4 0.184940 0.079191 0.000000
Si Si5 0.185400 0.577952 0.632488
Si Si6 0.815878 0.676062 0.920598
O O1 0.500000 0.092558 0.255224
O O2 0.226742 0.122360 0.221649
O O3 0.271291 0.098004 0.314021
O O4 0.292790 0.000000 0.254713
O O5 0.270818 0.344757 0.500000
O O6 0.500000 0.321765 0.444504
O O7 0.250000 0.250000 0.438253
O O8 0.254680 0.375085 0.407333
O O9 0.750000 0.750000 0.198810
O O10 0.740037 0.837115 0.132749
O O11 0.000000 0.817168 0.177053
O O12 0.251119 0.119011 0.955037
O O13 0.000000 0.083882 0.000000
O O14 0.226876 0.000000 0.000000
O O15 0.231233 0.500000 0.625593
O O16 0.000000 0.580691 0.630283
O O17 0.750000 0.750000 0.933951
O O18 0.000000 0.678167 0.922766
#
# Coordination Sequence:
#
# PCOD9491644 Si02
#       6
#    16  16  16   8  16  16
#     4   9  19  37  58  80 109 144 181 222 270 323
#     4  10  21  36  54  77 106 140 178 222 271 322
#     4  11  22  37  58  84 113 145 185 228 272 322
#     4  11  24  41  60  85 117 149 186 231 274 321
#     4   9  19  36  57  80 107 141 180 221 267 322
#     4  11  22  39  62  85 113 148 187 228 274 327
#
# _framework density 17.973023000000001
#
# number of rings (size 3 to 8) (size 9 to 14) (size 15 to 20)
#    0.000    1.909    0.000    6.545    0.000    5.091 
#    0.000    3.636    0.000    0.000    0.000    0.000 
#    0.000    0.000    0.000    0.000    0.000    0.000 
#
# Total GULP energy -245772.696215 kJ/mol
# GULP energy per Si atom -5585.743096 kJ/mol
# Density = 1.793212 g / cm^3
# Si number density = 17.973023 Si / 1000 Ang^3
#
#
#
# Elastic Constant Matrix: (Units=GPa)
#
#
# Indices 1 2 3 4 5 6 
#
# 1 101.0341 58.5196 56.5177 0.0000 0.0000 0.0000
# 2 58.5196 105.5452 93.6851 0.0000 0.0000 0.0000
# 3 56.5177 93.6851 116.6745 0.0000 0.0000 0.0000
# 4 0.0000 0.0000 0.0000 42.2536 0.0000 0.0000
# 5 0.0000 0.0000 0.0000 0.0000 33.3764 0.0000
# 6 0.0000 0.0000 0.0000 0.0000 0.0000 30.4385
#
#
#
# Elastic Compliance Matrix: (Units=1/GPa)
#
#
# Indices 1 2 3 4 5 6 
#
# 1 0.014714 -0.006376 -0.002008 0.000000 0.000000 0.000000
# 2 -0.006376 0.035744 -0.025613 0.000000 0.000000 0.000000
# 3 -0.002008 -0.025613 0.030110 0.000000 0.000000 0.000000
# 4 0.000000 0.000000 0.000000 0.023667 0.000000 0.000000
# 5 0.000000 0.000000 0.000000 0.000000 0.029961 0.000000
# 6 0.000000 0.000000 0.000000 0.000000 0.000000 0.032853
#
#
# Mechanical properties :
#
#
# Convention : Reuss Voigt Hill
#
# Bulk Modulus (GPa) = 79.52516 82.29985 80.91251
# Shear Modulus (GPa) = 20.90004 28.84911 24.87457
#
# Velocity S-wave (km/s) = 3.41377 4.01076 3.72424
# Velocity P-wave (km/s) = 7.73831 8.20600 7.97558
#
# Compressibility (1/GPa) = 0.01257464
#
# Stress axis : x y z
#
# Youngs Moduli (GPa) = 67.96360 27.97634 33.21181
#
# Poissons Ratio (x) = 0.17837 0.06669
# Poissons Ratio (y) = 0.43332 0.85065
# Poissons Ratio (z) = 0.13647 0.71656
#
# Static dielectric constant tensor:
#      x y z
#    x 1.603580 0.000000 0.000000 
#    y 0.000000 1.586730 0.000000 
#    z 0.000000 0.000000 1.604560 
# 
# From -- ./inp_files/70936.got.cif
#   From: 2010.05.17/outbox.cif.g08.bks.cpg/sg65_36_cif.got.tgz:70936.got - 2010.06.03 17:01:31.
