data_PCOD9491422
_publ_section_title
;
Structure prediction by ZEFSAII (Michael W. Deem and Ramdas Pophale) SiO2 
 PCOD9491422
Probable space group: C M M M
;
_chemical_formula_sum "Si O2"
_cell_formula_units_Z 88
_cell_length_a 25.209422
_cell_length_b 19.049233
_cell_length_c 9.974610
_cell_angle_alpha 90.000000
_cell_angle_beta 90.000000
_cell_angle_gamma 90.000000
_cell_volume 4790.008745
_symmetry_space_group_name_H-M "C M M M"
_symmetry_group_IT_number 65
_symmetry_cell_setting 'orthorhombic'
loop_
_space_group_symop_operation_xyz
x,y,z
-x,-y,z
x,-y,-z
-x,y,-z
-x,-y,-z
x,y,-z
-x,y,z
x,-y,z
1/2+x,1/2+y,z
1/2-x,1/2-y,z
1/2+x,1/2-y,-z
1/2-x,1/2+y,-z
1/2-x,1/2-y,-z
1/2+x,1/2+y,-z
1/2-x,1/2+y,z
1/2+x,1/2-y,z
loop_
_atom_site_type_symbol
_atom_site_label
_atom_site_fract_x
_atom_site_fract_y
_atom_site_fract_z
Si Si1 0.173520 0.318966 0.500000
Si Si2 0.114928 0.683603 0.776054
Si Si3 0.655608 0.583387 0.237734
Si Si4 0.940235 0.817876 0.159413
Si Si5 0.237718 0.080841 0.000000
Si Si6 0.194900 0.290778 0.000000
Si Si7 0.564028 0.084077 0.000000
Si Si8 0.297066 0.346127 0.500000
O O1 0.140922 0.337620 0.365004
O O2 0.232992 0.350413 0.500000
O O3 0.184290 0.234955 0.500000
O O4 0.072506 0.746108 0.761833
O O5 0.089719 0.622697 0.869552
O O6 0.160776 0.720559 0.867066
O O7 0.646874 0.500000 0.247246
O O8 0.602398 0.623401 0.195938
O O9 0.700635 0.595918 0.126433
O O10 0.678574 0.615802 0.372232
O O11 0.000000 0.841454 0.186374
O O12 0.936241 0.801799 0.000000
O O13 0.289109 0.127987 0.000000
O O14 0.252480 0.000000 0.000000
O O15 0.250000 0.250000 0.000000
O O16 0.500000 0.095467 0.000000
O O17 0.573483 0.000000 0.000000
#
# Coordination Sequence:
#
# PCOD9491422 Si02
#       8
#     8  16  16  16   8   8   8   8
#     4  11  24  38  64  90 124 166 209 250 300 374
#     4  11  22  39  60  93 125 159 202 255 306 373
#     4  11  22  39  58  84 122 164 208 254 307 361
#     4  11  21  37  62  90 120 156 205 260 314 361
#     4  10  21  35  54  81 113 150 198 251 301 359
#     4  11  21  31  57  83 117 152 203 253 305 360
#     4  10  22  44  72  96 121 157 197 249 325 388
#     4  11  23  40  58  86 124 168 209 244 304 361
#
# _framework density 18.371575
#
# number of rings (size 3 to 8) (size 9 to 14) (size 15 to 20)
#    0.000    1.182    4.545    3.000    2.545    1.818 
#    0.000    6.364    0.000    2.182    0.000    0.000 
#    0.000    0.000    0.000    0.000    0.000    0.000 
#
# Total GULP energy -245798.824168 kJ/mol
# GULP energy per Si atom -5586.336913 kJ/mol
# Density = 1.832976 g / cm^3
# Si number density = 18.371575 Si / 1000 Ang^3
#
#
#
# Elastic Constant Matrix: (Units=GPa)
#
#
# Indices 1 2 3 4 5 6 
#
# 1 89.9667 27.4733 30.1999 0.0000 0.0000 0.0000
# 2 27.4733 56.9081 7.1289 0.0000 0.0000 0.0000
# 3 30.1999 7.1289 97.1383 0.0000 0.0000 0.0000
# 4 0.0000 0.0000 0.0000 18.7897 0.0000 0.0000
# 5 0.0000 0.0000 0.0000 0.0000 30.6229 0.0000
# 6 0.0000 0.0000 0.0000 0.0000 0.0000 32.1092
#
#
#
# Elastic Compliance Matrix: (Units=1/GPa)
#
#
# Indices 1 2 3 4 5 6 
#
# 1 0.014437 -0.006467 -0.004014 0.000000 0.000000 0.000000
# 2 -0.006467 0.020632 0.000496 0.000000 0.000000 0.000000
# 3 -0.004014 0.000496 0.011506 0.000000 0.000000 0.000000
# 4 0.000000 0.000000 0.000000 0.053221 0.000000 0.000000
# 5 0.000000 0.000000 0.000000 0.000000 0.032655 0.000000
# 6 0.000000 0.000000 0.000000 0.000000 0.000000 0.031144
#
#
# Mechanical properties :
#
#
# Convention : Reuss Voigt Hill
#
# Bulk Modulus (GPa) = 37.58491 41.51304 39.54898
# Shear Modulus (GPa) = 25.98303 28.25176 27.11739
#
# Velocity S-wave (km/s) = 3.76481 3.92573 3.84611
# Velocity P-wave (km/s) = 6.27702 6.57220 6.42631
#
# Compressibility (1/GPa) = 0.02660642
#
# Stress axis : x y z
#
# Youngs Moduli (GPa) = 69.26411 48.46818 86.91055
#
# Poissons Ratio (x) = 0.31345 0.34885
# Poissons Ratio (y) = 0.44794 -0.04314
# Poissons Ratio (z) = 0.27802 -0.02406
#
# Static dielectric constant tensor:
#      x y z
#    x 1.621010 0.000000 0.000000 
#    y 0.000000 1.641680 0.000000 
#    z 0.000000 0.000000 1.617010 
# 
# From -- ./inp_files/14103.got.cif
#   From: 2010.05.17/outbox.cif.g08.bks.cpg/sg65_8_cif.got.tgz:14103.got - 2010.06.03 17:01:31.
