data_PCOD9491552
_publ_section_title
;
Structure prediction by ZEFSAII (Michael W. Deem and Ramdas Pophale) SiO2 
 PCOD9491552
Probable space group: C M M M
;
_chemical_formula_sum "Si O2"
_cell_formula_units_Z 80
_cell_length_a 8.719601
_cell_length_b 19.162741
_cell_length_c 27.047334
_cell_angle_alpha 90.000000
_cell_angle_beta 90.000000
_cell_angle_gamma 90.000000
_cell_volume 4519.378408
_symmetry_space_group_name_H-M "C M M M"
_symmetry_group_IT_number 65
_symmetry_cell_setting 'orthorhombic'
loop_
_space_group_symop_operation_xyz
x,y,z
-x,-y,z
x,-y,-z
-x,y,-z
-x,-y,-z
x,y,-z
-x,y,z
x,-y,z
1/2+x,1/2+y,z
1/2-x,1/2-y,z
1/2+x,1/2-y,-z
1/2-x,1/2+y,-z
1/2-x,1/2-y,-z
1/2+x,1/2+y,-z
1/2-x,1/2+y,z
1/2+x,1/2-y,z
loop_
_atom_site_type_symbol
_atom_site_label
_atom_site_fract_x
_atom_site_fract_y
_atom_site_fract_z
Si Si1 0.815102 0.328104 0.737052
Si Si2 0.316439 0.171225 0.846117
Si Si3 0.185501 0.580551 0.643506
Si Si4 0.683569 0.326373 0.442864
Si Si5 0.316480 0.328977 0.946013
O O1 0.750000 0.250000 0.731699
O O2 0.775083 0.357284 0.791761
O O3 0.764193 0.376772 0.692122
O O4 0.000000 0.323163 0.735567
O O5 0.500000 0.173930 0.850392
O O6 0.250000 0.250000 0.844928
O O7 0.249498 0.137500 0.895981
O O8 0.232342 0.500000 0.646168
O O9 0.250500 0.617925 0.595118
O O10 0.000000 0.583125 0.641793
O O11 0.725546 0.341713 0.500000
O O12 0.500000 0.324062 0.439407
O O13 0.750000 0.250000 0.430609
O O14 0.500000 0.325113 0.942191
O O15 0.250000 0.250000 0.947041
O O16 0.277427 0.360317 0.000000
#
# Coordination Sequence:
#
# PCOD9491552 Si02
#       5
#    16  16  16  16  16
#     4   9  18  31  47  68  92 121 158 198 239 282
#     4   9  15  23  36  54  78 108 144 184 225 272
#     4  10  21  36  53  74 102 134 166 201 243 291
#     4  10  21  37  57  80 105 132 164 202 241 284
#     4   9  15  21  30  47  74 107 141 177 220 271
#
# _framework density 17.701550000000001
#
# number of rings (size 3 to 8) (size 9 to 14) (size 15 to 20)
#    0.000    2.600    0.000    3.600    0.000    6.400 
#    0.000    2.000    0.000    0.000    0.000    0.000 
#    0.000    0.800    0.000   10.000    0.000    5.400 
#
# Total GULP energy -222836.850341 kJ/mol
# GULP energy per Si atom -5570.921259 kJ/mol
# Density = 1.766126 g / cm^3
# Si number density = 17.701550 Si / 1000 Ang^3
#
#
#
# Elastic Constant Matrix: (Units=GPa)
#
#
# Indices 1 2 3 4 5 6 
#
# 1 35.5598 22.2571 42.0647 0.0000 0.0000 0.0000
# 2 22.2571 70.7038 84.5330 0.0000 0.0000 0.0000
# 3 42.0647 84.5330 170.4203 0.0000 0.0000 0.0000
# 4 0.0000 0.0000 0.0000 -3.6681 0.0000 0.0000
# 5 0.0000 0.0000 0.0000 0.0000 28.7058 0.0000
# 6 0.0000 0.0000 0.0000 0.0000 0.0000 14.6061
#
#
#
# Elastic Compliance Matrix: (Units=1/GPa)
#
#
# Indices 1 2 3 4 5 6 
#
# 1 0.039825 -0.001926 -0.008874 0.000000 0.000000 0.000000
# 2 -0.001926 0.034848 -0.016810 0.000000 0.000000 0.000000
# 3 -0.008874 -0.016810 0.016397 0.000000 0.000000 0.000000
# 4 0.000000 0.000000 0.000000 -0.272623 0.000000 0.000000
# 5 0.000000 0.000000 0.000000 0.000000 0.034836 0.000000
# 6 0.000000 0.000000 0.000000 0.000000 0.000000 0.068464
#
#
# Mechanical properties :
#
#
# Convention : Reuss Voigt Hill
#
# Bulk Modulus (GPa) = 27.89564 63.82148 45.85856
# Shear Modulus (GPa) = -451.20430 16.45070 -217.37680
#
# Velocity S-wave (km/s) = -15.98276 3.05181 -11.09358
# Velocity P-wave (km/s) = 18.02235 6.96782 11.75276
#
# Compressibility (1/GPa) = 0.03584790
#
# Stress axis : x y z
#
# Youngs Moduli (GPa) = 25.10964 28.69617 60.98856
#
# Poissons Ratio (x) = 0.05528 0.54124
# Poissons Ratio (y) = 0.04837 1.02522
# Poissons Ratio (z) = 0.22283 0.48238
#
# Static dielectric constant tensor:
#      x y z
#    x 1.597380 0.000000 0.000000 
#    y 0.000000 1.554290 0.000000 
#    z 0.000000 0.000000 1.675660 
# 
# From -- ./inp_files/72823.got.cif
#   From: 2010.05.17/outbox.cif.g08.bks.cpg/sg65_37_cif.got.tgz:72823.got - 2010.06.03 17:01:31.
