data_PCOD9491434
_publ_section_title
;
Structure prediction by ZEFSAII (Michael W. Deem and Ramdas Pophale) SiO2 
 PCOD9491434
Probable space group: C M M M
;
_chemical_formula_sum "Si O2"
_cell_formula_units_Z 100
_cell_length_a 22.371826
_cell_length_b 26.803252
_cell_length_c 7.689974
_cell_angle_alpha 90.000000
_cell_angle_beta 90.000000
_cell_angle_gamma 90.000000
_cell_volume 4611.198245
_symmetry_space_group_name_H-M "C M M M"
_symmetry_group_IT_number 65
_symmetry_cell_setting 'orthorhombic'
loop_
_space_group_symop_operation_xyz
x,y,z
-x,-y,z
x,-y,-z
-x,y,-z
-x,-y,-z
x,y,-z
-x,y,z
x,-y,z
1/2+x,1/2+y,z
1/2-x,1/2-y,z
1/2+x,1/2-y,-z
1/2-x,1/2+y,-z
1/2-x,1/2-y,-z
1/2+x,1/2+y,-z
1/2-x,1/2+y,z
1/2+x,1/2-y,z
loop_
_atom_site_type_symbol
_atom_site_label
_atom_site_fract_x
_atom_site_fract_y
_atom_site_fract_z
Si Si1 0.500000 0.000000 0.733178
Si Si2 0.500000 0.116485 0.695283
Si Si3 0.660648 0.365389 0.801791
Si Si4 0.386612 0.827753 0.291583
Si Si5 0.354582 0.000000 0.205979
Si Si6 0.786176 0.400519 0.797199
Si Si7 0.065549 0.058740 0.291313
Si Si8 0.068897 0.783047 0.209137
O O1 0.500000 0.942369 0.680113
O O2 0.572932 0.000000 0.779419
O O3 0.500000 0.138126 0.500000
O O4 0.440262 0.137255 0.777985
O O5 0.722518 0.384049 0.718439
O O6 0.617745 0.412928 0.802520
O O7 0.617761 0.322680 0.722249
O O8 0.674598 0.348869 0.000000
O O9 0.380607 0.832457 0.500000
O O10 0.327436 0.851697 0.214230
O O11 0.405556 0.771803 0.247761
O O12 0.322422 0.949086 0.274980
O O13 0.344999 0.000000 0.000000
O O14 0.774642 0.412408 0.000000
O O15 0.071142 0.065334 0.500000
O O16 0.000000 0.078062 0.238854
O O17 0.067378 0.000000 0.257174
O O18 0.000000 0.787908 0.273997
O O19 0.065915 0.789514 0.000000
#
# Coordination Sequence:
#
# PCOD9491434 Si02
#       8
#     4   8  16  16   8  16  16  16
#     4  12  18  36  60  86 116 146 192 240 298 334
#     4  10  21  35  55  84 117 147 185 233 292 343
#     4  10  22  38  60  86 117 154 198 247 289 345
#     4  11  22  39  60  86 116 150 194 241 290 350
#     4  10  21  35  55  84 116 150 192 234 286 350
#     4  10  22  40  58  83 119 158 194 237 292 351
#     4   9  19  36  57  83 117 154 193 241 299 358
#     4  10  21  38  60  87 115 149 192 242 298 350
#
# _framework density 21.686337000000002
#
# number of rings (size 3 to 8) (size 9 to 14) (size 15 to 20)
#    0.000    1.920    2.400    1.680    1.120    3.200 
#    0.000    4.400    0.000    0.000    0.000    0.000 
#    0.000    0.000    0.000    0.000    0.000    0.000 
#
# Total GULP energy -278524.314231 kJ/mol
# GULP energy per Si atom -5570.486285 kJ/mol
# Density = 2.163698 g / cm^3
# Si number density = 21.686337 Si / 1000 Ang^3
#
#
#
# Elastic Constant Matrix: (Units=GPa)
#
#
# Indices 1 2 3 4 5 6 
#
# 1 196.3101 76.0544 20.6211 0.0000 0.0000 0.0000
# 2 76.0544 109.1513 15.7744 0.0000 0.0000 0.0000
# 3 20.6211 15.7744 26.0392 0.0000 0.0000 0.0000
# 4 0.0000 0.0000 0.0000 16.2748 0.0000 0.0000
# 5 0.0000 0.0000 0.0000 0.0000 0.4994 0.0000
# 6 0.0000 0.0000 0.0000 0.0000 0.0000 46.0617
#
#
#
# Elastic Compliance Matrix: (Units=1/GPa)
#
#
# Indices 1 2 3 4 5 6 
#
# 1 0.007173 -0.004578 -0.002907 0.000000 0.000000 0.000000
# 2 -0.004578 0.012962 -0.004227 0.000000 0.000000 0.000000
# 3 -0.002907 -0.004227 0.043267 0.000000 0.000000 0.000000
# 4 0.000000 0.000000 0.000000 0.061445 0.000000 0.000000
# 5 0.000000 0.000000 0.000000 0.000000 2.002303 0.000000
# 6 0.000000 0.000000 0.000000 0.000000 0.000000 0.021710
#
#
# Mechanical properties :
#
#
# Convention : Reuss Voigt Hill
#
# Bulk Modulus (GPa) = 25.01405 61.82227 43.41816
# Shear Modulus (GPa) = 2.28769 27.17055 14.72912
#
# Velocity S-wave (km/s) = 1.02820 3.54346 2.60895
# Velocity P-wave (km/s) = 3.60126 6.73133 5.39814
#
# Compressibility (1/GPa) = 0.03997754
#
# Stress axis : x y z
#
# Youngs Moduli (GPa) = 139.41389 77.14737 23.11243
#
# Poissons Ratio (x) = 0.35316 0.06719
# Poissons Ratio (y) = 0.63821 0.09770
# Poissons Ratio (z) = 0.40530 0.32612
#
# Static dielectric constant tensor:
#      x y z
#    x 1.841320 0.000000 0.000000 
#    y 0.000000 1.767280 0.000000 
#    z 0.000000 0.000000 1.822940 
# 
# From -- ./inp_files/12488.got.cif
#   From: 2010.05.17/outbox.cif.g08.bks.cpg/sg65_7_cif.got.tgz:12488.got - 2010.06.03 17:01:31.
