data_PCOD9491432
_publ_section_title
;
Structure prediction by ZEFSAII (Michael W. Deem and Ramdas Pophale) SiO2 
 PCOD9491432
Probable space group: C M M M
;
_chemical_formula_sum "Si O2"
_cell_formula_units_Z 66
_cell_length_a 20.099127
_cell_length_b 8.182219
_cell_length_c 20.722450
_cell_angle_alpha 90.000000
_cell_angle_beta 90.000000
_cell_angle_gamma 90.000000
_cell_volume 3407.920023
_symmetry_space_group_name_H-M "C M M M"
_symmetry_group_IT_number 65
_symmetry_cell_setting 'orthorhombic'
loop_
_space_group_symop_operation_xyz
x,y,z
-x,-y,z
x,-y,-z
-x,y,-z
-x,-y,-z
x,y,-z
-x,y,z
x,-y,z
1/2+x,1/2+y,z
1/2-x,1/2-y,z
1/2+x,1/2-y,-z
1/2-x,1/2+y,-z
1/2-x,1/2-y,-z
1/2+x,1/2+y,-z
1/2-x,1/2+y,z
1/2+x,1/2-y,z
loop_
_atom_site_type_symbol
_atom_site_label
_atom_site_fract_x
_atom_site_fract_y
_atom_site_fract_z
Si Si1 0.673342 0.197997 0.500000
Si Si2 0.000000 0.000000 0.000000
Si Si3 0.425022 0.307258 0.754477
Si Si4 0.606566 0.805217 0.000000
Si Si5 0.424394 0.805115 0.387972
Si Si6 0.325024 0.809390 0.137844
O O1 0.750000 0.250000 0.500000
O O2 0.630979 0.256178 0.437790
O O3 0.673312 0.000000 0.500000
O O4 0.056617 0.849755 0.000000
O O5 0.500000 0.249920 0.771793
O O6 0.427725 0.500000 0.743113
O O7 0.406319 0.227593 0.686296
O O8 0.374788 0.274784 0.812139
O O9 0.649626 0.787486 0.935097
O O10 0.582015 0.000000 0.000000
O O11 0.500000 0.740367 0.398848
O O12 0.428050 0.000000 0.397327
O O13 0.250000 0.750000 0.144621
O O14 0.327490 0.000000 0.153140
#
# Coordination Sequence:
#
# PCOD9491432 Si02
#       6
#     8   2  16   8  16  16
#     4  10  21  35  55  83 113 148 190 238 294 358
#     4  12  26  40  76  94 132 168 200 270 324 354
#     4  10  22  38  60  89 121 155 200 247 301 363
#     4  10  26  44  65 100 129 164 214 257 317 380
#     4   9  18  36  59  82 110 150 196 243 294 348
#     4  11  24  42  64  89 124 163 206 254 304 370
#
# _framework density 19.366651999999998
#
# number of rings (size 3 to 8) (size 9 to 14) (size 15 to 20)
#    0.000    1.939    0.000    2.364    5.091    4.848 
#    0.000    2.424    0.000    3.636    0.000    0.000 
#    0.000    0.000    0.000    0.000    0.000    0.000 
#
# Total GULP energy -183853.501741 kJ/mol
# GULP energy per Si atom -5571.318235 kJ/mol
# Density = 1.932257 g / cm^3
# Si number density = 19.366652 Si / 1000 Ang^3
#
#
#
# Elastic Constant Matrix: (Units=GPa)
#
#
# Indices 1 2 3 4 5 6 
#
# 1 130.0217 24.6947 93.6725 0.0000 0.0000 0.0000
# 2 24.6947 49.5526 11.9683 0.0000 0.0000 0.0000
# 3 93.6725 11.9683 124.4519 0.0000 0.0000 0.0000
# 4 0.0000 0.0000 0.0000 -11.6526 0.0000 0.0000
# 5 0.0000 0.0000 0.0000 0.0000 -2.6182 0.0000
# 6 0.0000 0.0000 0.0000 0.0000 0.0000 34.2282
#
#
#
# Elastic Compliance Matrix: (Units=1/GPa)
#
#
# Indices 1 2 3 4 5 6 
#
# 1 0.018371 -0.005954 -0.013255 0.000000 0.000000 0.000000
# 2 -0.005954 0.022590 0.002309 0.000000 0.000000 0.000000
# 3 -0.013255 0.002309 0.017790 0.000000 0.000000 0.000000
# 4 0.000000 0.000000 0.000000 -0.085817 0.000000 0.000000
# 5 0.000000 0.000000 0.000000 0.000000 -0.381945 0.000000
# 6 0.000000 0.000000 0.000000 0.000000 0.000000 0.029216
#
#
# Mechanical properties :
#
#
# Convention : Reuss Voigt Hill
#
# Bulk Modulus (GPa) = 40.07818 62.74411 51.41115
# Shear Modulus (GPa) = -14.80699 15.57087 0.38194
#
# Velocity S-wave (km/s) = -2.76807 2.83857 0.44457
# Velocity P-wave (km/s) = 3.24393 6.57356 5.18337
#
# Compressibility (1/GPa) = 0.02495123
#
# Stress axis : x y z
#
# Youngs Moduli (GPa) = 54.43252 44.26724 56.21104
#
# Poissons Ratio (x) = 0.26357 0.74509
# Poissons Ratio (y) = 0.32409 -0.12979
# Poissons Ratio (z) = 0.72151 -0.10221
#
# Static dielectric constant tensor:
#      x y z
#    x 1.655710 0.000000 0.000000 
#    y 0.000000 1.694890 0.000000 
#    z 0.000000 0.000000 1.647290 
# 
# From -- ./inp_files/63385.got.cif
#   From: 2010.05.17/outbox.cif.g08.bks.cpg/sg65_32_cif.got.tgz:63385.got - 2010.06.03 17:01:31.
