data_PCOD9491041
_publ_section_title
;
Structure prediction by ZEFSAII (Michael W. Deem and Ramdas Pophale) SiO2 
 PCOD9491041
Probable space group: C M M M
;
_chemical_formula_sum "Si O2"
_cell_formula_units_Z 72
_cell_length_a 15.103175
_cell_length_b 29.394879
_cell_length_c 8.765762
_cell_angle_alpha 90.000000
_cell_angle_beta 90.000000
_cell_angle_gamma 90.000000
_cell_volume 3891.612649
_symmetry_space_group_name_H-M "C M M M"
_symmetry_group_IT_number 65
_symmetry_cell_setting 'orthorhombic'
loop_
_space_group_symop_operation_xyz
x,y,z
-x,-y,z
x,-y,-z
-x,y,-z
-x,-y,-z
x,y,-z
-x,y,z
x,-y,z
1/2+x,1/2+y,z
1/2-x,1/2-y,z
1/2+x,1/2-y,-z
1/2-x,1/2+y,-z
1/2-x,1/2-y,-z
1/2+x,1/2+y,-z
1/2-x,1/2+y,z
1/2+x,1/2-y,z
loop_
_atom_site_type_symbol
_atom_site_label
_atom_site_fract_x
_atom_site_fract_y
_atom_site_fract_z
Si Si1 0.500000 0.947002 0.185229
Si Si2 0.828888 0.863358 0.322861
Si Si3 0.000000 0.701282 0.317058
Si Si4 0.000000 0.193495 0.685978
Si Si5 0.636289 0.131368 0.182252
Si Si6 0.606359 0.448610 0.171173
O O1 0.414508 0.915749 0.229727
O O2 0.500000 0.000000 0.238317
O O3 0.500000 0.948946 0.000000
O O4 0.813644 0.852413 0.500000
O O5 0.909818 0.831836 0.264040
O O6 0.736752 0.862833 0.234502
O O7 0.862790 0.914552 0.299367
O O8 0.082798 0.673231 0.253799
O O9 0.000000 0.700117 0.500000
O O10 0.000000 0.753870 0.268906
O O11 0.000000 0.190811 0.500000
O O12 0.629874 0.133156 0.000000
O O13 0.500000 0.449395 0.170449
O O14 0.638297 0.500000 0.193064
O O15 0.634737 0.433528 0.000000
#
# Coordination Sequence:
#
# PCOD9491041 Si02
#       6
#     8  16   8   8  16  16
#     4   8  16  34  59  81 105 142 181 218 266 324
#     4  11  21  36  56  82 113 148 191 234 279 333
#     4  10  20  40  63  80 103 143 189 233 285 341
#     4   9  21  38  57  80 109 146 189 234 281 339
#     4  10  21  37  57  85 116 143 180 232 286 339
#     4   9  18  33  52  75 107 147 186 224 272 328
#
# _framework density 18.501325999999999
#
# number of rings (size 3 to 8) (size 9 to 14) (size 15 to 20)
#    0.000    2.333    1.111    3.000    0.000    2.222 
#    0.000   12.222    0.000   11.333    0.000    0.000 
#    0.000    0.000    0.000    0.000    0.000    0.000 
#
# Total GULP energy -200635.289843 kJ/mol
# GULP energy per Si atom -5573.202496 kJ/mol
# Density = 1.845922 g / cm^3
# Si number density = 18.501326 Si / 1000 Ang^3
#
#
#
# Elastic Constant Matrix: (Units=GPa)
#
#
# Indices 1 2 3 4 5 6 
#
# 1 131.7514 75.5890 30.3443 0.0000 0.0000 0.0000
# 2 75.5890 135.2858 31.6467 0.0000 0.0000 0.0000
# 3 30.3443 31.6467 39.9874 0.0000 0.0000 0.0000
# 4 0.0000 0.0000 0.0000 7.9949 0.0000 0.0000
# 5 0.0000 0.0000 0.0000 0.0000 38.7892 0.0000
# 6 0.0000 0.0000 0.0000 0.0000 0.0000 -2.8424
#
#
#
# Elastic Compliance Matrix: (Units=1/GPa)
#
#
# Indices 1 2 3 4 5 6 
#
# 1 0.011821 -0.005530 -0.004593 0.000000 0.000000 0.000000
# 2 -0.005530 0.011658 -0.005030 0.000000 0.000000 0.000000
# 3 -0.004593 -0.005030 0.032475 0.000000 0.000000 0.000000
# 4 0.000000 0.000000 0.000000 0.125079 0.000000 0.000000
# 5 0.000000 0.000000 0.000000 0.000000 0.025780 0.000000
# 6 0.000000 0.000000 0.000000 0.000000 0.000000 -0.351814
#
#
# Mechanical properties :
#
#
# Convention : Reuss Voigt Hill
#
# Bulk Modulus (GPa) = 38.99213 64.68718 51.83966
# Shear Modulus (GPa) = -47.10532 20.08465 -13.51033
#
# Velocity S-wave (km/s) = -5.05132 3.29839 -2.70522
# Velocity P-wave (km/s) = 3.59165 7.03884 4.28050
#
# Compressibility (1/GPa) = 0.02564620
#
# Stress axis : x y z
#
# Youngs Moduli (GPa) = 84.59667 85.77566 30.79338
#
# Poissons Ratio (x) = 0.47435 0.14145
# Poissons Ratio (y) = 0.46783 0.15489
# Poissons Ratio (z) = 0.38859 0.43146
#
# Static dielectric constant tensor:
#      x y z
#    x 1.543390 0.000000 0.000000 
#    y 0.000000 1.635610 0.000000 
#    z 0.000000 0.000000 1.646720 
# 
# From -- ./inp_files/7350.got.cif
#   From: 2010.05.17/outbox.cif.g08.bks.cpg/sg65_4_cif.got.tgz:7350.got - 2010.06.03 17:01:31.
