data_PCOD9492265
_publ_section_title
;
Structure prediction by ZEFSAII (Michael W. Deem and Ramdas Pophale) SiO2 
 PCOD9492265
Probable space group: C M M M
;
_chemical_formula_sum "Si O2"
_cell_formula_units_Z 64
_cell_length_a 13.934723
_cell_length_b 22.506336
_cell_length_c 10.480453
_cell_angle_alpha 90.000000
_cell_angle_beta 90.000000
_cell_angle_gamma 90.000000
_cell_volume 3286.875037
_symmetry_space_group_name_H-M "C M M M"
_symmetry_group_IT_number 65
_symmetry_cell_setting 'orthorhombic'
loop_
_space_group_symop_operation_xyz
x,y,z
-x,-y,z
x,-y,-z
-x,y,-z
-x,-y,-z
x,y,-z
-x,y,z
x,-y,z
1/2+x,1/2+y,z
1/2-x,1/2-y,z
1/2+x,1/2-y,-z
1/2-x,1/2+y,-z
1/2-x,1/2-y,-z
1/2+x,1/2+y,-z
1/2-x,1/2+y,z
1/2+x,1/2-y,z
loop_
_atom_site_type_symbol
_atom_site_label
_atom_site_fract_x
_atom_site_fract_y
_atom_site_fract_z
Si Si1 0.616075 0.566807 0.500000
Si Si2 0.386794 0.649864 0.262707
Si Si3 0.301157 0.873665 0.854481
Si Si4 0.614594 0.215061 0.355111
Si Si5 0.109870 0.500000 0.845943
O O1 0.654867 0.500000 0.500000
O O2 0.500000 0.563406 0.500000
O O3 0.640252 0.604310 0.624711
O O4 0.500000 0.644038 0.232882
O O5 0.313391 0.634627 0.151090
O O6 0.370383 0.716448 0.314982
O O7 0.341872 0.827292 0.752070
O O8 0.334983 0.939420 0.813366
O O9 0.335355 0.863005 0.000000
O O10 0.650344 0.204860 0.500000
O O11 0.500000 0.205694 0.356694
O O12 0.000000 0.500000 0.797403
O O13 0.105012 0.500000 0.000000
#
# Coordination Sequence:
#
# PCOD9492265 Si02
#       5
#     8  16  16  16   8
#     4   9  18  34  57  84 116 157 202 239 283 349
#     4  10  21  37  59  88 124 159 195 243 298 357
#     4  11  24  39  60  89 118 158 206 246 297 361
#     4  10  21  39  62  88 120 156 197 248 304 356
#     4   9  20  42  64  82 113 156 201 247 296 353
#
# _framework density 19.471382999999999
#
# number of rings (size 3 to 8) (size 9 to 14) (size 15 to 20)
#    0.000    2.000    1.250    1.500    3.500    5.000 
#    0.000    3.125    0.000    4.500    0.000    0.000 
#    0.000    0.000    0.000    0.000    0.000    0.000 
#
# Total GULP energy -178606.868562 kJ/mol
# GULP energy per Si atom -5581.464643 kJ/mol
# Density = 1.942706 g / cm^3
# Si number density = 19.471383 Si / 1000 Ang^3
#
#
#
# Elastic Constant Matrix: (Units=GPa)
#
#
# Indices 1 2 3 4 5 6 
#
# 1 84.9970 60.8415 48.6447 0.0000 0.0000 0.0000
# 2 60.8415 158.0244 65.4534 0.0000 0.0000 0.0000
# 3 48.6447 65.4534 96.8831 0.0000 0.0000 0.0000
# 4 0.0000 0.0000 0.0000 23.0059 0.0000 0.0000
# 5 0.0000 0.0000 0.0000 0.0000 31.0166 0.0000
# 6 0.0000 0.0000 0.0000 0.0000 0.0000 21.8396
#
#
#
# Elastic Compliance Matrix: (Units=1/GPa)
#
#
# Indices 1 2 3 4 5 6 
#
# 1 0.018624 -0.004578 -0.006258 0.000000 0.000000 0.000000
# 2 -0.004578 0.009913 -0.004398 0.000000 0.000000 0.000000
# 3 -0.006258 -0.004398 0.016435 0.000000 0.000000 0.000000
# 4 0.000000 0.000000 0.000000 0.043467 0.000000 0.000000
# 5 0.000000 0.000000 0.000000 0.000000 0.032241 0.000000
# 6 0.000000 0.000000 0.000000 0.000000 0.000000 0.045788
#
#
# Mechanical properties :
#
#
# Convention : Reuss Voigt Hill
#
# Bulk Modulus (GPa) = 68.95196 76.64264 72.79730
# Shear Modulus (GPa) = 24.78065 26.17009 25.47537
#
# Velocity S-wave (km/s) = 3.57132 3.67008 3.62104
# Velocity P-wave (km/s) = 7.24532 7.57670 7.41286
#
# Compressibility (1/GPa) = 0.01450285
#
# Stress axis : x y z
#
# Youngs Moduli (GPa) = 53.69467 100.88219 60.84576
#
# Poissons Ratio (x) = 0.46188 0.38076
# Poissons Ratio (y) = 0.24584 0.26760
# Poissons Ratio (z) = 0.33601 0.44368
#
# Static dielectric constant tensor:
#      x y z
#    x 1.720870 0.000000 0.000000 
#    y 0.000000 1.658380 0.000000 
#    z 0.000000 0.000000 1.676190 
# 
# From -- ./inp_files/6753.got.cif
#   From: 2010.05.17/outbox.cif.g08.bks.cpg/sg65_4_cif.got.tgz:6753.got - 2010.06.03 17:01:31.
