data_PCOD9492945
_publ_section_title
;
Structure prediction by ZEFSAII (Michael W. Deem and Ramdas Pophale) SiO2 
 PCOD9492945
Probable space group: C M M M
;
_chemical_formula_sum "Si O2"
_cell_formula_units_Z 50
_cell_length_a 18.230070
_cell_length_b 7.709014
_cell_length_c 19.520458
_cell_angle_alpha 90.000000
_cell_angle_beta 90.000000
_cell_angle_gamma 90.000000
_cell_volume 2743.324447
_symmetry_space_group_name_H-M "C M M M"
_symmetry_group_IT_number 65
_symmetry_cell_setting 'orthorhombic'
loop_
_space_group_symop_operation_xyz
x,y,z
-x,-y,z
x,-y,-z
-x,y,-z
-x,-y,-z
x,y,-z
-x,y,z
x,-y,z
1/2+x,1/2+y,z
1/2-x,1/2-y,z
1/2+x,1/2-y,-z
1/2-x,1/2+y,-z
1/2-x,1/2-y,-z
1/2+x,1/2+y,-z
1/2-x,1/2+y,z
1/2+x,1/2-y,z
loop_
_atom_site_type_symbol
_atom_site_label
_atom_site_fract_x
_atom_site_fract_y
_atom_site_fract_z
Si Si1 0.664331 0.795823 0.000000
Si Si2 0.836095 0.791835 0.278370
Si Si3 0.917334 0.793991 0.139748
Si Si4 0.000000 0.500000 0.500000
Si Si5 0.081083 0.500000 0.641854
O O1 0.750000 0.750000 0.000000
O O2 0.624447 0.732960 0.931392
O O3 0.658188 0.000000 0.000000
O O4 0.750000 0.750000 0.278271
O O5 0.870647 0.735300 0.205243
O O6 0.876007 0.671742 0.334329
O O7 0.846746 0.000000 0.288198
O O8 0.000000 0.720914 0.137875
O O9 0.923719 0.000000 0.148616
O O10 0.062761 0.500000 0.561445
O O11 0.000000 0.500000 0.676195
#
# Coordination Sequence:
#
# PCOD9492945 Si02
#       5
#     8  16  16   2   8
#     4  12  25  38  55  79 117 165 219 272 332 381
#     4  11  22  39  67 101 132 173 221 271 330 384
#     4  10  22  39  59  87 121 165 213 268 327 389
#     4   8  24  48  70 104 136 176 210 256 330 400
#     4  10  22  44  70  95 137 168 212 264 318 394
#
# _framework density 18.226061999999999
#
# number of rings (size 3 to 8) (size 9 to 14) (size 15 to 20)
#    0.480    0.960    1.600    3.840    2.240    7.040 
#    0.000    2.400    0.000    0.000    0.000    0.000 
#    0.000    0.000    0.000    0.000    0.000    0.000 
#
# Total GULP energy -139222.991485 kJ/mol
# GULP energy per Si atom -5568.919659 kJ/mol
# Density = 1.818458 g / cm^3
# Si number density = 18.226062 Si / 1000 Ang^3
#
#
#
# Elastic Constant Matrix: (Units=GPa)
#
#
# Indices 1 2 3 4 5 6 
#
# 1 181.7108 40.8001 88.2738 0.0000 0.0000 0.0000
# 2 40.8001 87.0811 44.5354 0.0000 0.0000 0.0000
# 3 88.2738 44.5354 176.1549 0.0000 0.0000 0.0000
# 4 0.0000 0.0000 0.0000 14.7451 0.0000 0.0000
# 5 0.0000 0.0000 0.0000 0.0000 13.2680 0.0000
# 6 0.0000 0.0000 0.0000 0.0000 0.0000 12.6515
#
#
#
# Elastic Compliance Matrix: (Units=1/GPa)
#
#
# Indices 1 2 3 4 5 6 
#
# 1 0.007520 -0.001833 -0.003305 0.000000 0.000000 0.000000
# 2 -0.001833 0.013636 -0.002529 0.000000 0.000000 0.000000
# 3 -0.003305 -0.002529 0.007972 0.000000 0.000000 0.000000
# 4 0.000000 0.000000 0.000000 0.067819 0.000000 0.000000
# 5 0.000000 0.000000 0.000000 0.000000 0.075369 0.000000
# 6 0.000000 0.000000 0.000000 0.000000 0.000000 0.079042
#
#
# Mechanical properties :
#
#
# Convention : Reuss Voigt Hill
#
# Bulk Modulus (GPa) = 72.49321 88.01840 80.25580
# Shear Modulus (GPa) = 18.43035 26.22207 22.32621
#
# Velocity S-wave (km/s) = 3.18340 3.79715 3.50374
# Velocity P-wave (km/s) = 7.30567 8.22326 7.77801
#
# Compressibility (1/GPa) = 0.01379439
#
# Stress axis : x y z
#
# Youngs Moduli (GPa) = 132.97000 73.33676 125.43289
#
# Poissons Ratio (x) = 0.13444 0.41457
# Poissons Ratio (y) = 0.24377 0.31718
# Poissons Ratio (z) = 0.43949 0.18545
#
# Static dielectric constant tensor:
#      x y z
#    x 1.627390 0.000000 0.000000 
#    y 0.000000 1.650070 0.000000 
#    z 0.000000 0.000000 0.890770 
# 
# From -- ./inp_files/53832.got.cif
#   From: 2010.05.17/outbox.cif.g08.bks.cpg/sg65_27_cif.got.tgz:53832.got - 2010.06.03 17:01:31.
