data_PCOD9492077
_publ_section_title
;
Structure prediction by ZEFSAII (Michael W. Deem and Ramdas Pophale) SiO2 
 PCOD9492077
Probable space group: C M M M
;
_chemical_formula_sum "Si O2"
_cell_formula_units_Z 72
_cell_length_a 14.644997
_cell_length_b 8.817774
_cell_length_c 31.603201
_cell_angle_alpha 90.000000
_cell_angle_beta 90.000000
_cell_angle_gamma 90.000000
_cell_volume 4081.119617
_symmetry_space_group_name_H-M "C M M M"
_symmetry_group_IT_number 65
_symmetry_cell_setting 'orthorhombic'
loop_
_space_group_symop_operation_xyz
x,y,z
-x,-y,z
x,-y,-z
-x,y,-z
-x,-y,-z
x,y,-z
-x,y,z
x,-y,z
1/2+x,1/2+y,z
1/2-x,1/2-y,z
1/2+x,1/2-y,-z
1/2-x,1/2+y,-z
1/2-x,1/2-y,-z
1/2+x,1/2+y,-z
1/2-x,1/2+y,z
1/2+x,1/2-y,z
loop_
_atom_site_type_symbol
_atom_site_label
_atom_site_fract_x
_atom_site_fract_y
_atom_site_fract_z
Si Si1 0.500000 0.182650 0.931807
Si Si2 0.350732 0.183042 0.000000
Si Si3 0.500000 0.181300 0.391779
Si Si4 0.000000 0.317543 0.292771
Si Si5 0.648578 0.682694 0.769131
Si Si6 0.000000 0.181608 0.161152
Si Si7 0.149354 0.818626 0.547801
O O1 0.588907 0.228828 0.959154
O O2 0.500000 0.245848 0.884806
O O3 0.500000 0.000000 0.930368
O O4 0.250000 0.250000 0.000000
O O5 0.345408 0.000000 0.000000
O O6 0.500000 0.221188 0.342306
O O7 0.413753 0.248120 0.416505
O O8 0.500000 0.000000 0.395095
O O9 0.088657 0.249059 0.269409
O O10 0.000000 0.500000 0.288188
O O11 0.651888 0.500000 0.766022
O O12 0.750000 0.750000 0.770276
O O13 0.589021 0.722912 0.810907
O O14 0.000000 0.000000 0.156904
O O15 0.115402 0.783698 0.500000
O O16 0.250000 0.750000 0.551120
O O17 0.152001 0.000000 0.551914
#
# Coordination Sequence:
#
# PCOD9492077 Si02
#       7
#     8   8   8   8  16   8  16
#     4   9  19  35  53  74 106 143 177 218 267 316
#     4   9  19  35  52  74 104 141 183 221 262 314
#     4  11  23  37  56  82 110 142 179 219 266 319
#     4  10  22  39  57  80 109 141 179 221 266 319
#     4  10  21  38  59  82 109 142 178 220 270 323
#     4   9  20  36  54  81 111 137 176 223 266 318
#     4  10  21  37  57  81 109 142 180 221 265 314
#
# _framework density 17.642216000000001
#
# number of rings (size 3 to 8) (size 9 to 14) (size 15 to 20)
#    0.000    2.222    0.000    3.667    0.000    9.778 
#    0.000    5.556    0.000    0.000    0.000    0.000 
#    0.000    0.000    0.000    0.000    0.000    0.000 
#
# Total GULP energy -200955.341319 kJ/mol
# GULP energy per Si atom -5582.092814 kJ/mol
# Density = 1.760206 g / cm^3
# Si number density = 17.642216 Si / 1000 Ang^3
#
#
#
# Elastic Constant Matrix: (Units=GPa)
#
#
# Indices 1 2 3 4 5 6 
#
# 1 178.6980 58.2598 108.7584 0.0000 0.0000 0.0000
# 2 58.2598 57.9499 73.9032 0.0000 0.0000 0.0000
# 3 108.7584 73.9032 197.7211 0.0000 0.0000 0.0000
# 4 0.0000 0.0000 0.0000 34.7014 0.0000 0.0000
# 5 0.0000 0.0000 0.0000 0.0000 11.3338 0.0000
# 6 0.0000 0.0000 0.0000 0.0000 0.0000 36.3320
#
#
#
# Elastic Compliance Matrix: (Units=1/GPa)
#
#
# Indices 1 2 3 4 5 6 
#
# 1 0.009204 -0.005344 -0.003065 0.000000 0.000000 0.000000
# 2 -0.005344 0.036077 -0.010545 0.000000 0.000000 0.000000
# 3 -0.003065 -0.010545 0.010685 0.000000 0.000000 0.000000
# 4 0.000000 0.000000 0.000000 0.028817 0.000000 0.000000
# 5 0.000000 0.000000 0.000000 0.000000 0.088231 0.000000
# 6 0.000000 0.000000 0.000000 0.000000 0.000000 0.027524
#
#
# Mechanical properties :
#
#
# Convention : Reuss Voigt Hill
#
# Bulk Modulus (GPa) = 55.37915 101.80132 78.59024
# Shear Modulus (GPa) = 20.45267 29.36994 24.91131
#
# Velocity S-wave (km/s) = 3.40855 4.08457 3.76177
# Velocity P-wave (km/s) = 6.85195 8.94838 7.96940
#
# Compressibility (1/GPa) = 0.01805734
#
# Stress axis : x y z
#
# Youngs Moduli (GPa) = 108.65024 27.71834 93.58737
#
# Poissons Ratio (x) = 0.14813 0.28686
# Poissons Ratio (y) = 0.58063 0.98690
# Poissons Ratio (z) = 0.33303 0.29230
#
# Static dielectric constant tensor:
#      x y z
#    x 1.577060 0.000000 0.000000 
#    y 0.000000 1.589490 0.000000 
#    z 0.000000 0.000000 1.584550 
# 
# From -- ./inp_files/77579.got.cif
#   From: 2010.05.17/outbox.cif.g08.bks.cpg/sg65_39_cif.got.tgz:77579.got - 2010.06.03 17:01:31.
