data_PCOD9492173
_publ_section_title
;
Structure prediction by ZEFSAII (Michael W. Deem and Ramdas Pophale) SiO2 
 PCOD9492173
Probable space group: C M M M
;
_chemical_formula_sum "Si O2"
_cell_formula_units_Z 80
_cell_length_a 18.925907
_cell_length_b 8.390215
_cell_length_c 26.875291
_cell_angle_alpha 90.000000
_cell_angle_beta 90.000000
_cell_angle_gamma 90.000000
_cell_volume 4267.592733
_symmetry_space_group_name_H-M "C M M M"
_symmetry_group_IT_number 65
_symmetry_cell_setting 'orthorhombic'
loop_
_space_group_symop_operation_xyz
x,y,z
-x,-y,z
x,-y,-z
-x,y,-z
-x,-y,-z
x,y,-z
-x,y,z
x,-y,z
1/2+x,1/2+y,z
1/2-x,1/2-y,z
1/2+x,1/2-y,-z
1/2-x,1/2+y,-z
1/2-x,1/2-y,-z
1/2+x,1/2+y,-z
1/2-x,1/2+y,z
1/2+x,1/2-y,z
loop_
_atom_site_type_symbol
_atom_site_label
_atom_site_fract_x
_atom_site_fract_y
_atom_site_fract_z
Si Si1 0.417691 0.693160 0.837868
Si Si2 0.414459 0.310545 0.946572
Si Si3 0.330064 0.190882 0.256379
Si Si4 0.671053 0.309091 0.556758
Si Si5 0.919274 0.307576 0.351781
O O1 0.500000 0.741236 0.831022
O O2 0.416628 0.500000 0.838762
O O3 0.391847 0.751500 0.892505
O O4 0.370175 0.752809 0.793045
O O5 0.500000 0.297752 0.946080
O O6 0.398697 0.500000 0.947257
O O7 0.389741 0.242951 0.000000
O O8 0.250000 0.250000 0.257463
O O9 0.372820 0.248965 0.304984
O O10 0.329964 0.000000 0.257210
O O11 0.655342 0.256491 0.500000
O O12 0.670778 0.500000 0.557790
O O13 0.750000 0.250000 0.569103
O O14 0.616525 0.245391 0.597043
O O15 0.919819 0.500000 0.350508
O O16 0.000000 0.251420 0.347802
#
# Coordination Sequence:
#
# PCOD9492173 Si02
#       5
#    16  16  16  16  16
#     4   9  17  30  51  79 107 135 170 211 256 308
#     4   7  10  19  39  69 102 132 163 202 248 299
#     4  11  23  38  55  75 102 136 175 218 263 312
#     4  10  21  37  58  84 113 145 180 216 255 301
#     4  10  22  39  58  81 108 138 173 214 262 313
#
# _framework density 18.745932
#
# number of rings (size 3 to 8) (size 9 to 14) (size 15 to 20)
#    0.000    2.600    0.000    4.200    0.000    6.400 
#    0.000    2.000    0.000    1.200    0.000    2.800 
#    0.000    0.000    0.000    0.000    0.000    0.000 
#
# Total GULP energy -223041.682450 kJ/mol
# GULP energy per Si atom -5576.042061 kJ/mol
# Density = 1.870327 g / cm^3
# Si number density = 18.745932 Si / 1000 Ang^3
#
#
#
# Elastic Constant Matrix: (Units=GPa)
#
#
# Indices 1 2 3 4 5 6 
#
# 1 129.7010 22.2481 109.7277 0.0000 0.0000 0.0000
# 2 22.2481 14.3967 22.5139 0.0000 0.0000 0.0000
# 3 109.7277 22.5139 174.3225 0.0000 0.0000 0.0000
# 4 0.0000 0.0000 0.0000 -313.5495 0.0000 0.0000
# 5 0.0000 0.0000 0.0000 0.0000 -67.4113 0.0000
# 6 0.0000 0.0000 0.0000 0.0000 0.0000 8.7631
#
#
#
# Elastic Compliance Matrix: (Units=1/GPa)
#
#
# Indices 1 2 3 4 5 6 
#
# 1 0.018197 -0.012792 -0.009802 0.000000 0.000000 0.000000
# 2 -0.012792 0.096033 -0.004351 0.000000 0.000000 0.000000
# 3 -0.009802 -0.004351 0.012468 0.000000 0.000000 0.000000
# 4 0.000000 0.000000 0.000000 -0.003189 0.000000 0.000000
# 5 0.000000 0.000000 0.000000 0.000000 -0.014834 0.000000
# 6 0.000000 0.000000 0.000000 0.000000 0.000000 0.114114
#
#
# Mechanical properties :
#
#
# Convention : Reuss Voigt Hill
#
# Bulk Modulus (GPa) = 13.73473 69.71106 41.72290
# Shear Modulus (GPa) = 16.61422 -63.51082 -23.44830
#
# Velocity S-wave (km/s) = 2.98028 -5.82695 -3.54057
# Velocity P-wave (km/s) = 4.38012 2.82897 2.36457
#
# Compressibility (1/GPa) = 0.07280813
#
# Stress axis : x y z
#
# Youngs Moduli (GPa) = 54.95476 10.41313 80.20409
#
# Poissons Ratio (x) = 0.13321 0.78615
# Poissons Ratio (y) = 0.70299 0.34893
# Poissons Ratio (z) = 0.53866 0.04530
#
# Static dielectric constant tensor:
#      x y z
#    x 1.613060 0.000000 0.000000 
#    y 0.000000 1.657500 0.000000 
#    z 0.000000 0.000000 1.680900 
# 
# From -- ./inp_files/72733.got.cif
#   From: 2010.05.17/outbox.cif.g08.bks.cpg/sg65_37_cif.got.tgz:72733.got - 2010.06.03 17:01:31.
