data_PCOD9492818
_publ_section_title
;
Structure prediction by ZEFSAII (Michael W. Deem and Ramdas Pophale) SiO2 
 PCOD9492818
Probable space group: C M M M
;
_chemical_formula_sum "Si O2"
_cell_formula_units_Z 56
_cell_length_a 28.967145
_cell_length_b 7.793751
_cell_length_c 11.214653
_cell_angle_alpha 90.000000
_cell_angle_beta 90.000000
_cell_angle_gamma 90.000000
_cell_volume 2531.850513
_symmetry_space_group_name_H-M "C M M M"
_symmetry_group_IT_number 65
_symmetry_cell_setting 'orthorhombic'
loop_
_space_group_symop_operation_xyz
x,y,z
-x,-y,z
x,-y,-z
-x,y,-z
-x,-y,-z
x,y,-z
-x,y,z
x,-y,z
1/2+x,1/2+y,z
1/2-x,1/2-y,z
1/2+x,1/2-y,-z
1/2-x,1/2+y,-z
1/2-x,1/2-y,-z
1/2+x,1/2+y,-z
1/2-x,1/2+y,z
1/2+x,1/2-y,z
loop_
_atom_site_type_symbol
_atom_site_label
_atom_site_fract_x
_atom_site_fract_y
_atom_site_fract_z
Si Si1 0.894343 0.293852 0.127900
Si Si2 0.695643 0.205668 0.500000
Si Si3 0.696568 0.206667 0.239820
Si Si4 0.053501 0.206102 0.370493
O O1 0.893729 0.500000 0.121731
O O2 0.841517 0.233540 0.146676
O O3 0.921431 0.254125 0.248760
O O4 0.912662 0.229627 0.000000
O O5 0.750000 0.250000 0.500000
O O6 0.680318 0.271924 0.371065
O O7 0.689450 0.000000 0.500000
O O8 0.750000 0.250000 0.218230
O O9 0.694878 0.000000 0.243734
O O10 0.072601 0.268286 0.500000
O O11 0.000000 0.262453 0.364283
O O12 0.053783 0.000000 0.375074
#
# Coordination Sequence:
#
# PCOD9492818 Si02
#       4
#    16   8  16  16
#     4  10  22  37  54  82 118 152 187 228 275 329
#     4   8  14  26  44  66  91 126 171 219 266 309
#     4   9  18  32  50  73 106 145 186 229 272 320
#     4   9  20  40  63  86 111 140 180 231 283 335
#
# _framework density 22.118210000000001
#
# number of rings (size 3 to 8) (size 9 to 14) (size 15 to 20)
#    0.000    2.857    0.000    0.857    2.000    4.000 
#    0.000    4.286    0.000    0.000    0.000    0.000 
#    0.000    0.000    0.000    0.000    0.000    0.000 
#
# Total GULP energy -156047.848625 kJ/mol
# GULP energy per Si atom -5573.137451 kJ/mol
# Density = 2.206787 g / cm^3
# Si number density = 22.118210 Si / 1000 Ang^3
#
#
#
# Elastic Constant Matrix: (Units=GPa)
#
#
# Indices 1 2 3 4 5 6 
#
# 1 76.7055 4.2304 86.4168 0.0000 0.0000 0.0000
# 2 4.2304 29.5048 19.4766 0.0000 0.0000 0.0000
# 3 86.4168 19.4766 227.9768 0.0000 0.0000 0.0000
# 4 0.0000 0.0000 0.0000 15.7855 0.0000 0.0000
# 5 0.0000 0.0000 0.0000 0.0000 16.7275 0.0000
# 6 0.0000 0.0000 0.0000 0.0000 0.0000 21.5170
#
#
#
# Elastic Compliance Matrix: (Units=1/GPa)
#
#
# Indices 1 2 3 4 5 6 
#
# 1 0.022940 0.002597 -0.008918 0.000000 0.000000 0.000000
# 2 0.002597 0.036213 -0.004078 0.000000 0.000000 0.000000
# 3 -0.008918 -0.004078 0.008115 0.000000 0.000000 0.000000
# 4 0.000000 0.000000 0.000000 0.063349 0.000000 0.000000
# 5 0.000000 0.000000 0.000000 0.000000 0.059782 0.000000
# 6 0.000000 0.000000 0.000000 0.000000 0.000000 0.046475
#
#
# Mechanical properties :
#
#
# Convention : Reuss Voigt Hill
#
# Bulk Modulus (GPa) = 21.51878 61.60384 41.56131
# Shear Modulus (GPa) = 18.30422 25.74357 22.02390
#
# Velocity S-wave (km/s) = 2.87986 3.41531 3.15895
# Velocity P-wave (km/s) = 4.56161 6.59280 5.66892
#
# Compressibility (1/GPa) = 0.04647104
#
# Stress axis : x y z
#
# Youngs Moduli (GPa) = 43.59141 27.61473 123.22630
#
# Poissons Ratio (x) = -0.07173 1.09889
# Poissons Ratio (y) = -0.11323 0.50256
# Poissons Ratio (z) = 0.38873 0.11262
#
# Static dielectric constant tensor:
#      x y z
#    x 1.804950 0.000000 0.000000 
#    y 0.000000 1.790290 0.000000 
#    z 0.000000 0.000000 1.918950 
# 
# From -- ./inp_files/4439.got.cif
#   From: 2010.05.17/outbox.cif.g08.bks.cpg/sg65_3_cif.got.tgz:4439.got - 2010.06.03 17:01:31.
