data_PCOD9492565
_publ_section_title
;
Structure prediction by ZEFSAII (Michael W. Deem and Ramdas Pophale) SiO2 
 PCOD9492565
Probable space group: C M M M
;
_chemical_formula_sum "Si O2"
_cell_formula_units_Z 48
_cell_length_a 13.185009
_cell_length_b 18.688684
_cell_length_c 10.268846
_cell_angle_alpha 90.000000
_cell_angle_beta 90.000000
_cell_angle_gamma 90.000000
_cell_volume 2530.351136
_symmetry_space_group_name_H-M "C M M M"
_symmetry_group_IT_number 65
_symmetry_cell_setting 'orthorhombic'
loop_
_space_group_symop_operation_xyz
x,y,z
-x,-y,z
x,-y,-z
-x,y,-z
-x,-y,-z
x,y,-z
-x,y,z
x,-y,z
1/2+x,1/2+y,z
1/2-x,1/2-y,z
1/2+x,1/2-y,-z
1/2-x,1/2+y,-z
1/2-x,1/2-y,-z
1/2+x,1/2+y,-z
1/2-x,1/2+y,z
1/2+x,1/2-y,z
loop_
_atom_site_type_symbol
_atom_site_label
_atom_site_fract_x
_atom_site_fract_y
_atom_site_fract_z
Si Si1 0.882764 0.753831 0.146885
Si Si2 0.880943 0.500000 0.156336
Si Si3 0.378750 0.586795 0.500000
Si Si4 0.746006 0.864364 0.253198
O O1 0.826304 0.829461 0.153626
O O2 0.835372 0.700788 0.254268
O O3 0.000000 0.763204 0.170670
O O4 0.870052 0.723310 0.000000
O O5 0.819047 0.568315 0.207397
O O6 0.000000 0.500000 0.197424
O O7 0.880246 0.500000 0.000000
O O8 0.374908 0.500000 0.500000
O O9 0.500000 0.606328 0.500000
O O10 0.314591 0.616017 0.622919
#
# Coordination Sequence:
#
# PCOD9492565 Si02
#       4
#    16   8   8  16
#     4  10  21  38  62  94 128 158 195 249 307 362
#     4  11  22  37  61  92 122 155 198 250 307 361
#     4  11  24  43  62  84 122 165 205 254 299 345
#     4  11  21  39  61  87 119 163 204 244 299 359
#
# _framework density 18.969698999999999
#
# number of rings (size 3 to 8) (size 9 to 14) (size 15 to 20)
#    0.000    1.333    1.667    6.000    0.000    5.333 
#    0.000    5.833    0.000    4.000    0.000    0.000 
#    0.000    0.000    0.000    0.000    0.000    0.000 
#
# Total GULP energy -133652.968743 kJ/mol
# GULP energy per Si atom -5568.873698 kJ/mol
# Density = 1.892652 g / cm^3
# Si number density = 18.969699 Si / 1000 Ang^3
#
#
#
# Elastic Constant Matrix: (Units=GPa)
#
#
# Indices 1 2 3 4 5 6 
#
# 1 226.1214 81.3114 66.8564 0.0000 0.0000 0.0000
# 2 81.3114 119.3096 37.4872 0.0000 0.0000 0.0000
# 3 66.8564 37.4872 76.5877 0.0000 0.0000 0.0000
# 4 0.0000 0.0000 0.0000 24.2667 0.0000 0.0000
# 5 0.0000 0.0000 0.0000 0.0000 36.0950 0.0000
# 6 0.0000 0.0000 0.0000 0.0000 0.0000 29.5027
#
#
#
# Elastic Compliance Matrix: (Units=1/GPa)
#
#
# Indices 1 2 3 4 5 6 
#
# 1 0.006926 -0.003333 -0.004415 0.000000 0.000000 0.000000
# 2 -0.003333 0.011509 -0.002724 0.000000 0.000000 0.000000
# 3 -0.004415 -0.002724 0.018244 0.000000 0.000000 0.000000
# 4 0.000000 0.000000 0.000000 0.041209 0.000000 0.000000
# 5 0.000000 0.000000 0.000000 0.000000 0.027705 0.000000
# 6 0.000000 0.000000 0.000000 0.000000 0.000000 0.033895
#
#
# Mechanical properties :
#
#
# Convention : Reuss Voigt Hill
#
# Bulk Modulus (GPa) = 63.54845 88.14765 75.84805
# Shear Modulus (GPa) = 30.17939 33.73046 31.95493
#
# Velocity S-wave (km/s) = 3.99297 4.22135 4.10875
# Velocity P-wave (km/s) = 7.40480 8.38619 7.91073
#
# Compressibility (1/GPa) = 0.01573603
#
# Stress axis : x y z
#
# Youngs Moduli (GPa) = 144.37721 86.88869 54.81326
#
# Poissons Ratio (x) = 0.28962 0.24198
# Poissons Ratio (y) = 0.48125 0.14929
# Poissons Ratio (z) = 0.63738 0.23664
#
# Static dielectric constant tensor:
#      x y z
#    x 1.669320 0.000000 0.000000 
#    y 0.000000 1.691500 0.000000 
#    z 0.000000 0.000000 1.669110 
# 
# From -- ./inp_files/5819.got.cif
#   From: 2010.05.17/outbox.cif.g08.bks.cpg/sg65_3_cif.got.tgz:5819.got - 2010.06.03 17:01:31.
