data_PCOD9492326
_publ_section_title
;
Structure prediction by ZEFSAII (Michael W. Deem and Ramdas Pophale) SiO2 
 PCOD9492326
Probable space group: C M M M
;
_chemical_formula_sum "Si O2"
_cell_formula_units_Z 80
_cell_length_a 30.177789
_cell_length_b 16.332995
_cell_length_c 7.588137
_cell_angle_alpha 90.000000
_cell_angle_beta 90.000000
_cell_angle_gamma 90.000000
_cell_volume 3740.144746
_symmetry_space_group_name_H-M "C M M M"
_symmetry_group_IT_number 65
_symmetry_cell_setting 'orthorhombic'
loop_
_space_group_symop_operation_xyz
x,y,z
-x,-y,z
x,-y,-z
-x,y,-z
-x,-y,-z
x,y,-z
-x,y,z
x,-y,z
1/2+x,1/2+y,z
1/2-x,1/2-y,z
1/2+x,1/2-y,-z
1/2-x,1/2+y,-z
1/2-x,1/2-y,-z
1/2+x,1/2+y,-z
1/2-x,1/2+y,z
1/2+x,1/2-y,z
loop_
_atom_site_type_symbol
_atom_site_label
_atom_site_fract_x
_atom_site_fract_y
_atom_site_fract_z
Si Si1 0.118399 0.000000 0.215693
Si Si2 0.720149 0.500000 0.210968
Si Si3 0.950392 0.136040 0.214812
Si Si4 0.139818 0.408905 0.709747
Si Si5 0.048720 0.324121 0.212227
Si Si6 0.772555 0.667651 0.709698
O O1 0.169171 0.000000 0.275264
O O2 0.089448 0.921759 0.272656
O O3 0.119226 0.000000 0.000000
O O4 0.744963 0.416409 0.265787
O O5 0.719422 0.500000 0.000000
O O6 0.944975 0.230073 0.270906
O O7 0.000000 0.108404 0.267849
O O8 0.950194 0.134822 0.000000
O O9 0.146878 0.413893 0.500000
O O10 0.145548 0.500000 0.783535
O O11 0.090354 0.377617 0.735991
O O12 0.178048 0.349469 0.780911
O O13 0.000000 0.352299 0.273268
O O14 0.047619 0.322842 0.000000
O O15 0.776444 0.680597 0.500000
O O16 0.750000 0.750000 0.783009
#
# Coordination Sequence:
#
# PCOD9492326 Si02
#       6
#     8   8  16  16  16  16
#     4   9  17  27  44  75 112 143 175 216 261 316
#     4  11  23  36  55  90 125 145 178 238 297 341
#     4   8  14  27  47  71 104 146 182 211 252 311
#     4  10  21  38  58  79 104 136 180 229 274 326
#     4   9  19  34  53  80 111 141 176 219 269 327
#     4  10  22  42  64  81 108 154 200 237 279 339
#
# _framework density 21.389547
#
# number of rings (size 3 to 8) (size 9 to 14) (size 15 to 20)
#    0.000    2.600    1.000    1.800    2.800    3.600 
#    0.000    2.000    0.000    0.000    0.000    0.000 
#    0.000    6.400    0.000    0.000    0.000    0.000 
#
# Total GULP energy -223256.432683 kJ/mol
# GULP energy per Si atom -5581.410817 kJ/mol
# Density = 2.134086 g / cm^3
# Si number density = 21.389547 Si / 1000 Ang^3
#
#
#
# Elastic Constant Matrix: (Units=GPa)
#
#
# Indices 1 2 3 4 5 6 
#
# 1 180.1034 84.5694 -0.8211 0.0000 0.0000 0.0000
# 2 84.5694 121.5133 -0.9068 0.0000 0.0000 0.0000
# 3 -0.8211 -0.9068 43.1458 0.0000 0.0000 0.0000
# 4 0.0000 0.0000 0.0000 6.3667 0.0000 0.0000
# 5 0.0000 0.0000 0.0000 0.0000 19.3960 0.0000
# 6 0.0000 0.0000 0.0000 0.0000 0.0000 -1.3357
#
#
#
# Elastic Compliance Matrix: (Units=1/GPa)
#
#
# Indices 1 2 3 4 5 6 
#
# 1 0.008248 -0.005740 0.000036 0.000000 0.000000 0.000000
# 2 -0.005740 0.012225 0.000148 0.000000 0.000000 0.000000
# 3 0.000036 0.000148 0.023181 0.000000 0.000000 0.000000
# 4 0.000000 0.000000 0.000000 0.157067 0.000000 0.000000
# 5 0.000000 0.000000 0.000000 0.000000 0.051557 0.000000
# 6 0.000000 0.000000 0.000000 0.000000 0.000000 -0.748662
#
#
# Mechanical properties :
#
#
# Convention : Reuss Voigt Hill
#
# Bulk Modulus (GPa) = 30.72907 56.71616 43.72261
# Shear Modulus (GPa) = -10.53907 22.34681 5.90387
#
# Velocity S-wave (km/s) = -2.22214 3.23577 1.66318
# Velocity P-wave (km/s) = 2.79530 6.36661 4.91668
#
# Compressibility (1/GPa) = 0.03254248
#
# Stress axis : x y z
#
# Youngs Moduli (GPa) = 121.24495 81.79662 43.13873
#
# Poissons Ratio (x) = 0.46951 -0.00157
# Poissons Ratio (y) = 0.69594 -0.00637
# Poissons Ratio (z) = -0.00440 -0.01208
#
# Static dielectric constant tensor:
#      x y z
#    x 1.771380 0.000000 0.000000 
#    y 0.000000 1.762860 0.000000 
#    z 0.000000 0.000000 1.821100 
# 
# From -- ./inp_files/16080.got.cif
#   From: 2010.05.17/outbox.cif.g08.bks.cpg/sg65_9_cif.got.tgz:16080.got - 2010.06.03 17:01:31.
