data_PCOD9492905
_publ_section_title
;
Structure prediction by ZEFSAII (Michael W. Deem and Ramdas Pophale) SiO2 
 PCOD9492905
Probable space group: C M M M
;
_chemical_formula_sum "Si O2"
_cell_formula_units_Z 56
_cell_length_a 26.242029
_cell_length_b 10.102741
_cell_length_c 10.666532
_cell_angle_alpha 90.000000
_cell_angle_beta 90.000000
_cell_angle_gamma 90.000000
_cell_volume 2827.872802
_symmetry_space_group_name_H-M "C M M M"
_symmetry_group_IT_number 65
_symmetry_cell_setting 'orthorhombic'
loop_
_space_group_symop_operation_xyz
x,y,z
-x,-y,z
x,-y,-z
-x,y,-z
-x,-y,-z
x,y,-z
-x,y,z
x,-y,z
1/2+x,1/2+y,z
1/2-x,1/2-y,z
1/2+x,1/2-y,-z
1/2-x,1/2+y,-z
1/2-x,1/2-y,-z
1/2+x,1/2+y,-z
1/2-x,1/2+y,z
1/2+x,1/2-y,z
loop_
_atom_site_type_symbol
_atom_site_label
_atom_site_fract_x
_atom_site_fract_y
_atom_site_fract_z
Si Si1 0.557122 0.500000 0.851103
Si Si2 0.302493 0.159745 0.000000
Si Si3 0.288461 0.355398 0.353357
Si Si4 0.938805 0.500000 0.350331
Si Si5 0.620476 0.242351 0.226611
O O1 0.500000 0.500000 0.796257
O O2 0.586981 0.633295 0.816396
O O3 0.553251 0.500000 0.000000
O O4 0.250000 0.250000 0.000000
O O5 0.339813 0.194837 0.881501
O O6 0.291513 0.000000 0.000000
O O7 0.276478 0.367793 0.500000
O O8 0.283949 0.500000 0.293764
O O9 0.250000 0.250000 0.297144
O O10 0.344186 0.298588 0.336944
O O11 0.926728 0.500000 0.500000
O O12 0.914189 0.374332 0.280324
O O13 0.000000 0.500000 0.338058
#
# Coordination Sequence:
#
# PCOD9492905 Si02
#       5
#     8   8  16   8  16
#     4  11  24  42  67  99 133 174 222 273 333 402
#     4  12  28  44  67 102 138 182 225 272 339 412
#     4  10  22  38  60  91 126 167 214 263 322 392
#     4  11  26  47  71  99 133 179 235 293 347 400
#     4  12  23  44  68  96 136 177 220 277 338 407
#
# _framework density 19.802869000000001
#
# number of rings (size 3 to 8) (size 9 to 14) (size 15 to 20)
#    0.000    0.857    4.286    2.571    4.000    2.286 
#    0.000    0.714    0.000    3.429    0.000    0.000 
#    0.000    0.000    0.000    0.000    0.000    0.000 
#
# Total GULP energy -156269.551672 kJ/mol
# GULP energy per Si atom -5581.055417 kJ/mol
# Density = 1.975780 g / cm^3
# Si number density = 19.802869 Si / 1000 Ang^3
#
#
#
# Elastic Constant Matrix: (Units=GPa)
#
#
# Indices 1 2 3 4 5 6 
#
# 1 157.1185 108.9965 47.3284 0.0000 0.0000 0.0000
# 2 108.9965 225.7199 49.4967 0.0000 0.0000 0.0000
# 3 47.3284 49.4967 80.2419 0.0000 0.0000 0.0000
# 4 0.0000 0.0000 0.0000 3.6119 0.0000 0.0000
# 5 0.0000 0.0000 0.0000 0.0000 101.8564 0.0000
# 6 0.0000 0.0000 0.0000 0.0000 0.0000 6889.1358
#
#
#
# Elastic Compliance Matrix: (Units=1/GPa)
#
#
# Indices 1 2 3 4 5 6 
#
# 1 0.010355 -0.004233 -0.003496 0.000000 0.000000 0.000000
# 2 -0.004233 0.006854 -0.001731 0.000000 0.000000 0.000000
# 3 -0.003496 -0.001731 0.015592 0.000000 0.000000 0.000000
# 4 0.000000 0.000000 0.000000 0.276862 0.000000 0.000000
# 5 0.000000 0.000000 0.000000 0.000000 0.009818 0.000000
# 6 0.000000 0.000000 0.000000 0.000000 0.000000 0.000145
#
#
# Mechanical properties :
#
#
# Convention : Reuss Voigt Hill
#
# Bulk Modulus (GPa) = 72.04611 97.19150 84.61881
# Shear Modulus (GPa) = 14.56992 1416.07139 715.32065
#
# Velocity S-wave (km/s) = 2.71541 26.77006 19.02643
# Velocity P-wave (km/s) = 6.80382 31.69702 22.92371
#
# Compressibility (1/GPa) = 0.01388000
#
# Stress axis : x y z
#
# Youngs Moduli (GPa) = 96.57621 145.89832 64.13533
#
# Poissons Ratio (x) = 0.61765 0.22421
# Poissons Ratio (y) = 0.40885 0.11101
# Poissons Ratio (z) = 0.33763 0.25254
#
# Static dielectric constant tensor:
#      x y z
#    x 1.715370 0.000000 0.000000 
#    y 0.000000 1.680530 0.000000 
#    z 0.000000 0.000000 1.722010 
# 
# From -- ./inp_files/31798.got.cif
#   From: 2010.05.17/outbox.cif.g08.bks.cpg/sg65_16_cif.got.tgz:31798.got - 2010.06.03 17:01:31.
