data_PCOD9492263
_publ_section_title
;
Structure prediction by ZEFSAII (Michael W. Deem and Ramdas Pophale) SiO2 
 PCOD9492263
Probable space group: C M M M
;
_chemical_formula_sum "Si O2"
_cell_formula_units_Z 90
_cell_length_a 17.926551
_cell_length_b 22.438219
_cell_length_c 11.065889
_cell_angle_alpha 90.000000
_cell_angle_beta 90.000000
_cell_angle_gamma 90.000000
_cell_volume 4451.141833
_symmetry_space_group_name_H-M "C M M M"
_symmetry_group_IT_number 65
_symmetry_cell_setting 'orthorhombic'
loop_
_space_group_symop_operation_xyz
x,y,z
-x,-y,z
x,-y,-z
-x,y,-z
-x,-y,-z
x,y,-z
-x,y,z
x,-y,z
1/2+x,1/2+y,z
1/2-x,1/2-y,z
1/2+x,1/2-y,-z
1/2-x,1/2+y,-z
1/2-x,1/2-y,-z
1/2+x,1/2+y,-z
1/2-x,1/2+y,z
1/2+x,1/2-y,z
loop_
_atom_site_type_symbol
_atom_site_label
_atom_site_fract_x
_atom_site_fract_y
_atom_site_fract_z
Si Si1 0.682315 0.872621 0.745742
Si Si2 0.342836 0.000000 0.137044
Si Si3 0.416064 0.618449 0.500000
Si Si4 0.913755 0.934132 0.237770
Si Si5 0.823409 0.824098 0.860091
Si Si6 0.000000 0.500000 0.000000
Si Si7 0.255106 0.677362 0.500000
Si Si8 0.414644 0.213871 0.144096
O O1 0.680567 0.941197 0.787487
O O2 0.737918 0.835691 0.833029
O O3 0.715427 0.854073 0.615666
O O4 0.602556 0.844378 0.777534
O O5 0.307915 0.000000 0.000000
O O6 0.431704 0.000000 0.104010
O O7 0.500000 0.646615 0.500000
O O8 0.411672 0.578075 0.619170
O O9 0.343414 0.660666 0.500000
O O10 0.865903 0.882981 0.179052
O O11 0.000000 0.929732 0.199119
O O12 0.885785 0.000000 0.209642
O O13 0.862455 0.766488 0.803845
O O14 0.834010 0.814641 0.000000
O O15 0.250000 0.750000 0.500000
O O16 0.500000 0.233570 0.155237
O O17 0.402993 0.201125 0.000000
#
# Coordination Sequence:
#
# PCOD9492263 Si02
#       8
#    16   8   8  16  16   2   8  16
#     4  12  25  42  67  98 136 175 228 288 357 416
#     4  10  24  45  77 109 133 181 233 295 363 434
#     4  10  21  42  68  84 115 171 233 271 316 396
#     4  10  21  37  59  88 121 166 217 265 321 397
#     4  11  22  37  59  93 132 166 212 276 345 418
#     4   8  24  48  84 102 148 176 250 304 360 464
#     4  12  26  46  66  99 141 183 230 291 356 422
#     4  10  22  40  66  92 124 174 227 277 345 428
#
# _framework density 20.219532000000001
#
# number of rings (size 3 to 8) (size 9 to 14) (size 15 to 20)
#    0.267    1.067    1.778    4.000    2.489    4.267 
#    1.600    1.333    0.000    0.533    0.000    0.000 
#    0.000    0.000    0.000    0.000    0.000    0.000 
#
# Total GULP energy -250783.295599 kJ/mol
# GULP energy per Si atom -5572.962124 kJ/mol
# Density = 2.017351 g / cm^3
# Si number density = 20.219532 Si / 1000 Ang^3
#
#
#
# Elastic Constant Matrix: (Units=GPa)
#
#
# Indices 1 2 3 4 5 6 
#
# 1 76.8247 51.2370 13.3978 0.0000 0.0000 0.0000
# 2 51.2370 146.5175 28.4262 0.0000 0.0000 0.0000
# 3 13.3978 28.4262 60.7666 0.0000 0.0000 0.0000
# 4 0.0000 0.0000 0.0000 21.2880 0.0000 0.0000
# 5 0.0000 0.0000 0.0000 0.0000 25.1729 0.0000
# 6 0.0000 0.0000 0.0000 0.0000 0.0000 29.0749
#
#
#
# Elastic Compliance Matrix: (Units=1/GPa)
#
#
# Indices 1 2 3 4 5 6 
#
# 1 0.017038 -0.005751 -0.001066 0.000000 0.000000 0.000000
# 2 -0.005751 0.009448 -0.003152 0.000000 0.000000 0.000000
# 3 -0.001066 -0.003152 0.018166 0.000000 0.000000 0.000000
# 4 0.000000 0.000000 0.000000 0.046975 0.000000 0.000000
# 5 0.000000 0.000000 0.000000 0.000000 0.039725 0.000000
# 6 0.000000 0.000000 0.000000 0.000000 0.000000 0.034394
#
#
# Mechanical properties :
#
#
# Convention : Reuss Voigt Hill
#
# Bulk Modulus (GPa) = 40.46340 52.24787 46.35563
# Shear Modulus (GPa) = 25.78355 27.84369 26.81362
#
# Velocity S-wave (km/s) = 3.57484 3.71491 3.64555
# Velocity P-wave (km/s) = 6.09055 6.65561 6.37934
#
# Compressibility (1/GPa) = 0.02471369
#
# Stress axis : x y z
#
# Youngs Moduli (GPa) = 58.69084 105.84420 55.04870
#
# Poissons Ratio (x) = 0.60876 0.05869
# Poissons Ratio (y) = 0.33756 0.17349
# Poissons Ratio (z) = 0.06257 0.33357
#
# Static dielectric constant tensor:
#      x y z
#    x 1.770490 0.000000 0.000000 
#    y 0.000000 1.721600 0.000000 
#    z 0.000000 0.000000 1.716250 
# 
# From -- ./inp_files/26885.got.cif
#   From: 2010.05.17/outbox.cif.g08.bks.cpg/sg65_14_cif.got.tgz:26885.got - 2010.06.03 17:01:31.
