data_PCOD9492110
_publ_section_title
;
Structure prediction by ZEFSAII (Michael W. Deem and Ramdas Pophale) SiO2 
 PCOD9492110
Probable space group: C M M M
;
_chemical_formula_sum "Si O2"
_cell_formula_units_Z 80
_cell_length_a 8.290204
_cell_length_b 19.013429
_cell_length_c 26.889573
_cell_angle_alpha 90.000000
_cell_angle_beta 90.000000
_cell_angle_gamma 90.000000
_cell_volume 4238.474461
_symmetry_space_group_name_H-M "C M M M"
_symmetry_group_IT_number 65
_symmetry_cell_setting 'orthorhombic'
loop_
_space_group_symop_operation_xyz
x,y,z
-x,-y,z
x,-y,-z
-x,y,-z
-x,-y,-z
x,y,-z
-x,y,z
x,-y,z
1/2+x,1/2+y,z
1/2-x,1/2-y,z
1/2+x,1/2-y,-z
1/2-x,1/2+y,-z
1/2-x,1/2-y,-z
1/2+x,1/2+y,-z
1/2-x,1/2+y,z
1/2+x,1/2-y,z
loop_
_atom_site_type_symbol
_atom_site_label
_atom_site_fract_x
_atom_site_fract_y
_atom_site_fract_z
Si Si1 0.308262 0.330559 0.000000
Si Si2 0.694582 0.919057 0.394594
Si Si3 0.192336 0.918303 0.500000
Si Si4 0.805055 0.329804 0.300735
Si Si5 0.304755 0.919231 0.094902
Si Si6 0.305014 0.169849 0.189290
O O1 0.250000 0.250000 0.000000
O O2 0.247662 0.372215 0.951566
O O3 0.500000 0.330358 0.000000
O O4 0.500000 0.919674 0.393837
O O5 0.747625 0.887810 0.447728
O O6 0.752987 0.877151 0.346368
O O7 0.751577 0.000000 0.391990
O O8 0.000000 0.918307 0.500000
O O9 0.251391 0.000000 0.500000
O O10 0.750000 0.250000 0.308158
O O11 0.751572 0.351133 0.245051
O O12 0.000000 0.332122 0.300927
O O13 0.500000 0.920491 0.095619
O O14 0.249012 0.881932 0.145826
O O15 0.248798 0.000000 0.090667
O O16 0.500000 0.169495 0.188930
O O17 0.250000 0.250000 0.180113
#
# Coordination Sequence:
#
# PCOD9492110 Si02
#       6
#     8  16   8  16  16  16
#     4  12  25  40  59  81 107 141 181 220 259 308
#     4   9  17  30  49  71  95 125 162 203 246 295
#     4   9  17  29  46  69  96 125 159 201 248 297
#     4   9  18  32  50  73 101 132 166 205 249 297
#     4  10  21  37  57  82 112 142 173 214 262 308
#     4   9  18  33  53  76 102 135 172 208 249 300
#
# _framework density 18.874714999999998
#
# number of rings (size 3 to 8) (size 9 to 14) (size 15 to 20)
#    0.000    2.500    0.000    2.100    0.000    6.800 
#    0.000    4.500    0.000    0.000    0.000    8.400 
#    0.000    0.000    0.000    0.000    0.000    0.000 
#
# Total GULP energy -223108.021687 kJ/mol
# GULP energy per Si atom -5577.700542 kJ/mol
# Density = 1.883176 g / cm^3
# Si number density = 18.874715 Si / 1000 Ang^3
#
#
#
# Elastic Constant Matrix: (Units=GPa)
#
#
# Indices 1 2 3 4 5 6 
#
# 1 10.4365 13.6545 20.8968 0.0000 0.0000 0.0000
# 2 13.6545 113.4688 115.8166 0.0000 0.0000 0.0000
# 3 20.8968 115.8166 216.5779 0.0000 0.0000 0.0000
# 4 0.0000 0.0000 0.0000 36.6161 0.0000 0.0000
# 5 0.0000 0.0000 0.0000 0.0000 8.9523 0.0000
# 6 0.0000 0.0000 0.0000 0.0000 0.0000 22.5666
#
#
#
# Elastic Compliance Matrix: (Units=1/GPa)
#
#
# Indices 1 2 3 4 5 6 
#
# 1 0.120468 -0.005797 -0.008524 0.000000 0.000000 0.000000
# 2 -0.005797 0.019683 -0.009966 0.000000 0.000000 0.000000
# 3 -0.008524 -0.009966 0.010769 0.000000 0.000000 0.000000
# 4 0.000000 0.000000 0.000000 0.027310 0.000000 0.000000
# 5 0.000000 0.000000 0.000000 0.000000 0.111703 0.000000
# 6 0.000000 0.000000 0.000000 0.000000 0.000000 0.044313
#
#
# Mechanical properties :
#
#
# Convention : Reuss Voigt Hill
#
# Bulk Modulus (GPa) = 9.77066 71.24655 40.50861
# Shear Modulus (GPa) = 11.99222 26.30137 19.14679
#
# Velocity S-wave (km/s) = 2.52337 3.73697 3.18844
# Velocity P-wave (km/s) = 3.69833 7.51325 5.92143
#
# Compressibility (1/GPa) = 0.10234725
#
# Stress axis : x y z
#
# Youngs Moduli (GPa) = 8.30093 50.80472 92.85641
#
# Poissons Ratio (x) = 0.29450 0.79148
# Poissons Ratio (y) = 0.04812 0.92545
# Poissons Ratio (z) = 0.07075 0.50634
#
# Static dielectric constant tensor:
#      x y z
#    x 1.653450 0.000000 0.000000 
#    y 0.000000 1.638380 0.000000 
#    z 0.000000 0.000000 1.675540 
# 
# From -- ./inp_files/72858.got.cif
#   From: 2010.05.17/outbox.cif.g08.bks.cpg/sg65_37_cif.got.tgz:72858.got - 2010.06.03 17:01:31.
