data_PCOD9492197
_publ_section_title
;
Structure prediction by ZEFSAII (Michael W. Deem and Ramdas Pophale) SiO2 
 PCOD9492197
Probable space group: C M M M
;
_chemical_formula_sum "Si O2"
_cell_formula_units_Z 92
_cell_length_a 9.628825
_cell_length_b 19.109428
_cell_length_c 27.962697
_cell_angle_alpha 90.000000
_cell_angle_beta 90.000000
_cell_angle_gamma 90.000000
_cell_volume 5145.173664
_symmetry_space_group_name_H-M "C M M M"
_symmetry_group_IT_number 65
_symmetry_cell_setting 'orthorhombic'
loop_
_space_group_symop_operation_xyz
x,y,z
-x,-y,z
x,-y,-z
-x,y,-z
-x,-y,-z
x,y,-z
-x,y,z
x,-y,z
1/2+x,1/2+y,z
1/2-x,1/2-y,z
1/2+x,1/2-y,-z
1/2-x,1/2+y,-z
1/2-x,1/2-y,-z
1/2+x,1/2+y,-z
1/2-x,1/2+y,z
1/2+x,1/2-y,z
loop_
_atom_site_type_symbol
_atom_site_label
_atom_site_fract_x
_atom_site_fract_y
_atom_site_fract_z
Si Si1 0.500000 0.081307 0.442417
Si Si2 0.663794 0.678953 0.057038
Si Si3 0.837470 0.415742 0.873168
Si Si4 0.839910 0.180685 0.308746
Si Si5 0.500000 0.640343 0.500000
Si Si6 0.773599 0.166284 0.582609
Si Si7 0.837445 0.916699 0.220060
O O1 0.500000 0.082711 0.500000
O O2 0.366879 0.123492 0.424676
O O3 0.500000 0.000000 0.427345
O O4 0.500000 0.684559 0.070105
O O5 0.750000 0.750000 0.066721
O O6 0.744233 0.619111 0.085872
O O7 0.669918 0.666322 0.000000
O O8 0.832003 0.500000 0.877024
O O9 0.765086 0.396141 0.822842
O O10 0.000000 0.394778 0.875523
O O11 0.750000 0.250000 0.303016
O O12 0.822994 0.154674 0.363125
O O13 0.803662 0.123700 0.268794
O O14 0.000000 0.199712 0.301809
O O15 0.380268 0.642929 0.542123
O O16 0.750000 0.250000 0.576791
O O17 0.000000 0.902505 0.207543
O O18 0.825229 0.000000 0.227225
#
# Coordination Sequence:
#
# PCOD9492197 Si02
#       7
#     8  16  16  16   4  16  16
#     4  11  25  43  58  85 126 157 187 239 300 353
#     4  10  21  37  58  85 119 159 201 245 298 359
#     4  10  21  37  58  86 118 153 200 251 296 354
#     4  10  22  38  58  87 119 148 191 246 295 347
#     4  12  20  36  63  90 113 154 200 246 282 348
#     4  11  23  38  63  90 118 156 204 243 291 359
#     4   9  19  38  61  81 108 152 199 244 297 356
#
# _framework density 17.880835000000001
#
# number of rings (size 3 to 8) (size 9 to 14) (size 15 to 20)
#    0.000    1.826    1.739    1.826    4.870    4.522 
#    0.000    4.348    0.000    0.000    0.000    0.000 
#    0.000    0.000    0.000    0.000    0.000    0.000 
#
# Total GULP energy -256172.994056 kJ/mol
# GULP energy per Si atom -5568.978132 kJ/mol
# Density = 1.784014 g / cm^3
# Si number density = 17.880835 Si / 1000 Ang^3
#
#
#
# Elastic Constant Matrix: (Units=GPa)
#
#
# Indices 1 2 3 4 5 6 
#
# 1 159.6183 58.8961 71.1473 0.0000 0.0000 0.0000
# 2 58.8961 60.3755 41.1174 0.0000 0.0000 0.0000
# 3 71.1473 41.1174 85.7376 0.0000 0.0000 0.0000
# 4 0.0000 0.0000 0.0000 5.2240 0.0000 0.0000
# 5 0.0000 0.0000 0.0000 0.0000 37.2199 0.0000
# 6 0.0000 0.0000 0.0000 0.0000 0.0000 27.4385
#
#
#
# Elastic Compliance Matrix: (Units=1/GPa)
#
#
# Indices 1 2 3 4 5 6 
#
# 1 0.011699 -0.007129 -0.006289 0.000000 0.000000 0.000000
# 2 -0.007129 0.028941 -0.007963 0.000000 0.000000 0.000000
# 3 -0.006289 -0.007963 0.020701 0.000000 0.000000 0.000000
# 4 0.000000 0.000000 0.000000 0.191426 0.000000 0.000000
# 5 0.000000 0.000000 0.000000 0.000000 0.026867 0.000000
# 6 0.000000 0.000000 0.000000 0.000000 0.000000 0.036445
#
#
# Mechanical properties :
#
#
# Convention : Reuss Voigt Hill
#
# Bulk Modulus (GPa) = 53.82726 72.00588 62.91657
# Shear Modulus (GPa) = 13.69737 22.94784 18.32260
#
# Velocity S-wave (km/s) = 2.77074 3.58631 3.20458
# Velocity P-wave (km/s) = 6.35647 7.58328 6.99681
#
# Compressibility (1/GPa) = 0.01857795
#
# Stress axis : x y z
#
# Youngs Moduli (GPa) = 85.48017 34.55361 48.30646
#
# Poissons Ratio (x) = 0.24633 0.30380
# Poissons Ratio (y) = 0.60939 0.38467
# Poissons Ratio (z) = 0.53758 0.27516
#
# Static dielectric constant tensor:
#      x y z
#    x 1.598930 0.000000 0.000000 
#    y 0.000000 1.598020 0.000000 
#    z 0.000000 0.000000 1.594940 
# 
# From -- ./inp_files/73262.got.cif
#   From: 2010.05.17/outbox.cif.g08.bks.cpg/sg65_37_cif.got.tgz:73262.got - 2010.06.03 17:01:31.
