data_PCOD9492721
_publ_section_title
;
Structure prediction by ZEFSAII (Michael W. Deem and Ramdas Pophale) SiO2 
 PCOD9492721
Probable space group: C M M M
;
_chemical_formula_sum "Si O2"
_cell_formula_units_Z 84
_cell_length_a 25.059852
_cell_length_b 15.351946
_cell_length_c 10.994232
_cell_angle_alpha 90.000000
_cell_angle_beta 90.000000
_cell_angle_gamma 90.000000
_cell_volume 4229.673391
_symmetry_space_group_name_H-M "C M M M"
_symmetry_group_IT_number 65
_symmetry_cell_setting 'orthorhombic'
loop_
_space_group_symop_operation_xyz
x,y,z
-x,-y,z
x,-y,-z
-x,y,-z
-x,-y,-z
x,y,-z
-x,y,z
x,-y,z
1/2+x,1/2+y,z
1/2-x,1/2-y,z
1/2+x,1/2-y,-z
1/2-x,1/2+y,-z
1/2-x,1/2-y,-z
1/2+x,1/2+y,-z
1/2-x,1/2+y,z
1/2+x,1/2-y,z
loop_
_atom_site_type_symbol
_atom_site_label
_atom_site_fract_x
_atom_site_fract_y
_atom_site_fract_z
Si Si1 0.704842 0.321117 0.230848
Si Si2 0.641576 0.396111 0.000000
Si Si3 0.936608 0.094298 0.635715
Si Si4 0.902113 0.261604 0.262062
Si Si5 0.346254 0.000000 0.500000
Si Si6 0.563971 0.758021 0.000000
Si Si7 0.439110 0.140129 0.500000
Si Si8 0.740430 0.500000 0.636121
O O1 0.750000 0.250000 0.200396
O O2 0.659449 0.259545 0.292510
O O3 0.724383 0.407502 0.303183
O O4 0.675982 0.362526 0.114315
O O5 0.587366 0.340076 0.000000
O O6 0.634719 0.500000 0.000000
O O7 0.917007 0.119050 0.500000
O O8 0.925690 0.164616 0.735418
O O9 0.000000 0.087333 0.626134
O O10 0.913504 0.000000 0.666144
O O11 0.931781 0.307881 0.373510
O O12 0.913044 0.298423 0.127012
O O13 0.387603 0.921365 0.500000
O O14 0.304775 0.000000 0.612786
O O15 0.500000 0.762227 0.000000
O O16 0.500000 0.104839 0.500000
O O17 0.716566 0.500000 0.500000
#
# Coordination Sequence:
#
# PCOD9492721 Si02
#       8
#    16   8  16  16   4   8   8   8
#     4  11  23  41  63  89 124 164 209 262 320 376
#     4  10  21  40  64  90 117 165 215 258 305 370
#     4   9  17  30  49  77 114 151 190 235 281 342
#     4  11  23  36  62  89 123 162 211 244 308 377
#     4  10  25  44  62  92 124 152 209 274 336 372
#     4  10  22  38  56  90 132 166 201 250 304 369
#     4  12  23  41  67  93 122 163 210 264 318 386
#     4  10  24  40  63  90 129 162 205 263 323 370
#
# _framework density 19.859687999999998
#
# number of rings (size 3 to 8) (size 9 to 14) (size 15 to 20)
#    0.286    1.333    1.905    3.857    2.667    1.333 
#    0.000    0.000    0.000    0.571    0.000    2.000 
#    0.000    0.000    0.000    0.000    0.000    0.000 
#
# Total GULP energy -233805.964414 kJ/mol
# GULP energy per Si atom -5566.808677 kJ/mol
# Density = 1.981449 g / cm^3
# Si number density = 19.859688 Si / 1000 Ang^3
#
#
#
# Elastic Constant Matrix: (Units=GPa)
#
#
# Indices 1 2 3 4 5 6 
#
# 1 114.1233 24.6881 18.5245 0.0000 0.0000 0.0000
# 2 24.6881 54.3963 33.5083 0.0000 0.0000 0.0000
# 3 18.5245 33.5083 111.3095 0.0000 0.0000 0.0000
# 4 0.0000 0.0000 0.0000 4.9407 0.0000 0.0000
# 5 0.0000 0.0000 0.0000 0.0000 39.0579 0.0000
# 6 0.0000 0.0000 0.0000 0.0000 0.0000 23.8031
#
#
#
# Elastic Compliance Matrix: (Units=1/GPa)
#
#
# Indices 1 2 3 4 5 6 
#
# 1 0.009728 -0.004196 -0.000356 0.000000 0.000000 0.000000
# 2 -0.004196 0.024379 -0.006641 0.000000 0.000000 0.000000
# 3 -0.000356 -0.006641 0.011042 0.000000 0.000000 0.000000
# 4 0.000000 0.000000 0.000000 0.202399 0.000000 0.000000
# 5 0.000000 0.000000 0.000000 0.000000 0.025603 0.000000
# 6 0.000000 0.000000 0.000000 0.000000 0.000000 0.042011
#
#
# Mechanical properties :
#
#
# Convention : Reuss Voigt Hill
#
# Bulk Modulus (GPa) = 43.92873 48.14121 46.03497
# Shear Modulus (GPa) = 14.48710 27.10088 20.79399
#
# Velocity S-wave (km/s) = 2.70380 3.69808 3.23932
# Velocity P-wave (km/s) = 5.64933 6.52133 6.10093
#
# Compressibility (1/GPa) = 0.02276415
#
# Stress axis : x y z
#
# Youngs Moduli (GPa) = 102.79714 41.01967 90.56140
#
# Poissons Ratio (x) = 0.17211 0.03223
# Poissons Ratio (y) = 0.43132 0.60138
# Poissons Ratio (z) = 0.03658 0.27239
#
# Static dielectric constant tensor:
#      x y z
#    x 1.804580 0.000000 0.000000 
#    y 0.000000 1.732040 0.000000 
#    z 0.000000 0.000000 1.789750 
# 
# From -- ./inp_files/30617.got.cif
#   From: 2010.05.17/outbox.cif.g08.bks.cpg/sg65_16_cif.got.tgz:30617.got - 2010.06.03 17:01:31.
