data_PCOD9492539
_publ_section_title
;
Structure prediction by ZEFSAII (Michael W. Deem and Ramdas Pophale) SiO2 
 PCOD9492539
Probable space group: C M M M
;
_chemical_formula_sum "Si O2"
_cell_formula_units_Z 96
_cell_length_a 19.400326
_cell_length_b 14.742805
_cell_length_c 15.868164
_cell_angle_alpha 90.000000
_cell_angle_beta 90.000000
_cell_angle_gamma 90.000000
_cell_volume 4538.536468
_symmetry_space_group_name_H-M "C M M M"
_symmetry_group_IT_number 65
_symmetry_cell_setting 'orthorhombic'
loop_
_space_group_symop_operation_xyz
x,y,z
-x,-y,z
x,-y,-z
-x,y,-z
-x,-y,-z
x,y,-z
-x,y,z
x,-y,z
1/2+x,1/2+y,z
1/2-x,1/2-y,z
1/2+x,1/2-y,-z
1/2-x,1/2+y,-z
1/2-x,1/2-y,-z
1/2+x,1/2+y,-z
1/2-x,1/2+y,z
1/2+x,1/2-y,z
loop_
_atom_site_type_symbol
_atom_site_label
_atom_site_fract_x
_atom_site_fract_y
_atom_site_fract_z
Si Si1 0.140527 0.278981 0.092326
Si Si2 0.421685 0.651127 0.403376
Si Si3 0.081172 0.402964 0.769184
Si Si4 0.774658 0.891994 0.133906
Si Si5 0.859788 0.350543 0.593174
Si Si6 0.224283 0.896970 0.333982
O O1 0.099493 0.319185 0.171161
O O2 0.163265 0.174759 0.107006
O O3 0.208366 0.343590 0.093376
O O4 0.107427 0.287584 0.000000
O O5 0.419069 0.617420 0.500000
O O6 0.500000 0.636331 0.371870
O O7 0.403163 0.757583 0.406235
O O8 0.356585 0.612543 0.353479
O O9 0.102685 0.500000 0.809312
O O10 0.114738 0.398907 0.677438
O O11 0.000000 0.403246 0.757576
O O12 0.765595 0.880534 0.234789
O O13 0.781638 0.000000 0.115956
O O14 0.869017 0.391062 0.500000
O O15 0.778094 0.339453 0.611037
O O16 0.243688 0.000000 0.353653
#
# Coordination Sequence:
#
# PCOD9492539 Si02
#       6
#    16  16  16  16  16  16
#     4  11  23  39  64  94 125 164 208 260 320 382
#     4  10  22  38  56  82 118 164 217 269 319 375
#     4  11  24  41  62  91 128 170 215 267 326 388
#     4  10  21  38  61  93 128 159 202 260 318 382
#     4  11  22  38  61  89 123 167 218 266 316 378
#     4  11  22  36  59  89 123 165 211 263 319 377
#
# _framework density 21.152193
#
# number of rings (size 3 to 8) (size 9 to 14) (size 15 to 20)
#    0.000    1.333    1.667    4.500    2.333    7.667 
#    0.000    2.500    0.000    1.500    0.000    1.167 
#    0.000    0.000    0.000    0.000    0.000    0.000 
#
# Total GULP energy -267848.804846 kJ/mol
# GULP energy per Si atom -5580.183434 kJ/mol
# Density = 2.110405 g / cm^3
# Si number density = 21.152193 Si / 1000 Ang^3
#
#
#
# Elastic Constant Matrix: (Units=GPa)
#
#
# Indices 1 2 3 4 5 6 
#
# 1 100.0389 21.8079 36.4862 0.0000 0.0000 0.0000
# 2 21.8079 107.8965 33.8626 0.0000 0.0000 0.0000
# 3 36.4862 33.8626 110.4122 0.0000 0.0000 0.0000
# 4 0.0000 0.0000 0.0000 -109.5263 0.0000 0.0000
# 5 0.0000 0.0000 0.0000 0.0000 37.2689 0.0000
# 6 0.0000 0.0000 0.0000 0.0000 0.0000 16.1982
#
#
#
# Elastic Compliance Matrix: (Units=1/GPa)
#
#
# Indices 1 2 3 4 5 6 
#
# 1 0.011517 -0.001254 -0.003421 0.000000 0.000000 0.000000
# 2 -0.001254 0.010392 -0.002773 0.000000 0.000000 0.000000
# 3 -0.003421 -0.002773 0.011038 0.000000 0.000000 0.000000
# 4 0.000000 0.000000 0.000000 -0.009130 0.000000 0.000000
# 5 0.000000 0.000000 0.000000 0.000000 0.026832 0.000000
# 6 0.000000 0.000000 0.000000 0.000000 0.000000 0.061735
#
#
# Mechanical properties :
#
#
# Convention : Reuss Voigt Hill
#
# Bulk Modulus (GPa) = 55.39901 55.85119 55.62510
# Shear Modulus (GPa) = 37.51015 3.86755 20.68885
#
# Velocity S-wave (km/s) = 4.21568 1.35366 3.13084
# Velocity P-wave (km/s) = 7.06707 5.37633 6.27887
#
# Compressibility (1/GPa) = 0.01805086
#
# Stress axis : x y z
#
# Youngs Moduli (GPa) = 86.82569 96.22968 90.59682
#
# Poissons Ratio (x) = 0.12068 0.30996
# Poissons Ratio (y) = 0.10889 0.25119
# Poissons Ratio (z) = 0.29706 0.26681
#
# Static dielectric constant tensor:
#      x y z
#    x 1.759350 0.000000 0.000000 
#    y 0.000000 1.813990 0.000000 
#    z 0.000000 0.000000 1.761000 
# 
# From -- ./inp_files/44144.got.cif
#   From: 2010.05.17/outbox.cif.g08.bks.cpg/sg65_23_cif.got.tgz:44144.got - 2010.06.03 17:01:31.
