data_PCOD9492621
_publ_section_title
;
Structure prediction by ZEFSAII (Michael W. Deem and Ramdas Pophale) SiO2 
 PCOD9492621
Probable space group: C M M M
;
_chemical_formula_sum "Si O2"
_cell_formula_units_Z 50
_cell_length_a 9.540144
_cell_length_b 17.952735
_cell_length_c 15.431813
_cell_angle_alpha 90.000000
_cell_angle_beta 90.000000
_cell_angle_gamma 90.000000
_cell_volume 2643.032493
_symmetry_space_group_name_H-M "C M M M"
_symmetry_group_IT_number 65
_symmetry_cell_setting 'orthorhombic'
loop_
_space_group_symop_operation_xyz
x,y,z
-x,-y,z
x,-y,-z
-x,y,-z
-x,-y,-z
x,y,-z
-x,y,z
x,-y,z
1/2+x,1/2+y,z
1/2-x,1/2-y,z
1/2+x,1/2-y,-z
1/2-x,1/2+y,-z
1/2-x,1/2-y,-z
1/2+x,1/2+y,-z
1/2-x,1/2+y,z
1/2+x,1/2-y,z
loop_
_atom_site_type_symbol
_atom_site_label
_atom_site_fract_x
_atom_site_fract_y
_atom_site_fract_z
Si Si1 0.789252 0.582964 0.000000
Si Si2 0.337297 0.825960 0.825501
Si Si3 0.165783 0.173424 0.500000
Si Si4 0.334604 0.588681 0.679096
Si Si5 0.500000 0.500000 0.000000
O O1 0.828782 0.628489 0.914843
O O2 0.852526 0.500000 0.000000
O O3 0.623737 0.564228 0.000000
O O4 0.500000 0.810932 0.804474
O O5 0.250000 0.750000 0.833689
O O6 0.263036 0.874555 0.751089
O O7 0.250000 0.250000 0.500000
O O8 0.195184 0.125769 0.413824
O O9 0.000000 0.190020 0.500000
O O10 0.500000 0.601603 0.699517
O O11 0.313886 0.500000 0.675623
#
# Coordination Sequence:
#
# PCOD9492621 Si02
#       5
#     8  16   8  16   2
#     4  10  24  41  66  90 123 159 204 246 302 360
#     4  12  26  41  62  90 125 163 205 254 305 362
#     4  10  21  39  61  91 123 160 203 250 306 362
#     4  10  22  40  65  90 122 161 205 252 305 366
#     4   8  24  40  70  92 120 162 208 244 304 372
#
# _framework density 18.917662
#
# number of rings (size 3 to 8) (size 9 to 14) (size 15 to 20)
#    0.480    0.960    0.000    4.320    4.480    8.960 
#    0.000    0.000    0.000    2.880    0.000    0.000 
#    0.000    0.000    0.000    0.000    0.000    0.000 
#
# Total GULP energy -139434.633044 kJ/mol
# GULP energy per Si atom -5577.385322 kJ/mol
# Density = 1.887460 g / cm^3
# Si number density = 18.917662 Si / 1000 Ang^3
#
#
#
# Elastic Constant Matrix: (Units=GPa)
#
#
# Indices 1 2 3 4 5 6 
#
# 1 143.9463 90.1826 79.3741 0.0000 0.0000 0.0000
# 2 90.1826 171.4000 92.1784 0.0000 0.0000 0.0000
# 3 79.3741 92.1784 170.0957 0.0000 0.0000 0.0000
# 4 0.0000 0.0000 0.0000 39.5754 0.0000 0.0000
# 5 0.0000 0.0000 0.0000 0.0000 -5.9452 0.0000
# 6 0.0000 0.0000 0.0000 0.0000 0.0000 21.1574
#
#
#
# Elastic Compliance Matrix: (Units=1/GPa)
#
#
# Indices 1 2 3 4 5 6 
#
# 1 0.011288 -0.004384 -0.002892 0.000000 0.000000 0.000000
# 2 -0.004384 0.009937 -0.003339 0.000000 0.000000 0.000000
# 3 -0.002892 -0.003339 0.009038 0.000000 0.000000 0.000000
# 4 0.000000 0.000000 0.000000 0.025268 0.000000 0.000000
# 5 0.000000 0.000000 0.000000 0.000000 -0.168202 0.000000
# 6 0.000000 0.000000 0.000000 0.000000 0.000000 0.047265
#
#
# Mechanical properties :
#
#
# Convention : Reuss Voigt Hill
#
# Bulk Modulus (GPa) = 110.70491 112.10138 111.40314
# Shear Modulus (GPa) = -121.46292 25.87130 -47.79581
#
# Velocity S-wave (km/s) = -8.02156 3.70208 -5.03190
# Velocity P-wave (km/s) = 5.21034 8.81249 5.02556
#
# Compressibility (1/GPa) = 0.00903302
#
# Stress axis : x y z
#
# Youngs Moduli (GPa) = 88.58744 100.63568 110.64418
#
# Poissons Ratio (x) = 0.44121 0.31995
# Poissons Ratio (y) = 0.38839 0.36945
# Poissons Ratio (z) = 0.25617 0.33603
#
# Static dielectric constant tensor:
#      x y z
#    x 1.650040 0.000000 0.000000 
#    y 0.000000 1.625880 0.000000 
#    z 0.000000 0.000000 1.631790 
# 
# From -- ./inp_files/35122.got.cif
#   From: 2010.05.17/outbox.cif.g08.bks.cpg/sg65_18_cif.got.tgz:35122.got - 2010.06.03 17:01:31.
