data_PCOD9492564
_publ_section_title
;
Structure prediction by ZEFSAII (Michael W. Deem and Ramdas Pophale) SiO2 
 PCOD9492564
Probable space group: C M M M
;
_chemical_formula_sum "Si O2"
_cell_formula_units_Z 72
_cell_length_a 15.644230
_cell_length_b 9.111894
_cell_length_c 26.386354
_cell_angle_alpha 90.000000
_cell_angle_beta 90.000000
_cell_angle_gamma 90.000000
_cell_volume 3761.336911
_symmetry_space_group_name_H-M "C M M M"
_symmetry_group_IT_number 65
_symmetry_cell_setting 'orthorhombic'
loop_
_space_group_symop_operation_xyz
x,y,z
-x,-y,z
x,-y,-z
-x,y,-z
-x,-y,-z
x,y,-z
-x,y,z
x,-y,z
1/2+x,1/2+y,z
1/2-x,1/2-y,z
1/2+x,1/2-y,-z
1/2-x,1/2+y,-z
1/2-x,1/2-y,-z
1/2+x,1/2+y,-z
1/2-x,1/2+y,z
1/2+x,1/2-y,z
loop_
_atom_site_type_symbol
_atom_site_label
_atom_site_fract_x
_atom_site_fract_y
_atom_site_fract_z
Si Si1 0.395600 0.669371 0.500000
Si Si2 0.500000 0.672821 0.766340
Si Si3 0.101101 0.674257 0.602039
Si Si4 0.500000 0.328055 0.112343
Si Si5 0.339708 0.173042 0.060628
Si Si6 0.661778 0.176505 0.285894
O O1 0.371885 0.500000 0.500000
O O2 0.500000 0.680543 0.500000
O O3 0.366660 0.745005 0.551892
O O4 0.500000 0.500000 0.752329
O O5 0.500000 0.683346 0.827004
O O6 0.582889 0.753201 0.743919
O O7 0.107240 0.500000 0.593781
O O8 0.147282 0.710571 0.654445
O O9 0.000000 0.709247 0.608828
O O10 0.500000 0.500000 0.098436
O O11 0.416826 0.249925 0.089591
O O12 0.250000 0.250000 0.073253
O O13 0.336272 0.000000 0.072119
O O14 0.353078 0.188811 0.000000
O O15 0.750000 0.250000 0.269099
O O16 0.662810 0.000000 0.280149
#
# Coordination Sequence:
#
# PCOD9492564 Si02
#       6
#     8   8  16   8  16  16
#     4   9  17  27  46  81 114 144 184 230 284 344
#     4  11  25  44  64  88 119 158 202 253 305 356
#     4   9  17  33  55  79 111 149 188 232 287 352
#     4  11  24  40  61  90 123 161 206 251 302 356
#     4  10  21  38  62  93 128 166 206 248 297 352
#     4  11  23  41  64  90 117 153 199 247 303 362
#
# _framework density 19.142130000000002
#
# number of rings (size 3 to 8) (size 9 to 14) (size 15 to 20)
#    0.000    1.889    1.111    2.667    0.000    8.444 
#    0.000    0.556    0.000    0.000    0.000    0.000 
#    0.000    0.000    0.000    0.000    0.000    0.000 
#
# Total GULP energy -201203.600714 kJ/mol
# GULP energy per Si atom -5588.988909 kJ/mol
# Density = 1.909856 g / cm^3
# Si number density = 19.142130 Si / 1000 Ang^3
#
#
#
# Elastic Constant Matrix: (Units=GPa)
#
#
# Indices 1 2 3 4 5 6 
#
# 1 154.6217 91.7581 71.5931 0.0000 0.0000 0.0000
# 2 91.7581 126.7699 77.7490 0.0000 0.0000 0.0000
# 3 71.5931 77.7490 69.7755 0.0000 0.0000 0.0000
# 4 0.0000 0.0000 0.0000 32.9278 0.0000 0.0000
# 5 0.0000 0.0000 0.0000 0.0000 -14.3088 0.0000
# 6 0.0000 0.0000 0.0000 0.0000 0.0000 31.4205
#
#
#
# Elastic Compliance Matrix: (Units=1/GPa)
#
#
# Indices 1 2 3 4 5 6 
#
# 1 0.012889 -0.003848 -0.008937 0.000000 0.000000 0.000000
# 2 -0.003848 0.026064 -0.025094 0.000000 0.000000 0.000000
# 3 -0.008937 -0.025094 0.051463 0.000000 0.000000 0.000000
# 4 0.000000 0.000000 0.000000 0.030369 0.000000 0.000000
# 5 0.000000 0.000000 0.000000 0.000000 -0.069887 0.000000
# 6 0.000000 0.000000 0.000000 0.000000 0.000000 0.031826
#
#
# Mechanical properties :
#
#
# Convention : Reuss Voigt Hill
#
# Bulk Modulus (GPa) = 68.22272 92.59638 80.40955
# Shear Modulus (GPa) = 30.60564 17.34568 23.97566
#
# Velocity S-wave (km/s) = 4.00292 3.01350 3.54292
# Velocity P-wave (km/s) = 7.55526 7.78372 7.67034
#
# Compressibility (1/GPa) = 0.01465787
#
# Stress axis : x y z
#
# Youngs Moduli (GPa) = 77.58554 38.36687 19.43156
#
# Poissons Ratio (x) = 0.14765 0.17365
# Poissons Ratio (y) = 0.29858 0.48762
# Poissons Ratio (z) = 0.69335 0.96278
#
# Static dielectric constant tensor:
#      x y z
#    x 1.663870 0.000000 0.000000 
#    y 0.000000 1.633570 0.000000 
#    z 0.000000 0.000000 1.645870 
# 
# From -- ./inp_files/74680.got.cif
#   From: 2010.05.17/outbox.cif.g08.bks.cpg/sg65_38_cif.got.tgz:74680.got - 2010.06.03 17:01:31.
