data_PCOD9492317
_publ_section_title
;
Structure prediction by ZEFSAII (Michael W. Deem and Ramdas Pophale) SiO2 
 PCOD9492317
Probable space group: C M M M
;
_chemical_formula_sum "Si O2"
_cell_formula_units_Z 100
_cell_length_a 15.273354
_cell_length_b 16.893555
_cell_length_c 21.446001
_cell_angle_alpha 90.000000
_cell_angle_beta 90.000000
_cell_angle_gamma 90.000000
_cell_volume 5533.523896
_symmetry_space_group_name_H-M "C M M M"
_symmetry_group_IT_number 65
_symmetry_cell_setting 'orthorhombic'
loop_
_space_group_symop_operation_xyz
x,y,z
-x,-y,z
x,-y,-z
-x,y,-z
-x,-y,-z
x,y,-z
-x,y,z
x,-y,z
1/2+x,1/2+y,z
1/2-x,1/2-y,z
1/2+x,1/2-y,-z
1/2-x,1/2+y,-z
1/2-x,1/2-y,-z
1/2+x,1/2+y,-z
1/2-x,1/2+y,z
1/2+x,1/2-y,z
loop_
_atom_site_type_symbol
_atom_site_label
_atom_site_fract_x
_atom_site_fract_y
_atom_site_fract_z
Si Si1 0.899326 0.810700 0.426892
Si Si2 0.269074 0.408758 0.000000
Si Si3 0.600020 0.872271 0.387533
Si Si4 0.096579 0.681552 0.000000
Si Si5 0.900247 0.907719 0.215044
Si Si6 0.278930 0.592856 0.666342
Si Si7 0.121824 0.500000 0.500000
Si Si8 0.162883 0.796702 0.892679
O O1 0.882383 0.822950 0.500000
O O2 0.893890 0.717763 0.411421
O O3 0.830121 0.857587 0.385754
O O4 0.000000 0.835953 0.413783
O O5 0.167118 0.387436 0.000000
O O6 0.307069 0.365607 0.060372
O O7 0.288358 0.500000 0.000000
O O8 0.500000 0.885711 0.365524
O O9 0.676461 0.885817 0.337193
O O10 0.617023 0.931270 0.445150
O O11 0.112446 0.736033 0.938591
O O12 0.000000 0.650075 0.000000
O O13 0.828390 0.893588 0.268527
O O14 0.887263 0.841505 0.162134
O O15 0.000000 0.901839 0.239734
O O16 0.889753 0.000000 0.193216
O O17 0.287494 0.500000 0.651787
O O18 0.250000 0.750000 0.870344
#
# Coordination Sequence:
#
# PCOD9492317 Si02
#       8
#    16   8  16   8  16  16   4  16
#     4  10  22  38  55  78 106 136 173 217 265 320
#     4   9  17  30  50  80 113 145 176 214 261 319
#     4  11  22  37  59  84 108 134 171 224 277 327
#     4   9  17  30  50  82 113 141 176 218 264 312
#     4  10  21  38  57  77 104 143 185 225 268 319
#     4  11  24  37  55  78 108 143 180 218 267 326
#     4  12  21  36  62  88 109 132 173 224 280 334
#     4   9  18  32  54  80 108 139 179 225 269 309
#
# _framework density 18.071667000000001
#
# number of rings (size 3 to 8) (size 9 to 14) (size 15 to 20)
#    0.000    1.920    1.600    3.600    1.120    3.360 
#    0.000    0.800    0.000    7.680    0.000    4.480 
#    0.000    0.000    0.000    0.000    0.000    0.000 
#
# Total GULP energy -278390.117907 kJ/mol
# GULP energy per Si atom -5567.802358 kJ/mol
# Density = 1.803053 g / cm^3
# Si number density = 18.071667 Si / 1000 Ang^3
#
#
#
# Elastic Constant Matrix: (Units=GPa)
#
#
# Indices 1 2 3 4 5 6 
#
# 1 85.6820 5.8427 39.9621 0.0000 0.0000 0.0000
# 2 5.8427 41.3481 15.6621 0.0000 0.0000 0.0000
# 3 39.9621 15.6621 52.4625 0.0000 0.0000 0.0000
# 4 0.0000 0.0000 0.0000 16.3253 0.0000 0.0000
# 5 0.0000 0.0000 0.0000 0.0000 11.8223 0.0000
# 6 0.0000 0.0000 0.0000 0.0000 0.0000 13.1940
#
#
#
# Elastic Compliance Matrix: (Units=1/GPa)
#
#
# Indices 1 2 3 4 5 6 
#
# 1 0.018440 0.003061 -0.014960 0.000000 0.000000 0.000000
# 2 0.003061 0.027777 -0.010624 0.000000 0.000000 0.000000
# 3 -0.014960 -0.010624 0.033628 0.000000 0.000000 0.000000
# 4 0.000000 0.000000 0.000000 0.061255 0.000000 0.000000
# 5 0.000000 0.000000 0.000000 0.000000 0.084586 0.000000
# 6 0.000000 0.000000 0.000000 0.000000 0.000000 0.075792
#
#
# Mechanical properties :
#
#
# Convention : Reuss Voigt Hill
#
# Bulk Modulus (GPa) = 28.73670 33.60295 31.16982
# Shear Modulus (GPa) = 13.96174 16.13671 15.04923
#
# Velocity S-wave (km/s) = 2.78254 2.99143 2.88888
# Velocity P-wave (km/s) = 5.12439 5.52867 5.33037
#
# Compressibility (1/GPa) = 0.03479871
#
# Stress axis : x y z
#
# Youngs Moduli (GPa) = 54.23122 36.00156 29.73699
#
# Poissons Ratio (x) = -0.11020 0.44486
# Poissons Ratio (y) = -0.16600 0.31593
# Poissons Ratio (z) = 0.81128 0.38248
#
# Static dielectric constant tensor:
#      x y z
#    x 1.654170 0.000000 0.000000 
#    y 0.000000 1.598490 0.000000 
#    z 0.000000 0.000000 1.616730 
# 
# From -- ./inp_files/62898.got.cif
#   From: 2010.05.17/outbox.cif.g08.bks.cpg/sg65_32_cif.got.tgz:62898.got - 2010.06.03 17:01:31.
