data_PCOD9492117
_publ_section_title
;
Structure prediction by ZEFSAII (Michael W. Deem and Ramdas Pophale) SiO2 
 PCOD9492117
Probable space group: C M M M
;
_chemical_formula_sum "Si O2"
_cell_formula_units_Z 104
_cell_length_a 7.603310
_cell_length_b 31.334796
_cell_length_c 21.324758
_cell_angle_alpha 90.000000
_cell_angle_beta 90.000000
_cell_angle_gamma 90.000000
_cell_volume 5080.584522
_symmetry_space_group_name_H-M "C M M M"
_symmetry_group_IT_number 65
_symmetry_cell_setting 'orthorhombic'
loop_
_space_group_symop_operation_xyz
x,y,z
-x,-y,z
x,-y,-z
-x,y,-z
-x,-y,-z
x,y,-z
-x,y,z
x,-y,z
1/2+x,1/2+y,z
1/2-x,1/2-y,z
1/2+x,1/2-y,-z
1/2-x,1/2+y,-z
1/2-x,1/2-y,-z
1/2+x,1/2+y,-z
1/2-x,1/2+y,z
1/2+x,1/2-y,z
loop_
_atom_site_type_symbol
_atom_site_label
_atom_site_fract_x
_atom_site_fract_y
_atom_site_fract_z
Si Si1 0.215659 0.386195 0.364872
Si Si2 0.289778 0.796722 0.571159
Si Si3 0.708882 0.122425 0.220569
Si Si4 0.708603 0.954047 0.862694
Si Si5 0.707554 0.702384 0.136025
Si Si6 0.209988 0.924551 0.000000
Si Si7 0.500000 0.551008 0.575688
Si Si8 0.784962 0.825688 0.000000
O O1 0.264480 0.340168 0.394792
O O2 0.268229 0.382586 0.291821
O O3 0.328706 0.423799 0.397189
O O4 0.000000 0.391984 0.370462
O O5 0.217898 0.796661 0.500000
O O6 0.500000 0.799082 0.567967
O O7 0.250000 0.750000 0.599738
O O8 0.500000 0.116914 0.223961
O O9 0.784080 0.085542 0.175728
O O10 0.736079 0.167254 0.186105
O O11 0.500000 0.955229 0.850513
O O12 0.729633 0.946464 0.936471
O O13 0.783726 0.000000 0.845047
O O14 0.500000 0.697910 0.130530
O O15 0.750000 0.750000 0.156516
O O16 0.779538 0.694527 0.065347
O O17 0.267509 0.875261 0.000000
O O18 0.000000 0.924952 0.000000
O O19 0.500000 0.500000 0.591220
O O20 0.500000 0.554600 0.500000
O O21 0.000000 0.823608 0.000000
#
# Coordination Sequence:
#
# PCOD9492117 Si02
#       8
#    16  16  16  16  16   8   8   8
#     4  10  23  43  67  96 137 178 217 269 328 390
#     4   9  18  33  57  91 126 163 205 250 309 375
#     4  10  22  40  61  87 119 161 208 253 310 378
#     4  10  21  37  57  82 113 150 194 247 309 373
#     4  11  22  38  59  84 119 162 210 267 320 378
#     4  11  20  35  56  82 112 144 192 254 313 367
#     4  11  26  46  72 106 136 173 229 277 324 389
#     4   9  19  35  55  79 112 153 203 263 327 375
#
# _framework density 20.470086999999999
#
# number of rings (size 3 to 8) (size 9 to 14) (size 15 to 20)
#    0.000    1.923    1.538    1.615    2.154    3.692 
#    0.000    5.000    0.000    0.000    0.000    0.000 
#    0.000    0.000    0.000    0.000    0.000    0.000 
#
# Total GULP energy -290232.031897 kJ/mol
# GULP energy per Si atom -5581.385229 kJ/mol
# Density = 2.042350 g / cm^3
# Si number density = 20.470087 Si / 1000 Ang^3
#
#
#
# Elastic Constant Matrix: (Units=GPa)
#
#
# Indices 1 2 3 4 5 6 
#
# 1 63.0631 25.6257 24.7241 0.0000 0.0000 0.0000
# 2 25.6257 205.5465 92.5135 0.0000 0.0000 0.0000
# 3 24.7241 92.5135 134.8975 0.0000 0.0000 0.0000
# 4 0.0000 0.0000 0.0000 1.7179 0.0000 0.0000
# 5 0.0000 0.0000 0.0000 0.0000 -74.5914 0.0000
# 6 0.0000 0.0000 0.0000 0.0000 0.0000 22.2560
#
#
#
# Elastic Compliance Matrix: (Units=1/GPa)
#
#
# Indices 1 2 3 4 5 6 
#
# 1 0.017241 -0.001052 -0.002438 0.000000 0.000000 0.000000
# 2 -0.001052 0.007101 -0.004677 0.000000 0.000000 0.000000
# 3 -0.002438 -0.004677 0.011068 0.000000 0.000000 0.000000
# 4 0.000000 0.000000 0.000000 0.582122 0.000000 0.000000
# 5 0.000000 0.000000 0.000000 0.000000 -0.013406 0.000000
# 6 0.000000 0.000000 0.000000 0.000000 0.000000 0.044932
#
#
# Mechanical properties :
#
#
# Convention : Reuss Voigt Hill
#
# Bulk Modulus (GPa) = 52.42677 76.58153 64.50415
# Shear Modulus (GPa) = 7.44324 7.25273 7.34799
#
# Velocity S-wave (km/s) = 1.90894 1.88435 1.89669
# Velocity P-wave (km/s) = 5.52501 6.49823 6.03128
#
# Compressibility (1/GPa) = 0.01907422
#
# Stress axis : x y z
#
# Youngs Moduli (GPa) = 58.00270 140.81609 90.35243
#
# Poissons Ratio (x) = 0.14812 0.22032
# Poissons Ratio (y) = 0.06101 0.42262
# Poissons Ratio (z) = 0.14144 0.65866
#
# Static dielectric constant tensor:
#      x y z
#    x 1.759340 0.000000 0.000000 
#    y 0.000000 1.723900 0.000000 
#    z 0.000000 0.000000 1.726000 
# 
# From -- ./inp_files/60478.got.cif
#   From: 2010.05.17/outbox.cif.g08.bks.cpg/sg65_31_cif.got.tgz:60478.got - 2010.06.03 17:01:31.
