data_PCOD9492212
_publ_section_title
;
Structure prediction by ZEFSAII (Michael W. Deem and Ramdas Pophale) SiO2 
 PCOD9492212
Probable space group: C M M M
;
_chemical_formula_sum "Si O2"
_cell_formula_units_Z 104
_cell_length_a 8.985581
_cell_length_b 27.563434
_cell_length_c 21.455842
_cell_angle_alpha 90.000000
_cell_angle_beta 90.000000
_cell_angle_gamma 90.000000
_cell_volume 5314.042815
_symmetry_space_group_name_H-M "C M M M"
_symmetry_group_IT_number 65
_symmetry_cell_setting 'orthorhombic'
loop_
_space_group_symop_operation_xyz
x,y,z
-x,-y,z
x,-y,-z
-x,y,-z
-x,-y,-z
x,y,-z
-x,y,z
x,-y,z
1/2+x,1/2+y,z
1/2-x,1/2-y,z
1/2+x,1/2-y,-z
1/2-x,1/2+y,-z
1/2-x,1/2-y,-z
1/2+x,1/2+y,-z
1/2-x,1/2+y,z
1/2+x,1/2-y,z
loop_
_atom_site_type_symbol
_atom_site_label
_atom_site_fract_x
_atom_site_fract_y
_atom_site_fract_z
Si Si1 0.819300 0.000000 0.927390
Si Si2 0.321923 0.803088 0.829657
Si Si3 0.830196 0.443674 0.402469
Si Si4 0.174452 0.852181 0.567682
Si Si5 0.823191 0.698167 0.684015
Si Si6 0.175577 0.900948 0.141851
Si Si7 0.833742 0.557236 0.253377
O O1 0.770329 0.948726 0.896591
O O2 0.000000 0.000000 0.921350
O O3 0.780431 0.000000 0.000000
O O4 0.500000 0.799913 0.837164
O O5 0.250000 0.750000 0.843249
O O6 0.289462 0.814196 0.756183
O O7 0.256196 0.849109 0.867301
O O8 0.812761 0.500000 0.417984
O O9 0.710462 0.409119 0.432554
O O10 0.818030 0.438835 0.327407
O O11 0.000000 0.429157 0.419297
O O12 0.223297 0.831899 0.500000
O O13 0.259696 0.833973 0.628505
O O14 0.000000 0.842631 0.574517
O O15 0.750000 0.750000 0.673756
O O16 0.000000 0.699884 0.678707
O O17 0.210406 0.916679 0.212858
O O18 0.000000 0.894900 0.131198
O O19 0.829683 0.500000 0.239036
O O20 0.000000 0.575989 0.236666
#
# Coordination Sequence:
#
# PCOD9492212 Si02
#       7
#     8  16  16  16  16  16  16
#     4   9  20  38  57  83 123 167 206 239 274 319
#     4  10  21  37  58  87 119 149 183 230 288 345
#     4   9  19  35  53  73  98 133 175 219 272 333
#     4  11  24  38  51  71 100 135 177 224 274 329
#     4  10  21  38  60  82 106 137 174 217 274 334
#     4  11  20  32  55  85 116 153 196 238 279 330
#     4   9  17  30  49  75 108 140 173 221 282 339
#
# _framework density 19.570786999999999
#
# number of rings (size 3 to 8) (size 9 to 14) (size 15 to 20)
#    0.000    2.077    0.769    3.692    0.000    8.308 
#    0.000    3.077    0.000    4.154    0.000    0.000 
#    0.000    0.000    0.000    0.000    0.000    0.000 
#
# Total GULP energy -290058.812847 kJ/mol
# GULP energy per Si atom -5578.054093 kJ/mol
# Density = 1.952624 g / cm^3
# Si number density = 19.570787 Si / 1000 Ang^3
#
#
#
# Elastic Constant Matrix: (Units=GPa)
#
#
# Indices 1 2 3 4 5 6 
#
# 1 43.0491 48.9638 21.7110 0.0000 0.0000 0.0000
# 2 48.9638 138.1707 51.8854 0.0000 0.0000 0.0000
# 3 21.7110 51.8854 43.9842 0.0000 0.0000 0.0000
# 4 0.0000 0.0000 0.0000 6.7210 0.0000 0.0000
# 5 0.0000 0.0000 0.0000 0.0000 3.1930 0.0000
# 6 0.0000 0.0000 0.0000 0.0000 0.0000 37.1245
#
#
#
# Elastic Compliance Matrix: (Units=1/GPa)
#
#
# Indices 1 2 3 4 5 6 
#
# 1 0.039609 -0.012018 -0.005374 0.000000 0.000000 0.000000
# 2 -0.012018 0.016640 -0.013696 0.000000 0.000000 0.000000
# 3 -0.005374 -0.013696 0.041545 0.000000 0.000000 0.000000
# 4 0.000000 0.000000 0.000000 0.148788 0.000000 0.000000
# 5 0.000000 0.000000 0.000000 0.000000 0.313188 0.000000
# 6 0.000000 0.000000 0.000000 0.000000 0.000000 0.026936
#
#
# Mechanical properties :
#
#
# Convention : Reuss Voigt Hill
#
# Bulk Modulus (GPa) = 28.07729 52.25829 40.16779
# Shear Modulus (GPa) = 7.56710 16.25062 11.90886
#
# Velocity S-wave (km/s) = 1.96848 2.88471 2.46946
# Velocity P-wave (km/s) = 4.42089 6.15269 5.35723
#
# Compressibility (1/GPa) = 0.03561598
#
# Stress axis : x y z
#
# Youngs Moduli (GPa) = 25.24663 60.09771 24.07037
#
# Poissons Ratio (x) = 0.72227 0.12936
# Poissons Ratio (y) = 0.30342 0.32968
# Poissons Ratio (z) = 0.13568 0.82312
#
# Static dielectric constant tensor:
#      x y z
#    x 1.672050 0.000000 0.000000 
#    y 0.000000 1.728790 0.000000 
#    z 0.000000 0.000000 1.695190 
# 
# From -- ./inp_files/60809.got.cif
#   From: 2010.05.17/outbox.cif.g08.bks.cpg/sg65_31_cif.got.tgz:60809.got - 2010.06.03 17:01:31.
