data_PCOD9492514
_publ_section_title
;
Structure prediction by ZEFSAII (Michael W. Deem and Ramdas Pophale) SiO2 
 PCOD9492514
Probable space group: C M M M
;
_chemical_formula_sum "Si O2"
_cell_formula_units_Z 64
_cell_length_a 21.429793
_cell_length_b 17.502399
_cell_length_c 8.825348
_cell_angle_alpha 90.000000
_cell_angle_beta 90.000000
_cell_angle_gamma 90.000000
_cell_volume 3310.147876
_symmetry_space_group_name_H-M "C M M M"
_symmetry_group_IT_number 65
_symmetry_cell_setting 'orthorhombic'
loop_
_space_group_symop_operation_xyz
x,y,z
-x,-y,z
x,-y,-z
-x,y,-z
-x,-y,-z
x,y,-z
-x,y,z
x,-y,z
1/2+x,1/2+y,z
1/2-x,1/2-y,z
1/2+x,1/2-y,-z
1/2-x,1/2+y,-z
1/2-x,1/2-y,-z
1/2+x,1/2+y,-z
1/2-x,1/2+y,z
1/2+x,1/2-y,z
loop_
_atom_site_type_symbol
_atom_site_label
_atom_site_fract_x
_atom_site_fract_y
_atom_site_fract_z
Si Si1 0.073073 0.836336 0.818067
Si Si2 0.424686 0.500000 0.673123
Si Si3 0.000000 0.592293 0.327593
Si Si4 0.370168 0.090567 0.176753
Si Si5 0.180700 0.729836 0.679268
O O1 0.091207 0.920981 0.757411
O O2 0.124208 0.776870 0.755950
O O3 0.000000 0.820788 0.771835
O O4 0.074350 0.835906 0.000000
O O5 0.500000 0.500000 0.667445
O O6 0.401073 0.500000 0.500000
O O7 0.060677 0.612134 0.232576
O O8 0.000000 0.500000 0.339485
O O9 0.000000 0.622803 0.500000
O O10 0.326783 0.140981 0.281253
O O11 0.362082 0.000000 0.195809
O O12 0.362223 0.109002 0.000000
O O13 0.176712 0.743215 0.500000
O O14 0.250000 0.750000 0.733699
#
# Coordination Sequence:
#
# PCOD9492514 Si02
#       5
#    16   8   8  16  16
#     4  10  21  38  63  93 123 158 200 249 304 362
#     4   9  17  33  59  91 125 157 196 247 300 359
#     4   9  17  31  55  87 119 152 191 238 289 345
#     4  10  21  38  61  88 119 156 198 246 299 358
#     4  11  25  43  61  86 121 162 205 252 304 359
#
# _framework density 19.334482999999999
#
# number of rings (size 3 to 8) (size 9 to 14) (size 15 to 20)
#    0.000    2.000    0.000    3.000    1.750    8.000 
#    2.250    0.000    0.000    0.000    0.000    0.000 
#    0.000    0.000    0.000    0.000    0.000    0.000 
#
# Total GULP energy -178568.621030 kJ/mol
# GULP energy per Si atom -5580.269407 kJ/mol
# Density = 1.929048 g / cm^3
# Si number density = 19.334483 Si / 1000 Ang^3
#
#
#
# Elastic Constant Matrix: (Units=GPa)
#
#
# Indices 1 2 3 4 5 6 
#
# 1 94.7052 40.2201 26.8081 0.0000 0.0000 0.0000
# 2 40.2201 64.6989 24.0015 0.0000 0.0000 0.0000
# 3 26.8081 24.0015 52.1639 0.0000 0.0000 0.0000
# 4 0.0000 0.0000 0.0000 34.3255 0.0000 0.0000
# 5 0.0000 0.0000 0.0000 0.0000 22.3841 0.0000
# 6 0.0000 0.0000 0.0000 0.0000 0.0000 -14.9041
#
#
#
# Elastic Compliance Matrix: (Units=1/GPa)
#
#
# Indices 1 2 3 4 5 6 
#
# 1 0.015052 -0.007823 -0.004136 0.000000 0.000000 0.000000
# 2 -0.007823 0.022703 -0.006426 0.000000 0.000000 0.000000
# 3 -0.004136 -0.006426 0.024253 0.000000 0.000000 0.000000
# 4 0.000000 0.000000 0.000000 0.029133 0.000000 0.000000
# 5 0.000000 0.000000 0.000000 0.000000 0.044675 0.000000
# 6 0.000000 0.000000 0.000000 0.000000 0.000000 -0.067096
#
#
# Mechanical properties :
#
#
# Convention : Reuss Voigt Hill
#
# Bulk Modulus (GPa) = 39.62232 43.73638 41.67935
# Shear Modulus (GPa) = 43.89747 16.39698 30.14722
#
# Velocity S-wave (km/s) = 4.77007 2.91532 3.95301
# Velocity P-wave (km/s) = 7.13271 5.83114 6.51451
#
# Compressibility (1/GPa) = 0.02523830
#
# Stress axis : x y z
#
# Youngs Moduli (GPa) = 66.43576 44.04710 41.23262
#
# Poissons Ratio (x) = 0.34457 0.17055
# Poissons Ratio (y) = 0.51971 0.26495
# Poissons Ratio (z) = 0.27479 0.28304
#
# Static dielectric constant tensor:
#      x y z
#    x 2.674830 0.000000 0.000000 
#    y 0.000000 1.693980 0.000000 
#    z 0.000000 0.000000 1.659770 
# 
# From -- ./inp_files/10856.got.cif
#   From: 2010.05.17/outbox.cif.g08.bks.cpg/sg65_6_cif.got.tgz:10856.got - 2010.06.03 17:01:31.
