data_PCOD9492382
_publ_section_title
;
Structure prediction by ZEFSAII (Michael W. Deem and Ramdas Pophale) SiO2 
 PCOD9492382
Probable space group: C M M M
;
_chemical_formula_sum "Si O2"
_cell_formula_units_Z 56
_cell_length_a 14.629027
_cell_length_b 8.621142
_cell_length_c 24.182011
_cell_angle_alpha 90.000000
_cell_angle_beta 90.000000
_cell_angle_gamma 90.000000
_cell_volume 3049.809089
_symmetry_space_group_name_H-M "C M M M"
_symmetry_group_IT_number 65
_symmetry_cell_setting 'orthorhombic'
loop_
_space_group_symop_operation_xyz
x,y,z
-x,-y,z
x,-y,-z
-x,y,-z
-x,-y,-z
x,y,-z
-x,y,z
x,-y,z
1/2+x,1/2+y,z
1/2-x,1/2-y,z
1/2+x,1/2-y,-z
1/2-x,1/2+y,-z
1/2-x,1/2-y,-z
1/2+x,1/2+y,-z
1/2-x,1/2+y,z
1/2+x,1/2-y,z
loop_
_atom_site_type_symbol
_atom_site_label
_atom_site_fract_x
_atom_site_fract_y
_atom_site_fract_z
Si Si1 0.000000 0.316468 0.354457
Si Si2 0.000000 0.813789 0.064835
Si Si3 0.147220 0.685702 0.851713
Si Si4 0.852291 0.185802 0.437200
Si Si5 0.500000 0.684859 0.768141
O O1 0.913995 0.264669 0.391195
O O2 0.000000 0.500000 0.345745
O O3 0.000000 0.232353 0.295584
O O4 0.911299 0.745660 0.095813
O O5 0.000000 0.000000 0.071564
O O6 0.000000 0.776991 0.000000
O O7 0.148469 0.500000 0.851417
O O8 0.250000 0.750000 0.851766
O O9 0.088674 0.746498 0.799399
O O10 0.884804 0.219801 0.500000
O O11 0.750000 0.250000 0.433076
O O12 0.853753 0.000000 0.430367
O O13 0.500000 0.500000 0.774508
#
# Coordination Sequence:
#
# PCOD9492382 Si02
#       5
#     8   8  16  16   8
#     4  12  24  38  58  85 115 149 190 233 284 341
#     4  10  21  38  60  89 123 156 194 239 284 333
#     4  11  22  39  62  87 117 154 194 235 285 339
#     4  10  21  38  59  84 114 148 187 232 284 341
#     4  11  23  41  61  84 114 147 190 240 288 338
#
# _framework density 18.361805
#
# number of rings (size 3 to 8) (size 9 to 14) (size 15 to 20)
#    0.000    1.286    0.000    8.571    0.000    6.286 
#    0.000    5.714    0.000    0.000    0.000    0.000 
#    0.000    0.000    0.000    0.000    0.000    0.000 
#
# Total GULP energy -156555.183090 kJ/mol
# GULP energy per Si atom -5591.256539 kJ/mol
# Density = 1.832001 g / cm^3
# Si number density = 18.361805 Si / 1000 Ang^3
#
#
#
# Elastic Constant Matrix: (Units=GPa)
#
#
# Indices 1 2 3 4 5 6 
#
# 1 162.4071 60.4810 80.8502 0.0000 0.0000 0.0000
# 2 60.4810 142.3753 61.6285 0.0000 0.0000 0.0000
# 3 80.8502 61.6285 150.6784 0.0000 0.0000 0.0000
# 4 0.0000 0.0000 0.0000 34.1077 0.0000 0.0000
# 5 0.0000 0.0000 0.0000 0.0000 10.2512 0.0000
# 6 0.0000 0.0000 0.0000 0.0000 0.0000 38.0389
#
#
#
# Elastic Compliance Matrix: (Units=1/GPa)
#
#
# Indices 1 2 3 4 5 6 
#
# 1 0.008880 -0.002078 -0.003915 0.000000 0.000000 0.000000
# 2 -0.002078 0.009021 -0.002575 0.000000 0.000000 0.000000
# 3 -0.003915 -0.002575 0.009790 0.000000 0.000000 0.000000
# 4 0.000000 0.000000 0.000000 0.029319 0.000000 0.000000
# 5 0.000000 0.000000 0.000000 0.000000 0.097550 0.000000
# 6 0.000000 0.000000 0.000000 0.000000 0.000000 0.026289
#
#
# Mechanical properties :
#
#
# Convention : Reuss Voigt Hill
#
# Bulk Modulus (GPa) = 94.72877 95.70891 95.21884
# Shear Modulus (GPa) = 24.81357 33.31296 29.06327
#
# Velocity S-wave (km/s) = 3.68008 4.26403 3.98277
# Velocity P-wave (km/s) = 8.35221 8.74526 8.55100
#
# Compressibility (1/GPa) = 0.01055646
#
# Stress axis : x y z
#
# Youngs Moduli (GPa) = 112.61153 110.85538 102.13992
#
# Poissons Ratio (x) = 0.23031 0.39989
# Poissons Ratio (y) = 0.23396 0.26299
# Poissons Ratio (z) = 0.44088 0.28543
#
# Static dielectric constant tensor:
#      x y z
#    x 1.594910 0.000000 0.000000 
#    y 0.000000 1.612410 0.000000 
#    z 0.000000 0.000000 1.610220 
# 
# From -- ./inp_files/69446.got.cif
#   From: 2010.05.17/outbox.cif.g08.bks.cpg/sg65_35_cif.got.tgz:69446.got - 2010.06.03 17:01:31.
