data_PCOD9493502
_publ_section_title
;
Structure prediction by ZEFSAII (Michael W. Deem and Ramdas Pophale) SiO2 
 PCOD9493502
Probable space group: C M M M
;
_chemical_formula_sum "Si O2"
_cell_formula_units_Z 56
_cell_length_a 14.541453
_cell_length_b 21.332743
_cell_length_c 8.384238
_cell_angle_alpha 90.000000
_cell_angle_beta 90.000000
_cell_angle_gamma 90.000000
_cell_volume 2600.866754
_symmetry_space_group_name_H-M "C M M M"
_symmetry_group_IT_number 65
_symmetry_cell_setting 'orthorhombic'
loop_
_space_group_symop_operation_xyz
x,y,z
-x,-y,z
x,-y,-z
-x,y,-z
-x,-y,-z
x,y,-z
-x,y,z
x,-y,z
1/2+x,1/2+y,z
1/2-x,1/2-y,z
1/2+x,1/2-y,-z
1/2-x,1/2+y,-z
1/2-x,1/2-y,-z
1/2+x,1/2+y,-z
1/2-x,1/2+y,z
1/2+x,1/2-y,z
loop_
_atom_site_type_symbol
_atom_site_label
_atom_site_fract_x
_atom_site_fract_y
_atom_site_fract_z
Si Si1 0.395213 0.258718 0.000000
Si Si2 0.105325 0.606384 0.000000
Si Si3 0.790914 0.611974 0.327018
Si Si4 0.897693 0.075410 0.184840
Si Si5 0.250000 0.750000 0.742737
O O1 0.395479 0.182547 0.000000
O O2 0.333432 0.276686 0.150156
O O3 0.500000 0.279525 0.000000
O O4 0.155966 0.589713 0.833402
O O5 0.000000 0.584356 0.000000
O O6 0.823568 0.588092 0.500000
O O7 0.684983 0.594209 0.298351
O O8 0.792127 0.687996 0.334180
O O9 0.000000 0.097600 0.231353
O O10 0.900146 0.000000 0.183148
O O11 0.880256 0.094839 0.000000
#
# Coordination Sequence:
#
# PCOD9493502 Si02
#       5
#     8   8  16  16   8
#     4   8  15  29  50  69  97 146 187 221 271 328
#     4   9  19  37  55  76 105 141 188 233 277 328
#     4  11  21  35  57  83 113 150 189 234 289 343
#     4   9  19  37  60  86 118 154 190 231 282 341
#     4   9  19  32  46  79 115 142 185 235 282 339
#
# _framework density 21.531282999999998
#
# number of rings (size 3 to 8) (size 9 to 14) (size 15 to 20)
#    0.000    2.571    1.429    2.143    0.000    2.857 
#    0.000    1.429    0.000    6.857    0.000    2.000 
#    0.000    0.000    0.000    0.000    0.000    0.000 
#
# Total GULP energy -156117.450138 kJ/mol
# GULP energy per Si atom -5575.623219 kJ/mol
# Density = 2.148228 g / cm^3
# Si number density = 21.531283 Si / 1000 Ang^3
#
#
#
# Elastic Constant Matrix: (Units=GPa)
#
#
# Indices 1 2 3 4 5 6 
#
# 1 132.5851 2.7452 80.5610 0.0000 0.0000 0.0000
# 2 2.7452 37.5373 6.4132 0.0000 0.0000 0.0000
# 3 80.5610 6.4132 172.1133 0.0000 0.0000 0.0000
# 4 0.0000 0.0000 0.0000 -10.6103 0.0000 0.0000
# 5 0.0000 0.0000 0.0000 0.0000 2.8255 0.0000
# 6 0.0000 0.0000 0.0000 0.0000 0.0000 24.2031
#
#
#
# Elastic Compliance Matrix: (Units=1/GPa)
#
#
# Indices 1 2 3 4 5 6 
#
# 1 0.010540 0.000073 -0.004936 0.000000 0.000000 0.000000
# 2 0.000073 0.026811 -0.001033 0.000000 0.000000 0.000000
# 3 -0.004936 -0.001033 0.008159 0.000000 0.000000 0.000000
# 4 0.000000 0.000000 0.000000 -0.094248 0.000000 0.000000
# 5 0.000000 0.000000 0.000000 0.000000 0.353919 0.000000
# 6 0.000000 0.000000 0.000000 0.000000 0.000000 0.041317
#
#
# Mechanical properties :
#
#
# Convention : Reuss Voigt Hill
#
# Bulk Modulus (GPa) = 29.65840 57.96385 43.81113
# Shear Modulus (GPa) = 13.53066 20.11806 16.82436
#
# Velocity S-wave (km/s) = 2.50955 3.06005 2.79837
# Velocity P-wave (km/s) = 4.71185 6.28207 5.55275
#
# Compressibility (1/GPa) = 0.03371726
#
# Stress axis : x y z
#
# Youngs Moduli (GPa) = 94.87513 37.29760 122.56225
#
# Poissons Ratio (x) = -0.00270 0.60500
# Poissons Ratio (y) = -0.00688 0.12660
# Poissons Ratio (z) = 0.46833 0.03853
#
# Static dielectric constant tensor:
#      x y z
#    x 1.756580 0.000000 0.000000 
#    y 0.000000 1.834660 0.000000 
#    z 0.000000 0.000000 1.816010 
# 
# From -- ./inp_files/6319.got.cif
#   From: 2010.05.17/outbox.cif.g08.bks.cpg/sg65_4_cif.got.tgz:6319.got - 2010.06.03 17:01:31.
