data_PCOD9493295
_publ_section_title
;
Structure prediction by ZEFSAII (Michael W. Deem and Ramdas Pophale) SiO2 
 PCOD9493295
Probable space group: C M M M
;
_chemical_formula_sum "Si O2"
_cell_formula_units_Z 80
_cell_length_a 15.419255
_cell_length_b 23.678094
_cell_length_c 11.755578
_cell_angle_alpha 90.000000
_cell_angle_beta 90.000000
_cell_angle_gamma 90.000000
_cell_volume 4291.944709
_symmetry_space_group_name_H-M "C M M M"
_symmetry_group_IT_number 65
_symmetry_cell_setting 'orthorhombic'
loop_
_space_group_symop_operation_xyz
x,y,z
-x,-y,z
x,-y,-z
-x,y,-z
-x,-y,-z
x,y,-z
-x,y,z
x,-y,z
1/2+x,1/2+y,z
1/2-x,1/2-y,z
1/2+x,1/2-y,-z
1/2-x,1/2+y,-z
1/2-x,1/2-y,-z
1/2+x,1/2+y,-z
1/2-x,1/2+y,z
1/2+x,1/2-y,z
loop_
_atom_site_type_symbol
_atom_site_label
_atom_site_fract_x
_atom_site_fract_y
_atom_site_fract_z
Si Si1 0.603132 0.752412 0.368837
Si Si2 0.149400 0.855993 0.228037
Si Si3 0.393072 0.708794 0.000000
Si Si4 0.103618 0.341464 0.000000
Si Si5 0.500000 0.566773 0.863001
Si Si6 0.342697 0.865718 0.750708
Si Si7 0.500000 0.933012 0.635776
O O1 0.630519 0.757529 0.500000
O O2 0.500000 0.762675 0.361876
O O3 0.620377 0.690027 0.321176
O O4 0.646584 0.801184 0.293555
O O5 0.148081 0.819806 0.110803
O O6 0.081796 0.904823 0.198452
O O7 0.242196 0.880265 0.263035
O O8 0.374734 0.775080 0.000000
O O9 0.500000 0.703132 0.000000
O O10 0.137933 0.367949 0.884482
O O11 0.000000 0.345923 0.000000
O O12 0.500000 0.500000 0.851139
O O13 0.500000 0.579028 0.000000
O O14 0.414330 0.903075 0.686586
O O15 0.500000 0.925017 0.500000
O O16 0.500000 0.000000 0.660490
#
# Coordination Sequence:
#
# PCOD9493295 Si02
#       7
#    16  16   8   8   8  16   8
#     4  11  22  38  61  92 129 167 204 250 311 375
#     4  12  22  38  64  92 130 162 204 256 310 374
#     4  11  19  35  59  91 133 174 203 236 300 387
#     4  11  21  35  59  91 135 168 193 240 314 377
#     4  11  24  43  65  89 122 166 213 259 307 365
#     4  12  24  38  64  97 127 161 203 256 312 375
#     4  11  26  50  71  85 114 165 220 267 311 367
#
# _framework density 18.639569999999999
#
# number of rings (size 3 to 8) (size 9 to 14) (size 15 to 20)
#    0.000    0.600    7.000    1.800    0.000    4.000 
#    0.000    1.000    0.000    1.200    0.000    0.000 
#    0.000    0.000    0.000    0.000    0.000    0.000 
#
# Total GULP energy -223571.077712 kJ/mol
# GULP energy per Si atom -5589.276943 kJ/mol
# Density = 1.859715 g / cm^3
# Si number density = 18.639570 Si / 1000 Ang^3
#
#
#
# Elastic Constant Matrix: (Units=GPa)
#
#
# Indices 1 2 3 4 5 6 
#
# 1 138.2863 55.7924 33.1135 0.0000 0.0000 0.0000
# 2 55.7924 108.4375 35.1818 0.0000 0.0000 0.0000
# 3 33.1135 35.1818 104.4035 0.0000 0.0000 0.0000
# 4 0.0000 0.0000 0.0000 32.0257 0.0000 0.0000
# 5 0.0000 0.0000 0.0000 0.0000 -30.9085 0.0000
# 6 0.0000 0.0000 0.0000 0.0000 0.0000 -4.8277
#
#
#
# Elastic Compliance Matrix: (Units=1/GPa)
#
#
# Indices 1 2 3 4 5 6 
#
# 1 0.009332 -0.004313 -0.001507 0.000000 0.000000 0.000000
# 2 -0.004313 0.012347 -0.002793 0.000000 0.000000 0.000000
# 3 -0.001507 -0.002793 0.010997 0.000000 0.000000 0.000000
# 4 0.000000 0.000000 0.000000 0.031225 0.000000 0.000000
# 5 0.000000 0.000000 0.000000 0.000000 -0.032354 0.000000
# 6 0.000000 0.000000 0.000000 0.000000 0.000000 -0.207138
#
#
# Mechanical properties :
#
#
# Convention : Reuss Voigt Hill
#
# Bulk Modulus (GPa) = 64.71615 66.58920 65.65268
# Shear Modulus (GPa) = -32.63364 14.39389 -9.11988
#
# Velocity S-wave (km/s) = -4.18876 2.78190 -2.21436
# Velocity P-wave (km/s) = 3.37651 6.79123 5.36291
#
# Compressibility (1/GPa) = 0.01545209
#
# Stress axis : x y z
#
# Youngs Moduli (GPa) = 107.15694 80.99174 90.93244
#
# Poissons Ratio (x) = 0.34929 0.13700
# Poissons Ratio (y) = 0.46213 0.25396
# Poissons Ratio (z) = 0.16144 0.22619
#
# Static dielectric constant tensor:
#      x y z
#    x 1.675750 0.000000 0.000000 
#    y 0.000000 1.614310 0.000000 
#    z 0.000000 0.000000 0.961190 
# 
# From -- ./inp_files/24722.got.cif
#   From: 2010.05.17/outbox.cif.g08.bks.cpg/sg65_13_cif.got.tgz:24722.got - 2010.06.03 17:01:31.
