data_PCOD9493811
_publ_section_title
;
Structure prediction by ZEFSAII (Michael W. Deem and Ramdas Pophale) SiO2 
 PCOD9493811
Probable space group: C M M M
;
_chemical_formula_sum "Si O2"
_cell_formula_units_Z 100
_cell_length_a 13.775363
_cell_length_b 20.196098
_cell_length_c 14.524772
_cell_angle_alpha 90.000000
_cell_angle_beta 90.000000
_cell_angle_gamma 90.000000
_cell_volume 4040.916209
_symmetry_space_group_name_H-M "C M M M"
_symmetry_group_IT_number 65
_symmetry_cell_setting 'orthorhombic'
loop_
_space_group_symop_operation_xyz
x,y,z
-x,-y,z
x,-y,-z
-x,y,-z
-x,-y,-z
x,y,-z
-x,y,z
x,-y,z
1/2+x,1/2+y,z
1/2-x,1/2-y,z
1/2+x,1/2-y,-z
1/2-x,1/2+y,-z
1/2-x,1/2-y,-z
1/2+x,1/2+y,-z
1/2-x,1/2+y,z
1/2+x,1/2-y,z
loop_
_atom_site_type_symbol
_atom_site_label
_atom_site_fract_x
_atom_site_fract_y
_atom_site_fract_z
Si Si1 0.000000 0.773431 0.000000
Si Si2 0.815233 0.425404 0.138745
Si Si3 0.890072 0.078615 0.207217
Si Si4 0.118488 0.142100 0.598266
Si Si5 0.143985 0.280752 0.144669
Si Si6 0.112179 0.287269 0.363152
Si Si7 0.618005 0.070883 0.648376
O O1 0.917818 0.765995 0.080697
O O2 0.834702 0.500000 0.101552
O O3 0.699066 0.412139 0.137403
O O4 0.862250 0.356483 0.106483
O O5 0.849596 0.429581 0.245083
O O6 0.857617 0.108772 0.304798
O O7 0.000000 0.100927 0.182378
O O8 0.895526 0.000000 0.220443
O O9 0.146052 0.111224 0.500000
O O10 0.152820 0.218017 0.602538
O O11 0.000000 0.142505 0.599780
O O12 0.250000 0.250000 0.145495
O O13 0.113343 0.283427 0.251727
O O14 0.153558 0.358937 0.390565
O O15 0.000000 0.287947 0.392900
O O16 0.500000 0.072383 0.645162
O O17 0.649351 0.000000 0.608413
#
# Coordination Sequence:
#
# PCOD9493811 Si02
#       7
#     4  16  16  16  16  16  16
#     4  12  26  44  61  90 123 142 194 246 298 366
#     4   9  18  33  56  86 114 145 187 233 281 342
#     4   9  17  30  49  76 113 152 194 236 275 334
#     4   9  17  28  46  76 112 148 191 239 286 331
#     4  11  22  39  62  85 115 154 191 239 293 354
#     4   9  16  30  52  77 106 143 184 227 278 340
#     4   8  14  25  46  74 101 131 173 223 274 331
#
# _framework density 24.746863000000001
#
# number of rings (size 3 to 8) (size 9 to 14) (size 15 to 20)
#    0.000    2.720    0.800    1.200    1.120    0.320 
#    1.440    2.400    0.000   12.480    0.000    8.400 
#    0.000    0.000    0.000    0.000    0.000    0.000 
#
# Total GULP energy -278632.980434 kJ/mol
# GULP energy per Si atom -5572.659609 kJ/mol
# Density = 2.469054 g / cm^3
# Si number density = 24.746863 Si / 1000 Ang^3
#
#
#
# Elastic Constant Matrix: (Units=GPa)
#
#
# Indices 1 2 3 4 5 6 
#
# 1 73.7085 5.1302 1.7235 0.0000 0.0000 0.0000
# 2 5.1302 106.1843 3.7691 0.0000 0.0000 0.0000
# 3 1.7235 3.7691 82.5998 0.0000 0.0000 0.0000
# 4 0.0000 0.0000 0.0000 -53.3852 0.0000 0.0000
# 5 0.0000 0.0000 0.0000 0.0000 3.7608 0.0000
# 6 0.0000 0.0000 0.0000 0.0000 0.0000 32.5615
#
#
#
# Elastic Compliance Matrix: (Units=1/GPa)
#
#
# Indices 1 2 3 4 5 6 
#
# 1 0.013618 -0.000649 -0.000255 0.000000 0.000000 0.000000
# 2 -0.000649 0.009464 -0.000418 0.000000 0.000000 0.000000
# 3 -0.000255 -0.000418 0.012131 0.000000 0.000000 0.000000
# 4 0.000000 0.000000 0.000000 -0.018732 0.000000 0.000000
# 5 0.000000 0.000000 0.000000 0.000000 0.265903 0.000000
# 6 0.000000 0.000000 0.000000 0.000000 0.000000 0.030711
#
#
# Mechanical properties :
#
#
# Convention : Reuss Voigt Hill
#
# Bulk Modulus (GPa) = 30.70375 31.52648 31.11512
# Shear Modulus (GPa) = 15.30947 13.37873 14.34410
#
# Velocity S-wave (km/s) = 2.48995 2.32765 2.41017
# Velocity P-wave (km/s) = 4.54978 4.47115 4.51064
#
# Compressibility (1/GPa) = 0.03256931
#
# Stress axis : x y z
#
# Youngs Moduli (GPa) = 73.43186 105.66596 82.43370
#
# Poissons Ratio (x) = 0.06857 0.02098
# Poissons Ratio (y) = 0.04765 0.03448
# Poissons Ratio (z) = 0.01869 0.04420
#
# Static dielectric constant tensor:
#      x y z
#    x 2.057450 0.000000 0.000000 
#    y 0.000000 2.002160 0.000000 
#    z 0.000000 0.000000 2.000160 
# 
# From -- ./inp_files/53337.got.cif
#   From: 2010.05.17/outbox.cif.g08.bks.cpg/sg65_27_cif.got.tgz:53337.got - 2010.06.03 17:01:31.
