data_PCOD9493001
_publ_section_title
;
Structure prediction by ZEFSAII (Michael W. Deem and Ramdas Pophale) SiO2 
 PCOD9493001
Probable space group: C M M M
;
_chemical_formula_sum "Si O2"
_cell_formula_units_Z 72
_cell_length_a 24.117818
_cell_length_b 15.353633
_cell_length_c 10.218547
_cell_angle_alpha 90.000000
_cell_angle_beta 90.000000
_cell_angle_gamma 90.000000
_cell_volume 3783.888371
_symmetry_space_group_name_H-M "C M M M"
_symmetry_group_IT_number 65
_symmetry_cell_setting 'orthorhombic'
loop_
_space_group_symop_operation_xyz
x,y,z
-x,-y,z
x,-y,-z
-x,y,-z
-x,-y,-z
x,y,-z
-x,y,z
x,-y,z
1/2+x,1/2+y,z
1/2-x,1/2-y,z
1/2+x,1/2-y,-z
1/2-x,1/2+y,-z
1/2-x,1/2-y,-z
1/2+x,1/2+y,-z
1/2-x,1/2+y,z
1/2+x,1/2-y,z
loop_
_atom_site_type_symbol
_atom_site_label
_atom_site_fract_x
_atom_site_fract_y
_atom_site_fract_z
Si Si1 0.438521 0.604689 0.500000
Si Si2 0.937408 0.743067 0.149728
Si Si3 0.249995 0.644998 0.345801
Si Si4 0.648231 0.100774 0.155649
Si Si5 0.870963 0.101171 0.757824
O O1 0.443019 0.500000 0.500000
O O2 0.500000 0.641725 0.500000
O O3 0.403589 0.626231 0.626005
O O4 0.899625 0.665893 0.206461
O O5 0.899762 0.829930 0.147873
O O6 0.000000 0.756205 0.203778
O O7 0.944570 0.716168 0.000000
O O8 0.247269 0.616820 0.500000
O O9 0.250000 0.750000 0.346372
O O10 0.200202 0.613612 0.252713
O O11 0.306786 0.613960 0.276987
O O12 0.630855 0.000000 0.159908
O O13 0.661633 0.120075 0.000000
O O14 0.880912 0.000000 0.791975
#
# Coordination Sequence:
#
# PCOD9493001 Si02
#       5
#     8  16  16  16  16
#     4   9  18  32  51  76 109 149 191 232 271 327
#     4  10  22  40  60  84 116 152 193 245 297 347
#     4  11  22  38  62  90 122 159 198 243 298 356
#     4  10  22  40  63  89 116 154 202 247 297 355
#     4  11  21  35  56  84 116 152 192 232 285 352
#
# _framework density 19.028046
#
# number of rings (size 3 to 8) (size 9 to 14) (size 15 to 20)
#    0.000    1.667    3.333    1.333    0.000    4.889 
#    0.000    3.333    0.000    0.000    0.000    1.556 
#    0.000    0.000    0.000    0.000    0.000    0.000 
#
# Total GULP energy -200515.297368 kJ/mol
# GULP energy per Si atom -5569.869371 kJ/mol
# Density = 1.898474 g / cm^3
# Si number density = 19.028046 Si / 1000 Ang^3
#
#
#
# Elastic Constant Matrix: (Units=GPa)
#
#
# Indices 1 2 3 4 5 6 
#
# 1 165.4390 56.8160 42.4505 0.0000 0.0000 0.0000
# 2 56.8160 105.4840 15.1241 0.0000 0.0000 0.0000
# 3 42.4505 15.1241 53.0106 0.0000 0.0000 0.0000
# 4 0.0000 0.0000 0.0000 34.1702 0.0000 0.0000
# 5 0.0000 0.0000 0.0000 0.0000 33.0758 0.0000
# 6 0.0000 0.0000 0.0000 0.0000 0.0000 18.9531
#
#
#
# Elastic Compliance Matrix: (Units=1/GPa)
#
#
# Indices 1 2 3 4 5 6 
#
# 1 0.008953 -0.003956 -0.006041 0.000000 0.000000 0.000000
# 2 -0.003956 0.011633 -0.000151 0.000000 0.000000 0.000000
# 3 -0.006041 -0.000151 0.023745 0.000000 0.000000 0.000000
# 4 0.000000 0.000000 0.000000 0.029265 0.000000 0.000000
# 5 0.000000 0.000000 0.000000 0.000000 0.030234 0.000000
# 6 0.000000 0.000000 0.000000 0.000000 0.000000 0.052762
#
#
# Mechanical properties :
#
#
# Convention : Reuss Voigt Hill
#
# Bulk Modulus (GPa) = 41.60639 61.41275 51.50957
# Shear Modulus (GPa) = 27.04184 31.20936 29.12560
#
# Velocity S-wave (km/s) = 3.77391 4.05430 3.91662
# Velocity P-wave (km/s) = 6.39556 7.36624 6.89799
#
# Compressibility (1/GPa) = 0.02403477
#
# Stress axis : x y z
#
# Youngs Moduli (GPa) = 111.69079 85.96484 42.11466
#
# Poissons Ratio (x) = 0.34010 0.25441
# Poissons Ratio (y) = 0.44188 0.00635
# Poissons Ratio (z) = 0.67472 0.01295
#
# Static dielectric constant tensor:
#      x y z
#    x 1.699750 0.000000 0.000000 
#    y 0.000000 1.659000 0.000000 
#    z 0.000000 0.000000 1.846310 
# 
# From -- ./inp_files/15757.got.cif
#   From: 2010.05.17/outbox.cif.g08.bks.cpg/sg65_8_cif.got.tgz:15757.got - 2010.06.03 17:01:31.
