data_PCOD9493221
_publ_section_title
;
Structure prediction by ZEFSAII (Michael W. Deem and Ramdas Pophale) SiO2 
 PCOD9493221
Probable space group: C M M M
;
_chemical_formula_sum "Si O2"
_cell_formula_units_Z 104
_cell_length_a 23.584023
_cell_length_b 8.725060
_cell_length_c 28.860117
_cell_angle_alpha 90.000000
_cell_angle_beta 90.000000
_cell_angle_gamma 90.000000
_cell_volume 5938.604449
_symmetry_space_group_name_H-M "C M M M"
_symmetry_group_IT_number 65
_symmetry_cell_setting 'orthorhombic'
loop_
_space_group_symop_operation_xyz
x,y,z
-x,-y,z
x,-y,-z
-x,y,-z
-x,-y,-z
x,y,-z
-x,y,z
x,-y,z
1/2+x,1/2+y,z
1/2-x,1/2-y,z
1/2+x,1/2-y,-z
1/2-x,1/2+y,-z
1/2-x,1/2-y,-z
1/2+x,1/2+y,-z
1/2-x,1/2+y,z
1/2+x,1/2-y,z
loop_
_atom_site_type_symbol
_atom_site_label
_atom_site_fract_x
_atom_site_fract_y
_atom_site_fract_z
Si Si1 0.686113 0.816124 0.949292
Si Si2 0.813457 0.815168 0.500000
Si Si3 0.614955 0.180904 0.231134
Si Si4 0.812204 0.680430 0.324405
Si Si5 0.685988 0.316983 0.853227
Si Si6 0.000000 0.183132 0.271491
Si Si7 0.500000 0.817364 0.376125
Si Si8 0.383046 0.316685 0.591499
O O1 0.750000 0.750000 0.950928
O O2 0.662060 0.742213 0.902671
O O3 0.688299 0.000000 0.944330
O O4 0.660131 0.780976 0.000000
O O5 0.750000 0.750000 0.500000
O O6 0.848628 0.769301 0.545639
O O7 0.809369 0.000000 0.500000
O O8 0.655267 0.196805 0.275956
O O9 0.646331 0.258171 0.187952
O O10 0.555627 0.257376 0.244975
O O11 0.606856 0.000000 0.222301
O O12 0.809445 0.500000 0.335880
O O13 0.750000 0.750000 0.320713
O O14 0.846580 0.767463 0.364104
O O15 0.689833 0.500000 0.853364
O O16 0.750000 0.250000 0.847604
O O17 0.000000 0.248616 0.323993
O O18 0.000000 0.000000 0.273980
O O19 0.444038 0.760906 0.402558
O O20 0.500000 0.000000 0.371954
O O21 0.390217 0.500000 0.590599
#
# Coordination Sequence:
#
# PCOD9493221 Si02
#       8
#    16   8  16  16  16   8   8  16
#     4   9  16  27  45  70 103 145 190 234 285 342
#     4  10  24  43  64  91 121 154 190 232 285 340
#     4  11  23  39  58  81 113 148 188 234 283 337
#     4  11  23  37  57  84 115 149 189 230 278 339
#     4  11  21  33  51  78 114 152 193 237 287 342
#     4  12  24  40  63  87 113 147 189 234 283 336
#     4  12  24  41  63  90 119 149 191 236 283 334
#     4  11  23  41  64  88 117 152 192 236 283 336
#
# _framework density 17.512530999999999
#
# number of rings (size 3 to 8) (size 9 to 14) (size 15 to 20)
#    0.000    1.231    1.538    6.462    0.000    6.769 
#    0.000    1.538    0.000    0.000    0.000    0.538 
#    0.000    4.308    0.000    0.000    0.000    0.000 
#
# Total GULP energy -290545.722201 kJ/mol
# GULP energy per Si atom -5587.417735 kJ/mol
# Density = 1.747267 g / cm^3
# Si number density = 17.512531 Si / 1000 Ang^3
#
#
#
# Elastic Constant Matrix: (Units=GPa)
#
#
# Indices 1 2 3 4 5 6 
#
# 1 134.2794 64.1441 61.8690 0.0000 0.0000 0.0000
# 2 64.1441 133.5431 76.1127 0.0000 0.0000 0.0000
# 3 61.8690 76.1127 145.1014 0.0000 0.0000 0.0000
# 4 0.0000 0.0000 0.0000 27.9360 0.0000 0.0000
# 5 0.0000 0.0000 0.0000 0.0000 -16.7211 0.0000
# 6 0.0000 0.0000 0.0000 0.0000 0.0000 -1.6226
#
#
#
# Elastic Compliance Matrix: (Units=1/GPa)
#
#
# Indices 1 2 3 4 5 6 
#
# 1 0.010291 -0.003484 -0.002561 0.000000 0.000000 0.000000
# 2 -0.003484 0.011861 -0.004736 0.000000 0.000000 0.000000
# 3 -0.002561 -0.004736 0.010468 0.000000 0.000000 0.000000
# 4 0.000000 0.000000 0.000000 0.035796 0.000000 0.000000
# 5 0.000000 0.000000 0.000000 0.000000 -0.059805 0.000000
# 6 0.000000 0.000000 0.000000 0.000000 0.000000 -0.616311
#
#
# Mechanical properties :
#
#
# Convention : Reuss Voigt Hill
#
# Bulk Modulus (GPa) = 90.42491 90.79728 90.61109
# Shear Modulus (GPa) = -8.58439 15.97166 3.69364
#
# Velocity S-wave (km/s) = -2.21642 3.02323 1.45386
# Velocity P-wave (km/s) = 6.72283 8.00913 7.39401
#
# Compressibility (1/GPa) = 0.01105890
#
# Stress axis : x y z
#
# Youngs Moduli (GPa) = 97.17175 84.31054 95.52980
#
# Poissons Ratio (x) = 0.29371 0.24462
# Poissons Ratio (y) = 0.33851 0.45245
# Poissons Ratio (z) = 0.24882 0.39932
#
# Static dielectric constant tensor:
#      x y z
#    x 1.562930 0.000000 0.000000 
#    y 0.000000 1.588950 0.000000 
#    z 0.000000 0.000000 1.608230 
# 
# From -- ./inp_files/75545.got.cif
#   From: 2010.05.17/outbox.cif.g08.bks.cpg/sg65_38_cif.got.tgz:75545.got - 2010.06.03 17:01:31.
