data_PCOD9493508
_publ_section_title
;
Structure prediction by ZEFSAII (Michael W. Deem and Ramdas Pophale) SiO2 
 PCOD9493508
Probable space group: C M M M
;
_chemical_formula_sum "Si O2"
_cell_formula_units_Z 104
_cell_length_a 8.700426
_cell_length_b 28.686553
_cell_length_c 20.913356
_cell_angle_alpha 90.000000
_cell_angle_beta 90.000000
_cell_angle_gamma 90.000000
_cell_volume 5219.664800
_symmetry_space_group_name_H-M "C M M M"
_symmetry_group_IT_number 65
_symmetry_cell_setting 'orthorhombic'
loop_
_space_group_symop_operation_xyz
x,y,z
-x,-y,z
x,-y,-z
-x,y,-z
-x,-y,-z
x,y,-z
-x,y,z
x,-y,z
1/2+x,1/2+y,z
1/2-x,1/2-y,z
1/2+x,1/2-y,-z
1/2-x,1/2+y,-z
1/2-x,1/2-y,-z
1/2+x,1/2+y,-z
1/2-x,1/2+y,z
1/2+x,1/2-y,z
loop_
_atom_site_type_symbol
_atom_site_label
_atom_site_fract_x
_atom_site_fract_y
_atom_site_fract_z
Si Si1 0.187617 0.053654 0.000000
Si Si2 0.313867 0.397241 0.130729
Si Si3 0.673571 0.682112 0.699939
Si Si4 0.825147 0.927617 0.265783
Si Si5 0.819560 0.297929 0.168274
Si Si6 0.314531 0.845386 0.571302
Si Si7 0.317236 0.049973 0.603683
O O1 0.236061 0.079919 0.935556
O O2 0.000000 0.053752 0.000000
O O3 0.237271 0.000000 0.000000
O O4 0.500000 0.395672 0.132935
O O5 0.267571 0.427839 0.192890
O O6 0.253856 0.344769 0.139403
O O7 0.500000 0.700964 0.704259
O O8 0.666193 0.627124 0.716660
O O9 0.780249 0.701263 0.755973
O O10 0.739940 0.683752 0.628631
O O11 0.720383 0.948729 0.320793
O O12 0.000000 0.945948 0.269270
O O13 0.750000 0.250000 0.141727
O O14 0.000000 0.298874 0.158790
O O15 0.277026 0.828845 0.500000
O O16 0.500000 0.844999 0.579161
O O17 0.262519 0.900022 0.577071
O O18 0.500000 0.049877 0.593065
O O19 0.256558 0.000000 0.578739
#
# Coordination Sequence:
#
# PCOD9493508 Si02
#       7
#     8  16  16  16  16  16  16
#     4   9  18  34  58  85 114 153 196 233 270 315
#     4   9  18  34  55  81 112 145 185 228 268 316
#     4   9  17  31  50  73 100 129 166 211 258 310
#     4   8  15  27  44  65  90 122 161 209 260 307
#     4  11  21  35  58  86 114 142 175 217 271 329
#     4   9  17  29  45  65  92 131 176 217 263 321
#     4   9  17  27  39  59  88 122 164 215 268 320
#
# _framework density 19.92465
#
# number of rings (size 3 to 8) (size 9 to 14) (size 15 to 20)
#    0.000    2.846    0.000    2.769    0.000    5.231 
#    0.000    3.846    0.000    1.385    0.000    4.308 
#    0.000    0.000    0.000    0.000    0.000    0.000 
#
# Total GULP energy -289861.434699 kJ/mol
# GULP energy per Si atom -5574.258360 kJ/mol
# Density = 1.987930 g / cm^3
# Si number density = 19.924650 Si / 1000 Ang^3
#
#
#
# Elastic Constant Matrix: (Units=GPa)
#
#
# Indices 1 2 3 4 5 6 
#
# 1 24.5537 5.8652 11.7096 0.0000 0.0000 0.0000
# 2 5.8652 67.1250 20.0440 0.0000 0.0000 0.0000
# 3 11.7096 20.0440 132.7710 0.0000 0.0000 0.0000
# 4 0.0000 0.0000 0.0000 9.4957 0.0000 0.0000
# 5 0.0000 0.0000 0.0000 0.0000 19.1242 0.0000
# 6 0.0000 0.0000 0.0000 0.0000 0.0000 6.2563
#
#
#
# Elastic Compliance Matrix: (Units=1/GPa)
#
#
# Indices 1 2 3 4 5 6 
#
# 1 0.042994 -0.002748 -0.003377 0.000000 0.000000 0.000000
# 2 -0.002748 0.015777 -0.002139 0.000000 0.000000 0.000000
# 3 -0.003377 -0.002139 0.008153 0.000000 0.000000 0.000000
# 4 0.000000 0.000000 0.000000 0.105311 0.000000 0.000000
# 5 0.000000 0.000000 0.000000 0.000000 0.052290 0.000000
# 6 0.000000 0.000000 0.000000 0.000000 0.000000 0.159840
#
#
# Mechanical properties :
#
#
# Convention : Reuss Voigt Hill
#
# Bulk Modulus (GPa) = 19.84364 33.29859 26.57111
# Shear Modulus (GPa) = 11.97060 19.43064 15.70062
#
# Velocity S-wave (km/s) = 2.45377 3.12622 2.81018
# Velocity P-wave (km/s) = 4.24369 5.45706 4.88817
#
# Compressibility (1/GPa) = 0.05039398
#
# Stress axis : x y z
#
# Youngs Moduli (GPa) = 23.25902 63.38529 122.66089
#
# Poissons Ratio (x) = 0.17420 0.41422
# Poissons Ratio (y) = 0.06392 0.26241
# Poissons Ratio (z) = 0.07854 0.13560
#
# Static dielectric constant tensor:
#      x y z
#    x 1.679800 0.000000 0.000000 
#    y 0.000000 1.751970 0.000000 
#    z 0.000000 0.000000 1.708590 
# 
# From -- ./inp_files/60795.got.cif
#   From: 2010.05.17/outbox.cif.g08.bks.cpg/sg65_31_cif.got.tgz:60795.got - 2010.06.03 17:01:31.
