data_PCOD9493694
_publ_section_title
;
Structure prediction by ZEFSAII (Michael W. Deem and Ramdas Pophale) SiO2 
 PCOD9493694
Probable space group: C M M M
;
_chemical_formula_sum "Si O2"
_cell_formula_units_Z 72
_cell_length_a 16.516614
_cell_length_b 14.057423
_cell_length_c 16.581866
_cell_angle_alpha 90.000000
_cell_angle_beta 90.000000
_cell_angle_gamma 90.000000
_cell_volume 3849.994719
_symmetry_space_group_name_H-M "C M M M"
_symmetry_group_IT_number 65
_symmetry_cell_setting 'orthorhombic'
loop_
_space_group_symop_operation_xyz
x,y,z
-x,-y,z
x,-y,-z
-x,y,-z
-x,-y,-z
x,y,-z
-x,y,z
x,-y,z
1/2+x,1/2+y,z
1/2-x,1/2-y,z
1/2+x,1/2-y,-z
1/2-x,1/2+y,-z
1/2-x,1/2-y,-z
1/2+x,1/2+y,-z
1/2-x,1/2+y,z
1/2+x,1/2-y,z
loop_
_atom_site_type_symbol
_atom_site_label
_atom_site_fract_x
_atom_site_fract_y
_atom_site_fract_z
Si Si1 0.098347 0.292756 0.410480
Si Si2 0.158230 0.216781 0.159068
Si Si3 0.597171 0.389251 0.000000
Si Si4 0.097366 0.109240 0.686541
Si Si5 0.096696 0.394985 0.750338
O O1 0.128520 0.315191 0.500000
O O2 0.116034 0.184435 0.383922
O O3 0.128121 0.358234 0.336733
O O4 0.000000 0.301338 0.412322
O O5 0.250000 0.250000 0.150984
O O6 0.143185 0.145328 0.233841
O O7 0.112940 0.313803 0.184369
O O8 0.127571 0.165731 0.078999
O O9 0.623841 0.500000 0.000000
O O10 0.500000 0.388885 0.000000
O O11 0.000000 0.116969 0.702484
O O12 0.115289 0.000000 0.667625
O O13 0.128631 0.500000 0.769952
O O14 0.000000 0.401164 0.742528
#
# Coordination Sequence:
#
# PCOD9493694 Si02
#       5
#    16  16   8  16  16
#     4   8  14  25  44  74 107 134 169 221 270 307
#     4  11  22  36  54  79 108 135 167 209 254 302
#     4  11  23  40  63  85 105 131 164 205 254 308
#     4   9  17  31  52  76 104 139 177 217 263 313
#     4   9  18  33  52  73 101 140 180 214 253 303
#
# _framework density 18.701324
#
# number of rings (size 3 to 8) (size 9 to 14) (size 15 to 20)
#    0.000    2.556    0.000    4.333    0.000    4.444 
#    0.000    5.000    0.000   12.667    0.000   12.444 
#    0.000    0.000    0.000    0.000    0.000    0.000 
#
# Total GULP energy -200716.960397 kJ/mol
# GULP energy per Si atom -5575.471122 kJ/mol
# Density = 1.865876 g / cm^3
# Si number density = 18.701324 Si / 1000 Ang^3
#
#
#
# Elastic Constant Matrix: (Units=GPa)
#
#
# Indices 1 2 3 4 5 6 
#
# 1 28.2053 19.0557 14.0142 0.0000 0.0000 0.0000
# 2 19.0557 141.6549 45.8200 0.0000 0.0000 0.0000
# 3 14.0142 45.8200 104.6285 0.0000 0.0000 0.0000
# 4 0.0000 0.0000 0.0000 41.4048 0.0000 0.0000
# 5 0.0000 0.0000 0.0000 0.0000 37.5222 0.0000
# 6 0.0000 0.0000 0.0000 0.0000 0.0000 4.4444
#
#
#
# Elastic Compliance Matrix: (Units=1/GPa)
#
#
# Indices 1 2 3 4 5 6 
#
# 1 0.040071 -0.004257 -0.003503 0.000000 0.000000 0.000000
# 2 -0.004257 0.008677 -0.003230 0.000000 0.000000 0.000000
# 3 -0.003503 -0.003230 0.011441 0.000000 0.000000 0.000000
# 4 0.000000 0.000000 0.000000 0.024152 0.000000 0.000000
# 5 0.000000 0.000000 0.000000 0.000000 0.026651 0.000000
# 6 0.000000 0.000000 0.000000 0.000000 0.000000 0.225003
#
#
# Mechanical properties :
#
#
# Convention : Reuss Voigt Hill
#
# Bulk Modulus (GPa) = 26.17153 48.02986 37.10070
# Shear Modulus (GPa) = 13.48762 29.71419 21.60090
#
# Velocity S-wave (km/s) = 2.68845 3.99040 3.40228
# Velocity P-wave (km/s) = 4.86435 6.85342 5.94270
#
# Compressibility (1/GPa) = 0.03820945
#
# Stress axis : x y z
#
# Youngs Moduli (GPa) = 24.95562 115.25019 87.40401
#
# Poissons Ratio (x) = 0.49067 0.30616
# Poissons Ratio (y) = 0.10625 0.28228
# Poissons Ratio (z) = 0.08741 0.37221
#
# Static dielectric constant tensor:
#      x y z
#    x 1.770400 0.000000 0.000000 
#    y 0.000000 1.676150 0.000000 
#    z 0.000000 0.000000 1.628740 
# 
# From -- ./inp_files/39741.got.cif
#   From: 2010.05.17/outbox.cif.g08.bks.cpg/sg65_20_cif.got.tgz:39741.got - 2010.06.03 17:01:31.
