data_PCOD9493639
_publ_section_title
;
Structure prediction by ZEFSAII (Michael W. Deem and Ramdas Pophale) SiO2 
 PCOD9493639
Probable space group: C M M M
;
_chemical_formula_sum "Si O2"
_cell_formula_units_Z 96
_cell_length_a 19.299170
_cell_length_b 7.685189
_cell_length_c 32.018115
_cell_angle_alpha 90.000000
_cell_angle_beta 90.000000
_cell_angle_gamma 90.000000
_cell_volume 4748.855384
_symmetry_space_group_name_H-M "C M M M"
_symmetry_group_IT_number 65
_symmetry_cell_setting 'orthorhombic'
loop_
_space_group_symop_operation_xyz
x,y,z
-x,-y,z
x,-y,-z
-x,y,-z
-x,-y,-z
x,y,-z
-x,y,z
x,-y,z
1/2+x,1/2+y,z
1/2-x,1/2-y,z
1/2+x,1/2-y,-z
1/2-x,1/2+y,-z
1/2-x,1/2-y,-z
1/2+x,1/2+y,-z
1/2-x,1/2+y,z
1/2+x,1/2-y,z
loop_
_atom_site_type_symbol
_atom_site_label
_atom_site_fract_x
_atom_site_fract_y
_atom_site_fract_z
Si Si1 0.669179 0.205056 0.296996
Si Si2 0.169039 0.790653 0.046128
Si Si3 0.919631 0.787858 0.123934
Si Si4 0.170595 0.709057 0.547162
Si Si5 0.579932 0.213694 0.624790
Si Si6 0.921193 0.208887 0.782894
O O1 0.750000 0.250000 0.297799
O O2 0.624923 0.277791 0.335830
O O3 0.631887 0.248822 0.253567
O O4 0.665389 0.000000 0.301620
O O5 0.250000 0.750000 0.051012
O O6 0.126402 0.723220 0.085655
O O7 0.161330 0.000000 0.045612
O O8 0.147130 0.726356 0.000000
O O9 0.899751 0.729485 0.170728
O O10 0.000000 0.742134 0.117746
O O11 0.915697 0.000000 0.123845
O O12 0.158755 0.776055 0.500000
O O13 0.164548 0.500000 0.545614
O O14 0.250000 0.750000 0.558922
O O15 0.117404 0.771306 0.582184
O O16 0.500000 0.267717 0.627558
O O17 0.580180 0.000000 0.624764
O O18 0.000000 0.272145 0.774052
O O19 0.925112 0.000000 0.785130
#
# Coordination Sequence:
#
# PCOD9493639 Si02
#       6
#    16  16  16  16  16  16
#     4  11  22  35  52  73  99 130 165 205 246 290
#     4   9  17  29  46  68  94 124 157 193 233 278
#     4   8  15  29  49  72  96 122 154 194 237 279
#     4   9  17  30  50  74  99 128 160 195 236 283
#     4   9  18  32  50  73  99 126 159 201 245 286
#     4   9  18  34  54  74  99 129 160 198 245 295
#
# _framework density 20.215399000000001
#
# number of rings (size 3 to 8) (size 9 to 14) (size 15 to 20)
#    0.000    2.833    0.000    2.500    0.000    2.333 
#    0.000    6.667    0.000    4.000    0.000    4.667 
#    0.000    0.000    0.000    0.000    0.000    0.000 
#
# Total GULP energy -267778.938835 kJ/mol
# GULP energy per Si atom -5578.727892 kJ/mol
# Density = 2.016939 g / cm^3
# Si number density = 20.215399 Si / 1000 Ang^3
#
#
#
# Elastic Constant Matrix: (Units=GPa)
#
#
# Indices 1 2 3 4 5 6 
#
# 1 159.0637 4.0831 147.5054 0.0000 0.0000 0.0000
# 2 4.0831 34.1466 9.0407 0.0000 0.0000 0.0000
# 3 147.5054 9.0407 203.6335 0.0000 0.0000 0.0000
# 4 0.0000 0.0000 0.0000 9.9846 0.0000 0.0000
# 5 0.0000 0.0000 0.0000 0.0000 50.1573 0.0000
# 6 0.0000 0.0000 0.0000 0.0000 0.0000 8.6791
#
#
#
# Elastic Compliance Matrix: (Units=1/GPa)
#
#
# Indices 1 2 3 4 5 6 
#
# 1 0.019218 0.001404 -0.013983 0.000000 0.000000 0.000000
# 2 0.001404 0.029736 -0.002337 0.000000 0.000000 0.000000
# 3 -0.013983 -0.002337 0.015143 0.000000 0.000000 0.000000
# 4 0.000000 0.000000 0.000000 0.100154 0.000000 0.000000
# 5 0.000000 0.000000 0.000000 0.000000 0.019937 0.000000
# 6 0.000000 0.000000 0.000000 0.000000 0.000000 0.115219
#
#
# Mechanical properties :
#
#
# Convention : Reuss Voigt Hill
#
# Bulk Modulus (GPa) = 29.18419 79.78913 54.48666
# Shear Modulus (GPa) = 14.67729 29.51183 22.09456
#
# Velocity S-wave (km/s) = 2.69745 3.82497 3.30958
# Velocity P-wave (km/s) = 4.91626 7.68520 6.45104
#
# Compressibility (1/GPa) = 0.03426513
#
# Stress axis : x y z
#
# Youngs Moduli (GPa) = 52.03554 33.62882 66.03559
#
# Poissons Ratio (x) = -0.04722 0.92337
# Poissons Ratio (y) = -0.07307 0.15435
# Poissons Ratio (z) = 0.72761 0.07860
#
# Static dielectric constant tensor:
#      x y z
#    x 1.644970 0.000000 0.000000 
#    y 0.000000 1.758390 0.000000 
#    z 0.000000 0.000000 1.743390 
# 
# From -- ./inp_files/70468.got.cif
#   From: 2010.05.17/outbox.cif.g08.bks.cpg/sg65_36_cif.got.tgz:70468.got - 2010.06.03 17:01:31.
