data_PCOD9493078
_publ_section_title
;
Structure prediction by ZEFSAII (Michael W. Deem and Ramdas Pophale) SiO2 
 PCOD9493078
Probable space group: C M M M
;
_chemical_formula_sum "Si O2"
_cell_formula_units_Z 58
_cell_length_a 10.108944
_cell_length_b 23.181291
_cell_length_c 14.292981
_cell_angle_alpha 90.000000
_cell_angle_beta 90.000000
_cell_angle_gamma 90.000000
_cell_volume 3349.393907
_symmetry_space_group_name_H-M "C M M M"
_symmetry_group_IT_number 65
_symmetry_cell_setting 'orthorhombic'
loop_
_space_group_symop_operation_xyz
x,y,z
-x,-y,z
x,-y,-z
-x,y,-z
-x,-y,-z
x,y,-z
-x,y,z
x,-y,z
1/2+x,1/2+y,z
1/2-x,1/2-y,z
1/2+x,1/2-y,-z
1/2-x,1/2+y,-z
1/2-x,1/2-y,-z
1/2+x,1/2+y,-z
1/2-x,1/2+y,z
1/2+x,1/2-y,z
loop_
_atom_site_type_symbol
_atom_site_label
_atom_site_fract_x
_atom_site_fract_y
_atom_site_fract_z
Si Si1 0.500000 0.000000 0.000000
Si Si2 0.500000 0.185603 0.113580
Si Si3 0.249570 0.626240 0.784989
Si Si4 0.500000 0.676498 0.889556
Si Si5 0.647042 0.000000 0.193206
Si Si6 0.656731 0.693876 0.608549
O O1 0.612664 0.000000 0.917031
O O2 0.374818 0.157014 0.164582
O O3 0.500000 0.254488 0.128807
O O4 0.500000 0.174417 0.000000
O O5 0.373284 0.646257 0.846139
O O6 0.222667 0.558411 0.783615
O O7 0.282610 0.649003 0.681542
O O8 0.500000 0.669855 0.000000
O O9 0.500000 0.000000 0.239362
O O10 0.663433 0.675428 0.500000
O O11 0.500000 0.705040 0.629568
O O12 0.750000 0.750000 0.618056
#
# Coordination Sequence:
#
# PCOD9493078 Si02
#       6
#     2   8  16   8   8  16
#     4   8  20  44  60  86 106 172 232 262 280 366
#     4  11  23  39  62  87 124 169 204 245 314 384
#     4  12  23  40  62  89 126 163 208 259 306 372
#     4  11  24  36  56  94 126 155 198 257 323 371
#     4  10  24  39  63  85 116 168 222 249 301 362
#     4  10  22  41  66  96 128 165 208 258 321 381
#
# _framework density 17.316566000000002
#
# number of rings (size 3 to 8) (size 9 to 14) (size 15 to 20)
#    0.414    0.828    2.759    3.310    7.724    2.759 
#    0.000    1.379    0.000    2.483    0.000    0.000 
#    0.000    0.000    0.000    0.000    0.000    0.000 
#
# Total GULP energy -161563.082766 kJ/mol
# GULP energy per Si atom -5571.140785 kJ/mol
# Density = 1.727715 g / cm^3
# Si number density = 17.316566 Si / 1000 Ang^3
#
#
#
# Elastic Constant Matrix: (Units=GPa)
#
#
# Indices 1 2 3 4 5 6 
#
# 1 169.5051 90.2029 70.2730 0.0000 0.0000 0.0000
# 2 90.2029 166.8460 93.5809 0.0000 0.0000 0.0000
# 3 70.2730 93.5809 130.1667 0.0000 0.0000 0.0000
# 4 0.0000 0.0000 0.0000 -4.2593 0.0000 0.0000
# 5 0.0000 0.0000 0.0000 0.0000 40.7287 0.0000
# 6 0.0000 0.0000 0.0000 0.0000 0.0000 -8.0644
#
#
#
# Elastic Compliance Matrix: (Units=1/GPa)
#
#
# Indices 1 2 3 4 5 6 
#
# 1 0.008639 -0.003443 -0.002189 0.000000 0.000000 0.000000
# 2 -0.003443 0.011416 -0.006348 0.000000 0.000000 0.000000
# 3 -0.002189 -0.006348 0.013428 0.000000 0.000000 0.000000
# 4 0.000000 0.000000 0.000000 -0.234782 0.000000 0.000000
# 5 0.000000 0.000000 0.000000 0.000000 0.024553 0.000000
# 6 0.000000 0.000000 0.000000 0.000000 0.000000 -0.124001
#
#
# Mechanical properties :
#
#
# Convention : Reuss Voigt Hill
#
# Bulk Modulus (GPa) = 105.01106 108.29236 106.65171
# Shear Modulus (GPa) = -18.27397 19.84507 0.78555
#
# Velocity S-wave (km/s) = -3.25204 3.38896 0.67426
# Velocity P-wave (km/s) = 6.83173 8.83097 7.89489
#
# Compressibility (1/GPa) = 0.00952281
#
# Stress axis : x y z
#
# Youngs Moduli (GPa) = 115.75229 87.59956 74.47115
#
# Poissons Ratio (x) = 0.30161 0.16300
# Poissons Ratio (y) = 0.39854 0.47276
# Poissons Ratio (z) = 0.25335 0.55610
#
# Static dielectric constant tensor:
#      x y z
#    x 1.549900 0.000000 0.000000 
#    y 0.000000 1.564680 0.000000 
#    z 0.000000 0.000000 1.587580 
# 
# From -- ./inp_files/35920.got.cif
#   From: 2010.05.17/outbox.cif.g08.bks.cpg/sg65_18_cif.got.tgz:35920.got - 2010.06.03 17:01:31.
