data_PCOD9493210
_publ_section_title
;
Structure prediction by ZEFSAII (Michael W. Deem and Ramdas Pophale) SiO2 
 PCOD9493210
Probable space group: C M M M
;
_chemical_formula_sum "Si O2"
_cell_formula_units_Z 56
_cell_length_a 10.209432
_cell_length_b 15.126039
_cell_length_c 19.344595
_cell_angle_alpha 90.000000
_cell_angle_beta 90.000000
_cell_angle_gamma 90.000000
_cell_volume 2987.352274
_symmetry_space_group_name_H-M "C M M M"
_symmetry_group_IT_number 65
_symmetry_cell_setting 'orthorhombic'
loop_
_space_group_symop_operation_xyz
x,y,z
-x,-y,z
x,-y,-z
-x,y,-z
-x,-y,-z
x,y,-z
-x,y,z
x,-y,z
1/2+x,1/2+y,z
1/2-x,1/2-y,z
1/2+x,1/2-y,-z
1/2-x,1/2+y,-z
1/2-x,1/2-y,-z
1/2+x,1/2+y,-z
1/2-x,1/2+y,z
1/2+x,1/2-y,z
loop_
_atom_site_type_symbol
_atom_site_label
_atom_site_fract_x
_atom_site_fract_y
_atom_site_fract_z
Si Si1 0.852342 0.170675 0.500000
Si Si2 0.293155 0.600216 0.350936
Si Si3 0.500000 0.100613 0.698671
Si Si4 0.000000 0.100656 0.119933
Si Si5 0.861406 0.820193 0.000000
Si Si6 0.500000 0.294618 0.739054
O O1 0.750000 0.250000 0.500000
O O2 0.831544 0.115807 0.430193
O O3 0.000000 0.206159 0.500000
O O4 0.328238 0.500000 0.329791
O O5 0.374481 0.668712 0.303874
O O6 0.136130 0.608716 0.343327
O O7 0.500000 0.188616 0.744991
O O8 0.500000 0.000000 0.728642
O O9 0.877342 0.120832 0.068712
O O10 0.000000 0.162955 0.185566
O O11 0.000000 0.000000 0.142177
O O12 0.750000 0.750000 0.000000
O O13 0.000000 0.768184 0.000000
#
# Coordination Sequence:
#
# PCOD9493210 Si02
#       6
#     8  16   8   8   8   8
#     4  12  25  39  60  84 118 154 206 256 316 365
#     4  11  24  40  61  86 117 155 204 256 309 363
#     4  10  24  42  57  85 123 156 196 254 314 374
#     4   9  20  36  63  93 126 164 206 245 293 358
#     4   8  18  36  62  90 124 160 204 238 290 341
#     4  12  21  39  65  90 118 160 208 244 299 361
#
# _framework density 18.745697
#
# number of rings (size 3 to 8) (size 9 to 14) (size 15 to 20)
#    0.857    0.571    1.429    5.143    2.000    2.857 
#    0.000    2.143    0.000    3.429    0.000    0.000 
#    0.000    0.000    0.000    0.000    0.000    0.000 
#
# Total GULP energy -156040.168408 kJ/mol
# GULP energy per Si atom -5572.863157 kJ/mol
# Density = 1.870303 g / cm^3
# Si number density = 18.745697 Si / 1000 Ang^3
#
#
#
# Elastic Constant Matrix: (Units=GPa)
#
#
# Indices 1 2 3 4 5 6 
#
# 1 120.8885 38.8956 13.1252 0.0000 0.0000 0.0000
# 2 38.8956 140.7023 46.1978 0.0000 0.0000 0.0000
# 3 13.1252 46.1978 120.2626 0.0000 0.0000 0.0000
# 4 0.0000 0.0000 0.0000 24.3326 0.0000 0.0000
# 5 0.0000 0.0000 0.0000 0.0000 -2.0312 0.0000
# 6 0.0000 0.0000 0.0000 0.0000 0.0000 30.6365
#
#
#
# Elastic Compliance Matrix: (Units=1/GPa)
#
#
# Indices 1 2 3 4 5 6 
#
# 1 0.009080 -0.002500 -0.000031 0.000000 0.000000 0.000000
# 2 -0.002500 0.008821 -0.003116 0.000000 0.000000 0.000000
# 3 -0.000031 -0.003116 0.009515 0.000000 0.000000 0.000000
# 4 0.000000 0.000000 0.000000 0.041097 0.000000 0.000000
# 5 0.000000 0.000000 0.000000 0.000000 -0.492315 0.000000
# 6 0.000000 0.000000 0.000000 0.000000 0.000000 0.032641
#
#
# Mechanical properties :
#
#
# Convention : Reuss Voigt Hill
#
# Bulk Modulus (GPa) = 62.02027 64.25449 63.13738
# Shear Modulus (GPa) = -13.35137 29.49657 8.07260
#
# Velocity S-wave (km/s) = -2.67167 3.97105 2.07743
# Velocity P-wave (km/s) = 4.86208 7.44157 6.28557
#
# Compressibility (1/GPa) = 0.01612376
#
# Stress axis : x y z
#
# Youngs Moduli (GPa) = 110.13508 113.36174 105.09300
#
# Poissons Ratio (x) = 0.28340 0.00322
# Poissons Ratio (y) = 0.27533 0.32745
# Poissons Ratio (z) = 0.00337 0.35321
#
# Static dielectric constant tensor:
#      x y z
#    x 1.664060 0.000000 0.000000 
#    y 0.000000 1.660030 0.000000 
#    z 0.000000 0.000000 1.641260 
# 
# From -- ./inp_files/58651.got.cif
#   From: 2010.05.17/outbox.cif.g08.bks.cpg/sg65_30_cif.got.tgz:58651.got - 2010.06.03 17:01:31.
