data_PCOD9493412
_publ_section_title
;
Structure prediction by ZEFSAII (Michael W. Deem and Ramdas Pophale) SiO2 
 PCOD9493412
Probable space group: C M M M
;
_chemical_formula_sum "Si O2"
_cell_formula_units_Z 88
_cell_length_a 8.778946
_cell_length_b 24.011554
_cell_length_c 23.657120
_cell_angle_alpha 90.000000
_cell_angle_beta 90.000000
_cell_angle_gamma 90.000000
_cell_volume 4986.829484
_symmetry_space_group_name_H-M "C M M M"
_symmetry_group_IT_number 65
_symmetry_cell_setting 'orthorhombic'
loop_
_space_group_symop_operation_xyz
x,y,z
-x,-y,z
x,-y,-z
-x,y,-z
-x,-y,-z
x,y,-z
-x,y,z
x,-y,z
1/2+x,1/2+y,z
1/2-x,1/2-y,z
1/2+x,1/2-y,-z
1/2-x,1/2+y,-z
1/2-x,1/2-y,-z
1/2+x,1/2+y,-z
1/2-x,1/2+y,z
1/2+x,1/2-y,z
loop_
_atom_site_type_symbol
_atom_site_label
_atom_site_fract_x
_atom_site_fract_y
_atom_site_fract_z
Si Si1 0.324401 0.500000 0.418280
Si Si2 0.174863 0.067552 0.000000
Si Si3 0.182508 0.387388 0.236451
Si Si4 0.183267 0.564907 0.118964
Si Si5 0.323985 0.500000 0.716822
Si Si6 0.182059 0.188426 0.332204
Si Si7 0.682003 0.880315 0.437055
O O1 0.500000 0.500000 0.437346
O O2 0.327498 0.500000 0.350523
O O3 0.239812 0.443869 0.436100
O O4 0.254797 0.083950 0.941595
O O5 0.000000 0.085321 0.000000
O O6 0.179672 0.000000 0.000000
O O7 0.228098 0.395178 0.170769
O O8 0.234982 0.445697 0.263331
O O9 0.259902 0.340181 0.274306
O O10 0.000000 0.381476 0.239687
O O11 0.232883 0.500000 0.129254
O O12 0.000000 0.563664 0.117134
O O13 0.500000 0.500000 0.737254
O O14 0.250000 0.250000 0.336695
O O15 0.239974 0.152471 0.385761
O O16 0.000000 0.189533 0.332529
O O17 0.716643 0.857257 0.500000
O O18 0.500000 0.879063 0.429060
#
# Coordination Sequence:
#
# PCOD9493412 Si02
#       7
#     8   8  16  16   8  16  16
#     4  11  22  36  57  88 120 151 183 222 275 332
#     4   9  17  27  41  69 108 151 190 227 267 312
#     4  11  21  36  58  84 112 147 188 232 280 332
#     4   9  17  30  48  74 109 151 189 222 268 325
#     4  11  21  32  52  84 116 148 182 225 279 335
#     4  12  26  44  63  84 109 143 184 232 284 333
#     4  11  24  41  62  87 114 147 185 227 277 333
#
# _framework density 17.646483
#
# number of rings (size 3 to 8) (size 9 to 14) (size 15 to 20)
#    0.000    1.364    2.727    3.818    0.000    6.182 
#    0.000    0.000    0.000    0.000    0.000    0.636 
#    0.000    0.000    0.000    0.000    0.000    0.000 
#
# Total GULP energy -245697.673055 kJ/mol
# GULP energy per Si atom -5584.038024 kJ/mol
# Density = 1.760632 g / cm^3
# Si number density = 17.646483 Si / 1000 Ang^3
#
#
#
# Elastic Constant Matrix: (Units=GPa)
#
#
# Indices 1 2 3 4 5 6 
#
# 1 96.3420 38.3566 66.5016 0.0000 0.0000 0.0000
# 2 38.3566 96.7976 57.6378 0.0000 0.0000 0.0000
# 3 66.5016 57.6378 173.6655 0.0000 0.0000 0.0000
# 4 0.0000 0.0000 0.0000 4.9824 0.0000 0.0000
# 5 0.0000 0.0000 0.0000 0.0000 0.3026 0.0000
# 6 0.0000 0.0000 0.0000 0.0000 0.0000 25.5496
#
#
#
# Elastic Compliance Matrix: (Units=1/GPa)
#
#
# Indices 1 2 3 4 5 6 
#
# 1 0.014823 -0.003108 -0.004645 0.000000 0.000000 0.000000
# 2 -0.003108 0.013527 -0.003299 0.000000 0.000000 0.000000
# 3 -0.004645 -0.003299 0.008632 0.000000 0.000000 0.000000
# 4 0.000000 0.000000 0.000000 0.200706 0.000000 0.000000
# 5 0.000000 0.000000 0.000000 0.000000 3.305116 0.000000
# 6 0.000000 0.000000 0.000000 0.000000 0.000000 0.039140
#
#
# Mechanical properties :
#
#
# Convention : Reuss Voigt Hill
#
# Bulk Modulus (GPa) = 67.21424 76.86634 72.04029
# Shear Modulus (GPa) = 1.38542 19.78753 10.58648
#
# Velocity S-wave (km/s) = 0.88702 3.35226 2.45198
# Velocity P-wave (km/s) = 6.26267 7.65749 6.99493
#
# Compressibility (1/GPa) = 0.01487780
#
# Stress axis : x y z
#
# Youngs Moduli (GPa) = 67.46191 73.92624 115.85102
#
# Poissons Ratio (x) = 0.22977 0.53809
# Poissons Ratio (y) = 0.20968 0.38223
# Poissons Ratio (z) = 0.31334 0.24390
#
# Static dielectric constant tensor:
#      x y z
#    x 1.593960 0.000000 0.000000 
#    y 0.000000 1.583120 0.000000 
#    z 0.000000 0.000000 1.626160 
# 
# From -- ./inp_files/67678.got.cif
#   From: 2010.05.17/outbox.cif.g08.bks.cpg/sg65_34_cif.got.tgz:67678.got - 2010.06.03 17:01:31.
