data_PCOD9493824
_publ_section_title
;
Structure prediction by ZEFSAII (Michael W. Deem and Ramdas Pophale) SiO2 
 PCOD9493824
Probable space group: C M M M
;
_chemical_formula_sum "Si O2"
_cell_formula_units_Z 88
_cell_length_a 25.020769
_cell_length_b 20.314673
_cell_length_c 9.071289
_cell_angle_alpha 90.000000
_cell_angle_beta 90.000000
_cell_angle_gamma 90.000000
_cell_volume 4610.834060
_symmetry_space_group_name_H-M "C M M M"
_symmetry_group_IT_number 65
_symmetry_cell_setting 'orthorhombic'
loop_
_space_group_symop_operation_xyz
x,y,z
-x,-y,z
x,-y,-z
-x,y,-z
-x,-y,-z
x,y,-z
-x,y,z
x,-y,z
1/2+x,1/2+y,z
1/2-x,1/2-y,z
1/2+x,1/2-y,-z
1/2-x,1/2+y,-z
1/2-x,1/2-y,-z
1/2+x,1/2+y,-z
1/2-x,1/2+y,z
1/2+x,1/2-y,z
loop_
_atom_site_type_symbol
_atom_site_label
_atom_site_fract_x
_atom_site_fract_y
_atom_site_fract_z
Si Si1 0.500000 0.923027 0.179248
Si Si2 0.754169 0.074749 0.833970
Si Si3 0.382500 0.426366 0.830963
Si Si4 0.060407 0.811459 0.332241
Si Si5 0.591233 0.180826 0.176437
Si Si6 0.292544 0.806361 0.326141
O O1 0.446832 0.880886 0.223024
O O2 0.500000 0.000000 0.227504
O O3 0.500000 0.923711 0.000000
O O4 0.818295 0.073876 0.832950
O O5 0.734495 0.124329 0.711662
O O6 0.735222 0.000000 0.811878
O O7 0.737256 0.095849 0.000000
O O8 0.399878 0.500000 0.786353
O O9 0.402358 0.368763 0.727697
O O10 0.400525 0.415007 0.000000
O O11 0.074551 0.792824 0.500000
O O12 0.063305 0.747642 0.229981
O O13 0.000000 0.836838 0.331166
O O14 0.650328 0.188530 0.245548
O O15 0.595564 0.178391 0.000000
O O16 0.300950 0.796550 0.500000
O O17 0.250000 0.750000 0.275467
#
# Coordination Sequence:
#
# PCOD9493824 Si02
#       6
#     8  16  16  16  16  16
#     4   9  20  40  65  93 120 149 194 253 313 368
#     4   9  19  37  59  83 112 148 192 239 288 344
#     4   9  19  36  58  84 114 150 195 244 288 337
#     4  11  23  37  55  80 115 154 191 237 291 349
#     4  11  22  39  64  89 116 153 200 251 303 363
#     4  11  24  39  57  87 125 160 198 245 301 367
#
# _framework density 19.085484000000001
#
# number of rings (size 3 to 8) (size 9 to 14) (size 15 to 20)
#    0.000    1.909    0.909    3.818    0.000    8.000 
#    0.000    5.455    0.000    3.818    0.000    0.000 
#    0.000    0.000    0.000    0.000    0.000    0.000 
#
# Total GULP energy -245386.974170 kJ/mol
# GULP energy per Si atom -5576.976686 kJ/mol
# Density = 1.904204 g / cm^3
# Si number density = 19.085484 Si / 1000 Ang^3
#
#
#
# Elastic Constant Matrix: (Units=GPa)
#
#
# Indices 1 2 3 4 5 6 
#
# 1 93.0339 46.7380 37.7547 0.0000 0.0000 0.0000
# 2 46.7380 77.2122 25.6860 0.0000 0.0000 0.0000
# 3 37.7547 25.6860 49.7542 0.0000 0.0000 0.0000
# 4 0.0000 0.0000 0.0000 7.1748 0.0000 0.0000
# 5 0.0000 0.0000 0.0000 0.0000 28.4050 0.0000
# 6 0.0000 0.0000 0.0000 0.0000 0.0000 32.3187
#
#
#
# Elastic Compliance Matrix: (Units=1/GPa)
#
#
# Indices 1 2 3 4 5 6 
#
# 1 0.018948 -0.008073 -0.010211 0.000000 0.000000 0.000000
# 2 -0.008073 0.019076 -0.003722 0.000000 0.000000 0.000000
# 3 -0.010211 -0.003722 0.029769 0.000000 0.000000 0.000000
# 4 0.000000 0.000000 0.000000 0.139377 0.000000 0.000000
# 5 0.000000 0.000000 0.000000 0.000000 0.035205 0.000000
# 6 0.000000 0.000000 0.000000 0.000000 0.000000 0.030942
#
#
# Mechanical properties :
#
#
# Convention : Reuss Voigt Hill
#
# Bulk Modulus (GPa) = 42.04994 48.92863 45.48928
# Shear Modulus (GPa) = 15.37253 20.90113 18.13683
#
# Velocity S-wave (km/s) = 2.84114 3.31287 3.08603
# Velocity P-wave (km/s) = 5.73088 6.35025 6.04850
#
# Compressibility (1/GPa) = 0.02378125
#
# Stress axis : x y z
#
# Youngs Moduli (GPa) = 52.77601 52.42103 33.59254
#
# Poissons Ratio (x) = 0.42319 0.34300
# Poissons Ratio (y) = 0.42605 0.12504
# Poissons Ratio (z) = 0.53887 0.19513
#
# Static dielectric constant tensor:
#      x y z
#    x 1.741790 0.000000 0.000000 
#    y 0.000000 1.656160 0.000000 
#    z 0.000000 0.000000 1.660630 
# 
# From -- ./inp_files/11704.got.cif
#   From: 2010.05.17/outbox.cif.g08.bks.cpg/sg65_6_cif.got.tgz:11704.got - 2010.06.03 17:01:31.
