data_PCOD9493730
_publ_section_title
;
Structure prediction by ZEFSAII (Michael W. Deem and Ramdas Pophale) SiO2 
 PCOD9493730
Probable space group: C M M M
;
_chemical_formula_sum "Si O2"
_cell_formula_units_Z 56
_cell_length_a 10.501257
_cell_length_b 37.598659
_cell_length_c 8.141581
_cell_angle_alpha 90.000000
_cell_angle_beta 90.000000
_cell_angle_gamma 90.000000
_cell_volume 3214.566325
_symmetry_space_group_name_H-M "C M M M"
_symmetry_group_IT_number 65
_symmetry_cell_setting 'orthorhombic'
loop_
_space_group_symop_operation_xyz
x,y,z
-x,-y,z
x,-y,-z
-x,y,-z
-x,-y,-z
x,y,-z
-x,y,z
x,-y,z
1/2+x,1/2+y,z
1/2-x,1/2-y,z
1/2+x,1/2-y,-z
1/2-x,1/2+y,-z
1/2-x,1/2-y,-z
1/2+x,1/2+y,-z
1/2-x,1/2+y,z
1/2+x,1/2-y,z
loop_
_atom_site_type_symbol
_atom_site_label
_atom_site_fract_x
_atom_site_fract_y
_atom_site_fract_z
Si Si1 0.263666 0.331331 0.304618
Si Si2 0.654883 0.459127 0.000000
Si Si3 0.000000 0.216468 0.195153
Si Si4 0.000000 0.297151 0.803895
Si Si5 0.845818 0.910526 0.307910
O O1 0.268511 0.330928 0.500000
O O2 0.375051 0.305378 0.244240
O O3 0.292342 0.371998 0.256258
O O4 0.127157 0.317383 0.248908
O O5 0.692832 0.438823 0.168132
O O6 0.697793 0.500000 0.000000
O O7 0.500000 0.459180 0.000000
O O8 0.000000 0.256653 0.263203
O O9 0.000000 0.219191 0.000000
O O10 0.000000 0.295254 0.000000
O O11 0.809953 0.918176 0.500000
O O12 0.000000 0.908183 0.306379
#
# Coordination Sequence:
#
# PCOD9493730 Si02
#       5
#    16   8   8   8  16
#     4  11  22  37  57  80 107 147 191 231 280 332
#     4   9  18  30  50  81 112 146 177 212 273 331
#     4  11  23  37  57  79 107 146 187 236 286 334
#     4  11  25  39  51  79 113 144 187 238 288 328
#     4   9  18  32  52  80 109 142 184 225 269 328
#
# _framework density 17.420701000000001
#
# number of rings (size 3 to 8) (size 9 to 14) (size 15 to 20)
#    0.000    1.857    1.429    2.571    4.000    6.286 
#    0.000    2.857    0.000    0.000    0.000    2.000 
#    0.000    4.571    0.000    0.000    0.000    0.000 
#
# Total GULP energy -156223.692650 kJ/mol
# GULP energy per Si atom -5579.417595 kJ/mol
# Density = 1.738105 g / cm^3
# Si number density = 17.420701 Si / 1000 Ang^3
#
#
#
# Elastic Constant Matrix: (Units=GPa)
#
#
# Indices 1 2 3 4 5 6 
#
# 1 88.1657 52.0644 25.4756 0.0000 0.0000 0.0000
# 2 52.0644 171.6300 84.2240 0.0000 0.0000 0.0000
# 3 25.4756 84.2240 77.4571 0.0000 0.0000 0.0000
# 4 0.0000 0.0000 0.0000 94.9024 0.0000 0.0000
# 5 0.0000 0.0000 0.0000 0.0000 28.4650 0.0000
# 6 0.0000 0.0000 0.0000 0.0000 0.0000 -3.1539
#
#
#
# Elastic Compliance Matrix: (Units=1/GPa)
#
#
# Indices 1 2 3 4 5 6 
#
# 1 0.013818 -0.004205 0.000028 0.000000 0.000000 0.000000
# 2 -0.004205 0.013772 -0.013593 0.000000 0.000000 0.000000
# 3 0.000028 -0.013593 0.027681 0.000000 0.000000 0.000000
# 4 0.000000 0.000000 0.000000 0.010537 0.000000 0.000000
# 5 0.000000 0.000000 0.000000 0.000000 0.035131 0.000000
# 6 0.000000 0.000000 0.000000 0.000000 0.000000 -0.317071
#
#
# Mechanical properties :
#
#
# Convention : Reuss Voigt Hill
#
# Bulk Modulus (GPa) = 50.67983 73.42007 62.04995
# Shear Modulus (GPa) = -28.73303 35.74197 3.50447
#
# Velocity S-wave (km/s) = -4.06564 4.53448 1.41987
# Velocity P-wave (km/s) = 2.66752 8.34578 6.19547
#
# Compressibility (1/GPa) = 0.01973171
#
# Stress axis : x y z
#
# Youngs Moduli (GPa) = 72.37167 72.60856 36.12580
#
# Poissons Ratio (x) = 0.30535 -0.00102
# Poissons Ratio (y) = 0.30436 0.49104
# Poissons Ratio (z) = -0.00205 0.98693
#
# Static dielectric constant tensor:
#      x y z
#    x 1.537920 0.000000 0.000000 
#    y 0.000000 1.609280 0.000000 
#    z 0.000000 0.000000 1.606950 
# 
# From -- ./inp_files/4775.got.cif
#   From: 2010.05.17/outbox.cif.g08.bks.cpg/sg65_3_cif.got.tgz:4775.got - 2010.06.03 17:01:31.
