data_PCOD9493137
_publ_section_title
;
Structure prediction by ZEFSAII (Michael W. Deem and Ramdas Pophale) SiO2 
 PCOD9493137
Probable space group: C M M M
;
_chemical_formula_sum "Si O2"
_cell_formula_units_Z 66
_cell_length_a 14.945247
_cell_length_b 30.197343
_cell_length_c 7.658682
_cell_angle_alpha 90.000000
_cell_angle_beta 90.000000
_cell_angle_gamma 90.000000
_cell_volume 3456.414882
_symmetry_space_group_name_H-M "C M M M"
_symmetry_group_IT_number 65
_symmetry_cell_setting 'orthorhombic'
loop_
_space_group_symop_operation_xyz
x,y,z
-x,-y,z
x,-y,-z
-x,y,-z
-x,-y,-z
x,y,-z
-x,y,z
x,-y,z
1/2+x,1/2+y,z
1/2-x,1/2-y,z
1/2+x,1/2-y,-z
1/2-x,1/2+y,-z
1/2-x,1/2-y,-z
1/2+x,1/2+y,-z
1/2-x,1/2+y,z
1/2+x,1/2-y,z
loop_
_atom_site_type_symbol
_atom_site_label
_atom_site_fract_x
_atom_site_fract_y
_atom_site_fract_z
Si Si1 0.500000 0.000000 0.000000
Si Si2 0.500000 0.074882 0.700046
Si Si3 0.843071 0.881460 0.200019
Si Si4 0.849497 0.350627 0.705709
Si Si5 0.391832 0.552144 0.500000
Si Si6 0.000000 0.286569 0.294585
Si Si7 0.000000 0.815512 0.790320
O O1 0.500000 0.961733 0.153358
O O2 0.500000 0.058033 0.500000
O O3 0.585956 0.106853 0.719637
O O4 0.744294 0.860985 0.206330
O O5 0.853106 0.922617 0.330878
O O6 0.913496 0.844091 0.260369
O O7 0.865123 0.893946 0.000000
O O8 0.829928 0.343222 0.500000
O O9 0.909900 0.309934 0.775224
O O10 0.370363 0.500000 0.500000
O O11 0.500000 0.556670 0.500000
O O12 0.000000 0.234233 0.277676
O O13 0.000000 0.298728 0.500000
O O14 0.000000 0.812096 0.000000
#
# Coordination Sequence:
#
# PCOD9493137 Si02
#       7
#     2   8  16  16   8   8   8
#     4  12  22  36  64  90 112 158 214 236 340 366
#     4   9  21  40  57  84 123 155 199 260 301 369
#     4  11  23  40  64  92 126 163 203 258 309 367
#     4   9  19  40  62  85 123 166 205 249 310 358
#     4  11  24  44  68  90 118 166 208 253 318 371
#     4   9  20  36  63  93 121 165 211 252 296 373
#     4  10  23  39  56  90 128 159 202 259 311 361
#
# _framework density 19.094929
#
# number of rings (size 3 to 8) (size 9 to 14) (size 15 to 20)
#    0.000    2.061    2.424    1.636    3.394    2.424 
#    4.364    6.061    0.000    0.000    0.000    0.000 
#    0.000    0.000    0.000    0.000    0.000    0.000 
#
# Total GULP energy -183941.056944 kJ/mol
# GULP energy per Si atom -5573.971423 kJ/mol
# Density = 1.905147 g / cm^3
# Si number density = 19.094929 Si / 1000 Ang^3
#
#
#
# Elastic Constant Matrix: (Units=GPa)
#
#
# Indices 1 2 3 4 5 6 
#
# 1 131.5137 53.7716 29.0383 0.0000 0.0000 0.0000
# 2 53.7716 143.2347 61.7333 0.0000 0.0000 0.0000
# 3 29.0383 61.7333 97.6688 0.0000 0.0000 0.0000
# 4 0.0000 0.0000 0.0000 102.1675 0.0000 0.0000
# 5 0.0000 0.0000 0.0000 0.0000 34.9965 0.0000
# 6 0.0000 0.0000 0.0000 0.0000 0.0000 1.9647
#
#
#
# Elastic Compliance Matrix: (Units=1/GPa)
#
#
# Indices 1 2 3 4 5 6 
#
# 1 0.009022 -0.003066 -0.000744 0.000000 0.000000 0.000000
# 2 -0.003066 0.010638 -0.005812 0.000000 0.000000 0.000000
# 3 -0.000744 -0.005812 0.014134 0.000000 0.000000 0.000000
# 4 0.000000 0.000000 0.000000 0.009788 0.000000 0.000000
# 5 0.000000 0.000000 0.000000 0.000000 0.028574 0.000000
# 6 0.000000 0.000000 0.000000 0.000000 0.000000 0.508993
#
#
# Mechanical properties :
#
#
# Convention : Reuss Voigt Hill
#
# Bulk Modulus (GPa) = 68.73805 73.50039 71.11922
# Shear Modulus (GPa) = 8.26115 43.01732 25.63924
#
# Velocity S-wave (km/s) = 2.08225 4.75153 3.66830
# Velocity P-wave (km/s) = 6.46972 8.28724 7.43423
#
# Compressibility (1/GPa) = 0.01454798
#
# Stress axis : x y z
#
# Youngs Moduli (GPa) = 110.84363 94.00680 70.75331
#
# Poissons Ratio (x) = 0.28823 0.05266
# Poissons Ratio (y) = 0.33985 0.41122
# Poissons Ratio (z) = 0.08251 0.54637
#
# Static dielectric constant tensor:
#      x y z
#    x 1.664710 0.000000 0.000000 
#    y 0.000000 1.623260 0.000000 
#    z 0.000000 0.000000 1.690760 
# 
# From -- ./inp_files/7180.got.cif
#   From: 2010.05.17/outbox.cif.g08.bks.cpg/sg65_4_cif.got.tgz:7180.got - 2010.06.03 17:01:31.
