data_PCOD9493327
_publ_section_title
;
Structure prediction by ZEFSAII (Michael W. Deem and Ramdas Pophale) SiO2 
 PCOD9493327
Probable space group: C M M M
;
_chemical_formula_sum "Si O2"
_cell_formula_units_Z 112
_cell_length_a 15.522093
_cell_length_b 23.838223
_cell_length_c 14.917496
_cell_angle_alpha 90.000000
_cell_angle_beta 90.000000
_cell_angle_gamma 90.000000
_cell_volume 5519.758658
_symmetry_space_group_name_H-M "C M M M"
_symmetry_group_IT_number 65
_symmetry_cell_setting 'orthorhombic'
loop_
_space_group_symop_operation_xyz
x,y,z
-x,-y,z
x,-y,-z
-x,y,-z
-x,-y,-z
x,y,-z
-x,y,z
x,-y,z
1/2+x,1/2+y,z
1/2-x,1/2-y,z
1/2+x,1/2-y,-z
1/2-x,1/2+y,-z
1/2-x,1/2-y,-z
1/2+x,1/2+y,-z
1/2-x,1/2+y,z
1/2+x,1/2-y,z
loop_
_atom_site_type_symbol
_atom_site_label
_atom_site_fract_x
_atom_site_fract_y
_atom_site_fract_z
Si Si1 0.598869 0.864671 0.894021
Si Si2 0.849285 0.239251 0.854057
Si Si3 0.408170 0.819887 0.601810
Si Si4 0.900516 0.197084 0.659717
Si Si5 0.755241 0.564237 0.206867
Si Si6 0.241456 0.888550 0.605276
Si Si7 0.901606 0.117704 0.100664
O O1 0.500000 0.883082 0.880750
O O2 0.604931 0.798384 0.871007
O O3 0.666273 0.898947 0.833452
O O4 0.620565 0.871040 0.000000
O O5 0.750000 0.250000 0.877814
O O6 0.858459 0.219780 0.751235
O O7 0.887323 0.184878 0.902458
O O8 0.414778 0.839958 0.500000
O O9 0.500000 0.833161 0.648731
O O10 0.400182 0.753090 0.600642
O O11 0.320608 0.847466 0.633332
O O12 0.845066 0.147672 0.617868
O O13 0.000000 0.181026 0.675782
O O14 0.764814 0.500000 0.178064
O O15 0.747064 0.566754 0.314950
O O16 0.668383 0.591288 0.166346
O O17 0.248672 0.905377 0.500000
O O18 0.000000 0.106662 0.128226
O O19 0.888588 0.095559 0.000000
#
# Coordination Sequence:
#
# PCOD9493327 Si02
#       7
#    16  16  16  16  16  16  16
#     4  11  24  42  67 101 139 177 217 265 328 400
#     4  12  21  35  63 101 141 175 205 253 313 388
#     4   9  18  32  53  85 122 159 201 251 309 379
#     4  11  20  32  55  89 132 173 206 247 308 386
#     4  12  27  46  67  91 124 171 227 284 334 386
#     4  11  23  40  62  88 121 165 218 273 330 386
#     4  11  24  43  68  98 131 168 212 264 324 391
#
# _framework density 20.290742000000002
#
# number of rings (size 3 to 8) (size 9 to 14) (size 15 to 20)
#    0.000    1.000    2.857    4.714    0.000    7.429 
#    0.000    1.429    0.000    0.000    0.000    5.000 
#    0.000    0.000    0.000    0.000    0.000    0.000 
#
# Total GULP energy -312630.785530 kJ/mol
# GULP energy per Si atom -5582.692599 kJ/mol
# Density = 2.024456 g / cm^3
# Si number density = 20.290742 Si / 1000 Ang^3
#
#
#
# Elastic Constant Matrix: (Units=GPa)
#
#
# Indices 1 2 3 4 5 6 
#
# 1 106.2458 21.9804 29.4280 0.0000 0.0000 0.0000
# 2 21.9804 79.5207 28.2349 0.0000 0.0000 0.0000
# 3 29.4280 28.2349 124.3976 0.0000 0.0000 0.0000
# 4 0.0000 0.0000 0.0000 8.5279 0.0000 0.0000
# 5 0.0000 0.0000 0.0000 0.0000 -8.3747 0.0000
# 6 0.0000 0.0000 0.0000 0.0000 0.0000 -2.2084
#
#
#
# Elastic Compliance Matrix: (Units=1/GPa)
#
#
# Indices 1 2 3 4 5 6 
#
# 1 0.010408 -0.002178 -0.001968 0.000000 0.000000 0.000000
# 2 -0.002178 0.014133 -0.002693 0.000000 0.000000 0.000000
# 3 -0.001968 -0.002693 0.009115 0.000000 0.000000 0.000000
# 4 0.000000 0.000000 0.000000 0.117262 0.000000 0.000000
# 5 0.000000 0.000000 0.000000 0.000000 -0.119407 0.000000
# 6 0.000000 0.000000 0.000000 0.000000 0.000000 -0.452813
#
#
# Mechanical properties :
#
#
# Convention : Reuss Voigt Hill
#
# Bulk Modulus (GPa) = 50.05106 52.16118 51.10612
# Shear Modulus (GPa) = -12.46996 14.95700 1.24352
#
# Velocity S-wave (km/s) = -2.48173 2.71797 0.78370
# Velocity P-wave (km/s) = 4.06307 5.96762 5.10495
#
# Compressibility (1/GPa) = 0.01997960
#
# Stress axis : x y z
#
# Youngs Moduli (GPa) = 96.08201 70.75400 109.70460
#
# Poissons Ratio (x) = 0.15411 0.21587
# Poissons Ratio (y) = 0.20928 0.29540
# Poissons Ratio (z) = 0.18906 0.19052
#
# Static dielectric constant tensor:
#      x y z
#    x 1.741880 0.000000 0.000000 
#    y 0.000000 1.677770 0.000000 
#    z 0.000000 0.000000 1.933860 
# 
# From -- ./inp_files/40835.got.cif
#   From: 2010.05.17/outbox.cif.g08.bks.cpg/sg65_21_cif.got.tgz:40835.got - 2010.06.03 17:01:31.
