data_PCOD9493749
_publ_section_title
;
Structure prediction by ZEFSAII (Michael W. Deem and Ramdas Pophale) SiO2 
 PCOD9493749
Probable space group: C M M M
;
_chemical_formula_sum "Si O2"
_cell_formula_units_Z 52
_cell_length_a 16.119923
_cell_length_b 7.506066
_cell_length_c 18.050162
_cell_angle_alpha 90.000000
_cell_angle_beta 90.000000
_cell_angle_gamma 90.000000
_cell_volume 2184.019169
_symmetry_space_group_name_H-M "C M M M"
_symmetry_group_IT_number 65
_symmetry_cell_setting 'orthorhombic'
loop_
_space_group_symop_operation_xyz
x,y,z
-x,-y,z
x,-y,-z
-x,y,-z
-x,-y,-z
x,y,-z
-x,y,z
x,-y,z
1/2+x,1/2+y,z
1/2-x,1/2-y,z
1/2+x,1/2-y,-z
1/2-x,1/2+y,-z
1/2-x,1/2-y,-z
1/2+x,1/2+y,-z
1/2-x,1/2+y,z
1/2+x,1/2-y,z
loop_
_atom_site_type_symbol
_atom_site_label
_atom_site_fract_x
_atom_site_fract_y
_atom_site_fract_z
Si Si1 0.155077 0.211254 0.238780
Si Si2 0.098166 0.784264 0.080067
Si Si3 0.162798 0.000000 0.500000
Si Si4 0.404193 0.201657 0.394997
O O1 0.250000 0.250000 0.256850
O O2 0.137360 0.282312 0.156223
O O3 0.102582 0.286369 0.306399
O O4 0.139708 0.000000 0.237380
O O5 0.000000 0.745969 0.082849
O O6 0.106651 0.000000 0.079641
O O7 0.130564 0.719850 0.000000
O O8 0.152859 0.844055 0.564443
O O9 0.500000 0.240348 0.415752
O O10 0.383281 0.000000 0.416718
#
# Coordination Sequence:
#
# PCOD9493749 Si02
#       4
#    16  16   4  16
#     4  11  22  37  58  84 125 169 210 256 307 372
#     4   8  15  30  55  87 119 157 209 260 308 364
#     4  12  23  42  70  98 124 158 203 256 315 374
#     4  11  23  40  66  96 125 158 204 259 312 370
#
# _framework density 23.809313
#
# number of rings (size 3 to 8) (size 9 to 14) (size 15 to 20)
#    0.000    1.846    1.538    4.615    0.000    3.077 
#    0.000    0.769    0.000    2.769    0.000   10.769 
#    0.000    0.000    0.000    0.000    0.000    0.000 
#
# Total GULP energy -144928.774031 kJ/mol
# GULP energy per Si atom -5574.183617 kJ/mol
# Density = 2.375512 g / cm^3
# Si number density = 23.809313 Si / 1000 Ang^3
#
#
#
# Elastic Constant Matrix: (Units=GPa)
#
#
# Indices 1 2 3 4 5 6 
#
# 1 36.9610 6.5600 25.0825 0.0000 0.0000 0.0000
# 2 6.5600 112.6529 31.6796 0.0000 0.0000 0.0000
# 3 25.0825 31.6796 208.3547 0.0000 0.0000 0.0000
# 4 0.0000 0.0000 0.0000 137.8087 0.0000 0.0000
# 5 0.0000 0.0000 0.0000 0.0000 -50.3020 0.0000
# 6 0.0000 0.0000 0.0000 0.0000 0.0000 -6.7624
#
#
#
# Elastic Compliance Matrix: (Units=1/GPa)
#
#
# Indices 1 2 3 4 5 6 
#
# 1 0.029523 -0.000752 -0.003440 0.000000 0.000000 0.000000
# 2 -0.000752 0.009292 -0.001322 0.000000 0.000000 0.000000
# 3 -0.003440 -0.001322 0.005415 0.000000 0.000000 0.000000
# 4 0.000000 0.000000 0.000000 0.007256 0.000000 0.000000
# 5 0.000000 0.000000 0.000000 0.000000 -0.019880 0.000000
# 6 0.000000 0.000000 0.000000 0.000000 0.000000 -0.147876
#
#
# Mechanical properties :
#
#
# Convention : Reuss Voigt Hill
#
# Bulk Modulus (GPa) = 30.11834 53.84586 41.98210
# Shear Modulus (GPa) = -53.09354 35.79196 -8.65079
#
# Velocity S-wave (km/s) = -4.72736 3.88142 -1.90821
# Velocity P-wave (km/s) = 4.13762 6.53848 3.57993
#
# Compressibility (1/GPa) = 0.03320236
#
# Stress axis : x y z
#
# Youngs Moduli (GPa) = 33.87152 107.61389 184.68354
#
# Poissons Ratio (x) = 0.08091 0.63528
# Poissons Ratio (y) = 0.02547 0.24422
# Poissons Ratio (z) = 0.11651 0.14231
#
# Static dielectric constant tensor:
#      x y z
#    x 1.898000 0.000000 0.000000 
#    y 0.000000 1.872590 0.000000 
#    z 0.000000 0.000000 1.928390 
# 
# From -- ./inp_files/48636.got.cif
#   From: 2010.05.17/outbox.cif.g08.bks.cpg/sg65_25_cif.got.tgz:48636.got - 2010.06.03 17:01:31.
