data_PCOD9493006
_publ_section_title
;
Structure prediction by ZEFSAII (Michael W. Deem and Ramdas Pophale) SiO2 
 PCOD9493006
Probable space group: C M M M
;
_chemical_formula_sum "Si O2"
_cell_formula_units_Z 88
_cell_length_a 9.614759
_cell_length_b 19.148250
_cell_length_c 25.930377
_cell_angle_alpha 90.000000
_cell_angle_beta 90.000000
_cell_angle_gamma 90.000000
_cell_volume 4773.933036
_symmetry_space_group_name_H-M "C M M M"
_symmetry_group_IT_number 65
_symmetry_cell_setting 'orthorhombic'
loop_
_space_group_symop_operation_xyz
x,y,z
-x,-y,z
x,-y,-z
-x,y,-z
-x,-y,-z
x,y,-z
-x,y,z
x,-y,z
1/2+x,1/2+y,z
1/2-x,1/2-y,z
1/2+x,1/2-y,-z
1/2-x,1/2+y,-z
1/2-x,1/2-y,-z
1/2+x,1/2+y,-z
1/2-x,1/2+y,z
1/2+x,1/2-y,z
loop_
_atom_site_type_symbol
_atom_site_label
_atom_site_fract_x
_atom_site_fract_y
_atom_site_fract_z
Si Si1 0.000000 0.078003 0.938588
Si Si2 0.834825 0.679075 0.558316
Si Si3 0.337696 0.083110 0.655381
Si Si4 0.725471 0.833082 0.057897
Si Si5 0.156647 0.679826 0.829565
Si Si6 0.836926 0.083867 0.243485
O O1 0.865525 0.124676 0.928891
O O2 0.000000 0.000000 0.914824
O O3 0.000000 0.068971 0.000000
O O4 0.804284 0.653544 0.500000
O O5 0.750000 0.750000 0.566478
O O6 0.803838 0.624052 0.603112
O O7 0.000000 0.693750 0.560612
O O8 0.500000 0.098072 0.669350
O O9 0.233295 0.101924 0.701524
O O10 0.327741 0.000000 0.647019
O O11 0.750000 0.750000 0.053785
O O12 0.642235 0.841262 0.110402
O O13 0.677164 0.855173 0.000000
O O14 0.250000 0.750000 0.827002
O O15 0.243246 0.621802 0.799002
O O16 0.000000 0.690311 0.808851
O O17 0.000000 0.103729 0.240665
O O18 0.828773 0.000000 0.237523
#
# Coordination Sequence:
#
# PCOD9493006 Si02
#       6
#     8  16  16  16  16  16
#     4   9  18  34  56  84 115 149 191 235 279 337
#     4   9  18  32  51  78 112 149 186 224 272 329
#     4   9  18  34  56  80 108 143 186 235 282 331
#     4   9  20  35  57  85 115 150 189 233 285 347
#     4  11  24  39  59  85 115 148 187 236 286 340
#     4  10  22  40  61  83 110 147 190 236 287 345
#
# _framework density 18.433439
#
# number of rings (size 3 to 8) (size 9 to 14) (size 15 to 20)
#    0.000    2.455    0.000    1.091    6.364    4.000 
#    0.000    3.636    0.000    0.000    0.000    8.909 
#    0.000    0.000    0.000    0.000    0.000    0.000 
#
# Total GULP energy -245103.095471 kJ/mol
# GULP energy per Si atom -5570.524897 kJ/mol
# Density = 1.839148 g / cm^3
# Si number density = 18.433439 Si / 1000 Ang^3
#
#
#
# Elastic Constant Matrix: (Units=GPa)
#
#
# Indices 1 2 3 4 5 6 
#
# 1 133.6820 55.1601 66.2628 0.0000 0.0000 0.0000
# 2 55.1601 61.6812 44.8901 0.0000 0.0000 0.0000
# 3 66.2628 44.8901 135.0560 0.0000 0.0000 0.0000
# 4 0.0000 0.0000 0.0000 41.1683 0.0000 0.0000
# 5 0.0000 0.0000 0.0000 0.0000 25.9367 0.0000
# 6 0.0000 0.0000 0.0000 0.0000 0.0000 28.8461
#
#
#
# Elastic Compliance Matrix: (Units=1/GPa)
#
#
# Indices 1 2 3 4 5 6 
#
# 1 0.012872 -0.009121 -0.003284 0.000000 0.000000 0.000000
# 2 -0.009121 0.027849 -0.004781 0.000000 0.000000 0.000000
# 3 -0.003284 -0.004781 0.010605 0.000000 0.000000 0.000000
# 4 0.000000 0.000000 0.000000 0.024291 0.000000 0.000000
# 5 0.000000 0.000000 0.000000 0.000000 0.038555 0.000000
# 6 0.000000 0.000000 0.000000 0.000000 0.000000 0.034667
#
#
# Mechanical properties :
#
#
# Convention : Reuss Voigt Hill
#
# Bulk Modulus (GPa) = 58.98620 73.67171 66.32895
# Shear Modulus (GPa) = 26.47455 30.13064 28.30259
#
# Velocity S-wave (km/s) = 3.79387 4.04736 3.92266
# Velocity P-wave (km/s) = 7.15963 7.86731 7.52180
#
# Compressibility (1/GPa) = 0.01695312
#
# Stress axis : x y z
#
# Youngs Moduli (GPa) = 77.69079 35.90808 94.29891
#
# Poissons Ratio (x) = 0.32752 0.30963
# Poissons Ratio (y) = 0.70862 0.45088
# Poissons Ratio (z) = 0.25510 0.17169
#
# Static dielectric constant tensor:
#      x y z
#    x 1.602280 0.000000 0.000000 
#    y 0.000000 1.616090 0.000000 
#    z 0.000000 0.000000 1.650770 
# 
# From -- ./inp_files/67537.got.cif
#   From: 2010.05.17/outbox.cif.g08.bks.cpg/sg65_34_cif.got.tgz:67537.got - 2010.06.03 17:01:31.
