data_PCOD9493276
_publ_section_title
;
Structure prediction by ZEFSAII (Michael W. Deem and Ramdas Pophale) SiO2 
 PCOD9493276
Probable space group: C M M M
;
_chemical_formula_sum "Si O2"
_cell_formula_units_Z 88
_cell_length_a 27.762325
_cell_length_b 14.188105
_cell_length_c 14.448810
_cell_angle_alpha 90.000000
_cell_angle_beta 90.000000
_cell_angle_gamma 90.000000
_cell_volume 5691.310867
_symmetry_space_group_name_H-M "C M M M"
_symmetry_group_IT_number 65
_symmetry_cell_setting 'orthorhombic'
loop_
_space_group_symop_operation_xyz
x,y,z
-x,-y,z
x,-y,-z
-x,y,-z
-x,-y,-z
x,y,-z
-x,y,z
x,-y,z
1/2+x,1/2+y,z
1/2-x,1/2-y,z
1/2+x,1/2-y,-z
1/2-x,1/2+y,-z
1/2-x,1/2-y,-z
1/2+x,1/2+y,-z
1/2-x,1/2+y,z
1/2+x,1/2-y,z
loop_
_atom_site_type_symbol
_atom_site_label
_atom_site_fract_x
_atom_site_fract_y
_atom_site_fract_z
Si Si1 0.443597 0.385851 0.204629
Si Si2 0.058175 0.105855 0.000000
Si Si3 0.285050 0.386480 0.106537
Si Si4 0.851648 0.794626 0.262640
Si Si5 0.197300 0.390372 0.762637
Si Si6 0.222003 0.889361 0.606755
O O1 0.500000 0.366701 0.222175
O O2 0.437905 0.500000 0.207362
O O3 0.430725 0.352332 0.099664
O O4 0.405334 0.334228 0.268501
O O5 0.000000 0.097123 0.000000
O O6 0.079166 0.000000 0.000000
O O7 0.290255 0.500000 0.109856
O O8 0.324430 0.343442 0.175374
O O9 0.232591 0.365773 0.151146
O O10 0.289305 0.356188 0.000000
O O11 0.845515 0.683543 0.246664
O O12 0.820406 0.827072 0.350656
O O13 0.183600 0.500000 0.769442
O O14 0.231814 0.377968 0.672991
O O15 0.232152 0.868120 0.500000
O O16 0.208178 0.000000 0.614154
#
# Coordination Sequence:
#
# PCOD9493276 Si02
#       6
#    16   8  16  16  16  16
#     4   9  17  29  44  64  90 114 139 178 227 271
#     4   7  12  24  40  58  82 109 133 165 212 260
#     4   9  17  28  42  63  91 116 139 173 217 266
#     4  11  19  27  45  67  86 115 154 182 212 261
#     4   9  19  32  42  59  89 120 150 184 216 250
#     4   9  17  30  48  70  95 118 141 175 220 266
#
# _framework density 15.462166
#
# number of rings (size 3 to 8) (size 9 to 14) (size 15 to 20)
#    0.000    2.818    0.000    6.000    1.273    2.909 
#    0.000    0.000    0.000    1.091    0.000    2.545 
#    0.000    2.182    0.000    6.182    0.000    0.182 
#
# Total GULP energy -245131.598883 kJ/mol
# GULP energy per Si atom -5571.172702 kJ/mol
# Density = 1.542697 g / cm^3
# Si number density = 15.462166 Si / 1000 Ang^3
#
#
#
# Elastic Constant Matrix: (Units=GPa)
#
#
# Indices 1 2 3 4 5 6 
#
# 1 54.0823 35.8405 -3.7908 0.0000 0.0000 0.0000
# 2 35.8405 56.2240 6.5787 0.0000 0.0000 0.0000
# 3 -3.7908 6.5787 62.8014 0.0000 0.0000 0.0000
# 4 0.0000 0.0000 0.0000 8.4421 0.0000 0.0000
# 5 0.0000 0.0000 0.0000 0.0000 7.2260 0.0000
# 6 0.0000 0.0000 0.0000 0.0000 0.0000 20.3452
#
#
#
# Elastic Compliance Matrix: (Units=1/GPa)
#
#
# Indices 1 2 3 4 5 6 
#
# 1 0.033104 -0.021601 0.004261 0.000000 0.000000 0.000000
# 2 -0.021601 0.032102 -0.004667 0.000000 0.000000 0.000000
# 3 0.004261 -0.004667 0.016669 0.000000 0.000000 0.000000
# 4 0.000000 0.000000 0.000000 0.118454 0.000000 0.000000
# 5 0.000000 0.000000 0.000000 0.000000 0.138389 0.000000
# 6 0.000000 0.000000 0.000000 0.000000 0.000000 0.049152
#
#
# Mechanical properties :
#
#
# Convention : Reuss Voigt Hill
#
# Bulk Modulus (GPa) = 26.41187 27.81826 27.11507
# Shear Modulus (GPa) = 11.24850 16.16795 13.70823
#
# Velocity S-wave (km/s) = 2.70012 3.23715 2.98076
# Velocity P-wave (km/s) = 5.18069 5.65707 5.42411
#
# Compressibility (1/GPa) = 0.03786177
#
# Stress axis : x y z
#
# Youngs Moduli (GPa) = 30.20761 31.15073 59.99060
#
# Poissons Ratio (x) = 0.67289 -0.25562
# Poissons Ratio (y) = 0.65252 0.27996
# Poissons Ratio (z) = -0.12872 0.14537
#
# Static dielectric constant tensor:
#      x y z
#    x 1.508880 0.000000 0.000000 
#    y 0.000000 1.537880 0.000000 
#    z 0.000000 0.000000 1.535970 
# 
# From -- ./inp_files/46879.got.cif
#   From: 2010.05.17/outbox.cif.g08.bks.cpg/sg65_24_cif.got.tgz:46879.got - 2010.06.03 17:01:31.
