data_PCOD9493817
_publ_section_title
;
Structure prediction by ZEFSAII (Michael W. Deem and Ramdas Pophale) SiO2 
 PCOD9493817
Probable space group: C M M M
;
_chemical_formula_sum "Si O2"
_cell_formula_units_Z 88
_cell_length_a 20.725368
_cell_length_b 25.633733
_cell_length_c 7.910002
_cell_angle_alpha 90.000000
_cell_angle_beta 90.000000
_cell_angle_gamma 90.000000
_cell_volume 4202.335290
_symmetry_space_group_name_H-M "C M M M"
_symmetry_group_IT_number 65
_symmetry_cell_setting 'orthorhombic'
loop_
_space_group_symop_operation_xyz
x,y,z
-x,-y,z
x,-y,-z
-x,y,-z
-x,-y,-z
x,y,-z
-x,y,z
x,-y,z
1/2+x,1/2+y,z
1/2-x,1/2-y,z
1/2+x,1/2-y,-z
1/2-x,1/2+y,-z
1/2-x,1/2-y,-z
1/2+x,1/2+y,-z
1/2-x,1/2+y,z
1/2+x,1/2-y,z
loop_
_atom_site_type_symbol
_atom_site_label
_atom_site_fract_x
_atom_site_fract_y
_atom_site_fract_z
Si Si1 0.928824 0.248836 0.702919
Si Si2 0.679832 0.415712 0.300732
Si Si3 0.296835 0.296541 0.807206
Si Si4 0.425916 0.500000 0.199257
Si Si5 0.569419 0.871899 0.295237
Si Si6 0.681315 0.056664 0.294079
O O1 0.920360 0.241170 0.500000
O O2 0.869096 0.225208 0.798897
O O3 0.928246 0.310501 0.735700
O O4 0.000000 0.228353 0.748353
O O5 0.677806 0.424501 0.500000
O O6 0.693402 0.353776 0.274051
O O7 0.617041 0.447940 0.239541
O O8 0.745962 0.439904 0.229310
O O9 0.250000 0.250000 0.734600
O O10 0.274788 0.304802 0.000000
O O11 0.500000 0.500000 0.271663
O O12 0.432873 0.500000 0.000000
O O13 0.569564 0.878020 0.500000
O O14 0.500000 0.892141 0.233790
O O15 0.632765 0.899862 0.229015
O O16 0.685380 0.061779 0.500000
O O17 0.653485 0.000000 0.257694
#
# Coordination Sequence:
#
# PCOD9493817 Si02
#       6
#    16  16  16   8  16  16
#     4   9  18  34  55  79 108 145 191 237 286 346
#     4  11  22  39  63  88 117 154 199 250 303 361
#     4  11  24  39  57  86 122 158 201 250 304 370
#     4  11  25  45  67  91 122 159 200 254 321 387
#     4   8  14  25  44  73 110 148 181 219 268 321
#     4   9  16  27  46  75 109 141 179 224 269 321
#
# _framework density 20.940738
#
# number of rings (size 3 to 8) (size 9 to 14) (size 15 to 20)
#    0.000    2.273    0.909    3.545    0.000    5.091 
#    0.000    1.818    0.000    0.000    0.000    0.000 
#    0.000    0.727    0.000    0.000    0.000    0.000 
#
# Total GULP energy -245042.016707 kJ/mol
# GULP energy per Si atom -5569.136743 kJ/mol
# Density = 2.089308 g / cm^3
# Si number density = 20.940738 Si / 1000 Ang^3
#
#
#
# Elastic Constant Matrix: (Units=GPa)
#
#
# Indices 1 2 3 4 5 6 
#
# 1 114.2309 54.1462 4.8853 0.0000 0.0000 0.0000
# 2 54.1462 76.3336 8.9616 0.0000 0.0000 0.0000
# 3 4.8853 8.9616 23.5886 0.0000 0.0000 0.0000
# 4 0.0000 0.0000 0.0000 -8.4881 0.0000 0.0000
# 5 0.0000 0.0000 0.0000 0.0000 -63.4779 0.0000
# 6 0.0000 0.0000 0.0000 0.0000 0.0000 13.0232
#
#
#
# Elastic Compliance Matrix: (Units=1/GPa)
#
#
# Indices 1 2 3 4 5 6 
#
# 1 0.013205 -0.009468 0.000862 0.000000 0.000000 0.000000
# 2 -0.009468 0.020501 -0.005828 0.000000 0.000000 0.000000
# 3 0.000862 -0.005828 0.044429 0.000000 0.000000 0.000000
# 4 0.000000 0.000000 0.000000 -0.117811 0.000000 0.000000
# 5 0.000000 0.000000 0.000000 0.000000 -0.015754 0.000000
# 6 0.000000 0.000000 0.000000 0.000000 0.000000 0.076786
#
#
# Mechanical properties :
#
#
# Convention : Reuss Voigt Hill
#
# Bulk Modulus (GPa) = 20.29731 38.90437 29.60084
# Shear Modulus (GPa) = 75.02364 -2.04457 36.48954
#
# Velocity S-wave (km/s) = 5.99203 -0.98918 4.17887
# Velocity P-wave (km/s) = 7.58857 4.16101 6.11965
#
# Compressibility (1/GPa) = 0.04926761
#
# Stress axis : x y z
#
# Youngs Moduli (GPa) = 75.72685 48.77871 22.50796
#
# Poissons Ratio (x) = 0.46185 -0.01941
# Poissons Ratio (y) = 0.71700 0.13117
# Poissons Ratio (z) = -0.06529 0.28426
#
# Static dielectric constant tensor:
#      x y z
#    x 1.788340 0.000000 0.000000 
#    y 0.000000 1.791880 0.000000 
#    z 0.000000 0.000000 1.779690 
# 
# From -- ./inp_files/11749.got.cif
#   From: 2010.05.17/outbox.cif.g08.bks.cpg/sg65_6_cif.got.tgz:11749.got - 2010.06.03 17:01:31.
