data_PCOD9493672
_publ_section_title
;
Structure prediction by ZEFSAII (Michael W. Deem and Ramdas Pophale) SiO2 
 PCOD9493672
Probable space group: C M M M
;
_chemical_formula_sum "Si O2"
_cell_formula_units_Z 96
_cell_length_a 27.982493
_cell_length_b 8.642736
_cell_length_c 24.956450
_cell_angle_alpha 90.000000
_cell_angle_beta 90.000000
_cell_angle_gamma 90.000000
_cell_volume 6035.600128
_symmetry_space_group_name_H-M "C M M M"
_symmetry_group_IT_number 65
_symmetry_cell_setting 'orthorhombic'
loop_
_space_group_symop_operation_xyz
x,y,z
-x,-y,z
x,-y,-z
-x,y,-z
-x,-y,-z
x,y,-z
-x,y,z
x,-y,z
1/2+x,1/2+y,z
1/2-x,1/2-y,z
1/2+x,1/2-y,-z
1/2-x,1/2+y,-z
1/2-x,1/2-y,-z
1/2+x,1/2+y,-z
1/2-x,1/2+y,z
1/2+x,1/2-y,z
loop_
_atom_site_type_symbol
_atom_site_label
_atom_site_fract_x
_atom_site_fract_y
_atom_site_fract_z
Si Si1 0.057257 0.315281 0.941704
Si Si2 0.053153 0.187744 0.611683
Si Si3 0.605228 0.687153 0.720518
Si Si4 0.055394 0.186327 0.829363
Si Si5 0.652025 0.687366 0.439637
Si Si6 0.698512 0.816103 0.666264
O O1 0.063792 0.500000 0.939197
O O2 0.075089 0.241239 0.886727
O O3 0.000000 0.286135 0.942186
O O4 0.075739 0.260738 0.000000
O O5 0.068916 0.229039 0.672220
O O6 0.097185 0.234263 0.573826
O O7 0.000000 0.245114 0.598711
O O8 0.051545 0.000000 0.609372
O O9 0.608536 0.500000 0.720420
O O10 0.585246 0.738592 0.777819
O O11 0.656372 0.754610 0.704482
O O12 0.000000 0.238584 0.824109
O O13 0.054885 0.000000 0.829011
O O14 0.664889 0.732312 0.500000
O O15 0.654351 0.500000 0.435603
O O16 0.684691 0.757565 0.393342
O O17 0.750000 0.750000 0.681292
O O18 0.699404 0.000000 0.666884
#
# Coordination Sequence:
#
# PCOD9493672 Si02
#       6
#    16  16  16  16  16  16
#     4   8  14  24  36  52  81 123 164 196 225 257
#     4   8  13  23  42  66  90 117 147 177 208 245
#     4   9  17  30  46  66  92 117 145 182 221 263
#     4   9  16  25  41  66  93 122 155 190 224 255
#     4   9  18  32  49  70  94 117 144 178 214 256
#     4  11  22  36  53  69  86 110 140 177 224 272
#
# _framework density 15.905627000000001
#
# number of rings (size 3 to 8) (size 9 to 14) (size 15 to 20)
#    0.000    3.000    0.000    3.500    0.000    4.000 
#    0.000    3.333    0.000   12.000    0.000    4.667 
#    0.000    0.667    0.000    2.167    0.000    3.167 
#
# Total GULP energy -267338.823946 kJ/mol
# GULP energy per Si atom -5569.558832 kJ/mol
# Density = 1.586943 g / cm^3
# Si number density = 15.905627 Si / 1000 Ang^3
#
#
#
# Elastic Constant Matrix: (Units=GPa)
#
#
# Indices 1 2 3 4 5 6 
#
# 1 58.6293 12.4618 19.9960 0.0000 0.0000 0.0000
# 2 12.4618 19.6594 24.0944 0.0000 0.0000 0.0000
# 3 19.9960 24.0944 117.9758 0.0000 0.0000 0.0000
# 4 0.0000 0.0000 0.0000 19.8702 0.0000 0.0000
# 5 0.0000 0.0000 0.0000 0.0000 9.7659 0.0000
# 6 0.0000 0.0000 0.0000 0.0000 0.0000 16.4569
#
#
#
# Elastic Compliance Matrix: (Units=1/GPa)
#
#
# Indices 1 2 3 4 5 6 
#
# 1 0.019811 -0.011261 -0.001058 0.000000 0.000000 0.000000
# 2 -0.011261 0.074250 -0.013256 0.000000 0.000000 0.000000
# 3 -0.001058 -0.013256 0.011363 0.000000 0.000000 0.000000
# 4 0.000000 0.000000 0.000000 0.050327 0.000000 0.000000
# 5 0.000000 0.000000 0.000000 0.000000 0.102397 0.000000
# 6 0.000000 0.000000 0.000000 0.000000 0.000000 0.060765
#
#
# Mechanical properties :
#
#
# Convention : Reuss Voigt Hill
#
# Bulk Modulus (GPa) = 18.42482 34.37433 26.39958
# Shear Modulus (GPa) = 12.88151 18.53277 15.70714
#
# Velocity S-wave (km/s) = 2.84891 3.41716 3.14589
# Velocity P-wave (km/s) = 4.73611 6.10145 5.46161
#
# Compressibility (1/GPa) = 0.05427460
#
# Stress axis : x y z
#
# Youngs Moduli (GPa) = 50.47774 13.46793 88.00628
#
# Poissons Ratio (x) = 0.15167 0.09310
# Poissons Ratio (y) = 0.56844 1.16658
# Poissons Ratio (z) = 0.05340 0.17853
#
# Static dielectric constant tensor:
#      x y z
#    x 1.518010 0.000000 0.000000 
#    y 0.000000 1.542210 0.000000 
#    z 0.000000 0.000000 1.568170 
# 
# From -- ./inp_files/68021.got.cif
#   From: 2010.05.17/outbox.cif.g08.bks.cpg/sg65_35_cif.got.tgz:68021.got - 2010.06.03 17:01:31.
