data_PCOD9493400
_publ_section_title
;
Structure prediction by ZEFSAII (Michael W. Deem and Ramdas Pophale) SiO2 
 PCOD9493400
Probable space group: C M M M
;
_chemical_formula_sum "Si O2"
_cell_formula_units_Z 56
_cell_length_a 8.813953
_cell_length_b 16.954943
_cell_length_c 19.336520
_cell_angle_alpha 90.000000
_cell_angle_beta 90.000000
_cell_angle_gamma 90.000000
_cell_volume 2889.650916
_symmetry_space_group_name_H-M "C M M M"
_symmetry_group_IT_number 65
_symmetry_cell_setting 'orthorhombic'
loop_
_space_group_symop_operation_xyz
x,y,z
-x,-y,z
x,-y,-z
-x,y,-z
-x,-y,-z
x,y,-z
-x,y,z
x,-y,z
1/2+x,1/2+y,z
1/2-x,1/2-y,z
1/2+x,1/2-y,-z
1/2-x,1/2+y,-z
1/2-x,1/2-y,-z
1/2+x,1/2+y,-z
1/2-x,1/2+y,z
1/2+x,1/2-y,z
loop_
_atom_site_type_symbol
_atom_site_label
_atom_site_fract_x
_atom_site_fract_y
_atom_site_fract_z
Si Si1 0.682352 0.339156 0.149769
Si Si2 0.182561 0.838374 0.000000
Si Si3 0.820820 0.662802 0.288489
Si Si4 0.325023 0.405237 0.576845
O O1 0.500000 0.335693 0.155440
O O2 0.750000 0.250000 0.148174
O O3 0.749474 0.376250 0.219479
O O4 0.723649 0.375123 0.074537
O O5 0.250000 0.750000 0.000000
O O6 0.000000 0.831733 0.000000
O O7 0.750000 0.750000 0.292909
O O8 0.776269 0.621578 0.359722
O O9 0.000000 0.667737 0.279935
O O10 0.276639 0.377872 0.500000
O O11 0.500000 0.379073 0.587788
O O12 0.326023 0.500000 0.575485
#
# Coordination Sequence:
#
# PCOD9493400 Si02
#       4
#    16   8  16  16
#     4   9  15  25  40  61  91 124 159 197 238 282
#     4   8  14  22  36  58  85 120 157 194 235 279
#     4  11  21  32  48  72 102 133 164 199 240 284
#     4   9  19  37  58  76  95 122 157 197 242 292
#
# _framework density 19.379503
#
# number of rings (size 3 to 8) (size 9 to 14) (size 15 to 20)
#    0.000    2.571    0.000    6.000    0.000    2.857 
#    0.000    1.429    0.000    0.000    0.000    1.000 
#    0.000    8.000    0.000    0.000    0.000    0.000 
#
# Total GULP energy -155953.976047 kJ/mol
# GULP energy per Si atom -5569.784859 kJ/mol
# Density = 1.933539 g / cm^3
# Si number density = 19.379503 Si / 1000 Ang^3
#
#
#
# Elastic Constant Matrix: (Units=GPa)
#
#
# Indices 1 2 3 4 5 6 
#
# 1 103.1265 8.5987 77.5480 0.0000 0.0000 0.0000
# 2 8.5987 3.4593 18.6795 0.0000 0.0000 0.0000
# 3 77.5480 18.6795 208.3505 0.0000 0.0000 0.0000
# 4 0.0000 0.0000 0.0000 683.1078 0.0000 0.0000
# 5 0.0000 0.0000 0.0000 0.0000 -3.3514 0.0000
# 6 0.0000 0.0000 0.0000 0.0000 0.0000 12.4846
#
#
#
# Elastic Compliance Matrix: (Units=1/GPa)
#
#
# Indices 1 2 3 4 5 6 
#
# 1 0.013747 -0.012680 -0.003980 0.000000 0.000000 0.000000
# 2 -0.012680 0.572033 -0.046565 0.000000 0.000000 0.000000
# 3 -0.003980 -0.046565 0.010456 0.000000 0.000000 0.000000
# 4 0.000000 0.000000 0.000000 0.001464 0.000000 0.000000
# 5 0.000000 0.000000 0.000000 0.000000 -0.298384 0.000000
# 6 0.000000 0.000000 0.000000 0.000000 0.000000 0.080099
#
#
# Mechanical properties :
#
#
# Convention : Reuss Voigt Hill
#
# Bulk Modulus (GPa) = 2.12864 58.28764 30.20814
# Shear Modulus (GPa) = 7.54762 152.45554 80.00158
#
# Velocity S-wave (km/s) = 1.97563 8.87915 6.43204
# Velocity P-wave (km/s) = 2.51096 11.63019 8.41327
#
# Compressibility (1/GPa) = 0.46978455
#
# Stress axis : x y z
#
# Youngs Moduli (GPa) = 72.74463 1.74815 95.64228
#
# Poissons Ratio (x) = 0.02217 0.38062
# Poissons Ratio (y) = 0.92244 4.45363
# Poissons Ratio (z) = 0.28950 0.08140
#
# Static dielectric constant tensor:
#      x y z
#    x 1.653010 0.000000 0.000000 
#    y 0.000000 1.662730 0.000000 
#    z 0.000000 0.000000 1.777960 
# 
# From -- ./inp_files/48779.got.cif
#   From: 2010.05.17/outbox.cif.g08.bks.cpg/sg65_25_cif.got.tgz:48779.got - 2010.06.03 17:01:31.
