data_PCOD9494193
_publ_section_title
;
Structure prediction by ZEFSAII (Michael W. Deem and Ramdas Pophale) SiO2 
 PCOD9494193
Probable space group: C M M M
;
_chemical_formula_sum "Si O2"
_cell_formula_units_Z 80
_cell_length_a 29.083482
_cell_length_b 7.322573
_cell_length_c 19.407684
_cell_angle_alpha 90.000000
_cell_angle_beta 90.000000
_cell_angle_gamma 90.000000
_cell_volume 4133.175279
_symmetry_space_group_name_H-M "C M M M"
_symmetry_group_IT_number 65
_symmetry_cell_setting 'orthorhombic'
loop_
_space_group_symop_operation_xyz
x,y,z
-x,-y,z
x,-y,-z
-x,y,-z
-x,-y,-z
x,y,-z
-x,y,z
x,-y,z
1/2+x,1/2+y,z
1/2-x,1/2-y,z
1/2+x,1/2-y,-z
1/2-x,1/2+y,-z
1/2-x,1/2-y,-z
1/2+x,1/2+y,-z
1/2-x,1/2+y,z
1/2+x,1/2-y,z
loop_
_atom_site_type_symbol
_atom_site_label
_atom_site_fract_x
_atom_site_fract_y
_atom_site_fract_z
Si Si1 0.195380 0.281712 0.849963
Si Si2 0.947751 0.723038 0.651109
Si Si3 0.556012 0.207785 0.500000
Si Si4 0.695343 0.217675 0.575608
Si Si5 0.644437 0.776923 0.713571
Si Si6 0.804882 0.717563 0.000000
O O1 0.189186 0.500000 0.851480
O O2 0.250000 0.250000 0.842312
O O3 0.168544 0.212529 0.783261
O O4 0.179565 0.211655 0.925262
O O5 0.948697 0.500000 0.647515
O O6 0.932607 0.786624 0.574492
O O7 0.908807 0.774790 0.704963
O O8 0.000000 0.781545 0.664841
O O9 0.500000 0.200143 0.500000
O O10 0.574126 0.000000 0.500000
O O11 0.680188 0.287510 0.500000
O O12 0.750000 0.250000 0.581035
O O13 0.670641 0.285340 0.644377
O O14 0.687898 0.000000 0.574445
O O15 0.646548 0.000000 0.713894
O O16 0.750000 0.750000 0.000000
O O17 0.812885 0.500000 0.000000
#
# Coordination Sequence:
#
# PCOD9494193 Si02
#       6
#    16  16   8  16  16   8
#     4   9  16  26  39  56  77  99 123 150 180 215
#     4   8  13  20  30  46  68  93 120 150 185 221
#     4   7  10  16  26  40  59  84 113 145 179 213
#     4   9  17  27  37  50  71  98 124 149 176 209
#     4   9  16  23  34  51  71  96 124 150 180 217
#     4   8  14  24  38  54  73  97 121 147 180 214
#
# _framework density 19.35558
#
# number of rings (size 3 to 8) (size 9 to 14) (size 15 to 20)
#    0.000    3.500    0.000    1.800    1.400    0.000 
#    0.000    0.000    0.000    0.000    0.000    0.700 
#    0.000    8.800    0.000    5.000    0.000   40.200 
#
# Total GULP energy -222950.969544 kJ/mol
# GULP energy per Si atom -5573.774239 kJ/mol
# Density = 1.931153 g / cm^3
# Si number density = 19.355580 Si / 1000 Ang^3
#
#
#
# Elastic Constant Matrix: (Units=GPa)
#
#
# Indices 1 2 3 4 5 6 
#
# 1 93.2427 -1.4045 96.9671 0.0000 0.0000 0.0000
# 2 -1.4045 78.7707 12.4268 0.0000 0.0000 0.0000
# 3 96.9671 12.4268 211.1738 0.0000 0.0000 0.0000
# 4 0.0000 0.0000 0.0000 -8.8064 0.0000 0.0000
# 5 0.0000 0.0000 0.0000 0.0000 14.7065 0.0000
# 6 0.0000 0.0000 0.0000 0.0000 0.0000 0.1745
#
#
#
# Elastic Compliance Matrix: (Units=1/GPa)
#
#
# Indices 1 2 3 4 5 6 
#
# 1 0.020803 0.001896 -0.009664 0.000000 0.000000 0.000000
# 2 0.001896 0.012987 -0.001635 0.000000 0.000000 0.000000
# 3 -0.009664 -0.001635 0.009269 0.000000 0.000000 0.000000
# 4 0.000000 0.000000 0.000000 -0.113554 0.000000 0.000000
# 5 0.000000 0.000000 0.000000 0.000000 0.067997 0.000000
# 6 0.000000 0.000000 0.000000 0.000000 0.000000 5.730651
#
#
# Mechanical properties :
#
#
# Convention : Reuss Voigt Hill
#
# Bulk Modulus (GPa) = 41.23206 66.57398 53.90302
# Shear Modulus (GPa) = 0.86880 19.56145 10.21512
#
# Velocity S-wave (km/s) = 0.67070 3.18250 2.29980
# Velocity P-wave (km/s) = 4.68492 6.92635 5.91281
#
# Compressibility (1/GPa) = 0.02425297
#
# Stress axis : x y z
#
# Youngs Moduli (GPa) = 48.06932 77.00155 107.88456
#
# Poissons Ratio (x) = -0.14596 1.04260
# Poissons Ratio (y) = -0.09112 0.17635
# Poissons Ratio (z) = 0.46454 0.12587
#
# Static dielectric constant tensor:
#      x y z
#    x 1.659090 0.000000 0.000000 
#    y 0.000000 0.664000 0.000000 
#    z 0.000000 0.000000 1.705400 
# 
# From -- ./inp_files/57415.got.cif
#   From: 2010.05.17/outbox.cif.g08.bks.cpg/sg65_29_cif.got.tgz:57415.got - 2010.06.03 17:01:31.
