data_PCOD9494520
_publ_section_title
;
Structure prediction by ZEFSAII (Michael W. Deem and Ramdas Pophale) SiO2 
 PCOD9494520
Probable space group: C M M M
;
_chemical_formula_sum "Si O2"
_cell_formula_units_Z 80
_cell_length_a 27.754693
_cell_length_b 18.796500
_cell_length_c 7.423053
_cell_angle_alpha 90.000000
_cell_angle_beta 90.000000
_cell_angle_gamma 90.000000
_cell_volume 3872.540588
_symmetry_space_group_name_H-M "C M M M"
_symmetry_group_IT_number 65
_symmetry_cell_setting 'orthorhombic'
loop_
_space_group_symop_operation_xyz
x,y,z
-x,-y,z
x,-y,-z
-x,y,-z
-x,-y,-z
x,y,-z
-x,y,z
x,-y,z
1/2+x,1/2+y,z
1/2-x,1/2-y,z
1/2+x,1/2-y,-z
1/2-x,1/2+y,-z
1/2-x,1/2-y,-z
1/2+x,1/2+y,-z
1/2-x,1/2+y,z
1/2+x,1/2-y,z
loop_
_atom_site_type_symbol
_atom_site_label
_atom_site_fract_x
_atom_site_fract_y
_atom_site_fract_z
Si Si1 0.682656 0.373817 0.718596
Si Si2 0.052512 0.766945 0.782052
Si Si3 0.156916 0.282676 0.710272
Si Si4 0.788779 0.421352 0.720175
Si Si5 0.922528 0.923359 0.790631
O O1 0.680748 0.374070 0.500000
O O2 0.677504 0.292017 0.783258
O O3 0.733408 0.406769 0.772126
O O4 0.635351 0.415220 0.781589
O O5 0.099283 0.723382 0.724132
O O6 0.058314 0.848650 0.715626
O O7 0.000000 0.739751 0.727308
O O8 0.054153 0.769010 0.000000
O O9 0.170315 0.281877 0.500000
O O10 0.179026 0.355239 0.784280
O O11 0.790081 0.421723 0.500000
O O12 0.803945 0.500000 0.779442
O O13 0.936450 0.000000 0.711959
O O14 0.937191 0.924410 0.000000
#
# Coordination Sequence:
#
# PCOD9494520 Si02
#       5
#    16  16  16  16  16
#     4   9  16  27  44  65  90 120 149 173 203 248
#     4   9  18  32  48  64  83 111 146 181 219 262
#     4   9  17  29  46  67  89 113 144 181 215 250
#     4   9  16  26  43  67  92 117 145 176 210 251
#     4   9  17  28  42  63  91 118 144 176 211 248
#
# _framework density 20.658273000000001
#
# number of rings (size 3 to 8) (size 9 to 14) (size 15 to 20)
#    0.000    3.000    0.000    1.200    0.000    4.400 
#    0.000    3.000    0.000    7.200    0.000    9.800 
#    0.000    0.000    0.000    0.000    0.000    0.000 
#
# Total GULP energy -223188.785728 kJ/mol
# GULP energy per Si atom -5579.719643 kJ/mol
# Density = 2.061125 g / cm^3
# Si number density = 20.658273 Si / 1000 Ang^3
#
#
#
# Elastic Constant Matrix: (Units=GPa)
#
#
# Indices 1 2 3 4 5 6 
#
# 1 66.9641 37.0898 -11.8256 0.0000 0.0000 0.0000
# 2 37.0898 104.2489 2.1946 0.0000 0.0000 0.0000
# 3 -11.8256 2.1946 66.1334 0.0000 0.0000 0.0000
# 4 0.0000 0.0000 0.0000 1.6778 0.0000 0.0000
# 5 0.0000 0.0000 0.0000 0.0000 15.1316 0.0000
# 6 0.0000 0.0000 0.0000 0.0000 0.0000 -5.5491
#
#
#
# Elastic Compliance Matrix: (Units=1/GPa)
#
#
# Indices 1 2 3 4 5 6 
#
# 1 0.019469 -0.007005 0.003714 0.000000 0.000000 0.000000
# 2 -0.007005 0.012119 -0.001655 0.000000 0.000000 0.000000
# 3 0.003714 -0.001655 0.015840 0.000000 0.000000 0.000000
# 4 0.000000 0.000000 0.000000 0.596029 0.000000 0.000000
# 5 0.000000 0.000000 0.000000 0.000000 0.066087 0.000000
# 6 0.000000 0.000000 0.000000 0.000000 0.000000 -0.180211
#
#
# Mechanical properties :
#
#
# Convention : Reuss Voigt Hill
#
# Bulk Modulus (GPa) = 26.64054 32.47377 29.55715
# Shear Modulus (GPa) = 9.06227 16.24457 12.65342
#
# Velocity S-wave (km/s) = 2.09673 2.80723 2.47758
# Velocity P-wave (km/s) = 4.33423 5.12455 4.74587
#
# Compressibility (1/GPa) = 0.03753678
#
# Stress axis : x y z
#
# Youngs Moduli (GPa) = 51.36358 82.51182 63.13150
#
# Poissons Ratio (x) = 0.57799 -0.23446
# Poissons Ratio (y) = 0.35980 0.10447
# Poissons Ratio (z) = -0.19075 0.13654
#
# Static dielectric constant tensor:
#      x y z
#    x 1.712930 0.000000 0.000000 
#    y 0.000000 1.742840 0.000000 
#    z 0.000000 0.000000 1.808850 
# 
# From -- ./inp_files/9577.got.cif
#   From: 2010.05.17/outbox.cif.g08.bks.cpg/sg65_5_cif.got.tgz:9577.got - 2010.06.03 17:01:31.
