data_PCOD9494076
_publ_section_title
;
Structure prediction by ZEFSAII (Michael W. Deem and Ramdas Pophale) SiO2 
 PCOD9494076
Probable space group: C M M M
;
_chemical_formula_sum "Si O2"
_cell_formula_units_Z 88
_cell_length_a 9.047632
_cell_length_b 16.610085
_cell_length_c 30.302373
_cell_angle_alpha 90.000000
_cell_angle_beta 90.000000
_cell_angle_gamma 90.000000
_cell_volume 4553.899297
_symmetry_space_group_name_H-M "C M M M"
_symmetry_group_IT_number 65
_symmetry_cell_setting 'orthorhombic'
loop_
_space_group_symop_operation_xyz
x,y,z
-x,-y,z
x,-y,-z
-x,y,-z
-x,-y,-z
x,y,-z
-x,y,z
x,-y,z
1/2+x,1/2+y,z
1/2-x,1/2-y,z
1/2+x,1/2-y,-z
1/2-x,1/2+y,-z
1/2-x,1/2-y,-z
1/2+x,1/2+y,-z
1/2-x,1/2+y,z
1/2+x,1/2-y,z
loop_
_atom_site_type_symbol
_atom_site_label
_atom_site_fract_x
_atom_site_fract_y
_atom_site_fract_z
Si Si1 0.180184 0.406103 0.767881
Si Si2 0.174293 0.902301 0.952065
Si Si3 0.170183 0.596994 0.671975
Si Si4 0.176065 0.163005 0.413286
Si Si5 0.826690 0.401658 0.136810
Si Si6 0.331827 0.904365 0.500000
O O1 0.226178 0.500000 0.767785
O O2 0.222144 0.371466 0.720108
O O3 0.229485 0.371881 0.815234
O O4 0.000000 0.405649 0.768346
O O5 0.248264 0.871800 0.907356
O O6 0.000000 0.885786 0.950493
O O7 0.190885 0.000000 0.951888
O O8 0.232543 0.874168 0.000000
O O9 0.165036 0.500000 0.675140
O O10 0.273110 0.619879 0.631576
O O11 0.000000 0.624087 0.663870
O O12 0.250000 0.250000 0.411534
O O13 0.245174 0.121481 0.456341
O O14 0.000000 0.166742 0.416597
O O15 0.813662 0.500000 0.137790
O O16 0.000000 0.383599 0.133546
O O17 0.500000 0.870680 0.500000
O O18 0.342398 0.000000 0.500000
#
# Coordination Sequence:
#
# PCOD9494076 Si02
#       6
#    16  16  16  16  16   8
#     4   7  11  21  38  59  82 109 142 183 231 282
#     4   8  13  19  24  32  52  85 124 167 218 273
#     4   9  17  32  54  77 102 133 168 205 249 301
#     4  12  25  40  58  81 111 142 174 211 250 292
#     4   8  12  18  29  45  64  89 127 174 220 266
#     4  11  24  43  66  89 113 141 172 205 246 295
#
# _framework density 19.324097999999999
#
# number of rings (size 3 to 8) (size 9 to 14) (size 15 to 20)
#    0.000    3.000    0.000    5.455    0.000    3.636 
#    0.000    2.727    0.000    3.273    0.000    0.000 
#    0.000    0.000    0.000    0.000    0.000    0.909 
#
# Total GULP energy -245021.998602 kJ/mol
# GULP energy per Si atom -5568.681786 kJ/mol
# Density = 1.928012 g / cm^3
# Si number density = 19.324098 Si / 1000 Ang^3
#
#
#
# Elastic Constant Matrix: (Units=GPa)
#
#
# Indices 1 2 3 4 5 6 
#
# 1 89.0652 11.2628 83.8559 0.0000 0.0000 0.0000
# 2 11.2628 13.7205 18.8676 0.0000 0.0000 0.0000
# 3 83.8559 18.8676 239.7908 0.0000 0.0000 0.0000
# 4 0.0000 0.0000 0.0000 -22.4545 0.0000 0.0000
# 5 0.0000 0.0000 0.0000 0.0000 -9.7702 0.0000
# 6 0.0000 0.0000 0.0000 0.0000 0.0000 13.2769
#
#
#
# Elastic Compliance Matrix: (Units=1/GPa)
#
#
# Indices 1 2 3 4 5 6 
#
# 1 0.017253 -0.006577 -0.005516 0.000000 0.000000 0.000000
# 2 -0.006577 0.084234 -0.004328 0.000000 0.000000 0.000000
# 3 -0.005516 -0.004328 0.006440 0.000000 0.000000 0.000000
# 4 0.000000 0.000000 0.000000 -0.044534 0.000000 0.000000
# 5 0.000000 0.000000 0.000000 0.000000 -0.102352 0.000000
# 6 0.000000 0.000000 0.000000 0.000000 0.000000 0.075319
#
#
# Mechanical properties :
#
#
# Convention : Reuss Voigt Hill
#
# Bulk Modulus (GPa) = 13.31830 63.39436 38.35633
# Shear Modulus (GPa) = 53.06278 11.44979 32.25628
#
# Velocity S-wave (km/s) = 5.24585 2.43680 4.09005
# Velocity P-wave (km/s) = 6.60296 6.38705 6.49590
#
# Compressibility (1/GPa) = 0.07508468
#
# Stress axis : x y z
#
# Youngs Moduli (GPa) = 57.96208 11.87170 155.28603
#
# Poissons Ratio (x) = 0.07808 0.85653
# Poissons Ratio (y) = 0.38123 0.67204
# Poissons Ratio (z) = 0.31971 0.05138
#
# Static dielectric constant tensor:
#      x y z
#    x 1.652060 0.000000 0.000000 
#    y 0.000000 1.696430 0.000000 
#    z 0.000000 0.000000 1.525270 
# 
# From -- ./inp_files/76690.got.cif
#   From: 2010.05.17/outbox.cif.g08.bks.cpg/sg65_39_cif.got.tgz:76690.got - 2010.06.03 17:01:31.
