data_PCOD9494450
_publ_section_title
;
Structure prediction by ZEFSAII (Michael W. Deem and Ramdas Pophale) SiO2 
 PCOD9494450
Probable space group: C M M M
;
_chemical_formula_sum "Si O2"
_cell_formula_units_Z 80
_cell_length_a 27.387582
_cell_length_b 19.516187
_cell_length_c 7.564656
_cell_angle_alpha 90.000000
_cell_angle_beta 90.000000
_cell_angle_gamma 90.000000
_cell_volume 4043.317496
_symmetry_space_group_name_H-M "C M M M"
_symmetry_group_IT_number 65
_symmetry_cell_setting 'orthorhombic'
loop_
_space_group_symop_operation_xyz
x,y,z
-x,-y,z
x,-y,-z
-x,y,-z
-x,-y,-z
x,y,-z
-x,y,z
x,-y,z
1/2+x,1/2+y,z
1/2-x,1/2-y,z
1/2+x,1/2-y,-z
1/2-x,1/2+y,-z
1/2-x,1/2-y,-z
1/2+x,1/2+y,-z
1/2-x,1/2+y,z
1/2+x,1/2-y,z
loop_
_atom_site_type_symbol
_atom_site_label
_atom_site_fract_x
_atom_site_fract_y
_atom_site_fract_z
Si Si1 0.195215 0.421672 0.787568
Si Si2 0.500000 0.178691 0.784331
Si Si3 0.304393 0.578142 0.288137
Si Si4 0.893735 0.330723 0.788803
Si Si5 0.000000 0.839464 0.295436
Si Si6 0.106053 0.169308 0.286275
O O1 0.191687 0.500000 0.720993
O O2 0.249772 0.395731 0.748497
O O3 0.151604 0.374265 0.718217
O O4 0.191161 0.424273 0.000000
O O5 0.551879 0.147831 0.726826
O O6 0.500000 0.256581 0.714584
O O7 0.500000 0.181928 0.000000
O O8 0.309404 0.575146 0.500000
O O9 0.307615 0.500000 0.219989
O O10 0.347995 0.625767 0.221144
O O11 0.888240 0.249641 0.755615
O O12 0.893896 0.339859 0.000000
O O13 0.053190 0.857443 0.218991
O O14 0.000000 0.861852 0.500000
O O15 0.104296 0.164561 0.500000
#
# Coordination Sequence:
#
# PCOD9494450 Si02
#       6
#    16   8  16  16   8  16
#     4   9  18  32  47  63  86 116 147 178 214 256
#     4   8  14  26  43  63  87 113 139 170 212 256
#     4   9  18  32  47  63  86 116 147 178 214 256
#     4   9  17  29  46  67  89 113 143 178 214 254
#     4   8  14  26  43  63  87 113 139 170 212 256
#     4   9  17  29  46  67  89 113 143 178 214 254
#
# _framework density 19.785734000000001
#
# number of rings (size 3 to 8) (size 9 to 14) (size 15 to 20)
#    0.000    3.200    0.000    0.000    0.000    2.400 
#    0.000    5.000    0.000    6.000    0.000    0.000 
#    0.000   22.400    0.000    0.000    0.000    0.000 
#
# Total GULP energy -222777.234046 kJ/mol
# GULP energy per Si atom -5569.430851 kJ/mol
# Density = 1.974070 g / cm^3
# Si number density = 19.785734 Si / 1000 Ang^3
#
#
#
# Elastic Constant Matrix: (Units=GPa)
#
#
# Indices 1 2 3 4 5 6 
#
# 1 260.1677 92.9309 5.1298 0.0000 0.0000 0.0000
# 2 92.9309 52.3588 -1.3027 0.0000 0.0000 0.0000
# 3 5.1298 -1.3027 47.5986 0.0000 0.0000 0.0000
# 4 0.0000 0.0000 0.0000 14.0139 0.0000 0.0000
# 5 0.0000 0.0000 0.0000 0.0000 15.8724 0.0000
# 6 0.0000 0.0000 0.0000 0.0000 0.0000 -41.2921
#
#
#
# Elastic Compliance Matrix: (Units=1/GPa)
#
#
# Indices 1 2 3 4 5 6 
#
# 1 0.010631 -0.018911 -0.001663 0.000000 0.000000 0.000000
# 2 -0.018911 0.052750 0.003482 0.000000 0.000000 0.000000
# 3 -0.001663 0.003482 0.021284 0.000000 0.000000 0.000000
# 4 0.000000 0.000000 0.000000 0.071358 0.000000 0.000000
# 5 0.000000 0.000000 0.000000 0.000000 0.063002 0.000000
# 6 0.000000 0.000000 0.000000 0.000000 0.000000 -0.024218
#
#
# Mechanical properties :
#
#
# Convention : Reuss Voigt Hill
#
# Bulk Modulus (GPa) = 19.80975 61.51568 40.66272
# Shear Modulus (GPa) = 20.34021 15.27665 17.80843
#
# Velocity S-wave (km/s) = 3.20976 2.78169 3.00336
# Velocity P-wave (km/s) = 4.87551 6.44015 5.71166
#
# Compressibility (1/GPa) = 0.05048018
#
# Stress axis : x y z
#
# Youngs Moduli (GPa) = 94.06177 18.95735 46.98465
#
# Poissons Ratio (x) = 0.35850 0.07815
# Poissons Ratio (y) = 1.77878 -0.16359
# Poissons Ratio (z) = 0.15645 -0.06600
#
# Static dielectric constant tensor:
#      x y z
#    x 1.748770 0.000000 0.000000 
#    y 0.000000 1.658540 0.000000 
#    z 0.000000 0.000000 0.769510 
# 
# From -- ./inp_files/9706.got.cif
#   From: 2010.05.17/outbox.cif.g08.bks.cpg/sg65_5_cif.got.tgz:9706.got - 2010.06.03 17:01:31.
