data_PCOD9494545
_publ_section_title
;
Structure prediction by ZEFSAII (Michael W. Deem and Ramdas Pophale) SiO2 
 PCOD9494545
Probable space group: C M M M
;
_chemical_formula_sum "Si O2"
_cell_formula_units_Z 88
_cell_length_a 24.003905
_cell_length_b 22.615031
_cell_length_c 7.628730
_cell_angle_alpha 90.000000
_cell_angle_beta 90.000000
_cell_angle_gamma 90.000000
_cell_volume 4141.248877
_symmetry_space_group_name_H-M "C M M M"
_symmetry_group_IT_number 65
_symmetry_cell_setting 'orthorhombic'
loop_
_space_group_symop_operation_xyz
x,y,z
-x,-y,z
x,-y,-z
-x,y,-z
-x,-y,-z
x,y,-z
-x,y,z
x,-y,z
1/2+x,1/2+y,z
1/2-x,1/2-y,z
1/2+x,1/2-y,-z
1/2-x,1/2+y,-z
1/2-x,1/2-y,-z
1/2+x,1/2+y,-z
1/2-x,1/2+y,z
1/2+x,1/2-y,z
loop_
_atom_site_type_symbol
_atom_site_label
_atom_site_fract_x
_atom_site_fract_y
_atom_site_fract_z
Si Si1 0.060389 0.907486 0.286827
Si Si2 0.065364 0.351066 0.696305
Si Si3 0.311954 0.564506 0.207431
Si Si4 0.931541 0.432397 0.000000
Si Si5 0.583688 0.721843 0.296470
Si Si6 0.790236 0.195975 0.786742
O O1 0.062170 0.908897 0.500000
O O2 0.120421 0.931652 0.228957
O O3 0.060251 0.839195 0.224846
O O4 0.000000 0.933265 0.234897
O O5 0.089931 0.351476 0.500000
O O6 0.089579 0.398379 0.828942
O O7 0.068665 0.285509 0.777037
O O8 0.000000 0.364547 0.679247
O O9 0.294608 0.500000 0.280434
O O10 0.285153 0.626787 0.272680
O O11 0.300769 0.563572 0.000000
O O12 0.915316 0.500000 0.000000
O O13 0.000000 0.429815 0.000000
O O14 0.566029 0.724360 0.500000
O O15 0.649392 0.714689 0.280345
O O16 0.750000 0.250000 0.732682
O O17 0.790146 0.194889 0.000000
#
# Coordination Sequence:
#
# PCOD9494545 Si02
#       6
#    16  16  16   8  16  16
#     4   9  17  29  45  67  98 132 164 197 231 275
#     4   9  17  29  46  69  97 129 162 199 246 297
#     4   9  18  32  48  67  94 126 161 200 243 293
#     4   9  18  30  44  66  93 124 165 203 238 291
#     4   9  17  29  47  70  94 123 156 197 246 292
#     4   9  18  32  50  71  91 119 158 205 252 297
#
# _framework density 21.249628999999999
#
# number of rings (size 3 to 8) (size 9 to 14) (size 15 to 20)
#    0.000    3.000    0.000    0.545    1.273    4.000 
#    0.000    3.636    0.000    1.091    0.000    0.000 
#    0.000    0.000    0.000    0.000    0.000    0.000 
#
# Total GULP energy -244967.999990 kJ/mol
# GULP energy per Si atom -5567.454545 kJ/mol
# Density = 2.120126 g / cm^3
# Si number density = 21.249629 Si / 1000 Ang^3
#
#
#
# Elastic Constant Matrix: (Units=GPa)
#
#
# Indices 1 2 3 4 5 6 
#
# 1 55.5053 31.0878 -5.7675 0.0000 0.0000 0.0000
# 2 31.0878 195.4333 40.3671 0.0000 0.0000 0.0000
# 3 -5.7675 40.3671 56.8314 0.0000 0.0000 0.0000
# 4 0.0000 0.0000 0.0000 -0.8823 0.0000 0.0000
# 5 0.0000 0.0000 0.0000 0.0000 11.6901 0.0000
# 6 0.0000 0.0000 0.0000 0.0000 0.0000 18.1506
#
#
#
# Elastic Compliance Matrix: (Units=1/GPa)
#
#
# Indices 1 2 3 4 5 6 
#
# 1 0.021054 -0.004442 0.005292 0.000000 0.000000 0.000000
# 2 -0.004442 0.006934 -0.005376 0.000000 0.000000 0.000000
# 3 0.005292 -0.005376 0.021951 0.000000 0.000000 0.000000
# 4 0.000000 0.000000 0.000000 -1.133344 0.000000 0.000000
# 5 0.000000 0.000000 0.000000 0.000000 0.085543 0.000000
# 6 0.000000 0.000000 0.000000 0.000000 0.000000 0.055095
#
#
# Mechanical properties :
#
#
# Convention : Reuss Voigt Hill
#
# Bulk Modulus (GPa) = 24.45756 48.79386 36.62571
# Shear Modulus (GPa) = -5.43428 21.93051 8.24812
#
# Velocity S-wave (km/s) = -1.60091 3.21603 1.97230
# Velocity P-wave (km/s) = 2.84911 6.06651 4.73919
#
# Compressibility (1/GPa) = 0.04088716
#
# Stress axis : x y z
#
# Youngs Moduli (GPa) = 47.49652 144.21987 45.55516
#
# Poissons Ratio (x) = 0.64065 -0.24107
# Poissons Ratio (y) = 0.21099 0.24490
# Poissons Ratio (z) = -0.25135 0.77531
#
# Static dielectric constant tensor:
#      x y z
#    x 1.747370 0.000000 0.000000 
#    y 0.000000 1.813340 0.000000 
#    z 0.000000 0.000000 1.383510 
# 
# From -- ./inp_files/13952.got.cif
#   From: 2010.05.17/outbox.cif.g08.bks.cpg/sg65_7_cif.got.tgz:13952.got - 2010.06.03 17:01:31.
