data_PCOD9494307
_publ_section_title
;
Structure prediction by ZEFSAII (Michael W. Deem and Ramdas Pophale) SiO2 
 PCOD9494307
Probable space group: C M M M
;
_chemical_formula_sum "Si O2"
_cell_formula_units_Z 104
_cell_length_a 13.766135
_cell_length_b 24.684637
_cell_length_c 16.333789
_cell_angle_alpha 90.000000
_cell_angle_beta 90.000000
_cell_angle_gamma 90.000000
_cell_volume 5550.418249
_symmetry_space_group_name_H-M "C M M M"
_symmetry_group_IT_number 65
_symmetry_cell_setting 'orthorhombic'
loop_
_space_group_symop_operation_xyz
x,y,z
-x,-y,z
x,-y,-z
-x,y,-z
-x,-y,-z
x,y,-z
-x,y,z
x,-y,z
1/2+x,1/2+y,z
1/2-x,1/2-y,z
1/2+x,1/2-y,-z
1/2-x,1/2+y,-z
1/2-x,1/2-y,-z
1/2+x,1/2+y,-z
1/2-x,1/2+y,z
1/2+x,1/2-y,z
loop_
_atom_site_type_symbol
_atom_site_label
_atom_site_fract_x
_atom_site_fract_y
_atom_site_fract_z
Si Si1 0.192829 0.934759 0.911596
Si Si2 0.111213 0.435380 0.167554
Si Si3 0.617693 0.767092 0.593245
Si Si4 0.383143 0.562267 0.735885
Si Si5 0.118434 0.856987 0.593179
Si Si6 0.117913 0.623035 0.665150
Si Si7 0.381297 0.061931 0.500000
O O1 0.307713 0.924328 0.900252
O O2 0.143255 0.917148 0.826943
O O3 0.179088 0.000000 0.912858
O O4 0.158509 0.913796 0.000000
O O5 0.111731 0.500000 0.182627
O O6 0.144206 0.405893 0.250656
O O7 0.000000 0.420118 0.147259
O O8 0.646546 0.781585 0.500000
O O9 0.500000 0.766664 0.593173
O O10 0.647753 0.705412 0.609166
O O11 0.646960 0.814443 0.654764
O O12 0.500000 0.560075 0.730883
O O13 0.346837 0.500000 0.726316
O O14 0.348995 0.601876 0.663551
O O15 0.146962 0.871428 0.500000
O O16 0.000000 0.857605 0.593980
O O17 0.148474 0.591845 0.583036
O O18 0.000000 0.621364 0.664642
O O19 0.500000 0.061844 0.500000
O O20 0.348156 0.000000 0.500000
#
# Coordination Sequence:
#
# PCOD9494307 Si02
#       7
#    16  16  16  16  16  16   8
#     4   9  18  32  49  68  92 121 149 184 233 282
#     4   9  17  28  43  65  92 120 153 191 227 267
#     4   8  12  20  35  58  87 118 157 196 221 255
#     4   9  17  29  47  72  97 118 145 183 228 283
#     4   8  14  24  41  66  94 123 152 184 224 267
#     4   9  14  21  35  57  85 120 157 190 223 258
#     4   9  14  18  28  50  82 119 156 190 226 265
#
# _framework density 18.737325999999999
#
# number of rings (size 3 to 8) (size 9 to 14) (size 15 to 20)
#    0.000    3.308    0.769    1.385    0.000    2.769 
#    0.000    4.615    1.692    0.923    0.000    4.308 
#    0.000    6.154    0.000    0.000    0.000    0.000 
#
# Total GULP energy -289967.692724 kJ/mol
# GULP energy per Si atom -5576.301783 kJ/mol
# Density = 1.869468 g / cm^3
# Si number density = 18.737326 Si / 1000 Ang^3
#
#
#
# Elastic Constant Matrix: (Units=GPa)
#
#
# Indices 1 2 3 4 5 6 
#
# 1 40.3256 0.8116 -0.0029 0.0000 0.0000 0.0000
# 2 0.8116 73.6756 61.3561 0.0000 0.0000 0.0000
# 3 -0.0029 61.3561 120.1085 0.0000 0.0000 0.0000
# 4 0.0000 0.0000 0.0000 9.8443 0.0000 0.0000
# 5 0.0000 0.0000 0.0000 0.0000 11.8703 0.0000
# 6 0.0000 0.0000 0.0000 0.0000 0.0000 -0.5985
#
#
#
# Elastic Compliance Matrix: (Units=1/GPa)
#
#
# Indices 1 2 3 4 5 6 
#
# 1 0.024808 -0.000476 0.000244 0.000000 0.000000 0.000000
# 2 -0.000476 0.023632 -0.012072 0.000000 0.000000 0.000000
# 3 0.000244 -0.012072 0.014493 0.000000 0.000000 0.000000
# 4 0.000000 0.000000 0.000000 0.101581 0.000000 0.000000
# 5 0.000000 0.000000 0.000000 0.000000 0.084244 0.000000
# 6 0.000000 0.000000 0.000000 0.000000 0.000000 -1.670806
#
#
# Mechanical properties :
#
#
# Convention : Reuss Voigt Hill
#
# Bulk Modulus (GPa) = 26.09391 39.82660 32.96026
# Shear Modulus (GPa) = -3.61098 15.68620 6.03761
#
# Velocity S-wave (km/s) = -1.38973 2.89652 1.79701
# Velocity P-wave (km/s) = 3.37361 5.69981 4.68343
#
# Compressibility (1/GPa) = 0.03832312
#
# Stress axis : x y z
#
# Youngs Moduli (GPa) = 40.30998 42.31611 69.00050
#
# Poissons Ratio (x) = 0.02016 -0.01684
# Poissons Ratio (y) = 0.01921 0.83297
# Poissons Ratio (z) = -0.00984 0.51084
#
# Static dielectric constant tensor:
#      x y z
#    x 1.741360 0.000000 0.000000 
#    y 0.000000 1.639230 0.000000 
#    z 0.000000 0.000000 1.628200 
# 
# From -- ./inp_files/43114.got.cif
#   From: 2010.05.17/outbox.cif.g08.bks.cpg/sg65_22_cif.got.tgz:43114.got - 2010.06.03 17:01:31.
