data_PCOD9494054
_publ_section_title
;
Structure prediction by ZEFSAII (Michael W. Deem and Ramdas Pophale) SiO2 
 PCOD9494054
Probable space group: C M M M
;
_chemical_formula_sum "Si O2"
_cell_formula_units_Z 96
_cell_length_a 17.780326
_cell_length_b 14.718949
_cell_length_c 20.109303
_cell_angle_alpha 90.000000
_cell_angle_beta 90.000000
_cell_angle_gamma 90.000000
_cell_volume 5262.759670
_symmetry_space_group_name_H-M "C M M M"
_symmetry_group_IT_number 65
_symmetry_cell_setting 'orthorhombic'
loop_
_space_group_symop_operation_xyz
x,y,z
-x,-y,z
x,-y,-z
-x,y,-z
-x,-y,-z
x,y,-z
-x,y,z
x,-y,z
1/2+x,1/2+y,z
1/2-x,1/2-y,z
1/2+x,1/2-y,-z
1/2-x,1/2+y,-z
1/2-x,1/2-y,-z
1/2+x,1/2+y,-z
1/2-x,1/2+y,z
1/2+x,1/2-y,z
loop_
_atom_site_type_symbol
_atom_site_label
_atom_site_fract_x
_atom_site_fract_y
_atom_site_fract_z
Si Si1 0.336386 0.278221 0.311995
Si Si2 0.667318 0.719515 0.924538
Si Si3 0.089906 0.108876 0.808506
Si Si4 0.409752 0.899731 0.886949
Si Si5 0.587039 0.607246 0.420823
Si Si6 0.409883 0.900359 0.731289
O O1 0.250000 0.250000 0.303798
O O2 0.368530 0.340159 0.251981
O O3 0.356047 0.332846 0.378602
O O4 0.380288 0.183211 0.309982
O O5 0.750000 0.750000 0.900561
O O6 0.626624 0.649721 0.875375
O O7 0.621235 0.813375 0.924397
O O8 0.673689 0.684270 0.000000
O O9 0.000000 0.128948 0.806626
O O10 0.099118 0.000000 0.804423
O O11 0.500000 0.899506 0.890507
O O12 0.388437 0.889036 0.809034
O O13 0.383664 0.000000 0.909266
O O14 0.594386 0.620319 0.500000
O O15 0.500000 0.629024 0.402194
O O16 0.597797 0.500000 0.407020
O O17 0.500000 0.900555 0.729819
O O18 0.382863 0.000000 0.709411
#
# Coordination Sequence:
#
# PCOD9494054 Si02
#       6
#    16  16  16  16  16  16
#     4  12  23  35  57  89 123 153 185 236 295 347
#     4  11  24  40  56  81 115 149 185 234 299 361
#     4  11  24  41  61  84 111 150 200 246 288 342
#     4   9  18  34  57  81 104 137 184 234 279 329
#     4   9  19  38  64  91 120 159 204 243 279 326
#     4   9  18  33  54  79 108 144 186 230 276 332
#
# _framework density 18.241381000000001
#
# number of rings (size 3 to 8) (size 9 to 14) (size 15 to 20)
#    0.000    1.833    1.667    4.500    0.000    5.667 
#    0.000    3.333    0.000    0.500    0.000    2.333 
#    0.000    0.000    0.000    0.000    0.000    0.000 
#
# Total GULP energy -267946.287388 kJ/mol
# GULP energy per Si atom -5582.214321 kJ/mol
# Density = 1.819986 g / cm^3
# Si number density = 18.241381 Si / 1000 Ang^3
#
#
#
# Elastic Constant Matrix: (Units=GPa)
#
#
# Indices 1 2 3 4 5 6 
#
# 1 94.1068 54.2904 44.9511 0.0000 0.0000 0.0000
# 2 54.2904 110.2948 47.0965 0.0000 0.0000 0.0000
# 3 44.9511 47.0965 59.4278 0.0000 0.0000 0.0000
# 4 0.0000 0.0000 0.0000 4.9793 0.0000 0.0000
# 5 0.0000 0.0000 0.0000 0.0000 24.2438 0.0000
# 6 0.0000 0.0000 0.0000 0.0000 0.0000 -17.3933
#
#
#
# Elastic Compliance Matrix: (Units=1/GPa)
#
#
# Indices 1 2 3 4 5 6 
#
# 1 0.018073 -0.004623 -0.010007 0.000000 0.000000 0.000000
# 2 -0.004623 0.014887 -0.008301 0.000000 0.000000 0.000000
# 3 -0.010007 -0.008301 0.030974 0.000000 0.000000 0.000000
# 4 0.000000 0.000000 0.000000 0.200830 0.000000 0.000000
# 5 0.000000 0.000000 0.000000 0.000000 0.041248 0.000000
# 6 0.000000 0.000000 0.000000 0.000000 0.000000 -0.057493
#
#
# Mechanical properties :
#
#
# Convention : Reuss Voigt Hill
#
# Bulk Modulus (GPa) = 55.33049 61.83392 58.58221
# Shear Modulus (GPa) = 16.64426 10.19873 13.42150
#
# Velocity S-wave (km/s) = 3.02395 2.36709 2.71545
# Velocity P-wave (km/s) = 6.52615 6.43755 6.48200
#
# Compressibility (1/GPa) = 0.01807322
#
# Stress axis : x y z
#
# Youngs Moduli (GPa) = 55.33065 67.17368 32.28469
#
# Poissons Ratio (x) = 0.31056 0.32306
# Poissons Ratio (y) = 0.25581 0.26799
# Poissons Ratio (z) = 0.55367 0.55759
#
# Static dielectric constant tensor:
#      x y z
#    x 1.593940 0.000000 0.000000 
#    y 0.000000 1.625350 0.000000 
#    z 0.000000 0.000000 1.640300 
# 
# From -- ./inp_files/62615.got.cif
#   From: 2010.05.17/outbox.cif.g08.bks.cpg/sg65_32_cif.got.tgz:62615.got - 2010.06.03 17:01:31.
