data_PCOD9494995
_publ_section_title
;
Structure prediction by ZEFSAII (Michael W. Deem and Ramdas Pophale) SiO2 
 PCOD9494995
Probable space group: C C C M
;
_chemical_formula_sum "Si O2"
_cell_formula_units_Z 96
_cell_length_a 7.178016
_cell_length_b 25.069563
_cell_length_c 21.476091
_cell_angle_alpha 90.000000
_cell_angle_beta 90.000000
_cell_angle_gamma 90.000000
_cell_volume 3864.616655
_symmetry_space_group_name_H-M "C C C M"
_symmetry_group_IT_number 66
_symmetry_cell_setting 'orthorhombic'
loop_
_space_group_symop_operation_xyz
x,y,z
-x,-y,z
x,-y,1/2-z
-x,y,1/2-z
-x,-y,-z
x,y,-z
-x,y,1/2+z
x,-y,1/2+z
1/2+x,1/2+y,z
1/2-x,1/2-y,z
1/2+x,1/2-y,1/2-z
1/2-x,1/2+y,1/2-z
1/2-x,1/2-y,-z
1/2+x,1/2+y,-z
1/2-x,1/2+y,1/2+z
1/2+x,1/2-y,1/2+z
loop_
_atom_site_type_symbol
_atom_site_label
_atom_site_fract_x
_atom_site_fract_y
_atom_site_fract_z
Si Si1 0.710761 0.022310 0.930969
Si Si2 0.206963 0.528118 0.687186
Si Si3 0.709404 0.815311 0.000000
Si Si4 0.265797 0.811777 0.000000
Si Si5 0.776668 0.640093 0.377624
Si Si6 0.202485 0.648727 0.636614
Si Si7 0.779093 0.690565 0.741760
O O1 0.702956 0.080148 0.900456
O O2 0.500000 0.000000 0.938054
O O3 0.803511 0.987518 0.877608
O O4 0.792418 0.023655 0.000000
O O5 0.285106 0.500000 0.750000
O O6 0.197330 0.591902 0.675367
O O7 0.000000 0.500000 0.685399
O O8 0.750000 0.750000 0.000000
O O9 0.772924 0.843736 0.934643
O O10 0.485462 0.825783 0.000000
O O11 0.250000 0.750000 0.000000
O O12 0.180430 0.832028 0.064276
O O13 0.700009 0.648883 0.308622
O O14 0.985060 0.663366 0.371950
O O15 0.297514 0.686470 0.687947
O O16 0.750000 0.750000 0.716989
O O17 0.000000 0.681225 0.750000
#
# Coordination Sequence:
#
# PCOD9494995 Si02
#       7
#    16  16   8   8  16  16  16
#     4  10  17  24  42  66 104 134 155 190 261 325
#     4  10  18  25  42  69 105 134 159 196 266 332
#     4  10  22  36  52  70 102 144 186 218 256 304
#     4  10  20  32  50  72 102 136 178 222 256 294
#     4  10  17  30  45  71 100 139 162 207 261 312
#     4  10  19  30  48  70 101 142 165 209 260 316
#     4  10  21  34  51  70 100 137 177 218 255 298
#
# _framework density 24.840757
#
# number of rings (size 3 to 8) (size 9 to 14) (size 15 to 20)
#    0.000    2.000    4.167    2.000    5.833    0.000 
#    0.000    0.000    0.000    0.000    0.000    0.000 
#    0.000   14.000    0.000    0.000    0.000    0.000 
#
# Total GULP energy -267234.959745 kJ/mol
# GULP energy per Si atom -5567.394995 kJ/mol
# Density = 2.478422 g / cm^3
# Si number density = 24.840757 Si / 1000 Ang^3
#
#
#
# Elastic Constant Matrix: (Units=GPa)
#
#
# Indices 1 2 3 4 5 6 
#
# 1 94.6206 -17.2037 -2.5733 0.0000 0.0000 0.0000
# 2 -17.2037 104.1765 53.6332 0.0000 0.0000 0.0000
# 3 -2.5733 53.6332 267.5478 0.0000 0.0000 0.0000
# 4 0.0000 0.0000 0.0000 45.8043 0.0000 0.0000
# 5 0.0000 0.0000 0.0000 0.0000 -29.5067 0.0000
# 6 0.0000 0.0000 0.0000 0.0000 0.0000 11.8573
#
#
#
# Elastic Compliance Matrix: (Units=1/GPa)
#
#
# Indices 1 2 3 4 5 6 
#
# 1 0.010915 0.001950 -0.000286 0.000000 0.000000 0.000000
# 2 0.001950 0.011052 -0.002197 0.000000 0.000000 0.000000
# 3 -0.000286 -0.002197 0.004175 0.000000 0.000000 0.000000
# 4 0.000000 0.000000 0.000000 0.021832 0.000000 0.000000
# 5 0.000000 0.000000 0.000000 0.000000 -0.033891 0.000000
# 6 0.000000 0.000000 0.000000 0.000000 0.000000 0.084336
#
#
# Mechanical properties :
#
#
# Convention : Reuss Voigt Hill
#
# Bulk Modulus (GPa) = 39.87763 59.33971 49.60867
# Shear Modulus (GPa) = 46.36290 34.46354 40.41322
#
# Velocity S-wave (km/s) = 4.32488 3.72879 4.03785
# Velocity P-wave (km/s) = 6.40528 6.51755 6.46166
#
# Compressibility (1/GPa) = 0.02507671
#
# Stress axis : x y z
#
# Youngs Moduli (GPa) = 91.61500 90.48110 239.50557
#
# Poissons Ratio (x) = -0.17641 0.06846
# Poissons Ratio (y) = -0.17862 0.52614
# Poissons Ratio (z) = 0.02619 0.19877
#
# Static dielectric constant tensor:
#      x y z
#    x 1.558040 0.000000 0.000000 
#    y 0.000000 1.568450 0.000000 
#    z 0.000000 0.000000 2.079010 
# 
# From -- ./inp_files/48853.got.cif
#   From: 2010.05.17/outbox.cif.g08.bks.cpg/sg66_25_cif.got.tgz:48853.got - 2010.06.03 17:51:23.
