data_PCOD9494682
_publ_section_title
;
Structure prediction by ZEFSAII (Michael W. Deem and Ramdas Pophale) SiO2 
 PCOD9494682
Probable space group: C M M M
;
_chemical_formula_sum "Si O2"
_cell_formula_units_Z 60
_cell_length_a 27.000000
_cell_length_b 9.000000
_cell_length_c 27.000000
_cell_angle_alpha 90.000000
_cell_angle_beta 90.000000
_cell_angle_gamma 90.000000
_cell_volume 6561.000000
_symmetry_space_group_name_H-M "C M M M"
_symmetry_group_IT_number 65
_symmetry_cell_setting 'orthorhombic'
loop_
_space_group_symop_operation_xyz
x,y,z
-x,-y,z
x,-y,-z
-x,y,-z
-x,-y,-z
x,y,-z
-x,y,z
x,-y,z
1/2+x,1/2+y,z
1/2-x,1/2-y,z
1/2+x,1/2-y,-z
1/2-x,1/2+y,-z
1/2-x,1/2-y,-z
1/2+x,1/2+y,-z
1/2-x,1/2+y,z
1/2+x,1/2-y,z
loop_
_atom_site_type_symbol
_atom_site_label
_atom_site_fract_x
_atom_site_fract_y
_atom_site_fract_z
Si Si1 0.945749 0.678688 0.749158
Si Si2 0.595283 0.325032 0.846073
Si Si3 0.201446 0.824600 0.201049
Si Si4 0.696944 0.321454 0.500000
Si Si5 0.059355 0.675983 0.944554
Si Si6 0.353951 0.676049 0.602558
Si Si7 0.941623 0.326898 0.558036
Si Si8 0.658338 0.177652 0.702779
O O1 0.945064 0.500000 0.751975
O O2 0.936490 0.742581 0.803920
O O3 0.898574 0.721765 0.716151
O O4 0.000000 0.725340 0.730757
O O5 0.585091 0.500000 0.843213
O O6 0.652429 0.299758 0.831355
O O7 0.583747 0.263854 0.900044
O O8 0.250000 0.750000 0.178818
O O9 0.190886 0.748685 0.253979
O O10 0.208409 0.000000 0.207488
O O11 0.699314 0.500000 0.500000
O O12 0.750000 0.250000 0.500000
O O13 0.670172 0.276874 0.550573
O O14 0.069278 0.500000 0.939334
O O15 0.000000 0.694914 0.941408
O O16 0.074821 0.722071 0.000000
O O17 0.349658 0.500000 0.608785
O O18 0.410485 0.726001 0.594631
O O19 0.330393 0.758520 0.649023
O O20 0.933643 0.287205 0.500000
O O21 0.927087 0.500000 0.564413
O O22 0.000000 0.316371 0.567056
O O23 0.662441 0.000000 0.703747
#
# Coordination Sequence:
#
# PCOD9494682 Si02
#       8
#    16  16  16   8  16  16  16  16
#     4   9  18  33  52  74 104 142 180 214 250 302
#     4  10  20  32  50  79 110 139 176 224 273 317
#     4  10  21  38  58  80 105 135 174 223 274 327
#     4  10  24  42  59  78  99 127 164 205 251 308
#     4   9  18  32  50  75 110 152 193 226 258 305
#     4  11  22  38  56  79 109 137 168 211 260 313
#     4   9  18  33  54  79 104 134 173 210 246 298
#     4  10  21  36  55  80 107 139 174 212 260 311
#
# _framework density 9.1449470000000002
#
# number of rings (size 3 to 8) (size 9 to 14) (size 15 to 20)
#    0.000    2.267    0.667    2.800    0.000    6.933 
#    0.000    4.000    0.000    0.400    0.000    0.000 
#    0.000    0.000    0.000    0.000    0.000    0.000 
#
# Total GULP energy -334810.250907 kJ/mol
# GULP energy per Si atom -5580.170848 kJ/mol
# Density = 0.912413 g / cm^3
# Si number density = 9.144947 Si / 1000 Ang^3
#
#
#
# Elastic Constant Matrix: (Units=GPa)
#
#
# Indices 1 2 3 4 5 6 
#
# 1 46.6196 20.1200 5.7460 0.0000 0.0000 0.0000
# 2 20.1200 16.4748 21.4978 0.0000 0.0000 0.0000
# 3 5.7460 21.4978 83.1808 0.0000 0.0000 0.0000
# 4 0.0000 0.0000 0.0000 18.5244 0.0000 0.0000
# 5 0.0000 0.0000 0.0000 0.0000 0.6877 0.0000
# 6 0.0000 0.0000 0.0000 0.0000 0.0000 26.6347
#
#
#
# Elastic Compliance Matrix: (Units=1/GPa)
#
#
# Indices 1 2 3 4 5 6 
#
# 1 0.069355 -0.118368 0.025801 0.000000 0.000000 0.000000
# 2 -0.118368 0.293602 -0.067704 0.000000 0.000000 0.000000
# 3 0.025801 -0.067704 0.027737 0.000000 0.000000 0.000000
# 4 0.000000 0.000000 0.000000 0.053983 0.000000 0.000000
# 5 0.000000 0.000000 0.000000 0.000000 1.454093 0.000000
# 6 0.000000 0.000000 0.000000 0.000000 0.000000 0.037545
#
#
# Mechanical properties :
#
#
# Convention : Reuss Voigt Hill
#
# Bulk Modulus (GPa) = 14.25448 26.77808 20.51628
# Shear Modulus (GPa) = 2.19275 15.76347 8.97811
#
# Velocity S-wave (km/s) = 1.09612 2.93894 2.21798
# Velocity P-wave (km/s) = 3.06799 5.11754 4.21911
#
# Compressibility (1/GPa) = 0.07015338
#
# Stress axis : x y z
#
# Youngs Moduli (GPa) = 14.41854 3.40597 36.05232
#
# Poissons Ratio (x) = 0.40316 -0.93018
# Poissons Ratio (y) = 1.70669 2.44087
# Poissons Ratio (z) = -0.37201 0.23060
#
# Static dielectric constant tensor:
#      x y z
#    x 1.659940 0.000000 0.000000 
#    y 0.000000 1.614750 0.000000 
#    z 0.000000 0.000000 1.614750 
# 
# From -- ./inp_files/76101.got.cif
#   From: 2010.05.17/outbox.ucp.g08.bks.cvg/sg65_39_cif.got.tgz:76101.got - 2010.06.11 16:39:57.
