data_PCOD9494032
_publ_section_title
;
Structure prediction by ZEFSAII (Michael W. Deem and Ramdas Pophale) SiO2 
 PCOD9494032
Probable space group: C M M M
;
_chemical_formula_sum "Si O2"
_cell_formula_units_Z 80
_cell_length_a 21.419432
_cell_length_b 8.081562
_cell_length_c 24.942327
_cell_angle_alpha 90.000000
_cell_angle_beta 90.000000
_cell_angle_gamma 90.000000
_cell_volume 4317.578354
_symmetry_space_group_name_H-M "C M M M"
_symmetry_group_IT_number 65
_symmetry_cell_setting 'orthorhombic'
loop_
_space_group_symop_operation_xyz
x,y,z
-x,-y,z
x,-y,-z
-x,y,-z
-x,-y,-z
x,y,-z
-x,y,z
x,-y,z
1/2+x,1/2+y,z
1/2-x,1/2-y,z
1/2+x,1/2-y,-z
1/2-x,1/2+y,-z
1/2-x,1/2-y,-z
1/2+x,1/2+y,-z
1/2-x,1/2+y,z
1/2+x,1/2-y,z
loop_
_atom_site_type_symbol
_atom_site_label
_atom_site_fract_x
_atom_site_fract_y
_atom_site_fract_z
Si Si1 0.500000 0.813774 0.564680
Si Si2 0.576252 0.500000 0.937867
Si Si3 0.570353 0.801220 0.255946
Si Si4 0.924525 0.689253 0.867358
Si Si5 0.863209 0.803443 0.560215
Si Si6 0.183801 0.803516 0.669587
O O1 0.500000 0.824361 0.500000
O O2 0.564610 0.724521 0.577169
O O3 0.500000 0.000000 0.587166
O O4 0.500000 0.500000 0.936080
O O5 0.597206 0.666949 0.907329
O O6 0.594666 0.500000 0.000000
O O7 0.500000 0.738243 0.268096
O O8 0.587120 0.759812 0.194348
O O9 0.624037 0.745271 0.295772
O O10 0.567367 0.000000 0.257999
O O11 0.901802 0.500000 0.876693
O O12 0.000000 0.681483 0.871968
O O13 0.853381 0.733799 0.500000
O O14 0.823376 0.732255 0.609100
O O15 0.852839 0.000000 0.556585
O O16 0.250000 0.750000 0.693180
O O17 0.183928 0.000000 0.665408
#
# Coordination Sequence:
#
# PCOD9494032 Si02
#       6
#     8   8  16  16  16  16
#     4   9  17  29  49  77 101 125 161 207 253 304
#     4   9  16  24  40  70 108 148 183 221 268 318
#     4   9  19  36  57  79 104 140 181 226 274 320
#     4   8  15  28  45  68 101 142 184 224 268 319
#     4   9  19  36  54  72  99 134 170 210 264 328
#     4  11  24  38  54  77 105 138 174 223 275 327
#
# _framework density 18.528905999999999
#
# number of rings (size 3 to 8) (size 9 to 14) (size 15 to 20)
#    0.000    2.800    0.000    2.100    2.800    4.000 
#    0.000    2.000    0.000    0.000    0.000    0.000 
#    0.000    0.800    0.400    0.000    0.000    0.000 
#
# Total GULP energy -222882.084661 kJ/mol
# GULP energy per Si atom -5572.052117 kJ/mol
# Density = 1.848673 g / cm^3
# Si number density = 18.528906 Si / 1000 Ang^3
#
#
#
# Elastic Constant Matrix: (Units=GPa)
#
#
# Indices 1 2 3 4 5 6 
#
# 1 72.0519 13.9854 57.7687 0.0000 0.0000 0.0000
# 2 13.9854 49.2614 57.4542 0.0000 0.0000 0.0000
# 3 57.7687 57.4542 118.1110 0.0000 0.0000 0.0000
# 4 0.0000 0.0000 0.0000 5.3488 0.0000 0.0000
# 5 0.0000 0.0000 0.0000 0.0000 -4.0283 0.0000
# 6 0.0000 0.0000 0.0000 0.0000 0.0000 12.0247
#
#
#
# Elastic Compliance Matrix: (Units=1/GPa)
#
#
# Indices 1 2 3 4 5 6 
#
# 1 0.029029 0.019226 -0.023551 0.000000 0.000000 0.000000
# 2 0.019226 0.059653 -0.038421 0.000000 0.000000 0.000000
# 3 -0.023551 -0.038421 0.038675 0.000000 0.000000 0.000000
# 4 0.000000 0.000000 0.000000 0.186958 0.000000 0.000000
# 5 0.000000 0.000000 0.000000 0.000000 -0.248245 0.000000
# 6 0.000000 0.000000 0.000000 0.000000 0.000000 0.083162
#
#
# Mechanical properties :
#
#
# Convention : Reuss Voigt Hill
#
# Bulk Modulus (GPa) = 23.88613 55.31569 39.60091
# Shear Modulus (GPa) = 20.10627 10.01677 15.06152
#
# Velocity S-wave (km/s) = 3.29770 2.32761 2.85417
# Velocity P-wave (km/s) = 5.23632 6.09444 5.68161
#
# Compressibility (1/GPa) = 0.04186530
#
# Stress axis : x y z
#
# Youngs Moduli (GPa) = 34.44809 16.76370 25.85645
#
# Poissons Ratio (x) = -0.32230 0.60894
# Poissons Ratio (y) = -0.66230 0.99344
# Poissons Ratio (z) = 0.81128 0.64408
#
# Static dielectric constant tensor:
#      x y z
#    x 1.612270 0.000000 0.000000 
#    y 0.000000 1.660150 0.000000 
#    z 0.000000 0.000000 1.669550 
# 
# From -- ./inp_files/75291.got.cif
#   From: 2010.05.17/outbox.cif.g08.bks.cpg/sg65_38_cif.got.tgz:75291.got - 2010.06.03 17:01:31.
