data_PCOD9494156
_publ_section_title
;
Structure prediction by ZEFSAII (Michael W. Deem and Ramdas Pophale) SiO2 
 PCOD9494156
Probable space group: C M M M
;
_chemical_formula_sum "Si O2"
_cell_formula_units_Z 52
_cell_length_a 19.800942
_cell_length_b 14.096860
_cell_length_c 7.677712
_cell_angle_alpha 90.000000
_cell_angle_beta 90.000000
_cell_angle_gamma 90.000000
_cell_volume 2143.088252
_symmetry_space_group_name_H-M "C M M M"
_symmetry_group_IT_number 65
_symmetry_cell_setting 'orthorhombic'
loop_
_space_group_symop_operation_xyz
x,y,z
-x,-y,z
x,-y,-z
-x,y,-z
-x,-y,-z
x,y,-z
-x,y,z
x,-y,z
1/2+x,1/2+y,z
1/2-x,1/2-y,z
1/2+x,1/2-y,-z
1/2-x,1/2+y,-z
1/2-x,1/2-y,-z
1/2+x,1/2+y,-z
1/2-x,1/2+y,z
1/2+x,1/2-y,z
loop_
_atom_site_type_symbol
_atom_site_label
_atom_site_fract_x
_atom_site_fract_y
_atom_site_fract_z
Si Si1 0.000000 0.129126 0.500000
Si Si2 0.594818 0.310976 0.808273
Si Si3 0.612379 0.894825 0.288468
Si Si4 0.769662 0.107577 0.707709
O O1 0.058295 0.134466 0.346950
O O2 0.578585 0.199375 0.783918
O O3 0.675414 0.323808 0.788202
O O4 0.575787 0.343108 0.000000
O O5 0.607916 0.889708 0.500000
O O6 0.691582 0.888773 0.238339
O O7 0.587711 0.000000 0.237581
O O8 0.769418 0.123642 0.500000
O O9 0.792949 0.000000 0.742367
#
# Coordination Sequence:
#
# PCOD9494156 Si02
#       4
#     4  16  16  16
#     4  12  26  48  60  78 120 162 214 262 282 342
#     4  12  24  40  64  89 117 160 204 248 303 349
#     4   9  18  36  64  95 126 158 190 235 302 369
#     4   9  18  36  64  95 126 158 190 235 302 369
#
# _framework density 24.264049
#
# number of rings (size 3 to 8) (size 9 to 14) (size 15 to 20)
#    0.000    1.846    3.077    3.231    0.000    6.154 
#    0.000    6.154    0.000    3.692    0.000    0.000 
#    0.000    0.000    0.000    0.000    0.000    0.000 
#
# Total GULP energy -144894.479007 kJ/mol
# GULP energy per Si atom -5572.864577 kJ/mol
# Density = 2.420882 g / cm^3
# Si number density = 24.264049 Si / 1000 Ang^3
#
#
#
# Elastic Constant Matrix: (Units=GPa)
#
#
# Indices 1 2 3 4 5 6 
#
# 1 74.5580 1.8481 13.1030 0.0000 0.0000 0.0000
# 2 1.8481 74.4447 12.8721 0.0000 0.0000 0.0000
# 3 13.1030 12.8721 134.2745 0.0000 0.0000 0.0000
# 4 0.0000 0.0000 0.0000 31.2091 0.0000 0.0000
# 5 0.0000 0.0000 0.0000 0.0000 -59.1044 0.0000
# 6 0.0000 0.0000 0.0000 0.0000 0.0000 -69.1243
#
#
#
# Elastic Compliance Matrix: (Units=1/GPa)
#
#
# Indices 1 2 3 4 5 6 
#
# 1 0.013647 -0.000110 -0.001321 0.000000 0.000000 0.000000
# 2 -0.000110 0.013660 -0.001299 0.000000 0.000000 0.000000
# 3 -0.001321 -0.001299 0.007701 0.000000 0.000000 0.000000
# 4 0.000000 0.000000 0.000000 0.032042 0.000000 0.000000
# 5 0.000000 0.000000 0.000000 0.000000 -0.016919 0.000000
# 6 0.000000 0.000000 0.000000 0.000000 0.000000 -0.014467
#
#
# Mechanical properties :
#
#
# Convention : Reuss Voigt Hill
#
# Bulk Modulus (GPa) = 33.84355 37.65816 35.75086
# Shear Modulus (GPa) = 98.08904 -2.37366 47.85769
#
# Velocity S-wave (km/s) = 6.36502 -0.99014 4.44596
# Velocity P-wave (km/s) = 8.24598 3.77448 6.41260
#
# Compressibility (1/GPa) = 0.02954772
#
# Stress axis : x y z
#
# Youngs Moduli (GPa) = 73.27453 73.20590 129.85567
#
# Poissons Ratio (x) = 0.00808 0.17156
# Poissons Ratio (y) = 0.00809 0.16865
# Poissons Ratio (z) = 0.09681 0.09508
#
# Static dielectric constant tensor:
#      x y z
#    x 1.931550 0.000000 0.000000 
#    y 0.000000 1.975960 0.000000 
#    z 0.000000 0.000000 1.899280 
# 
# From -- ./inp_files/6082.got.cif
#   From: 2010.05.17/outbox.cif.g08.bks.cpg/sg65_4_cif.got.tgz:6082.got - 2010.06.03 17:01:31.
