data_PCOD9494617
_publ_section_title
;
Structure prediction by ZEFSAII (Michael W. Deem and Ramdas Pophale) SiO2 
 PCOD9494617
Probable space group: C M M M
;
_chemical_formula_sum "Si O2"
_cell_formula_units_Z 36
_cell_length_a 15.000000
_cell_length_b 9.000000
_cell_length_c 27.000000
_cell_angle_alpha 90.000000
_cell_angle_beta 90.000000
_cell_angle_gamma 90.000000
_cell_volume 3645.000000
_symmetry_space_group_name_H-M "C M M M"
_symmetry_group_IT_number 65
_symmetry_cell_setting 'orthorhombic'
loop_
_space_group_symop_operation_xyz
x,y,z
-x,-y,z
x,-y,-z
-x,y,-z
-x,-y,-z
x,y,-z
-x,y,z
x,-y,z
1/2+x,1/2+y,z
1/2-x,1/2-y,z
1/2+x,1/2-y,-z
1/2-x,1/2+y,-z
1/2-x,1/2-y,-z
1/2+x,1/2+y,-z
1/2-x,1/2+y,z
1/2+x,1/2-y,z
loop_
_atom_site_type_symbol
_atom_site_label
_atom_site_fract_x
_atom_site_fract_y
_atom_site_fract_z
Si Si1 0.604321 0.168371 0.766016
Si Si2 0.158647 0.821421 0.131846
Si Si3 0.151658 0.179416 0.337014
Si Si4 0.500000 0.319774 0.057440
Si Si5 0.848891 0.820768 0.445889
O O1 0.500000 0.156381 0.776363
O O2 0.642546 0.257684 0.812756
O O3 0.612884 0.250308 0.713112
O O4 0.642557 0.000000 0.762913
O O5 0.250000 0.750000 0.114277
O O6 0.083901 0.777673 0.091745
O O7 0.161831 0.000000 0.134717
O O8 0.250000 0.250000 0.339058
O O9 0.110572 0.216971 0.391642
O O10 0.153063 0.000000 0.332565
O O11 0.500000 0.500000 0.054903
O O12 0.500000 0.266813 0.000000
O O13 0.889658 0.779813 0.500000
O O14 0.750000 0.750000 0.446150
O O15 0.841550 0.000000 0.445675
#
# Coordination Sequence:
#
# PCOD9494617 Si02
#       5
#    16  16  16   8  16
#     4  11  23  38  56  78 109 146 189 241 293 345
#     4  11  22  39  64  92 123 160 201 243 291 346
#     4  10  19  31  50  76 106 138 178 226 280 344
#     4   9  20  40  65  93 127 165 202 241 286 339
#     4   8  14  25  42  66  96 130 169 217 272 331
#
# _framework density 9.8765429999999999
#
# number of rings (size 3 to 8) (size 9 to 14) (size 15 to 20)
#    0.000    2.111    1.111    2.667    0.000    2.667 
#    0.000    0.000    0.000    5.333    0.000    4.667 
#    0.000    0.000    0.000    0.000    0.000    0.000 
#
# Total GULP energy -200585.501487 kJ/mol
# GULP energy per Si atom -5571.819486 kJ/mol
# Density = 0.985406 g / cm^3
# Si number density = 9.876543 Si / 1000 Ang^3
#
#
#
# Elastic Constant Matrix: (Units=GPa)
#
#
# Indices 1 2 3 4 5 6 
#
# 1 102.1892 27.4076 62.2128 0.0000 0.0000 0.0000
# 2 27.4076 81.8126 54.2384 0.0000 0.0000 0.0000
# 3 62.2128 54.2384 202.1318 0.0000 0.0000 0.0000
# 4 0.0000 0.0000 0.0000 13.2359 0.0000 0.0000
# 5 0.0000 0.0000 0.0000 0.0000 23.7007 0.0000
# 6 0.0000 0.0000 0.0000 0.0000 0.0000 15.2166
#
#
#
# Elastic Compliance Matrix: (Units=1/GPa)
#
#
# Indices 1 2 3 4 5 6 
#
# 1 0.012295 -0.001959 -0.003259 0.000000 0.000000 0.000000
# 2 -0.001959 0.015180 -0.003470 0.000000 0.000000 0.000000
# 3 -0.003259 -0.003470 0.006881 0.000000 0.000000 0.000000
# 4 0.000000 0.000000 0.000000 0.075552 0.000000 0.000000
# 5 0.000000 0.000000 0.000000 0.000000 0.042193 0.000000
# 6 0.000000 0.000000 0.000000 0.000000 0.000000 0.065717
#
#
# Mechanical properties :
#
#
# Convention : Reuss Voigt Hill
#
# Bulk Modulus (GPa) = 58.88902 74.87234 66.88068
# Shear Modulus (GPa) = 20.75946 26.58232 23.67089
#
# Velocity S-wave (km/s) = 3.24535 3.67240 3.46546
# Velocity P-wave (km/s) = 6.62724 7.48120 7.06713
#
# Compressibility (1/GPa) = 0.01698109
#
# Stress axis : x y z
#
# Youngs Moduli (GPa) = 81.33449 65.87640 145.31798
#
# Poissons Ratio (x) = 0.12902 0.47354
# Poissons Ratio (y) = 0.15929 0.50432
# Poissons Ratio (z) = 0.26504 0.22862
#
# Static dielectric constant tensor:
#      x y z
#    x 1.769740 0.000000 0.000000 
#    y 0.000000 1.683200 0.000000 
#    z 0.000000 0.000000 1.721860 
# 
# From -- ./inp_files/67116.got.cif
#   From: 2010.05.17/outbox.ucp.g08.bks.cvg/sg65_34_cif.got.tgz:67116.got - 2010.06.11 16:39:57.
