data_PCOD9494595
_publ_section_title
;
Structure prediction by ZEFSAII (Michael W. Deem and Ramdas Pophale) SiO2 
 PCOD9494595
Probable space group: C M M M
;
_chemical_formula_sum "Si O2"
_cell_formula_units_Z 40
_cell_length_a 9.000000
_cell_length_b 24.000000
_cell_length_c 21.000000
_cell_angle_alpha 90.000000
_cell_angle_beta 90.000000
_cell_angle_gamma 90.000000
_cell_volume 4536.000000
_symmetry_space_group_name_H-M "C M M M"
_symmetry_group_IT_number 65
_symmetry_cell_setting 'orthorhombic'
loop_
_space_group_symop_operation_xyz
x,y,z
-x,-y,z
x,-y,-z
-x,y,-z
-x,-y,-z
x,y,-z
-x,y,z
x,-y,z
1/2+x,1/2+y,z
1/2-x,1/2-y,z
1/2+x,1/2-y,-z
1/2-x,1/2+y,-z
1/2-x,1/2-y,-z
1/2+x,1/2+y,-z
1/2-x,1/2+y,z
1/2+x,1/2-y,z
loop_
_atom_site_type_symbol
_atom_site_label
_atom_site_fract_x
_atom_site_fract_y
_atom_site_fract_z
Si Si1 0.819503 0.881718 0.690639
Si Si2 0.179943 0.000000 0.738815
Si Si3 0.179214 0.810066 0.427557
Si Si4 0.321976 0.121416 0.927890
Si Si5 0.321920 0.689600 0.814317
Si Si6 0.823210 0.500000 0.122534
O O1 0.768997 0.944331 0.703404
O O2 0.769635 0.853840 0.625198
O O3 0.776916 0.844354 0.751126
O O4 0.000000 0.882716 0.689165
O O5 0.238034 0.000000 0.810772
O O6 0.000000 0.000000 0.740858
O O7 0.217598 0.826040 0.500000
O O8 0.250000 0.750000 0.414395
O O9 0.000000 0.805170 0.423908
O O10 0.500000 0.129023 0.920157
O O11 0.236387 0.156890 0.875727
O O12 0.289520 0.056255 0.915639
O O13 0.282457 0.136756 0.000000
O O14 0.500000 0.693417 0.815661
O O15 0.250000 0.750000 0.812467
O O16 0.000000 0.500000 0.135400
#
# Coordination Sequence:
#
# PCOD9494595 Si02
#       6
#    16   8  16  16  16   8
#     4   9  18  32  52  77 104 135 170 212 256 303
#     4  10  18  33  54  75 104 137 168 208 260 308
#     4   9  17  31  51  76 105 137 173 211 252 299
#     4  10  21  37  56  78 105 135 168 211 262 313
#     4  11  22  36  54  76 103 136 175 216 261 310
#     4  10  19  34  56  81 105 130 168 214 259 306
#
# _framework density 8.8183419999999995
#
# number of rings (size 3 to 8) (size 9 to 14) (size 15 to 20)
#    0.000    2.200    2.000    1.500    0.000    2.000 
#    0.000    2.500    0.000    4.800    0.000    0.000 
#    0.000    4.000    0.000    0.000    0.000    0.000 
#
# Total GULP energy -223167.756309 kJ/mol
# GULP energy per Si atom -5579.193908 kJ/mol
# Density = 0.879827 g / cm^3
# Si number density = 8.818342 Si / 1000 Ang^3
#
#
#
# Elastic Constant Matrix: (Units=GPa)
#
#
# Indices 1 2 3 4 5 6 
#
# 1 14.7573 36.8750 31.7834 0.0000 0.0000 0.0000
# 2 36.8750 136.5093 81.0530 0.0000 0.0000 0.0000
# 3 31.7834 81.0530 131.8353 0.0000 0.0000 0.0000
# 4 0.0000 0.0000 0.0000 -223.7320 0.0000 0.0000
# 5 0.0000 0.0000 0.0000 0.0000 17.2832 0.0000
# 6 0.0000 0.0000 0.0000 0.0000 0.0000 -54.0052
#
#
#
# Elastic Compliance Matrix: (Units=1/GPa)
#
#
# Indices 1 2 3 4 5 6 
#
# 1 0.275624 -0.055121 -0.032560 0.000000 0.000000 0.000000
# 2 -0.055121 0.022561 -0.000582 0.000000 0.000000 0.000000
# 3 -0.032560 -0.000582 0.015792 0.000000 0.000000 0.000000
# 4 0.000000 0.000000 0.000000 -0.004470 0.000000 0.000000
# 5 0.000000 0.000000 0.000000 0.000000 0.057860 0.000000
# 6 0.000000 0.000000 0.000000 0.000000 0.000000 -0.018517
#
#
# Mechanical properties :
#
#
# Convention : Reuss Voigt Hill
#
# Bulk Modulus (GPa) = 7.27528 64.72497 36.00013
# Shear Modulus (GPa) = 8.75362 -43.19810 -17.22224
#
# Velocity S-wave (km/s) = 2.23026 -4.95444 -3.12829
# Velocity P-wave (km/s) = 3.28118 2.01248 2.72178
#
# Compressibility (1/GPa) = 0.13745173
#
# Stress axis : x y z
#
# Youngs Moduli (GPa) = 3.62813 44.32496 63.32193
#
# Poissons Ratio (x) = 2.44326 2.06173
# Poissons Ratio (y) = 0.19999 0.03682
# Poissons Ratio (z) = 0.11813 0.02578
#
# Static dielectric constant tensor:
#      x y z
#    x 1.606700 0.000000 0.000000 
#    y 0.000000 1.591720 0.000000 
#    z 0.000000 0.000000 1.584090 
# 
# From -- ./inp_files/59617.got.cif
#   From: 2010.05.17/outbox.ucp.g08.bks.cvg/sg65_30_cif.got.tgz:59617.got - 2010.06.11 16:39:57.
