data_PCOD9494016
_publ_section_title
;
Structure prediction by ZEFSAII (Michael W. Deem and Ramdas Pophale) SiO2 
 PCOD9494016
Probable space group: C M M M
;
_chemical_formula_sum "Si O2"
_cell_formula_units_Z 50
_cell_length_a 15.393227
_cell_length_b 9.211854
_cell_length_c 16.651617
_cell_angle_alpha 90.000000
_cell_angle_beta 90.000000
_cell_angle_gamma 90.000000
_cell_volume 2361.201950
_symmetry_space_group_name_H-M "C M M M"
_symmetry_group_IT_number 65
_symmetry_cell_setting 'orthorhombic'
loop_
_space_group_symop_operation_xyz
x,y,z
-x,-y,z
x,-y,-z
-x,y,-z
-x,-y,-z
x,y,-z
-x,y,z
x,-y,z
1/2+x,1/2+y,z
1/2-x,1/2-y,z
1/2+x,1/2-y,-z
1/2-x,1/2+y,-z
1/2-x,1/2-y,-z
1/2+x,1/2+y,-z
1/2-x,1/2+y,z
1/2+x,1/2-y,z
loop_
_atom_site_type_symbol
_atom_site_label
_atom_site_fract_x
_atom_site_fract_y
_atom_site_fract_z
Si Si1 0.644960 0.761419 0.000000
Si Si2 0.500000 0.500000 0.000000
Si Si3 0.837872 0.827918 0.322314
Si Si4 0.500000 0.829844 0.403916
Si Si5 0.603563 0.842095 0.821705
O O1 0.750000 0.750000 0.000000
O O2 0.578259 0.625091 0.000000
O O3 0.623386 0.836525 0.915553
O O4 0.750000 0.750000 0.349066
O O5 0.852561 0.785580 0.228696
O O6 0.916888 0.752543 0.368713
O O7 0.836434 0.000000 0.333325
O O8 0.500000 0.822894 0.500000
O O9 0.500000 0.000000 0.380176
O O10 0.500000 0.829618 0.811183
O O11 0.632119 0.000000 0.789287
#
# Coordination Sequence:
#
# PCOD9494016 Si02
#       5
#     8   2  16   8  16
#     4  12  27  43  69  97 147 193 247 315 374 430
#     4  12  28  44  66 106 136 184 252 324 356 478
#     4  12  26  44  72 105 143 186 235 289 353 426
#     4  11  25  48  77 106 141 181 225 284 353 423
#     4  11  23  43  68  98 141 188 243 298 363 427
#
# _framework density 21.175654999999999
#
# number of rings (size 3 to 8) (size 9 to 14) (size 15 to 20)
#    0.000    0.480    3.200    4.800    4.480    3.200 
#    0.000    0.000    0.000    0.000    0.000    0.000 
#    0.000    0.000    0.000    0.000    0.000    0.000 
#
# Total GULP energy -139534.365170 kJ/mol
# GULP energy per Si atom -5581.374607 kJ/mol
# Density = 2.112746 g / cm^3
# Si number density = 21.175655 Si / 1000 Ang^3
#
#
#
# Elastic Constant Matrix: (Units=GPa)
#
#
# Indices 1 2 3 4 5 6 
#
# 1 187.4690 100.1974 33.5783 0.0000 0.0000 0.0000
# 2 100.1974 221.7786 50.7637 0.0000 0.0000 0.0000
# 3 33.5783 50.7637 95.6780 0.0000 0.0000 0.0000
# 4 0.0000 0.0000 0.0000 -127.5172 0.0000 0.0000
# 5 0.0000 0.0000 0.0000 0.0000 -6.1641 0.0000
# 6 0.0000 0.0000 0.0000 0.0000 0.0000 31.9110
#
#
#
# Elastic Compliance Matrix: (Units=1/GPa)
#
#
# Indices 1 2 3 4 5 6 
#
# 1 0.007100 -0.003002 -0.000899 0.000000 0.000000 0.000000
# 2 -0.003002 0.006401 -0.002343 0.000000 0.000000 0.000000
# 3 -0.000899 -0.002343 0.012010 0.000000 0.000000 0.000000
# 4 0.000000 0.000000 0.000000 -0.007842 0.000000 0.000000
# 5 0.000000 0.000000 0.000000 0.000000 -0.162229 0.000000
# 6 0.000000 0.000000 0.000000 0.000000 0.000000 0.031337
#
#
# Mechanical properties :
#
#
# Convention : Reuss Voigt Hill
#
# Bulk Modulus (GPa) = 76.78123 97.11160 86.94642
# Shear Modulus (GPa) = -51.87037 1.00504 -25.43267
#
# Velocity S-wave (km/s) = -4.95464 0.68967 -3.46935
# Velocity P-wave (km/s) = 1.89911 6.82596 5.01001
#
# Compressibility (1/GPa) = 0.01302402
#
# Stress axis : x y z
#
# Youngs Moduli (GPa) = 140.85307 156.21466 83.26190
#
# Poissons Ratio (x) = 0.46892 0.07485
# Poissons Ratio (y) = 0.42281 0.19508
# Poissons Ratio (z) = 0.12662 0.36600
#
# Static dielectric constant tensor:
#      x y z
#    x 1.779920 0.000000 0.000000 
#    y 0.000000 1.754430 0.000000 
#    z 0.000000 0.000000 1.772670 
# 
# From -- ./inp_files/52333.got.cif
#   From: 2010.05.17/outbox.cif.g08.bks.cpg/sg65_27_cif.got.tgz:52333.got - 2010.06.03 17:01:31.
