data_PCOD9494904
_publ_section_title
;
Structure prediction by ZEFSAII (Michael W. Deem and Ramdas Pophale) SiO2 
 PCOD9494904
Probable space group: C C C M
;
_chemical_formula_sum "Si O2"
_cell_formula_units_Z 96
_cell_length_a 32.971565
_cell_length_b 6.766221
_cell_length_c 15.856485
_cell_angle_alpha 90.000000
_cell_angle_beta 90.000000
_cell_angle_gamma 90.000000
_cell_volume 3537.469151
_symmetry_space_group_name_H-M "C C C M"
_symmetry_group_IT_number 66
_symmetry_cell_setting 'orthorhombic'
loop_
_space_group_symop_operation_xyz
x,y,z
-x,-y,z
x,-y,1/2-z
-x,y,1/2-z
-x,-y,-z
x,y,-z
-x,y,1/2+z
x,-y,1/2+z
1/2+x,1/2+y,z
1/2-x,1/2-y,z
1/2+x,1/2-y,1/2-z
1/2-x,1/2+y,1/2-z
1/2-x,1/2-y,-z
1/2+x,1/2+y,-z
1/2-x,1/2+y,1/2+z
1/2+x,1/2-y,1/2+z
loop_
_atom_site_type_symbol
_atom_site_label
_atom_site_fract_x
_atom_site_fract_y
_atom_site_fract_z
Si Si1 0.448882 0.854047 0.095145
Si Si2 0.391284 0.372539 0.098597
Si Si3 0.196099 0.062273 0.101836
Si Si4 0.974863 0.232812 0.335254
Si Si5 0.217489 0.525430 0.899385
Si Si6 0.131143 0.562623 0.153243
O O1 0.488028 0.715179 0.099270
O O2 0.459505 0.041677 0.153502
O O3 0.404675 0.788501 0.126076
O O4 0.445651 0.924856 0.000000
O O5 0.349477 0.463391 0.134721
O O6 0.433528 0.385074 0.149097
O O7 0.378984 0.137082 0.100471
O O8 0.398034 0.427392 0.000000
O O9 0.207550 0.292951 0.114564
O O10 0.236315 0.947206 0.132080
O O11 0.193602 0.033237 0.000000
O O12 0.000000 0.203974 0.250000
O O13 0.177151 0.627295 0.864055
O O14 0.217996 0.559559 0.000000
O O15 0.127513 0.500000 0.250000
#
# Coordination Sequence:
#
# PCOD9494904 Si02
#       6
#    16  16  16  16  16  16
#     4  10  16  22  28  34  48  79 111 129 143 168
#     4   9  15  24  33  41  53  76 105 136 162 182
#     4   7  11  19  33  45  51  63  94 130 163 189
#     4  10  16  21  27  37  54  75 100 126 150 175
#     4   8  12  20  31  43  55  71  93 125 159 188
#     4  10  16  20  26  39  59  80  99 120 150 183
#
# _framework density 27.138048000000001
#
# number of rings (size 3 to 8) (size 9 to 14) (size 15 to 20)
#    0.000    3.000    0.000    9.500    0.000    0.000 
#    0.000    0.000    0.000    0.000    0.000    0.000 
#    0.000    0.000    0.000  159.000    0.000    0.833 
#
# Total GULP energy -268310.263239 kJ/mol
# GULP energy per Si atom -5589.797151 kJ/mol
# Density = 2.707628 g / cm^3
# Si number density = 27.138048 Si / 1000 Ang^3
#
#
#
# Elastic Constant Matrix: (Units=GPa)
#
#
# Indices 1 2 3 4 5 6 
#
# 1 386.4654 67.7488 71.3193 0.0000 0.0000 0.0000
# 2 67.7488 106.2212 -0.5034 0.0000 0.0000 0.0000
# 3 71.3193 -0.5034 129.8919 0.0000 0.0000 0.0000
# 4 0.0000 0.0000 0.0000 -12.9384 0.0000 0.0000
# 5 0.0000 0.0000 0.0000 0.0000 8.7596 0.0000
# 6 0.0000 0.0000 0.0000 0.0000 0.0000 68.1979
#
#
#
# Elastic Compliance Matrix: (Units=1/GPa)
#
#
# Indices 1 2 3 4 5 6 
#
# 1 0.003292 -0.002108 -0.001816 0.000000 0.000000 0.000000
# 2 -0.002108 0.010765 0.001199 0.000000 0.000000 0.000000
# 3 -0.001816 0.001199 0.008700 0.000000 0.000000 0.000000
# 4 0.000000 0.000000 0.000000 -0.077289 0.000000 0.000000
# 5 0.000000 0.000000 0.000000 0.000000 0.114160 0.000000
# 6 0.000000 0.000000 0.000000 0.000000 0.000000 0.014663
#
#
# Mechanical properties :
#
#
# Convention : Reuss Voigt Hill
#
# Bulk Modulus (GPa) = 57.77798 99.96756 78.87277
# Shear Modulus (GPa) = 58.47249 45.07142 51.77195
#
# Velocity S-wave (km/s) = 4.64684 4.07974 4.37249
# Velocity P-wave (km/s) = 7.08007 7.68824 7.39041
#
# Compressibility (1/GPa) = 0.01730763
#
# Stress axis : x y z
#
# Youngs Moduli (GPa) = 303.74157 92.89553 114.93757
#
# Poissons Ratio (x) = 0.19587 0.20871
# Poissons Ratio (y) = 0.64042 -0.13786
# Poissons Ratio (z) = 0.55155 -0.11142
#
# Static dielectric constant tensor:
#      x y z
#    x 2.223270 0.000000 0.000000 
#    y 0.000000 2.337450 0.000000 
#    z 0.000000 0.000000 2.058610 
# 
# From -- ./inp_files/33916.got.cif
#   From: 2010.05.17/outbox.cif.g08.bks.cpg/sg66_17_cif.got.tgz:33916.got - 2010.06.03 17:51:23.
