data_PCOD9494181
_publ_section_title
;
Structure prediction by ZEFSAII (Michael W. Deem and Ramdas Pophale) SiO2 
 PCOD9494181
Probable space group: C M M M
;
_chemical_formula_sum "Si O2"
_cell_formula_units_Z 50
_cell_length_a 7.847634
_cell_length_b 20.177883
_cell_length_c 15.843394
_cell_angle_alpha 90.000000
_cell_angle_beta 90.000000
_cell_angle_gamma 90.000000
_cell_volume 2508.779904
_symmetry_space_group_name_H-M "C M M M"
_symmetry_group_IT_number 65
_symmetry_cell_setting 'orthorhombic'
loop_
_space_group_symop_operation_xyz
x,y,z
-x,-y,z
x,-y,-z
-x,y,-z
-x,-y,-z
x,y,-z
-x,y,z
x,-y,z
1/2+x,1/2+y,z
1/2-x,1/2-y,z
1/2+x,1/2-y,-z
1/2-x,1/2+y,-z
1/2-x,1/2-y,-z
1/2+x,1/2+y,-z
1/2-x,1/2+y,z
1/2+x,1/2-y,z
loop_
_atom_site_type_symbol
_atom_site_label
_atom_site_fract_x
_atom_site_fract_y
_atom_site_fract_z
Si Si1 0.698745 0.675911 0.333271
Si Si2 0.000000 0.000000 0.500000
Si Si3 0.707139 0.076592 0.815483
Si Si4 0.811316 0.607498 0.500000
Si Si5 0.803200 0.580509 0.000000
O O1 0.500000 0.675017 0.353467
O O2 0.750000 0.750000 0.308322
O O3 0.733629 0.624505 0.257995
O O4 0.796173 0.652095 0.416422
O O5 0.152540 0.057195 0.500000
O O6 0.500000 0.076838 0.817962
O O7 0.759434 0.000000 0.800427
O O8 0.770653 0.098515 0.908716
O O9 0.000000 0.576266 0.500000
O O10 0.806337 0.500000 0.000000
O O11 0.000000 0.603327 0.000000
#
# Coordination Sequence:
#
# PCOD9494181 Si02
#       5
#    16   2  16   8   8
#     4  12  25  43  62  89 124 167 217 263 316 386
#     4  12  26  48  68 110 128 162 220 256 312 374
#     4   9  18  34  60  91 121 159 204 257 320 380
#     4  12  26  46  70  97 135 170 206 262 318 371
#     4   7  12  28  54  85 120 155 199 251 312 385
#
# _framework density 19.930007
#
# number of rings (size 3 to 8) (size 9 to 14) (size 15 to 20)
#    0.000    1.760    1.600    5.520    2.240    0.640 
#    0.000    1.600    0.000    2.880    0.000    0.000 
#    0.000    0.000    0.000    0.000    0.000    0.000 
#
# Total GULP energy -139295.936588 kJ/mol
# GULP energy per Si atom -5571.837464 kJ/mol
# Density = 1.988465 g / cm^3
# Si number density = 19.930007 Si / 1000 Ang^3
#
#
#
# Elastic Constant Matrix: (Units=GPa)
#
#
# Indices 1 2 3 4 5 6 
#
# 1 113.6147 27.7692 17.7239 0.0000 0.0000 0.0000
# 2 27.7692 113.2301 68.8624 0.0000 0.0000 0.0000
# 3 17.7239 68.8624 163.7279 0.0000 0.0000 0.0000
# 4 0.0000 0.0000 0.0000 -15.0171 0.0000 0.0000
# 5 0.0000 0.0000 0.0000 0.0000 36.1092 0.0000
# 6 0.0000 0.0000 0.0000 0.0000 0.0000 8.2010
#
#
#
# Elastic Compliance Matrix: (Units=1/GPa)
#
#
# Indices 1 2 3 4 5 6 
#
# 1 0.009363 -0.002257 -0.000064 0.000000 0.000000 0.000000
# 2 -0.002257 0.012411 -0.004976 0.000000 0.000000 0.000000
# 3 -0.000064 -0.004976 0.008207 0.000000 0.000000 0.000000
# 4 0.000000 0.000000 0.000000 -0.066591 0.000000 0.000000
# 5 0.000000 0.000000 0.000000 0.000000 0.027694 0.000000
# 6 0.000000 0.000000 0.000000 0.000000 0.000000 0.121936
#
#
# Mechanical properties :
#
#
# Convention : Reuss Voigt Hill
#
# Bulk Modulus (GPa) = 64.98734 68.80933 66.89834
# Shear Modulus (GPa) = 37.66630 24.27309 30.96969
#
# Velocity S-wave (km/s) = 4.35205 3.49365 3.94626
# Velocity P-wave (km/s) = 7.61133 7.13264 7.37587
#
# Compressibility (1/GPa) = 0.01538761
#
# Stress axis : x y z
#
# Youngs Moduli (GPa) = 106.79873 80.57250 121.84169
#
# Poissons Ratio (x) = 0.18187 0.00782
# Poissons Ratio (y) = 0.24107 0.60624
# Poissons Ratio (z) = 0.00686 0.40090
#
# Static dielectric constant tensor:
#      x y z
#    x 1.721070 0.000000 0.000000 
#    y 0.000000 1.665220 0.000000 
#    z 0.000000 0.000000 1.716210 
# 
# From -- ./inp_files/35128.got.cif
#   From: 2010.05.17/outbox.cif.g08.bks.cpg/sg65_18_cif.got.tgz:35128.got - 2010.06.03 17:01:31.
