data_PCOD9494104
_publ_section_title
;
Structure prediction by ZEFSAII (Michael W. Deem and Ramdas Pophale) SiO2 
 PCOD9494104
Probable space group: C M M M
;
_chemical_formula_sum "Si O2"
_cell_formula_units_Z 52
_cell_length_a 10.714825
_cell_length_b 29.569193
_cell_length_c 7.692869
_cell_angle_alpha 90.000000
_cell_angle_beta 90.000000
_cell_angle_gamma 90.000000
_cell_volume 2437.321903
_symmetry_space_group_name_H-M "C M M M"
_symmetry_group_IT_number 65
_symmetry_cell_setting 'orthorhombic'
loop_
_space_group_symop_operation_xyz
x,y,z
-x,-y,z
x,-y,-z
-x,y,-z
-x,-y,-z
x,y,-z
-x,y,z
x,-y,z
1/2+x,1/2+y,z
1/2-x,1/2-y,z
1/2+x,1/2-y,-z
1/2-x,1/2+y,-z
1/2-x,1/2-y,-z
1/2+x,1/2+y,-z
1/2-x,1/2+y,z
1/2+x,1/2-y,z
loop_
_atom_site_type_symbol
_atom_site_label
_atom_site_fract_x
_atom_site_fract_y
_atom_site_fract_z
Si Si1 0.638057 0.118660 0.204777
Si Si2 0.000000 0.817876 0.000000
Si Si3 0.637350 0.552467 0.709761
Si Si4 0.702849 0.300804 0.696510
O O1 0.500000 0.103799 0.263173
O O2 0.746278 0.081886 0.232676
O O3 0.681898 0.164495 0.295015
O O4 0.632142 0.127603 0.000000
O O5 0.891956 0.815477 0.153904
O O6 0.635223 0.553502 0.500000
O O7 0.500000 0.569126 0.770973
O O8 0.649312 0.500000 0.763035
O O9 0.650806 0.302950 0.500000
O O10 0.750000 0.250000 0.728891
#
# Coordination Sequence:
#
# PCOD9494104 Si02
#       4
#    16   4  16  16
#     4  11  25  42  63  92 132 177 221 277 339 401
#     4  12  24  44  70  98 133 178 225 284 340 384
#     4   9  20  40  65  93 126 165 215 277 338 400
#     4  11  26  44  68  99 133 179 228 276 335 401
#
# _framework density 21.334890999999999
#
# number of rings (size 3 to 8) (size 9 to 14) (size 15 to 20)
#    0.000    1.538    1.538    2.769    4.308    4.308 
#    0.000    4.615    0.000    0.000    0.000    0.000 
#    0.000    0.000    0.000    0.000    0.000    0.000 
#
# Total GULP energy -144802.519054 kJ/mol
# GULP energy per Si atom -5569.327656 kJ/mol
# Density = 2.128633 g / cm^3
# Si number density = 21.334891 Si / 1000 Ang^3
#
#
#
# Elastic Constant Matrix: (Units=GPa)
#
#
# Indices 1 2 3 4 5 6 
#
# 1 197.1440 75.5134 36.0718 0.0000 0.0000 0.0000
# 2 75.5134 96.3318 3.9890 0.0000 0.0000 0.0000
# 3 36.0718 3.9890 98.4899 0.0000 0.0000 0.0000
# 4 0.0000 0.0000 0.0000 21.1851 0.0000 0.0000
# 5 0.0000 0.0000 0.0000 0.0000 -74.9610 0.0000
# 6 0.0000 0.0000 0.0000 0.0000 0.0000 -7.9446
#
#
#
# Elastic Compliance Matrix: (Units=1/GPa)
#
#
# Indices 1 2 3 4 5 6 
#
# 1 0.007880 -0.006067 -0.002640 0.000000 0.000000 0.000000
# 2 -0.006067 0.015070 0.001612 0.000000 0.000000 0.000000
# 3 -0.002640 0.001612 0.011055 0.000000 0.000000 0.000000
# 4 0.000000 0.000000 0.000000 0.047203 0.000000 0.000000
# 5 0.000000 0.000000 0.000000 0.000000 -0.013340 0.000000
# 6 0.000000 0.000000 0.000000 0.000000 0.000000 -0.125872
#
#
# Mechanical properties :
#
#
# Convention : Reuss Voigt Hill
#
# Bulk Modulus (GPa) = 50.47114 69.23493 59.85304
# Shear Modulus (GPa) = -134.37552 6.08201 -64.14676
#
# Velocity S-wave (km/s) = -7.94485 1.69024 -5.48925
# Velocity P-wave (km/s) = 7.77515 6.02754 3.47287
#
# Compressibility (1/GPa) = 0.01981330
#
# Stress axis : x y z
#
# Youngs Moduli (GPa) = 126.91135 66.35629 90.45694
#
# Poissons Ratio (x) = 0.40261 0.23882
# Poissons Ratio (y) = 0.77001 -0.14580
# Poissons Ratio (z) = 0.33506 -0.10695
#
# Static dielectric constant tensor:
#      x y z
#    x 1.746790 0.000000 0.000000 
#    y 0.000000 1.759900 0.000000 
#    z 0.000000 0.000000 1.780250 
# 
# From -- ./inp_files/4631.got.cif
#   From: 2010.05.17/outbox.cif.g08.bks.cpg/sg65_3_cif.got.tgz:4631.got - 2010.06.03 17:01:31.
