data_PCOD9494667
_publ_section_title
;
Structure prediction by ZEFSAII (Michael W. Deem and Ramdas Pophale) SiO2 
 PCOD9494667
Probable space group: C M M M
;
_chemical_formula_sum "Si O2"
_cell_formula_units_Z 44
_cell_length_a 27.000000
_cell_length_b 15.000000
_cell_length_c 12.000000
_cell_angle_alpha 90.000000
_cell_angle_beta 90.000000
_cell_angle_gamma 90.000000
_cell_volume 4860.000000
_symmetry_space_group_name_H-M "C M M M"
_symmetry_group_IT_number 65
_symmetry_cell_setting 'orthorhombic'
loop_
_space_group_symop_operation_xyz
x,y,z
-x,-y,z
x,-y,-z
-x,y,-z
-x,-y,-z
x,y,-z
-x,y,z
x,-y,z
1/2+x,1/2+y,z
1/2-x,1/2-y,z
1/2+x,1/2-y,-z
1/2-x,1/2+y,-z
1/2-x,1/2-y,-z
1/2+x,1/2+y,-z
1/2-x,1/2+y,z
1/2+x,1/2-y,z
loop_
_atom_site_type_symbol
_atom_site_label
_atom_site_fract_x
_atom_site_fract_y
_atom_site_fract_z
Si Si1 0.059056 0.806767 0.500000
Si Si2 0.780277 0.102246 0.742606
Si Si3 0.161821 0.602168 0.257221
Si Si4 0.206063 0.823100 0.500000
Si Si5 0.138614 0.219366 0.866617
Si Si6 0.631028 0.834720 0.500000
Si Si7 0.059385 0.894178 0.736092
O O1 0.075530 0.703096 0.500000
O O2 0.074080 0.857609 0.613474
O O3 0.000000 0.810624 0.500000
O O4 0.721200 0.114196 0.755478
O O5 0.791002 0.120741 0.612434
O O6 0.813075 0.169637 0.815114
O O7 0.792683 0.000000 0.770827
O O8 0.149823 0.500000 0.225061
O O9 0.137244 0.681372 0.186260
O O10 0.147002 0.616068 0.387182
O O11 0.250000 0.750000 0.500000
O O12 0.158388 0.760926 0.500000
O O13 0.091863 0.161809 0.823342
O O14 0.140977 0.222489 0.000000
O O15 0.000000 0.881625 0.750792
O O16 0.069456 0.000000 0.743452
#
# Coordination Sequence:
#
# PCOD9494667 Si02
#       7
#     8  16  16   8  16   8  16
#     4  10  19  35  64  96 123 151 184 230 296 365
#     4  11  22  36  57  87 120 155 195 244 299 357
#     4  11  23  39  60  86 115 154 201 247 297 354
#     4  12  17  31  57  83 117 152 187 231 295 361
#     4  12  25  41  59  82 117 162 207 251 294 342
#     4  12  19  35  62  88 120 152 186 237 305 362
#     4  10  21  39  65  95 124 154 189 234 294 363
#
# _framework density 9.0534979999999994
#
# number of rings (size 3 to 8) (size 9 to 14) (size 15 to 20)
#    0.000    0.909    5.455    1.909    0.000    6.182 
#    0.000    5.455    0.000    2.727    0.000    1.273 
#    0.000    0.000    0.000    0.000    0.000    0.000 
#
# Total GULP energy -245831.869684 kJ/mol
# GULP energy per Si atom -5587.087947 kJ/mol
# Density = 0.903289 g / cm^3
# Si number density = 9.053498 Si / 1000 Ang^3
#
#
#
# Elastic Constant Matrix: (Units=GPa)
#
#
# Indices 1 2 3 4 5 6 
#
# 1 47.1269 47.6366 41.6912 0.0000 0.0000 0.0000
# 2 47.6366 145.9008 60.4748 0.0000 0.0000 0.0000
# 3 41.6912 60.4748 143.2476 0.0000 0.0000 0.0000
# 4 0.0000 0.0000 0.0000 10.2457 0.0000 0.0000
# 5 0.0000 0.0000 0.0000 0.0000 12.4619 0.0000
# 6 0.0000 0.0000 0.0000 0.0000 0.0000 32.6530
#
#
#
# Elastic Compliance Matrix: (Units=1/GPa)
#
#
# Indices 1 2 3 4 5 6 
#
# 1 0.036366 -0.009074 -0.006753 0.000000 0.000000 0.000000
# 2 -0.009074 0.010572 -0.001822 0.000000 0.000000 0.000000
# 3 -0.006753 -0.001822 0.009716 0.000000 0.000000 0.000000
# 4 0.000000 0.000000 0.000000 0.097602 0.000000 0.000000
# 5 0.000000 0.000000 0.000000 0.000000 0.080244 0.000000
# 6 0.000000 0.000000 0.000000 0.000000 0.000000 0.030625
#
#
# Mechanical properties :
#
#
# Convention : Reuss Voigt Hill
#
# Bulk Modulus (GPa) = 46.82887 70.65340 58.74113
# Shear Modulus (GPa) = 16.25788 23.50363 19.88075
#
# Velocity S-wave (km/s) = 2.99971 3.60674 3.31714
# Velocity P-wave (km/s) = 6.15761 7.51328 6.86897
#
# Compressibility (1/GPa) = 0.02135435
#
# Stress axis : x y z
#
# Youngs Moduli (GPa) = 27.49812 94.58917 102.92688
#
# Poissons Ratio (x) = 0.85834 0.69508
# Poissons Ratio (y) = 0.24953 0.18755
# Poissons Ratio (z) = 0.18570 0.17236
#
# Static dielectric constant tensor:
#      x y z
#    x 1.791070 0.000000 0.000000 
#    y 0.000000 1.619280 0.000000 
#    z 0.000000 0.000000 1.598540 
# 
# From -- ./inp_files/32277.got.cif
#   From: 2010.05.17/outbox.ucp.g08.bks.cvg/sg65_17_cif.got.tgz:32277.got - 2010.06.11 16:39:57.
