data_PCOD9494155
_publ_section_title
;
Structure prediction by ZEFSAII (Michael W. Deem and Ramdas Pophale) SiO2 
 PCOD9494155
Probable space group: C M M M
;
_chemical_formula_sum "Si O2"
_cell_formula_units_Z 58
_cell_length_a 7.655216
_cell_length_b 35.391215
_cell_length_c 11.026846
_cell_angle_alpha 90.000000
_cell_angle_beta 90.000000
_cell_angle_gamma 90.000000
_cell_volume 2987.474665
_symmetry_space_group_name_H-M "C M M M"
_symmetry_group_IT_number 65
_symmetry_cell_setting 'orthorhombic'
loop_
_space_group_symop_operation_xyz
x,y,z
-x,-y,z
x,-y,-z
-x,y,-z
-x,-y,-z
x,y,-z
-x,y,z
x,-y,z
1/2+x,1/2+y,z
1/2-x,1/2-y,z
1/2+x,1/2-y,-z
1/2-x,1/2+y,-z
1/2-x,1/2-y,-z
1/2+x,1/2+y,-z
1/2-x,1/2+y,z
1/2+x,1/2-y,z
loop_
_atom_site_type_symbol
_atom_site_label
_atom_site_fract_x
_atom_site_fract_y
_atom_site_fract_z
Si Si1 0.290060 0.294283 0.635647
Si Si2 0.710693 0.568665 0.139842
Si Si3 0.713329 0.655644 0.861696
Si Si4 0.500000 0.500000 0.500000
Si Si5 0.189472 0.500000 0.694372
O O1 0.225993 0.305510 0.500000
O O2 0.500000 0.298671 0.633739
O O3 0.250000 0.250000 0.651019
O O4 0.225225 0.317864 0.751662
O O5 0.500000 0.566724 0.153306
O O6 0.762412 0.612114 0.163462
O O7 0.793268 0.537398 0.223948
O O8 0.751899 0.560517 0.000000
O O9 0.500000 0.656950 0.863368
O O10 0.769202 0.665568 0.000000
O O11 0.348299 0.500000 0.603653
O O12 0.000000 0.500000 0.636264
#
# Coordination Sequence:
#
# PCOD9494155 Si02
#       5
#    16  16  16   2   8
#     4   9  17  30  47  70  98 136 183 226 271 332
#     4   9  17  34  59  85 112 145 185 235 296 354
#     4   8  15  29  50  77 106 137 179 226 275 336
#     4  12  26  48  58  78 120 164 194 246 280 346
#     4  12  24  40  62  87 115 154 198 240 289 341
#
# _framework density 19.414389
#
# number of rings (size 3 to 8) (size 9 to 14) (size 15 to 20)
#    0.000    2.759    1.379    2.276    0.000    2.759 
#    2.483    1.379    0.000    1.655    0.000    0.000 
#    0.000    0.000    0.000    0.000    0.000    0.000 
#
# Total GULP energy -161469.068146 kJ/mol
# GULP energy per Si atom -5567.898902 kJ/mol
# Density = 1.937020 g / cm^3
# Si number density = 19.414389 Si / 1000 Ang^3
#
#
#
# Elastic Constant Matrix: (Units=GPa)
#
#
# Indices 1 2 3 4 5 6 
#
# 1 77.5296 23.0035 44.1075 0.0000 0.0000 0.0000
# 2 23.0035 97.4628 117.2305 0.0000 0.0000 0.0000
# 3 44.1075 117.2305 189.6476 0.0000 0.0000 0.0000
# 4 0.0000 0.0000 0.0000 -25.9345 0.0000 0.0000
# 5 0.0000 0.0000 0.0000 0.0000 61.2334 0.0000
# 6 0.0000 0.0000 0.0000 0.0000 0.0000 1.0854
#
#
#
# Elastic Compliance Matrix: (Units=1/GPa)
#
#
# Indices 1 2 3 4 5 6 
#
# 1 0.015027 0.002562 -0.005079 0.000000 0.000000 0.000000
# 2 0.002562 0.040442 -0.025595 0.000000 0.000000 0.000000
# 3 -0.005079 -0.025595 0.022275 0.000000 0.000000 0.000000
# 4 0.000000 0.000000 0.000000 -0.038559 0.000000 0.000000
# 5 0.000000 0.000000 0.000000 0.000000 0.016331 0.000000
# 6 0.000000 0.000000 0.000000 0.000000 0.000000 0.921317
#
#
# Mechanical properties :
#
#
# Convention : Reuss Voigt Hill
#
# Bulk Modulus (GPa) = 46.46516 81.48035 63.97275
# Shear Modulus (GPa) = 4.80663 19.29677 12.05170
#
# Velocity S-wave (km/s) = 1.57518 3.15610 2.49421
# Velocity P-wave (km/s) = 5.22432 7.43919 6.42787
#
# Compressibility (1/GPa) = 0.02152150
#
# Stress axis : x y z
#
# Youngs Moduli (GPa) = 66.54474 24.72702 44.89241
#
# Poissons Ratio (x) = -0.06335 0.22799
# Poissons Ratio (y) = -0.17048 1.14901
# Poissons Ratio (z) = 0.33796 0.63288
#
# Static dielectric constant tensor:
#      x y z
#    x 1.731880 0.000000 0.000000 
#    y 0.000000 1.644760 0.000000 
#    z 0.000000 0.000000 1.666250 
# 
# From -- ./inp_files/20812.got.cif
#   From: 2010.05.17/outbox.cif.g08.bks.cpg/sg65_11_cif.got.tgz:20812.got - 2010.06.03 17:01:31.
