data_PCOD9494017
_publ_section_title
;
Structure prediction by ZEFSAII (Michael W. Deem and Ramdas Pophale) SiO2 
 PCOD9494017
Probable space group: C M M M
;
_chemical_formula_sum "Si O2"
_cell_formula_units_Z 56
_cell_length_a 17.434048
_cell_length_b 9.829913
_cell_length_c 16.595704
_cell_angle_alpha 90.000000
_cell_angle_beta 90.000000
_cell_angle_gamma 90.000000
_cell_volume 2844.091679
_symmetry_space_group_name_H-M "C M M M"
_symmetry_group_IT_number 65
_symmetry_cell_setting 'orthorhombic'
loop_
_space_group_symop_operation_xyz
x,y,z
-x,-y,z
x,-y,-z
-x,y,-z
-x,-y,-z
x,y,-z
-x,y,z
x,-y,z
1/2+x,1/2+y,z
1/2-x,1/2-y,z
1/2+x,1/2-y,-z
1/2-x,1/2+y,-z
1/2-x,1/2-y,-z
1/2+x,1/2+y,-z
1/2-x,1/2+y,z
1/2+x,1/2-y,z
loop_
_atom_site_type_symbol
_atom_site_label
_atom_site_fract_x
_atom_site_fract_y
_atom_site_fract_z
Si Si1 0.407960 0.158973 0.139251
Si Si2 0.341026 0.758029 0.687630
Si Si3 0.092437 0.000000 0.595305
Si Si4 0.412665 0.000000 0.404899
Si Si5 0.169533 0.167626 0.000000
O O1 0.500000 0.161621 0.136208
O O2 0.378739 0.202228 0.227251
O O3 0.384366 0.000000 0.122393
O O4 0.374772 0.269446 0.076960
O O5 0.250000 0.750000 0.698117
O O6 0.375114 0.625596 0.645674
O O7 0.365567 0.873509 0.625934
O O8 0.115059 0.000000 0.500000
O O9 0.000000 0.000000 0.596822
O O10 0.500000 0.000000 0.371425
O O11 0.418256 0.000000 0.500000
O O12 0.250000 0.250000 0.000000
O O13 0.175137 0.000000 0.000000
#
# Coordination Sequence:
#
# PCOD9494017 Si02
#       5
#    16  16   8   8   8
#     4  11  24  45  72 100 137 182 232 284 343 415
#     4  12  25  41  67  99 136 178 228 287 347 406
#     4  11  25  43  63  94 137 182 229 287 351 411
#     4  11  23  43  69  94 127 178 235 283 341 421
#     4  12  27  46  73 105 143 181 225 282 341 408
#
# _framework density 19.689941999999999
#
# number of rings (size 3 to 8) (size 9 to 14) (size 15 to 20)
#    0.000    0.571    1.429    6.857    2.000    8.000 
#    0.000    0.000    0.000    0.000    0.000    0.000 
#    0.000    0.000    0.000    0.000    0.000    0.000 
#
# Total GULP energy -156461.641071 kJ/mol
# GULP energy per Si atom -5587.915753 kJ/mol
# Density = 1.964513 g / cm^3
# Si number density = 19.689942 Si / 1000 Ang^3
#
#
#
# Elastic Constant Matrix: (Units=GPa)
#
#
# Indices 1 2 3 4 5 6 
#
# 1 115.7576 57.8521 38.4703 0.0000 0.0000 0.0000
# 2 57.8521 220.6277 68.5271 0.0000 0.0000 0.0000
# 3 38.4703 68.5271 121.2145 0.0000 0.0000 0.0000
# 4 0.0000 0.0000 0.0000 40.5959 0.0000 0.0000
# 5 0.0000 0.0000 0.0000 0.0000 21.4174 0.0000
# 6 0.0000 0.0000 0.0000 0.0000 0.0000 19.1515
#
#
#
# Elastic Compliance Matrix: (Units=1/GPa)
#
#
# Indices 1 2 3 4 5 6 
#
# 1 0.010375 -0.002059 -0.002129 0.000000 0.000000 0.000000
# 2 -0.002059 0.005907 -0.002686 0.000000 0.000000 0.000000
# 3 -0.002129 -0.002686 0.010444 0.000000 0.000000 0.000000
# 4 0.000000 0.000000 0.000000 0.024633 0.000000 0.000000
# 5 0.000000 0.000000 0.000000 0.000000 0.046691 0.000000
# 6 0.000000 0.000000 0.000000 0.000000 0.000000 0.052215
#
#
# Mechanical properties :
#
#
# Convention : Reuss Voigt Hill
#
# Bulk Modulus (GPa) = 77.05118 87.47765 82.26442
# Shear Modulus (GPa) = 29.70202 35.74964 32.72583
#
# Velocity S-wave (km/s) = 3.88814 4.26564 4.08126
# Velocity P-wave (km/s) = 7.70545 8.29367 8.00497
#
# Compressibility (1/GPa) = 0.01297839
#
# Stress axis : x y z
#
# Youngs Moduli (GPa) = 96.38176 169.29883 95.75140
#
# Poissons Ratio (x) = 0.34866 0.20382
# Poissons Ratio (y) = 0.19849 0.25716
# Poissons Ratio (z) = 0.20516 0.45468
#
# Static dielectric constant tensor:
#      x y z
#    x 1.674670 0.000000 0.000000 
#    y 0.000000 1.633020 0.000000 
#    z 0.000000 0.000000 1.683030 
# 
# From -- ./inp_files/53928.got.cif
#   From: 2010.05.17/outbox.cif.g08.bks.cpg/sg65_27_cif.got.tgz:53928.got - 2010.06.03 17:01:31.
