data_PCOD9494037
_publ_section_title
;
Structure prediction by ZEFSAII (Michael W. Deem and Ramdas Pophale) SiO2 
 PCOD9494037
Probable space group: C M M M
;
_chemical_formula_sum "Si O2"
_cell_formula_units_Z 68
_cell_length_a 18.921428
_cell_length_b 20.409816
_cell_length_c 7.688109
_cell_angle_alpha 90.000000
_cell_angle_beta 90.000000
_cell_angle_gamma 90.000000
_cell_volume 2969.015952
_symmetry_space_group_name_H-M "C M M M"
_symmetry_group_IT_number 65
_symmetry_cell_setting 'orthorhombic'
loop_
_space_group_symop_operation_xyz
x,y,z
-x,-y,z
x,-y,-z
-x,y,-z
-x,-y,-z
x,y,-z
-x,y,z
x,-y,z
1/2+x,1/2+y,z
1/2-x,1/2-y,z
1/2+x,1/2-y,-z
1/2-x,1/2+y,-z
1/2-x,1/2-y,-z
1/2+x,1/2+y,-z
1/2-x,1/2+y,z
1/2+x,1/2-y,z
loop_
_atom_site_type_symbol
_atom_site_label
_atom_site_fract_x
_atom_site_fract_y
_atom_site_fract_z
Si Si1 0.281696 0.109681 0.200667
Si Si2 0.258996 0.000000 0.500000
Si Si3 0.337342 0.297779 0.197144
Si Si4 0.580201 0.827013 0.299929
Si Si5 0.415763 0.427599 0.292075
O O1 0.262194 0.056912 0.345483
O O2 0.240428 0.177315 0.250025
O O3 0.364958 0.125037 0.207116
O O4 0.262378 0.093675 0.000000
O O5 0.384090 0.244809 0.295862
O O6 0.379152 0.366662 0.204674
O O7 0.333563 0.273090 0.000000
O O8 0.577278 0.848539 0.500000
O O9 0.500000 0.824610 0.231430
O O10 0.401296 0.425054 0.500000
O O11 0.500000 0.423557 0.269680
O O12 0.393003 0.500000 0.232143
#
# Coordination Sequence:
#
# PCOD9494037 Si02
#       5
#    16   4  16  16  16
#     4  11  26  46  71 106 139 176 233 285 339 415
#     4  12  26  48  75 100 137 188 222 282 358 402
#     4  11  24  38  61  97 136 175 222 276 336 405
#     4  11  24  44  71 102 135 179 233 283 344 415
#     4   9  19  34  53  81 120 170 225 273 325 397
#
# _framework density 22.903210999999999
#
# number of rings (size 3 to 8) (size 9 to 14) (size 15 to 20)
#    0.000    1.412    1.176    3.882    4.941    8.471 
#    0.000    2.353    0.000    1.412    0.000    0.000 
#    0.000    0.000    0.000    0.000    0.000    0.000 
#
# Total GULP energy -189618.477613 kJ/mol
# GULP energy per Si atom -5577.014047 kJ/mol
# Density = 2.285108 g / cm^3
# Si number density = 22.903211 Si / 1000 Ang^3
#
#
#
# Elastic Constant Matrix: (Units=GPa)
#
#
# Indices 1 2 3 4 5 6 
#
# 1 131.8509 11.4540 24.6135 0.0000 0.0000 0.0000
# 2 11.4540 63.5897 35.7162 0.0000 0.0000 0.0000
# 3 24.6135 35.7162 107.1019 0.0000 0.0000 0.0000
# 4 0.0000 0.0000 0.0000 21.1339 0.0000 0.0000
# 5 0.0000 0.0000 0.0000 0.0000 29.4293 0.0000
# 6 0.0000 0.0000 0.0000 0.0000 0.0000 18.4430
#
#
#
# Elastic Compliance Matrix: (Units=1/GPa)
#
#
# Indices 1 2 3 4 5 6 
#
# 1 0.007937 -0.000499 -0.001658 0.000000 0.000000 0.000000
# 2 -0.000499 0.019382 -0.006349 0.000000 0.000000 0.000000
# 3 -0.001658 -0.006349 0.011835 0.000000 0.000000 0.000000
# 4 0.000000 0.000000 0.000000 0.047317 0.000000 0.000000
# 5 0.000000 0.000000 0.000000 0.000000 0.033980 0.000000
# 6 0.000000 0.000000 0.000000 0.000000 0.000000 0.054221
#
#
# Mechanical properties :
#
#
# Convention : Reuss Voigt Hill
#
# Bulk Modulus (GPa) = 45.15996 49.56776 47.36386
# Shear Modulus (GPa) = 25.11767 29.18518 27.15142
#
# Velocity S-wave (km/s) = 3.31522 3.57358 3.44682
# Velocity P-wave (km/s) = 5.86641 6.22227 6.04696
#
# Compressibility (1/GPa) = 0.02214351
#
# Stress axis : x y z
#
# Youngs Moduli (GPa) = 125.99053 51.59555 84.49465
#
# Poissons Ratio (x) = 0.02572 0.14008
# Poissons Ratio (y) = 0.06281 0.53644
# Poissons Ratio (z) = 0.20887 0.32757
#
# Static dielectric constant tensor:
#      x y z
#    x 1.921630 0.000000 0.000000 
#    y 0.000000 1.842000 0.000000 
#    z 0.000000 0.000000 1.831880 
# 
# From -- ./inp_files/8926.got.cif
#   From: 2010.05.17/outbox.cif.g08.bks.cpg/sg65_5_cif.got.tgz:8926.got - 2010.06.03 17:01:31.
