data_PCOD9494466
_publ_section_title
;
Structure prediction by ZEFSAII (Michael W. Deem and Ramdas Pophale) SiO2 
 PCOD9494466
Probable space group: C M M M
;
_chemical_formula_sum "Si O2"
_cell_formula_units_Z 64
_cell_length_a 7.266427
_cell_length_b 35.702392
_cell_length_c 11.041456
_cell_angle_alpha 90.000000
_cell_angle_beta 90.000000
_cell_angle_gamma 90.000000
_cell_volume 2864.471959
_symmetry_space_group_name_H-M "C M M M"
_symmetry_group_IT_number 65
_symmetry_cell_setting 'orthorhombic'
loop_
_space_group_symop_operation_xyz
x,y,z
-x,-y,z
x,-y,-z
-x,y,-z
-x,-y,-z
x,y,-z
-x,y,z
x,-y,z
1/2+x,1/2+y,z
1/2-x,1/2-y,z
1/2+x,1/2-y,-z
1/2-x,1/2+y,-z
1/2-x,1/2-y,-z
1/2+x,1/2+y,-z
1/2-x,1/2+y,z
1/2+x,1/2-y,z
loop_
_atom_site_type_symbol
_atom_site_label
_atom_site_fract_x
_atom_site_fract_y
_atom_site_fract_z
Si Si1 0.781056 0.705589 0.365457
Si Si2 0.222835 0.544161 0.500000
Si Si3 0.224713 0.343700 0.138699
Si Si4 0.206755 0.500000 0.858188
Si Si5 0.275665 0.076721 0.245280
O O1 0.711112 0.694080 0.500000
O O2 0.750000 0.750000 0.354176
O O3 0.713659 0.684348 0.245561
O O4 0.000000 0.699010 0.368582
O O5 0.283082 0.500000 0.500000
O O6 0.277201 0.568034 0.617045
O O7 0.000000 0.542239 0.500000
O O8 0.283112 0.385081 0.182289
O O9 0.000000 0.342790 0.136698
O O10 0.282889 0.335859 0.000000
O O11 0.289656 0.539232 0.820978
O O12 0.000000 0.500000 0.801259
O O13 0.189904 0.500000 0.000000
O O14 0.500000 0.078173 0.239875
#
# Coordination Sequence:
#
# PCOD9494466 Si02
#       5
#    16   8  16   8  16
#     4   9  18  32  49  68  89 114 144 178 218 263
#     4   9  14  20  28  42  63  94 137 179 213 247
#     4   9  17  27  39  57  80 107 141 179 217 258
#     4   9  14  19  27  39  61  96 134 169 204 242
#     4   9  15  21  30  45  68  98 135 175 210 247
#
# _framework density 22.342684999999999
#
# number of rings (size 3 to 8) (size 9 to 14) (size 15 to 20)
#    0.000    3.000    1.250    0.750    1.750    3.500 
#    0.000    0.000    0.000    0.000    0.000    0.000 
#    0.000    0.000    0.000    1.125    0.000   20.250 
#
# Total GULP energy -178473.347198 kJ/mol
# GULP energy per Si atom -5577.292100 kJ/mol
# Density = 2.229183 g / cm^3
# Si number density = 22.342685 Si / 1000 Ang^3
#
#
#
# Elastic Constant Matrix: (Units=GPa)
#
#
# Indices 1 2 3 4 5 6 
#
# 1 97.9900 0.5941 9.6713 0.0000 0.0000 0.0000
# 2 0.5941 128.4533 118.4426 0.0000 0.0000 0.0000
# 3 9.6713 118.4426 245.1093 0.0000 0.0000 0.0000
# 4 0.0000 0.0000 0.0000 15.4634 0.0000 0.0000
# 5 0.0000 0.0000 0.0000 0.0000 -20.4612 0.0000
# 6 0.0000 0.0000 0.0000 0.0000 0.0000 0.0882
#
#
#
# Elastic Compliance Matrix: (Units=1/GPa)
#
#
# Indices 1 2 3 4 5 6 
#
# 1 0.010270 0.000588 -0.000689 0.000000 0.000000 0.000000
# 2 0.000588 0.014075 -0.006825 0.000000 0.000000 0.000000
# 3 -0.000689 -0.006825 0.007405 0.000000 0.000000 0.000000
# 4 0.000000 0.000000 0.000000 0.064669 0.000000 0.000000
# 5 0.000000 0.000000 0.000000 0.000000 -0.048873 0.000000
# 6 0.000000 0.000000 0.000000 0.000000 0.000000 11.333509
#
#
# Mechanical properties :
#
#
# Convention : Reuss Voigt Hill
#
# Bulk Modulus (GPa) = 55.87291 80.99653 68.43472
# Shear Modulus (GPa) = 0.43856 21.87438 11.15647
#
# Velocity S-wave (km/s) = 0.44353 3.13236 2.23700
# Velocity P-wave (km/s) = 5.03228 7.02943 6.11296
#
# Compressibility (1/GPa) = 0.01789776
#
# Stress axis : x y z
#
# Youngs Moduli (GPa) = 97.37475 71.04850 135.04767
#
# Poissons Ratio (x) = -0.04179 0.09311
# Poissons Ratio (y) = -0.05728 0.92164
# Poissons Ratio (z) = 0.06714 0.48487
#
# Static dielectric constant tensor:
#      x y z
#    x 2.011520 0.000000 0.000000 
#    y 0.000000 1.778640 0.000000 
#    z 0.000000 0.000000 1.849300 
# 
# From -- ./inp_files/22396.got.cif
#   From: 2010.05.17/outbox.cif.g08.bks.cpg/sg65_12_cif.got.tgz:22396.got - 2010.06.03 17:01:31.
