data_PCOD9495364
_publ_section_title
;
Structure prediction by ZEFSAII (Michael W. Deem and Ramdas Pophale) SiO2 
 PCOD9495364
Probable space group: C C C M
;
_chemical_formula_sum "Si O2"
_cell_formula_units_Z 120
_cell_length_a 14.644375
_cell_length_b 28.711955
_cell_length_c 15.532032
_cell_angle_alpha 90.000000
_cell_angle_beta 90.000000
_cell_angle_gamma 90.000000
_cell_volume 6530.732309
_symmetry_space_group_name_H-M "C C C M"
_symmetry_group_IT_number 66
_symmetry_cell_setting 'orthorhombic'
loop_
_space_group_symop_operation_xyz
x,y,z
-x,-y,z
x,-y,1/2-z
-x,y,1/2-z
-x,-y,-z
x,y,-z
-x,y,1/2+z
x,-y,1/2+z
1/2+x,1/2+y,z
1/2-x,1/2-y,z
1/2+x,1/2-y,1/2-z
1/2-x,1/2+y,1/2-z
1/2-x,1/2-y,-z
1/2+x,1/2+y,-z
1/2-x,1/2+y,1/2+z
1/2+x,1/2-y,1/2+z
loop_
_atom_site_type_symbol
_atom_site_label
_atom_site_fract_x
_atom_site_fract_y
_atom_site_fract_z
Si Si1 0.561684 0.302956 0.898791
Si Si2 0.312653 0.951480 0.401985
Si Si3 0.495147 0.898738 0.647859
Si Si4 0.309127 0.062150 0.402417
Si Si5 0.299238 0.398603 0.758609
Si Si6 0.750905 0.302211 0.199457
Si Si7 0.000000 0.870950 0.250000
Si Si8 0.058353 0.696813 0.898361
O O1 0.668766 0.303194 0.870860
O O2 0.512484 0.338172 0.833952
O O3 0.527838 0.249967 0.883352
O O4 0.552469 0.313842 0.000000
O O5 0.282607 0.943667 0.500000
O O6 0.411327 0.927907 0.388782
O O7 0.245621 0.928165 0.333829
O O8 0.318120 0.006842 0.387740
O O9 0.500000 0.905891 0.750000
O O10 0.590658 0.915835 0.608522
O O11 0.488950 0.843660 0.628661
O O12 0.277052 0.070447 0.500000
O O13 0.242658 0.083865 0.331620
O O14 0.270465 0.344184 0.763946
O O15 0.408027 0.400335 0.758304
O O16 0.750000 0.250000 0.236885
O O17 0.848088 0.310372 0.154394
O O18 0.077614 0.692493 0.000000
#
# Coordination Sequence:
#
# PCOD9495364 Si02
#       8
#    16  16  16  16  16  16   8  16
#     4   9  19  34  55  81 115 156 197 246 297 344
#     4  11  24  41  60  87 124 161 194 234 290 361
#     4  12  22  34  58  91 125 163 192 233 284 354
#     4  11  23  40  64  90 119 153 196 248 296 348
#     4  11  22  41  62  86 115 156 199 248 302 354
#     4   9  17  32  56  87 117 150 197 249 296 335
#     4  10  24  40  61  86 112 152 199 256 304 354
#     4  10  18  30  52  85 121 156 196 239 284 340
#
# _framework density 18.374661
#
# number of rings (size 3 to 8) (size 9 to 14) (size 15 to 20)
#    0.000    1.600    2.667    2.400    0.933    5.867 
#    2.400    1.333    0.000    2.000    0.000    0.000 
#    0.000    0.000    0.000    0.000    0.000    0.000 
#
# Total GULP energy -335164.171620 kJ/mol
# GULP energy per Si atom -5586.069527 kJ/mol
# Density = 1.833284 g / cm^3
# Si number density = 18.374661 Si / 1000 Ang^3
#
#
#
# Elastic Constant Matrix: (Units=GPa)
#
#
# Indices 1 2 3 4 5 6 
#
# 1 94.7116 31.5204 23.9156 0.0000 0.0000 0.0000
# 2 31.5204 85.3611 40.0356 0.0000 0.0000 0.0000
# 3 23.9156 40.0356 75.7868 0.0000 0.0000 0.0000
# 4 0.0000 0.0000 0.0000 28.8258 0.0000 0.0000
# 5 0.0000 0.0000 0.0000 0.0000 10.5098 0.0000
# 6 0.0000 0.0000 0.0000 0.0000 0.0000 22.0911
#
#
#
# Elastic Compliance Matrix: (Units=1/GPa)
#
#
# Indices 1 2 3 4 5 6 
#
# 1 0.012253 -0.003604 -0.001963 0.000000 0.000000 0.000000
# 2 -0.003604 0.016634 -0.007650 0.000000 0.000000 0.000000
# 3 -0.001963 -0.007650 0.017855 0.000000 0.000000 0.000000
# 4 0.000000 0.000000 0.000000 0.034691 0.000000 0.000000
# 5 0.000000 0.000000 0.000000 0.000000 0.095149 0.000000
# 6 0.000000 0.000000 0.000000 0.000000 0.000000 0.045267
#
#
# Mechanical properties :
#
#
# Convention : Reuss Voigt Hill
#
# Bulk Modulus (GPa) = 49.23865 49.64477 49.44171
# Shear Modulus (GPa) = 19.60382 22.97789 21.29085
#
# Velocity S-wave (km/s) = 3.26988 3.54011 3.40767
# Velocity P-wave (km/s) = 6.41181 6.61714 6.51528
#
# Compressibility (1/GPa) = 0.02030925
#
# Stress axis : x y z
#
# Youngs Moduli (GPa) = 81.60960 60.11933 56.00560
#
# Poissons Ratio (x) = 0.21668 0.10993
# Poissons Ratio (y) = 0.29413 0.42842
# Poissons Ratio (z) = 0.16019 0.45989
#
# Static dielectric constant tensor:
#      x y z
#    x 1.612090 0.000000 0.000000 
#    y 0.000000 1.657670 0.000000 
#    z 0.000000 0.000000 1.620700 
# 
# From -- ./inp_files/29054.got.cif
#   From: 2010.05.17/outbox.cif.g08.bks.cpg/sg66_15_cif.got.tgz:29054.got - 2010.06.03 17:51:23.
