data_PCOD9495679
_publ_section_title
;
Structure prediction by ZEFSAII (Michael W. Deem and Ramdas Pophale) SiO2 
 PCOD9495679
Probable space group: C C C M
;
_chemical_formula_sum "Si O2"
_cell_formula_units_Z 48
_cell_length_a 5.829851
_cell_length_b 14.615068
_cell_length_c 26.600623
_cell_angle_alpha 90.000000
_cell_angle_beta 90.000000
_cell_angle_gamma 90.000000
_cell_volume 2266.470672
_symmetry_space_group_name_H-M "C C C M"
_symmetry_group_IT_number 66
_symmetry_cell_setting 'orthorhombic'
loop_
_space_group_symop_operation_xyz
x,y,z
-x,-y,z
x,-y,1/2-z
-x,y,1/2-z
-x,-y,-z
x,y,-z
-x,y,1/2+z
x,-y,1/2+z
1/2+x,1/2+y,z
1/2-x,1/2-y,z
1/2+x,1/2-y,1/2-z
1/2-x,1/2+y,1/2-z
1/2-x,1/2-y,-z
1/2+x,1/2+y,-z
1/2-x,1/2+y,1/2+z
1/2+x,1/2-y,1/2+z
loop_
_atom_site_type_symbol
_atom_site_label
_atom_site_fract_x
_atom_site_fract_y
_atom_site_fract_z
Si Si1 0.853793 0.349665 0.200457
Si Si2 0.641678 0.905217 0.891909
Si Si3 0.000000 0.000000 0.326270
Si Si4 0.746108 0.057355 0.500000
O O1 0.750000 0.250000 0.206630
O O2 0.679645 0.434935 0.200845
O O3 0.000000 0.365815 0.250000
O O4 0.989176 0.347162 0.146925
O O5 0.868131 0.928813 0.861450
O O6 0.720244 0.884042 0.948700
O O7 0.500000 0.000000 0.895585
O O8 0.500000 0.000000 0.500000
O O9 0.000000 0.000000 0.500000
#
# Coordination Sequence:
#
# PCOD9495679 Si02
#       4
#    16  16   8   8
#     4  11  27  45  64  99 137 183 234 296 361 429
#     4   9  20  38  66 100 132 180 230 286 353 432
#     4  10  22  44  68  90 134 173 232 287 350 434
#     4  10  18  36  67 107 141 182 238 295 357 428
#
# _framework density 21.178301000000001
#
# number of rings (size 3 to 8) (size 9 to 14) (size 15 to 20)
#    0.000    2.000    1.667    0.000    4.667    7.333 
#    0.000    0.833    0.000    2.000    0.000    0.000 
#    0.000    0.000    0.000    0.000    0.000    0.000 
#
# Total GULP energy -133604.481942 kJ/mol
# GULP energy per Si atom -5566.853414 kJ/mol
# Density = 2.113010 g / cm^3
# Si number density = 21.178301 Si / 1000 Ang^3
#
#
#
# Elastic Constant Matrix: (Units=GPa)
#
#
# Indices 1 2 3 4 5 6 
#
# 1 120.8542 41.1861 91.0577 0.0000 0.0000 0.0000
# 2 41.1861 64.0872 70.9816 0.0000 0.0000 0.0000
# 3 91.0577 70.9816 202.2224 0.0000 0.0000 0.0000
# 4 0.0000 0.0000 0.0000 25.5891 0.0000 0.0000
# 5 0.0000 0.0000 0.0000 0.0000 -0.8902 0.0000
# 6 0.0000 0.0000 0.0000 0.0000 0.0000 39.4336
#
#
#
# Elastic Compliance Matrix: (Units=1/GPa)
#
#
# Indices 1 2 3 4 5 6 
#
# 1 0.012873 -0.003031 -0.004733 0.000000 0.000000 0.000000
# 2 -0.003031 0.026242 -0.007846 0.000000 0.000000 0.000000
# 3 -0.004733 -0.007846 0.009830 0.000000 0.000000 0.000000
# 4 0.000000 0.000000 0.000000 0.039079 0.000000 0.000000
# 5 0.000000 0.000000 0.000000 0.000000 -1.123331 0.000000
# 6 0.000000 0.000000 0.000000 0.000000 0.000000 0.025359
#
#
# Mechanical properties :
#
#
# Convention : Reuss Voigt Hill
#
# Bulk Modulus (GPa) = 56.41683 88.17939 72.29811
# Shear Modulus (GPa) = -5.13971 25.08905 9.97467
#
# Velocity S-wave (km/s) = -1.55953 3.44562 2.17257
# Velocity P-wave (km/s) = 4.84293 7.58662 6.36438
#
# Compressibility (1/GPa) = 0.01772521
#
# Stress axis : x y z
#
# Youngs Moduli (GPa) = 77.68018 38.10659 101.72787
#
# Poissons Ratio (x) = 0.11552 0.48144
# Poissons Ratio (y) = 0.23548 0.79818
# Poissons Ratio (z) = 0.36763 0.29899
#
# Static dielectric constant tensor:
#      x y z
#    x 1.747900 0.000000 0.000000 
#    y 0.000000 1.711380 0.000000 
#    z 0.000000 0.000000 1.823460 
# 
# From -- ./inp_files/60901.got.cif
#   From: 2010.05.17/outbox.cif.g08.bks.cpg/sg66_31_cif.got.tgz:60901.got - 2010.06.03 17:51:23.
