data_PCOD9495238
_publ_section_title
;
Structure prediction by ZEFSAII (Michael W. Deem and Ramdas Pophale) SiO2 
 PCOD9495238
Probable space group: C C C M
;
_chemical_formula_sum "Si O2"
_cell_formula_units_Z 96
_cell_length_a 27.320446
_cell_length_b 30.027576
_cell_length_c 8.490952
_cell_angle_alpha 90.000000
_cell_angle_beta 90.000000
_cell_angle_gamma 90.000000
_cell_volume 6965.694855
_symmetry_space_group_name_H-M "C C C M"
_symmetry_group_IT_number 66
_symmetry_cell_setting 'orthorhombic'
loop_
_space_group_symop_operation_xyz
x,y,z
-x,-y,z
x,-y,1/2-z
-x,y,1/2-z
-x,-y,-z
x,y,-z
-x,y,1/2+z
x,-y,1/2+z
1/2+x,1/2+y,z
1/2-x,1/2-y,z
1/2+x,1/2-y,1/2-z
1/2-x,1/2+y,1/2-z
1/2-x,1/2-y,-z
1/2+x,1/2+y,-z
1/2-x,1/2+y,1/2+z
1/2+x,1/2-y,1/2+z
loop_
_atom_site_type_symbol
_atom_site_label
_atom_site_fract_x
_atom_site_fract_y
_atom_site_fract_z
Si Si1 0.553778 0.140484 0.188659
Si Si2 0.699403 0.278494 0.683525
Si Si3 0.786408 0.547755 0.311822
Si Si4 0.145024 0.694739 0.308950
Si Si5 0.742179 0.859679 0.809400
Si Si6 0.900238 0.452255 0.189717
O O1 0.500000 0.151113 0.250000
O O2 0.594809 0.174715 0.247533
O O3 0.569788 0.090825 0.243888
O O4 0.553885 0.140290 0.000000
O O5 0.686652 0.285667 0.500000
O O6 0.750000 0.250000 0.684976
O O7 0.659140 0.244464 0.749422
O O8 0.715095 0.326396 0.750008
O O9 0.768936 0.500000 0.250000
O O10 0.786119 0.547720 0.500000
O O11 0.756997 0.590140 0.249832
O O12 0.843398 0.552598 0.258507
O O13 0.144473 0.695631 0.500000
O O14 0.190073 0.662343 0.261702
O O15 0.743390 0.859163 0.000000
O O16 0.918450 0.500000 0.250000
O O17 0.900721 0.453034 0.000000
#
# Coordination Sequence:
#
# PCOD9495238 Si02
#       6
#    16  16  16  16  16  16
#     4  11  22  34  44  58  76  98 129 167 208 249
#     4   7  12  23  40  62  82  99 123 151 186 233
#     4  10  18  28  40  57  79 104 133 164 200 239
#     4   9  16  28  45  61  78 101 126 158 196 236
#     4   9  15  25  43  63  81 102 127 157 192 233
#     4   9  19  32  44  55  71  94 125 165 207 246
#
# _framework density 13.781826000000001
#
# number of rings (size 3 to 8) (size 9 to 14) (size 15 to 20)
#    0.000    2.833    1.667    3.000    0.000    2.333 
#    0.000    2.500    0.000    3.000    0.000    0.000 
#    0.000    0.000    0.000    0.000    0.000    0.833 
#
# Total GULP energy -267271.035116 kJ/mol
# GULP energy per Si atom -5568.146565 kJ/mol
# Density = 1.375046 g / cm^3
# Si number density = 13.781826 Si / 1000 Ang^3
#
#
#
# Elastic Constant Matrix: (Units=GPa)
#
#
# Indices 1 2 3 4 5 6 
#
# 1 59.6569 63.2398 13.3630 0.0000 0.0000 0.0000
# 2 63.2398 126.8940 22.7281 0.0000 0.0000 0.0000
# 3 13.3630 22.7281 12.7547 0.0000 0.0000 0.0000
# 4 0.0000 0.0000 0.0000 16.2281 0.0000 0.0000
# 5 0.0000 0.0000 0.0000 0.0000 -1.4878 0.0000
# 6 0.0000 0.0000 0.0000 0.0000 0.0000 17.9761
#
#
#
# Elastic Compliance Matrix: (Units=1/GPa)
#
#
# Indices 1 2 3 4 5 6 
#
# 1 0.036149 -0.016498 -0.008476 0.000000 0.000000 0.000000
# 2 -0.016498 0.019104 -0.016758 0.000000 0.000000 0.000000
# 3 -0.008476 -0.016758 0.117143 0.000000 0.000000 0.000000
# 4 0.000000 0.000000 0.000000 0.061622 0.000000 0.000000
# 5 0.000000 0.000000 0.000000 0.000000 -0.672132 0.000000
# 6 0.000000 0.000000 0.000000 0.000000 0.000000 0.055630
#
#
# Mechanical properties :
#
#
# Convention : Reuss Voigt Hill
#
# Bulk Modulus (GPa) = 11.24418 44.21857 27.73138
# Shear Modulus (GPa) = -18.56131 13.20825 -2.67653
#
# Velocity S-wave (km/s) = -3.67385 3.09913 -1.39509
# Velocity P-wave (km/s) = 3.13366 6.70526 4.19170
#
# Compressibility (1/GPa) = 0.08893489
#
# Stress axis : x y z
#
# Youngs Moduli (GPa) = 27.66297 52.34533 8.53655
#
# Poissons Ratio (x) = 0.86357 0.07235
# Poissons Ratio (y) = 0.45637 0.14305
# Poissons Ratio (z) = 0.23446 0.87718
#
# Static dielectric constant tensor:
#      x y z
#    x 1.432390 0.000000 0.000000 
#    y 0.000000 1.478350 0.000000 
#    z 0.000000 0.000000 1.467500 
# 
# From -- ./inp_files/9279.got.cif
#   From: 2010.05.17/outbox.cif.g08.bks.cpg/sg66_5_cif.got.tgz:9279.got - 2010.06.03 17:51:23.
