data_PCOD9495018
_publ_section_title
;
Structure prediction by ZEFSAII (Michael W. Deem and Ramdas Pophale) SiO2 
 PCOD9495018
Probable space group: C C C M
;
_chemical_formula_sum "Si O2"
_cell_formula_units_Z 48
_cell_length_a 14.580058
_cell_length_b 7.625517
_cell_length_c 15.752160
_cell_angle_alpha 90.000000
_cell_angle_beta 90.000000
_cell_angle_gamma 90.000000
_cell_volume 1751.332712
_symmetry_space_group_name_H-M "C C C M"
_symmetry_group_IT_number 66
_symmetry_cell_setting 'orthorhombic'
loop_
_space_group_symop_operation_xyz
x,y,z
-x,-y,z
x,-y,1/2-z
-x,y,1/2-z
-x,-y,-z
x,y,-z
-x,y,1/2+z
x,-y,1/2+z
1/2+x,1/2+y,z
1/2-x,1/2-y,z
1/2+x,1/2-y,1/2-z
1/2-x,1/2+y,1/2-z
1/2-x,1/2-y,-z
1/2+x,1/2+y,-z
1/2-x,1/2+y,1/2+z
1/2+x,1/2-y,1/2+z
loop_
_atom_site_type_symbol
_atom_site_label
_atom_site_fract_x
_atom_site_fract_y
_atom_site_fract_z
Si Si1 0.379763 0.868961 0.328245
Si Si2 0.047092 0.806586 0.903215
Si Si3 0.205383 0.027700 0.901334
O O1 0.484543 0.820246 0.348482
O O2 0.314796 0.964709 0.397392
O O3 0.333777 0.673646 0.335772
O O4 0.368645 0.000000 0.250000
O O5 0.151530 0.850350 0.879681
O O6 0.042047 0.746304 0.000000
O O7 0.000000 0.000000 0.899062
O O8 0.179001 0.069348 0.000000
#
# Coordination Sequence:
#
# PCOD9495018 Si02
#       3
#    16  16  16
#     4  10  17  26  49  93 143 179 223 293 360 414
#     4   8  14  27  50  82 127 183 236 286 345 418
#     4   9  17  32  55  86 134 191 239 286 346 425
#
# _framework density 27.407699000000001
#
# number of rings (size 3 to 8) (size 9 to 14) (size 15 to 20)
#    0.000    3.000    0.000    6.000    0.000    0.000 
#    0.000    0.000    0.000   25.000    0.000   60.667 
#    0.000  206.667    0.000  120.333    0.000    3.000 
#
# Total GULP energy -134040.542055 kJ/mol
# GULP energy per Si atom -5585.022586 kJ/mol
# Density = 2.734532 g / cm^3
# Si number density = 27.407699 Si / 1000 Ang^3
#
#
#
# Elastic Constant Matrix: (Units=GPa)
#
#
# Indices 1 2 3 4 5 6 
#
# 1 161.2139 41.0315 48.6365 0.0000 0.0000 0.0000
# 2 41.0315 167.1906 69.1318 0.0000 0.0000 0.0000
# 3 48.6365 69.1318 149.4539 0.0000 0.0000 0.0000
# 4 0.0000 0.0000 0.0000 -347.2892 0.0000 0.0000
# 5 0.0000 0.0000 0.0000 0.0000 26.5278 0.0000
# 6 0.0000 0.0000 0.0000 0.0000 0.0000 61.6816
#
#
#
# Elastic Compliance Matrix: (Units=1/GPa)
#
#
# Indices 1 2 3 4 5 6 
#
# 1 0.007001 -0.000960 -0.001834 0.000000 0.000000 0.000000
# 2 -0.000960 0.007527 -0.003170 0.000000 0.000000 0.000000
# 3 -0.001834 -0.003170 0.008754 0.000000 0.000000 0.000000
# 4 0.000000 0.000000 0.000000 -0.002879 0.000000 0.000000
# 5 0.000000 0.000000 0.000000 0.000000 0.037696 0.000000
# 6 0.000000 0.000000 0.000000 0.000000 0.000000 0.016212
#
#
# Mechanical properties :
#
#
# Convention : Reuss Voigt Hill
#
# Bulk Modulus (GPa) = 88.06691 88.38423 88.22557
# Shear Modulus (GPa) = 55.54137 -30.54537 12.49800
#
# Velocity S-wave (km/s) = 4.50654 -3.34201 2.13774
# Velocity P-wave (km/s) = 7.69938 4.17444 6.19300
#
# Compressibility (1/GPa) = 0.01135500
#
# Stress axis : x y z
#
# Youngs Moduli (GPa) = 142.84573 132.85006 114.23248
#
# Poissons Ratio (x) = 0.12748 0.20954
# Poissons Ratio (y) = 0.13707 0.36207
# Poissons Ratio (z) = 0.26202 0.42108
#
# Static dielectric constant tensor:
#      x y z
#    x 2.239240 0.000000 0.000000 
#    y 0.000000 2.158770 0.000000 
#    z 0.000000 0.000000 2.071450 
# 
# From -- ./inp_files/29343.got.cif
#   From: 2010.05.17/outbox.cif.g08.bks.cpg/sg66_15_cif.got.tgz:29343.got - 2010.06.03 17:51:23.
