data_PCOD9495581
_publ_section_title
;
Structure prediction by ZEFSAII (Michael W. Deem and Ramdas Pophale) SiO2 
 PCOD9495581
Probable space group: C C C M
;
_chemical_formula_sum "Si O2"
_cell_formula_units_Z 80
_cell_length_a 11.038118
_cell_length_b 13.630892
_cell_length_c 25.303061
_cell_angle_alpha 90.000000
_cell_angle_beta 90.000000
_cell_angle_gamma 90.000000
_cell_volume 3807.083233
_symmetry_space_group_name_H-M "C C C M"
_symmetry_group_IT_number 66
_symmetry_cell_setting 'orthorhombic'
loop_
_space_group_symop_operation_xyz
x,y,z
-x,-y,z
x,-y,1/2-z
-x,y,1/2-z
-x,-y,-z
x,y,-z
-x,y,1/2+z
x,-y,1/2+z
1/2+x,1/2+y,z
1/2-x,1/2-y,z
1/2+x,1/2-y,1/2-z
1/2-x,1/2+y,1/2-z
1/2-x,1/2-y,-z
1/2+x,1/2+y,-z
1/2-x,1/2+y,1/2+z
1/2+x,1/2-y,1/2+z
loop_
_atom_site_type_symbol
_atom_site_label
_atom_site_fract_x
_atom_site_fract_y
_atom_site_fract_z
Si Si1 0.619646 0.143119 0.228284
Si Si2 0.869938 0.137085 0.271791
Si Si3 0.320642 0.146363 0.613123
Si Si4 0.678519 0.146551 0.000000
Si Si5 0.637903 0.460608 0.383942
Si Si6 0.361766 0.462783 0.000000
O O1 0.500000 0.094808 0.250000
O O2 0.753420 0.101342 0.238645
O O3 0.625137 0.247046 0.259082
O O4 0.601629 0.151777 0.165738
O O5 0.849795 0.108348 0.332743
O O6 0.000000 0.101511 0.250000
O O7 0.250000 0.250000 0.612877
O O8 0.386932 0.138915 0.556437
O O9 0.228436 0.054382 0.618302
O O10 0.750000 0.250000 0.000000
O O11 0.776869 0.059281 0.000000
O O12 0.500000 0.500000 0.382399
O O13 0.657228 0.413421 0.442517
O O14 0.500000 0.500000 0.000000
#
# Coordination Sequence:
#
# PCOD9495581 Si02
#       6
#    16  16  16   8  16   8
#     4  10  21  36  53  74 116 150 179 227 280 330
#     4  10  20  36  54  80 108 144 187 227 275 332
#     4  10  18  34  50  78 110 142 179 229 283 334
#     4   8  16  28  52  71 100 141 181 221 275 336
#     4  10  20  31  57  82 107 139 185 232 279 333
#     4   8  16  32  46  80 112 130 166 238 293 315
#
# _framework density 21.013462000000001
#
# number of rings (size 3 to 8) (size 9 to 14) (size 15 to 20)
#    0.000    2.400    2.000    1.200    2.800    2.800 
#    0.000    2.000    0.000    3.600    0.000    4.200 
#    0.000    0.000    0.000    0.000    0.000    0.000 
#
# Total GULP energy -222672.275753 kJ/mol
# GULP energy per Si atom -5566.806894 kJ/mol
# Density = 2.096563 g / cm^3
# Si number density = 21.013462 Si / 1000 Ang^3
#
#
#
# Elastic Constant Matrix: (Units=GPa)
#
#
# Indices 1 2 3 4 5 6 
#
# 1 84.2476 -0.3063 32.0224 0.0000 0.0000 0.0000
# 2 -0.3063 86.3953 38.7274 0.0000 0.0000 0.0000
# 3 32.0224 38.7274 270.8298 0.0000 0.0000 0.0000
# 4 0.0000 0.0000 0.0000 30.0853 0.0000 0.0000
# 5 0.0000 0.0000 0.0000 0.0000 -392.3894 0.0000
# 6 0.0000 0.0000 0.0000 0.0000 0.0000 -27.6914
#
#
#
# Elastic Compliance Matrix: (Units=1/GPa)
#
#
# Indices 1 2 3 4 5 6 
#
# 1 0.012474 0.000754 -0.001583 0.000000 0.000000 0.000000
# 2 0.000754 0.012413 -0.001864 0.000000 0.000000 0.000000
# 3 -0.001583 -0.001864 0.004146 0.000000 0.000000 0.000000
# 4 0.000000 0.000000 0.000000 0.033239 0.000000 0.000000
# 5 0.000000 0.000000 0.000000 0.000000 -0.002548 0.000000
# 6 0.000000 0.000000 0.000000 0.000000 0.000000 -0.036112
#
#
# Mechanical properties :
#
#
# Convention : Reuss Voigt Hill
#
# Bulk Modulus (GPa) = 42.28890 64.70663 53.49776
# Shear Modulus (GPa) = 135.57594 -53.26384 41.15605
#
# Velocity S-wave (km/s) = 8.04106 -5.04009 4.43036
# Velocity P-wave (km/s) = 10.31406 1.73500 7.18922
#
# Compressibility (1/GPa) = 0.02364687
#
# Stress axis : x y z
#
# Youngs Moduli (GPa) = 80.16616 80.56084 241.19349
#
# Poissons Ratio (x) = -0.06072 0.38173
# Poissons Ratio (y) = -0.06042 0.44961
# Poissons Ratio (z) = 0.12688 0.15017
#
# Static dielectric constant tensor:
#      x y z
#    x 1.797040 0.000000 0.000000 
#    y 0.000000 1.838220 0.000000 
#    z 0.000000 0.000000 1.835330 
# 
# From -- ./inp_files/48444.got.cif
#   From: 2010.05.17/outbox.cif.g08.bks.cpg/sg66_25_cif.got.tgz:48444.got - 2010.06.03 17:51:23.
