data_PCOD9495778
_publ_section_title
;
Structure prediction by ZEFSAII (Michael W. Deem and Ramdas Pophale) SiO2 
 PCOD9495778
Probable space group: C C C M
;
_chemical_formula_sum "Si O2"
_cell_formula_units_Z 56
_cell_length_a 17.967022
_cell_length_b 8.718216
_cell_length_c 13.811461
_cell_angle_alpha 90.000000
_cell_angle_beta 90.000000
_cell_angle_gamma 90.000000
_cell_volume 2163.432481
_symmetry_space_group_name_H-M "C C C M"
_symmetry_group_IT_number 66
_symmetry_cell_setting 'orthorhombic'
loop_
_space_group_symop_operation_xyz
x,y,z
-x,-y,z
x,-y,1/2-z
-x,y,1/2-z
-x,-y,-z
x,y,-z
-x,y,1/2+z
x,-y,1/2+z
1/2+x,1/2+y,z
1/2-x,1/2-y,z
1/2+x,1/2-y,1/2-z
1/2-x,1/2+y,1/2-z
1/2-x,1/2-y,-z
1/2+x,1/2+y,-z
1/2-x,1/2+y,1/2+z
1/2+x,1/2-y,1/2+z
loop_
_atom_site_type_symbol
_atom_site_label
_atom_site_fract_x
_atom_site_fract_y
_atom_site_fract_z
Si Si1 0.541004 0.685768 0.604461
Si Si2 0.750000 0.250000 0.226573
Si Si3 0.110917 0.807746 0.690185
Si Si4 0.864473 0.469859 0.111219
O O1 0.570286 0.634713 0.500000
O O2 0.453848 0.648914 0.615641
O O3 0.579931 0.642570 0.704597
O O4 0.560862 0.866590 0.606844
O O5 0.802715 0.152574 0.299507
O O6 0.801153 0.358541 0.158303
O O7 0.118771 0.624149 0.670031
O O8 0.844127 0.508655 0.000000
#
# Coordination Sequence:
#
# PCOD9495778 Si02
#       4
#    16   8  16  16
#     4   9  17  30  49  72  98 127 158 200 256 308
#     4  10  19  30  45  70 104 136 163 196 243 298
#     4  10  19  31  49  74 103 131 163 203 247 298
#     4  10  19  32  51  74 101 131 164 204 250 301
#
# _framework density 25.884791
#
# number of rings (size 3 to 8) (size 9 to 14) (size 15 to 20)
#    0.000    2.286    0.000    5.571    0.000    8.000 
#    0.000    2.857    0.000    3.429    0.000   64.000 
#    0.000   82.286    0.000    0.000    0.000    0.000 
#
# Total GULP energy -156090.701201 kJ/mol
# GULP energy per Si atom -5574.667900 kJ/mol
# Density = 2.582588 g / cm^3
# Si number density = 25.884791 Si / 1000 Ang^3
#
#
#
# Elastic Constant Matrix: (Units=GPa)
#
#
# Indices 1 2 3 4 5 6 
#
# 1 130.9316 16.0793 34.0714 0.0000 0.0000 0.0000
# 2 16.0793 129.6105 41.2092 0.0000 0.0000 0.0000
# 3 34.0714 41.2092 164.5819 0.0000 0.0000 0.0000
# 4 0.0000 0.0000 0.0000 32.8445 0.0000 0.0000
# 5 0.0000 0.0000 0.0000 0.0000 21.8772 0.0000
# 6 0.0000 0.0000 0.0000 0.0000 0.0000 32.0492
#
#
#
# Elastic Compliance Matrix: (Units=1/GPa)
#
#
# Indices 1 2 3 4 5 6 
#
# 1 0.008104 -0.000513 -0.001549 0.000000 0.000000 0.000000
# 2 -0.000513 0.008415 -0.002001 0.000000 0.000000 0.000000
# 3 -0.001549 -0.002001 0.006898 0.000000 0.000000 0.000000
# 4 0.000000 0.000000 0.000000 0.030446 0.000000 0.000000
# 5 0.000000 0.000000 0.000000 0.000000 0.045710 0.000000
# 6 0.000000 0.000000 0.000000 0.000000 0.000000 0.031202
#
#
# Mechanical properties :
#
#
# Convention : Reuss Voigt Hill
#
# Bulk Modulus (GPa) = 65.39861 67.53818 66.46840
# Shear Modulus (GPa) = 34.72280 39.60512 37.16396
#
# Velocity S-wave (km/s) = 3.66654 3.91583 3.79323
# Velocity P-wave (km/s) = 6.57608 6.82594 6.70217
#
# Compressibility (1/GPa) = 0.01529084
#
# Stress axis : x y z
#
# Youngs Moduli (GPa) = 123.40059 118.83232 144.97547
#
# Poissons Ratio (x) = 0.06093 0.22460
# Poissons Ratio (y) = 0.06328 0.29008
# Poissons Ratio (z) = 0.19117 0.23777
#
# Static dielectric constant tensor:
#      x y z
#    x 2.083380 0.000000 0.000000 
#    y 0.000000 2.182280 0.000000 
#    z 0.000000 0.000000 2.023930 
# 
# From -- ./inp_files/29496.got.cif
#   From: 2010.05.17/outbox.cif.g08.bks.cpg/sg66_15_cif.got.tgz:29496.got - 2010.06.03 17:51:23.
