data_PCOD9495396
_publ_section_title
;
Structure prediction by ZEFSAII (Michael W. Deem and Ramdas Pophale) SiO2 
 PCOD9495396
Probable space group: C C C M
;
_chemical_formula_sum "Si O2"
_cell_formula_units_Z 116
_cell_length_a 27.572604
_cell_length_b 13.000974
_cell_length_c 13.595313
_cell_angle_alpha 90.000000
_cell_angle_beta 90.000000
_cell_angle_gamma 90.000000
_cell_volume 4873.521473
_symmetry_space_group_name_H-M "C C C M"
_symmetry_group_IT_number 66
_symmetry_cell_setting 'orthorhombic'
loop_
_space_group_symop_operation_xyz
x,y,z
-x,-y,z
x,-y,1/2-z
-x,y,1/2-z
-x,-y,-z
x,y,-z
-x,y,1/2+z
x,-y,1/2+z
1/2+x,1/2+y,z
1/2-x,1/2-y,z
1/2+x,1/2-y,1/2-z
1/2-x,1/2+y,1/2-z
1/2-x,1/2-y,-z
1/2+x,1/2+y,-z
1/2-x,1/2+y,1/2+z
1/2+x,1/2-y,1/2+z
loop_
_atom_site_type_symbol
_atom_site_label
_atom_site_fract_x
_atom_site_fract_y
_atom_site_fract_z
Si Si1 0.976212 0.294857 0.380665
Si Si2 0.657543 0.328840 0.889372
Si Si3 0.882512 0.569421 0.120153
Si Si4 0.585962 0.155694 0.120278
Si Si5 0.750000 0.250000 0.000000
Si Si6 0.154241 0.948450 0.609052
Si Si7 0.805044 0.733421 0.880136
Si Si8 0.955463 0.060793 0.648364
O O1 0.975467 0.287881 0.500000
O O2 0.930986 0.366928 0.353354
O O3 0.968984 0.179757 0.342512
O O4 0.029333 0.336774 0.353040
O O5 0.617661 0.252884 0.844854
O O6 0.666138 0.441142 0.844246
O O7 0.637158 0.354056 0.000000
O O8 0.707823 0.272384 0.915116
O O9 0.889327 0.451347 0.150930
O O10 0.834919 0.632883 0.152435
O O11 0.881037 0.567748 0.000000
O O12 0.587665 0.156649 0.000000
O O13 0.178332 0.950097 0.500000
O O14 0.168600 0.838209 0.651327
O O15 0.096587 0.944766 0.600330
O O16 0.750000 0.750000 0.848040
O O17 0.805447 0.728350 0.000000
O O18 0.948727 0.000000 0.750000
O O19 0.000000 0.000000 0.600807
#
# Coordination Sequence:
#
# PCOD9495396 Si02
#       8
#    16  16  16  16   4  16  16  16
#     4  10  18  31  51  74 108 141 179 227 268 326
#     4   8  16  27  42  68 100 136 171 212 270 314
#     4   9  16  27  43  72 110 146 180 214 259 316
#     4   9  16  26  43  71 105 144 182 212 260 318
#     4   8  16  28  40  68 106 140 164 222 278 310
#     4  10  18  33  53  76 108 142 180 223 275 333
#     4   9  17  28  44  74 111 149 184 222 272 321
#     4  11  23  35  50  76 107 141 180 222 280 329
#
# _framework density 23.80209
#
# number of rings (size 3 to 8) (size 9 to 14) (size 15 to 20)
#    0.414    2.207    1.379    1.655    0.000    4.966 
#    2.483    0.000    0.000    0.000    1.793   16.414 
#    0.000    0.000    0.000    0.000    0.000    0.552 
#
# Total GULP energy -323478.956705 kJ/mol
# GULP energy per Si atom -5577.223391 kJ/mol
# Density = 2.374792 g / cm^3
# Si number density = 23.802090 Si / 1000 Ang^3
#
#
#
# Elastic Constant Matrix: (Units=GPa)
#
#
# Indices 1 2 3 4 5 6 
#
# 1 167.8489 71.8183 4.2848 0.0000 0.0000 0.0000
# 2 71.8183 173.5907 9.3706 0.0000 0.0000 0.0000
# 3 4.2848 9.3706 74.2359 0.0000 0.0000 0.0000
# 4 0.0000 0.0000 0.0000 21.4182 0.0000 0.0000
# 5 0.0000 0.0000 0.0000 0.0000 9.9130 0.0000
# 6 0.0000 0.0000 0.0000 0.0000 0.0000 28.3800
#
#
#
# Elastic Compliance Matrix: (Units=1/GPa)
#
#
# Indices 1 2 3 4 5 6 
#
# 1 0.007239 -0.002993 -0.000040 0.000000 0.000000 0.000000
# 2 -0.002993 0.007038 -0.000716 0.000000 0.000000 0.000000
# 3 -0.000040 -0.000716 0.013563 0.000000 0.000000 0.000000
# 4 0.000000 0.000000 0.000000 0.046689 0.000000 0.000000
# 5 0.000000 0.000000 0.000000 0.000000 0.100877 0.000000
# 6 0.000000 0.000000 0.000000 0.000000 0.000000 0.035236
#
#
# Mechanical properties :
#
#
# Convention : Reuss Voigt Hill
#
# Bulk Modulus (GPa) = 49.15696 65.18031 57.16863
# Shear Modulus (GPa) = 22.23004 33.95570 28.09287
#
# Velocity S-wave (km/s) = 3.05938 3.78111 3.43923
# Velocity P-wave (km/s) = 5.75994 6.81954 6.31202
#
# Compressibility (1/GPa) = 0.02034300
#
# Stress axis : x y z
#
# Youngs Moduli (GPa) = 138.13378 142.09505 73.72882
#
# Poissons Ratio (x) = 0.42528 0.00295
# Poissons Ratio (y) = 0.41342 0.05276
# Poissons Ratio (z) = 0.00553 0.10168
#
# Static dielectric constant tensor:
#      x y z
#    x 1.845340 0.000000 0.000000 
#    y 0.000000 1.874760 0.000000 
#    z 0.000000 0.000000 2.153360 
# 
# From -- ./inp_files/44785.got.cif
#   From: 2010.05.17/outbox.cif.g08.bks.cpg/sg66_23_cif.got.tgz:44785.got - 2010.06.03 17:51:23.
