data_PCOD9495746
_publ_section_title
;
Structure prediction by ZEFSAII (Michael W. Deem and Ramdas Pophale) SiO2 
 PCOD9495746
Probable space group: C C C M
;
_chemical_formula_sum "Si O2"
_cell_formula_units_Z 88
_cell_length_a 29.153678
_cell_length_b 19.456940
_cell_length_c 10.083904
_cell_angle_alpha 90.000000
_cell_angle_beta 90.000000
_cell_angle_gamma 90.000000
_cell_volume 5720.007456
_symmetry_space_group_name_H-M "C C C M"
_symmetry_group_IT_number 66
_symmetry_cell_setting 'orthorhombic'
loop_
_space_group_symop_operation_xyz
x,y,z
-x,-y,z
x,-y,1/2-z
-x,y,1/2-z
-x,-y,-z
x,y,-z
-x,y,1/2+z
x,-y,1/2+z
1/2+x,1/2+y,z
1/2-x,1/2-y,z
1/2+x,1/2-y,1/2-z
1/2-x,1/2+y,1/2-z
1/2-x,1/2-y,-z
1/2+x,1/2+y,-z
1/2-x,1/2+y,1/2+z
1/2+x,1/2-y,1/2+z
loop_
_atom_site_type_symbol
_atom_site_label
_atom_site_fract_x
_atom_site_fract_y
_atom_site_fract_z
Si Si1 0.457250 0.135852 0.345108
Si Si2 0.593264 0.000000 0.250000
Si Si3 0.775358 0.060981 0.654941
Si Si4 0.638648 0.802020 0.346545
Si Si5 0.711344 0.309573 0.154371
Si Si6 0.170836 0.589420 0.640858
O O1 0.500000 0.148056 0.250000
O O2 0.469707 0.140221 0.500000
O O3 0.415141 0.188120 0.317422
O O4 0.437047 0.059709 0.314949
O O5 0.628710 0.036792 0.349440
O O6 0.791329 0.061045 0.500000
O O7 0.783606 0.131545 0.735995
O O8 0.720029 0.053962 0.647132
O O9 0.793289 0.000000 0.750000
O O10 0.644718 0.821515 0.500000
O O11 0.662488 0.728720 0.329418
O O12 0.665060 0.857188 0.258416
O O13 0.750000 0.250000 0.170436
O O14 0.715426 0.334247 0.000000
O O15 0.168284 0.627078 0.500000
#
# Coordination Sequence:
#
# PCOD9495746 Si02
#       6
#    16   8  16  16  16  16
#     4  10  21  34  49  67  92 125 165 210 252 296
#     4  10  19  32  46  64  92 130 172 208 253 290
#     4  11  22  33  47  70 101 134 169 206 247 294
#     4   9  19  34  50  68  91 123 160 200 248 298
#     4  10  19  33  53  73  96 129 167 206 252 303
#     4  10  19  29  44  66  91 123 164 207 242 281
#
# _framework density 15.384596
#
# number of rings (size 3 to 8) (size 9 to 14) (size 15 to 20)
#    0.000    2.000    2.727    1.364    0.000    6.909 
#    0.000    0.000    0.000    0.000    0.000    0.000 
#    0.000    0.727    0.000    8.364    0.000    2.545 
#
# Total GULP energy -245118.614285 kJ/mol
# GULP energy per Si atom -5570.877597 kJ/mol
# Density = 1.534958 g / cm^3
# Si number density = 15.384596 Si / 1000 Ang^3
#
#
#
# Elastic Constant Matrix: (Units=GPa)
#
#
# Indices 1 2 3 4 5 6 
#
# 1 62.9621 23.3382 39.3186 0.0000 0.0000 0.0000
# 2 23.3382 58.2437 57.1076 0.0000 0.0000 0.0000
# 3 39.3186 57.1076 107.9079 0.0000 0.0000 0.0000
# 4 0.0000 0.0000 0.0000 15.4769 0.0000 0.0000
# 5 0.0000 0.0000 0.0000 0.0000 48.2943 0.0000
# 6 0.0000 0.0000 0.0000 0.0000 0.0000 13.4042
#
#
#
# Elastic Compliance Matrix: (Units=1/GPa)
#
#
# Indices 1 2 3 4 5 6 
#
# 1 0.020658 -0.001865 -0.006540 0.000000 0.000000 0.000000
# 2 -0.001865 0.035856 -0.018296 0.000000 0.000000 0.000000
# 3 -0.006540 -0.018296 0.021333 0.000000 0.000000 0.000000
# 4 0.000000 0.000000 0.000000 0.064612 0.000000 0.000000
# 5 0.000000 0.000000 0.000000 0.000000 0.020706 0.000000
# 6 0.000000 0.000000 0.000000 0.000000 0.000000 0.074603
#
#
# Mechanical properties :
#
#
# Convention : Reuss Voigt Hill
#
# Bulk Modulus (GPa) = 40.90978 52.07140 46.49059
# Shear Modulus (GPa) = 16.70450 22.72504 19.71477
#
# Velocity S-wave (km/s) = 3.29871 3.84751 3.58363
# Velocity P-wave (km/s) = 6.41543 7.32514 6.88533
#
# Compressibility (1/GPa) = 0.02444403
#
# Stress axis : x y z
#
# Youngs Moduli (GPa) = 48.40709 27.88934 46.87549
#
# Poissons Ratio (x) = 0.05202 0.30657
# Poissons Ratio (y) = 0.09028 0.85765
# Poissons Ratio (z) = 0.31659 0.51027
#
# Static dielectric constant tensor:
#      x y z
#    x 1.519090 0.000000 0.000000 
#    y 0.000000 1.509390 0.000000 
#    z 0.000000 0.000000 1.543260 
# 
# From -- ./inp_files/11413.got.cif
#   From: 2010.05.17/outbox.cif.g08.bks.cpg/sg66_6_cif.got.tgz:11413.got - 2010.06.03 17:51:23.
