data_PCOD9495380
_publ_section_title
;
Structure prediction by ZEFSAII (Michael W. Deem and Ramdas Pophale) SiO2 
 PCOD9495380
Probable space group: C C C M
;
_chemical_formula_sum "Si O2"
_cell_formula_units_Z 88
_cell_length_a 13.823180
_cell_length_b 14.113488
_cell_length_c 21.677553
_cell_angle_alpha 90.000000
_cell_angle_beta 90.000000
_cell_angle_gamma 90.000000
_cell_volume 4229.145027
_symmetry_space_group_name_H-M "C C C M"
_symmetry_group_IT_number 66
_symmetry_cell_setting 'orthorhombic'
loop_
_space_group_symop_operation_xyz
x,y,z
-x,-y,z
x,-y,1/2-z
-x,y,1/2-z
-x,-y,-z
x,y,-z
-x,y,1/2+z
x,-y,1/2+z
1/2+x,1/2+y,z
1/2-x,1/2-y,z
1/2+x,1/2-y,1/2-z
1/2-x,1/2+y,1/2-z
1/2-x,1/2-y,-z
1/2+x,1/2+y,-z
1/2-x,1/2+y,1/2+z
1/2+x,1/2-y,1/2+z
loop_
_atom_site_type_symbol
_atom_site_label
_atom_site_fract_x
_atom_site_fract_y
_atom_site_fract_z
Si Si1 0.692549 0.410349 0.290820
Si Si2 0.851670 0.768696 0.682950
Si Si3 0.500000 0.874778 0.250000
Si Si4 0.038600 0.845061 0.628086
Si Si5 0.626268 0.645650 0.000000
Si Si6 0.618874 0.871437 0.136554
Si Si7 0.350148 0.875117 0.500000
O O1 0.719869 0.500000 0.250000
O O2 0.682871 0.328186 0.241331
O O3 0.588510 0.414655 0.323225
O O4 0.770387 0.385414 0.343140
O O5 0.750000 0.750000 0.648940
O O6 0.916709 0.685250 0.713341
O O7 0.926841 0.827396 0.641752
O O8 0.559210 0.918556 0.192707
O O9 0.066741 0.878938 0.560688
O O10 0.089109 0.740223 0.636960
O O11 0.638440 0.760569 0.000000
O O12 0.735045 0.605354 0.000000
O O13 0.606452 0.906849 0.066115
#
# Coordination Sequence:
#
# PCOD9495380 Si02
#       7
#    16  16   8  16   8  16   8
#     4  12  21  30  50  80 112 142 179 224 278 330
#     4  11  19  33  53  74 105 149 176 223 280 325
#     4  10  18  30  60  76 110 142 178 232 282 322
#     4  10  19  33  55  81 108 138 179 229 278 330
#     4   9  16  28  53  86 101 132 178 233 278 316
#     4  10  18  33  53  87 108 141 177 231 282 322
#     4   9  16  26  56  81 111 131 177 237 280 320
#
# _framework density 20.807988000000002
#
# number of rings (size 3 to 8) (size 9 to 14) (size 15 to 20)
#    0.000    1.636    7.273    0.545    0.000    1.455 
#    0.000    0.909    0.000    3.273    0.000    3.818 
#    0.000    0.000    0.000    0.000    0.000    0.000 
#
# Total GULP energy -245291.517706 kJ/mol
# GULP energy per Si atom -5574.807221 kJ/mol
# Density = 2.076063 g / cm^3
# Si number density = 20.807988 Si / 1000 Ang^3
#
#
#
# Elastic Constant Matrix: (Units=GPa)
#
#
# Indices 1 2 3 4 5 6 
#
# 1 132.4136 13.7946 39.6736 0.0000 0.0000 0.0000
# 2 13.7946 17.4372 6.2375 0.0000 0.0000 0.0000
# 3 39.6736 6.2375 146.0163 0.0000 0.0000 0.0000
# 4 0.0000 0.0000 0.0000 -3.6930 0.0000 0.0000
# 5 0.0000 0.0000 0.0000 0.0000 60.0978 0.0000
# 6 0.0000 0.0000 0.0000 0.0000 0.0000 5.6236
#
#
#
# Elastic Compliance Matrix: (Units=1/GPa)
#
#
# Indices 1 2 3 4 5 6 
#
# 1 0.008841 -0.006230 -0.002136 0.000000 0.000000 0.000000
# 2 -0.006230 0.062629 -0.000983 0.000000 0.000000 0.000000
# 3 -0.002136 -0.000983 0.007471 0.000000 0.000000 0.000000
# 4 0.000000 0.000000 0.000000 -0.270785 0.000000 0.000000
# 5 0.000000 0.000000 0.000000 0.000000 0.016640 0.000000
# 6 0.000000 0.000000 0.000000 0.000000 0.000000 0.177823
#
#
# Mechanical properties :
#
#
# Convention : Reuss Voigt Hill
#
# Bulk Modulus (GPa) = 16.59938 46.14206 31.37072
# Shear Modulus (GPa) = 120.78124 28.14978 74.46551
#
# Velocity S-wave (km/s) = 7.62703 3.68208 5.98871
# Velocity P-wave (km/s) = 9.24970 6.34825 7.93275
#
# Compressibility (1/GPa) = 0.06024320
#
# Stress axis : x y z
#
# Youngs Moduli (GPa) = 113.10755 15.96710 133.85254
#
# Poissons Ratio (x) = 0.09948 0.28592
# Poissons Ratio (y) = 0.70468 0.13152
# Poissons Ratio (z) = 0.24160 0.01569
#
# Static dielectric constant tensor:
#      x y z
#    x 1.828760 0.000000 0.000000 
#    y 0.000000 1.882830 0.000000 
#    z 0.000000 0.000000 1.777500 
# 
# From -- ./inp_files/56787.got.cif
#   From: 2010.05.17/outbox.cif.g08.bks.cpg/sg66_29_cif.got.tgz:56787.got - 2010.06.03 17:51:23.
