data_PCOD9495730
_publ_section_title
;
Structure prediction by ZEFSAII (Michael W. Deem and Ramdas Pophale) SiO2 
 PCOD9495730
Probable space group: C C C M
;
_chemical_formula_sum "Si O2"
_cell_formula_units_Z 100
_cell_length_a 28.195215
_cell_length_b 28.195157
_cell_length_c 9.677777
_cell_angle_alpha 90.000000
_cell_angle_beta 90.000000
_cell_angle_gamma 90.000000
_cell_volume 7693.527996
_symmetry_space_group_name_H-M "C C C M"
_symmetry_group_IT_number 66
_symmetry_cell_setting 'orthorhombic'
loop_
_space_group_symop_operation_xyz
x,y,z
-x,-y,z
x,-y,1/2-z
-x,y,1/2-z
-x,-y,-z
x,y,-z
-x,y,1/2+z
x,-y,1/2+z
1/2+x,1/2+y,z
1/2-x,1/2-y,z
1/2+x,1/2-y,1/2-z
1/2-x,1/2+y,1/2-z
1/2-x,1/2-y,-z
1/2+x,1/2+y,-z
1/2-x,1/2+y,1/2+z
1/2+x,1/2-y,1/2+z
loop_
_atom_site_type_symbol
_atom_site_label
_atom_site_fract_x
_atom_site_fract_y
_atom_site_fract_z
Si Si1 0.273865 0.646185 0.838635
Si Si2 0.000000 0.000000 0.250000
Si Si3 0.646185 0.726136 0.661365
Si Si4 0.424519 0.424519 0.659951
Si Si5 0.954641 0.820783 0.334556
Si Si6 0.820783 0.045359 0.834556
Si Si7 0.209210 0.709210 0.341165
O O1 0.319913 0.680087 0.818283
O O2 0.289669 0.592398 0.813258
O O3 0.232619 0.665687 0.740872
O O4 0.260347 0.651281 0.000000
O O5 0.964647 0.035353 0.170143
O O6 0.651280 0.739653 0.500000
O O7 0.592398 0.710332 0.686744
O O8 0.665688 0.767382 0.759128
O O9 0.414179 0.414179 0.500000
O O10 0.442571 0.374383 0.717104
O O11 0.374384 0.442571 0.717105
O O12 0.964350 0.822250 0.500000
O O13 0.000000 0.803675 0.250000
O O14 0.803676 0.000000 0.750000
O O15 0.822251 0.035649 0.000000
O O16 0.198152 0.698152 0.500000
O O17 0.250000 0.750000 0.340237
#
# Coordination Sequence:
#
# PCOD9495730 Si02
#       7
#    16   4  16  16  16  16  16
#     4   9  16  28  45  59  76 103 133 162 199 249
#     4  12  18  28  44  50  72  96 138 184 222 248
#     4   9  16  28  45  59  76 103 133 162 199 249
#     4  10  19  29  39  53  72  97 132 174 216 250
#     4  10  19  31  43  57  77 103 135 171 208 249
#     4  10  19  31  43  57  77 103 135 171 208 249
#     4   9  17  27  41  63  85  97 117 158 205 248
#
# _framework density 12.997938
#
# number of rings (size 3 to 8) (size 9 to 14) (size 15 to 20)
#    0.000    2.400    3.200    0.720    0.000    3.200 
#    0.000    0.800    0.000    0.000    0.000    0.000 
#    0.000    0.000    0.000    0.000    0.000    0.800 
#
# Total GULP energy -278465.260202 kJ/mol
# GULP energy per Si atom -5569.305204 kJ/mol
# Density = 1.296835 g / cm^3
# Si number density = 12.997938 Si / 1000 Ang^3
#
#
#
# Elastic Constant Matrix: (Units=GPa)
#
#
# Indices 1 2 3 4 5 6 
#
# 1 63.6719 42.9406 49.0885 0.0000 0.0000 0.0000
# 2 42.9406 63.6690 49.0876 0.0000 0.0000 0.0000
# 3 49.0885 49.0876 67.6613 0.0000 0.0000 0.0000
# 4 0.0000 0.0000 0.0000 17.4482 0.0000 0.0000
# 5 0.0000 0.0000 0.0000 0.0000 17.4484 0.0000
# 6 0.0000 0.0000 0.0000 0.0000 0.0000 16.0074
#
#
#
# Elastic Compliance Matrix: (Units=1/GPa)
#
#
# Indices 1 2 3 4 5 6 
#
# 1 0.038249 -0.009989 -0.020503 0.000000 0.000000 0.000000
# 2 -0.009989 0.038251 -0.020504 0.000000 0.000000 0.000000
# 3 -0.020503 -0.020504 0.044529 0.000000 0.000000 0.000000
# 4 0.000000 0.000000 0.000000 0.057312 0.000000 0.000000
# 5 0.000000 0.000000 0.000000 0.000000 0.057312 0.000000
# 6 0.000000 0.000000 0.000000 0.000000 0.000000 0.062471
#
#
# Mechanical properties :
#
#
# Convention : Reuss Voigt Hill
#
# Bulk Modulus (GPa) = 52.52507 53.02617 52.77562
# Shear Modulus (GPa) = 12.30127 13.77318 13.03722
#
# Velocity S-wave (km/s) = 3.07970 3.25875 3.17049
# Velocity P-wave (km/s) = 7.29000 7.41914 7.35485
#
# Compressibility (1/GPa) = 0.01903853
#
# Stress axis : x y z
#
# Youngs Moduli (GPa) = 26.14440 26.14294 22.45714
#
# Poissons Ratio (x) = 0.26115 0.46043
# Poissons Ratio (y) = 0.26117 0.46045
# Poissons Ratio (z) = 0.53603 0.53602
#
# Static dielectric constant tensor:
#      x y z
#    x 1.414520 0.000000 0.000000 
#    y 0.000000 1.414520 0.000000 
#    z 0.000000 0.000000 1.437790 
# 
# From -- ./inp_files/10871.got.cif
#   From: 2010.05.17/outbox.cif.g08.bks.cpg/sg66_6_cif.got.tgz:10871.got - 2010.06.03 17:51:23.
