data_PCOD9495342
_publ_section_title
;
Structure prediction by ZEFSAII (Michael W. Deem and Ramdas Pophale) SiO2 
 PCOD9495342
Probable space group: C C C M
;
_chemical_formula_sum "Si O2"
_cell_formula_units_Z 64
_cell_length_a 23.891253
_cell_length_b 6.816274
_cell_length_c 15.889591
_cell_angle_alpha 90.000000
_cell_angle_beta 90.000000
_cell_angle_gamma 90.000000
_cell_volume 2587.609195
_symmetry_space_group_name_H-M "C C C M"
_symmetry_group_IT_number 66
_symmetry_cell_setting 'orthorhombic'
loop_
_space_group_symop_operation_xyz
x,y,z
-x,-y,z
x,-y,1/2-z
-x,y,1/2-z
-x,-y,-z
x,y,-z
-x,y,1/2+z
x,-y,1/2+z
1/2+x,1/2+y,z
1/2-x,1/2-y,z
1/2+x,1/2-y,1/2-z
1/2-x,1/2+y,1/2-z
1/2-x,1/2-y,-z
1/2+x,1/2+y,-z
1/2-x,1/2+y,1/2+z
1/2+x,1/2-y,1/2+z
loop_
_atom_site_type_symbol
_atom_site_label
_atom_site_fract_x
_atom_site_fract_y
_atom_site_fract_z
Si Si1 0.565667 0.263910 0.739538
Si Si2 0.734522 0.977677 0.347750
Si Si3 0.353172 0.618460 0.596233
Si Si4 0.621132 0.148565 0.091970
O O1 0.569604 0.500000 0.750000
O O2 0.500000 0.221608 0.750000
O O3 0.602340 0.262271 0.653311
O O4 0.590743 0.142410 0.817819
O O5 0.750000 0.750000 0.359403
O O6 0.678006 0.979347 0.401786
O O7 0.720281 0.000000 0.250000
O O8 0.789653 0.107026 0.367523
O O9 0.354464 0.680230 0.500000
O O10 0.367180 0.384530 0.592545
O O11 0.593885 0.109421 0.000000
#
# Coordination Sequence:
#
# PCOD9495342 Si02
#       4
#    16  16  16  16
#     4   9  17  29  46  72 105 137 171 212 255 298
#     4  10  18  30  50  75 104 136 169 209 258 308
#     4   9  16  27  45  71 103 136 168 207 257 307
#     4   9  17  29  47  71  97 130 172 211 251 304
#
# _framework density 24.733256000000001
#
# number of rings (size 3 to 8) (size 9 to 14) (size 15 to 20)
#    0.000    2.750    0.000    4.500    0.000    4.000 
#    0.000    5.000    0.000   14.250    0.000    1.750 
#    0.000    0.000    0.000    0.000    0.000    0.000 
#
# Total GULP energy -178475.356579 kJ/mol
# GULP energy per Si atom -5577.354893 kJ/mol
# Density = 2.467696 g / cm^3
# Si number density = 24.733256 Si / 1000 Ang^3
#
#
#
# Elastic Constant Matrix: (Units=GPa)
#
#
# Indices 1 2 3 4 5 6 
#
# 1 116.4144 34.9979 121.1358 0.0000 0.0000 0.0000
# 2 34.9979 96.9591 37.5927 0.0000 0.0000 0.0000
# 3 121.1358 37.5927 259.1059 0.0000 0.0000 0.0000
# 4 0.0000 0.0000 0.0000 35.3096 0.0000 0.0000
# 5 0.0000 0.0000 0.0000 0.0000 1.7394 0.0000
# 6 0.0000 0.0000 0.0000 0.0000 0.0000 29.1676
#
#
#
# Elastic Compliance Matrix: (Units=1/GPa)
#
#
# Indices 1 2 3 4 5 6 
#
# 1 0.017710 -0.003372 -0.007791 0.000000 0.000000 0.000000
# 2 -0.003372 0.011570 -0.000102 0.000000 0.000000 0.000000
# 3 -0.007791 -0.000102 0.007516 0.000000 0.000000 0.000000
# 4 0.000000 0.000000 0.000000 0.028321 0.000000 0.000000
# 5 0.000000 0.000000 0.000000 0.000000 0.574913 0.000000
# 6 0.000000 0.000000 0.000000 0.000000 0.000000 0.034285
#
#
# Mechanical properties :
#
#
# Convention : Reuss Voigt Hill
#
# Bulk Modulus (GPa) = 70.08963 95.54802 82.81883
# Shear Modulus (GPa) = 7.12656 31.82685 19.47670
#
# Velocity S-wave (km/s) = 1.69930 3.59110 2.80923
# Velocity P-wave (km/s) = 5.67890 7.47729 6.63927
#
# Compressibility (1/GPa) = 0.01426745
#
# Stress axis : x y z
#
# Youngs Moduli (GPa) = 56.46427 86.42725 133.04115
#
# Poissons Ratio (x) = 0.29144 1.03647
# Poissons Ratio (y) = 0.19040 0.01360
# Poissons Ratio (z) = 0.43989 0.00883
#
# Static dielectric constant tensor:
#      x y z
#    x 1.995190 0.000000 0.000000 
#    y 0.000000 2.087080 0.000000 
#    z 0.000000 0.000000 1.895610 
# 
# From -- ./inp_files/31885.got.cif
#   From: 2010.05.17/outbox.cif.g08.bks.cpg/sg66_16_cif.got.tgz:31885.got - 2010.06.03 17:51:23.
