data_PCOD9495283
_publ_section_title
;
Structure prediction by ZEFSAII (Michael W. Deem and Ramdas Pophale) SiO2 
 PCOD9495283
Probable space group: C C C M
;
_chemical_formula_sum "Si O2"
_cell_formula_units_Z 64
_cell_length_a 17.170634
_cell_length_b 8.037186
_cell_length_c 21.784368
_cell_angle_alpha 90.000000
_cell_angle_beta 90.000000
_cell_angle_gamma 90.000000
_cell_volume 3006.320755
_symmetry_space_group_name_H-M "C C C M"
_symmetry_group_IT_number 66
_symmetry_cell_setting 'orthorhombic'
loop_
_space_group_symop_operation_xyz
x,y,z
-x,-y,z
x,-y,1/2-z
-x,y,1/2-z
-x,-y,-z
x,y,-z
-x,y,1/2+z
x,-y,1/2+z
1/2+x,1/2+y,z
1/2-x,1/2-y,z
1/2+x,1/2-y,1/2-z
1/2-x,1/2+y,1/2-z
1/2-x,1/2-y,-z
1/2+x,1/2+y,-z
1/2-x,1/2+y,1/2+z
1/2+x,1/2-y,1/2+z
loop_
_atom_site_type_symbol
_atom_site_label
_atom_site_fract_x
_atom_site_fract_y
_atom_site_fract_z
Si Si1 0.383155 0.092962 0.000000
Si Si2 0.125187 0.000000 0.250000
Si Si3 0.623569 0.635674 0.377830
Si Si4 0.750000 0.250000 0.285275
Si Si5 0.460790 0.277450 0.500000
Si Si6 0.799057 0.509446 0.618146
O O1 0.447936 0.235542 0.000000
O O2 0.422219 0.908123 0.000000
O O3 0.331670 0.091683 0.060685
O O4 0.090093 0.034738 0.318116
O O5 0.183151 0.156362 0.250072
O O6 0.569427 0.634389 0.438095
O O7 0.709418 0.562459 0.393301
O O8 0.645722 0.831868 0.368468
O O9 0.793827 0.387123 0.325074
#
# Coordination Sequence:
#
# PCOD9495283 Si02
#       6
#     8   8  16   8   8  16
#     4   9  17  30  50  76 102 137 178 217 262 326
#     4  10  18  30  50  75 102 135 172 216 278 328
#     4   9  17  30  51  79 105 133 173 227 279 324
#     4  10  18  29  48  73 102 132 170 224 270 316
#     4   9  17  31  52  75 104 138 178 221 268 324
#     4   9  17  29  49  75 104 132 172 220 272 321
#
# _framework density 21.28848
#
# number of rings (size 3 to 8) (size 9 to 14) (size 15 to 20)
#    0.000    2.750    0.000    3.750    0.000    3.500 
#    0.000    1.250    0.000   15.000    0.000   14.000 
#    0.000    0.000    0.000    0.000    0.000    2.000 
#
# Total GULP energy -178359.509160 kJ/mol
# GULP energy per Si atom -5573.734661 kJ/mol
# Density = 2.124003 g / cm^3
# Si number density = 21.288480 Si / 1000 Ang^3
#
#
#
# Elastic Constant Matrix: (Units=GPa)
#
#
# Indices 1 2 3 4 5 6 
#
# 1 73.8967 32.9070 57.4007 0.0000 0.0000 0.0000
# 2 32.9070 63.4602 33.8088 0.0000 0.0000 0.0000
# 3 57.4007 33.8088 168.4584 0.0000 0.0000 0.0000
# 4 0.0000 0.0000 0.0000 378.6099 0.0000 0.0000
# 5 0.0000 0.0000 0.0000 0.0000 -66.3950 0.0000
# 6 0.0000 0.0000 0.0000 0.0000 0.0000 10.4677
#
#
#
# Elastic Compliance Matrix: (Units=1/GPa)
#
#
# Indices 1 2 3 4 5 6 
#
# 1 0.021614 -0.008156 -0.005728 0.000000 0.000000 0.000000
# 2 -0.008156 0.020722 -0.001380 0.000000 0.000000 0.000000
# 3 -0.005728 -0.001380 0.008165 0.000000 0.000000 0.000000
# 4 0.000000 0.000000 0.000000 0.002641 0.000000 0.000000
# 5 0.000000 0.000000 0.000000 0.000000 -0.015061 0.000000
# 6 0.000000 0.000000 0.000000 0.000000 0.000000 0.095532
#
#
# Mechanical properties :
#
#
# Convention : Reuss Voigt Hill
#
# Bulk Modulus (GPa) = 50.06656 61.56094 55.81375
# Shear Modulus (GPa) = 29.27440 76.64978 52.96209
#
# Velocity S-wave (km/s) = 3.71230 6.00695 4.99322
# Velocity P-wave (km/s) = 6.47642 8.78018 7.71478
#
# Compressibility (1/GPa) = 0.01997341
#
# Stress axis : x y z
#
# Youngs Moduli (GPa) = 46.26721 48.25719 122.47753
#
# Poissons Ratio (x) = 0.39359 0.70152
# Poissons Ratio (y) = 0.37736 0.16899
# Poissons Ratio (z) = 0.26501 0.06658
#
# Static dielectric constant tensor:
#      x y z
#    x 1.757440 0.000000 0.000000 
#    y 0.000000 1.904260 0.000000 
#    z 0.000000 0.000000 1.842160 
# 
# From -- ./inp_files/50584.got.cif
#   From: 2010.05.17/outbox.cif.g08.bks.cpg/sg66_26_cif.got.tgz:50584.got - 2010.06.03 17:51:23.
