data_PCOD9495813
_publ_section_title
;
Structure prediction by ZEFSAII (Michael W. Deem and Ramdas Pophale) SiO2 
 PCOD9495813
Probable space group: C C C M
;
_chemical_formula_sum "Si O2"
_cell_formula_units_Z 56
_cell_length_a 5.224734
_cell_length_b 31.610787
_cell_length_c 15.512999
_cell_angle_alpha 90.000000
_cell_angle_beta 90.000000
_cell_angle_gamma 90.000000
_cell_volume 2562.095169
_symmetry_space_group_name_H-M "C C C M"
_symmetry_group_IT_number 66
_symmetry_cell_setting 'orthorhombic'
loop_
_space_group_symop_operation_xyz
x,y,z
-x,-y,z
x,-y,1/2-z
-x,y,1/2-z
-x,-y,-z
x,y,-z
-x,y,1/2+z
x,-y,1/2+z
1/2+x,1/2+y,z
1/2-x,1/2-y,z
1/2+x,1/2-y,1/2-z
1/2-x,1/2+y,1/2-z
1/2-x,1/2-y,-z
1/2+x,1/2+y,-z
1/2-x,1/2+y,1/2+z
1/2+x,1/2-y,1/2+z
loop_
_atom_site_type_symbol
_atom_site_label
_atom_site_fract_x
_atom_site_fract_y
_atom_site_fract_z
Si Si1 0.427136 0.160706 0.904253
Si Si2 0.063027 0.884615 0.151361
Si Si3 0.244124 0.981046 0.848272
Si Si4 0.000000 0.276445 0.250000
O O1 0.712995 0.142893 0.890555
O O2 0.209704 0.124192 0.893760
O O3 0.399209 0.194763 0.828679
O O4 0.400843 0.178646 0.000000
O O5 0.000000 0.873068 0.250000
O O6 0.187814 0.931413 0.154374
O O7 0.500000 0.000000 0.887558
O O8 0.246544 0.000000 0.750000
O O9 0.000000 0.000000 0.894340
O O10 0.750000 0.250000 0.221540
#
# Coordination Sequence:
#
# PCOD9495813 Si02
#       4
#    16  16  16   8
#     4  12  27  46  71 104 141 182 229 286 349 417
#     4  12  21  41  70 101 133 186 245 284 339 419
#     4  10  19  30  56 100 125 172 238 282 342 394
#     4  12  26  46  76 108 139 176 227 280 348 430
#
# _framework density 21.857112999999998
#
# number of rings (size 3 to 8) (size 9 to 14) (size 15 to 20)
#    0.000    0.571    5.714    4.286    4.000    1.143 
#    0.000    0.000    0.000   17.143    0.000    0.000 
#    0.000    0.000    0.000    0.000    0.000    0.000 
#
# Total GULP energy -156236.760986 kJ/mol
# GULP energy per Si atom -5579.884321 kJ/mol
# Density = 2.180737 g / cm^3
# Si number density = 21.857113 Si / 1000 Ang^3
#
#
#
# Elastic Constant Matrix: (Units=GPa)
#
#
# Indices 1 2 3 4 5 6 
#
# 1 190.3529 24.8575 15.9189 0.0000 0.0000 0.0000
# 2 24.8575 82.8763 32.2596 0.0000 0.0000 0.0000
# 3 15.9189 32.2596 118.4297 0.0000 0.0000 0.0000
# 4 0.0000 0.0000 0.0000 1.1322 0.0000 0.0000
# 5 0.0000 0.0000 0.0000 0.0000 -595.1364 0.0000
# 6 0.0000 0.0000 0.0000 0.0000 0.0000 41.4740
#
#
#
# Elastic Compliance Matrix: (Units=1/GPa)
#
#
# Indices 1 2 3 4 5 6 
#
# 1 0.005479 -0.001517 -0.000323 0.000000 0.000000 0.000000
# 2 -0.001517 0.013918 -0.003587 0.000000 0.000000 0.000000
# 3 -0.000323 -0.003587 0.009464 0.000000 0.000000 0.000000
# 4 0.000000 0.000000 0.000000 0.883272 0.000000 0.000000
# 5 0.000000 0.000000 0.000000 0.000000 -0.001680 0.000000
# 6 0.000000 0.000000 0.000000 0.000000 0.000000 0.024111
#
#
# Mechanical properties :
#
#
# Convention : Reuss Voigt Hill
#
# Bulk Modulus (GPa) = 55.53928 59.74788 57.64358
# Shear Modulus (GPa) = 5.25530 -89.26453 -42.00462
#
# Velocity S-wave (km/s) = 1.55229 -6.39755 -4.38857
# Velocity P-wave (km/s) = 5.35520 5.21312 0.86647
#
# Compressibility (1/GPa) = 0.01800528
#
# Stress axis : x y z
#
# Youngs Moduli (GPa) = 182.52909 71.85146 105.65960
#
# Poissons Ratio (x) = 0.10903 0.03413
# Poissons Ratio (y) = 0.27698 0.37901
# Poissons Ratio (z) = 0.05897 0.25774
#
# Static dielectric constant tensor:
#      x y z
#    x 1.793330 0.000000 0.000000 
#    y 0.000000 1.930580 0.000000 
#    z 0.000000 0.000000 1.748620 
# 
# From -- ./inp_files/22451.got.cif
#   From: 2010.05.17/outbox.cif.g08.bks.cpg/sg66_12_cif.got.tgz:22451.got - 2010.06.03 17:51:23.
