data_PCOD9495821
_publ_section_title
;
Structure prediction by ZEFSAII (Michael W. Deem and Ramdas Pophale) SiO2 
 PCOD9495821
Probable space group: C C C M
;
_chemical_formula_sum "Si O2"
_cell_formula_units_Z 80
_cell_length_a 14.973859
_cell_length_b 29.600369
_cell_length_c 10.391875
_cell_angle_alpha 90.000000
_cell_angle_beta 90.000000
_cell_angle_gamma 90.000000
_cell_volume 4606.008960
_symmetry_space_group_name_H-M "C C C M"
_symmetry_group_IT_number 66
_symmetry_cell_setting 'orthorhombic'
loop_
_space_group_symop_operation_xyz
x,y,z
-x,-y,z
x,-y,1/2-z
-x,y,1/2-z
-x,-y,-z
x,y,-z
-x,y,1/2+z
x,-y,1/2+z
1/2+x,1/2+y,z
1/2-x,1/2-y,z
1/2+x,1/2-y,1/2-z
1/2-x,1/2+y,1/2-z
1/2-x,1/2-y,-z
1/2+x,1/2+y,-z
1/2-x,1/2+y,1/2+z
1/2+x,1/2-y,1/2+z
loop_
_atom_site_type_symbol
_atom_site_label
_atom_site_fract_x
_atom_site_fract_y
_atom_site_fract_z
Si Si1 0.263117 0.461487 0.848798
Si Si2 0.766419 0.860577 0.155169
Si Si3 0.550205 0.048563 0.364013
Si Si4 0.918191 0.316358 0.347763
Si Si5 0.581882 0.710823 0.848088
O O1 0.293285 0.500000 0.750000
O O2 0.292092 0.411377 0.805846
O O3 0.154499 0.459603 0.843882
O O4 0.286273 0.469471 0.000000
O O5 0.666259 0.846709 0.193018
O O6 0.838325 0.822785 0.189989
O O7 0.763500 0.861767 0.000000
O O8 0.500000 0.073250 0.250000
O O9 0.539074 0.072198 0.500000
O O10 0.500000 0.000000 0.373032
O O11 0.939364 0.323792 0.500000
O O12 0.890260 0.263371 0.339569
O O13 0.000000 0.321973 0.250000
O O14 0.500000 0.704175 0.750000
O O15 0.559093 0.702532 0.000000
#
# Coordination Sequence:
#
# PCOD9495821 Si02
#       5
#    16  16  16  16  16
#     4  10  19  31  45  63  90 125 164 200 236 280
#     4   9  18  32  51  73  98 133 171 202 239 297
#     4   9  15  24  38  55  77 110 151 187 220 262
#     4   9  17  31  50  75 105 134 163 197 241 294
#     4   9  17  32  55  77  98 126 162 205 252 301
#
# _framework density 17.368617
#
# number of rings (size 3 to 8) (size 9 to 14) (size 15 to 20)
#    0.000    2.800    2.000    0.600    0.000    3.200 
#    0.000    3.000    0.000    5.400    0.000    4.200 
#    0.000    0.000    0.000    0.000    0.000    0.000 
#
# Total GULP energy -222718.552088 kJ/mol
# GULP energy per Si atom -5567.963802 kJ/mol
# Density = 1.732909 g / cm^3
# Si number density = 17.368617 Si / 1000 Ang^3
#
#
#
# Elastic Constant Matrix: (Units=GPa)
#
#
# Indices 1 2 3 4 5 6 
#
# 1 32.8303 35.4981 18.9537 0.0000 0.0000 0.0000
# 2 35.4981 135.8384 37.2612 0.0000 0.0000 0.0000
# 3 18.9537 37.2612 91.0951 0.0000 0.0000 0.0000
# 4 0.0000 0.0000 0.0000 46.6286 0.0000 0.0000
# 5 0.0000 0.0000 0.0000 0.0000 14.6923 0.0000
# 6 0.0000 0.0000 0.0000 0.0000 0.0000 14.4082
#
#
#
# Elastic Compliance Matrix: (Units=1/GPa)
#
#
# Indices 1 2 3 4 5 6 
#
# 1 0.044438 -0.010224 -0.005064 0.000000 0.000000 0.000000
# 2 -0.010224 0.010644 -0.002227 0.000000 0.000000 0.000000
# 3 -0.005064 -0.002227 0.012942 0.000000 0.000000 0.000000
# 4 0.000000 0.000000 0.000000 0.021446 0.000000 0.000000
# 5 0.000000 0.000000 0.000000 0.000000 0.068063 0.000000
# 6 0.000000 0.000000 0.000000 0.000000 0.000000 0.069405
#
#
# Mechanical properties :
#
#
# Convention : Reuss Voigt Hill
#
# Bulk Modulus (GPa) = 30.30756 49.24332 39.77544
# Shear Modulus (GPa) = 18.31737 26.34920 22.33329
#
# Velocity S-wave (km/s) = 3.25102 3.89917 3.58975
# Velocity P-wave (km/s) = 5.61958 6.97745 6.33500
#
# Compressibility (1/GPa) = 0.03299507
#
# Stress axis : x y z
#
# Youngs Moduli (GPa) = 22.50340 93.94806 77.26789
#
# Poissons Ratio (x) = 0.96049 0.39129
# Poissons Ratio (y) = 0.23007 0.17205
# Poissons Ratio (z) = 0.11396 0.20919
#
# Static dielectric constant tensor:
#      x y z
#    x 1.563250 0.000000 0.000000 
#    y 0.000000 1.639530 0.000000 
#    z 0.000000 0.000000 1.642590 
# 
# From -- ./inp_files/14970.got.cif
#   From: 2010.05.17/outbox.cif.g08.bks.cpg/sg66_8_cif.got.tgz:14970.got - 2010.06.03 17:51:23.
