data_PCOD9495567
_publ_section_title
;
Structure prediction by ZEFSAII (Michael W. Deem and Ramdas Pophale) SiO2 
 PCOD9495567
Probable space group: C C C M
;
_chemical_formula_sum "Si O2"
_cell_formula_units_Z 112
_cell_length_a 28.074520
_cell_length_b 14.809663
_cell_length_c 14.489087
_cell_angle_alpha 90.000000
_cell_angle_beta 90.000000
_cell_angle_gamma 90.000000
_cell_volume 6024.188268
_symmetry_space_group_name_H-M "C C C M"
_symmetry_group_IT_number 66
_symmetry_cell_setting 'orthorhombic'
loop_
_space_group_symop_operation_xyz
x,y,z
-x,-y,z
x,-y,1/2-z
-x,y,1/2-z
-x,-y,-z
x,y,-z
-x,y,1/2+z
x,-y,1/2+z
1/2+x,1/2+y,z
1/2-x,1/2-y,z
1/2+x,1/2-y,1/2-z
1/2-x,1/2+y,1/2-z
1/2-x,1/2-y,-z
1/2+x,1/2+y,-z
1/2-x,1/2+y,1/2+z
1/2+x,1/2-y,1/2+z
loop_
_atom_site_type_symbol
_atom_site_label
_atom_site_fract_x
_atom_site_fract_y
_atom_site_fract_z
Si Si1 0.645031 0.000000 0.250000
Si Si2 0.780090 0.473198 0.394497
Si Si3 0.696291 0.500000 0.250000
Si Si4 0.996391 0.711994 0.892201
Si Si5 0.300968 0.764501 0.394992
Si Si6 0.421586 0.828149 0.762414
Si Si7 0.032099 0.086657 0.109592
Si Si8 0.375989 0.346862 0.779840
O O1 0.680315 0.976422 0.334677
O O2 0.612113 0.087720 0.255042
O O3 0.773462 0.502331 0.500000
O O4 0.731018 0.478531 0.336550
O O5 0.802475 0.372320 0.396537
O O6 0.660785 0.583805 0.265626
O O7 0.950343 0.686228 0.832742
O O8 0.998533 0.821088 0.880018
O O9 0.040123 0.661198 0.843944
O O10 0.992051 0.692518 0.000000
O O11 0.297080 0.729905 0.500000
O O12 0.250000 0.750000 0.346039
O O13 0.344421 0.711829 0.351423
O O14 0.396194 0.732791 0.783767
O O15 0.080105 0.101773 0.169573
O O16 0.044415 0.079033 0.000000
O O17 0.000000 0.000000 0.134798
#
# Coordination Sequence:
#
# PCOD9495567 Si02
#       8
#     8  16   8  16  16  16  16  16
#     4  11  22  39  62  89 111 148 195 244 299 350
#     4  10  22  40  59  85 119 151 191 244 298 349
#     4  11  24  36  57  89 121 157 190 238 293 360
#     4   9  20  39  57  80 118 155 189 237 293 343
#     4  10  18  33  59  85 111 146 191 254 305 336
#     4  10  22  38  58  85 114 148 195 244 285 349
#     4   9  19  35  56  82 115 156 199 241 288 349
#     4  11  21  35  55  88 117 154 196 243 288 351
#
# _framework density 18.591716000000002
#
# number of rings (size 3 to 8) (size 9 to 14) (size 15 to 20)
#    0.000    2.000    2.857    0.429    2.000    3.429 
#    0.000    1.429    0.000    0.857    0.000    0.000 
#    0.000    0.000    0.000    0.000    0.000    0.000 
#
# Total GULP energy -312008.032651 kJ/mol
# GULP energy per Si atom -5571.572012 kJ/mol
# Density = 1.854940 g / cm^3
# Si number density = 18.591716 Si / 1000 Ang^3
#
#
#
# Elastic Constant Matrix: (Units=GPa)
#
#
# Indices 1 2 3 4 5 6 
#
# 1 101.4935 45.8477 28.8376 0.0000 0.0000 0.0000
# 2 45.8477 66.6342 20.9419 0.0000 0.0000 0.0000
# 3 28.8376 20.9419 80.2281 0.0000 0.0000 0.0000
# 4 0.0000 0.0000 0.0000 18.3748 0.0000 0.0000
# 5 0.0000 0.0000 0.0000 0.0000 9.3785 0.0000
# 6 0.0000 0.0000 0.0000 0.0000 0.0000 43.1784
#
#
#
# Elastic Compliance Matrix: (Units=1/GPa)
#
#
# Indices 1 2 3 4 5 6 
#
# 1 0.014898 -0.009334 -0.002919 0.000000 0.000000 0.000000
# 2 -0.009334 0.022196 -0.002439 0.000000 0.000000 0.000000
# 3 -0.002919 -0.002439 0.014150 0.000000 0.000000 0.000000
# 4 0.000000 0.000000 0.000000 0.054422 0.000000 0.000000
# 5 0.000000 0.000000 0.000000 0.000000 0.106627 0.000000
# 6 0.000000 0.000000 0.000000 0.000000 0.000000 0.023160
#
#
# Mechanical properties :
#
#
# Convention : Reuss Voigt Hill
#
# Bulk Modulus (GPa) = 45.74155 48.84557 47.29356
# Shear Modulus (GPa) = 18.37400 24.36824 21.37112
#
# Velocity S-wave (km/s) = 3.14712 3.62429 3.39410
# Velocity P-wave (km/s) = 6.15324 6.62146 6.39164
#
# Compressibility (1/GPa) = 0.02186196
#
# Stress axis : x y z
#
# Youngs Moduli (GPa) = 67.12123 45.05367 70.67017
#
# Poissons Ratio (x) = 0.42051 0.20627
# Poissons Ratio (y) = 0.62648 0.17235
# Poissons Ratio (z) = 0.19592 0.10988
#
# Static dielectric constant tensor:
#      x y z
#    x 1.679720 0.000000 0.000000 
#    y 0.000000 1.673550 0.000000 
#    z 0.000000 0.000000 1.652940 
# 
# From -- ./inp_files/33356.got.cif
#   From: 2010.05.17/outbox.cif.g08.bks.cpg/sg66_17_cif.got.tgz:33356.got - 2010.06.03 17:51:23.
