data_PCOD9495005
_publ_section_title
;
Structure prediction by ZEFSAII (Michael W. Deem and Ramdas Pophale) SiO2 
 PCOD9495005
Probable space group: C C C M
;
_chemical_formula_sum "Si O2"
_cell_formula_units_Z 64
_cell_length_a 14.120090
_cell_length_b 35.921029
_cell_length_c 8.510310
_cell_angle_alpha 90.000000
_cell_angle_beta 90.000000
_cell_angle_gamma 90.000000
_cell_volume 4316.498696
_symmetry_space_group_name_H-M "C C C M"
_symmetry_group_IT_number 66
_symmetry_cell_setting 'orthorhombic'
loop_
_space_group_symop_operation_xyz
x,y,z
-x,-y,z
x,-y,1/2-z
-x,y,1/2-z
-x,-y,-z
x,y,-z
-x,y,1/2+z
x,-y,1/2+z
1/2+x,1/2+y,z
1/2-x,1/2-y,z
1/2+x,1/2-y,1/2-z
1/2-x,1/2+y,1/2-z
1/2-x,1/2-y,-z
1/2+x,1/2+y,-z
1/2-x,1/2+y,1/2+z
1/2+x,1/2-y,1/2+z
loop_
_atom_site_type_symbol
_atom_site_label
_atom_site_fract_x
_atom_site_fract_y
_atom_site_fract_z
Si Si1 0.793747 0.807351 0.308714
Si Si2 0.391672 0.461408 0.812840
Si Si3 0.107803 0.116931 0.689082
Si Si4 0.896013 0.268081 0.810537
O O1 0.794035 0.807496 0.500000
O O2 0.832475 0.847229 0.257687
O O3 0.862281 0.773332 0.260105
O O4 0.687633 0.796097 0.259360
O O5 0.348195 0.500000 0.750000
O O6 0.500000 0.461102 0.750000
O O7 0.351719 0.422288 0.751423
O O8 0.393237 0.461925 0.000000
O O9 0.105277 0.115667 0.500000
O O10 0.000000 0.120964 0.750000
O O11 0.000000 0.276780 0.750000
O O12 0.897440 0.268230 0.000000
#
# Coordination Sequence:
#
# PCOD9495005 Si02
#       4
#    16  16  16  16
#     4   8  16  28  42  57  80 109 136 162 200 244
#     4  10  17  26  38  54  76 104 133 163 194 233
#     4  10  17  26  39  57  79 107 136 166 198 234
#     4   9  16  29  44  59  78 106 137 168 201 237
#
# _framework density 14.826832
#
# number of rings (size 3 to 8) (size 9 to 14) (size 15 to 20)
#    0.000    2.750    0.000    7.500    0.000    0.000 
#    0.000    6.250    0.000    0.000    0.000    0.000 
#    0.000    1.000    0.000   11.500    0.000    3.500 
#
# Total GULP energy -178206.046203 kJ/mol
# GULP energy per Si atom -5568.938944 kJ/mol
# Density = 1.479309 g / cm^3
# Si number density = 14.826832 Si / 1000 Ang^3
#
#
#
# Elastic Constant Matrix: (Units=GPa)
#
#
# Indices 1 2 3 4 5 6 
#
# 1 75.4350 55.4067 15.2846 0.0000 0.0000 0.0000
# 2 55.4067 161.7685 35.1430 0.0000 0.0000 0.0000
# 3 15.2846 35.1430 56.6910 0.0000 0.0000 0.0000
# 4 0.0000 0.0000 0.0000 24.7961 0.0000 0.0000
# 5 0.0000 0.0000 0.0000 0.0000 16.1580 0.0000
# 6 0.0000 0.0000 0.0000 0.0000 0.0000 19.2842
#
#
#
# Elastic Compliance Matrix: (Units=1/GPa)
#
#
# Indices 1 2 3 4 5 6 
#
# 1 0.017780 -0.005834 -0.001177 0.000000 0.000000 0.000000
# 2 -0.005834 0.009058 -0.004042 0.000000 0.000000 0.000000
# 3 -0.001177 -0.004042 0.020463 0.000000 0.000000 0.000000
# 4 0.000000 0.000000 0.000000 0.040329 0.000000 0.000000
# 5 0.000000 0.000000 0.000000 0.000000 0.061889 0.000000
# 6 0.000000 0.000000 0.000000 0.000000 0.000000 0.051856
#
#
# Mechanical properties :
#
#
# Convention : Reuss Voigt Hill
#
# Bulk Modulus (GPa) = 39.69215 56.17369 47.93292
# Shear Modulus (GPa) = 21.56298 24.58502 23.07400
#
# Velocity S-wave (km/s) = 3.81769 4.07645 3.94919
# Velocity P-wave (km/s) = 6.80159 7.75405 7.29339
#
# Compressibility (1/GPa) = 0.02519390
#
# Stress axis : x y z
#
# Youngs Moduli (GPa) = 56.24282 110.39975 48.86957
#
# Poissons Ratio (x) = 0.64408 0.05753
# Poissons Ratio (y) = 0.32812 0.19754
# Poissons Ratio (z) = 0.06621 0.44625
#
# Static dielectric constant tensor:
#      x y z
#    x 1.468090 0.000000 0.000000 
#    y 0.000000 1.535480 0.000000 
#    z 0.000000 0.000000 1.505280 
# 
# From -- ./inp_files/5474.got.cif
#   From: 2010.05.17/outbox.cif.g08.bks.cpg/sg66_3_cif.got.tgz:5474.got - 2010.06.03 17:51:23.
