data_PCOD9495279
_publ_section_title
;
Structure prediction by ZEFSAII (Michael W. Deem and Ramdas Pophale) SiO2 
 PCOD9495279
Probable space group: C C C M
;
_chemical_formula_sum "Si O2"
_cell_formula_units_Z 104
_cell_length_a 23.932906
_cell_length_b 14.026606
_cell_length_c 18.203956
_cell_angle_alpha 90.000000
_cell_angle_beta 90.000000
_cell_angle_gamma 90.000000
_cell_volume 6111.021480
_symmetry_space_group_name_H-M "C C C M"
_symmetry_group_IT_number 66
_symmetry_cell_setting 'orthorhombic'
loop_
_space_group_symop_operation_xyz
x,y,z
-x,-y,z
x,-y,1/2-z
-x,y,1/2-z
-x,-y,-z
x,y,-z
-x,y,1/2+z
x,-y,1/2+z
1/2+x,1/2+y,z
1/2-x,1/2-y,z
1/2+x,1/2-y,1/2-z
1/2-x,1/2+y,1/2-z
1/2-x,1/2-y,-z
1/2+x,1/2+y,-z
1/2-x,1/2+y,1/2+z
1/2+x,1/2-y,1/2+z
loop_
_atom_site_type_symbol
_atom_site_label
_atom_site_fract_x
_atom_site_fract_y
_atom_site_fract_z
Si Si1 0.468665 0.095560 0.589031
Si Si2 0.144485 0.691647 0.913144
Si Si3 0.486145 0.698030 0.585893
Si Si4 0.750000 0.250000 0.826458
Si Si5 0.822860 0.893945 0.233595
Si Si6 0.870513 0.091883 0.583593
Si Si7 0.408869 0.387473 0.355945
O O1 0.466513 0.088987 0.500000
O O2 0.404540 0.118489 0.612720
O O3 0.503607 0.191660 0.606193
O O4 0.500000 0.000000 0.615830
O O5 0.204727 0.691617 0.874556
O O6 0.119558 0.797020 0.896550
O O7 0.151312 0.679394 0.000000
O O8 0.504271 0.686982 0.500000
O O9 0.423154 0.662610 0.589243
O O10 0.525780 0.632319 0.635555
O O11 0.784788 0.180061 0.775249
O O12 0.827776 0.879521 0.147129
O O13 0.883656 0.888540 0.273858
O O14 0.801862 0.000000 0.250000
O O15 0.849859 0.092311 0.500000
O O16 0.891373 0.985618 0.605126
#
# Coordination Sequence:
#
# PCOD9495279 Si02
#       7
#    16  16  16   8  16  16  16
#     4   8  14  26  43  66 100 133 158 191 236 286
#     4   9  16  27  48  76  98 122 158 198 247 298
#     4   9  16  25  42  70  98 126 158 188 224 277
#     4  10  19  34  51  66  92 124 162 216 255 278
#     4   9  20  35  49  67  91 123 157 192 242 291
#     4  10  18  29  46  69  97 125 154 188 228 282
#     4   9  16  28  47  71  99 123 146 184 237 289
#
# _framework density 17.018431
#
# number of rings (size 3 to 8) (size 9 to 14) (size 15 to 20)
#    0.000    2.923    0.000    3.000    0.000    1.846 
#    0.000    5.000    0.000    0.000    0.000    9.692 
#    0.000    0.000    0.000    0.000    0.000    0.769 
#
# Total GULP energy -289527.956787 kJ/mol
# GULP energy per Si atom -5567.845323 kJ/mol
# Density = 1.697970 g / cm^3
# Si number density = 17.018431 Si / 1000 Ang^3
#
#
#
# Elastic Constant Matrix: (Units=GPa)
#
#
# Indices 1 2 3 4 5 6 
#
# 1 67.6763 34.0090 35.6623 0.0000 0.0000 0.0000
# 2 34.0090 70.2629 25.8349 0.0000 0.0000 0.0000
# 3 35.6623 25.8349 91.7289 0.0000 0.0000 0.0000
# 4 0.0000 0.0000 0.0000 16.3635 0.0000 0.0000
# 5 0.0000 0.0000 0.0000 0.0000 6.9068 0.0000
# 6 0.0000 0.0000 0.0000 0.0000 0.0000 13.9760
#
#
#
# Elastic Compliance Matrix: (Units=1/GPa)
#
#
# Indices 1 2 3 4 5 6 
#
# 1 0.022375 -0.008513 -0.006301 0.000000 0.000000 0.000000
# 2 -0.008513 0.019115 -0.002074 0.000000 0.000000 0.000000
# 3 -0.006301 -0.002074 0.013936 0.000000 0.000000 0.000000
# 4 0.000000 0.000000 0.000000 0.061112 0.000000 0.000000
# 5 0.000000 0.000000 0.000000 0.000000 0.144785 0.000000
# 6 0.000000 0.000000 0.000000 0.000000 0.000000 0.071551
#
#
# Mechanical properties :
#
#
# Convention : Reuss Voigt Hill
#
# Bulk Modulus (GPa) = 46.19115 46.74228 46.46671
# Shear Modulus (GPa) = 13.37377 16.39337 14.88357
#
# Velocity S-wave (km/s) = 2.80633 3.10703 2.96050
# Velocity P-wave (km/s) = 6.14015 6.35585 6.24893
#
# Compressibility (1/GPa) = 0.02164917
#
# Stress axis : x y z
#
# Youngs Moduli (GPa) = 44.69344 52.31391 71.75865
#
# Poissons Ratio (x) = 0.44535 0.45216
# Poissons Ratio (y) = 0.38048 0.14883
# Poissons Ratio (z) = 0.28162 0.10850
#
# Static dielectric constant tensor:
#      x y z
#    x 1.596950 0.000000 0.000000 
#    y 0.000000 1.576450 0.000000 
#    z 0.000000 0.000000 1.582400 
# 
# From -- ./inp_files/44309.got.cif
#   From: 2010.05.17/outbox.cif.g08.bks.cpg/sg66_23_cif.got.tgz:44309.got - 2010.06.03 17:51:23.
