data_PCOD9495030
_publ_section_title
;
Structure prediction by ZEFSAII (Michael W. Deem and Ramdas Pophale) SiO2 
 PCOD9495030
Probable space group: C C C M
;
_chemical_formula_sum "Si O2"
_cell_formula_units_Z 112
_cell_length_a 23.652445
_cell_length_b 17.685066
_cell_length_c 14.982749
_cell_angle_alpha 90.000000
_cell_angle_beta 90.000000
_cell_angle_gamma 90.000000
_cell_volume 6267.209755
_symmetry_space_group_name_H-M "C C C M"
_symmetry_group_IT_number 66
_symmetry_cell_setting 'orthorhombic'
loop_
_space_group_symop_operation_xyz
x,y,z
-x,-y,z
x,-y,1/2-z
-x,y,1/2-z
-x,-y,-z
x,y,-z
-x,y,1/2+z
x,-y,1/2+z
1/2+x,1/2+y,z
1/2-x,1/2-y,z
1/2+x,1/2-y,1/2-z
1/2-x,1/2+y,1/2-z
1/2-x,1/2-y,-z
1/2+x,1/2+y,-z
1/2-x,1/2+y,1/2+z
1/2+x,1/2-y,1/2+z
loop_
_atom_site_type_symbol
_atom_site_label
_atom_site_fract_x
_atom_site_fract_y
_atom_site_fract_z
Si Si1 0.706907 0.314222 0.607666
Si Si2 0.541023 0.335310 0.106491
Si Si3 0.594000 0.505190 0.642698
Si Si4 0.341801 0.730100 0.109575
Si Si5 0.279735 0.511859 0.645117
Si Si6 0.919416 0.167955 0.396480
Si Si7 0.266692 0.137652 0.604656
O O1 0.704031 0.306726 0.500000
O O2 0.750000 0.250000 0.641208
O O3 0.727658 0.399900 0.625313
O O4 0.641920 0.309519 0.642390
O O5 0.555258 0.424178 0.118417
O O6 0.596462 0.292872 0.142432
O O7 0.480116 0.310303 0.144017
O O8 0.538013 0.322582 0.000000
O O9 0.593939 0.500000 0.750000
O O10 0.658714 0.514423 0.609284
O O11 0.577508 0.423403 0.606340
O O12 0.319014 0.812484 0.137966
O O13 0.292314 0.672523 0.140932
O O14 0.344710 0.726168 0.000000
O O15 0.282416 0.500000 0.750000
O O16 0.233337 0.452028 0.613966
O O17 0.918290 0.192293 0.500000
O O18 0.264525 0.154312 0.500000
#
# Coordination Sequence:
#
# PCOD9495030 Si02
#       7
#    16  16  16  16  16  16  16
#     4   9  18  34  51  65  85 117 156 190 218 257
#     4  10  17  27  42  61  86 113 141 176 215 257
#     4  10  19  28  38  57  87 121 148 174 206 250
#     4   8  15  25  41  64  86 111 141 171 212 261
#     4  10  19  30  43  67  91 116 149 184 225 260
#     4   9  18  29  43  61  81 111 148 180 213 254
#     4   9  15  27  44  62  85 115 146 175 213 264
#
# _framework density 17.870791000000001
#
# number of rings (size 3 to 8) (size 9 to 14) (size 15 to 20)
#    0.000    2.714    1.429    2.143    0.000    3.429 
#    2.571    0.000    0.000    0.000    0.000    1.000 
#    0.000    8.000    0.000    0.000    0.000    0.000 
#
# Total GULP energy -311933.483304 kJ/mol
# GULP energy per Si atom -5570.240773 kJ/mol
# Density = 1.783012 g / cm^3
# Si number density = 17.870791 Si / 1000 Ang^3
#
#
#
# Elastic Constant Matrix: (Units=GPa)
#
#
# Indices 1 2 3 4 5 6 
#
# 1 147.3306 77.6872 6.7168 0.0000 0.0000 0.0000
# 2 77.6872 84.2258 -2.4106 0.0000 0.0000 0.0000
# 3 6.7168 -2.4106 29.4467 0.0000 0.0000 0.0000
# 4 0.0000 0.0000 0.0000 -35.2076 0.0000 0.0000
# 5 0.0000 0.0000 0.0000 0.0000 4.0929 0.0000
# 6 0.0000 0.0000 0.0000 0.0000 0.0000 18.1944
#
#
#
# Elastic Compliance Matrix: (Units=1/GPa)
#
#
# Indices 1 2 3 4 5 6 
#
# 1 0.013707 -0.012763 -0.004171 0.000000 0.000000 0.000000
# 2 -0.012763 0.023784 0.004858 0.000000 0.000000 0.000000
# 3 -0.004171 0.004858 0.035309 0.000000 0.000000 0.000000
# 4 0.000000 0.000000 0.000000 -0.028403 0.000000 0.000000
# 5 0.000000 0.000000 0.000000 0.000000 0.244328 0.000000
# 6 0.000000 0.000000 0.000000 0.000000 0.000000 0.054962
#
#
# Mechanical properties :
#
#
# Convention : Reuss Voigt Hill
#
# Bulk Modulus (GPa) = 20.55578 47.22110 33.88844
# Shear Modulus (GPa) = 13.01896 9.34989 11.18443
#
# Velocity S-wave (km/s) = 2.70201 2.28983 2.50441
# Velocity P-wave (km/s) = 4.61106 5.78550 5.23135
#
# Compressibility (1/GPa) = 0.04864811
#
# Stress axis : x y z
#
# Youngs Moduli (GPa) = 72.95366 42.04556 28.32153
#
# Poissons Ratio (x) = 0.53661 0.11814
# Poissons Ratio (y) = 0.93108 -0.13759
# Poissons Ratio (z) = 0.30432 -0.20426
#
# Static dielectric constant tensor:
#      x y z
#    x 1.673340 0.000000 0.000000 
#    y 0.000000 1.616070 0.000000 
#    z 0.000000 0.000000 1.635190 
# 
# From -- ./inp_files/43146.got.cif
#   From: 2010.05.17/outbox.cif.g08.bks.cpg/sg66_22_cif.got.tgz:43146.got - 2010.06.03 17:51:23.
