data_PCOD9495714
_publ_section_title
;
Structure prediction by ZEFSAII (Michael W. Deem and Ramdas Pophale) SiO2 
 PCOD9495714
Probable space group: C C C M
;
_chemical_formula_sum "Si O2"
_cell_formula_units_Z 96
_cell_length_a 33.848295
_cell_length_b 30.384937
_cell_length_c 8.201776
_cell_angle_alpha 90.000000
_cell_angle_beta 90.000000
_cell_angle_gamma 90.000000
_cell_volume 8435.348729
_symmetry_space_group_name_H-M "C C C M"
_symmetry_group_IT_number 66
_symmetry_cell_setting 'orthorhombic'
loop_
_space_group_symop_operation_xyz
x,y,z
-x,-y,z
x,-y,1/2-z
-x,y,1/2-z
-x,-y,-z
x,y,-z
-x,y,1/2+z
x,-y,1/2+z
1/2+x,1/2+y,z
1/2-x,1/2-y,z
1/2+x,1/2-y,1/2-z
1/2-x,1/2+y,1/2-z
1/2-x,1/2-y,-z
1/2+x,1/2+y,-z
1/2-x,1/2+y,1/2+z
1/2+x,1/2-y,1/2+z
loop_
_atom_site_type_symbol
_atom_site_label
_atom_site_fract_x
_atom_site_fract_y
_atom_site_fract_z
Si Si1 0.242541 0.131328 0.685598
Si Si2 0.882888 0.893793 0.188815
Si Si3 0.810055 0.049492 0.193421
Si Si4 0.660737 0.312722 0.180297
Si Si5 0.044857 0.950352 0.194154
Si Si6 0.268211 0.821232 0.500000
Si Si7 0.185213 0.233322 0.000000
O O1 0.258944 0.132812 0.500000
O O2 0.226568 0.082370 0.723551
O O3 0.202546 0.160951 0.681767
O O4 0.268190 0.150181 0.834151
O O5 0.848390 0.929484 0.221554
O O6 0.871760 0.850646 0.291731
O O7 0.924131 0.916177 0.232663
O O8 0.881469 0.881268 0.000000
O O9 0.803142 0.000000 0.250000
O O10 0.817643 0.050383 0.000000
O O11 0.662628 0.280420 0.334742
O O12 0.656450 0.292606 0.000000
O O13 0.000000 0.941851 0.250000
O O14 0.055080 0.000000 0.250000
O O15 0.046889 0.948769 0.000000
O O16 0.226017 0.795254 0.500000
O O17 0.301499 0.783861 0.500000
#
# Coordination Sequence:
#
# PCOD9495714 Si02
#       7
#    16  16  16  16  16   8   8
#     4   8  16  26  35  49  68  88 110 134 162 195
#     4  11  19  29  42  54  69  89 109 136 174 208
#     4  10  19  27  37  53  68  87 114 143 172 202
#     4   9  16  27  39  53  71  86 105 135 162 196
#     4  11  21  33  43  54  69  87 111 140 171 206
#     4   9  16  24  40  48  70  90 108 128 164 193
#     4   9  16  26  36  58  66  87 110 130 156 203
#
# _framework density 11.380679000000001
#
# number of rings (size 3 to 8) (size 9 to 14) (size 15 to 20)
#    0.000    2.333    0.833    5.500    4.667    0.667 
#    0.000    3.333    0.000    0.000    0.000    0.000 
#    0.000    0.000    0.000    0.000    0.000    0.000 
#
# Total GULP energy -267445.430365 kJ/mol
# GULP energy per Si atom -5571.779799 kJ/mol
# Density = 1.135478 g / cm^3
# Si number density = 11.380679 Si / 1000 Ang^3
#
#
#
# Elastic Constant Matrix: (Units=GPa)
#
#
# Indices 1 2 3 4 5 6 
#
# 1 24.6677 23.1944 19.6819 0.0000 0.0000 0.0000
# 2 23.1944 39.7558 30.9494 0.0000 0.0000 0.0000
# 3 19.6819 30.9494 86.1322 0.0000 0.0000 0.0000
# 4 0.0000 0.0000 0.0000 12.6738 0.0000 0.0000
# 5 0.0000 0.0000 0.0000 0.0000 6.7859 0.0000
# 6 0.0000 0.0000 0.0000 0.0000 0.0000 6.4200
#
#
#
# Elastic Compliance Matrix: (Units=1/GPa)
#
#
# Indices 1 2 3 4 5 6 
#
# 1 0.090147 -0.050755 -0.002362 0.000000 0.000000 0.000000
# 2 -0.050755 0.063499 -0.011219 0.000000 0.000000 0.000000
# 3 -0.002362 -0.011219 0.016181 0.000000 0.000000 0.000000
# 4 0.000000 0.000000 0.000000 0.078903 0.000000 0.000000
# 5 0.000000 0.000000 0.000000 0.000000 0.147365 0.000000
# 6 0.000000 0.000000 0.000000 0.000000 0.000000 0.155762
#
#
# Mechanical properties :
#
#
# Convention : Reuss Voigt Hill
#
# Bulk Modulus (GPa) = 24.29810 33.13414 28.71612
# Shear Modulus (GPa) = 7.20204 10.29128 8.74666
#
# Velocity S-wave (km/s) = 2.51834 3.01038 2.77529
# Velocity P-wave (km/s) = 5.46376 6.42346 5.96295
#
# Compressibility (1/GPa) = 0.04115549
#
# Stress axis : x y z
#
# Youngs Moduli (GPa) = 11.09297 15.74826 61.80125
#
# Poissons Ratio (x) = 0.79931 0.14596
# Poissons Ratio (y) = 0.56303 0.69333
# Poissons Ratio (z) = 0.02620 0.17668
#
# Static dielectric constant tensor:
#      x y z
#    x 1.369690 0.000000 0.000000 
#    y 0.000000 1.379190 0.000000 
#    z 0.000000 0.000000 1.401980 
# 
# From -- ./inp_files/11832.got.cif
#   From: 2010.05.17/outbox.cif.g08.bks.cpg/sg66_6_cif.got.tgz:11832.got - 2010.06.03 17:51:23.
