data_PCOD9495625
_publ_section_title
;
Structure prediction by ZEFSAII (Michael W. Deem and Ramdas Pophale) SiO2 
 PCOD9495625
Probable space group: C C C M
;
_chemical_formula_sum "Si O2"
_cell_formula_units_Z 48
_cell_length_a 7.009695
_cell_length_b 16.784914
_cell_length_c 16.021729
_cell_angle_alpha 90.000000
_cell_angle_beta 90.000000
_cell_angle_gamma 90.000000
_cell_volume 1885.070616
_symmetry_space_group_name_H-M "C C C M"
_symmetry_group_IT_number 66
_symmetry_cell_setting 'orthorhombic'
loop_
_space_group_symop_operation_xyz
x,y,z
-x,-y,z
x,-y,1/2-z
-x,y,1/2-z
-x,-y,-z
x,y,-z
-x,y,1/2+z
x,-y,1/2+z
1/2+x,1/2+y,z
1/2-x,1/2-y,z
1/2+x,1/2-y,1/2-z
1/2-x,1/2+y,1/2-z
1/2-x,1/2-y,-z
1/2+x,1/2+y,-z
1/2-x,1/2+y,1/2+z
1/2+x,1/2-y,1/2+z
loop_
_atom_site_type_symbol
_atom_site_label
_atom_site_fract_x
_atom_site_fract_y
_atom_site_fract_z
Si Si1 0.901871 0.680137 0.838528
Si Si2 0.773340 0.013098 0.656476
Si Si3 0.331940 0.568379 0.000000
Si Si4 0.982538 0.242723 0.500000
O O1 0.750000 0.750000 0.821507
O O2 0.786475 0.602000 0.867169
O O3 0.032710 0.712594 0.913996
O O4 0.000000 0.664833 0.750000
O O5 0.701536 0.000000 0.750000
O O6 0.714701 0.951799 0.583997
O O7 0.000000 0.000000 0.663018
O O8 0.500000 0.500000 0.000000
O O9 0.432161 0.654107 0.000000
O O10 0.750000 0.250000 0.500000
#
# Coordination Sequence:
#
# PCOD9495625 Si02
#       4
#    16  16   8   8
#     4  11  24  40  68 102 144 181 231 285 348 409
#     4  10  21  37  66  94 135 180 231 275 339 402
#     4  10  18  34  63  95 131 177 231 273 337 411
#     4  10  20  38  66 100 139 179 226 282 350 413
#
# _framework density 25.463235999999998
#
# number of rings (size 3 to 8) (size 9 to 14) (size 15 to 20)
#    0.000    1.667    0.000    9.000    9.333    0.667 
#    0.000    2.500    0.000    4.000    0.000    0.000 
#    0.000    0.000    0.000    0.000    0.000    0.000 
#
# Total GULP energy -134293.972692 kJ/mol
# GULP energy per Si atom -5595.582196 kJ/mol
# Density = 2.540528 g / cm^3
# Si number density = 25.463236 Si / 1000 Ang^3
#
#
#
# Elastic Constant Matrix: (Units=GPa)
#
#
# Indices 1 2 3 4 5 6 
#
# 1 113.4303 71.1724 24.7842 0.0000 0.0000 0.0000
# 2 71.1724 272.8942 85.3988 0.0000 0.0000 0.0000
# 3 24.7842 85.3988 254.2888 0.0000 0.0000 0.0000
# 4 0.0000 0.0000 0.0000 41.6423 0.0000 0.0000
# 5 0.0000 0.0000 0.0000 0.0000 4.4071 0.0000
# 6 0.0000 0.0000 0.0000 0.0000 0.0000 58.8491
#
#
#
# Elastic Compliance Matrix: (Units=1/GPa)
#
#
# Indices 1 2 3 4 5 6 
#
# 1 0.010544 -0.002714 -0.000116 0.000000 0.000000 0.000000
# 2 -0.002714 0.004793 -0.001345 0.000000 0.000000 0.000000
# 3 -0.000116 -0.001345 0.004396 0.000000 0.000000 0.000000
# 4 0.000000 0.000000 0.000000 0.024014 0.000000 0.000000
# 5 0.000000 0.000000 0.000000 0.000000 0.226909 0.000000
# 6 0.000000 0.000000 0.000000 0.000000 0.000000 0.016993
#
#
# Mechanical properties :
#
#
# Convention : Reuss Voigt Hill
#
# Bulk Modulus (GPa) = 87.85384 111.48047 99.66716
# Shear Modulus (GPa) = 16.67818 51.59690 34.13754
#
# Velocity S-wave (km/s) = 2.56205 4.50636 3.66547
# Velocity P-wave (km/s) = 6.58250 8.42332 7.55916
#
# Compressibility (1/GPa) = 0.01138254
#
# Stress axis : x y z
#
# Youngs Moduli (GPa) = 94.84044 208.63352 227.49785
#
# Poissons Ratio (x) = 0.56613 0.02648
# Poissons Ratio (y) = 0.25735 0.30603
# Poissons Ratio (z) = 0.01104 0.28066
#
# Static dielectric constant tensor:
#      x y z
#    x 1.774200 0.000000 0.000000 
#    y 0.000000 1.954010 0.000000 
#    z 0.000000 0.000000 2.131900 
# 
# From -- ./inp_files/35776.got.cif
#   From: 2010.05.17/outbox.cif.g08.bks.cpg/sg66_18_cif.got.tgz:35776.got - 2010.06.03 17:51:23.
