data_PCOD9495114
_publ_section_title
;
Structure prediction by ZEFSAII (Michael W. Deem and Ramdas Pophale) SiO2 
 PCOD9495114
Probable space group: C C C M
;
_chemical_formula_sum "Si O2"
_cell_formula_units_Z 96
_cell_length_a 11.496815
_cell_length_b 21.656190
_cell_length_c 17.244368
_cell_angle_alpha 90.000000
_cell_angle_beta 90.000000
_cell_angle_gamma 90.000000
_cell_volume 4293.454633
_symmetry_space_group_name_H-M "C C C M"
_symmetry_group_IT_number 66
_symmetry_cell_setting 'orthorhombic'
loop_
_space_group_symop_operation_xyz
x,y,z
-x,-y,z
x,-y,1/2-z
-x,y,1/2-z
-x,-y,-z
x,y,-z
-x,y,1/2+z
x,-y,1/2+z
1/2+x,1/2+y,z
1/2-x,1/2-y,z
1/2+x,1/2-y,1/2-z
1/2-x,1/2+y,1/2-z
1/2-x,1/2-y,-z
1/2+x,1/2+y,-z
1/2-x,1/2+y,1/2+z
1/2+x,1/2-y,1/2+z
loop_
_atom_site_type_symbol
_atom_site_label
_atom_site_fract_x
_atom_site_fract_y
_atom_site_fract_z
Si Si1 0.361410 0.296698 0.086687
Si Si2 0.397021 0.906912 0.299744
Si Si3 0.205204 0.179210 0.256936
Si Si4 0.142578 0.503407 0.914160
Si Si5 0.026834 0.684988 0.915162
Si Si6 0.272851 0.636143 0.087589
O O1 0.250000 0.250000 0.085846
O O2 0.353117 0.328594 0.171495
O O3 0.472643 0.252208 0.089932
O O4 0.359526 0.327543 0.000000
O O5 0.500000 0.935466 0.250000
O O6 0.316385 0.865017 0.247779
O O7 0.460944 0.859210 0.356594
O O8 0.324012 0.956922 0.346461
O O9 0.250000 0.250000 0.261368
O O10 0.149891 0.154770 0.337819
O O11 0.204873 0.569757 0.905600
O O12 0.000000 0.500000 0.911479
O O13 0.174456 0.480851 0.000000
O O14 0.164974 0.684044 0.909617
O O15 0.998860 0.658698 0.000000
O O16 0.324212 0.638152 0.000000
#
# Coordination Sequence:
#
# PCOD9495114 Si02
#       6
#    16  16  16  16  16  16
#     4   9  17  28  44  65  88 117 155 197 243 285
#     4  12  20  29  44  68  96 126 160 198 240 279
#     4  11  21  31  45  65  91 125 165 200 240 283
#     4  10  19  31  46  65  91 125 165 203 232 268
#     4  10  17  30  47  64  89 122 159 200 234 273
#     4  10  21  35  49  67  93 130 172 204 231 273
#
# _framework density 22.359615999999999
#
# number of rings (size 3 to 8) (size 9 to 14) (size 15 to 20)
#    0.000    1.667    6.667    0.500    0.000    3.333 
#    0.000    0.000    0.000    0.000    0.000    0.000 
#    0.000    0.000    0.000   27.000    0.000  100.333 
#
# Total GULP energy -267674.586643 kJ/mol
# GULP energy per Si atom -5576.553888 kJ/mol
# Density = 2.230872 g / cm^3
# Si number density = 22.359616 Si / 1000 Ang^3
#
#
#
# Elastic Constant Matrix: (Units=GPa)
#
#
# Indices 1 2 3 4 5 6 
#
# 1 27.6869 21.3988 11.0326 0.0000 0.0000 0.0000
# 2 21.3988 70.8865 54.8210 0.0000 0.0000 0.0000
# 3 11.0326 54.8210 226.7401 0.0000 0.0000 0.0000
# 4 0.0000 0.0000 0.0000 36.9075 0.0000 0.0000
# 5 0.0000 0.0000 0.0000 0.0000 6.4097 0.0000
# 6 0.0000 0.0000 0.0000 0.0000 0.0000 11.8921
#
#
#
# Elastic Compliance Matrix: (Units=1/GPa)
#
#
# Indices 1 2 3 4 5 6 
#
# 1 0.047479 -0.015431 0.001421 0.000000 0.000000 0.000000
# 2 -0.015431 0.022367 -0.004657 0.000000 0.000000 0.000000
# 3 0.001421 -0.004657 0.005467 0.000000 0.000000 0.000000
# 4 0.000000 0.000000 0.000000 0.027095 0.000000 0.000000
# 5 0.000000 0.000000 0.000000 0.000000 0.156013 0.000000
# 6 0.000000 0.000000 0.000000 0.000000 0.000000 0.084089
#
#
# Mechanical properties :
#
#
# Convention : Reuss Voigt Hill
#
# Bulk Modulus (GPa) = 26.33127 55.53537 40.93332
# Shear Modulus (GPa) = 12.73871 26.91261 19.82566
#
# Velocity S-wave (km/s) = 2.38947 3.47310 2.98094
# Velocity P-wave (km/s) = 4.40620 6.40113 5.49495
#
# Compressibility (1/GPa) = 0.03797765
#
# Stress axis : x y z
#
# Youngs Moduli (GPa) = 21.06208 44.70892 182.91007
#
# Poissons Ratio (x) = 0.68992 -0.25987
# Poissons Ratio (y) = 0.32502 0.85181
# Poissons Ratio (z) = -0.02992 0.20821
#
# Static dielectric constant tensor:
#      x y z
#    x 1.849950 0.000000 0.000000 
#    y 0.000000 1.863510 0.000000 
#    z 0.000000 0.000000 1.976840 
# 
# From -- ./inp_files/38850.got.cif
#   From: 2010.05.17/outbox.cif.g08.bks.cpg/sg66_20_cif.got.tgz:38850.got - 2010.06.03 17:51:23.
