data_PCOD9495650
_publ_section_title
;
Structure prediction by ZEFSAII (Michael W. Deem and Ramdas Pophale) SiO2 
 PCOD9495650
Probable space group: C C C M
;
_chemical_formula_sum "Si O2"
_cell_formula_units_Z 88
_cell_length_a 10.864199
_cell_length_b 28.688777
_cell_length_c 14.443214
_cell_angle_alpha 90.000000
_cell_angle_beta 90.000000
_cell_angle_gamma 90.000000
_cell_volume 4501.669351
_symmetry_space_group_name_H-M "C C C M"
_symmetry_group_IT_number 66
_symmetry_cell_setting 'orthorhombic'
loop_
_space_group_symop_operation_xyz
x,y,z
-x,-y,z
x,-y,1/2-z
-x,y,1/2-z
-x,-y,-z
x,y,-z
-x,y,1/2+z
x,-y,1/2+z
1/2+x,1/2+y,z
1/2-x,1/2-y,z
1/2+x,1/2-y,1/2-z
1/2-x,1/2+y,1/2-z
1/2-x,1/2-y,-z
1/2+x,1/2+y,-z
1/2-x,1/2+y,1/2+z
1/2+x,1/2-y,1/2+z
loop_
_atom_site_type_symbol
_atom_site_label
_atom_site_fract_x
_atom_site_fract_y
_atom_site_fract_z
Si Si1 0.279420 0.301596 0.835980
Si Si2 0.810524 0.545704 0.500000
Si Si3 0.500000 0.746614 0.250000
Si Si4 0.005739 0.423645 0.142899
Si Si5 0.776961 0.441504 0.500000
Si Si6 0.372715 0.174323 0.660936
Si Si7 0.396881 0.358996 0.000000
Si Si8 0.307862 0.352190 0.500000
O O1 0.250000 0.250000 0.877055
O O2 0.387404 0.286396 0.768269
O O3 0.180194 0.324334 0.766345
O O4 0.332065 0.335355 0.912037
O O5 0.902607 0.547987 0.412903
O O6 0.746230 0.496101 0.500000
O O7 0.729640 0.592711 0.500000
O O8 0.543093 0.779410 0.335796
O O9 0.957057 0.370191 0.139226
O O10 0.000000 0.437209 0.250000
O O11 0.134211 0.429555 0.088311
O O12 0.652655 0.411715 0.500000
O O13 0.260691 0.171205 0.588423
O O14 0.543847 0.350216 0.000000
#
# Coordination Sequence:
#
# PCOD9495650 Si02
#       8
#    16   8   8  16   8  16   8   8
#     4  10  22  38  55  84 123 152 198 244 291 345
#     4   9  22  39  54  90 120 146 191 254 300 355
#     4  10  20  36  62  84 119 153 190 248 292 346
#     4  10  18  35  62  88 118 149 186 245 309 357
#     4  11  24  36  58  89 119 150 204 246 294 363
#     4  10  20  38  60  89 117 155 191 241 301 351
#     4  12  24  39  58  82 113 169 206 242 290 355
#     4  10  23  40  62  83 120 157 199 238 299 370
#
# _framework density 19.548304999999999
#
# number of rings (size 3 to 8) (size 9 to 14) (size 15 to 20)
#    0.000    1.818    0.909    4.091    2.545    2.545 
#    0.000    5.000    0.000    0.000    0.000    5.091 
#    0.000    0.000    0.000    0.000    0.000    0.000 
#
# Total GULP energy -245278.439433 kJ/mol
# GULP energy per Si atom -5574.509987 kJ/mol
# Density = 1.950381 g / cm^3
# Si number density = 19.548305 Si / 1000 Ang^3
#
#
#
# Elastic Constant Matrix: (Units=GPa)
#
#
# Indices 1 2 3 4 5 6 
#
# 1 68.6440 -4.8091 18.8173 0.0000 0.0000 0.0000
# 2 -4.8091 62.4557 12.0238 0.0000 0.0000 0.0000
# 3 18.8173 12.0238 110.6921 0.0000 0.0000 0.0000
# 4 0.0000 0.0000 0.0000 11.8393 0.0000 0.0000
# 5 0.0000 0.0000 0.0000 0.0000 24.2007 0.0000
# 6 0.0000 0.0000 0.0000 0.0000 0.0000 31.6037
#
#
#
# Elastic Compliance Matrix: (Units=1/GPa)
#
#
# Indices 1 2 3 4 5 6 
#
# 1 0.015461 0.001733 -0.002817 0.000000 0.000000 0.000000
# 2 0.001733 0.016548 -0.002092 0.000000 0.000000 0.000000
# 3 -0.002817 -0.002092 0.009740 0.000000 0.000000 0.000000
# 4 0.000000 0.000000 0.000000 0.084465 0.000000 0.000000
# 5 0.000000 0.000000 0.000000 0.000000 0.041321 0.000000
# 6 0.000000 0.000000 0.000000 0.000000 0.000000 0.031642
#
#
# Mechanical properties :
#
#
# Convention : Reuss Voigt Hill
#
# Bulk Modulus (GPa) = 28.25071 32.65067 30.45069
# Shear Modulus (GPa) = 23.00675 27.91272 25.45974
#
# Velocity S-wave (km/s) = 3.43435 3.78284 3.61279
# Velocity P-wave (km/s) = 5.49631 5.98487 5.74578
#
# Compressibility (1/GPa) = 0.03539733
#
# Stress axis : x y z
#
# Youngs Moduli (GPa) = 64.67711 60.43199 102.66805
#
# Poissons Ratio (x) = -0.10471 0.28918
# Poissons Ratio (y) = -0.11207 0.21478
# Poissons Ratio (z) = 0.18217 0.12643
#
# Static dielectric constant tensor:
#      x y z
#    x 1.722920 0.000000 0.000000 
#    y 0.000000 1.715990 0.000000 
#    z 0.000000 0.000000 1.703700 
# 
# From -- ./inp_files/26826.got.cif
#   From: 2010.05.17/outbox.cif.g08.bks.cpg/sg66_14_cif.got.tgz:26826.got - 2010.06.03 17:51:23.
