data_PCOD9496431
_publ_section_title
;
Structure prediction by ZEFSAII (Michael W. Deem and Ramdas Pophale) SiO2 
 PCOD9496431
Probable space group: C C C M
;
_chemical_formula_sum "Si O2"
_cell_formula_units_Z 80
_cell_length_a 7.384817
_cell_length_b 27.041248
_cell_length_c 17.443212
_cell_angle_alpha 90.000000
_cell_angle_beta 90.000000
_cell_angle_gamma 90.000000
_cell_volume 3483.316428
_symmetry_space_group_name_H-M "C C C M"
_symmetry_group_IT_number 66
_symmetry_cell_setting 'orthorhombic'
loop_
_space_group_symop_operation_xyz
x,y,z
-x,-y,z
x,-y,1/2-z
-x,y,1/2-z
-x,-y,-z
x,y,-z
-x,y,1/2+z
x,-y,1/2+z
1/2+x,1/2+y,z
1/2-x,1/2-y,z
1/2+x,1/2-y,1/2-z
1/2-x,1/2+y,1/2-z
1/2-x,1/2-y,-z
1/2+x,1/2+y,-z
1/2-x,1/2+y,1/2+z
1/2+x,1/2-y,1/2+z
loop_
_atom_site_type_symbol
_atom_site_label
_atom_site_fract_x
_atom_site_fract_y
_atom_site_fract_z
Si Si1 0.209322 0.486685 0.408469
Si Si2 0.787514 0.802820 0.767748
Si Si3 0.229034 0.877765 0.148020
Si Si4 0.428974 0.829701 0.415069
Si Si5 0.635302 0.410910 0.588438
O O1 0.242870 0.479844 0.500000
O O2 0.236688 0.435556 0.364729
O O3 0.328952 0.533710 0.382216
O O4 0.000000 0.500000 0.400540
O O5 0.750000 0.750000 0.727677
O O6 0.724143 0.854366 0.729749
O O7 0.672673 0.800361 0.847019
O O8 0.000000 0.805719 0.750000
O O9 0.360547 0.843861 0.096029
O O10 0.014964 0.877095 0.128932
O O11 0.401191 0.807964 0.500000
O O12 0.324379 0.882230 0.412492
O O13 0.576103 0.415202 0.500000
#
# Coordination Sequence:
#
# PCOD9496431 Si02
#       5
#    16  16  16  16  16
#     4  10  19  35  64 103 148 193 232 280 346 414
#     4  12  27  51  75 100 139 185 232 296 368 426
#     4  12  22  40  71 102 141 188 233 282 351 419
#     4  11  23  43  72 104 140 181 232 291 347 416
#     4  10  20  36  64 102 143 186 229 278 340 412
#
# _framework density 22.966618
#
# number of rings (size 3 to 8) (size 9 to 14) (size 15 to 20)
#    0.000    1.000    4.000    4.200    0.000    2.000 
#    0.000    1.000    0.000    6.000    0.000    0.000 
#    0.000    0.000    0.000    0.000    0.000    0.000 
#
# Total GULP energy -222941.629573 kJ/mol
# GULP energy per Si atom -5573.540739 kJ/mol
# Density = 2.291434 g / cm^3
# Si number density = 22.966618 Si / 1000 Ang^3
#
#
#
# Elastic Constant Matrix: (Units=GPa)
#
#
# Indices 1 2 3 4 5 6 
#
# 1 101.4689 19.4132 28.5512 0.0000 0.0000 0.0000
# 2 19.4132 99.1523 32.7282 0.0000 0.0000 0.0000
# 3 28.5512 32.7282 86.1845 0.0000 0.0000 0.0000
# 4 0.0000 0.0000 0.0000 21.4695 0.0000 0.0000
# 5 0.0000 0.0000 0.0000 0.0000 19.9171 0.0000
# 6 0.0000 0.0000 0.0000 0.0000 0.0000 29.3028
#
#
#
# Elastic Compliance Matrix: (Units=1/GPa)
#
#
# Indices 1 2 3 4 5 6 
#
# 1 0.010969 -0.001084 -0.003222 0.000000 0.000000 0.000000
# 2 -0.001084 0.011638 -0.004060 0.000000 0.000000 0.000000
# 3 -0.003222 -0.004060 0.014212 0.000000 0.000000 0.000000
# 4 0.000000 0.000000 0.000000 0.046578 0.000000 0.000000
# 5 0.000000 0.000000 0.000000 0.000000 0.050208 0.000000
# 6 0.000000 0.000000 0.000000 0.000000 0.000000 0.034126
#
#
# Mechanical properties :
#
#
# Convention : Reuss Voigt Hill
#
# Bulk Modulus (GPa) = 49.78512 49.79901 49.79207
# Shear Modulus (GPa) = 26.15601 27.87877 27.01739
#
# Velocity S-wave (km/s) = 3.37838 3.48786 3.43356
# Velocity P-wave (km/s) = 6.07800 6.16040 6.11934
#
# Compressibility (1/GPa) = 0.02008632
#
# Stress axis : x y z
#
# Youngs Moduli (GPa) = 91.16340 85.92551 70.36118
#
# Poissons Ratio (x) = 0.09315 0.22672
# Poissons Ratio (y) = 0.09883 0.28569
# Poissons Ratio (z) = 0.29375 0.34889
#
# Static dielectric constant tensor:
#      x y z
#    x 1.991530 0.000000 0.000000 
#    y 0.000000 1.838870 0.000000 
#    z 0.000000 0.000000 1.937590 
# 
# From -- ./inp_files/37018.got.cif
#   From: 2010.05.17/outbox.cif.g08.bks.cpg/sg66_19_cif.got.tgz:37018.got - 2010.06.03 17:51:23.
