data_PCOD9496706
_publ_section_title
;
Structure prediction by ZEFSAII (Michael W. Deem and Ramdas Pophale) SiO2 
 PCOD9496706
Probable space group: C C C M
;
_chemical_formula_sum "Si O2"
_cell_formula_units_Z 48
_cell_length_a 12.274214
_cell_length_b 16.282118
_cell_length_c 10.685676
_cell_angle_alpha 90.000000
_cell_angle_beta 90.000000
_cell_angle_gamma 90.000000
_cell_volume 2135.534493
_symmetry_space_group_name_H-M "C C C M"
_symmetry_group_IT_number 66
_symmetry_cell_setting 'orthorhombic'
loop_
_space_group_symop_operation_xyz
x,y,z
-x,-y,z
x,-y,1/2-z
-x,y,1/2-z
-x,-y,-z
x,y,-z
-x,y,1/2+z
x,-y,1/2+z
1/2+x,1/2+y,z
1/2-x,1/2-y,z
1/2+x,1/2-y,1/2-z
1/2-x,1/2+y,1/2-z
1/2-x,1/2-y,-z
1/2+x,1/2+y,-z
1/2-x,1/2+y,1/2+z
1/2+x,1/2-y,1/2+z
loop_
_atom_site_type_symbol
_atom_site_label
_atom_site_fract_x
_atom_site_fract_y
_atom_site_fract_z
Si Si1 0.806375 0.336727 0.000000
Si Si2 0.542345 0.901662 0.000000
Si Si3 0.053305 0.908233 0.367370
Si Si4 0.201641 0.409505 0.776003
O O1 0.750000 0.250000 0.000000
O O2 0.776953 0.374327 0.136981
O O3 0.935759 0.346462 0.000000
O O4 0.614543 0.878579 0.122334
O O5 0.500000 0.000000 0.000000
O O6 0.030222 0.868316 0.500000
O O7 0.181419 0.915139 0.344031
O O8 0.000000 0.864060 0.250000
O O9 0.000000 0.000000 0.372005
O O10 0.159227 0.500000 0.750000
#
# Coordination Sequence:
#
# PCOD9496706 Si02
#       4
#     8   8  16  16
#     4  12  30  48  70 108 168 210 251 331 429 486
#     4  12  24  44  81 118 149 195 271 345 394 476
#     4  10  20  32  58 100 152 182 232 314 387 440
#     4  12  22  42  76 116 147 193 270 330 388 479
#
# _framework density 22.476808999999999
#
# number of rings (size 3 to 8) (size 9 to 14) (size 15 to 20)
#    0.000    0.667    8.333    1.000    2.333    0.000 
#    0.000    4.167    0.000    0.000    0.000    0.000 
#    0.000    0.000    0.000    0.000    0.000    0.000 
#
# Total GULP energy -133805.270775 kJ/mol
# GULP energy per Si atom -5575.219616 kJ/mol
# Density = 2.242565 g / cm^3
# Si number density = 22.476809 Si / 1000 Ang^3
#
#
#
# Elastic Constant Matrix: (Units=GPa)
#
#
# Indices 1 2 3 4 5 6 
#
# 1 139.3559 19.8858 44.1758 0.0000 0.0000 0.0000
# 2 19.8858 65.5843 43.8063 0.0000 0.0000 0.0000
# 3 44.1758 43.8063 247.4518 0.0000 0.0000 0.0000
# 4 0.0000 0.0000 0.0000 4.6202 0.0000 0.0000
# 5 0.0000 0.0000 0.0000 0.0000 51.3450 0.0000
# 6 0.0000 0.0000 0.0000 0.0000 0.0000 17.1857
#
#
#
# Elastic Compliance Matrix: (Units=1/GPa)
#
#
# Indices 1 2 3 4 5 6 
#
# 1 0.007755 -0.001618 -0.001098 0.000000 0.000000 0.000000
# 2 -0.001618 0.017630 -0.002832 0.000000 0.000000 0.000000
# 3 -0.001098 -0.002832 0.004739 0.000000 0.000000 0.000000
# 4 0.000000 0.000000 0.000000 0.216442 0.000000 0.000000
# 5 0.000000 0.000000 0.000000 0.000000 0.019476 0.000000
# 6 0.000000 0.000000 0.000000 0.000000 0.000000 0.058188
#
#
# Mechanical properties :
#
#
# Convention : Reuss Voigt Hill
#
# Bulk Modulus (GPa) = 52.55679 74.23644 63.39662
# Shear Modulus (GPa) = 14.63410 37.59845 26.11627
#
# Velocity S-wave (km/s) = 2.55439 4.09438 3.41239
# Velocity P-wave (km/s) = 5.66862 7.44659 6.61759
#
# Compressibility (1/GPa) = 0.01902704
#
# Stress axis : x y z
#
# Youngs Moduli (GPa) = 128.95225 56.72202 211.03343
#
# Poissons Ratio (x) = 0.09177 0.23171
# Poissons Ratio (y) = 0.20864 0.59768
# Poissons Ratio (z) = 0.14159 0.16065
#
# Static dielectric constant tensor:
#      x y z
#    x 3.098040 0.000000 0.000000 
#    y 0.000000 1.844610 0.000000 
#    z 0.000000 0.000000 1.782900 
# 
# From -- ./inp_files/14202.got.cif
#   From: 2010.05.17/outbox.cif.g08.bks.cpg/sg66_8_cif.got.tgz:14202.got - 2010.06.03 17:51:23.
