data_PCOD9496924
_publ_section_title
;
Structure prediction by ZEFSAII (Michael W. Deem and Ramdas Pophale) SiO2 
 PCOD9496924
Probable space group: C C C M
;
_chemical_formula_sum "Si O2"
_cell_formula_units_Z 116
_cell_length_a 27.697440
_cell_length_b 12.369762
_cell_length_c 14.457532
_cell_angle_alpha 90.000000
_cell_angle_beta 90.000000
_cell_angle_gamma 90.000000
_cell_volume 4953.305749
_symmetry_space_group_name_H-M "C C C M"
_symmetry_group_IT_number 66
_symmetry_cell_setting 'orthorhombic'
loop_
_space_group_symop_operation_xyz
x,y,z
-x,-y,z
x,-y,1/2-z
-x,y,1/2-z
-x,-y,-z
x,y,-z
-x,y,1/2+z
x,-y,1/2+z
1/2+x,1/2+y,z
1/2-x,1/2-y,z
1/2+x,1/2-y,1/2-z
1/2-x,1/2+y,1/2-z
1/2-x,1/2-y,-z
1/2+x,1/2+y,-z
1/2-x,1/2+y,1/2+z
1/2+x,1/2-y,1/2+z
loop_
_atom_site_type_symbol
_atom_site_label
_atom_site_fract_x
_atom_site_fract_y
_atom_site_fract_z
Si Si1 0.000000 0.500000 0.750000
Si Si2 0.028110 0.652602 0.607463
Si Si3 0.823051 0.758520 0.386970
Si Si4 0.073425 0.253490 0.394784
Si Si5 0.944416 0.991965 0.640881
Si Si6 0.379545 0.303822 0.894403
Si Si7 0.707953 0.161739 0.393036
Si Si8 0.248087 0.065249 0.612070
O O1 0.964283 0.442731 0.677987
O O2 0.024389 0.620035 0.500000
O O3 0.071167 0.736197 0.612697
O O4 0.977356 0.703705 0.642011
O O5 0.826754 0.767415 0.500000
O O6 0.875327 0.724142 0.349789
O O7 0.801186 0.874296 0.354473
O O8 0.786906 0.659758 0.369940
O O9 0.074684 0.294262 0.500000
O O10 0.071565 0.124611 0.392734
O O11 0.901254 0.077406 0.624385
O O12 0.950014 0.000000 0.750000
O O13 0.000000 0.000000 0.603486
O O14 0.337343 0.228873 0.850581
O O15 0.362283 0.313568 0.000000
O O16 0.694355 0.132244 0.500000
O O17 0.750000 0.250000 0.394493
O O18 0.731390 0.050335 0.353606
O O19 0.242534 0.053534 0.500000
#
# Coordination Sequence:
#
# PCOD9496924 Si02
#       8
#     4  16  16  16  16  16  16  16
#     4  12  26  40  68  84 128 164 210 268 308 364
#     4  10  23  41  61  91 124 163 211 254 312 380
#     4   8  15  27  49  78 111 149 189 244 299 345
#     4  10  20  34  57  88 119 149 193 249 301 361
#     4  11  23  36  58  84 116 155 200 247 303 376
#     4  10  21  37  58  87 123 157 196 250 313 375
#     4   9  18  30  50  83 120 154 192 244 305 371
#     4   8  14  27  45  74 113 149 189 237 294 353
#
# _framework density 23.418703000000001
#
# number of rings (size 3 to 8) (size 9 to 14) (size 15 to 20)
#    0.000    2.483    1.379    1.448    3.862    1.655 
#    0.000    4.138    0.000    0.000    5.379    0.000 
#    0.000    0.000    0.000    0.000    0.000    0.000 
#
# Total GULP energy -323051.046439 kJ/mol
# GULP energy per Si atom -5569.845628 kJ/mol
# Density = 2.336540 g / cm^3
# Si number density = 23.418703 Si / 1000 Ang^3
#
#
#
# Elastic Constant Matrix: (Units=GPa)
#
#
# Indices 1 2 3 4 5 6 
#
# 1 120.4893 19.8999 9.7863 0.0000 0.0000 0.0000
# 2 19.8999 93.7416 6.5719 0.0000 0.0000 0.0000
# 3 9.7863 6.5719 56.4259 0.0000 0.0000 0.0000
# 4 0.0000 0.0000 0.0000 -4.1877 0.0000 0.0000
# 5 0.0000 0.0000 0.0000 0.0000 2.5797 0.0000
# 6 0.0000 0.0000 0.0000 0.0000 0.0000 40.7785
#
#
#
# Elastic Compliance Matrix: (Units=1/GPa)
#
#
# Indices 1 2 3 4 5 6 
#
# 1 0.008695 -0.001754 -0.001304 0.000000 0.000000 0.000000
# 2 -0.001754 0.011109 -0.000990 0.000000 0.000000 0.000000
# 3 -0.001304 -0.000990 0.018064 0.000000 0.000000 0.000000
# 4 0.000000 0.000000 0.000000 -0.238797 0.000000 0.000000
# 5 0.000000 0.000000 0.000000 0.000000 0.387646 0.000000
# 6 0.000000 0.000000 0.000000 0.000000 0.000000 0.024523
#
#
# Mechanical properties :
#
#
# Convention : Reuss Voigt Hill
#
# Bulk Modulus (GPa) = 33.58778 38.13035 35.85906
# Shear Modulus (GPa) = 21.80937 23.46070 22.63503
#
# Velocity S-wave (km/s) = 3.05500 3.16855 3.11229
# Velocity P-wave (km/s) = 5.17856 5.45010 5.31606
#
# Compressibility (1/GPa) = 0.02977273
#
# Stress axis : x y z
#
# Youngs Moduli (GPa) = 115.00675 90.01353 55.35954
#
# Poissons Ratio (x) = 0.15792 0.07217
# Poissons Ratio (y) = 0.20177 0.05479
# Poissons Ratio (z) = 0.14994 0.08908
#
# Static dielectric constant tensor:
#      x y z
#    x 1.952740 0.000000 0.000000 
#    y 0.000000 1.918920 0.000000 
#    z 0.000000 0.000000 1.936330 
# 
# From -- ./inp_files/44355.got.cif
#   From: 2010.05.17/outbox.cif.g08.bks.cpg/sg66_23_cif.got.tgz:44355.got - 2010.06.03 17:51:23.
