data_PCOD9496736
_publ_section_title
;
Structure prediction by ZEFSAII (Michael W. Deem and Ramdas Pophale) SiO2 
 PCOD9496736
Probable space group: C C C M
;
_chemical_formula_sum "Si O2"
_cell_formula_units_Z 64
_cell_length_a 14.193564
_cell_length_b 14.548060
_cell_length_c 15.656814
_cell_angle_alpha 90.000000
_cell_angle_beta 90.000000
_cell_angle_gamma 90.000000
_cell_volume 3232.957059
_symmetry_space_group_name_H-M "C C C M"
_symmetry_group_IT_number 66
_symmetry_cell_setting 'orthorhombic'
loop_
_space_group_symop_operation_xyz
x,y,z
-x,-y,z
x,-y,1/2-z
-x,y,1/2-z
-x,-y,-z
x,y,-z
-x,y,1/2+z
x,-y,1/2+z
1/2+x,1/2+y,z
1/2-x,1/2-y,z
1/2+x,1/2-y,1/2-z
1/2-x,1/2+y,1/2-z
1/2-x,1/2-y,-z
1/2+x,1/2+y,-z
1/2-x,1/2+y,1/2+z
1/2+x,1/2-y,1/2+z
loop_
_atom_site_type_symbol
_atom_site_label
_atom_site_fract_x
_atom_site_fract_y
_atom_site_fract_z
Si Si1 0.601787 0.365326 0.773617
Si Si2 0.218168 0.472916 0.656767
Si Si3 0.641860 0.213668 0.904816
Si Si4 0.198910 0.847451 0.591457
O O1 0.500000 0.403048 0.750000
O O2 0.676742 0.430007 0.823713
O O3 0.592316 0.274098 0.832050
O O4 0.644994 0.345056 0.680931
O O5 0.180728 0.500000 0.750000
O O6 0.154382 0.393503 0.616749
O O7 0.232563 0.564424 0.601948
O O8 0.750000 0.250000 0.905261
O O9 0.602428 0.227491 0.000000
O O10 0.147120 0.859367 0.500000
O O11 0.250000 0.750000 0.587724
#
# Coordination Sequence:
#
# PCOD9496736 Si02
#       4
#    16  16  16  16
#     4  10  20  33  50  77 109 137 164 204 262 322
#     4   9  17  31  52  76 102 134 173 214 256 305
#     4   9  17  31  52  75  99 132 175 215 250 297
#     4  10  20  34  53  75 100 135 178 220 260 303
#
# _framework density 19.796119000000001
#
# number of rings (size 3 to 8) (size 9 to 14) (size 15 to 20)
#    0.000    2.500    0.000    4.500    0.000    6.500 
#    0.000    1.250    0.000    6.750    0.000   10.500 
#    0.000    0.000    0.000    0.000    0.000    0.000 
#
# Total GULP energy -178202.078039 kJ/mol
# GULP energy per Si atom -5568.814939 kJ/mol
# Density = 1.975106 g / cm^3
# Si number density = 19.796119 Si / 1000 Ang^3
#
#
#
# Elastic Constant Matrix: (Units=GPa)
#
#
# Indices 1 2 3 4 5 6 
#
# 1 13.8662 12.7489 10.6343 0.0000 0.0000 0.0000
# 2 12.7489 149.9006 63.1069 0.0000 0.0000 0.0000
# 3 10.6343 63.1069 146.3645 0.0000 0.0000 0.0000
# 4 0.0000 0.0000 0.0000 161.1668 0.0000 0.0000
# 5 0.0000 0.0000 0.0000 0.0000 -16.2749 0.0000
# 6 0.0000 0.0000 0.0000 0.0000 0.0000 2.0160
#
#
#
# Elastic Compliance Matrix: (Units=1/GPa)
#
#
# Indices 1 2 3 4 5 6 
#
# 1 0.079679 -0.005302 -0.003503 0.000000 0.000000 0.000000
# 2 -0.005302 0.008503 -0.003281 0.000000 0.000000 0.000000
# 3 -0.003503 -0.003281 0.008501 0.000000 0.000000 0.000000
# 4 0.000000 0.000000 0.000000 0.006205 0.000000 0.000000
# 5 0.000000 0.000000 0.000000 0.000000 -0.061444 0.000000
# 6 0.000000 0.000000 0.000000 0.000000 0.000000 0.496027
#
#
# Mechanical properties :
#
#
# Convention : Reuss Voigt Hill
#
# Bulk Modulus (GPa) = 13.79088 53.67906 33.73497
# Shear Modulus (GPa) = 8.53513 44.29099 26.41306
#
# Velocity S-wave (km/s) = 2.07867 4.73520 3.65671
# Velocity P-wave (km/s) = 3.56970 7.55454 5.90820
#
# Compressibility (1/GPa) = 0.07251170
#
# Stress axis : x y z
#
# Youngs Moduli (GPa) = 12.55033 117.60113 117.62655
#
# Poissons Ratio (x) = 0.62350 0.41207
# Poissons Ratio (y) = 0.06654 0.38595
# Poissons Ratio (z) = 0.04397 0.38586
#
# Static dielectric constant tensor:
#      x y z
#    x 1.607090 0.000000 0.000000 
#    y 0.000000 1.735740 0.000000 
#    z 0.000000 0.000000 1.746370 
# 
# From -- ./inp_files/25750.got.cif
#   From: 2010.05.17/outbox.cif.g08.bks.cpg/sg66_13_cif.got.tgz:25750.got - 2010.06.03 17:51:23.
