data_PCOD9496217
_publ_section_title
;
Structure prediction by ZEFSAII (Michael W. Deem and Ramdas Pophale) SiO2 
 PCOD9496217
Probable space group: C C C M
;
_chemical_formula_sum "Si O2"
_cell_formula_units_Z 112
_cell_length_a 12.125302
_cell_length_b 27.620908
_cell_length_c 14.862218
_cell_angle_alpha 90.000000
_cell_angle_beta 90.000000
_cell_angle_gamma 90.000000
_cell_volume 4977.532941
_symmetry_space_group_name_H-M "C C C M"
_symmetry_group_IT_number 66
_symmetry_cell_setting 'orthorhombic'
loop_
_space_group_symop_operation_xyz
x,y,z
-x,-y,z
x,-y,1/2-z
-x,y,1/2-z
-x,-y,-z
x,y,-z
-x,y,1/2+z
x,-y,1/2+z
1/2+x,1/2+y,z
1/2-x,1/2-y,z
1/2+x,1/2-y,1/2-z
1/2-x,1/2+y,1/2-z
1/2-x,1/2-y,-z
1/2+x,1/2+y,-z
1/2-x,1/2+y,1/2+z
1/2+x,1/2-y,1/2+z
loop_
_atom_site_type_symbol
_atom_site_label
_atom_site_fract_x
_atom_site_fract_y
_atom_site_fract_z
Si Si1 0.251637 0.042555 0.631089
Si Si2 0.231760 0.059325 0.162229
Si Si3 0.740194 0.167760 0.693552
Si Si4 0.019629 0.709678 0.355794
Si Si5 0.992390 0.921377 0.603683
Si Si6 0.963475 0.814485 0.103043
Si Si7 0.178730 0.352314 0.597366
O O1 0.268085 0.048414 0.736983
O O2 0.121476 0.051186 0.614631
O O3 0.313577 0.089446 0.594142
O O4 0.273482 0.986789 0.605807
O O5 0.268502 0.114338 0.148090
O O6 0.097724 0.061392 0.159634
O O7 0.650070 0.199955 0.641539
O O8 0.862215 0.185791 0.672024
O O9 0.724588 0.163670 0.802846
O O10 0.981498 0.762330 0.388848
O O11 0.000000 0.707176 0.250000
O O12 0.944835 0.668576 0.399727
O O13 0.027704 0.926409 0.500000
O O14 0.971282 0.864197 0.621617
O O15 0.922969 0.818937 0.000000
O O16 0.229598 0.335685 0.500000
#
# Coordination Sequence:
#
# PCOD9496217 Si02
#       7
#    16  16  16  16  16  16  16
#     4  10  19  34  54  77 108 147 185 222 274 336
#     4   9  19  34  54  78 107 144 184 229 278 329
#     4   9  20  38  59  86 115 146 189 239 286 335
#     4  10  21  37  58  82 113 151 191 238 287 336
#     4  10  20  32  49  78 112 143 179 226 278 334
#     4  10  21  37  59  86 113 146 190 237 286 340
#     4  10  21  37  58  84 116 154 192 230 279 342
#
# _framework density 22.501107000000001
#
# number of rings (size 3 to 8) (size 9 to 14) (size 15 to 20)
#    0.000    2.286    0.000    2.143    0.000    8.000 
#    0.000    2.857    0.000   18.000    0.000    0.000 
#    0.000    0.000    0.000    0.000    0.000    0.000 
#
# Total GULP energy -312114.715806 kJ/mol
# GULP energy per Si atom -5573.477068 kJ/mol
# Density = 2.244989 g / cm^3
# Si number density = 22.501107 Si / 1000 Ang^3
#
#
#
# Elastic Constant Matrix: (Units=GPa)
#
#
# Indices 1 2 3 4 5 6 
#
# 1 10.1027 -1.4309 9.6763 0.0000 0.0000 0.0000
# 2 -1.4309 114.2515 16.1396 0.0000 0.0000 0.0000
# 3 9.6763 16.1396 96.5246 0.0000 0.0000 0.0000
# 4 0.0000 0.0000 0.0000 23.6519 0.0000 0.0000
# 5 0.0000 0.0000 0.0000 0.0000 -199.9983 0.0000
# 6 0.0000 0.0000 0.0000 0.0000 0.0000 32.0995
#
#
#
# Elastic Compliance Matrix: (Units=1/GPa)
#
#
# Indices 1 2 3 4 5 6 
#
# 1 0.110505 0.003020 -0.011583 0.000000 0.000000 0.000000
# 2 0.003020 0.009047 -0.001815 0.000000 0.000000 0.000000
# 3 -0.011583 -0.001815 0.011825 0.000000 0.000000 0.000000
# 4 0.000000 0.000000 0.000000 0.042280 0.000000 0.000000
# 5 0.000000 0.000000 0.000000 0.000000 -0.005000 0.000000
# 6 0.000000 0.000000 0.000000 0.000000 0.000000 0.031153
#
#
# Mechanical properties :
#
#
# Convention : Reuss Voigt Hill
#
# Bulk Modulus (GPa) = 9.03993 29.96098 19.50045
# Shear Modulus (GPa) = 19.42210 -15.74978 1.83616
#
# Velocity S-wave (km/s) = 2.94115 -2.64854 0.90432
# Velocity P-wave (km/s) = 3.94463 1.99781 3.12661
#
# Compressibility (1/GPa) = 0.11062031
#
# Stress axis : x y z
#
# Youngs Moduli (GPa) = 9.04939 110.53497 84.56841
#
# Poissons Ratio (x) = -0.33384 0.97953
# Poissons Ratio (y) = -0.02733 0.15353
# Poissons Ratio (z) = 0.10482 0.20067
#
# Static dielectric constant tensor:
#      x y z
#    x 1.820490 0.000000 0.000000 
#    y 0.000000 1.890860 0.000000 
#    z 0.000000 0.000000 1.873150 
# 
# From -- ./inp_files/28910.got.cif
#   From: 2010.05.17/outbox.cif.g08.bks.cpg/sg66_15_cif.got.tgz:28910.got - 2010.06.03 17:51:23.
