data_PCOD9496876
_publ_section_title
;
Structure prediction by ZEFSAII (Michael W. Deem and Ramdas Pophale) SiO2 
 PCOD9496876
Probable space group: C C C M
;
_chemical_formula_sum "Si O2"
_cell_formula_units_Z 80
_cell_length_a 19.365296
_cell_length_b 8.559019
_cell_length_c 25.374647
_cell_angle_alpha 90.000000
_cell_angle_beta 90.000000
_cell_angle_gamma 90.000000
_cell_volume 4205.795377
_symmetry_space_group_name_H-M "C C C M"
_symmetry_group_IT_number 66
_symmetry_cell_setting 'orthorhombic'
loop_
_space_group_symop_operation_xyz
x,y,z
-x,-y,z
x,-y,1/2-z
-x,y,1/2-z
-x,-y,-z
x,y,-z
-x,y,1/2+z
x,-y,1/2+z
1/2+x,1/2+y,z
1/2-x,1/2-y,z
1/2+x,1/2-y,1/2-z
1/2-x,1/2+y,1/2-z
1/2-x,1/2-y,-z
1/2+x,1/2+y,-z
1/2-x,1/2+y,1/2+z
1/2+x,1/2-y,1/2+z
loop_
_atom_site_type_symbol
_atom_site_label
_atom_site_fract_x
_atom_site_fract_y
_atom_site_fract_z
Si Si1 0.083745 0.140428 0.564108
Si Si2 0.188364 0.345073 0.630283
Si Si3 0.074922 0.545528 0.311565
Si Si4 0.696033 0.889673 0.057162
Si Si5 0.931448 0.788502 0.103873
O O1 0.084737 0.128648 0.500000
O O2 0.145204 0.242148 0.588600
O O3 0.010717 0.215749 0.583524
O O4 0.087905 0.967924 0.590611
O O5 0.250000 0.250000 0.656928
O O6 0.133724 0.432141 0.666691
O O7 0.222299 0.485500 0.598218
O O8 0.073645 0.500000 0.250000
O O9 0.080755 0.721669 0.336230
O O10 0.000000 0.500000 0.333422
O O11 0.750000 0.750000 0.056410
O O12 0.620713 0.822645 0.071614
O O13 0.692536 0.964333 0.000000
#
# Coordination Sequence:
#
# PCOD9496876 Si02
#       5
#    16  16  16  16  16
#     4  11  21  35  58  90 129 164 197 243 301 371
#     4  11  23  38  58  89 123 157 203 259 310 365
#     4  10  21  43  67  84 111 158 209 260 309 359
#     4  10  20  34  54  82 121 167 207 242 299 372
#     4  10  20  36  58  87 117 157 199 251 298 359
#
# _framework density 19.021373000000001
#
# number of rings (size 3 to 8) (size 9 to 14) (size 15 to 20)
#    0.000    1.600    2.000    4.200    0.000    3.200 
#    0.000   10.000    0.000    0.000    0.000    0.000 
#    0.000    0.000    0.000    0.000    0.000    0.000 
#
# Total GULP energy -222688.128342 kJ/mol
# GULP energy per Si atom -5567.203209 kJ/mol
# Density = 1.897808 g / cm^3
# Si number density = 19.021373 Si / 1000 Ang^3
#
#
#
# Elastic Constant Matrix: (Units=GPa)
#
#
# Indices 1 2 3 4 5 6 
#
# 1 86.4687 28.5193 13.6405 0.0000 0.0000 0.0000
# 2 28.5193 81.0676 43.9640 0.0000 0.0000 0.0000
# 3 13.6405 43.9640 93.9251 0.0000 0.0000 0.0000
# 4 0.0000 0.0000 0.0000 38.4522 0.0000 0.0000
# 5 0.0000 0.0000 0.0000 0.0000 -39.8981 0.0000
# 6 0.0000 0.0000 0.0000 0.0000 0.0000 37.2709
#
#
#
# Elastic Compliance Matrix: (Units=1/GPa)
#
#
# Indices 1 2 3 4 5 6 
#
# 1 0.013091 -0.004790 0.000341 0.000000 0.000000 0.000000
# 2 -0.004790 0.018285 -0.007863 0.000000 0.000000 0.000000
# 3 0.000341 -0.007863 0.014278 0.000000 0.000000 0.000000
# 4 0.000000 0.000000 0.000000 0.026006 0.000000 0.000000
# 5 0.000000 0.000000 0.000000 0.000000 -0.025064 0.000000
# 6 0.000000 0.000000 0.000000 0.000000 0.000000 0.026831
#
#
# Mechanical properties :
#
#
# Convention : Reuss Voigt Hill
#
# Bulk Modulus (GPa) = 47.55328 48.18989 47.87159
# Shear Modulus (GPa) = 47.59147 18.85415 33.22281
#
# Velocity S-wave (km/s) = 5.00743 3.15176 4.18377
# Velocity P-wave (km/s) = 7.64765 6.21566 6.96854
#
# Compressibility (1/GPa) = 0.02102904
#
# Stress axis : x y z
#
# Youngs Moduli (GPa) = 76.38808 54.69022 70.03929
#
# Poissons Ratio (x) = 0.26199 -0.02389
# Poissons Ratio (y) = 0.36593 0.55072
# Poissons Ratio (z) = -0.02605 0.43003
#
# Static dielectric constant tensor:
#      x y z
#    x 1.688250 0.000000 0.000000 
#    y 0.000000 1.684570 0.000000 
#    z 0.000000 0.000000 1.676180 
# 
# From -- ./inp_files/65092.got.cif
#   From: 2010.05.17/outbox.cif.g08.bks.cpg/sg66_33_cif.got.tgz:65092.got - 2010.06.03 17:51:23.
