data_PCOD9496142
_publ_section_title
;
Structure prediction by ZEFSAII (Michael W. Deem and Ramdas Pophale) SiO2 
 PCOD9496142
Probable space group: C C C M
;
_chemical_formula_sum "Si O2"
_cell_formula_units_Z 120
_cell_length_a 19.096609
_cell_length_b 16.190137
_cell_length_c 18.038588
_cell_angle_alpha 90.000000
_cell_angle_beta 90.000000
_cell_angle_gamma 90.000000
_cell_volume 5577.111398
_symmetry_space_group_name_H-M "C C C M"
_symmetry_group_IT_number 66
_symmetry_cell_setting 'orthorhombic'
loop_
_space_group_symop_operation_xyz
x,y,z
-x,-y,z
x,-y,1/2-z
-x,y,1/2-z
-x,-y,-z
x,y,-z
-x,y,1/2+z
x,-y,1/2+z
1/2+x,1/2+y,z
1/2-x,1/2-y,z
1/2+x,1/2-y,1/2-z
1/2-x,1/2+y,1/2-z
1/2-x,1/2-y,-z
1/2+x,1/2+y,-z
1/2-x,1/2+y,1/2+z
1/2+x,1/2-y,1/2+z
loop_
_atom_site_type_symbol
_atom_site_label
_atom_site_fract_x
_atom_site_fract_y
_atom_site_fract_z
Si Si1 0.464186 0.270096 0.917511
Si Si2 0.581934 0.974632 0.587614
Si Si3 0.331338 0.482657 0.824360
Si Si4 0.951453 0.333595 0.816941
Si Si5 0.559052 0.567607 0.584074
Si Si6 0.114609 0.817867 0.273047
Si Si7 0.250000 0.750000 0.313019
Si Si8 0.208658 0.398805 0.087208
O O1 0.503618 0.189499 0.889541
O O2 0.520135 0.345073 0.915749
O O3 0.409037 0.287972 0.854217
O O4 0.435397 0.263338 0.000000
O O5 0.589703 0.950094 0.500000
O O6 0.598409 0.903237 0.648721
O O7 0.500000 0.000000 0.598262
O O8 0.638092 0.048156 0.599492
O O9 0.287743 0.500000 0.750000
O O10 0.375603 0.555592 0.862118
O O11 0.387295 0.416075 0.789630
O O12 0.278895 0.446171 0.885152
O O13 0.923989 0.244815 0.783733
O O14 0.000000 0.366345 0.750000
O O15 0.500000 0.500000 0.602612
O O16 0.582311 0.549852 0.500000
O O17 0.195611 0.798679 0.263042
O O18 0.211042 0.683713 0.364264
O O19 0.213904 0.381184 0.000000
#
# Coordination Sequence:
#
# PCOD9496142 Si02
#       8
#    16  16  16  16  16  16   8  16
#     4  10  20  35  58  86 120 161 207 261 314 371
#     4  10  23  43  66  94 123 161 215 269 320 375
#     4  11  22  37  58  87 124 165 202 257 314 377
#     4  10  22  39  58  87 122 164 204 252 311 378
#     4  10  19  33  56  86 118 160 211 263 319 380
#     4  10  22  38  56  86 122 160 205 245 309 376
#     4  10  23  40  62  92 121 158 196 250 309 378
#     4  10  23  42  65  90 121 159 203 256 315 378
#
# _framework density 21.516514000000001
#
# number of rings (size 3 to 8) (size 9 to 14) (size 15 to 20)
#    0.000    1.867    1.333    1.800    3.733    5.333 
#    0.000    0.000    0.000    0.000    0.000    6.533 
#    0.000    0.000    0.000    0.000    0.000    0.000 
#
# Total GULP energy -334265.835992 kJ/mol
# GULP energy per Si atom -5571.097267 kJ/mol
# Density = 2.146754 g / cm^3
# Si number density = 21.516514 Si / 1000 Ang^3
#
#
#
# Elastic Constant Matrix: (Units=GPa)
#
#
# Indices 1 2 3 4 5 6 
#
# 1 45.6526 8.0889 23.1554 0.0000 0.0000 0.0000
# 2 8.0889 53.2780 13.2254 0.0000 0.0000 0.0000
# 3 23.1554 13.2254 75.0721 0.0000 0.0000 0.0000
# 4 0.0000 0.0000 0.0000 25.0207 0.0000 0.0000
# 5 0.0000 0.0000 0.0000 0.0000 -2.6453 0.0000
# 6 0.0000 0.0000 0.0000 0.0000 0.0000 37.1609
#
#
#
# Elastic Compliance Matrix: (Units=1/GPa)
#
#
# Indices 1 2 3 4 5 6 
#
# 1 0.026181 -0.002061 -0.007712 0.000000 0.000000 0.000000
# 2 -0.002061 0.019790 -0.002851 0.000000 0.000000 0.000000
# 3 -0.007712 -0.002851 0.016202 0.000000 0.000000 0.000000
# 4 0.000000 0.000000 0.000000 0.039967 0.000000 0.000000
# 5 0.000000 0.000000 0.000000 0.000000 -0.378032 0.000000
# 6 0.000000 0.000000 0.000000 0.000000 0.000000 0.026910
#
#
# Mechanical properties :
#
#
# Convention : Reuss Voigt Hill
#
# Bulk Modulus (GPa) = 27.08161 29.21580 28.14871
# Shear Modulus (GPa) = -23.64891 20.54281 -1.55305
#
# Velocity S-wave (km/s) = -3.31887 3.09325 -0.85051
# Velocity P-wave (km/s) = 1.43972 5.13472 3.48515
#
# Compressibility (1/GPa) = 0.03692542
#
# Stress axis : x y z
#
# Youngs Moduli (GPa) = 38.19494 50.53063 61.72228
#
# Poissons Ratio (x) = 0.10412 0.47603
# Poissons Ratio (y) = 0.07870 0.17596
# Poissons Ratio (z) = 0.29458 0.14406
#
# Static dielectric constant tensor:
#      x y z
#    x 1.832470 0.000000 0.000000 
#    y 0.000000 1.877380 0.000000 
#    z 0.000000 0.000000 1.796030 
# 
# From -- ./inp_files/43093.got.cif
#   From: 2010.05.17/outbox.cif.g08.bks.cpg/sg66_22_cif.got.tgz:43093.got - 2010.06.03 17:51:23.
