data_PCOD9496298
_publ_section_title
;
Structure prediction by ZEFSAII (Michael W. Deem and Ramdas Pophale) SiO2 
 PCOD9496298
Probable space group: C C C M
;
_chemical_formula_sum "Si O2"
_cell_formula_units_Z 56
_cell_length_a 16.596901
_cell_length_b 5.130220
_cell_length_c 30.243394
_cell_angle_alpha 90.000000
_cell_angle_beta 90.000000
_cell_angle_gamma 90.000000
_cell_volume 2575.096569
_symmetry_space_group_name_H-M "C C C M"
_symmetry_group_IT_number 66
_symmetry_cell_setting 'orthorhombic'
loop_
_space_group_symop_operation_xyz
x,y,z
-x,-y,z
x,-y,1/2-z
-x,y,1/2-z
-x,-y,-z
x,y,-z
-x,y,1/2+z
x,-y,1/2+z
1/2+x,1/2+y,z
1/2-x,1/2-y,z
1/2+x,1/2-y,1/2-z
1/2-x,1/2+y,1/2-z
1/2-x,1/2-y,-z
1/2+x,1/2+y,-z
1/2-x,1/2+y,1/2+z
1/2+x,1/2-y,1/2+z
loop_
_atom_site_type_symbol
_atom_site_label
_atom_site_fract_x
_atom_site_fract_y
_atom_site_fract_z
Si Si1 0.659501 0.342953 0.087268
Si Si2 0.056284 0.249919 0.500000
Si Si3 0.412491 0.876250 0.627984
Si Si4 0.409371 0.750007 0.270248
O O1 0.750000 0.250000 0.076534
O O2 0.629990 0.639189 0.099976
O O3 0.638714 0.140973 0.126485
O O4 0.609369 0.263180 0.043984
O O5 0.000000 0.500000 0.500000
O O6 0.000000 0.000000 0.500000
O O7 0.418260 0.765146 0.677359
O O8 0.500000 0.000000 0.614351
O O9 0.368055 0.500000 0.250000
O O10 0.500000 0.749829 0.250000
O O11 0.367579 0.000000 0.250000
#
# Coordination Sequence:
#
# PCOD9496298 Si02
#       4
#    16   8  16  16
#     4  12  27  45  68 100 146 186 216 272 364 423
#     4  12  25  48  73 104 133 168 237 290 323 402
#     4  12  23  41  71 104 133 175 243 292 327 404
#     4  10  19  34  59 100 130 162 225 293 346 375
#
# _framework density 21.746759000000001
#
# number of rings (size 3 to 8) (size 9 to 14) (size 15 to 20)
#    0.000    0.571    2.857    8.143    4.000    0.000 
#    0.000    4.286    0.000   17.143    0.000    0.000 
#    0.000    0.000    0.000    0.000    0.000    0.000 
#
# Total GULP energy -156016.621799 kJ/mol
# GULP energy per Si atom -5572.022207 kJ/mol
# Density = 2.169726 g / cm^3
# Si number density = 21.746759 Si / 1000 Ang^3
#
#
#
# Elastic Constant Matrix: (Units=GPa)
#
#
# Indices 1 2 3 4 5 6 
#
# 1 122.2465 53.3121 34.7857 0.0000 0.0000 0.0000
# 2 53.3121 212.8828 23.5508 0.0000 0.0000 0.0000
# 3 34.7857 23.5508 100.0009 0.0000 0.0000 0.0000
# 4 0.0000 0.0000 0.0000 29.5325 0.0000 0.0000
# 5 0.0000 0.0000 0.0000 0.0000 6.4383 0.0000
# 6 0.0000 0.0000 0.0000 0.0000 0.0000 20.8812
#
#
#
# Elastic Compliance Matrix: (Units=1/GPa)
#
#
# Indices 1 2 3 4 5 6 
#
# 1 0.009967 -0.002169 -0.002956 0.000000 0.000000 0.000000
# 2 -0.002169 0.005295 -0.000493 0.000000 0.000000 0.000000
# 3 -0.002956 -0.000493 0.011144 0.000000 0.000000 0.000000
# 4 0.000000 0.000000 0.000000 0.033861 0.000000 0.000000
# 5 0.000000 0.000000 0.000000 0.000000 0.155321 0.000000
# 6 0.000000 0.000000 0.000000 0.000000 0.000000 0.047890
#
#
# Mechanical properties :
#
#
# Convention : Reuss Voigt Hill
#
# Bulk Modulus (GPa) = 65.91576 73.15861 69.53719
# Shear Modulus (GPa) = 17.87171 32.93582 25.40376
#
# Velocity S-wave (km/s) = 2.86983 3.89590 3.42155
# Velocity P-wave (km/s) = 6.43099 7.34517 6.90323
#
# Compressibility (1/GPa) = 0.01517088
#
# Stress axis : x y z
#
# Youngs Moduli (GPa) = 100.32733 188.85378 89.73212
#
# Poissons Ratio (x) = 0.40964 0.26528
# Poissons Ratio (y) = 0.21762 0.04419
# Poissons Ratio (z) = 0.29660 0.09301
#
# Static dielectric constant tensor:
#      x y z
#    x 1.941150 0.000000 0.000000 
#    y 0.000000 1.803530 0.000000 
#    z 0.000000 0.000000 1.801680 
# 
# From -- ./inp_files/69317.got.cif
#   From: 2010.05.17/outbox.cif.g08.bks.cpg/sg66_35_cif.got.tgz:69317.got - 2010.06.03 17:51:23.
