data_PCOD9496873
_publ_section_title
;
Structure prediction by ZEFSAII (Michael W. Deem and Ramdas Pophale) SiO2 
 PCOD9496873
Probable space group: C C C M
;
_chemical_formula_sum "Si O2"
_cell_formula_units_Z 116
_cell_length_a 29.157511
_cell_length_b 23.676826
_cell_length_c 8.665542
_cell_angle_alpha 90.000000
_cell_angle_beta 90.000000
_cell_angle_gamma 90.000000
_cell_volume 5982.320304
_symmetry_space_group_name_H-M "C C C M"
_symmetry_group_IT_number 66
_symmetry_cell_setting 'orthorhombic'
loop_
_space_group_symop_operation_xyz
x,y,z
-x,-y,z
x,-y,1/2-z
-x,y,1/2-z
-x,-y,-z
x,y,-z
-x,y,1/2+z
x,-y,1/2+z
1/2+x,1/2+y,z
1/2-x,1/2-y,z
1/2+x,1/2-y,1/2-z
1/2-x,1/2+y,1/2-z
1/2-x,1/2-y,-z
1/2+x,1/2+y,-z
1/2-x,1/2+y,1/2+z
1/2+x,1/2-y,1/2+z
loop_
_atom_site_type_symbol
_atom_site_label
_atom_site_fract_x
_atom_site_fract_y
_atom_site_fract_z
Si Si1 0.500000 0.000000 0.250000
Si Si2 0.133592 0.060353 0.315785
Si Si3 0.049340 0.277154 0.184976
Si Si4 0.382582 0.675918 0.314362
Si Si5 0.802303 0.251331 0.313814
Si Si6 0.074694 0.400408 0.684758
Si Si7 0.260628 0.560547 0.186185
Si Si8 0.173730 0.630341 0.186150
O O1 0.540079 0.950573 0.271084
O O2 0.132959 0.057875 0.500000
O O3 0.107048 0.115418 0.257884
O O4 0.186804 0.068736 0.262694
O O5 0.118106 0.000000 0.250000
O O6 0.084236 0.227419 0.230493
O O7 0.060480 0.339601 0.247860
O O8 0.000000 0.261418 0.250000
O O9 0.049169 0.280439 0.000000
O O10 0.383691 0.670838 0.500000
O O11 0.331869 0.697211 0.266293
O O12 0.801806 0.253237 0.500000
O O13 0.750000 0.250000 0.257207
O O14 0.827817 0.307072 0.254460
O O15 0.072535 0.396818 0.500000
O O16 0.128583 0.405748 0.730062
O O17 0.246109 0.500000 0.250000
O O18 0.222120 0.604391 0.238938
O O19 0.260587 0.560130 0.000000
O O20 0.174242 0.633801 0.000000
#
# Coordination Sequence:
#
# PCOD9496873 Si02
#       8
#     4  16  16  16  16  16  16  16
#     4  12  26  40  64  90 114 156 208 264 322 368
#     4  10  20  35  58  86 118 157 195 237 284 343
#     4  11  23  41  65  89 119 152 192 246 299 355
#     4  10  21  37  57  86 118 152 192 239 292 351
#     4  10  20  34  54  82 116 153 192 238 294 355
#     4  11  24  41  60  84 115 152 199 254 310 363
#     4   9  19  34  51  76 111 151 197 242 288 341
#     4  10  21  36  53  77 112 151 194 247 298 351
#
# _framework density 19.390471000000002
#
# number of rings (size 3 to 8) (size 9 to 14) (size 15 to 20)
#    0.000    1.793    2.069    1.862    0.966    3.586 
#    0.000    0.000    0.000    0.414    0.000    2.897 
#    0.000    0.000    0.000    0.000    0.000    0.000 
#
# Total GULP energy -323165.376343 kJ/mol
# GULP energy per Si atom -5571.816834 kJ/mol
# Density = 1.934634 g / cm^3
# Si number density = 19.390471 Si / 1000 Ang^3
#
#
#
# Elastic Constant Matrix: (Units=GPa)
#
#
# Indices 1 2 3 4 5 6 
#
# 1 73.5265 43.0715 18.8459 0.0000 0.0000 0.0000
# 2 43.0715 166.6135 23.6393 0.0000 0.0000 0.0000
# 3 18.8459 23.6393 31.2695 0.0000 0.0000 0.0000
# 4 0.0000 0.0000 0.0000 11.8803 0.0000 0.0000
# 5 0.0000 0.0000 0.0000 0.0000 18.8426 0.0000
# 6 0.0000 0.0000 0.0000 0.0000 0.0000 39.2156
#
#
#
# Elastic Compliance Matrix: (Units=1/GPa)
#
#
# Indices 1 2 3 4 5 6 
#
# 1 0.017673 -0.003425 -0.008062 0.000000 0.000000 0.000000
# 2 -0.003425 0.007387 -0.003520 0.000000 0.000000 0.000000
# 3 -0.008062 -0.003520 0.039500 0.000000 0.000000 0.000000
# 4 0.000000 0.000000 0.000000 0.084173 0.000000 0.000000
# 5 0.000000 0.000000 0.000000 0.000000 0.053071 0.000000
# 6 0.000000 0.000000 0.000000 0.000000 0.000000 0.025500
#
#
# Mechanical properties :
#
#
# Convention : Reuss Voigt Hill
#
# Bulk Modulus (GPa) = 28.94726 49.16920 39.05823
# Shear Modulus (GPa) = 18.59878 26.37788 22.48833
#
# Velocity S-wave (km/s) = 3.10041 3.69230 3.40922
# Velocity P-wave (km/s) = 5.27046 6.60226 5.97359
#
# Compressibility (1/GPa) = 0.03454559
#
# Stress axis : x y z
#
# Youngs Moduli (GPa) = 56.58243 135.37820 25.31622
#
# Poissons Ratio (x) = 0.46365 0.20411
# Poissons Ratio (y) = 0.19379 0.08912
# Poissons Ratio (z) = 0.45619 0.47655
#
# Static dielectric constant tensor:
#      x y z
#    x 1.706800 0.000000 0.000000 
#    y 0.000000 1.664270 0.000000 
#    z 0.000000 0.000000 1.655700 
# 
# From -- ./inp_files/9411.got.cif
#   From: 2010.05.17/outbox.cif.g08.bks.cpg/sg66_5_cif.got.tgz:9411.got - 2010.06.03 17:51:23.
