data_PCOD9496446
_publ_section_title
;
Structure prediction by ZEFSAII (Michael W. Deem and Ramdas Pophale) SiO2 
 PCOD9496446
Probable space group: C C C M
;
_chemical_formula_sum "Si O2"
_cell_formula_units_Z 116
_cell_length_a 7.490493
_cell_length_b 22.271586
_cell_length_c 28.057202
_cell_angle_alpha 90.000000
_cell_angle_beta 90.000000
_cell_angle_gamma 90.000000
_cell_volume 4680.647186
_symmetry_space_group_name_H-M "C C C M"
_symmetry_group_IT_number 66
_symmetry_cell_setting 'orthorhombic'
loop_
_space_group_symop_operation_xyz
x,y,z
-x,-y,z
x,-y,1/2-z
-x,y,1/2-z
-x,-y,-z
x,y,-z
-x,y,1/2+z
x,-y,1/2+z
1/2+x,1/2+y,z
1/2-x,1/2-y,z
1/2+x,1/2-y,1/2-z
1/2-x,1/2+y,1/2-z
1/2-x,1/2-y,-z
1/2+x,1/2+y,-z
1/2-x,1/2+y,1/2+z
1/2+x,1/2-y,1/2+z
loop_
_atom_site_type_symbol
_atom_site_label
_atom_site_fract_x
_atom_site_fract_y
_atom_site_fract_z
Si Si1 0.541396 0.738521 0.698115
Si Si2 0.000000 0.000000 0.250000
Si Si3 0.018921 0.121192 0.572552
Si Si4 0.030396 0.253074 0.590905
Si Si5 0.263408 0.975813 0.551267
Si Si6 0.010362 0.900630 0.815318
Si Si7 0.438891 0.119901 0.429004
Si Si8 0.647468 0.044801 0.150692
O O1 0.500000 0.766385 0.750000
O O2 0.750000 0.750000 0.692800
O O3 0.466900 0.757550 0.646191
O O4 0.498262 0.667472 0.701364
O O5 0.904819 0.951242 0.214119
O O6 0.903811 0.069035 0.550023
O O7 0.965379 0.190898 0.568071
O O8 0.987178 0.105693 0.628308
O O9 0.228399 0.119952 0.558873
O O10 0.250000 0.250000 0.591575
O O11 0.986160 0.313996 0.563612
O O12 0.261898 0.008090 0.500000
O O13 0.436538 0.932307 0.551455
O O14 0.271815 0.010824 0.602481
O O15 0.207803 0.929977 0.813512
O O16 0.439499 0.104240 0.372540
O O17 0.500000 0.000000 0.169987
#
# Coordination Sequence:
#
# PCOD9496446 Si02
#       8
#    16   4  16  16  16  16  16  16
#     4  10  19  36  56  86 120 147 193 245 297 343
#     4  12  20  32  54  84 118 152 200 244 296 348
#     4   9  19  38  60  81 114 155 199 233 297 364
#     4   8  16  35  61  78 107 157 195 233 286 362
#     4  11  23  37  57  89 119 146 198 257 297 353
#     4  10  20  37  58  80 116 160 192 243 293 361
#     4   9  19  37  58  81 110 152 191 238 297 348
#     4   9  19  37  59  81 113 154 199 238 298 362
#
# _framework density 24.782897999999999
#
# number of rings (size 3 to 8) (size 9 to 14) (size 15 to 20)
#    0.000    2.483    0.690    3.310    0.000    5.241 
#    4.966    9.310    0.000    2.483    0.000    0.000 
#    0.000    0.552    0.000    0.000    0.000    0.000 
#
# Total GULP energy -323235.179286 kJ/mol
# GULP energy per Si atom -5573.020333 kJ/mol
# Density = 2.472649 g / cm^3
# Si number density = 24.782898 Si / 1000 Ang^3
#
#
#
# Elastic Constant Matrix: (Units=GPa)
#
#
# Indices 1 2 3 4 5 6 
#
# 1 48.7155 -2.9077 -3.0382 0.0000 0.0000 0.0000
# 2 -2.9077 139.6432 7.4385 0.0000 0.0000 0.0000
# 3 -3.0382 7.4385 88.9119 0.0000 0.0000 0.0000
# 4 0.0000 0.0000 0.0000 35.9152 0.0000 0.0000
# 5 0.0000 0.0000 0.0000 0.0000 21.1217 0.0000
# 6 0.0000 0.0000 0.0000 0.0000 0.0000 13.4262
#
#
#
# Elastic Compliance Matrix: (Units=1/GPa)
#
#
# Indices 1 2 3 4 5 6 
#
# 1 0.020593 0.000393 0.000671 0.000000 0.000000 0.000000
# 2 0.000393 0.007201 -0.000589 0.000000 0.000000 0.000000
# 3 0.000671 -0.000589 0.011319 0.000000 0.000000 0.000000
# 4 0.000000 0.000000 0.000000 0.027843 0.000000 0.000000
# 5 0.000000 0.000000 0.000000 0.000000 0.047345 0.000000
# 6 0.000000 0.000000 0.000000 0.000000 0.000000 0.074481
#
#
# Mechanical properties :
#
#
# Convention : Reuss Voigt Hill
#
# Bulk Modulus (GPa) = 24.96112 31.13954 28.05033
# Shear Modulus (GPa) = 24.85262 32.47783 28.66522
#
# Velocity S-wave (km/s) = 3.17016 3.62400 3.40465
# Velocity P-wave (km/s) = 4.84702 5.48666 5.17673
#
# Compressibility (1/GPa) = 0.04006230
#
# Stress axis : x y z
#
# Youngs Moduli (GPa) = 48.56105 138.87605 88.34482
#
# Poissons Ratio (x) = -0.05459 -0.05926
# Poissons Ratio (y) = -0.01909 0.05203
# Poissons Ratio (z) = -0.03257 0.08180
#
# Static dielectric constant tensor:
#      x y z
#    x 2.058330 0.000000 0.000000 
#    y 0.000000 1.989950 0.000000 
#    z 0.000000 0.000000 2.049840 
# 
# From -- ./inp_files/68358.got.cif
#   From: 2010.05.17/outbox.cif.g08.bks.cpg/sg66_35_cif.got.tgz:68358.got - 2010.06.03 17:51:23.
