data_PCOD9496122
_publ_section_title
;
Structure prediction by ZEFSAII (Michael W. Deem and Ramdas Pophale) SiO2 
 PCOD9496122
Probable space group: C C C M
;
_chemical_formula_sum "Si O2"
_cell_formula_units_Z 116
_cell_length_a 10.492403
_cell_length_b 31.805632
_cell_length_c 19.780566
_cell_angle_alpha 90.000000
_cell_angle_beta 90.000000
_cell_angle_gamma 90.000000
_cell_volume 6601.121204
_symmetry_space_group_name_H-M "C C C M"
_symmetry_group_IT_number 66
_symmetry_cell_setting 'orthorhombic'
loop_
_space_group_symop_operation_xyz
x,y,z
-x,-y,z
x,-y,1/2-z
-x,y,1/2-z
-x,-y,-z
x,y,-z
-x,y,1/2+z
x,-y,1/2+z
1/2+x,1/2+y,z
1/2-x,1/2-y,z
1/2+x,1/2-y,1/2-z
1/2-x,1/2+y,1/2-z
1/2-x,1/2-y,-z
1/2+x,1/2+y,-z
1/2-x,1/2+y,1/2+z
1/2+x,1/2-y,1/2+z
loop_
_atom_site_type_symbol
_atom_site_label
_atom_site_fract_x
_atom_site_fract_y
_atom_site_fract_z
Si Si1 0.637093 0.777598 0.741881
Si Si2 0.731835 0.818253 0.880780
Si Si3 0.620607 0.128725 0.203309
Si Si4 0.750000 0.250000 0.500000
Si Si5 0.866932 0.980781 0.824813
Si Si6 0.127710 0.116808 0.791294
Si Si7 0.024613 0.387162 0.922958
Si Si8 0.133828 0.478906 0.921184
O O1 0.500000 0.755777 0.750000
O O2 0.750000 0.750000 0.712016
O O3 0.683001 0.792537 0.815648
O O4 0.617350 0.820487 0.700505
O O5 0.839204 0.849552 0.850000
O O6 0.615542 0.848063 0.904823
O O7 0.767450 0.786607 0.940345
O O8 0.500000 0.115961 0.250000
O O9 0.750927 0.116975 0.240310
O O10 0.591076 0.110982 0.129777
O O11 0.882627 0.930533 0.818788
O O12 0.749460 0.991071 0.873241
O O13 0.845000 0.000000 0.750000
O O14 0.000000 0.000000 0.849755
O O15 0.000000 0.127564 0.750000
O O16 0.109246 0.429006 0.916131
O O17 0.980683 0.384161 0.000000
O O18 0.000000 0.500000 0.901473
O O19 0.158173 0.489437 0.000000
#
# Coordination Sequence:
#
# PCOD9496122 Si02
#       8
#    16  16  16   4  16  16  16  16
#     4  10  19  33  55  85 115 147 196 242 307 365
#     4  11  21  38  62  89 117 163 205 263 313 371
#     4  10  19  36  60  87 114 155 209 248 309 376
#     4  12  24  40  64  96 126 156 222 268 310 392
#     4  11  22  38  61  94 129 169 212 260 316 377
#     4  11  22  40  62  92 130 164 212 263 324 372
#     4  11  20  37  65  87 119 161 205 260 316 365
#     4  10  23  40  60  91 125 164 214 261 309 372
#
# _framework density 17.572772000000001
#
# number of rings (size 3 to 8) (size 9 to 14) (size 15 to 20)
#    0.000    1.379    8.276    0.000    1.931    2.759 
#    0.000    0.000    1.517    0.414    0.000    0.000 
#    0.000    0.000    0.000    0.000    0.000    0.000 
#
# Total GULP energy -323041.998657 kJ/mol
# GULP energy per Si atom -5569.689632 kJ/mol
# Density = 1.753278 g / cm^3
# Si number density = 17.572772 Si / 1000 Ang^3
#
#
#
# Elastic Constant Matrix: (Units=GPa)
#
#
# Indices 1 2 3 4 5 6 
#
# 1 131.7700 40.5489 50.5274 0.0000 0.0000 0.0000
# 2 40.5489 79.6130 35.9998 0.0000 0.0000 0.0000
# 3 50.5274 35.9998 104.6237 0.0000 0.0000 0.0000
# 4 0.0000 0.0000 0.0000 28.3623 0.0000 0.0000
# 5 0.0000 0.0000 0.0000 0.0000 18.0487 0.0000
# 6 0.0000 0.0000 0.0000 0.0000 0.0000 22.2313
#
#
#
# Elastic Compliance Matrix: (Units=1/GPa)
#
#
# Indices 1 2 3 4 5 6 
#
# 1 0.010062 -0.003467 -0.003666 0.000000 0.000000 0.000000
# 2 -0.003467 0.016070 -0.003855 0.000000 0.000000 0.000000
# 3 -0.003666 -0.003855 0.012655 0.000000 0.000000 0.000000
# 4 0.000000 0.000000 0.000000 0.035258 0.000000 0.000000
# 5 0.000000 0.000000 0.000000 0.000000 0.055406 0.000000
# 6 0.000000 0.000000 0.000000 0.000000 0.000000 0.044982
#
#
# Mechanical properties :
#
#
# Convention : Reuss Voigt Hill
#
# Bulk Modulus (GPa) = 59.48819 63.35098 61.41958
# Shear Modulus (GPa) = 24.75103 26.32384 25.53743
#
# Velocity S-wave (km/s) = 3.75705 3.87459 3.81627
# Velocity P-wave (km/s) = 7.26268 7.49303 7.37875
#
# Compressibility (1/GPa) = 0.01681006
#
# Stress axis : x y z
#
# Youngs Moduli (GPa) = 99.38715 62.22878 79.01891
#
# Poissons Ratio (x) = 0.21573 0.28971
# Poissons Ratio (y) = 0.34456 0.30463
# Poissons Ratio (z) = 0.36439 0.23990
#
# Static dielectric constant tensor:
#      x y z
#    x 1.606150 0.000000 0.000000 
#    y 0.000000 1.639730 0.000000 
#    z 0.000000 0.000000 1.593530 
# 
# From -- ./inp_files/39231.got.cif
#   From: 2010.05.17/outbox.cif.g08.bks.cpg/sg66_20_cif.got.tgz:39231.got - 2010.06.03 17:51:23.
