data_PCOD9496913
_publ_section_title
;
Structure prediction by ZEFSAII (Michael W. Deem and Ramdas Pophale) SiO2 
 PCOD9496913
Probable space group: C C C M
;
_chemical_formula_sum "Si O2"
_cell_formula_units_Z 96
_cell_length_a 24.022499
_cell_length_b 11.996969
_cell_length_c 17.779768
_cell_angle_alpha 90.000000
_cell_angle_beta 90.000000
_cell_angle_gamma 90.000000
_cell_volume 5124.078924
_symmetry_space_group_name_H-M "C C C M"
_symmetry_group_IT_number 66
_symmetry_cell_setting 'orthorhombic'
loop_
_space_group_symop_operation_xyz
x,y,z
-x,-y,z
x,-y,1/2-z
-x,y,1/2-z
-x,-y,-z
x,y,-z
-x,y,1/2+z
x,-y,1/2+z
1/2+x,1/2+y,z
1/2-x,1/2-y,z
1/2+x,1/2-y,1/2-z
1/2-x,1/2+y,1/2-z
1/2-x,1/2-y,-z
1/2+x,1/2+y,-z
1/2-x,1/2+y,1/2+z
1/2+x,1/2-y,1/2+z
loop_
_atom_site_type_symbol
_atom_site_label
_atom_site_fract_x
_atom_site_fract_y
_atom_site_fract_z
Si Si1 0.468516 0.113759 0.417607
Si Si2 0.562705 0.452903 0.414751
Si Si3 0.342979 0.641873 0.087459
Si Si4 0.751211 0.615073 0.293231
Si Si5 0.877178 0.651559 0.689614
Si Si6 0.046165 0.241401 0.810856
O O1 0.451595 0.158644 0.500000
O O2 0.418503 0.082798 0.362180
O O3 0.509787 0.196313 0.374017
O O4 0.500000 0.000000 0.427906
O O5 0.500000 0.500000 0.402729
O O6 0.563053 0.406098 0.500000
O O7 0.610795 0.545042 0.411267
O O8 0.574352 0.361779 0.351662
O O9 0.285303 0.615094 0.130495
O O10 0.369087 0.738034 0.139037
O O11 0.333411 0.672166 0.000000
O O12 0.731993 0.500000 0.250000
O O13 0.750000 0.750000 0.265694
O O14 0.816954 0.599587 0.302859
O O15 0.908982 0.683980 0.766244
O O16 0.000000 0.204148 0.750000
#
# Coordination Sequence:
#
# PCOD9496913 Si02
#       6
#    16  16  16  16  16  16
#     4  10  21  36  55  81 117 159 199 250 305 366
#     4  10  20  34  56  85 123 160 192 242 302 371
#     4  10  22  39  61  88 119 157 204 257 304 365
#     4  10  24  42  65  92 120 162 206 263 318 369
#     4  10  22  36  60  86 113 159 200 261 298 367
#     4  10  21  33  53  85 117 154 196 245 305 366
#
# _framework density 18.735074999999998
#
# number of rings (size 3 to 8) (size 9 to 14) (size 15 to 20)
#    0.000    2.000    0.000    3.000    7.000    9.000 
#    0.000    0.000    0.000    0.500    0.000    0.000 
#    0.000    0.000    0.000    0.000    0.000    0.000 
#
# Total GULP energy -267261.500700 kJ/mol
# GULP energy per Si atom -5567.947931 kJ/mol
# Density = 1.869243 g / cm^3
# Si number density = 18.735075 Si / 1000 Ang^3
#
#
#
# Elastic Constant Matrix: (Units=GPa)
#
#
# Indices 1 2 3 4 5 6 
#
# 1 93.7663 6.9369 22.7995 0.0000 0.0000 0.0000
# 2 6.9369 56.6644 37.3204 0.0000 0.0000 0.0000
# 3 22.7995 37.3204 95.3076 0.0000 0.0000 0.0000
# 4 0.0000 0.0000 0.0000 20.4215 0.0000 0.0000
# 5 0.0000 0.0000 0.0000 0.0000 22.2501 0.0000
# 6 0.0000 0.0000 0.0000 0.0000 0.0000 19.3858
#
#
#
# Elastic Compliance Matrix: (Units=1/GPa)
#
#
# Indices 1 2 3 4 5 6 
#
# 1 0.011336 0.000537 -0.002922 0.000000 0.000000 0.000000
# 2 0.000537 0.023806 -0.009450 0.000000 0.000000 0.000000
# 3 -0.002922 -0.009450 0.014892 0.000000 0.000000 0.000000
# 4 0.000000 0.000000 0.000000 0.048968 0.000000 0.000000
# 5 0.000000 0.000000 0.000000 0.000000 0.044944 0.000000
# 6 0.000000 0.000000 0.000000 0.000000 0.000000 0.051584
#
#
# Mechanical properties :
#
#
# Convention : Reuss Voigt Hill
#
# Bulk Modulus (GPa) = 37.93253 42.20575 40.06914
# Shear Modulus (GPa) = 21.93095 24.32358 23.12727
#
# Velocity S-wave (km/s) = 3.42509 3.60709 3.51727
# Velocity P-wave (km/s) = 5.99436 6.31860 6.15862
#
# Compressibility (1/GPa) = 0.02636260
#
# Stress axis : x y z
#
# Youngs Moduli (GPa) = 88.21793 42.00570 67.15065
#
# Poissons Ratio (x) = -0.02254 0.19620
# Poissons Ratio (y) = -0.04735 0.63460
# Poissons Ratio (z) = 0.25776 0.39697
#
# Static dielectric constant tensor:
#      x y z
#    x 1.676880 0.000000 0.000000 
#    y 0.000000 1.692880 0.000000 
#    z 0.000000 0.000000 1.688390 
# 
# From -- ./inp_files/38807.got.cif
#   From: 2010.05.17/outbox.cif.g08.bks.cpg/sg66_20_cif.got.tgz:38807.got - 2010.06.03 17:51:23.
