data_PCOD9496294
_publ_section_title
;
Structure prediction by ZEFSAII (Michael W. Deem and Ramdas Pophale) SiO2 
 PCOD9496294
Probable space group: C C C M
;
_chemical_formula_sum "Si O2"
_cell_formula_units_Z 92
_cell_length_a 10.055595
_cell_length_b 22.860911
_cell_length_c 19.971341
_cell_angle_alpha 90.000000
_cell_angle_beta 90.000000
_cell_angle_gamma 90.000000
_cell_volume 4591.013114
_symmetry_space_group_name_H-M "C C C M"
_symmetry_group_IT_number 66
_symmetry_cell_setting 'orthorhombic'
loop_
_space_group_symop_operation_xyz
x,y,z
-x,-y,z
x,-y,1/2-z
-x,y,1/2-z
-x,-y,-z
x,y,-z
-x,y,1/2+z
x,-y,1/2+z
1/2+x,1/2+y,z
1/2-x,1/2-y,z
1/2+x,1/2-y,1/2-z
1/2-x,1/2+y,1/2-z
1/2-x,1/2-y,-z
1/2+x,1/2+y,-z
1/2-x,1/2+y,1/2+z
1/2+x,1/2-y,1/2+z
loop_
_atom_site_type_symbol
_atom_site_label
_atom_site_fract_x
_atom_site_fract_y
_atom_site_fract_z
Si Si1 0.577892 0.551260 0.635942
Si Si2 0.500000 0.500000 0.500000
Si Si3 0.812519 0.626010 0.691571
Si Si4 0.145029 0.124682 0.075294
Si Si5 0.455795 0.754806 0.573407
Si Si6 0.605715 0.134833 0.344901
Si Si7 0.750000 0.750000 0.624053
O O1 0.500000 0.500000 0.673783
O O2 0.599291 0.524537 0.561372
O O3 0.704997 0.578383 0.670302
O O4 0.469179 0.601495 0.623349
O O5 0.834710 0.629175 0.770971
O O6 0.768036 0.690481 0.666452
O O7 0.955364 0.611729 0.658051
O O8 0.124197 0.194307 0.073583
O O9 0.289165 0.108684 0.102878
O O10 0.119520 0.099826 0.000000
O O11 0.434564 0.782846 0.500000
O O12 0.411335 0.797757 0.632065
O O13 0.613403 0.743241 0.582395
#
# Coordination Sequence:
#
# PCOD9496294 Si02
#       7
#    16   4  16  16  16  16   8
#     4  10  20  42  68  93 121 164 216 279 332 387
#     4   8  20  40  72  94 126 156 212 296 326 404
#     4  10  22  41  59  89 131 170 222 268 327 410
#     4  11  20  37  59  89 124 165 215 276 332 393
#     4  10  20  34  55  87 127 169 217 269 328 401
#     4  10  23  38  56  89 130 172 209 264 334 408
#     4  10  19  34  58  90 125 172 216 276 334 399
#
# _framework density 20.039148999999998
#
# number of rings (size 3 to 8) (size 9 to 14) (size 15 to 20)
#    0.522    1.391    2.609    1.304    2.435    2.087 
#    7.826    2.609    0.000    4.174    0.000    0.000 
#    0.000    0.000    0.000    0.000    0.000    0.000 
#
# Total GULP energy -256096.944862 kJ/mol
# GULP energy per Si atom -5567.324888 kJ/mol
# Density = 1.999354 g / cm^3
# Si number density = 20.039149 Si / 1000 Ang^3
#
#
#
# Elastic Constant Matrix: (Units=GPa)
#
#
# Indices 1 2 3 4 5 6 
#
# 1 154.2993 44.5160 72.0119 0.0000 0.0000 0.0000
# 2 44.5160 55.6800 36.9838 0.0000 0.0000 0.0000
# 3 72.0119 36.9838 90.9683 0.0000 0.0000 0.0000
# 4 0.0000 0.0000 0.0000 -0.2113 0.0000 0.0000
# 5 0.0000 0.0000 0.0000 0.0000 34.4661 0.0000
# 6 0.0000 0.0000 0.0000 0.0000 0.0000 34.7934
#
#
#
# Elastic Compliance Matrix: (Units=1/GPa)
#
#
# Indices 1 2 3 4 5 6 
#
# 1 0.010919 -0.004094 -0.006980 0.000000 0.000000 0.000000
# 2 -0.004094 0.026139 -0.007386 0.000000 0.000000 0.000000
# 3 -0.006980 -0.007386 0.019521 0.000000 0.000000 0.000000
# 4 0.000000 0.000000 0.000000 -4.731944 0.000000 0.000000
# 5 0.000000 0.000000 0.000000 0.000000 0.029014 0.000000
# 6 0.000000 0.000000 0.000000 0.000000 0.000000 0.028741
#
#
# Mechanical properties :
#
#
# Convention : Reuss Voigt Hill
#
# Bulk Modulus (GPa) = 50.86498 67.55232 59.20865
# Shear Modulus (GPa) = -1.09310 23.63867 11.27279
#
# Velocity S-wave (km/s) = -0.73937 3.43829 2.37436
# Velocity P-wave (km/s) = 4.97082 7.03888 6.09323
#
# Compressibility (1/GPa) = 0.01965989
#
# Stress axis : x y z
#
# Youngs Moduli (GPa) = 91.57983 38.25707 51.22752
#
# Poissons Ratio (x) = 0.15663 0.35754
# Poissons Ratio (y) = 0.37494 0.37837
# Poissons Ratio (z) = 0.63918 0.28257
#
# Static dielectric constant tensor:
#      x y z
#    x 1.693850 0.000000 0.000000 
#    y 0.000000 1.693580 0.000000 
#    z 0.000000 0.000000 1.689970 
# 
# From -- ./inp_files/47366.got.cif
#   From: 2010.05.17/outbox.cif.g08.bks.cpg/sg66_24_cif.got.tgz:47366.got - 2010.06.03 17:51:23.
