data_PCOD9496146
_publ_section_title
;
Structure prediction by ZEFSAII (Michael W. Deem and Ramdas Pophale) SiO2 
 PCOD9496146
Probable space group: C C C M
;
_chemical_formula_sum "Si O2"
_cell_formula_units_Z 112
_cell_length_a 28.048792
_cell_length_b 10.834139
_cell_length_c 17.540936
_cell_angle_alpha 90.000000
_cell_angle_beta 90.000000
_cell_angle_gamma 90.000000
_cell_volume 5330.418764
_symmetry_space_group_name_H-M "C C C M"
_symmetry_group_IT_number 66
_symmetry_cell_setting 'orthorhombic'
loop_
_space_group_symop_operation_xyz
x,y,z
-x,-y,z
x,-y,1/2-z
-x,y,1/2-z
-x,-y,-z
x,y,-z
-x,y,1/2+z
x,-y,1/2+z
1/2+x,1/2+y,z
1/2-x,1/2-y,z
1/2+x,1/2-y,1/2-z
1/2-x,1/2+y,1/2-z
1/2-x,1/2-y,-z
1/2+x,1/2+y,-z
1/2-x,1/2+y,1/2+z
1/2+x,1/2-y,1/2+z
loop_
_atom_site_type_symbol
_atom_site_label
_atom_site_fract_x
_atom_site_fract_y
_atom_site_fract_z
Si Si1 0.355972 0.125447 0.273460
Si Si2 0.547207 0.583909 0.088316
Si Si3 0.446377 0.230627 0.229413
Si Si4 0.193854 0.755517 0.648864
Si Si5 0.296436 0.528512 0.089808
Si Si6 0.617290 0.583668 0.324655
Si Si7 0.315098 0.016933 0.410805
O O1 0.407382 0.123557 0.232185
O O2 0.331694 0.239216 0.230025
O O3 0.328390 0.000000 0.250000
O O4 0.350747 0.104953 0.363150
O O5 0.500000 0.500000 0.100392
O O6 0.550694 0.693758 0.150308
O O7 0.590310 0.494423 0.110482
O O8 0.548608 0.623523 0.000000
O O9 0.500000 0.196186 0.250000
O O10 0.421126 0.316119 0.294768
O O11 0.250000 0.750000 0.660745
O O12 0.187197 0.886884 0.608496
O O13 0.178202 0.631528 0.603402
O O14 0.332195 0.613373 0.137219
O O15 0.240538 0.542618 0.110319
O O16 0.300383 0.549641 0.000000
O O17 0.625357 0.500000 0.250000
O O18 0.320468 0.039773 0.500000
#
# Coordination Sequence:
#
# PCOD9496146 Si02
#       7
#    16  16  16  16  16  16  16
#     4  10  22  38  57  83 110 153 204 248 293 345
#     4  10  19  34  58  88 118 146 183 238 302 360
#     4  11  22  39  58  79 111 152 194 239 295 361
#     4   9  17  32  57  86 113 148 195 242 290 346
#     4  10  19  33  56  89 121 151 190 241 298 357
#     4  10  20  31  51  81 116 152 187 228 292 359
#     4   9  19  36  56  81 119 158 196 245 295 344
#
# _framework density 21.011482000000001
#
# number of rings (size 3 to 8) (size 9 to 14) (size 15 to 20)
#    0.000    2.143    1.429    2.571    0.000    6.000 
#    0.000    5.000    0.000    2.143    0.000    5.000 
#    0.000    0.000    0.000    0.000    0.000    0.000 
#
# Total GULP energy -311985.148621 kJ/mol
# GULP energy per Si atom -5571.163368 kJ/mol
# Density = 2.096366 g / cm^3
# Si number density = 21.011482 Si / 1000 Ang^3
#
#
#
# Elastic Constant Matrix: (Units=GPa)
#
#
# Indices 1 2 3 4 5 6 
#
# 1 89.2102 11.7004 58.2176 0.0000 0.0000 0.0000
# 2 11.7004 47.0523 24.3918 0.0000 0.0000 0.0000
# 3 58.2176 24.3918 116.8573 0.0000 0.0000 0.0000
# 4 0.0000 0.0000 0.0000 30.1874 0.0000 0.0000
# 5 0.0000 0.0000 0.0000 0.0000 31.3687 0.0000
# 6 0.0000 0.0000 0.0000 0.0000 0.0000 21.0739
#
#
#
# Elastic Compliance Matrix: (Units=1/GPa)
#
#
# Indices 1 2 3 4 5 6 
#
# 1 0.016611 0.000179 -0.008313 0.000000 0.000000 0.000000
# 2 0.000179 0.023834 -0.005064 0.000000 0.000000 0.000000
# 3 -0.008313 -0.005064 0.013756 0.000000 0.000000 0.000000
# 4 0.000000 0.000000 0.000000 0.033126 0.000000 0.000000
# 5 0.000000 0.000000 0.000000 0.000000 0.031879 0.000000
# 6 0.000000 0.000000 0.000000 0.000000 0.000000 0.047452
#
#
# Mechanical properties :
#
#
# Convention : Reuss Voigt Hill
#
# Bulk Modulus (GPa) = 35.96546 49.08218 42.52382
# Shear Modulus (GPa) = 24.71314 27.11332 25.91323
#
# Velocity S-wave (km/s) = 3.43326 3.59612 3.51563
# Velocity P-wave (km/s) = 5.73329 6.37598 6.06316
#
# Compressibility (1/GPa) = 0.02780445
#
# Stress axis : x y z
#
# Youngs Moduli (GPa) = 60.20162 41.95760 72.69665
#
# Poissons Ratio (x) = -0.00750 0.60431
# Poissons Ratio (y) = -0.01076 0.36813
# Poissons Ratio (z) = 0.50044 0.21247
#
# Static dielectric constant tensor:
#      x y z
#    x 1.828510 0.000000 0.000000 
#    y 0.000000 1.899870 0.000000 
#    z 0.000000 0.000000 1.800880 
# 
# From -- ./inp_files/33824.got.cif
#   From: 2010.05.17/outbox.cif.g08.bks.cpg/sg66_17_cif.got.tgz:33824.got - 2010.06.03 17:51:23.
