data_PCOD9496465
_publ_section_title
;
Structure prediction by ZEFSAII (Michael W. Deem and Ramdas Pophale) SiO2 
 PCOD9496465
Probable space group: C C C M
;
_chemical_formula_sum "Si O2"
_cell_formula_units_Z 96
_cell_length_a 26.650993
_cell_length_b 10.221589
_cell_length_c 17.795669
_cell_angle_alpha 90.000000
_cell_angle_beta 90.000000
_cell_angle_gamma 90.000000
_cell_volume 4847.816013
_symmetry_space_group_name_H-M "C C C M"
_symmetry_group_IT_number 66
_symmetry_cell_setting 'orthorhombic'
loop_
_space_group_symop_operation_xyz
x,y,z
-x,-y,z
x,-y,1/2-z
-x,y,1/2-z
-x,-y,-z
x,y,-z
-x,y,1/2+z
x,-y,1/2+z
1/2+x,1/2+y,z
1/2-x,1/2-y,z
1/2+x,1/2-y,1/2-z
1/2-x,1/2+y,1/2-z
1/2-x,1/2-y,-z
1/2+x,1/2+y,-z
1/2-x,1/2+y,1/2+z
1/2+x,1/2-y,1/2+z
loop_
_atom_site_type_symbol
_atom_site_label
_atom_site_fract_x
_atom_site_fract_y
_atom_site_fract_z
Si Si1 0.539757 0.608578 0.089044
Si Si2 0.645618 0.027596 0.665654
Si Si3 0.030512 0.614267 0.329446
Si Si4 0.807584 0.215482 0.310453
Si Si5 0.688984 0.757283 0.361882
Si Si6 0.152629 0.007987 0.916145
O O1 0.500000 0.500000 0.115045
O O2 0.533858 0.745243 0.131872
O O3 0.595112 0.547952 0.098076
O O4 0.531706 0.631204 0.000000
O O5 0.665899 0.900980 0.621906
O O6 0.666077 0.000000 0.750000
O O7 0.586425 0.053599 0.674007
O O8 0.666842 0.168064 0.642171
O O9 0.000000 0.500000 0.371737
O O10 0.000000 0.631247 0.250000
O O11 0.750000 0.250000 0.306121
O O12 0.826168 0.220390 0.224456
O O13 0.815924 0.079985 0.351908
O O14 0.750000 0.750000 0.368801
O O15 0.663507 0.645349 0.411028
O O16 0.166090 0.054303 0.000000
#
# Coordination Sequence:
#
# PCOD9496465 Si02
#       6
#    16  16  16  16  16  16
#     4  10  24  44  61  84 123 164 202 248 305 367
#     4  10  19  36  58  88 122 148 192 255 297 351
#     4  11  22  38  61  92 117 149 197 255 307 355
#     4  10  20  38  63  87 117 159 202 248 302 360
#     4  10  22  39  63  91 123 163 202 245 303 360
#     4  11  23  40  61  89 125 161 203 252 299 360
#
# _framework density 19.802731999999999
#
# number of rings (size 3 to 8) (size 9 to 14) (size 15 to 20)
#    0.000    1.667    3.333    1.500    2.333    4.000 
#    3.000    1.667    0.000    0.000    0.000    0.000 
#    0.000    0.000    0.000    0.000    0.000    0.000 
#
# Total GULP energy -267576.543485 kJ/mol
# GULP energy per Si atom -5574.511323 kJ/mol
# Density = 1.975766 g / cm^3
# Si number density = 19.802732 Si / 1000 Ang^3
#
#
#
# Elastic Constant Matrix: (Units=GPa)
#
#
# Indices 1 2 3 4 5 6 
#
# 1 65.6232 40.9124 20.4371 0.0000 0.0000 0.0000
# 2 40.9124 145.1977 25.3320 0.0000 0.0000 0.0000
# 3 20.4371 25.3320 39.9576 0.0000 0.0000 0.0000
# 4 0.0000 0.0000 0.0000 -6.7576 0.0000 0.0000
# 5 0.0000 0.0000 0.0000 0.0000 -44.6973 0.0000
# 6 0.0000 0.0000 0.0000 0.0000 0.0000 40.7584
#
#
#
# Elastic Compliance Matrix: (Units=1/GPa)
#
#
# Indices 1 2 3 4 5 6 
#
# 1 0.020359 -0.004407 -0.007619 0.000000 0.000000 0.000000
# 2 -0.004407 0.008698 -0.003260 0.000000 0.000000 0.000000
# 3 -0.007619 -0.003260 0.030990 0.000000 0.000000 0.000000
# 4 0.000000 0.000000 0.000000 -0.147982 0.000000 0.000000
# 5 0.000000 0.000000 0.000000 0.000000 -0.022373 0.000000
# 6 0.000000 0.000000 0.000000 0.000000 0.000000 0.024535
#
#
# Mechanical properties :
#
#
# Convention : Reuss Voigt Hill
#
# Bulk Modulus (GPa) = 33.92757 47.12683 40.52720
# Shear Modulus (GPa) = -110.18920 8.80050 -50.69435
#
# Velocity S-wave (km/s) = -7.46755 2.11039 -5.06510
# Velocity P-wave (km/s) = 7.56190 5.45785 3.70096
#
# Compressibility (1/GPa) = 0.02947455
#
# Stress axis : x y z
#
# Youngs Moduli (GPa) = 49.11841 114.97214 32.26843
#
# Poissons Ratio (x) = 0.50672 0.24585
# Poissons Ratio (y) = 0.21648 0.10519
# Poissons Ratio (z) = 0.37423 0.37480
#
# Static dielectric constant tensor:
#      x y z
#    x 1.715750 0.000000 0.000000 
#    y 0.000000 1.720350 0.000000 
#    z 0.000000 0.000000 1.710230 
# 
# From -- ./inp_files/52961.got.cif
#   From: 2010.05.17/outbox.cif.g08.bks.cpg/sg66_27_cif.got.tgz:52961.got - 2010.06.03 17:51:23.
