data_PCOD9496866
_publ_section_title
;
Structure prediction by ZEFSAII (Michael W. Deem and Ramdas Pophale) SiO2 
 PCOD9496866
Probable space group: C C C M
;
_chemical_formula_sum "Si O2"
_cell_formula_units_Z 80
_cell_length_a 9.448313
_cell_length_b 26.699510
_cell_length_c 14.668517
_cell_angle_alpha 90.000000
_cell_angle_beta 90.000000
_cell_angle_gamma 90.000000
_cell_volume 3700.358244
_symmetry_space_group_name_H-M "C C C M"
_symmetry_group_IT_number 66
_symmetry_cell_setting 'orthorhombic'
loop_
_space_group_symop_operation_xyz
x,y,z
-x,-y,z
x,-y,1/2-z
-x,y,1/2-z
-x,-y,-z
x,y,-z
-x,y,1/2+z
x,-y,1/2+z
1/2+x,1/2+y,z
1/2-x,1/2-y,z
1/2+x,1/2-y,1/2-z
1/2-x,1/2+y,1/2-z
1/2-x,1/2-y,-z
1/2+x,1/2+y,-z
1/2-x,1/2+y,1/2+z
1/2+x,1/2-y,1/2+z
loop_
_atom_site_type_symbol
_atom_site_label
_atom_site_fract_x
_atom_site_fract_y
_atom_site_fract_z
Si Si1 0.931636 0.951356 0.149331
Si Si2 0.596907 0.757788 0.604426
Si Si3 0.392368 0.043533 0.889809
Si Si4 0.108821 0.656693 0.610594
Si Si5 0.565704 0.340616 0.350549
O O1 0.763676 0.960319 0.152453
O O2 0.957912 0.896234 0.108293
O O3 0.000000 0.948861 0.250000
O O4 0.000000 0.000000 0.103760
O O5 0.624348 0.774025 0.500000
O O6 0.750000 0.750000 0.649248
O O7 0.500275 0.801644 0.643569
O O8 0.509941 0.706250 0.603166
O O9 0.442274 0.100179 0.869642
O O10 0.500000 0.000000 0.861522
O O11 0.375332 0.039848 0.000000
O O12 0.124693 0.660732 0.500000
O O13 0.265170 0.665390 0.649994
O O14 0.500000 0.340810 0.250000
#
# Coordination Sequence:
#
# PCOD9496866 Si02
#       5
#    16  16  16  16  16
#     4   9  19  36  54  75 108 145 180 218 265 325
#     4  10  21  35  52  77 108 141 176 216 265 321
#     4   9  18  33  56  86 113 138 176 227 277 322
#     4   9  18  35  57  79 108 145 178 213 269 332
#     4  10  20  34  54  78 103 137 181 225 264 310
#
# _framework density 21.619529
#
# number of rings (size 3 to 8) (size 9 to 14) (size 15 to 20)
#    0.000    2.600    0.000    1.200    0.000    6.000 
#    0.000    4.000    0.000   12.000    0.000    0.000 
#    0.000    0.000    0.000    0.000    0.000    0.000 
#
# Total GULP energy -223241.062388 kJ/mol
# GULP energy per Si atom -5581.026560 kJ/mol
# Density = 2.157032 g / cm^3
# Si number density = 21.619529 Si / 1000 Ang^3
#
#
#
# Elastic Constant Matrix: (Units=GPa)
#
#
# Indices 1 2 3 4 5 6 
#
# 1 159.7264 128.9904 27.7759 0.0000 0.0000 0.0000
# 2 128.9904 200.6869 16.8403 0.0000 0.0000 0.0000
# 3 27.7759 16.8403 73.7933 0.0000 0.0000 0.0000
# 4 0.0000 0.0000 0.0000 12.4060 0.0000 0.0000
# 5 0.0000 0.0000 0.0000 0.0000 28.0794 0.0000
# 6 0.0000 0.0000 0.0000 0.0000 0.0000 43.6908
#
#
#
# Elastic Compliance Matrix: (Units=1/GPa)
#
#
# Indices 1 2 3 4 5 6 
#
# 1 0.013727 -0.008553 -0.003215 0.000000 0.000000 0.000000
# 2 -0.008553 0.010410 0.000844 0.000000 0.000000 0.000000
# 3 -0.003215 0.000844 0.014569 0.000000 0.000000 0.000000
# 4 0.000000 0.000000 0.000000 0.080606 0.000000 0.000000
# 5 0.000000 0.000000 0.000000 0.000000 0.035613 0.000000
# 6 0.000000 0.000000 0.000000 0.000000 0.000000 0.022888
#
#
# Mechanical properties :
#
#
# Convention : Reuss Voigt Hill
#
# Bulk Modulus (GPa) = 59.32265 86.82442 73.07353
# Shear Modulus (GPa) = 24.35682 34.20855 29.28269
#
# Velocity S-wave (km/s) = 3.36015 3.98213 3.68429
# Velocity P-wave (km/s) = 6.52327 7.83521 7.20914
#
# Compressibility (1/GPa) = 0.01685697
#
# Stress axis : x y z
#
# Youngs Moduli (GPa) = 72.84823 96.06469 68.63931
#
# Poissons Ratio (x) = 0.82167 0.22067
# Poissons Ratio (y) = 0.62309 -0.05792
# Poissons Ratio (z) = 0.23421 -0.08107
#
# Static dielectric constant tensor:
#      x y z
#    x 1.746430 0.000000 0.000000 
#    y 0.000000 1.814330 0.000000 
#    z 0.000000 0.000000 1.856340 
# 
# From -- ./inp_files/36944.got.cif
#   From: 2010.05.17/outbox.cif.g08.bks.cpg/sg66_19_cif.got.tgz:36944.got - 2010.06.03 17:51:23.
