data_PCOD9496123
_publ_section_title
;
Structure prediction by ZEFSAII (Michael W. Deem and Ramdas Pophale) SiO2 
 PCOD9496123
Probable space group: C C C M
;
_chemical_formula_sum "Si O2"
_cell_formula_units_Z 112
_cell_length_a 13.019004
_cell_length_b 24.026025
_cell_length_c 19.775220
_cell_angle_alpha 90.000000
_cell_angle_beta 90.000000
_cell_angle_gamma 90.000000
_cell_volume 6185.588270
_symmetry_space_group_name_H-M "C C C M"
_symmetry_group_IT_number 66
_symmetry_cell_setting 'orthorhombic'
loop_
_space_group_symop_operation_xyz
x,y,z
-x,-y,z
x,-y,1/2-z
-x,y,1/2-z
-x,-y,-z
x,y,-z
-x,y,1/2+z
x,-y,1/2+z
1/2+x,1/2+y,z
1/2-x,1/2-y,z
1/2+x,1/2-y,1/2-z
1/2-x,1/2+y,1/2-z
1/2-x,1/2-y,-z
1/2+x,1/2+y,-z
1/2-x,1/2+y,1/2+z
1/2+x,1/2-y,1/2+z
loop_
_atom_site_type_symbol
_atom_site_label
_atom_site_fract_x
_atom_site_fract_y
_atom_site_fract_z
Si Si1 0.925155 0.450296 0.082096
Si Si2 0.611898 0.555546 0.715830
Si Si3 0.689623 0.522911 0.578298
Si Si4 0.788755 0.109436 0.574612
Si Si5 0.556912 0.846748 0.922423
Si Si6 0.684309 0.663811 0.214170
Si Si7 0.406204 0.217396 0.794270
O O1 0.805866 0.459219 0.098478
O O2 0.000000 0.500000 0.106557
O O3 0.971771 0.390820 0.102179
O O4 0.930542 0.451714 0.000000
O O5 0.660967 0.500000 0.750000
O O6 0.500000 0.559206 0.750000
O O7 0.613910 0.546322 0.635395
O O8 0.665717 0.612821 0.735838
O O9 0.669805 0.539640 0.500000
O O10 0.688866 0.455904 0.580206
O O11 0.822637 0.128827 0.500000
O O12 0.665762 0.120184 0.577778
O O13 0.834401 0.141263 0.638251
O O14 0.568099 0.794953 0.872504
O O15 0.536141 0.830811 0.000000
O O16 0.615386 0.718404 0.222890
O O17 0.801348 0.684358 0.219405
O O18 0.500000 0.196307 0.750000
#
# Coordination Sequence:
#
# PCOD9496123 Si02
#       7
#    16  16  16  16  16  16  16
#     4   9  15  26  50  84 120 157 182 215 282 349
#     4  11  23  39  59  82 111 151 194 238 293 343
#     4  10  19  33  55  85 120 154 190 231 283 352
#     4   9  16  30  53  83 116 147 184 230 276 336
#     4   9  17  30  51  82 118 149 186 227 274 342
#     4  10  21  39  57  78 112 151 189 239 292 346
#     4  10  22  37  57  81 108 148 196 237 288 345
#
# _framework density 18.106604999999998
#
# number of rings (size 3 to 8) (size 9 to 14) (size 15 to 20)
#    0.000    2.286    2.857    0.429    2.000    0.571 
#    0.000    5.000    0.000    2.571    0.000    2.000 
#    0.000    0.000    0.000    0.000    0.000    0.000 
#
# Total GULP energy -312165.646409 kJ/mol
# GULP energy per Si atom -5574.386543 kJ/mol
# Density = 1.806539 g / cm^3
# Si number density = 18.106605 Si / 1000 Ang^3
#
#
#
# Elastic Constant Matrix: (Units=GPa)
#
#
# Indices 1 2 3 4 5 6 
#
# 1 49.8952 16.6537 32.3926 0.0000 0.0000 0.0000
# 2 16.6537 85.9088 34.3405 0.0000 0.0000 0.0000
# 3 32.3926 34.3405 102.3234 0.0000 0.0000 0.0000
# 4 0.0000 0.0000 0.0000 18.3773 0.0000 0.0000
# 5 0.0000 0.0000 0.0000 0.0000 24.3767 0.0000
# 6 0.0000 0.0000 0.0000 0.0000 0.0000 2.9520
#
#
#
# Elastic Compliance Matrix: (Units=1/GPa)
#
#
# Indices 1 2 3 4 5 6 
#
# 1 0.025516 -0.001984 -0.007412 0.000000 0.000000 0.000000
# 2 -0.001984 0.013598 -0.003936 0.000000 0.000000 0.000000
# 3 -0.007412 -0.003936 0.013440 0.000000 0.000000 0.000000
# 4 0.000000 0.000000 0.000000 0.054415 0.000000 0.000000
# 5 0.000000 0.000000 0.000000 0.000000 0.041023 0.000000
# 6 0.000000 0.000000 0.000000 0.000000 0.000000 0.338758
#
#
# Mechanical properties :
#
#
# Convention : Reuss Voigt Hill
#
# Bulk Modulus (GPa) = 38.62217 44.98901 41.80559
# Shear Modulus (GPa) = 9.57776 19.45723 14.51750
#
# Velocity S-wave (km/s) = 2.30242 3.28166 2.83464
# Velocity P-wave (km/s) = 5.33338 6.26576 5.81827
#
# Compressibility (1/GPa) = 0.02589186
#
# Stress axis : x y z
#
# Youngs Moduli (GPa) = 39.19106 73.54038 74.40386
#
# Poissons Ratio (x) = 0.14587 0.55148
# Poissons Ratio (y) = 0.07774 0.29283
# Poissons Ratio (z) = 0.29048 0.28943
#
# Static dielectric constant tensor:
#      x y z
#    x 1.640460 0.000000 0.000000 
#    y 0.000000 1.614160 0.000000 
#    z 0.000000 0.000000 1.632660 
# 
# From -- ./inp_files/49037.got.cif
#   From: 2010.05.17/outbox.cif.g08.bks.cpg/sg66_25_cif.got.tgz:49037.got - 2010.06.03 17:51:23.
