data_PCOD9496089
_publ_section_title
;
Structure prediction by ZEFSAII (Michael W. Deem and Ramdas Pophale) SiO2 
 PCOD9496089
Probable space group: C C C M
;
_chemical_formula_sum "Si O2"
_cell_formula_units_Z 80
_cell_length_a 13.629420
_cell_length_b 10.234603
_cell_length_c 28.020779
_cell_angle_alpha 90.000000
_cell_angle_beta 90.000000
_cell_angle_gamma 90.000000
_cell_volume 3908.666177
_symmetry_space_group_name_H-M "C C C M"
_symmetry_group_IT_number 66
_symmetry_cell_setting 'orthorhombic'
loop_
_space_group_symop_operation_xyz
x,y,z
-x,-y,z
x,-y,1/2-z
-x,y,1/2-z
-x,-y,-z
x,y,-z
-x,y,1/2+z
x,-y,1/2+z
1/2+x,1/2+y,z
1/2-x,1/2-y,z
1/2+x,1/2-y,1/2-z
1/2-x,1/2+y,1/2-z
1/2-x,1/2-y,-z
1/2+x,1/2+y,-z
1/2-x,1/2+y,1/2+z
1/2+x,1/2-y,1/2+z
loop_
_atom_site_type_symbol
_atom_site_label
_atom_site_fract_x
_atom_site_fract_y
_atom_site_fract_z
Si Si1 0.862166 0.791899 0.220618
Si Si2 0.505528 0.778233 0.860028
Si Si3 0.597922 0.908633 0.053199
Si Si4 0.299017 0.884631 0.890264
Si Si5 0.624315 0.419433 0.820300
O O1 0.750000 0.750000 0.213347
O O2 0.877958 0.813551 0.277034
O O3 0.931858 0.700884 0.188308
O O4 0.884997 0.937226 0.201037
O O5 0.574758 0.804144 0.905410
O O6 0.407692 0.863669 0.868313
O O7 0.456705 0.635009 0.856567
O O8 0.500000 0.000000 0.050674
O O9 0.685408 0.002771 0.070973
O O10 0.614640 0.856283 0.000000
O O11 0.250000 0.750000 0.909716
O O12 0.227249 0.920006 0.847301
#
# Coordination Sequence:
#
# PCOD9496089 Si02
#       5
#    16  16  16  16  16
#     4  11  21  34  54  78 109 146 185 224 273 339
#     4  10  19  33  54  76 107 143 180 225 274 330
#     4   9  18  33  55  82 109 142 186 236 287 334
#     4   9  18  34  54  78 110 140 180 230 279 334
#     4  10  21  35  52  79 110 145 183 224 278 340
#
# _framework density 20.467341000000001
#
# number of rings (size 3 to 8) (size 9 to 14) (size 15 to 20)
#    0.000    2.200    0.000    4.200    0.000    2.000 
#    0.000    3.000    0.000   21.000    0.000    0.000 
#    0.000    0.000    0.000    0.000    0.000    0.000 
#
# Total GULP energy -222827.679421 kJ/mol
# GULP energy per Si atom -5570.691986 kJ/mol
# Density = 2.042076 g / cm^3
# Si number density = 20.467341 Si / 1000 Ang^3
#
#
#
# Elastic Constant Matrix: (Units=GPa)
#
#
# Indices 1 2 3 4 5 6 
#
# 1 96.2385 14.8058 50.7448 0.0000 0.0000 0.0000
# 2 14.8058 42.4570 34.7072 0.0000 0.0000 0.0000
# 3 50.7448 34.7072 131.9414 0.0000 0.0000 0.0000
# 4 0.0000 0.0000 0.0000 18.9000 0.0000 0.0000
# 5 0.0000 0.0000 0.0000 0.0000 13.6065 0.0000
# 6 0.0000 0.0000 0.0000 0.0000 0.0000 20.0377
#
#
#
# Elastic Compliance Matrix: (Units=1/GPa)
#
#
# Indices 1 2 3 4 5 6 
#
# 1 0.013045 -0.000570 -0.004867 0.000000 0.000000 0.000000
# 2 -0.000570 0.030030 -0.007680 0.000000 0.000000 0.000000
# 3 -0.004867 -0.007680 0.011471 0.000000 0.000000 0.000000
# 4 0.000000 0.000000 0.000000 0.052910 0.000000 0.000000
# 5 0.000000 0.000000 0.000000 0.000000 0.073494 0.000000
# 6 0.000000 0.000000 0.000000 0.000000 0.000000 0.049906
#
#
# Mechanical properties :
#
#
# Convention : Reuss Voigt Hill
#
# Bulk Modulus (GPa) = 35.32149 52.35028 43.83589
# Shear Modulus (GPa) = 18.75966 21.86743 20.31355
#
# Velocity S-wave (km/s) = 3.03077 3.27219 3.15379
# Velocity P-wave (km/s) = 5.43529 6.31738 5.89286
#
# Compressibility (1/GPa) = 0.02831138
#
# Stress axis : x y z
#
# Youngs Moduli (GPa) = 76.65826 33.29961 87.17449
#
# Poissons Ratio (x) = 0.01900 0.42428
# Poissons Ratio (y) = 0.04373 0.66951
# Poissons Ratio (z) = 0.37310 0.25574
#
# Static dielectric constant tensor:
#      x y z
#    x 1.780910 0.000000 0.000000 
#    y 0.000000 1.793490 0.000000 
#    z 0.000000 0.000000 1.759460 
# 
# From -- ./inp_files/64474.got.cif
#   From: 2010.05.17/outbox.cif.g08.bks.cpg/sg66_33_cif.got.tgz:64474.got - 2010.06.03 17:51:23.
