data_PCOD9496963
_publ_section_title
;
Structure prediction by ZEFSAII (Michael W. Deem and Ramdas Pophale) SiO2 
 PCOD9496963
Probable space group: C C C M
;
_chemical_formula_sum "Si O2"
_cell_formula_units_Z 112
_cell_length_a 15.634809
_cell_length_b 25.524795
_cell_length_c 14.314335
_cell_angle_alpha 90.000000
_cell_angle_beta 90.000000
_cell_angle_gamma 90.000000
_cell_volume 5712.497457
_symmetry_space_group_name_H-M "C C C M"
_symmetry_group_IT_number 66
_symmetry_cell_setting 'orthorhombic'
loop_
_space_group_symop_operation_xyz
x,y,z
-x,-y,z
x,-y,1/2-z
-x,y,1/2-z
-x,-y,-z
x,y,-z
-x,y,1/2+z
x,-y,1/2+z
1/2+x,1/2+y,z
1/2-x,1/2-y,z
1/2+x,1/2-y,1/2-z
1/2-x,1/2+y,1/2-z
1/2-x,1/2-y,-z
1/2+x,1/2+y,-z
1/2-x,1/2+y,1/2+z
1/2+x,1/2-y,1/2+z
loop_
_atom_site_type_symbol
_atom_site_label
_atom_site_fract_x
_atom_site_fract_y
_atom_site_fract_z
Si Si1 0.383846 0.956548 0.386225
Si Si2 0.165229 0.678863 0.112986
Si Si3 0.137176 0.205736 0.388311
Si Si4 0.902518 0.018064 0.893853
Si Si5 0.705387 0.588821 0.108219
Si Si6 0.575212 0.072722 0.114168
Si Si7 0.594843 0.612907 0.271497
O O1 0.382210 0.957733 0.500000
O O2 0.301723 0.922877 0.359207
O O3 0.475276 0.932249 0.359046
O O4 0.381856 0.017637 0.356627
O O5 0.124267 0.734294 0.142653
O O6 0.265706 0.686447 0.132864
O O7 0.122102 0.625385 0.147305
O O8 0.159088 0.677758 0.000000
O O9 0.126275 0.203376 0.500000
O O10 0.081967 0.163566 0.335052
O O11 0.867221 0.063978 0.828874
O O12 0.843538 0.967063 0.890149
O O13 0.903113 0.038607 0.000000
O O14 0.000000 0.000000 0.873683
O O15 0.651976 0.623368 0.180749
O O16 0.704828 0.607061 0.000000
O O17 0.577411 0.073446 0.000000
O O18 0.500000 0.594295 0.250000
#
# Coordination Sequence:
#
# PCOD9496963 Si02
#       7
#    16  16  16  16  16  16  16
#     4   8  15  27  46  80 115 142 177 210 253 327
#     4   8  15  31  56  84 109 133 172 226 284 331
#     4   9  19  34  55  84 109 135 179 231 278 325
#     4  10  20  35  52  74 105 140 178 220 269 329
#     4  10  21  34  50  75 111 149 182 217 260 323
#     4   8  13  25  50  81 111 140 171 214 265 323
#     4  12  23  34  53  76 107 141 181 224 271 321
#
# _framework density 19.606135999999999
#
# number of rings (size 3 to 8) (size 9 to 14) (size 15 to 20)
#    0.000    2.714    1.429    2.571    2.000    0.571 
#    0.000    0.000    6.286    0.000    0.000    2.000 
#    0.000    0.000    0.000    0.000    0.000    0.000 
#
# Total GULP energy -312319.429572 kJ/mol
# GULP energy per Si atom -5577.132671 kJ/mol
# Density = 1.956151 g / cm^3
# Si number density = 19.606136 Si / 1000 Ang^3
#
#
#
# Elastic Constant Matrix: (Units=GPa)
#
#
# Indices 1 2 3 4 5 6 
#
# 1 51.5294 10.2671 19.6623 0.0000 0.0000 0.0000
# 2 10.2671 76.5299 29.0152 0.0000 0.0000 0.0000
# 3 19.6623 29.0152 64.7102 0.0000 0.0000 0.0000
# 4 0.0000 0.0000 0.0000 11.6669 0.0000 0.0000
# 5 0.0000 0.0000 0.0000 0.0000 12.1112 0.0000
# 6 0.0000 0.0000 0.0000 0.0000 0.0000 20.8730
#
#
#
# Elastic Compliance Matrix: (Units=1/GPa)
#
#
# Indices 1 2 3 4 5 6 
#
# 1 0.021967 -0.000502 -0.006450 0.000000 0.000000 0.000000
# 2 -0.000502 0.015755 -0.006912 0.000000 0.000000 0.000000
# 3 -0.006450 -0.006912 0.020512 0.000000 0.000000 0.000000
# 4 0.000000 0.000000 0.000000 0.085712 0.000000 0.000000
# 5 0.000000 0.000000 0.000000 0.000000 0.082568 0.000000
# 6 0.000000 0.000000 0.000000 0.000000 0.000000 0.047909
#
#
# Mechanical properties :
#
#
# Convention : Reuss Voigt Hill
#
# Bulk Modulus (GPa) = 32.77844 34.51765 33.64805
# Shear Modulus (GPa) = 16.00923 17.85188 16.93056
#
# Velocity S-wave (km/s) = 2.86062 3.02076 2.94178
# Velocity P-wave (km/s) = 5.25981 5.45989 5.36079
#
# Compressibility (1/GPa) = 0.03050785
#
# Stress axis : x y z
#
# Youngs Moduli (GPa) = 45.52188 63.47370 48.75093
#
# Poissons Ratio (x) = 0.03185 0.31444
# Poissons Ratio (y) = 0.02284 0.33695
# Poissons Ratio (z) = 0.29361 0.43871
#
# Static dielectric constant tensor:
#      x y z
#    x 1.729430 0.000000 0.000000 
#    y 0.000000 1.702530 0.000000 
#    z 0.000000 0.000000 1.738900 
# 
# From -- ./inp_files/28878.got.cif
#   From: 2010.05.17/outbox.cif.g08.bks.cpg/sg66_15_cif.got.tgz:28878.got - 2010.06.03 17:51:23.
