data_PCOD9496658
_publ_section_title
;
Structure prediction by ZEFSAII (Michael W. Deem and Ramdas Pophale) SiO2 
 PCOD9496658
Probable space group: C C C M
;
_chemical_formula_sum "Si O2"
_cell_formula_units_Z 96
_cell_length_a 25.575770
_cell_length_b 25.286348
_cell_length_c 8.924619
_cell_angle_alpha 90.000000
_cell_angle_beta 90.000000
_cell_angle_gamma 90.000000
_cell_volume 5771.710149
_symmetry_space_group_name_H-M "C C C M"
_symmetry_group_IT_number 66
_symmetry_cell_setting 'orthorhombic'
loop_
_space_group_symop_operation_xyz
x,y,z
-x,-y,z
x,-y,1/2-z
-x,y,1/2-z
-x,-y,-z
x,y,-z
-x,y,1/2+z
x,-y,1/2+z
1/2+x,1/2+y,z
1/2-x,1/2-y,z
1/2+x,1/2-y,1/2-z
1/2-x,1/2+y,1/2-z
1/2-x,1/2-y,-z
1/2+x,1/2+y,-z
1/2-x,1/2+y,1/2+z
1/2+x,1/2-y,1/2+z
loop_
_atom_site_type_symbol
_atom_site_label
_atom_site_fract_x
_atom_site_fract_y
_atom_site_fract_z
Si Si1 0.757255 0.336649 0.178371
Si Si2 0.637714 0.552658 0.677858
Si Si3 0.551800 0.386967 0.669713
Si Si4 0.752756 0.554390 0.179102
Si Si5 0.052642 0.760405 0.668458
Si Si6 0.835405 0.762109 0.677322
O O1 0.774480 0.389530 0.263711
O O2 0.799414 0.289912 0.195988
O O3 0.701475 0.311228 0.229954
O O4 0.752313 0.348145 0.000000
O O5 0.612853 0.500000 0.750000
O O6 0.643851 0.548485 0.500000
O O7 0.600722 0.599976 0.726311
O O8 0.693568 0.557343 0.757419
O O9 0.500000 0.408413 0.750000
O O10 0.558532 0.407374 0.500000
O O11 0.546594 0.323943 0.659794
O O12 0.775205 0.500000 0.250000
O O13 0.753166 0.550710 0.000000
O O14 0.054778 0.739133 0.500000
O O15 0.108613 0.753432 0.747572
O O16 0.000000 0.740423 0.750000
O O17 0.843456 0.770280 0.500000
#
# Coordination Sequence:
#
# PCOD9496658 Si02
#       6
#    16  16  16  16  16  16
#     4   9  18  33  51  73 100 131 162 196 240 291
#     4  11  21  33  47  62  82 111 147 190 235 280
#     4  10  20  33  46  63  84 111 148 190 234 278
#     4  11  21  33  49  69  93 123 157 195 235 281
#     4  10  20  32  48  68  93 123 157 195 235 280
#     4   9  18  32  51  73 100 131 162 196 240 290
#
# _framework density 16.632853000000001
#
# number of rings (size 3 to 8) (size 9 to 14) (size 15 to 20)
#    0.000    2.000    0.000    7.000    0.000    6.333 
#    0.000    3.333    0.000    0.000    0.000    0.000 
#    0.000    0.667    0.000    7.000    0.000    3.000 
#
# Total GULP energy -267606.079182 kJ/mol
# GULP energy per Si atom -5575.126650 kJ/mol
# Density = 1.659500 g / cm^3
# Si number density = 16.632853 Si / 1000 Ang^3
#
#
#
# Elastic Constant Matrix: (Units=GPa)
#
#
# Indices 1 2 3 4 5 6 
#
# 1 71.6765 2.1780 34.6483 0.0000 0.0000 0.0000
# 2 2.1780 59.8338 36.6371 0.0000 0.0000 0.0000
# 3 34.6483 36.6371 117.8270 0.0000 0.0000 0.0000
# 4 0.0000 0.0000 0.0000 30.0176 0.0000 0.0000
# 5 0.0000 0.0000 0.0000 0.0000 21.2939 0.0000
# 6 0.0000 0.0000 0.0000 0.0000 0.0000 11.7638
#
#
#
# Elastic Compliance Matrix: (Units=1/GPa)
#
#
# Indices 1 2 3 4 5 6 
#
# 1 0.016677 0.002959 -0.005824 0.000000 0.000000 0.000000
# 2 0.002959 0.021168 -0.007452 0.000000 0.000000 0.000000
# 3 -0.005824 -0.007452 0.012517 0.000000 0.000000 0.000000
# 4 0.000000 0.000000 0.000000 0.033314 0.000000 0.000000
# 5 0.000000 0.000000 0.000000 0.000000 0.046962 0.000000
# 6 0.000000 0.000000 0.000000 0.000000 0.000000 0.085006
#
#
# Mechanical properties :
#
#
# Convention : Reuss Voigt Hill
#
# Bulk Modulus (GPa) = 33.63857 44.02934 38.83395
# Shear Modulus (GPa) = 20.30967 24.34000 22.32483
#
# Velocity S-wave (km/s) = 3.49815 3.82955 3.66760
# Velocity P-wave (km/s) = 6.04849 6.78843 6.42911
#
# Compressibility (1/GPa) = 0.02972778
#
# Stress axis : x y z
#
# Youngs Moduli (GPa) = 59.96254 47.24028 79.89204
#
# Poissons Ratio (x) = -0.13979 0.46531
# Poissons Ratio (y) = -0.17744 0.59538
# Poissons Ratio (z) = 0.34923 0.35205
#
# Static dielectric constant tensor:
#      x y z
#    x 1.559040 0.000000 0.000000 
#    y 0.000000 1.633210 0.000000 
#    z 0.000000 0.000000 1.574860 
# 
# From -- ./inp_files/9114.got.cif
#   From: 2010.05.17/outbox.cif.g08.bks.cpg/sg66_5_cif.got.tgz:9114.got - 2010.06.03 17:51:23.
