data_PCOD9496984
_publ_section_title
;
Structure prediction by ZEFSAII (Michael W. Deem and Ramdas Pophale) SiO2 
 PCOD9496984
Probable space group: C C C M
;
_chemical_formula_sum "Si O2"
_cell_formula_units_Z 64
_cell_length_a 13.389618
_cell_length_b 8.326061
_cell_length_c 28.327154
_cell_angle_alpha 90.000000
_cell_angle_beta 90.000000
_cell_angle_gamma 90.000000
_cell_volume 3157.989771
_symmetry_space_group_name_H-M "C C C M"
_symmetry_group_IT_number 66
_symmetry_cell_setting 'orthorhombic'
loop_
_space_group_symop_operation_xyz
x,y,z
-x,-y,z
x,-y,1/2-z
-x,y,1/2-z
-x,-y,-z
x,y,-z
-x,y,1/2+z
x,-y,1/2+z
1/2+x,1/2+y,z
1/2-x,1/2-y,z
1/2+x,1/2-y,1/2-z
1/2-x,1/2+y,1/2-z
1/2-x,1/2-y,-z
1/2+x,1/2+y,-z
1/2-x,1/2+y,1/2+z
1/2+x,1/2-y,1/2+z
loop_
_atom_site_type_symbol
_atom_site_label
_atom_site_fract_x
_atom_site_fract_y
_atom_site_fract_z
Si Si1 0.336806 0.373816 0.111471
Si Si2 0.533406 0.176121 0.859069
Si Si3 0.363004 0.308851 0.447684
Si Si4 0.383271 0.442915 0.301280
O O1 0.250000 0.250000 0.097974
O O2 0.433643 0.275010 0.127645
O O3 0.363799 0.509193 0.072839
O O4 0.314487 0.475465 0.158943
O O5 0.591048 0.191123 0.908587
O O6 0.600411 0.260035 0.818434
O O7 0.500000 0.000000 0.845739
O O8 0.409359 0.301920 0.500000
O O9 0.250000 0.250000 0.451534
O O10 0.500000 0.500000 0.303732
O O11 0.348508 0.500000 0.250000
#
# Coordination Sequence:
#
# PCOD9496984 Si02
#       4
#    16  16  16  16
#     4  10  20  35  54  78 110 144 181 223 271 324
#     4  10  20  35  57  82 110 145 180 223 275 324
#     4  10  21  37  57  80 107 142 183 228 275 324
#     4   8  16  34  55  75 106 142 179 224 270 318
#
# _framework density 20.266058000000001
#
# number of rings (size 3 to 8) (size 9 to 14) (size 15 to 20)
#    0.000    2.500    0.000    3.750    0.000    3.000 
#    0.000   17.500    0.000    0.000    0.000    0.000 
#    0.000    0.000    0.000    0.000    0.000    0.000 
#
# Total GULP energy -178202.880444 kJ/mol
# GULP energy per Si atom -5568.840014 kJ/mol
# Density = 2.021993 g / cm^3
# Si number density = 20.266058 Si / 1000 Ang^3
#
#
#
# Elastic Constant Matrix: (Units=GPa)
#
#
# Indices 1 2 3 4 5 6 
#
# 1 19.3808 -5.7610 -5.6990 0.0000 0.0000 0.0000
# 2 -5.7610 95.9214 37.6686 0.0000 0.0000 0.0000
# 3 -5.6990 37.6686 129.6765 0.0000 0.0000 0.0000
# 4 0.0000 0.0000 0.0000 4.0612 0.0000 0.0000
# 5 0.0000 0.0000 0.0000 0.0000 19.3842 0.0000
# 6 0.0000 0.0000 0.0000 0.0000 0.0000 25.8075
#
#
#
# Elastic Compliance Matrix: (Units=1/GPa)
#
#
# Indices 1 2 3 4 5 6 
#
# 1 0.052821 0.002552 0.001580 0.000000 0.000000 0.000000
# 2 0.002552 0.011891 -0.003342 0.000000 0.000000 0.000000
# 3 0.001580 -0.003342 0.008752 0.000000 0.000000 0.000000
# 4 0.000000 0.000000 0.000000 0.246230 0.000000 0.000000
# 5 0.000000 0.000000 0.000000 0.000000 0.051588 0.000000
# 6 0.000000 0.000000 0.000000 0.000000 0.000000 0.038748
#
#
# Mechanical properties :
#
#
# Convention : Reuss Voigt Hill
#
# Bulk Modulus (GPa) = 13.32567 33.04399 23.18483
# Shear Modulus (GPa) = 11.53498 24.43527 17.98513
#
# Velocity S-wave (km/s) = 2.38833 3.47612 2.98224
# Velocity P-wave (km/s) = 3.76764 5.69664 4.82943
#
# Compressibility (1/GPa) = 0.07504316
#
# Stress axis : x y z
#
# Youngs Moduli (GPa) = 18.93202 84.09831 114.26352
#
# Poissons Ratio (x) = -0.21461 -0.18054
# Poissons Ratio (y) = -0.04831 0.38186
# Poissons Ratio (z) = -0.02991 0.28105
#
# Static dielectric constant tensor:
#      x y z
#    x 3.295420 0.000000 0.000000 
#    y 0.000000 1.733530 0.000000 
#    z 0.000000 0.000000 1.770210 
# 
# From -- ./inp_files/67909.got.cif
#   From: 2010.05.17/outbox.cif.g08.bks.cpg/sg66_34_cif.got.tgz:67909.got - 2010.06.03 17:51:23.
