data_PCOD9496286
_publ_section_title
;
Structure prediction by ZEFSAII (Michael W. Deem and Ramdas Pophale) SiO2 
 PCOD9496286
Probable space group: C C C M
;
_chemical_formula_sum "Si O2"
_cell_formula_units_Z 96
_cell_length_a 28.886353
_cell_length_b 7.637999
_cell_length_c 22.980027
_cell_angle_alpha 90.000000
_cell_angle_beta 90.000000
_cell_angle_gamma 90.000000
_cell_volume 5070.173791
_symmetry_space_group_name_H-M "C C C M"
_symmetry_group_IT_number 66
_symmetry_cell_setting 'orthorhombic'
loop_
_space_group_symop_operation_xyz
x,y,z
-x,-y,z
x,-y,1/2-z
-x,y,1/2-z
-x,-y,-z
x,y,-z
-x,y,1/2+z
x,-y,1/2+z
1/2+x,1/2+y,z
1/2-x,1/2-y,z
1/2+x,1/2-y,1/2-z
1/2-x,1/2+y,1/2-z
1/2-x,1/2-y,-z
1/2+x,1/2+y,-z
1/2-x,1/2+y,1/2+z
1/2+x,1/2-y,1/2+z
loop_
_atom_site_type_symbol
_atom_site_label
_atom_site_fract_x
_atom_site_fract_y
_atom_site_fract_z
Si Si1 0.946868 0.956618 0.567585
Si Si2 0.800403 0.802042 0.772023
Si Si3 0.644370 0.582446 0.877896
Si Si4 0.350235 0.923479 0.567538
Si Si5 0.804255 0.282348 0.143913
Si Si6 0.949605 0.460055 0.067926
O O1 0.938765 0.011573 0.500000
O O2 0.941387 0.747397 0.570277
O O3 0.909231 0.044697 0.608932
O O4 0.000000 0.000000 0.581534
O O5 0.750000 0.750000 0.796977
O O6 0.841130 0.817460 0.818696
O O7 0.811636 0.694422 0.713520
O O8 0.793514 0.000000 0.750000
O O9 0.662027 0.719813 0.925942
O O10 0.668984 0.393410 0.876086
O O11 0.348201 0.977760 0.500000
O O12 0.320136 0.052264 0.606827
O O13 0.403395 0.946357 0.589642
O O14 0.750000 0.250000 0.136500
O O15 0.000000 0.500000 0.094446
O O16 0.952758 0.514970 0.000000
#
# Coordination Sequence:
#
# PCOD9496286 Si02
#       6
#    16  16  16  16  16  16
#     4  10  19  34  58  87 124 165 200 243 296 358
#     4   9  21  38  63  88 111 150 211 258 301 353
#     4  11  22  36  61  91 121 152 205 255 307 353
#     4  11  23  36  57  88 122 161 196 240 306 372
#     4  10  23  42  61  84 118 158 203 254 302 359
#     4   9  17  32  53  80 114 153 200 242 280 343
#
# _framework density 18.934262
#
# number of rings (size 3 to 8) (size 9 to 14) (size 15 to 20)
#    0.000    2.000    1.667    1.500    7.000    3.667 
#    0.000    0.833    0.000    4.500    0.000    1.167 
#    0.000    0.000    0.000    0.000    0.000    0.000 
#
# Total GULP energy -267696.878472 kJ/mol
# GULP energy per Si atom -5577.018301 kJ/mol
# Density = 1.889117 g / cm^3
# Si number density = 18.934262 Si / 1000 Ang^3
#
#
#
# Elastic Constant Matrix: (Units=GPa)
#
#
# Indices 1 2 3 4 5 6 
#
# 1 131.4175 29.0026 67.9695 0.0000 0.0000 0.0000
# 2 29.0026 64.5532 26.6145 0.0000 0.0000 0.0000
# 3 67.9695 26.6145 70.4754 0.0000 0.0000 0.0000
# 4 0.0000 0.0000 0.0000 25.9033 0.0000 0.0000
# 5 0.0000 0.0000 0.0000 0.0000 36.5363 0.0000
# 6 0.0000 0.0000 0.0000 0.0000 0.0000 28.9137
#
#
#
# Elastic Compliance Matrix: (Units=1/GPa)
#
#
# Indices 1 2 3 4 5 6 
#
# 1 0.015230 -0.000932 -0.014336 0.000000 0.000000 0.000000
# 2 -0.000932 0.018405 -0.006052 0.000000 0.000000 0.000000
# 3 -0.014336 -0.006052 0.030301 0.000000 0.000000 0.000000
# 4 0.000000 0.000000 0.000000 0.038605 0.000000 0.000000
# 5 0.000000 0.000000 0.000000 0.000000 0.027370 0.000000
# 6 0.000000 0.000000 0.000000 0.000000 0.000000 0.034586
#
#
# Mechanical properties :
#
#
# Convention : Reuss Voigt Hill
#
# Bulk Modulus (GPa) = 46.95700 57.06881 52.01290
# Shear Modulus (GPa) = 23.33879 27.79463 25.56671
#
# Velocity S-wave (km/s) = 3.51468 3.83555 3.67861
# Velocity P-wave (km/s) = 6.42841 7.05841 6.75076
#
# Compressibility (1/GPa) = 0.02129608
#
# Stress axis : x y z
#
# Youngs Moduli (GPa) = 65.66070 54.33363 33.00169
#
# Poissons Ratio (x) = 0.05062 0.47313
# Poissons Ratio (y) = 0.06118 0.19972
# Poissons Ratio (z) = 0.94134 0.32882
#
# Static dielectric constant tensor:
#      x y z
#    x 1.671110 0.000000 0.000000 
#    y 0.000000 1.701840 0.000000 
#    z 0.000000 0.000000 1.674900 
# 
# From -- ./inp_files/52982.got.cif
#   From: 2010.05.17/outbox.cif.g08.bks.cpg/sg66_27_cif.got.tgz:52982.got - 2010.06.03 17:51:23.
