data_PCOD9496496
_publ_section_title
;
Structure prediction by ZEFSAII (Michael W. Deem and Ramdas Pophale) SiO2 
 PCOD9496496
Probable space group: C C C M
;
_chemical_formula_sum "Si O2"
_cell_formula_units_Z 96
_cell_length_a 10.202071
_cell_length_b 28.410283
_cell_length_c 18.139918
_cell_angle_alpha 90.000000
_cell_angle_beta 90.000000
_cell_angle_gamma 90.000000
_cell_volume 5257.741392
_symmetry_space_group_name_H-M "C C C M"
_symmetry_group_IT_number 66
_symmetry_cell_setting 'orthorhombic'
loop_
_space_group_symop_operation_xyz
x,y,z
-x,-y,z
x,-y,1/2-z
-x,y,1/2-z
-x,-y,-z
x,y,-z
-x,y,1/2+z
x,-y,1/2+z
1/2+x,1/2+y,z
1/2-x,1/2-y,z
1/2+x,1/2-y,1/2-z
1/2-x,1/2+y,1/2-z
1/2-x,1/2-y,-z
1/2+x,1/2+y,-z
1/2-x,1/2+y,1/2+z
1/2+x,1/2-y,1/2+z
loop_
_atom_site_type_symbol
_atom_site_label
_atom_site_fract_x
_atom_site_fract_y
_atom_site_fract_z
Si Si1 0.229721 0.586479 0.588859
Si Si2 0.901335 0.748317 0.817888
Si Si3 0.542983 0.339490 0.411943
Si Si4 0.004480 0.354659 0.838109
Si Si5 0.765214 0.115586 0.910857
Si Si6 0.851104 0.988964 0.410318
O O1 0.215141 0.587772 0.500000
O O2 0.353794 0.619582 0.608208
O O3 0.102569 0.607825 0.626465
O O4 0.261708 0.533108 0.610899
O O5 0.750000 0.750000 0.793134
O O6 0.920745 0.790860 0.874109
O O7 0.938192 0.697671 0.852432
O O8 0.000000 0.755020 0.750000
O O9 0.548915 0.334682 0.500000
O O10 0.396378 0.355506 0.392484
O O11 0.000000 0.359854 0.750000
O O12 0.861360 0.362768 0.872107
O O13 0.794733 0.061572 0.887811
O O14 0.747966 0.116336 0.000000
O O15 0.856347 0.987765 0.500000
O O16 0.000000 0.000000 0.385673
#
# Coordination Sequence:
#
# PCOD9496496 Si02
#       6
#    16  16  16  16  16  16
#     4  10  19  36  62  90 117 150 193 238 290 347
#     4  11  25  42  62  84 115 158 203 241 287 355
#     4  10  21  36  62  92 117 147 189 245 297 342
#     4  11  25  41  57  82 119 159 196 240 293 344
#     4  10  21  38  61  91 121 150 190 244 294 343
#     4   9  16  32  61  91 117 149 192 237 286 349
#
# _framework density 18.258790999999999
#
# number of rings (size 3 to 8) (size 9 to 14) (size 15 to 20)
#    0.000    1.833    3.333    0.500    4.667    2.333 
#    0.000    5.833    0.000    1.000    0.000    0.000 
#    0.000    0.000    0.000    0.000    0.000    0.000 
#
# Total GULP energy -267984.952557 kJ/mol
# GULP energy per Si atom -5583.019845 kJ/mol
# Density = 1.821723 g / cm^3
# Si number density = 18.258791 Si / 1000 Ang^3
#
#
#
# Elastic Constant Matrix: (Units=GPa)
#
#
# Indices 1 2 3 4 5 6 
#
# 1 141.8532 40.0432 34.2005 0.0000 0.0000 0.0000
# 2 40.0432 94.3736 21.3703 0.0000 0.0000 0.0000
# 3 34.2005 21.3703 16.3066 0.0000 0.0000 0.0000
# 4 0.0000 0.0000 0.0000 -149.6414 0.0000 0.0000
# 5 0.0000 0.0000 0.0000 0.0000 25.0970 0.0000
# 6 0.0000 0.0000 0.0000 0.0000 0.0000 32.0898
#
#
#
# Elastic Compliance Matrix: (Units=1/GPa)
#
#
# Indices 1 2 3 4 5 6 
#
# 1 0.014331 0.001032 -0.031409 0.000000 0.000000 0.000000
# 2 0.001032 0.015142 -0.022008 0.000000 0.000000 0.000000
# 3 -0.031409 -0.022008 0.156042 0.000000 0.000000 0.000000
# 4 0.000000 0.000000 0.000000 -0.006683 0.000000 0.000000
# 5 0.000000 0.000000 0.000000 0.000000 0.039845 0.000000
# 6 0.000000 0.000000 0.000000 0.000000 0.000000 0.031163
#
#
# Mechanical properties :
#
#
# Convention : Reuss Voigt Hill
#
# Bulk Modulus (GPa) = 12.38470 49.30681 30.84576
# Shear Modulus (GPa) = 13.10531 -8.02964 2.53783
#
# Velocity S-wave (km/s) = 2.68200 -2.09934 1.18023
# Velocity P-wave (km/s) = 4.04826 4.60291 4.33446
#
# Compressibility (1/GPa) = 0.08074477
#
# Stress axis : x y z
#
# Youngs Moduli (GPa) = 69.77921 66.04168 6.40854
#
# Poissons Ratio (x) = -0.06813 0.20128
# Poissons Ratio (y) = -0.07199 0.14104
# Poissons Ratio (z) = 2.19168 1.45343
#
# Static dielectric constant tensor:
#      x y z
#    x 1.618340 0.000000 0.000000 
#    y 0.000000 1.620510 0.000000 
#    z 0.000000 0.000000 1.607560 
# 
# From -- ./inp_files/47343.got.cif
#   From: 2010.05.17/outbox.cif.g08.bks.cpg/sg66_24_cif.got.tgz:47343.got - 2010.06.03 17:51:23.
