data_PCOD9496210
_publ_section_title
;
Structure prediction by ZEFSAII (Michael W. Deem and Ramdas Pophale) SiO2 
 PCOD9496210
Probable space group: C C C M
;
_chemical_formula_sum "Si O2"
_cell_formula_units_Z 96
_cell_length_a 10.115809
_cell_length_b 20.946682
_cell_length_c 23.789156
_cell_angle_alpha 90.000000
_cell_angle_beta 90.000000
_cell_angle_gamma 90.000000
_cell_volume 5040.746933
_symmetry_space_group_name_H-M "C C C M"
_symmetry_group_IT_number 66
_symmetry_cell_setting 'orthorhombic'
loop_
_space_group_symop_operation_xyz
x,y,z
-x,-y,z
x,-y,1/2-z
-x,y,1/2-z
-x,-y,-z
x,y,-z
-x,y,1/2+z
x,-y,1/2+z
1/2+x,1/2+y,z
1/2-x,1/2-y,z
1/2+x,1/2-y,1/2-z
1/2-x,1/2+y,1/2-z
1/2-x,1/2-y,-z
1/2+x,1/2+y,-z
1/2-x,1/2+y,1/2+z
1/2+x,1/2-y,1/2+z
loop_
_atom_site_type_symbol
_atom_site_label
_atom_site_fract_x
_atom_site_fract_y
_atom_site_fract_z
Si Si1 0.243181 0.320138 0.814735
Si Si2 0.521050 0.675037 0.624057
Si Si3 0.587210 0.324413 0.000000
Si Si4 0.109860 0.329443 0.500000
Si Si5 0.411703 0.555781 0.807121
Si Si6 0.360316 0.914198 0.779061
Si Si7 0.530158 0.177217 0.123913
O O1 0.250000 0.250000 0.787183
O O2 0.377572 0.328329 0.848154
O O3 0.213969 0.371782 0.767728
O O4 0.122931 0.320912 0.858528
O O5 0.518584 0.658317 0.558263
O O6 0.597551 0.620862 0.657944
O O7 0.574486 0.748019 0.628792
O O8 0.737140 0.349177 0.000000
O O9 0.598946 0.247544 0.000000
O O10 0.049140 0.347281 0.439676
O O11 0.500000 0.500000 0.835483
O O12 0.500000 0.567079 0.750000
O O13 0.256894 0.537890 0.798369
O O14 0.500000 0.933950 0.750000
O O15 0.401046 0.868799 0.831093
#
# Coordination Sequence:
#
# PCOD9496210 Si02
#       7
#    16  16   8   8  16  16  16
#     4   9  18  30  48  81 111 139 175 220 278 334
#     4  10  19  34  53  78 113 146 181 230 269 332
#     4   9  18  29  50  75 102 146 187 217 271 322
#     4   9  16  31  43  75 114 143 179 214 259 346
#     4  11  23  37  55  77 106 145 183 227 282 325
#     4  10  20  35  55  82 113 139 185 227 278 337
#     4   9  19  30  54  80 111 147 178 218 280 327
#
# _framework density 19.044796000000002
#
# number of rings (size 3 to 8) (size 9 to 14) (size 15 to 20)
#    0.000    2.333    1.667    1.000    2.333    2.667 
#    0.000    5.417    0.000    0.000    0.000    0.000 
#    0.000    5.667    0.000    0.000    0.000    0.000 
#
# Total GULP energy -267378.547992 kJ/mol
# GULP energy per Si atom -5570.386417 kJ/mol
# Density = 1.900145 g / cm^3
# Si number density = 19.044796 Si / 1000 Ang^3
#
#
#
# Elastic Constant Matrix: (Units=GPa)
#
#
# Indices 1 2 3 4 5 6 
#
# 1 113.6465 23.5214 14.3264 0.0000 0.0000 0.0000
# 2 23.5214 53.7326 28.6285 0.0000 0.0000 0.0000
# 3 14.3264 28.6285 108.1298 0.0000 0.0000 0.0000
# 4 0.0000 0.0000 0.0000 27.1065 0.0000 0.0000
# 5 0.0000 0.0000 0.0000 0.0000 16.9188 0.0000
# 6 0.0000 0.0000 0.0000 0.0000 0.0000 11.3777
#
#
#
# Elastic Compliance Matrix: (Units=1/GPa)
#
#
# Indices 1 2 3 4 5 6 
#
# 1 0.009679 -0.004137 -0.000187 0.000000 0.000000 0.000000
# 2 -0.004137 0.023436 -0.005657 0.000000 0.000000 0.000000
# 3 -0.000187 -0.005657 0.010771 0.000000 0.000000 0.000000
# 4 0.000000 0.000000 0.000000 0.036892 0.000000 0.000000
# 5 0.000000 0.000000 0.000000 0.000000 0.059106 0.000000
# 6 0.000000 0.000000 0.000000 0.000000 0.000000 0.087891
#
#
# Mechanical properties :
#
#
# Convention : Reuss Voigt Hill
#
# Bulk Modulus (GPa) = 41.80034 45.38461 43.59248
# Shear Modulus (GPa) = 19.55338 25.01611 22.28475
#
# Velocity S-wave (km/s) = 3.20770 3.62821 3.42442
# Velocity P-wave (km/s) = 5.97622 6.43693 6.21085
#
# Compressibility (1/GPa) = 0.02392325
#
# Stress axis : x y z
#
# Youngs Moduli (GPa) = 103.31538 42.67000 92.84551
#
# Poissons Ratio (x) = 0.17654 0.01736
# Poissons Ratio (y) = 0.42746 0.52520
# Poissons Ratio (z) = 0.01932 0.24137
#
# Static dielectric constant tensor:
#      x y z
#    x 1.700280 0.000000 0.000000 
#    y 0.000000 1.715910 0.000000 
#    z 0.000000 0.000000 1.647660 
# 
# From -- ./inp_files/55697.got.cif
#   From: 2010.05.17/outbox.cif.g08.bks.cpg/sg66_28_cif.got.tgz:55697.got - 2010.06.03 17:51:23.
