data_PCOD9496646
_publ_section_title
;
Structure prediction by ZEFSAII (Michael W. Deem and Ramdas Pophale) SiO2 
 PCOD9496646
Probable space group: C C C M
;
_chemical_formula_sum "Si O2"
_cell_formula_units_Z 96
_cell_length_a 26.620320
_cell_length_b 28.957903
_cell_length_c 9.637553
_cell_angle_alpha 90.000000
_cell_angle_beta 90.000000
_cell_angle_gamma 90.000000
_cell_volume 7429.287416
_symmetry_space_group_name_H-M "C C C M"
_symmetry_group_IT_number 66
_symmetry_cell_setting 'orthorhombic'
loop_
_space_group_symop_operation_xyz
x,y,z
-x,-y,z
x,-y,1/2-z
-x,y,1/2-z
-x,-y,-z
x,y,-z
-x,y,1/2+z
x,-y,1/2+z
1/2+x,1/2+y,z
1/2-x,1/2-y,z
1/2+x,1/2-y,1/2-z
1/2-x,1/2+y,1/2-z
1/2-x,1/2-y,-z
1/2+x,1/2+y,-z
1/2-x,1/2+y,1/2+z
1/2+x,1/2-y,1/2+z
loop_
_atom_site_type_symbol
_atom_site_label
_atom_site_fract_x
_atom_site_fract_y
_atom_site_fract_z
Si Si1 0.549290 0.644893 0.333961
Si Si2 0.248482 0.854782 0.836627
Si Si3 0.711911 0.455173 0.164575
Si Si4 0.698592 0.780431 0.159820
Si Si5 0.147195 0.205497 0.337440
Si Si6 0.592188 0.455125 0.835553
O O1 0.500000 0.658240 0.250000
O O2 0.540889 0.646221 0.500000
O O3 0.596431 0.678115 0.303919
O O4 0.564644 0.592262 0.297267
O O5 0.240467 0.908110 0.798038
O O6 0.287374 0.826692 0.742896
O O7 0.194288 0.829577 0.822262
O O8 0.261789 0.851727 0.000000
O O9 0.727810 0.500000 0.250000
O O10 0.652036 0.448313 0.188582
O O11 0.718107 0.462779 0.000000
O O12 0.750000 0.750000 0.160945
O O13 0.658432 0.749250 0.241172
O O14 0.685058 0.788781 0.000000
O O15 0.146067 0.219076 0.500000
O O16 0.575813 0.500000 0.750000
O O17 0.585324 0.463050 0.000000
#
# Coordination Sequence:
#
# PCOD9496646 Si02
#       6
#    16  16  16  16  16  16
#     4  10  20  32  44  57  74  97 129 166 204 244
#     4   9  15  26  43  58  74 100 129 154 186 233
#     4   9  16  26  40  57  76 100 130 161 194 232
#     4   9  17  26  38  60  82  95 115 152 194 231
#     4   9  16  29  44  55  72  99 127 156 191 237
#     4   9  17  30  43  55  71  94 127 166 205 242
#
# _framework density 12.921832
#
# number of rings (size 3 to 8) (size 9 to 14) (size 15 to 20)
#    0.000    2.833    1.667    0.500    0.000    4.333 
#    0.000    1.667    0.000    0.000    0.000    0.000 
#    0.000    0.000    0.000    0.000    0.000    0.833 
#
# Total GULP energy -267396.330769 kJ/mol
# GULP energy per Si atom -5570.756891 kJ/mol
# Density = 1.289242 g / cm^3
# Si number density = 12.921832 Si / 1000 Ang^3
#
#
#
# Elastic Constant Matrix: (Units=GPa)
#
#
# Indices 1 2 3 4 5 6 
#
# 1 50.0357 43.1331 41.2156 0.0000 0.0000 0.0000
# 2 43.1331 87.0681 60.1059 0.0000 0.0000 0.0000
# 3 41.2156 60.1059 60.3478 0.0000 0.0000 0.0000
# 4 0.0000 0.0000 0.0000 21.7426 0.0000 0.0000
# 5 0.0000 0.0000 0.0000 0.0000 13.1248 0.0000
# 6 0.0000 0.0000 0.0000 0.0000 0.0000 14.0793
#
#
#
# Elastic Compliance Matrix: (Units=1/GPa)
#
#
# Indices 1 2 3 4 5 6 
#
# 1 0.046025 -0.003524 -0.027924 0.000000 0.000000 0.000000
# 2 -0.003524 0.037030 -0.034475 0.000000 0.000000 0.000000
# 3 -0.027924 -0.034475 0.069979 0.000000 0.000000 0.000000
# 4 0.000000 0.000000 0.000000 0.045993 0.000000 0.000000
# 5 0.000000 0.000000 0.000000 0.000000 0.076192 0.000000
# 6 0.000000 0.000000 0.000000 0.000000 0.000000 0.071026
#
#
# Mechanical properties :
#
#
# Convention : Reuss Voigt Hill
#
# Bulk Modulus (GPa) = 47.19607 54.04008 50.61807
# Shear Modulus (GPa) = 10.30601 13.32247 11.81424
#
# Velocity S-wave (km/s) = 2.82718 3.21441 3.02700
# Velocity P-wave (km/s) = 6.87465 7.46245 7.17457
#
# Compressibility (1/GPa) = 0.02118821
#
# Stress axis : x y z
#
# Youngs Moduli (GPa) = 21.72729 27.00495 14.28999
#
# Poissons Ratio (x) = 0.09516 0.39904
# Poissons Ratio (y) = 0.07656 0.49265
# Poissons Ratio (z) = 0.60672 0.93100
#
# Static dielectric constant tensor:
#      x y z
#    x 1.395750 0.000000 0.000000 
#    y 0.000000 1.412010 0.000000 
#    z 0.000000 0.000000 1.428940 
# 
# From -- ./inp_files/9272.got.cif
#   From: 2010.05.17/outbox.cif.g08.bks.cpg/sg66_5_cif.got.tgz:9272.got - 2010.06.03 17:51:23.
