data_PCOD9496826
_publ_section_title
;
Structure prediction by ZEFSAII (Michael W. Deem and Ramdas Pophale) SiO2 
 PCOD9496826
Probable space group: C C C M
;
_chemical_formula_sum "Si O2"
_cell_formula_units_Z 112
_cell_length_a 29.005887
_cell_length_b 22.443295
_cell_length_c 7.365419
_cell_angle_alpha 90.000000
_cell_angle_beta 90.000000
_cell_angle_gamma 90.000000
_cell_volume 4794.797017
_symmetry_space_group_name_H-M "C C C M"
_symmetry_group_IT_number 66
_symmetry_cell_setting 'orthorhombic'
loop_
_space_group_symop_operation_xyz
x,y,z
-x,-y,z
x,-y,1/2-z
-x,y,1/2-z
-x,-y,-z
x,y,-z
-x,y,1/2+z
x,-y,1/2+z
1/2+x,1/2+y,z
1/2-x,1/2-y,z
1/2+x,1/2-y,1/2-z
1/2-x,1/2+y,1/2-z
1/2-x,1/2-y,-z
1/2+x,1/2+y,-z
1/2-x,1/2+y,1/2+z
1/2+x,1/2-y,1/2+z
loop_
_atom_site_type_symbol
_atom_site_label
_atom_site_fract_x
_atom_site_fract_y
_atom_site_fract_z
Si Si1 0.304657 0.618063 0.719708
Si Si2 0.604621 0.194381 0.721880
Si Si3 0.054191 0.186044 0.783266
Si Si4 0.606860 0.065959 0.283282
Si Si5 0.396797 0.433804 0.216778
Si Si6 0.197523 0.251064 0.218917
Si Si7 0.788205 0.433331 0.715726
O O1 0.301608 0.613225 0.500000
O O2 0.344055 0.573367 0.784421
O O3 0.321072 0.684918 0.757699
O O4 0.252635 0.608256 0.786540
O O5 0.603922 0.195616 0.500000
O O6 0.577242 0.252674 0.785248
O O7 0.586340 0.129278 0.779401
O O8 0.658418 0.202770 0.777391
O O9 0.074874 0.123324 0.714197
O O10 0.000000 0.187554 0.750000
O O11 0.062282 0.186223 0.000000
O O12 0.608753 0.069641 0.500000
O O13 0.586781 0.000000 0.250000
O O14 0.659772 0.066735 0.211734
O O15 0.415225 0.500000 0.250000
O O16 0.394974 0.427864 0.000000
O O17 0.250000 0.250000 0.286556
O O18 0.200776 0.258442 0.000000
O O19 0.770375 0.500000 0.750000
O O20 0.792403 0.422046 0.500000
#
# Coordination Sequence:
#
# PCOD9496826 Si02
#       7
#    16  16  16  16  16  16  16
#     4   9  15  25  40  64  98 131 165 205 248 290
#     4   9  16  30  50  73 102 132 164 206 253 297
#     4  10  21  38  58  78 101 130 167 213 261 306
#     4   9  17  29  47  73 103 134 166 200 241 290
#     4  10  20  34  52  74 102 133 166 209 257 302
#     4   9  14  21  40  70 100 129 163 206 250 291
#     4   9  16  25  39  63  96 132 167 199 234 283
#
# _framework density 23.358651999999999
#
# number of rings (size 3 to 8) (size 9 to 14) (size 15 to 20)
#    0.000    2.714    1.429    1.286    0.000    4.286 
#    0.000    2.143    0.000    0.429    0.000    3.000 
#    0.000    6.857    0.000    0.000    0.000    0.000 
#
# Total GULP energy -312357.967702 kJ/mol
# GULP energy per Si atom -5577.820852 kJ/mol
# Density = 2.330549 g / cm^3
# Si number density = 23.358652 Si / 1000 Ang^3
#
#
#
# Elastic Constant Matrix: (Units=GPa)
#
#
# Indices 1 2 3 4 5 6 
#
# 1 60.0488 40.0473 -1.6979 0.0000 0.0000 0.0000
# 2 40.0473 187.2316 5.4594 0.0000 0.0000 0.0000
# 3 -1.6979 5.4594 84.4313 0.0000 0.0000 0.0000
# 4 0.0000 0.0000 0.0000 11.0810 0.0000 0.0000
# 5 0.0000 0.0000 0.0000 0.0000 -3.1087 0.0000
# 6 0.0000 0.0000 0.0000 0.0000 0.0000 30.6452
#
#
#
# Elastic Compliance Matrix: (Units=1/GPa)
#
#
# Indices 1 2 3 4 5 6 
#
# 1 0.019461 -0.004182 0.000662 0.000000 0.000000 0.000000
# 2 -0.004182 0.006250 -0.000488 0.000000 0.000000 0.000000
# 3 0.000662 -0.000488 0.011889 0.000000 0.000000 0.000000
# 4 0.000000 0.000000 0.000000 0.090245 0.000000 0.000000
# 5 0.000000 0.000000 0.000000 0.000000 -0.321676 0.000000
# 6 0.000000 0.000000 0.000000 0.000000 0.000000 0.032632
#
#
# Mechanical properties :
#
#
# Convention : Reuss Voigt Hill
#
# Bulk Modulus (GPa) = 33.80352 46.59216 40.19784
# Shear Modulus (GPa) = -34.88609 26.91701 -3.98454
#
# Velocity S-wave (km/s) = -3.86877 3.39829 -1.30748
# Velocity P-wave (km/s) = 2.33529 5.94874 3.86872
#
# Compressibility (1/GPa) = 0.02958272
#
# Stress axis : x y z
#
# Youngs Moduli (GPa) = 51.38560 160.00863 84.11256
#
# Poissons Ratio (x) = 0.66912 -0.05566
# Poissons Ratio (y) = 0.21488 0.04106
# Poissons Ratio (z) = -0.03400 0.07812
#
# Static dielectric constant tensor:
#      x y z
#    x 1.838390 0.000000 0.000000 
#    y 0.000000 1.925200 0.000000 
#    z 0.000000 0.000000 1.948800 
# 
# From -- ./inp_files/20854.got.cif
#   From: 2010.05.17/outbox.cif.g08.bks.cpg/sg66_11_cif.got.tgz:20854.got - 2010.06.03 17:51:23.
