data_PCOD9496195
_publ_section_title
;
Structure prediction by ZEFSAII (Michael W. Deem and Ramdas Pophale) SiO2 
 PCOD9496195
Probable space group: C C C M
;
_chemical_formula_sum "Si O2"
_cell_formula_units_Z 88
_cell_length_a 12.020855
_cell_length_b 16.849911
_cell_length_c 23.529714
_cell_angle_alpha 90.000000
_cell_angle_beta 90.000000
_cell_angle_gamma 90.000000
_cell_volume 4765.951498
_symmetry_space_group_name_H-M "C C C M"
_symmetry_group_IT_number 66
_symmetry_cell_setting 'orthorhombic'
loop_
_space_group_symop_operation_xyz
x,y,z
-x,-y,z
x,-y,1/2-z
-x,y,1/2-z
-x,-y,-z
x,y,-z
-x,y,1/2+z
x,-y,1/2+z
1/2+x,1/2+y,z
1/2-x,1/2-y,z
1/2+x,1/2-y,1/2-z
1/2-x,1/2+y,1/2-z
1/2-x,1/2-y,-z
1/2+x,1/2+y,-z
1/2-x,1/2+y,1/2+z
1/2+x,1/2-y,1/2+z
loop_
_atom_site_type_symbol
_atom_site_label
_atom_site_fract_x
_atom_site_fract_y
_atom_site_fract_z
Si Si1 0.677358 0.053286 0.000000
Si Si2 0.872093 0.015325 0.682871
Si Si3 0.071009 0.742482 0.881698
Si Si4 0.840027 0.819047 0.124642
Si Si5 0.739934 0.370633 0.500000
Si Si6 0.744028 0.878360 0.378930
Si Si7 0.506383 0.828061 0.000000
O O1 0.724532 0.092632 0.056987
O O2 0.547899 0.083330 0.000000
O O3 0.719496 0.962573 0.000000
O O4 0.833263 0.102394 0.663194
O O5 0.872459 0.000000 0.750000
O O6 0.788511 0.951972 0.656101
O O7 0.000000 0.000000 0.662440
O O8 0.160929 0.811895 0.879916
O O9 0.131905 0.664699 0.856483
O O10 0.956784 0.778066 0.859398
O O11 0.039961 0.716447 0.945334
O O12 0.750000 0.750000 0.133404
O O13 0.825042 0.848411 0.058384
O O14 0.860112 0.327003 0.500000
#
# Coordination Sequence:
#
# PCOD9496195 Si02
#       7
#     8  16  16  16   8  16   8
#     4  10  20  32  57  92 121 164 202 251 303 373
#     4  11  24  45  66  88 120 159 211 262 310 366
#     4  10  20  35  60  88 125 160 202 245 307 371
#     4  12  23  40  61  97 128 164 205 256 311 371
#     4  12  21  33  59  89 131 170 204 245 310 377
#     4  10  20  39  61  90 122 160 201 254 312 369
#     4  10  19  34  51  88 134 169 202 236 310 374
#
# _framework density 18.464309
#
# number of rings (size 3 to 8) (size 9 to 14) (size 15 to 20)
#    0.000    1.273    5.455    1.636    0.000    2.182 
#    3.273    2.727    0.000    1.091    0.000    0.000 
#    0.000    0.000    0.000    0.000    0.000    0.000 
#
# Total GULP energy -245277.586836 kJ/mol
# GULP energy per Si atom -5574.490610 kJ/mol
# Density = 1.842228 g / cm^3
# Si number density = 18.464309 Si / 1000 Ang^3
#
#
#
# Elastic Constant Matrix: (Units=GPa)
#
#
# Indices 1 2 3 4 5 6 
#
# 1 100.5061 51.3748 28.0128 0.0000 0.0000 0.0000
# 2 51.3748 159.9259 41.4397 0.0000 0.0000 0.0000
# 3 28.0128 41.4397 59.4353 0.0000 0.0000 0.0000
# 4 0.0000 0.0000 0.0000 10.2327 0.0000 0.0000
# 5 0.0000 0.0000 0.0000 0.0000 38.4664 0.0000
# 6 0.0000 0.0000 0.0000 0.0000 0.0000 34.3342
#
#
#
# Elastic Compliance Matrix: (Units=1/GPa)
#
#
# Indices 1 2 3 4 5 6 
#
# 1 0.012568 -0.003054 -0.003794 0.000000 0.000000 0.000000
# 2 -0.003054 0.008374 -0.004399 0.000000 0.000000 0.000000
# 3 -0.003794 -0.004399 0.021680 0.000000 0.000000 0.000000
# 4 0.000000 0.000000 0.000000 0.097726 0.000000 0.000000
# 5 0.000000 0.000000 0.000000 0.000000 0.025997 0.000000
# 6 0.000000 0.000000 0.000000 0.000000 0.000000 0.029125
#
#
# Mechanical properties :
#
#
# Convention : Reuss Voigt Hill
#
# Bulk Modulus (GPa) = 49.68256 62.39135 56.03695
# Shear Modulus (GPa) = 22.25440 29.87599 26.06519
#
# Velocity S-wave (km/s) = 3.47546 4.02685 3.76127
# Velocity P-wave (km/s) = 6.56284 7.44878 7.01980
#
# Compressibility (1/GPa) = 0.02012779
#
# Stress axis : x y z
#
# Youngs Moduli (GPa) = 79.56455 119.41826 46.12490
#
# Poissons Ratio (x) = 0.36475 0.17500
# Poissons Ratio (y) = 0.24302 0.20290
# Poissons Ratio (z) = 0.30188 0.52531
#
# Static dielectric constant tensor:
#      x y z
#    x 1.667160 0.000000 0.000000 
#    y 0.000000 1.657320 0.000000 
#    z 0.000000 0.000000 1.598030 
# 
# From -- ./inp_files/48580.got.cif
#   From: 2010.05.17/outbox.cif.g08.bks.cpg/sg66_25_cif.got.tgz:48580.got - 2010.06.03 17:51:23.
