data_PCOD9496206
_publ_section_title
;
Structure prediction by ZEFSAII (Michael W. Deem and Ramdas Pophale) SiO2 
 PCOD9496206
Probable space group: C C C M
;
_chemical_formula_sum "Si O2"
_cell_formula_units_Z 96
_cell_length_a 19.167810
_cell_length_b 29.268460
_cell_length_c 9.225213
_cell_angle_alpha 90.000000
_cell_angle_beta 90.000000
_cell_angle_gamma 90.000000
_cell_volume 5175.457781
_symmetry_space_group_name_H-M "C C C M"
_symmetry_group_IT_number 66
_symmetry_cell_setting 'orthorhombic'
loop_
_space_group_symop_operation_xyz
x,y,z
-x,-y,z
x,-y,1/2-z
-x,y,1/2-z
-x,-y,-z
x,y,-z
-x,y,1/2+z
x,-y,1/2+z
1/2+x,1/2+y,z
1/2-x,1/2-y,z
1/2+x,1/2-y,1/2-z
1/2-x,1/2+y,1/2-z
1/2-x,1/2-y,-z
1/2+x,1/2+y,-z
1/2-x,1/2+y,1/2+z
1/2+x,1/2-y,1/2+z
loop_
_atom_site_type_symbol
_atom_site_label
_atom_site_fract_x
_atom_site_fract_y
_atom_site_fract_z
Si Si1 0.393185 0.953853 0.831240
Si Si2 0.775383 0.047313 0.169784
Si Si3 0.319537 0.351962 0.674453
Si Si4 0.935684 0.364036 0.330613
Si Si5 0.672251 0.807317 0.330367
Si Si6 0.926726 0.219820 0.171680
O O1 0.308978 0.948988 0.823521
O O2 0.426304 0.912672 0.744248
O O3 0.412255 0.000000 0.750000
O O4 0.413246 0.953739 0.000000
O O5 0.804649 0.096163 0.226611
O O6 0.795079 0.000000 0.250000
O O7 0.793971 0.042917 0.000000
O O8 0.325124 0.355748 0.500000
O O9 0.253659 0.317613 0.696198
O O10 0.389312 0.326665 0.726421
O O11 0.947696 0.366721 0.500000
O O12 0.866559 0.337839 0.286966
O O13 0.000000 0.340089 0.250000
O O14 0.659697 0.821837 0.500000
O O15 0.633641 0.758705 0.315367
O O16 0.000000 0.229232 0.250000
O O17 0.941027 0.216116 0.000000
#
# Coordination Sequence:
#
# PCOD9496206 Si02
#       6
#    16  16  16  16  16  16
#     4  10  19  34  53  75 103 138 179 229 280 331
#     4   9  17  31  54  81 111 139 176 223 273 327
#     4   9  17  34  59  85 109 145 188 227 270 331
#     4  12  24  36  51  73 104 145 187 229 277 329
#     4  10  19  36  58  81 107 141 187 233 274 324
#     4  10  21  36  58  83 113 148 185 227 279 336
#
# _framework density 18.549084000000001
#
# number of rings (size 3 to 8) (size 9 to 14) (size 15 to 20)
#    0.000    2.000    1.667    3.000    0.000    5.000 
#    0.000    3.333    0.000    2.500    0.000    3.500 
#    0.000    0.000    0.000    0.000    0.000    0.000 
#
# Total GULP energy -267545.658523 kJ/mol
# GULP energy per Si atom -5573.867886 kJ/mol
# Density = 1.850687 g / cm^3
# Si number density = 18.549084 Si / 1000 Ang^3
#
#
#
# Elastic Constant Matrix: (Units=GPa)
#
#
# Indices 1 2 3 4 5 6 
#
# 1 62.0441 52.2766 31.4795 0.0000 0.0000 0.0000
# 2 52.2766 110.9937 46.8680 0.0000 0.0000 0.0000
# 3 31.4795 46.8680 93.6148 0.0000 0.0000 0.0000
# 4 0.0000 0.0000 0.0000 18.3563 0.0000 0.0000
# 5 0.0000 0.0000 0.0000 0.0000 51.7395 0.0000
# 6 0.0000 0.0000 0.0000 0.0000 0.0000 -73.4916
#
#
#
# Elastic Compliance Matrix: (Units=1/GPa)
#
#
# Indices 1 2 3 4 5 6 
#
# 1 0.027606 -0.011517 -0.003517 0.000000 0.000000 0.000000
# 2 -0.011517 0.016229 -0.004252 0.000000 0.000000 0.000000
# 3 -0.003517 -0.004252 0.013994 0.000000 0.000000 0.000000
# 4 0.000000 0.000000 0.000000 0.054477 0.000000 0.000000
# 5 0.000000 0.000000 0.000000 0.000000 0.019328 0.000000
# 6 0.000000 0.000000 0.000000 0.000000 0.000000 -0.013607
#
#
# Mechanical properties :
#
#
# Convention : Reuss Voigt Hill
#
# Bulk Modulus (GPa) = 51.93126 58.65562 55.29344
# Shear Modulus (GPa) = 30.67141 8.38942 19.53041
#
# Velocity S-wave (km/s) = 4.07077 2.12900 3.24837
# Velocity P-wave (km/s) = 7.08183 6.14280 6.62896
#
# Compressibility (1/GPa) = 0.01925622
#
# Stress axis : x y z
#
# Youngs Moduli (GPa) = 36.22431 61.61636 71.46060
#
# Poissons Ratio (x) = 0.70963 0.25133
# Poissons Ratio (y) = 0.41719 0.30389
# Poissons Ratio (z) = 0.12740 0.26202
#
# Static dielectric constant tensor:
#      x y z
#    x 1.689710 0.000000 0.000000 
#    y 0.000000 2.053060 0.000000 
#    z 0.000000 0.000000 1.609770 
# 
# From -- ./inp_files/7944.got.cif
#   From: 2010.05.17/outbox.cif.g08.bks.cpg/sg66_4_cif.got.tgz:7944.got - 2010.06.03 17:51:23.
