data_PCOD9496470
_publ_section_title
;
Structure prediction by ZEFSAII (Michael W. Deem and Ramdas Pophale) SiO2 
 PCOD9496470
Probable space group: C C C M
;
_chemical_formula_sum "Si O2"
_cell_formula_units_Z 96
_cell_length_a 10.291450
_cell_length_b 28.915790
_cell_length_c 15.410955
_cell_angle_alpha 90.000000
_cell_angle_beta 90.000000
_cell_angle_gamma 90.000000
_cell_volume 4586.075316
_symmetry_space_group_name_H-M "C C C M"
_symmetry_group_IT_number 66
_symmetry_cell_setting 'orthorhombic'
loop_
_space_group_symop_operation_xyz
x,y,z
-x,-y,z
x,-y,1/2-z
-x,y,1/2-z
-x,-y,-z
x,y,-z
-x,y,1/2+z
x,-y,1/2+z
1/2+x,1/2+y,z
1/2-x,1/2-y,z
1/2+x,1/2-y,1/2-z
1/2-x,1/2+y,1/2-z
1/2-x,1/2-y,-z
1/2+x,1/2+y,-z
1/2-x,1/2+y,1/2+z
1/2+x,1/2-y,1/2+z
loop_
_atom_site_type_symbol
_atom_site_label
_atom_site_fract_x
_atom_site_fract_y
_atom_site_fract_z
Si Si1 0.013810 0.653744 0.646211
Si Si2 0.975937 0.851593 0.104151
Si Si3 0.755320 0.584708 0.896128
Si Si4 0.647814 0.988166 0.606467
Si Si5 0.098507 0.751399 0.669731
Si Si6 0.751110 0.889663 0.398033
O O1 0.113205 0.613441 0.620299
O O2 0.069309 0.703700 0.619025
O O3 0.000000 0.652710 0.750000
O O4 0.871311 0.644128 0.610104
O O5 0.117828 0.866691 0.138242
O O6 0.865636 0.886235 0.138836
O O7 0.934296 0.799298 0.123314
O O8 0.978792 0.855682 0.000000
O O9 0.768052 0.532213 0.865095
O O10 0.740853 0.581905 0.000000
O O11 0.646072 0.986324 0.500000
O O12 0.703751 0.939245 0.638517
O O13 0.500000 0.000000 0.632660
O O14 0.250000 0.750000 0.695403
O O15 0.000000 0.750523 0.750000
O O16 0.775237 0.897813 0.500000
#
# Coordination Sequence:
#
# PCOD9496470 Si02
#       6
#    16  16  16  16  16  16
#     4  11  23  37  58  85 111 150 197 236 287 342
#     4  10  23  38  59  89 119 150 188 243 295 334
#     4  10  19  36  59  85 116 151 191 234 285 343
#     4   9  16  30  57  86 113 152 192 229 281 345
#     4  11  25  42  62  84 115 155 197 236 286 352
#     4  10  21  38  58  86 120 151 188 237 289 341
#
# _framework density 20.932929999999999
#
# number of rings (size 3 to 8) (size 9 to 14) (size 15 to 20)
#    0.000    1.833    3.333    0.500    4.667    2.333 
#    0.000    6.667    0.000    0.000    0.000    3.500 
#    0.000    0.000    0.000    0.000    0.000    0.000 
#
# Total GULP energy -268000.461034 kJ/mol
# GULP energy per Si atom -5583.342938 kJ/mol
# Density = 2.088529 g / cm^3
# Si number density = 20.932930 Si / 1000 Ang^3
#
#
#
# Elastic Constant Matrix: (Units=GPa)
#
#
# Indices 1 2 3 4 5 6 
#
# 1 164.7187 59.0039 0.9658 0.0000 0.0000 0.0000
# 2 59.0039 138.2914 1.4304 0.0000 0.0000 0.0000
# 3 0.9658 1.4304 23.2413 0.0000 0.0000 0.0000
# 4 0.0000 0.0000 0.0000 53.4991 0.0000 0.0000
# 5 0.0000 0.0000 0.0000 0.0000 5.4909 0.0000
# 6 0.0000 0.0000 0.0000 0.0000 0.0000 78.0930
#
#
#
# Elastic Compliance Matrix: (Units=1/GPa)
#
#
# Indices 1 2 3 4 5 6 
#
# 1 0.007166 -0.003057 -0.000110 0.000000 0.000000 0.000000
# 2 -0.003057 0.008539 -0.000399 0.000000 0.000000 0.000000
# 3 -0.000110 -0.000399 0.043056 0.000000 0.000000 0.000000
# 4 0.000000 0.000000 0.000000 0.018692 0.000000 0.000000
# 5 0.000000 0.000000 0.000000 0.000000 0.182120 0.000000
# 6 0.000000 0.000000 0.000000 0.000000 0.000000 0.012805
#
#
# Mechanical properties :
#
#
# Convention : Reuss Voigt Hill
#
# Bulk Modulus (GPa) = 19.36774 49.89463 34.63119
# Shear Modulus (GPa) = 16.85093 45.07335 30.96214
#
# Velocity S-wave (km/s) = 2.84032 4.64532 3.85009
# Velocity P-wave (km/s) = 4.47537 7.25667 6.02861
#
# Compressibility (1/GPa) = 0.05163224
#
# Stress axis : x y z
#
# Youngs Moduli (GPa) = 139.53841 117.10494 23.22558
#
# Poissons Ratio (x) = 0.35794 0.00255
# Poissons Ratio (y) = 0.42651 0.00926
# Poissons Ratio (z) = 0.01531 0.04667
#
# Static dielectric constant tensor:
#      x y z
#    x 1.731230 0.000000 0.000000 
#    y 0.000000 1.773410 0.000000 
#    z 0.000000 0.000000 1.786710 
# 
# From -- ./inp_files/47279.got.cif
#   From: 2010.05.17/outbox.cif.g08.bks.cpg/sg66_24_cif.got.tgz:47279.got - 2010.06.03 17:51:23.
