data_PCOD9496048
_publ_section_title
;
Structure prediction by ZEFSAII (Michael W. Deem and Ramdas Pophale) SiO2 
 PCOD9496048
Probable space group: C C C M
;
_chemical_formula_sum "Si O2"
_cell_formula_units_Z 88
_cell_length_a 24.121255
_cell_length_b 9.808466
_cell_length_c 19.133653
_cell_angle_alpha 90.000000
_cell_angle_beta 90.000000
_cell_angle_gamma 90.000000
_cell_volume 4526.878980
_symmetry_space_group_name_H-M "C C C M"
_symmetry_group_IT_number 66
_symmetry_cell_setting 'orthorhombic'
loop_
_space_group_symop_operation_xyz
x,y,z
-x,-y,z
x,-y,1/2-z
-x,y,1/2-z
-x,-y,-z
x,y,-z
-x,y,1/2+z
x,-y,1/2+z
1/2+x,1/2+y,z
1/2-x,1/2-y,z
1/2+x,1/2-y,1/2-z
1/2-x,1/2+y,1/2-z
1/2-x,1/2-y,-z
1/2+x,1/2+y,-z
1/2-x,1/2+y,1/2+z
1/2+x,1/2-y,1/2+z
loop_
_atom_site_type_symbol
_atom_site_label
_atom_site_fract_x
_atom_site_fract_y
_atom_site_fract_z
Si Si1 0.685173 0.756339 0.500000
Si Si2 0.095201 0.778562 0.500000
Si Si3 0.523665 0.650736 0.500000
Si Si4 0.309822 0.073626 0.000000
Si Si5 0.889477 0.162461 0.123788
Si Si6 0.566644 0.163061 0.248345
Si Si7 0.750000 0.750000 0.883508
Si Si8 0.867068 0.137458 0.650314
O O1 0.750000 0.750000 0.500000
O O2 0.660824 0.690358 0.429550
O O3 0.675516 0.916937 0.500000
O O4 0.130753 0.643782 0.500000
O O5 0.115224 0.857006 0.568740
O O6 0.030021 0.754357 0.500000
O O7 0.500000 0.500000 0.500000
O O8 0.559334 0.662225 0.430242
O O9 0.275556 0.131890 0.933672
O O10 0.903945 0.278660 0.179132
O O11 0.878949 0.021436 0.165647
O O12 0.500000 0.187349 0.250000
O O13 0.595013 0.252319 0.309780
O O14 0.575316 0.000000 0.250000
O O15 0.802786 0.815169 0.843664
#
# Coordination Sequence:
#
# PCOD9496048 Si02
#       8
#     8   8   8   8  16  16   8  16
#     4  11  23  42  67  96 138 164 215 279 339 396
#     4  10  19  32  65  94 124 168 207 272 318 377
#     4  11  19  37  64 102 130 159 217 281 319 376
#     4   9  19  35  60  95 132 170 202 262 337 388
#     4  11  24  40  66 100 127 173 222 263 333 394
#     4  11  27  46  63  91 135 179 219 271 330 397
#     4   9  20  36  64  96 126 163 214 264 326 389
#     4  11  21  41  66  95 130 166 221 264 325 391
#
# _framework density 19.439440999999999
#
# number of rings (size 3 to 8) (size 9 to 14) (size 15 to 20)
#    0.000    1.455    1.818    3.818    5.091    0.727 
#    1.636    0.909    0.000    0.000    0.000    0.000 
#    0.000    0.000    0.000    0.000    0.000    0.000 
#
# Total GULP energy -245476.576876 kJ/mol
# GULP energy per Si atom -5579.013111 kJ/mol
# Density = 1.939520 g / cm^3
# Si number density = 19.439441 Si / 1000 Ang^3
#
#
#
# Elastic Constant Matrix: (Units=GPa)
#
#
# Indices 1 2 3 4 5 6 
#
# 1 162.7240 53.5269 37.9370 0.0000 0.0000 0.0000
# 2 53.5269 134.6742 40.4099 0.0000 0.0000 0.0000
# 3 37.9370 40.4099 95.2241 0.0000 0.0000 0.0000
# 4 0.0000 0.0000 0.0000 33.6194 0.0000 0.0000
# 5 0.0000 0.0000 0.0000 0.0000 37.1460 0.0000
# 6 0.0000 0.0000 0.0000 0.0000 0.0000 27.9569
#
#
#
# Elastic Compliance Matrix: (Units=1/GPa)
#
#
# Indices 1 2 3 4 5 6 
#
# 1 0.007370 -0.002347 -0.001940 0.000000 0.000000 0.000000
# 2 -0.002347 0.009256 -0.002993 0.000000 0.000000 0.000000
# 3 -0.001940 -0.002993 0.012545 0.000000 0.000000 0.000000
# 4 0.000000 0.000000 0.000000 0.029745 0.000000 0.000000
# 5 0.000000 0.000000 0.000000 0.000000 0.026921 0.000000
# 6 0.000000 0.000000 0.000000 0.000000 0.000000 0.035769
#
#
# Mechanical properties :
#
#
# Convention : Reuss Voigt Hill
#
# Bulk Modulus (GPa) = 68.44450 72.92999 70.68724
# Shear Modulus (GPa) = 35.45205 37.12771 36.28988
#
# Velocity S-wave (km/s) = 4.27513 4.37500 4.32536
# Velocity P-wave (km/s) = 7.72364 7.94473 7.83496
#
# Compressibility (1/GPa) = 0.01461038
#
# Stress axis : x y z
#
# Youngs Moduli (GPa) = 135.69068 108.03553 79.71560
#
# Poissons Ratio (x) = 0.25356 0.15465
# Poissons Ratio (y) = 0.31846 0.23859
# Poissons Ratio (z) = 0.26325 0.32335
#
# Static dielectric constant tensor:
#      x y z
#    x 1.781600 0.000000 0.000000 
#    y 0.000000 1.671670 0.000000 
#    z 0.000000 0.000000 1.763680 
# 
# From -- ./inp_files/52480.got.cif
#   From: 2010.05.17/outbox.cif.g08.bks.cpg/sg66_27_cif.got.tgz:52480.got - 2010.06.03 17:51:23.
