data_PCOD9497558
_publ_section_title
;
Structure prediction by ZEFSAII (Michael W. Deem and Ramdas Pophale) SiO2 
 PCOD9497558
Probable space group: C C C M
;
_chemical_formula_sum "Si O2"
_cell_formula_units_Z 112
_cell_length_a 11.105806
_cell_length_b 22.685582
_cell_length_c 23.697673
_cell_angle_alpha 90.000000
_cell_angle_beta 90.000000
_cell_angle_gamma 90.000000
_cell_volume 5970.431374
_symmetry_space_group_name_H-M "C C C M"
_symmetry_group_IT_number 66
_symmetry_cell_setting 'orthorhombic'
loop_
_space_group_symop_operation_xyz
x,y,z
-x,-y,z
x,-y,1/2-z
-x,y,1/2-z
-x,-y,-z
x,y,-z
-x,y,1/2+z
x,-y,1/2+z
1/2+x,1/2+y,z
1/2-x,1/2-y,z
1/2+x,1/2-y,1/2-z
1/2-x,1/2+y,1/2-z
1/2-x,1/2-y,-z
1/2+x,1/2+y,-z
1/2-x,1/2+y,1/2+z
1/2+x,1/2-y,1/2+z
loop_
_atom_site_type_symbol
_atom_site_label
_atom_site_fract_x
_atom_site_fract_y
_atom_site_fract_z
Si Si1 0.176883 0.868546 0.353215
Si Si2 0.360373 0.702841 0.239036
Si Si3 0.388095 0.798920 0.935516
Si Si4 0.039145 0.170645 0.434793
Si Si5 0.145145 0.999565 0.317102
Si Si6 0.782384 0.878430 0.365467
Si Si7 0.825537 0.310800 0.561178
O O1 0.162529 0.838572 0.292835
O O2 0.295757 0.848784 0.384930
O O3 0.073161 0.841869 0.394261
O O4 0.178967 0.937978 0.345255
O O5 0.500000 0.724792 0.250000
O O6 0.250000 0.750000 0.237033
O O7 0.345675 0.661935 0.183335
O O8 0.379726 0.729067 0.921922
O O9 0.333929 0.843684 0.889502
O O10 0.532599 0.801895 0.938252
O O11 0.343080 0.809868 0.000000
O O12 0.003748 0.174333 0.500000
O O13 0.130086 0.118770 0.419660
O O14 0.216876 0.055689 0.341451
O O15 0.165963 0.000000 0.250000
O O16 0.000000 0.000000 0.324970
O O17 0.793170 0.337413 0.500000
O O18 0.750000 0.250000 0.565215
#
# Coordination Sequence:
#
# PCOD9497558 Si02
#       7
#    16  16  16  16  16  16  16
#     4  12  22  38  63  92 123 162 213 261 313 379
#     4  12  25  39  61  95 130 164 207 268 335 386
#     4  10  22  40  64  95 132 168 201 257 329 389
#     4  11  21  36  61  93 127 158 200 258 321 381
#     4  11  22  42  63  84 120 171 218 263 316 375
#     4  12  23  40  63  90 126 168 214 255 327 384
#     4  10  20  38  64  93 127 166 205 252 316 386
#
# _framework density 18.759114
#
# number of rings (size 3 to 8) (size 9 to 14) (size 15 to 20)
#    0.000    0.857    5.714    2.571    0.000    1.143 
#    0.000    4.286    0.000    2.571    0.000    0.000 
#    0.000    0.000    0.000    0.000    0.000    0.000 
#
# Total GULP energy -312069.610656 kJ/mol
# GULP energy per Si atom -5572.671619 kJ/mol
# Density = 1.871642 g / cm^3
# Si number density = 18.759114 Si / 1000 Ang^3
#
#
#
# Elastic Constant Matrix: (Units=GPa)
#
#
# Indices 1 2 3 4 5 6 
#
# 1 74.7057 35.9490 33.2848 0.0000 0.0000 0.0000
# 2 35.9490 115.4741 59.5711 0.0000 0.0000 0.0000
# 3 33.2848 59.5711 120.1604 0.0000 0.0000 0.0000
# 4 0.0000 0.0000 0.0000 37.2955 0.0000 0.0000
# 5 0.0000 0.0000 0.0000 0.0000 33.7191 0.0000
# 6 0.0000 0.0000 0.0000 0.0000 0.0000 18.6605
#
#
#
# Elastic Compliance Matrix: (Units=1/GPa)
#
#
# Indices 1 2 3 4 5 6 
#
# 1 0.016371 -0.003705 -0.002698 0.000000 0.000000 0.000000
# 2 -0.003705 0.012474 -0.005158 0.000000 0.000000 0.000000
# 3 -0.002698 -0.005158 0.011627 0.000000 0.000000 0.000000
# 4 0.000000 0.000000 0.000000 0.026813 0.000000 0.000000
# 5 0.000000 0.000000 0.000000 0.000000 0.029657 0.000000
# 6 0.000000 0.000000 0.000000 0.000000 0.000000 0.053589
#
#
# Mechanical properties :
#
#
# Convention : Reuss Voigt Hill
#
# Bulk Modulus (GPa) = 57.63646 63.10555 60.37100
# Shear Modulus (GPa) = 27.86520 30.03738 28.95129
#
# Velocity S-wave (km/s) = 3.85830 4.00586 3.93277
# Velocity P-wave (km/s) = 7.11617 7.42353 7.27147
#
# Compressibility (1/GPa) = 0.01735013
#
# Stress axis : x y z
#
# Youngs Moduli (GPa) = 61.08490 80.16553 86.00826
#
# Poissons Ratio (x) = 0.29698 0.23206
# Poissons Ratio (y) = 0.22629 0.44364
# Poissons Ratio (z) = 0.16482 0.41350
#
# Static dielectric constant tensor:
#      x y z
#    x 1.851170 0.000000 0.000000 
#    y 0.000000 1.789070 0.000000 
#    z 0.000000 0.000000 1.661430 
# 
# From -- ./inp_files/57161.got.cif
#   From: 2010.05.17/outbox.cif.g08.bks.cpg/sg66_29_cif.got.tgz:57161.got - 2010.06.03 17:51:23.
