data_PCOD9497691
_publ_section_title
;
Structure prediction by ZEFSAII (Michael W. Deem and Ramdas Pophale) SiO2 
 PCOD9497691
Probable space group: C C C M
;
_chemical_formula_sum "Si O2"
_cell_formula_units_Z 112
_cell_length_a 36.602392
_cell_length_b 10.776925
_cell_length_c 14.260300
_cell_angle_alpha 90.000000
_cell_angle_beta 90.000000
_cell_angle_gamma 90.000000
_cell_volume 5625.135527
_symmetry_space_group_name_H-M "C C C M"
_symmetry_group_IT_number 66
_symmetry_cell_setting 'orthorhombic'
loop_
_space_group_symop_operation_xyz
x,y,z
-x,-y,z
x,-y,1/2-z
-x,y,1/2-z
-x,-y,-z
x,y,-z
-x,y,1/2+z
x,-y,1/2+z
1/2+x,1/2+y,z
1/2-x,1/2-y,z
1/2+x,1/2-y,1/2-z
1/2-x,1/2+y,1/2-z
1/2-x,1/2-y,-z
1/2+x,1/2+y,-z
1/2-x,1/2+y,1/2+z
1/2+x,1/2-y,1/2+z
loop_
_atom_site_type_symbol
_atom_site_label
_atom_site_fract_x
_atom_site_fract_y
_atom_site_fract_z
Si Si1 0.394998 0.088785 0.612690
Si Si2 0.606172 0.540194 0.888455
Si Si3 0.022635 0.611177 0.846089
Si Si4 0.790845 0.297914 0.253641
Si Si5 0.136476 0.827426 0.780768
Si Si6 0.817826 0.505853 0.110219
Si Si7 0.530432 0.404808 0.888744
O O1 0.398429 0.107108 0.500000
O O2 0.435424 0.064756 0.651622
O O3 0.380243 0.212008 0.662971
O O4 0.361857 0.991738 0.628778
O O5 0.635986 0.441442 0.853508
O O6 0.612664 0.649875 0.813870
O O7 0.569254 0.464769 0.863291
O O8 0.606935 0.568685 0.000000
O O9 0.025166 0.757495 0.873143
O O10 0.000000 0.500000 0.897359
O O11 0.000000 0.620474 0.750000
O O12 0.750000 0.250000 0.247313
O O13 0.822029 0.195074 0.248141
O O14 0.800738 0.392730 0.169180
O O15 0.798667 0.373335 0.348796
O O16 0.812935 0.489005 0.000000
O O17 0.500000 0.500000 0.851252
O O18 0.529368 0.415607 0.000000
#
# Coordination Sequence:
#
# PCOD9497691 Si02
#       7
#    16  16  16  16  16  16  16
#     4  10  20  41  65  85 119 165 220 271 312 379
#     4  10  21  38  59  90 124 161 213 264 312 376
#     4  11  25  38  59  92 126 164 218 274 332 386
#     4  10  22  40  61  93 133 158 202 264 325 390
#     4  10  21  36  63  88 115 168 206 251 320 383
#     4   9  21  41  66  90 119 171 218 256 320 390
#     4  10  22  40  60  86 124 168 211 263 325 385
#
# _framework density 19.910630999999999
#
# number of rings (size 3 to 8) (size 9 to 14) (size 15 to 20)
#    0.000    2.000    1.429    0.857    2.000   10.000 
#    0.000    1.429    0.000    0.000    0.000    0.000 
#    0.000    0.000    0.000    0.000    0.000    0.000 
#
# Total GULP energy -311899.362216 kJ/mol
# GULP energy per Si atom -5569.631468 kJ/mol
# Density = 1.986531 g / cm^3
# Si number density = 19.910631 Si / 1000 Ang^3
#
#
#
# Elastic Constant Matrix: (Units=GPa)
#
#
# Indices 1 2 3 4 5 6 
#
# 1 163.9255 62.5161 43.0489 0.0000 0.0000 0.0000
# 2 62.5161 57.4799 10.3911 0.0000 0.0000 0.0000
# 3 43.0489 10.3911 117.2602 0.0000 0.0000 0.0000
# 4 0.0000 0.0000 0.0000 17.4505 0.0000 0.0000
# 5 0.0000 0.0000 0.0000 0.0000 -252.0529 0.0000
# 6 0.0000 0.0000 0.0000 0.0000 0.0000 30.1293
#
#
#
# Elastic Compliance Matrix: (Units=1/GPa)
#
#
# Indices 1 2 3 4 5 6 
#
# 1 0.011468 -0.011903 -0.003156 0.000000 0.000000 0.000000
# 2 -0.011903 0.030034 0.001708 0.000000 0.000000 0.000000
# 3 -0.003156 0.001708 0.009535 0.000000 0.000000 0.000000
# 4 0.000000 0.000000 0.000000 0.057305 0.000000 0.000000
# 5 0.000000 0.000000 0.000000 0.000000 -0.003967 0.000000
# 6 0.000000 0.000000 0.000000 0.000000 0.000000 0.033190
#
#
# Mechanical properties :
#
#
# Convention : Reuss Voigt Hill
#
# Bulk Modulus (GPa) = 41.08857 63.39752 52.24305
# Shear Modulus (GPa) = 29.00607 -26.04731 1.47938
#
# Velocity S-wave (km/s) = 3.82096 -3.62084 0.86292
# Velocity P-wave (km/s) = 6.33622 3.79862 5.22385
#
# Compressibility (1/GPa) = 0.02433767
#
# Stress axis : x y z
#
# Youngs Moduli (GPa) = 87.19671 33.29547 104.87543
#
# Poissons Ratio (x) = 0.39631 0.33094
# Poissons Ratio (y) = 1.03788 -0.17915
# Poissons Ratio (z) = 0.27515 -0.05688
#
# Static dielectric constant tensor:
#      x y z
#    x 1.738970 0.000000 0.000000 
#    y 0.000000 1.771630 0.000000 
#    z 0.000000 0.000000 1.727300 
# 
# From -- ./inp_files/33847.got.cif
#   From: 2010.05.17/outbox.cif.g08.bks.cpg/sg66_17_cif.got.tgz:33847.got - 2010.06.03 17:51:23.
