data_PCOD9497124
_publ_section_title
;
Structure prediction by ZEFSAII (Michael W. Deem and Ramdas Pophale) SiO2 
 PCOD9497124
Probable space group: C C C M
;
_chemical_formula_sum "Si O2"
_cell_formula_units_Z 116
_cell_length_a 9.172981
_cell_length_b 25.349115
_cell_length_c 23.885148
_cell_angle_alpha 90.000000
_cell_angle_beta 90.000000
_cell_angle_gamma 90.000000
_cell_volume 5553.940621
_symmetry_space_group_name_H-M "C C C M"
_symmetry_group_IT_number 66
_symmetry_cell_setting 'orthorhombic'
loop_
_space_group_symop_operation_xyz
x,y,z
-x,-y,z
x,-y,1/2-z
-x,y,1/2-z
-x,-y,-z
x,y,-z
-x,y,1/2+z
x,-y,1/2+z
1/2+x,1/2+y,z
1/2-x,1/2-y,z
1/2+x,1/2-y,1/2-z
1/2-x,1/2+y,1/2-z
1/2-x,1/2-y,-z
1/2+x,1/2+y,-z
1/2-x,1/2+y,1/2+z
1/2+x,1/2-y,1/2+z
loop_
_atom_site_type_symbol
_atom_site_label
_atom_site_fract_x
_atom_site_fract_y
_atom_site_fract_z
Si Si1 0.314376 0.100246 0.933788
Si Si2 0.000000 0.000000 0.250000
Si Si3 0.325332 0.580337 0.827753
Si Si4 0.966501 0.839306 0.114068
Si Si5 0.748347 0.312853 0.941322
Si Si6 0.581472 0.244359 0.695075
Si Si7 0.671470 0.514338 0.437791
Si Si8 0.553503 0.138006 0.847356
O O1 0.181859 0.136263 0.909842
O O2 0.445724 0.107261 0.889557
O O3 0.259197 0.039994 0.932421
O O4 0.343752 0.112773 0.000000
O O5 0.895874 0.963005 0.287482
O O6 0.453129 0.622845 0.840644
O O7 0.292782 0.553418 0.887851
O O8 0.168596 0.604621 0.809930
O O9 0.948403 0.782294 0.142456
O O10 0.084184 0.833090 0.065070
O O11 0.750000 0.250000 0.940881
O O12 0.836365 0.331859 0.888509
O O13 0.813377 0.331365 0.000000
O O14 0.500000 0.264074 0.750000
O O15 0.750000 0.250000 0.707199
O O16 0.535094 0.184103 0.683578
O O17 0.500000 0.500000 0.433565
O O18 0.697413 0.536613 0.500000
#
# Coordination Sequence:
#
# PCOD9497124 Si02
#       8
#    16   4  16  16  16  16  16  16
#     4  11  22  40  69 101 139 179 222 271 346 413
#     4  12  24  48  70 110 124 188 234 286 360 402
#     4  11  25  42  74  97 139 169 231 285 338 416
#     4  11  22  41  66  97 131 176 224 275 325 405
#     4  10  20  35  60  92 133 172 209 255 316 394
#     4  12  28  46  69  92 130 178 232 286 335 405
#     4  10  20  40  67  99 132 176 228 278 327 403
#     4  11  25  45  63 103 137 175 216 282 337 400
#
# _framework density 20.886071000000001
#
# number of rings (size 3 to 8) (size 9 to 14) (size 15 to 20)
#    0.000    1.103    4.828    0.828    4.828    3.310 
#    2.483    2.069    0.000    0.828    0.000    0.000 
#    0.000    0.000    0.000    0.000    0.000    0.000 
#
# Total GULP energy -323966.402554 kJ/mol
# GULP energy per Si atom -5585.627630 kJ/mol
# Density = 2.083853 g / cm^3
# Si number density = 20.886071 Si / 1000 Ang^3
#
#
#
# Elastic Constant Matrix: (Units=GPa)
#
#
# Indices 1 2 3 4 5 6 
#
# 1 125.2028 39.6590 30.3137 0.0000 0.0000 0.0000
# 2 39.6590 91.4101 27.9551 0.0000 0.0000 0.0000
# 3 30.3137 27.9551 62.4120 0.0000 0.0000 0.0000
# 4 0.0000 0.0000 0.0000 11.9514 0.0000 0.0000
# 5 0.0000 0.0000 0.0000 0.0000 2.0075 0.0000
# 6 0.0000 0.0000 0.0000 0.0000 0.0000 35.1892
#
#
#
# Elastic Compliance Matrix: (Units=1/GPa)
#
#
# Indices 1 2 3 4 5 6 
#
# 1 0.009818 -0.003246 -0.003315 0.000000 0.000000 0.000000
# 2 -0.003246 0.013749 -0.004582 0.000000 0.000000 0.000000
# 3 -0.003315 -0.004582 0.019685 0.000000 0.000000 0.000000
# 4 0.000000 0.000000 0.000000 0.083672 0.000000 0.000000
# 5 0.000000 0.000000 0.000000 0.000000 0.498143 0.000000
# 6 0.000000 0.000000 0.000000 0.000000 0.000000 0.028418
#
#
# Mechanical properties :
#
#
# Convention : Reuss Voigt Hill
#
# Bulk Modulus (GPa) = 47.69420 52.76450 50.22935
# Shear Modulus (GPa) = 7.32323 21.90275 14.61299
#
# Velocity S-wave (km/s) = 1.87454 3.24184 2.64796
# Velocity P-wave (km/s) = 5.25073 6.27141 5.78363
#
# Compressibility (1/GPa) = 0.02096691
#
# Stress axis : x y z
#
# Youngs Moduli (GPa) = 101.85670 72.73166 50.80063
#
# Poissons Ratio (x) = 0.23607 0.16839
# Poissons Ratio (y) = 0.33061 0.23276
# Poissons Ratio (z) = 0.33762 0.33325
#
# Static dielectric constant tensor:
#      x y z
#    x 1.681230 0.000000 0.000000 
#    y 0.000000 1.768150 0.000000 
#    z 0.000000 0.000000 1.767570 
# 
# From -- ./inp_files/62897.got.cif
#   From: 2010.05.17/outbox.cif.g08.bks.cpg/sg66_32_cif.got.tgz:62897.got - 2010.06.03 17:51:23.
