data_PCOD9497134
_publ_section_title
;
Structure prediction by ZEFSAII (Michael W. Deem and Ramdas Pophale) SiO2 
 PCOD9497134
Probable space group: C C C M
;
_chemical_formula_sum "Si O2"
_cell_formula_units_Z 80
_cell_length_a 25.509171
_cell_length_b 11.956021
_cell_length_c 14.136440
_cell_angle_alpha 90.000000
_cell_angle_beta 90.000000
_cell_angle_gamma 90.000000
_cell_volume 4311.447166
_symmetry_space_group_name_H-M "C C C M"
_symmetry_group_IT_number 66
_symmetry_cell_setting 'orthorhombic'
loop_
_space_group_symop_operation_xyz
x,y,z
-x,-y,z
x,-y,1/2-z
-x,y,1/2-z
-x,-y,-z
x,y,-z
-x,y,1/2+z
x,-y,1/2+z
1/2+x,1/2+y,z
1/2-x,1/2-y,z
1/2+x,1/2-y,1/2-z
1/2-x,1/2+y,1/2-z
1/2-x,1/2-y,-z
1/2+x,1/2+y,-z
1/2-x,1/2+y,1/2+z
1/2+x,1/2-y,1/2+z
loop_
_atom_site_type_symbol
_atom_site_label
_atom_site_fract_x
_atom_site_fract_y
_atom_site_fract_z
Si Si1 0.874713 0.226973 0.896495
Si Si2 0.562597 0.630254 0.235602
Si Si3 0.340900 0.297132 0.887533
Si Si4 0.711596 0.461941 0.893495
Si Si5 0.307085 0.878662 0.227105
O O1 0.918707 0.207225 0.820921
O O2 0.839748 0.114786 0.896016
O O3 0.837102 0.322678 0.859347
O O4 0.895256 0.248294 0.000000
O O5 0.577510 0.500000 0.250000
O O6 0.500000 0.632910 0.250000
O O7 0.599489 0.674126 0.148621
O O8 0.306880 0.411144 0.875664
O O9 0.315653 0.202940 0.817755
O O10 0.340148 0.268731 0.000000
O O11 0.749881 0.406907 0.816353
O O12 0.735184 0.457906 0.000000
O O13 0.330070 0.000000 0.250000
#
# Coordination Sequence:
#
# PCOD9497134 Si02
#       5
#    16  16  16  16  16
#     4  10  21  38  58  83 116 154 196 241 290 349
#     4  10  20  35  62  94 122 152 189 242 307 363
#     4  10  23  42  61  87 126 161 196 246 302 357
#     4  10  21  37  58  84 115 158 200 238 291 350
#     4  11  25  35  59  84 119 160 204 245 288 344
#
# _framework density 18.555254999999999
#
# number of rings (size 3 to 8) (size 9 to 14) (size 15 to 20)
#    0.000    1.800    2.000    1.200    8.400    4.000 
#    0.000    4.000    0.000    9.600    0.000   11.200 
#    0.000    0.000    0.000    0.000    0.000    0.000 
#
# Total GULP energy -222852.396823 kJ/mol
# GULP energy per Si atom -5571.309921 kJ/mol
# Density = 1.851302 g / cm^3
# Si number density = 18.555255 Si / 1000 Ang^3
#
#
#
# Elastic Constant Matrix: (Units=GPa)
#
#
# Indices 1 2 3 4 5 6 
#
# 1 68.0824 10.3678 33.2124 0.0000 0.0000 0.0000
# 2 10.3678 83.1665 19.0842 0.0000 0.0000 0.0000
# 3 33.2124 19.0842 108.6021 0.0000 0.0000 0.0000
# 4 0.0000 0.0000 0.0000 9.9575 0.0000 0.0000
# 5 0.0000 0.0000 0.0000 0.0000 4.3804 0.0000
# 6 0.0000 0.0000 0.0000 0.0000 0.0000 295.7851
#
#
#
# Elastic Compliance Matrix: (Units=1/GPa)
#
#
# Indices 1 2 3 4 5 6 
#
# 1 0.017341 -0.000985 -0.005130 0.000000 0.000000 0.000000
# 2 -0.000985 0.012585 -0.001910 0.000000 0.000000 0.000000
# 3 -0.005130 -0.001910 0.011113 0.000000 0.000000 0.000000
# 4 0.000000 0.000000 0.000000 0.100427 0.000000 0.000000
# 5 0.000000 0.000000 0.000000 0.000000 0.228289 0.000000
# 6 0.000000 0.000000 0.000000 0.000000 0.000000 0.003381
#
#
# Mechanical properties :
#
#
# Convention : Reuss Voigt Hill
#
# Bulk Modulus (GPa) = 40.01891 42.79777 41.40834
# Shear Modulus (GPa) = 12.57816 75.17037 43.87427
#
# Velocity S-wave (km/s) = 2.60643 6.37178 4.86791
# Velocity P-wave (km/s) = 5.53825 8.78908 7.34575
#
# Compressibility (1/GPa) = 0.02498819
#
# Stress axis : x y z
#
# Youngs Moduli (GPa) = 57.66818 79.45835 89.98872
#
# Poissons Ratio (x) = 0.07823 0.46165
# Poissons Ratio (y) = 0.05678 0.17192
# Poissons Ratio (z) = 0.29584 0.15180
#
# Static dielectric constant tensor:
#      x y z
#    x 1.685890 0.000000 0.000000 
#    y 0.000000 1.654840 0.000000 
#    z 0.000000 0.000000 1.699580 
# 
# From -- ./inp_files/32079.got.cif
#   From: 2010.05.17/outbox.cif.g08.bks.cpg/sg66_17_cif.got.tgz:32079.got - 2010.06.03 17:51:23.
