data_PCOD9497227
_publ_section_title
;
Structure prediction by ZEFSAII (Michael W. Deem and Ramdas Pophale) SiO2 
 PCOD9497227
Probable space group: C C C M
;
_chemical_formula_sum "Si O2"
_cell_formula_units_Z 72
_cell_length_a 21.561586
_cell_length_b 8.799836
_cell_length_c 21.459589
_cell_angle_alpha 90.000000
_cell_angle_beta 90.000000
_cell_angle_gamma 90.000000
_cell_volume 4071.708526
_symmetry_space_group_name_H-M "C C C M"
_symmetry_group_IT_number 66
_symmetry_cell_setting 'orthorhombic'
loop_
_space_group_symop_operation_xyz
x,y,z
-x,-y,z
x,-y,1/2-z
-x,y,1/2-z
-x,-y,-z
x,y,-z
-x,y,1/2+z
x,-y,1/2+z
1/2+x,1/2+y,z
1/2-x,1/2-y,z
1/2+x,1/2-y,1/2-z
1/2-x,1/2+y,1/2-z
1/2-x,1/2-y,-z
1/2+x,1/2+y,-z
1/2-x,1/2+y,1/2+z
1/2+x,1/2-y,1/2+z
loop_
_atom_site_type_symbol
_atom_site_label
_atom_site_fract_x
_atom_site_fract_y
_atom_site_fract_z
Si Si1 0.500000 0.000000 0.900376
Si Si2 0.530618 0.254211 0.000000
Si Si3 0.184586 0.165247 0.883086
Si Si4 0.261280 0.075525 0.682080
Si Si5 0.399589 0.569931 0.500000
Si Si6 0.117914 0.434317 0.819600
O O1 0.555119 0.937645 0.857804
O O2 0.471755 0.862956 0.941907
O O3 0.465109 0.342903 0.000000
O O4 0.582779 0.388424 0.000000
O O5 0.250000 0.250000 0.900007
O O6 0.139802 0.127369 0.940411
O O7 0.149818 0.269354 0.831127
O O8 0.207259 0.007643 0.854483
O O9 0.250000 0.250000 0.688704
O O10 0.264110 0.000000 0.750000
O O11 0.328488 0.043203 0.652300
O O12 0.106568 0.500000 0.750000
#
# Coordination Sequence:
#
# PCOD9497227 Si02
#       6
#     8   8  16  16   8  16
#     4  11  21  40  60  86 115 153 204 238 294 339
#     4  10  24  38  61  79 114 164 199 246 280 349
#     4  10  21  38  61  88 121 156 189 242 299 351
#     4  10  20  36  59  88 119 152 191 237 301 362
#     4  11  21  42  58  84 117 158 208 237 295 340
#     4  10  20  36  60  88 118 153 190 238 296 353
#
# _framework density 17.682994999999998
#
# number of rings (size 3 to 8) (size 9 to 14) (size 15 to 20)
#    0.000    1.778    2.222    4.000    3.111    0.000 
#    0.000    0.556    0.000    0.000    0.000    0.000 
#    0.000    0.000    0.000    0.000    0.000    0.000 
#
# Total GULP energy -200480.324726 kJ/mol
# GULP energy per Si atom -5568.897909 kJ/mol
# Density = 1.764275 g / cm^3
# Si number density = 17.682995 Si / 1000 Ang^3
#
#
#
# Elastic Constant Matrix: (Units=GPa)
#
#
# Indices 1 2 3 4 5 6 
#
# 1 87.2933 35.0082 36.2553 0.0000 0.0000 0.0000
# 2 35.0082 140.7462 36.4639 0.0000 0.0000 0.0000
# 3 36.2553 36.4639 85.7792 0.0000 0.0000 0.0000
# 4 0.0000 0.0000 0.0000 20.0995 0.0000 0.0000
# 5 0.0000 0.0000 0.0000 0.0000 28.2982 0.0000
# 6 0.0000 0.0000 0.0000 0.0000 0.0000 16.1133
#
#
#
# Elastic Compliance Matrix: (Units=1/GPa)
#
#
# Indices 1 2 3 4 5 6 
#
# 1 0.014513 -0.002271 -0.005169 0.000000 0.000000 0.000000
# 2 -0.002271 0.008340 -0.002585 0.000000 0.000000 0.000000
# 3 -0.005169 -0.002585 0.014941 0.000000 0.000000 0.000000
# 4 0.000000 0.000000 0.000000 0.049752 0.000000 0.000000
# 5 0.000000 0.000000 0.000000 0.000000 0.035338 0.000000
# 6 0.000000 0.000000 0.000000 0.000000 0.000000 0.062060
#
#
# Mechanical properties :
#
#
# Convention : Reuss Voigt Hill
#
# Bulk Modulus (GPa) = 56.35592 58.80815 57.58203
# Shear Modulus (GPa) = 23.70687 26.64163 25.17425
#
# Velocity S-wave (km/s) = 3.66547 3.88574 3.77721
# Velocity P-wave (km/s) = 7.06071 7.31170 7.18730
#
# Compressibility (1/GPa) = 0.01774437
#
# Stress axis : x y z
#
# Youngs Moduli (GPa) = 68.90354 119.90988 66.92784
#
# Poissons Ratio (x) = 0.27229 0.34594
# Poissons Ratio (y) = 0.15646 0.17303
# Poissons Ratio (z) = 0.35615 0.31001
#
# Static dielectric constant tensor:
#      x y z
#    x 1.615830 0.000000 0.000000 
#    y 0.000000 1.606610 0.000000 
#    z 0.000000 0.000000 1.616800 
# 
# From -- ./inp_files/36757.got.cif
#   From: 2010.05.17/outbox.cif.g08.bks.cpg/sg66_19_cif.got.tgz:36757.got - 2010.06.03 17:51:23.
