data_PCOD9497366
_publ_section_title
;
Structure prediction by ZEFSAII (Michael W. Deem and Ramdas Pophale) SiO2 
 PCOD9497366
Probable space group: C C C M
;
_chemical_formula_sum "Si O2"
_cell_formula_units_Z 68
_cell_length_a 20.276687
_cell_length_b 17.498930
_cell_length_c 8.520660
_cell_angle_alpha 90.000000
_cell_angle_beta 90.000000
_cell_angle_gamma 90.000000
_cell_volume 3023.303363
_symmetry_space_group_name_H-M "C C C M"
_symmetry_group_IT_number 66
_symmetry_cell_setting 'orthorhombic'
loop_
_space_group_symop_operation_xyz
x,y,z
-x,-y,z
x,-y,1/2-z
-x,y,1/2-z
-x,-y,-z
x,y,-z
-x,y,1/2+z
x,-y,1/2+z
1/2+x,1/2+y,z
1/2-x,1/2-y,z
1/2+x,1/2-y,1/2-z
1/2-x,1/2+y,1/2-z
1/2-x,1/2-y,-z
1/2+x,1/2+y,-z
1/2-x,1/2+y,1/2+z
1/2+x,1/2-y,1/2+z
loop_
_atom_site_type_symbol
_atom_site_label
_atom_site_fract_x
_atom_site_fract_y
_atom_site_fract_z
Si Si1 0.568356 0.210186 0.813929
Si Si2 0.292287 0.603177 0.828722
Si Si3 0.429117 0.380811 0.815462
Si Si4 0.750000 0.250000 0.000000
Si Si5 0.156772 0.419316 0.181780
O O1 0.500000 0.175015 0.750000
O O2 0.574656 0.289585 0.720744
O O3 0.626080 0.150455 0.779917
O O4 0.565282 0.226341 0.000000
O O5 0.365465 0.586612 0.772154
O O6 0.235262 0.582465 0.708463
O O7 0.278434 0.566685 0.000000
O O8 0.282952 0.693258 0.866644
O O9 0.500000 0.406374 0.750000
O O10 0.425616 0.394374 0.000000
O O11 0.132391 0.500000 0.250000
O O12 0.139777 0.410970 0.000000
#
# Coordination Sequence:
#
# PCOD9497366 Si02
#       5
#    16  16  16   4  16
#     4  11  22  38  58  84 118 155 198 251 302 356
#     4  10  20  37  59  87 116 154 193 247 302 352
#     4  11  21  35  58  90 122 157 195 246 307 365
#     4   8  20  32  62  84 116 152 190 244 312 344
#     4  12  25  41  60  85 116 161 208 248 294 354
#
# _framework density 22.491952999999999
#
# number of rings (size 3 to 8) (size 9 to 14) (size 15 to 20)
#    0.706    0.471    0.000    9.882    3.294    0.471 
#    0.000    5.882    0.000    0.706    0.000    4.941 
#    0.000    0.000    0.000    0.000    0.000    0.000 
#
# Total GULP energy -189641.706944 kJ/mol
# GULP energy per Si atom -5577.697263 kJ/mol
# Density = 2.244076 g / cm^3
# Si number density = 22.491953 Si / 1000 Ang^3
#
#
#
# Elastic Constant Matrix: (Units=GPa)
#
#
# Indices 1 2 3 4 5 6 
#
# 1 95.2959 11.3086 -7.6739 0.0000 0.0000 0.0000
# 2 11.3086 74.1865 -1.8570 0.0000 0.0000 0.0000
# 3 -7.6739 -1.8570 111.8842 0.0000 0.0000 0.0000
# 4 0.0000 0.0000 0.0000 15.3499 0.0000 0.0000
# 5 0.0000 0.0000 0.0000 0.0000 37.1066 0.0000
# 6 0.0000 0.0000 0.0000 0.0000 0.0000 -5.8493
#
#
#
# Elastic Compliance Matrix: (Units=1/GPa)
#
#
# Indices 1 2 3 4 5 6 
#
# 1 0.010743 -0.001620 0.000710 0.000000 0.000000 0.000000
# 2 -0.001620 0.013729 0.000117 0.000000 0.000000 0.000000
# 3 0.000710 0.000117 0.008988 0.000000 0.000000 0.000000
# 4 0.000000 0.000000 0.000000 0.065147 0.000000 0.000000
# 5 0.000000 0.000000 0.000000 0.000000 0.026949 0.000000
# 6 0.000000 0.000000 0.000000 0.000000 0.000000 -0.170961
#
#
# Mechanical properties :
#
#
# Convention : Reuss Voigt Hill
#
# Bulk Modulus (GPa) = 31.37290 31.65799 31.51544
# Shear Modulus (GPa) = -150.63360 27.96071 -61.33645
#
# Velocity S-wave (km/s) = -8.19253 3.52965 -5.22777
# Velocity P-wave (km/s) = 8.68973 5.54229 4.73256
#
# Compressibility (1/GPa) = 0.03187465
#
# Stress axis : x y z
#
# Youngs Moduli (GPa) = 93.08368 72.83647 111.25393
#
# Poissons Ratio (x) = 0.11798 -0.07899
# Poissons Ratio (y) = 0.15078 -0.01299
# Poissons Ratio (z) = -0.06609 -0.00851
#
# Static dielectric constant tensor:
#      x y z
#    x 1.857110 0.000000 0.000000 
#    y 0.000000 1.857060 0.000000 
#    z 0.000000 0.000000 1.773350 
# 
# From -- ./inp_files/6252.got.cif
#   From: 2010.05.17/outbox.cif.g08.bks.cpg/sg66_4_cif.got.tgz:6252.got - 2010.06.03 17:51:23.
