data_PCOD9497193
_publ_section_title
;
Structure prediction by ZEFSAII (Michael W. Deem and Ramdas Pophale) SiO2 
 PCOD9497193
Probable space group: C C C M
;
_chemical_formula_sum "Si O2"
_cell_formula_units_Z 64
_cell_length_a 14.128011
_cell_length_b 7.892259
_cell_length_c 28.252564
_cell_angle_alpha 90.000000
_cell_angle_beta 90.000000
_cell_angle_gamma 90.000000
_cell_volume 3150.215186
_symmetry_space_group_name_H-M "C C C M"
_symmetry_group_IT_number 66
_symmetry_cell_setting 'orthorhombic'
loop_
_space_group_symop_operation_xyz
x,y,z
-x,-y,z
x,-y,1/2-z
-x,y,1/2-z
-x,-y,-z
x,y,-z
-x,y,1/2+z
x,-y,1/2+z
1/2+x,1/2+y,z
1/2-x,1/2-y,z
1/2+x,1/2-y,1/2-z
1/2-x,1/2+y,1/2-z
1/2-x,1/2-y,-z
1/2+x,1/2+y,-z
1/2-x,1/2+y,1/2+z
1/2+x,1/2-y,1/2+z
loop_
_atom_site_type_symbol
_atom_site_label
_atom_site_fract_x
_atom_site_fract_y
_atom_site_fract_z
Si Si1 0.985126 0.197637 0.856865
Si Si2 0.820172 0.397906 0.623725
Si Si3 0.668413 0.124498 0.791064
Si Si4 0.587898 0.867271 0.446789
O O1 0.916292 0.277592 0.817381
O O2 0.938506 0.223221 0.908906
O O3 0.080636 0.310603 0.860228
O O4 0.000000 0.000000 0.847558
O O5 0.750000 0.250000 0.611599
O O6 0.785544 0.509264 0.667745
O O7 0.833013 0.521675 0.579334
O O8 0.750000 0.250000 0.772827
O O9 0.634572 0.000000 0.750000
O O10 0.609251 0.811190 0.500000
O O11 0.500000 0.000000 0.449076
#
# Coordination Sequence:
#
# PCOD9497193 Si02
#       4
#    16  16  16  16
#     4  10  21  37  59  86 117 155 192 235 289 343
#     4  10  20  36  58  84 116 153 194 238 286 339
#     4  11  23  40  60  84 111 143 187 237 293 350
#     4   8  16  32  54  82 118 157 196 239 285 336
#
# _framework density 20.316072999999999
#
# number of rings (size 3 to 8) (size 9 to 14) (size 15 to 20)
#    0.000    2.250    0.000    4.500    0.000    3.000 
#    0.000    1.250    0.000   25.500    0.000    0.000 
#    0.000    0.000    0.000    0.000    0.000    0.000 
#
# Total GULP energy -178666.655739 kJ/mol
# GULP energy per Si atom -5583.332992 kJ/mol
# Density = 2.026983 g / cm^3
# Si number density = 20.316073 Si / 1000 Ang^3
#
#
#
# Elastic Constant Matrix: (Units=GPa)
#
#
# Indices 1 2 3 4 5 6 
#
# 1 54.2581 12.7423 22.9615 0.0000 0.0000 0.0000
# 2 12.7423 81.4599 45.3102 0.0000 0.0000 0.0000
# 3 22.9615 45.3102 140.5174 0.0000 0.0000 0.0000
# 4 0.0000 0.0000 0.0000 10.5124 0.0000 0.0000
# 5 0.0000 0.0000 0.0000 0.0000 0.7532 0.0000
# 6 0.0000 0.0000 0.0000 0.0000 0.0000 25.0623
#
#
#
# Elastic Compliance Matrix: (Units=1/GPa)
#
#
# Indices 1 2 3 4 5 6 
#
# 1 0.019968 -0.001595 -0.002749 0.000000 0.000000 0.000000
# 2 -0.001595 0.015086 -0.004604 0.000000 0.000000 0.000000
# 3 -0.002749 -0.004604 0.009050 0.000000 0.000000 0.000000
# 4 0.000000 0.000000 0.000000 0.095126 0.000000 0.000000
# 5 0.000000 0.000000 0.000000 0.000000 1.327712 0.000000
# 6 0.000000 0.000000 0.000000 0.000000 0.000000 0.039901
#
#
# Mechanical properties :
#
#
# Convention : Reuss Voigt Hill
#
# Bulk Modulus (GPa) = 38.15336 48.69593 43.42464
# Shear Modulus (GPa) = 3.26057 20.28033 11.77045
#
# Velocity S-wave (km/s) = 1.26823 3.16292 2.40961
# Velocity P-wave (km/s) = 4.57878 6.11228 5.40024
#
# Compressibility (1/GPa) = 0.02621001
#
# Stress axis : x y z
#
# Youngs Moduli (GPa) = 50.07972 66.28530 110.49352
#
# Poissons Ratio (x) = 0.10570 0.30372
# Poissons Ratio (y) = 0.07986 0.50872
# Poissons Ratio (z) = 0.13766 0.30518
#
# Static dielectric constant tensor:
#      x y z
#    x 1.760840 0.000000 0.000000 
#    y 0.000000 1.688760 0.000000 
#    z 0.000000 0.000000 1.712540 
# 
# From -- ./inp_files/67889.got.cif
#   From: 2010.05.17/outbox.cif.g08.bks.cpg/sg66_34_cif.got.tgz:67889.got - 2010.06.03 17:51:23.
