data_PCOD9497499
_publ_section_title
;
Structure prediction by ZEFSAII (Michael W. Deem and Ramdas Pophale) SiO2 
 PCOD9497499
Probable space group: C C C M
;
_chemical_formula_sum "Si O2"
_cell_formula_units_Z 72
_cell_length_a 16.018767
_cell_length_b 12.546338
_cell_length_c 14.530149
_cell_angle_alpha 90.000000
_cell_angle_beta 90.000000
_cell_angle_gamma 90.000000
_cell_volume 2920.223796
_symmetry_space_group_name_H-M "C C C M"
_symmetry_group_IT_number 66
_symmetry_cell_setting 'orthorhombic'
loop_
_space_group_symop_operation_xyz
x,y,z
-x,-y,z
x,-y,1/2-z
-x,y,1/2-z
-x,-y,-z
x,y,-z
-x,y,1/2+z
x,-y,1/2+z
1/2+x,1/2+y,z
1/2-x,1/2-y,z
1/2+x,1/2-y,1/2-z
1/2-x,1/2+y,1/2-z
1/2-x,1/2-y,-z
1/2+x,1/2+y,-z
1/2-x,1/2+y,1/2+z
1/2+x,1/2-y,1/2+z
loop_
_atom_site_type_symbol
_atom_site_label
_atom_site_fract_x
_atom_site_fract_y
_atom_site_fract_z
Si Si1 0.619501 0.500000 0.750000
Si Si2 0.426935 0.593057 0.000000
Si Si3 0.972764 0.194889 0.346077
Si Si4 0.177299 0.339137 0.898852
Si Si5 0.766269 0.621880 0.500000
Si Si6 0.773574 0.625950 0.302307
O O1 0.569953 0.417001 0.686550
O O2 0.684129 0.569678 0.693464
O O3 0.500000 0.500000 0.000000
O O4 0.452080 0.663905 0.088173
O O5 0.327930 0.568951 0.000000
O O6 0.907296 0.271297 0.393910
O O7 0.000000 0.246223 0.250000
O O8 0.250000 0.250000 0.899221
O O9 0.186986 0.397102 0.799131
O O10 0.183119 0.393803 0.000000
O O11 0.750000 0.750000 0.500000
O O12 0.812795 0.602868 0.402347
O O13 0.750000 0.750000 0.298512
#
# Coordination Sequence:
#
# PCOD9497499 Si02
#       6
#     8   8  16  16   8  16
#     4  12  21  38  60  90 131 174 200 252 315 392
#     4  12  24  36  55  92 133 167 200 254 329 396
#     4  12  23  36  57  91 131 162 198 250 327 393
#     4  10  20  40  59  78 118 169 212 254 297 375
#     4  10  22  38  60  82 128 178 212 254 306 389
#     4  10  20  38  59  81 121 162 217 252 299 371
#
# _framework density 24.655646000000001
#
# number of rings (size 3 to 8) (size 9 to 14) (size 15 to 20)
#    0.000    1.111    5.556    4.333    3.111    0.000 
#    2.000    0.000    0.000    0.000    0.000    0.778 
#    0.000    8.889    0.000    0.000    0.000    0.000 
#
# Total GULP energy -200948.308355 kJ/mol
# GULP energy per Si atom -5581.897454 kJ/mol
# Density = 2.459953 g / cm^3
# Si number density = 24.655646 Si / 1000 Ang^3
#
#
#
# Elastic Constant Matrix: (Units=GPa)
#
#
# Indices 1 2 3 4 5 6 
#
# 1 61.9143 8.9779 20.2930 0.0000 0.0000 0.0000
# 2 8.9779 45.0038 38.1519 0.0000 0.0000 0.0000
# 3 20.2930 38.1519 291.6904 0.0000 0.0000 0.0000
# 4 0.0000 0.0000 0.0000 244.1195 0.0000 0.0000
# 5 0.0000 0.0000 0.0000 0.0000 108.6703 0.0000
# 6 0.0000 0.0000 0.0000 0.0000 0.0000 34.0666
#
#
#
# Elastic Compliance Matrix: (Units=1/GPa)
#
#
# Indices 1 2 3 4 5 6 
#
# 1 0.016806 -0.002656 -0.000822 0.000000 0.000000 0.000000
# 2 -0.002656 0.025411 -0.003139 0.000000 0.000000 0.000000
# 3 -0.000822 -0.003139 0.003896 0.000000 0.000000 0.000000
# 4 0.000000 0.000000 0.000000 0.004096 0.000000 0.000000
# 5 0.000000 0.000000 0.000000 0.000000 0.009202 0.000000
# 6 0.000000 0.000000 0.000000 0.000000 0.000000 0.029354
#
#
# Mechanical properties :
#
#
# Convention : Reuss Voigt Hill
#
# Bulk Modulus (GPa) = 30.41389 59.27268 44.84328
# Shear Modulus (GPa) = 44.26386 99.45033 71.85709
#
# Velocity S-wave (km/s) = 4.24167 6.35793 5.40440
# Velocity P-wave (km/s) = 6.02921 8.83120 7.56113
#
# Compressibility (1/GPa) = 0.03287972
#
# Stress axis : x y z
#
# Youngs Moduli (GPa) = 59.50318 39.35275 256.67213
#
# Poissons Ratio (x) = 0.10452 0.21093
# Poissons Ratio (y) = 0.15804 0.80567
# Poissons Ratio (z) = 0.04890 0.12352
#
# Static dielectric constant tensor:
#      x y z
#    x 1.917960 0.000000 0.000000 
#    y 0.000000 1.998050 0.000000 
#    z 0.000000 0.000000 2.112330 
# 
# From -- ./inp_files/29838.got.cif
#   From: 2010.05.17/outbox.cif.g08.bks.cpg/sg66_15_cif.got.tgz:29838.got - 2010.06.03 17:51:23.
