data_PCOD9497567
_publ_section_title
;
Structure prediction by ZEFSAII (Michael W. Deem and Ramdas Pophale) SiO2 
 PCOD9497567
Probable space group: C C C M
;
_chemical_formula_sum "Si O2"
_cell_formula_units_Z 112
_cell_length_a 12.428639
_cell_length_b 25.058524
_cell_length_c 16.382697
_cell_angle_alpha 90.000000
_cell_angle_beta 90.000000
_cell_angle_gamma 90.000000
_cell_volume 5102.282014
_symmetry_space_group_name_H-M "C C C M"
_symmetry_group_IT_number 66
_symmetry_cell_setting 'orthorhombic'
loop_
_space_group_symop_operation_xyz
x,y,z
-x,-y,z
x,-y,1/2-z
-x,y,1/2-z
-x,-y,-z
x,y,-z
-x,y,1/2+z
x,-y,1/2+z
1/2+x,1/2+y,z
1/2-x,1/2-y,z
1/2+x,1/2-y,1/2-z
1/2-x,1/2+y,1/2-z
1/2-x,1/2-y,-z
1/2+x,1/2+y,-z
1/2-x,1/2+y,1/2+z
1/2+x,1/2-y,1/2+z
loop_
_atom_site_type_symbol
_atom_site_label
_atom_site_fract_x
_atom_site_fract_y
_atom_site_fract_z
Si Si1 0.820677 0.071336 0.178051
Si Si2 0.740618 0.538233 0.136752
Si Si3 0.937917 0.604542 0.173738
Si Si4 0.031669 0.094478 0.089855
Si Si5 0.219578 0.678456 0.779492
Si Si6 0.450655 0.798850 0.095266
Si Si7 0.079558 0.793984 0.326551
O O1 0.797783 0.055613 0.271728
O O2 0.780463 0.131797 0.169985
O O3 0.944860 0.070045 0.152033
O O4 0.757627 0.025441 0.129550
O O5 0.856161 0.565744 0.127293
O O6 0.641890 0.561635 0.086554
O O7 0.866640 0.648175 0.222577
O O8 0.000000 0.576830 0.250000
O O9 0.012591 0.640462 0.115862
O O10 0.062381 0.153618 0.119117
O O11 0.981362 0.095687 0.000000
O O12 0.150318 0.711971 0.844483
O O13 0.304974 0.702924 0.716675
O O14 0.544910 0.757896 0.122355
O O15 0.426704 0.792511 0.000000
O O16 0.000000 0.797386 0.250000
#
# Coordination Sequence:
#
# PCOD9497567 Si02
#       7
#    16  16  16  16  16  16  16
#     4  10  20  39  64  93 126 177 225 270 322 391
#     4  10  20  38  65  93 129 175 225 270 324 396
#     4   9  19  40  65  93 128 172 222 275 324 387
#     4  12  23  37  58  96 140 170 213 271 333 397
#     4  10  21  44  68  92 125 177 226 270 321 400
#     4  11  26  44  66 100 136 170 217 282 341 389
#     4  12  22  44  69  92 124 174 222 270 327 399
#
# _framework density 21.950963000000002
#
# number of rings (size 3 to 8) (size 9 to 14) (size 15 to 20)
#    0.000    1.429    4.286    2.571    0.000    5.714 
#    0.000   13.571    0.000    0.857    0.000    0.000 
#    0.000    0.000    0.000    0.000    0.000    0.000 
#
# Total GULP energy -312722.934652 kJ/mol
# GULP energy per Si atom -5584.338119 kJ/mol
# Density = 2.190100 g / cm^3
# Si number density = 21.950963 Si / 1000 Ang^3
#
#
#
# Elastic Constant Matrix: (Units=GPa)
#
#
# Indices 1 2 3 4 5 6 
#
# 1 79.5745 7.0104 8.0765 0.0000 0.0000 0.0000
# 2 7.0104 77.2906 8.3008 0.0000 0.0000 0.0000
# 3 8.0765 8.3008 62.4411 0.0000 0.0000 0.0000
# 4 0.0000 0.0000 0.0000 -1.1026 0.0000 0.0000
# 5 0.0000 0.0000 0.0000 0.0000 8.8485 0.0000
# 6 0.0000 0.0000 0.0000 0.0000 0.0000 24.4194
#
#
#
# Elastic Compliance Matrix: (Units=1/GPa)
#
#
# Indices 1 2 3 4 5 6 
#
# 1 0.012809 -0.000998 -0.001524 0.000000 0.000000 0.000000
# 2 -0.000998 0.013203 -0.001626 0.000000 0.000000 0.000000
# 3 -0.001524 -0.001626 0.016428 0.000000 0.000000 0.000000
# 4 0.000000 0.000000 0.000000 -0.906988 0.000000 0.000000
# 5 0.000000 0.000000 0.000000 0.000000 0.113013 0.000000
# 6 0.000000 0.000000 0.000000 0.000000 0.000000 0.040951
#
#
# Mechanical properties :
#
#
# Convention : Reuss Voigt Hill
#
# Bulk Modulus (GPa) = 29.28738 29.56460 29.42599
# Shear Modulus (GPa) = -7.23689 19.49432 6.12871
#
# Velocity S-wave (km/s) = -1.81769 2.98331 1.67274
# Velocity P-wave (km/s) = 2.99430 5.03632 4.14309
#
# Compressibility (1/GPa) = 0.03414440
#
# Stress axis : x y z
#
# Youngs Moduli (GPa) = 78.06720 75.73826 60.87015
#
# Poissons Ratio (x) = 0.07560 0.09278
# Poissons Ratio (y) = 0.07792 0.09898
# Poissons Ratio (z) = 0.11899 0.12316
#
# Static dielectric constant tensor:
#      x y z
#    x 1.833980 0.000000 0.000000 
#    y 0.000000 1.884870 0.000000 
#    z 0.000000 0.000000 1.804530 
# 
# From -- ./inp_files/26994.got.cif
#   From: 2010.05.17/outbox.cif.g08.bks.cpg/sg66_14_cif.got.tgz:26994.got - 2010.06.03 17:51:23.
