data_PCOD9497788
_publ_section_title
;
Structure prediction by ZEFSAII (Michael W. Deem and Ramdas Pophale) SiO2 
 PCOD9497788
Probable space group: C C C M
;
_chemical_formula_sum "Si O2"
_cell_formula_units_Z 112
_cell_length_a 29.082121
_cell_length_b 12.579372
_cell_length_c 15.380109
_cell_angle_alpha 90.000000
_cell_angle_beta 90.000000
_cell_angle_gamma 90.000000
_cell_volume 5626.579386
_symmetry_space_group_name_H-M "C C C M"
_symmetry_group_IT_number 66
_symmetry_cell_setting 'orthorhombic'
loop_
_space_group_symop_operation_xyz
x,y,z
-x,-y,z
x,-y,1/2-z
-x,y,1/2-z
-x,-y,-z
x,y,-z
-x,y,1/2+z
x,-y,1/2+z
1/2+x,1/2+y,z
1/2-x,1/2-y,z
1/2+x,1/2-y,1/2-z
1/2-x,1/2+y,1/2-z
1/2-x,1/2-y,-z
1/2+x,1/2+y,-z
1/2-x,1/2+y,1/2+z
1/2+x,1/2-y,1/2+z
loop_
_atom_site_type_symbol
_atom_site_label
_atom_site_fract_x
_atom_site_fract_y
_atom_site_fract_z
Si Si1 0.153081 0.294049 0.204585
Si Si2 0.799502 0.295333 0.120562
Si Si3 0.570406 0.324544 0.230729
Si Si4 0.301388 0.954909 0.598197
Si Si5 0.300096 0.605935 0.398724
Si Si6 0.510777 0.374203 0.396352
Si Si7 0.136739 0.097397 0.405519
O O1 0.192150 0.296036 0.277297
O O2 0.103548 0.274648 0.247591
O O3 0.158068 0.402703 0.152663
O O4 0.168431 0.193421 0.146897
O O5 0.750000 0.250000 0.096925
O O6 0.802959 0.418038 0.095177
O O7 0.838007 0.211473 0.090253
O O8 0.551855 0.360294 0.325384
O O9 0.529898 0.313709 0.158224
O O10 0.604122 0.402978 0.177695
O O11 0.305072 0.915193 0.500000
O O12 0.252001 0.913121 0.633266
O O13 0.296678 0.635037 0.500000
O O14 0.325158 0.492481 0.393835
O O15 0.500000 0.500000 0.396620
O O16 0.516537 0.343633 0.500000
O O17 0.113216 0.078983 0.500000
#
# Coordination Sequence:
#
# PCOD9497788 Si02
#       7
#    16  16  16  16  16  16  16
#     4  11  24  35  54  84 118 160 202 256 309 372
#     4  11  21  36  56  80 114 160 215 265 311 357
#     4  10  22  38  58  87 126 160 203 255 314 387
#     4  11  22  38  56  77 115 162 217 268 306 355
#     4  10  21  35  54  79 116 164 210 253 304 365
#     4  10  22  39  63  91 123 160 199 253 323 397
#     4  10  21  35  57  89 121 163 212 256 305 366
#
# _framework density 19.905522000000001
#
# number of rings (size 3 to 8) (size 9 to 14) (size 15 to 20)
#    0.000    1.571    1.429    3.857    4.000    4.571 
#    0.000    0.000    0.000    0.000    0.000   32.000 
#    0.000   41.143    0.000    0.000    0.000    0.000 
#
# Total GULP energy -312160.046282 kJ/mol
# GULP energy per Si atom -5574.286541 kJ/mol
# Density = 1.986022 g / cm^3
# Si number density = 19.905522 Si / 1000 Ang^3
#
#
#
# Elastic Constant Matrix: (Units=GPa)
#
#
# Indices 1 2 3 4 5 6 
#
# 1 83.2620 28.4380 57.5103 0.0000 0.0000 0.0000
# 2 28.4380 85.3798 33.4565 0.0000 0.0000 0.0000
# 3 57.5103 33.4565 148.2261 0.0000 0.0000 0.0000
# 4 0.0000 0.0000 0.0000 31.2972 0.0000 0.0000
# 5 0.0000 0.0000 0.0000 0.0000 25.0284 0.0000
# 6 0.0000 0.0000 0.0000 0.0000 0.0000 22.2057
#
#
#
# Elastic Compliance Matrix: (Units=1/GPa)
#
#
# Indices 1 2 3 4 5 6 
#
# 1 0.017278 -0.003431 -0.005929 0.000000 0.000000 0.000000
# 2 -0.003431 0.013530 -0.001723 0.000000 0.000000 0.000000
# 3 -0.005929 -0.001723 0.009436 0.000000 0.000000 0.000000
# 4 0.000000 0.000000 0.000000 0.031952 0.000000 0.000000
# 5 0.000000 0.000000 0.000000 0.000000 0.039955 0.000000
# 6 0.000000 0.000000 0.000000 0.000000 0.000000 0.045033
#
#
# Mechanical properties :
#
#
# Convention : Reuss Voigt Hill
#
# Bulk Modulus (GPa) = 55.31760 61.74197 58.52978
# Shear Modulus (GPa) = 26.97232 28.87046 27.92139
#
# Velocity S-wave (km/s) = 3.68505 3.81251 3.74932
# Velocity P-wave (km/s) = 6.77912 7.10388 6.94340
#
# Compressibility (1/GPa) = 0.01807743
#
# Stress axis : x y z
#
# Youngs Moduli (GPa) = 57.87863 73.90814 105.98093
#
# Poissons Ratio (x) = 0.25361 0.62836
# Poissons Ratio (y) = 0.19861 0.18256
# Poissons Ratio (z) = 0.34316 0.12731
#
# Static dielectric constant tensor:
#      x y z
#    x 1.743290 0.000000 0.000000 
#    y 0.000000 1.692740 0.000000 
#    z 0.000000 0.000000 1.766280 
# 
# From -- ./inp_files/33827.got.cif
#   From: 2010.05.17/outbox.cif.g08.bks.cpg/sg66_17_cif.got.tgz:33827.got - 2010.06.03 17:51:23.
