data_PCOD9497354
_publ_section_title
;
Structure prediction by ZEFSAII (Michael W. Deem and Ramdas Pophale) SiO2 
 PCOD9497354
Probable space group: C C C M
;
_chemical_formula_sum "Si O2"
_cell_formula_units_Z 52
_cell_length_a 7.448176
_cell_length_b 19.306475
_cell_length_c 13.905364
_cell_angle_alpha 90.000000
_cell_angle_beta 90.000000
_cell_angle_gamma 90.000000
_cell_volume 1999.563863
_symmetry_space_group_name_H-M "C C C M"
_symmetry_group_IT_number 66
_symmetry_cell_setting 'orthorhombic'
loop_
_space_group_symop_operation_xyz
x,y,z
-x,-y,z
x,-y,1/2-z
-x,y,1/2-z
-x,-y,-z
x,y,-z
-x,y,1/2+z
x,-y,1/2+z
1/2+x,1/2+y,z
1/2-x,1/2-y,z
1/2+x,1/2-y,1/2-z
1/2-x,1/2+y,1/2-z
1/2-x,1/2-y,-z
1/2+x,1/2+y,-z
1/2-x,1/2+y,1/2+z
1/2+x,1/2-y,1/2+z
loop_
_atom_site_type_symbol
_atom_site_label
_atom_site_fract_x
_atom_site_fract_y
_atom_site_fract_z
Si Si1 0.735584 0.914210 0.885045
Si Si2 0.619453 0.851424 0.616749
Si Si3 0.489393 0.302262 0.385160
Si Si4 0.000000 0.000000 0.750000
O O1 0.527177 0.908375 0.856636
O O2 0.862329 0.961817 0.822393
O O3 0.820513 0.837321 0.869326
O O4 0.749210 0.929927 0.000000
O O5 0.618369 0.853375 0.500000
O O6 0.551237 0.775197 0.647432
O O7 0.826868 0.852825 0.648011
O O8 0.472204 0.298183 0.500000
#
# Coordination Sequence:
#
# PCOD9497354 Si02
#       4
#    16  16  16   4
#     4  10  20  37  58  79 114 163 205 253 305 348
#     4   8  14  28  57  92 116 140 183 243 314 379
#     4   8  14  28  57  92 116 138 180 241 312 381
#     4  12  26  40  54  78 124 170 226 254 278 358
#
# _framework density 26.005671
#
# number of rings (size 3 to 8) (size 9 to 14) (size 15 to 20)
#    0.000    3.077    0.000    3.231    0.000    3.692 
#    0.000    4.615   13.538    7.385    0.000    0.000 
#    0.000    0.000    0.000   10.462    0.000    1.231 
#
# Total GULP energy -145336.047423 kJ/mol
# GULP energy per Si atom -5589.847978 kJ/mol
# Density = 2.594648 g / cm^3
# Si number density = 26.005671 Si / 1000 Ang^3
#
#
#
# Elastic Constant Matrix: (Units=GPa)
#
#
# Indices 1 2 3 4 5 6 
#
# 1 137.9040 12.5238 24.1999 0.0000 0.0000 0.0000
# 2 12.5238 34.7388 13.0331 0.0000 0.0000 0.0000
# 3 24.1999 13.0331 168.1446 0.0000 0.0000 0.0000
# 4 0.0000 0.0000 0.0000 42.7935 0.0000 0.0000
# 5 0.0000 0.0000 0.0000 0.0000 -3.5752 0.0000
# 6 0.0000 0.0000 0.0000 0.0000 0.0000 31.3353
#
#
#
# Elastic Compliance Matrix: (Units=1/GPa)
#
#
# Indices 1 2 3 4 5 6 
#
# 1 0.007630 -0.002409 -0.000911 0.000000 0.000000 0.000000
# 2 -0.002409 0.030409 -0.002010 0.000000 0.000000 0.000000
# 3 -0.000911 -0.002010 0.006234 0.000000 0.000000 0.000000
# 4 0.000000 0.000000 0.000000 0.023368 0.000000 0.000000
# 5 0.000000 0.000000 0.000000 0.000000 -0.279701 0.000000
# 6 0.000000 0.000000 0.000000 0.000000 0.000000 0.031913
#
#
# Mechanical properties :
#
#
# Convention : Reuss Voigt Hill
#
# Bulk Modulus (GPa) = 29.75123 48.92233 39.33678
# Shear Modulus (GPa) = -31.58919 33.51275 0.96178
#
# Velocity S-wave (km/s) = -3.48904 3.59370 0.60880
# Velocity P-wave (km/s) = 2.18314 6.00605 3.95642
#
# Compressibility (1/GPa) = 0.03361205
#
# Stress axis : x y z
#
# Youngs Moduli (GPa) = 131.05950 32.88515 160.40389
#
# Poissons Ratio (x) = 0.07921 0.14620
# Poissons Ratio (y) = 0.31570 0.32247
# Poissons Ratio (z) = 0.11945 0.06611
#
# Static dielectric constant tensor:
#      x y z
#    x 1.997710 0.000000 0.000000 
#    y 0.000000 2.064630 0.000000 
#    z 0.000000 0.000000 2.044390 
# 
# From -- ./inp_files/31774.got.cif
#   From: 2010.05.17/outbox.cif.g08.bks.cpg/sg66_16_cif.got.tgz:31774.got - 2010.06.03 17:51:23.
