data_PCOD9497254
_publ_section_title
;
Structure prediction by ZEFSAII (Michael W. Deem and Ramdas Pophale) SiO2 
 PCOD9497254
Probable space group: C C C M
;
_chemical_formula_sum "Si O2"
_cell_formula_units_Z 80
_cell_length_a 17.060874
_cell_length_b 10.991047
_cell_length_c 20.337597
_cell_angle_alpha 90.000000
_cell_angle_beta 90.000000
_cell_angle_gamma 90.000000
_cell_volume 3813.642492
_symmetry_space_group_name_H-M "C C C M"
_symmetry_group_IT_number 66
_symmetry_cell_setting 'orthorhombic'
loop_
_space_group_symop_operation_xyz
x,y,z
-x,-y,z
x,-y,1/2-z
-x,y,1/2-z
-x,-y,-z
x,y,-z
-x,y,1/2+z
x,-y,1/2+z
1/2+x,1/2+y,z
1/2-x,1/2-y,z
1/2+x,1/2-y,1/2-z
1/2-x,1/2+y,1/2-z
1/2-x,1/2-y,-z
1/2+x,1/2+y,-z
1/2-x,1/2+y,1/2+z
1/2+x,1/2-y,1/2+z
loop_
_atom_site_type_symbol
_atom_site_label
_atom_site_fract_x
_atom_site_fract_y
_atom_site_fract_z
Si Si1 0.842968 0.731073 0.129952
Si Si2 0.663634 0.973066 0.675971
Si Si3 0.089995 0.227624 0.268818
Si Si4 0.895216 0.869194 0.500000
Si Si5 0.922333 0.840218 0.000000
Si Si6 0.693050 0.358752 0.131824
O O1 0.750000 0.750000 0.119772
O O2 0.873764 0.592735 0.144255
O O3 0.862651 0.787218 0.201199
O O4 0.886423 0.784801 0.066685
O O5 0.608858 0.855129 0.691042
O O6 0.741125 0.960228 0.631077
O O7 0.692853 0.000000 0.750000
O O8 0.122304 0.125411 0.317980
O O9 0.000000 0.222917 0.250000
O O10 0.845636 0.829802 0.437001
O O11 0.983857 0.821703 0.500000
O O12 0.903173 0.015745 0.500000
O O13 0.750000 0.250000 0.156981
#
# Coordination Sequence:
#
# PCOD9497254 Si02
#       6
#    16  16  16   8   8  16
#     4  11  21  37  59  83 114 152 195 239 288 350
#     4   9  19  34  57  86 115 147 189 239 285 342
#     4  10  20  36  60  88 117 149 186 234 290 345
#     4  11  23  40  57  79 117 151 192 249 300 352
#     4  11  25  40  57  83 114 155 195 243 303 351
#     4  10  20  37  60  84 112 152 195 236 290 349
#
# _framework density 20.977319999999999
#
# number of rings (size 3 to 8) (size 9 to 14) (size 15 to 20)
#    0.000    1.800    0.000    6.000    0.000    4.400 
#    0.000    1.000    0.000   10.800    0.000    0.000 
#    0.000    0.000    0.000    0.000    0.000    0.000 
#
# Total GULP energy -222819.673533 kJ/mol
# GULP energy per Si atom -5570.491838 kJ/mol
# Density = 2.092957 g / cm^3
# Si number density = 20.977320 Si / 1000 Ang^3
#
#
#
# Elastic Constant Matrix: (Units=GPa)
#
#
# Indices 1 2 3 4 5 6 
#
# 1 116.9774 -4.0219 38.4201 0.0000 0.0000 0.0000
# 2 -4.0219 23.6762 0.2388 0.0000 0.0000 0.0000
# 3 38.4201 0.2388 115.3371 0.0000 0.0000 0.0000
# 4 0.0000 0.0000 0.0000 4.4627 0.0000 0.0000
# 5 0.0000 0.0000 0.0000 0.0000 74.2176 0.0000
# 6 0.0000 0.0000 0.0000 0.0000 0.0000 6.4811
#
#
#
# Elastic Compliance Matrix: (Units=1/GPa)
#
#
# Indices 1 2 3 4 5 6 
#
# 1 0.009665 0.001674 -0.003223 0.000000 0.000000 0.000000
# 2 0.001674 0.042527 -0.000646 0.000000 0.000000 0.000000
# 3 -0.003223 -0.000646 0.009745 0.000000 0.000000 0.000000
# 4 0.000000 0.000000 0.000000 0.224080 0.000000 0.000000
# 5 0.000000 0.000000 0.000000 0.000000 0.013474 0.000000
# 6 0.000000 0.000000 0.000000 0.000000 0.000000 0.154294
#
#
# Mechanical properties :
#
#
# Convention : Reuss Voigt Hill
#
# Bulk Modulus (GPa) = 17.37663 36.14054 26.75858
# Shear Modulus (GPa) = 10.47435 31.78918 21.13176
#
# Velocity S-wave (km/s) = 2.23697 3.89705 3.17734
# Velocity P-wave (km/s) = 3.86957 6.12496 5.12292
#
# Compressibility (1/GPa) = 0.05754857
#
# Stress axis : x y z
#
# Youngs Moduli (GPa) = 103.46869 23.51420 102.61500
#
# Poissons Ratio (x) = -0.03937 0.33072
# Poissons Ratio (y) = -0.17323 0.06627
# Poissons Ratio (z) = 0.33347 0.01518
#
# Static dielectric constant tensor:
#      x y z
#    x 1.783600 0.000000 0.000000 
#    y 0.000000 1.957750 0.000000 
#    z 0.000000 0.000000 1.715660 
# 
# From -- ./inp_files/48441.got.cif
#   From: 2010.05.17/outbox.cif.g08.bks.cpg/sg66_25_cif.got.tgz:48441.got - 2010.06.03 17:51:23.
