data_PCOD9497056
_publ_section_title
;
Structure prediction by ZEFSAII (Michael W. Deem and Ramdas Pophale) SiO2 
 PCOD9497056
Probable space group: C C C M
;
_chemical_formula_sum "Si O2"
_cell_formula_units_Z 96
_cell_length_a 15.222858
_cell_length_b 21.048138
_cell_length_c 14.403745
_cell_angle_alpha 90.000000
_cell_angle_beta 90.000000
_cell_angle_gamma 90.000000
_cell_volume 4615.144496
_symmetry_space_group_name_H-M "C C C M"
_symmetry_group_IT_number 66
_symmetry_cell_setting 'orthorhombic'
loop_
_space_group_symop_operation_xyz
x,y,z
-x,-y,z
x,-y,1/2-z
-x,y,1/2-z
-x,-y,-z
x,y,-z
-x,y,1/2+z
x,-y,1/2+z
1/2+x,1/2+y,z
1/2-x,1/2-y,z
1/2+x,1/2-y,1/2-z
1/2-x,1/2+y,1/2-z
1/2-x,1/2-y,-z
1/2+x,1/2+y,-z
1/2-x,1/2+y,1/2+z
1/2+x,1/2-y,1/2+z
loop_
_atom_site_type_symbol
_atom_site_label
_atom_site_fract_x
_atom_site_fract_y
_atom_site_fract_z
Si Si1 0.964773 0.302180 0.109729
Si Si2 0.280694 0.988163 0.109988
Si Si3 0.789375 0.351077 0.203710
Si Si4 0.588608 0.529797 0.387720
Si Si5 0.111983 0.174031 0.611323
Si Si6 0.853517 0.623979 0.891681
O O1 0.881340 0.325094 0.166690
O O2 0.962991 0.226429 0.129198
O O3 0.052161 0.343174 0.127100
O O4 0.946356 0.310093 0.000000
O O5 0.346194 0.047411 0.122564
O O6 0.293280 0.924552 0.168869
O O7 0.179546 0.006332 0.133366
O O8 0.284155 0.971099 0.000000
O O9 0.706171 0.315917 0.159360
O O10 0.788326 0.348199 0.314867
O O11 0.500000 0.500000 0.352501
O O12 0.584795 0.530464 0.500000
O O13 0.589915 0.602899 0.358140
O O14 0.126557 0.173729 0.500000
O O15 0.831492 0.635355 0.000000
#
# Coordination Sequence:
#
# PCOD9497056 Si02
#       6
#    16  16  16  16  16  16
#     4  10  20  35  57  85 117 149 193 244 297 354
#     4   9  18  33  55  87 122 152 192 241 295 356
#     4  11  19  33  59  87 116 151 195 243 296 342
#     4   8  14  28  56  88 115 143 178 229 296 354
#     4   9  18  33  59  92 116 142 188 249 303 349
#     4  10  22  37  55  82 121 163 196 234 289 361
#
# _framework density 20.801082000000001
#
# number of rings (size 3 to 8) (size 9 to 14) (size 15 to 20)
#    0.000    2.500    0.000    4.000    0.000    2.000 
#    0.000    4.167   11.000    9.000    0.000    0.000 
#    0.000    0.000    0.000    0.000    0.000    0.000 
#
# Total GULP energy -267539.546126 kJ/mol
# GULP energy per Si atom -5573.740544 kJ/mol
# Density = 2.075374 g / cm^3
# Si number density = 20.801082 Si / 1000 Ang^3
#
#
#
# Elastic Constant Matrix: (Units=GPa)
#
#
# Indices 1 2 3 4 5 6 
#
# 1 75.2194 71.7767 34.3324 0.0000 0.0000 0.0000
# 2 71.7767 106.6073 26.8409 0.0000 0.0000 0.0000
# 3 34.3324 26.8409 59.2453 0.0000 0.0000 0.0000
# 4 0.0000 0.0000 0.0000 4.5201 0.0000 0.0000
# 5 0.0000 0.0000 0.0000 0.0000 -2.8117 0.0000
# 6 0.0000 0.0000 0.0000 0.0000 0.0000 33.6648
#
#
#
# Elastic Compliance Matrix: (Units=1/GPa)
#
#
# Indices 1 2 3 4 5 6 
#
# 1 0.045755 -0.027237 -0.014175 0.000000 0.000000 0.000000
# 2 -0.027237 0.026802 0.003641 0.000000 0.000000 0.000000
# 3 -0.014175 0.003641 0.023444 0.000000 0.000000 0.000000
# 4 0.000000 0.000000 0.000000 0.221232 0.000000 0.000000
# 5 0.000000 0.000000 0.000000 0.000000 -0.355662 0.000000
# 6 0.000000 0.000000 0.000000 0.000000 0.000000 0.029705
#
#
# Mechanical properties :
#
#
# Convention : Reuss Voigt Hill
#
# Bulk Modulus (GPa) = 48.87917 56.33024 52.60471
# Shear Modulus (GPa) = 67.90234 14.28279 41.09256
#
# Velocity S-wave (km/s) = 5.71966 2.62322 4.44948
# Velocity P-wave (km/s) = 8.19565 6.02613 7.19316
#
# Compressibility (1/GPa) = 0.02045861
#
# Stress axis : x y z
#
# Youngs Moduli (GPa) = 21.85566 37.31128 42.65543
#
# Poissons Ratio (x) = 1.01624 0.60464
# Poissons Ratio (y) = 0.59528 -0.15532
# Poissons Ratio (z) = 0.30981 -0.13586
#
# Static dielectric constant tensor:
#      x y z
#    x 1.760670 0.000000 0.000000 
#    y 0.000000 1.656570 0.000000 
#    z 0.000000 0.000000 1.773920 
# 
# From -- ./inp_files/28330.got.cif
#   From: 2010.05.17/outbox.cif.g08.bks.cpg/sg66_15_cif.got.tgz:28330.got - 2010.06.03 17:51:23.
