data_PCOD9497009
_publ_section_title
;
Structure prediction by ZEFSAII (Michael W. Deem and Ramdas Pophale) SiO2 
 PCOD9497009
Probable space group: C C C M
;
_chemical_formula_sum "Si O2"
_cell_formula_units_Z 116
_cell_length_a 26.714711
_cell_length_b 25.135407
_cell_length_c 9.614375
_cell_angle_alpha 90.000000
_cell_angle_beta 90.000000
_cell_angle_gamma 90.000000
_cell_volume 6455.909884
_symmetry_space_group_name_H-M "C C C M"
_symmetry_group_IT_number 66
_symmetry_cell_setting 'orthorhombic'
loop_
_space_group_symop_operation_xyz
x,y,z
-x,-y,z
x,-y,1/2-z
-x,y,1/2-z
-x,-y,-z
x,y,-z
-x,y,1/2+z
x,-y,1/2+z
1/2+x,1/2+y,z
1/2-x,1/2-y,z
1/2+x,1/2-y,1/2-z
1/2-x,1/2+y,1/2-z
1/2-x,1/2-y,-z
1/2+x,1/2+y,-z
1/2-x,1/2+y,1/2+z
1/2+x,1/2-y,1/2+z
loop_
_atom_site_type_symbol
_atom_site_label
_atom_site_fract_x
_atom_site_fract_y
_atom_site_fract_z
Si Si1 0.500000 0.500000 0.250000
Si Si2 0.692616 0.742833 0.338412
Si Si3 0.172160 0.054247 0.335861
Si Si4 0.419847 0.413111 0.842804
Si Si5 0.218773 0.554159 0.835975
Si Si6 0.397399 0.702968 0.661578
Si Si7 0.637783 0.143032 0.160456
Si Si8 0.449604 0.815457 0.334812
O O1 0.537258 0.542122 0.174233
O O2 0.694807 0.724720 0.500000
O O3 0.750000 0.750000 0.288185
O O4 0.653213 0.706290 0.253846
O O5 0.668230 0.801567 0.334574
O O6 0.165497 0.045781 0.500000
O O7 0.123102 0.079385 0.270839
O O8 0.226406 0.080726 0.313147
O O9 0.176587 0.000000 0.250000
O O10 0.431029 0.350346 0.825076
O O11 0.399774 0.419590 0.000000
O O12 0.214207 0.500000 0.750000
O O13 0.175311 0.595502 0.805098
O O14 0.217007 0.541024 0.000000
O O15 0.381594 0.705820 0.500000
O O16 0.430162 0.755135 0.691009
O O17 0.592966 0.147420 0.268794
O O18 0.620199 0.136934 0.000000
O O19 0.500000 0.823778 0.250000
O O20 0.455611 0.822667 0.500000
#
# Coordination Sequence:
#
# PCOD9497009 Si02
#       8
#     4  16  16  16  16  16  16  16
#     4  12  26  40  64  78 106 148 198 252 310 344
#     4   9  18  32  54  82 112 144 182 226 275 336
#     4  10  20  35  56  79 107 142 182 227 274 330
#     4  11  24  41  57  78 107 141 188 242 294 344
#     4   9  19  34  55  83 115 150 185 224 269 325
#     4   9  21  38  54  77 110 144 182 231 283 340
#     4   9  18  34  54  80 114 147 183 225 272 327
#     4  10  20  36  58  82 110 143 183 227 277 332
#
# _framework density 17.968032999999998
#
# number of rings (size 3 to 8) (size 9 to 14) (size 15 to 20)
#    0.000    2.345    0.690    1.034    2.897    3.034 
#    0.000    0.000    0.000    0.414    0.000    2.897 
#    0.000    0.000    0.000    0.000    0.000    0.000 
#
# Total GULP energy -323039.148266 kJ/mol
# GULP energy per Si atom -5569.640487 kJ/mol
# Density = 1.792714 g / cm^3
# Si number density = 17.968033 Si / 1000 Ang^3
#
#
#
# Elastic Constant Matrix: (Units=GPa)
#
#
# Indices 1 2 3 4 5 6 
#
# 1 107.2945 32.6836 64.9318 0.0000 0.0000 0.0000
# 2 32.6836 62.3830 28.7339 0.0000 0.0000 0.0000
# 3 64.9318 28.7339 81.7152 0.0000 0.0000 0.0000
# 4 0.0000 0.0000 0.0000 21.5335 0.0000 0.0000
# 5 0.0000 0.0000 0.0000 0.0000 21.2548 0.0000
# 6 0.0000 0.0000 0.0000 0.0000 0.0000 15.1394
#
#
#
# Elastic Compliance Matrix: (Units=1/GPa)
#
#
# Indices 1 2 3 4 5 6 
#
# 1 0.018573 -0.003500 -0.013527 0.000000 0.000000 0.000000
# 2 -0.003500 0.019788 -0.004177 0.000000 0.000000 0.000000
# 3 -0.013527 -0.004177 0.024455 0.000000 0.000000 0.000000
# 4 0.000000 0.000000 0.000000 0.046439 0.000000 0.000000
# 5 0.000000 0.000000 0.000000 0.000000 0.047048 0.000000
# 6 0.000000 0.000000 0.000000 0.000000 0.000000 0.066053
#
#
# Mechanical properties :
#
#
# Convention : Reuss Voigt Hill
#
# Bulk Modulus (GPa) = 49.00221 56.01017 52.50619
# Shear Modulus (GPa) = 18.41165 19.92174 19.16670
#
# Velocity S-wave (km/s) = 3.20455 3.33338 3.26960
# Velocity P-wave (km/s) = 6.40494 6.78638 6.59842
#
# Compressibility (1/GPa) = 0.02040724
#
# Stress axis : x y z
#
# Youngs Moduli (GPa) = 53.84253 50.53672 40.89062
#
# Poissons Ratio (x) = 0.17687 0.55314
# Poissons Ratio (y) = 0.18844 0.17080
# Poissons Ratio (z) = 0.72835 0.21109
#
# Static dielectric constant tensor:
#      x y z
#    x 1.630650 0.000000 0.000000 
#    y 0.000000 1.625400 0.000000 
#    z 0.000000 0.000000 1.611910 
# 
# From -- ./inp_files/10594.got.cif
#   From: 2010.05.17/outbox.cif.g08.bks.cpg/sg66_6_cif.got.tgz:10594.got - 2010.06.03 17:51:23.
