data_PCOD9497803
_publ_section_title
;
Structure prediction by ZEFSAII (Michael W. Deem and Ramdas Pophale) SiO2 
 PCOD9497803
Probable space group: C C C M
;
_chemical_formula_sum "Si O2"
_cell_formula_units_Z 112
_cell_length_a 16.604080
_cell_length_b 21.864792
_cell_length_c 15.023186
_cell_angle_alpha 90.000000
_cell_angle_beta 90.000000
_cell_angle_gamma 90.000000
_cell_volume 5454.088889
_symmetry_space_group_name_H-M "C C C M"
_symmetry_group_IT_number 66
_symmetry_cell_setting 'orthorhombic'
loop_
_space_group_symop_operation_xyz
x,y,z
-x,-y,z
x,-y,1/2-z
-x,y,1/2-z
-x,-y,-z
x,y,-z
-x,y,1/2+z
x,-y,1/2+z
1/2+x,1/2+y,z
1/2-x,1/2-y,z
1/2+x,1/2-y,1/2-z
1/2-x,1/2+y,1/2-z
1/2-x,1/2-y,-z
1/2+x,1/2+y,-z
1/2-x,1/2+y,1/2+z
1/2+x,1/2-y,1/2+z
loop_
_atom_site_type_symbol
_atom_site_label
_atom_site_fract_x
_atom_site_fract_y
_atom_site_fract_z
Si Si1 0.849422 0.014993 0.395839
Si Si2 0.593926 0.404687 0.766666
Si Si3 0.337588 0.013263 0.853880
Si Si4 0.122678 0.619768 0.898661
Si Si5 0.551051 0.129133 0.395372
Si Si6 0.764155 0.822694 0.715386
Si Si7 0.708240 0.815506 0.096207
O O1 0.874940 0.017935 0.500000
O O2 0.877359 0.068408 0.328869
O O3 0.884359 0.955166 0.343193
O O4 0.751994 0.016419 0.393860
O O5 0.500000 0.394157 0.750000
O O6 0.644947 0.345381 0.795872
O O7 0.378637 0.953605 0.895693
O O8 0.326260 0.000000 0.750000
O O9 0.395934 0.071537 0.863448
O O10 0.200728 0.643405 0.847369
O O11 0.037199 0.639049 0.855853
O O12 0.129213 0.641814 0.000000
O O13 0.536229 0.117367 0.500000
O O14 0.612177 0.186051 0.389926
O O15 0.750000 0.750000 0.708276
O O16 0.742408 0.844276 0.815186
O O17 0.750000 0.750000 0.091550
O O18 0.721940 0.846517 0.000000
#
# Coordination Sequence:
#
# PCOD9497803 Si02
#       7
#    16  16  16  16  16  16  16
#     4  11  21  39  68  97 132 173 206 258 337 403
#     4  11  24  43  64  97 134 159 213 278 322 391
#     4  12  21  34  58  93 132 167 207 255 317 385
#     4  11  23  40  60  87 128 171 214 262 310 377
#     4  10  21  35  57  92 126 164 211 260 314 374
#     4  11  24  44  65  90 121 173 220 260 327 385
#     4   9  19  38  61  85 119 157 204 264 317 372
#
# _framework density 20.535052
#
# number of rings (size 3 to 8) (size 9 to 14) (size 15 to 20)
#    0.000    1.286    2.857    4.286    0.000    7.143 
#    5.143    0.000    0.000    0.000    0.000    0.000 
#    0.000    0.000    0.000    0.000    0.000    0.000 
#
# Total GULP energy -312383.538371 kJ/mol
# GULP energy per Si atom -5578.277471 kJ/mol
# Density = 2.048831 g / cm^3
# Si number density = 20.535052 Si / 1000 Ang^3
#
#
#
# Elastic Constant Matrix: (Units=GPa)
#
#
# Indices 1 2 3 4 5 6 
#
# 1 172.0777 53.0770 33.7183 0.0000 0.0000 0.0000
# 2 53.0770 74.4720 17.1569 0.0000 0.0000 0.0000
# 3 33.7183 17.1569 119.3749 0.0000 0.0000 0.0000
# 4 0.0000 0.0000 0.0000 -81.9010 0.0000 0.0000
# 5 0.0000 0.0000 0.0000 0.0000 14.4546 0.0000
# 6 0.0000 0.0000 0.0000 0.0000 0.0000 20.8521
#
#
#
# Elastic Compliance Matrix: (Units=1/GPa)
#
#
# Indices 1 2 3 4 5 6 
#
# 1 0.007678 -0.005143 -0.001430 0.000000 0.000000 0.000000
# 2 -0.005143 0.017332 -0.001038 0.000000 0.000000 0.000000
# 3 -0.001430 -0.001038 0.008930 0.000000 0.000000 0.000000
# 4 0.000000 0.000000 0.000000 -0.012210 0.000000 0.000000
# 5 0.000000 0.000000 0.000000 0.000000 0.069182 0.000000
# 6 0.000000 0.000000 0.000000 0.000000 0.000000 0.047957
#
#
# Mechanical properties :
#
#
# Convention : Reuss Voigt Hill
#
# Bulk Modulus (GPa) = 53.42232 63.75878 58.59055
# Shear Modulus (GPa) = 31.18567 8.14596 19.66581
#
# Velocity S-wave (km/s) = 3.90122 1.99386 3.09798
# Velocity P-wave (km/s) = 6.80914 6.03463 6.43355
#
# Compressibility (1/GPa) = 0.01871877
#
# Stress axis : x y z
#
# Youngs Moduli (GPa) = 130.24779 57.69569 111.98217
#
# Poissons Ratio (x) = 0.29671 0.16008
# Poissons Ratio (y) = 0.66982 0.11629
# Poissons Ratio (z) = 0.18619 0.05992
#
# Static dielectric constant tensor:
#      x y z
#    x 1.773500 0.000000 0.000000 
#    y 0.000000 1.763240 0.000000 
#    z 0.000000 0.000000 1.774020 
# 
# From -- ./inp_files/28739.got.cif
#   From: 2010.05.17/outbox.cif.g08.bks.cpg/sg66_15_cif.got.tgz:28739.got - 2010.06.03 17:51:23.
