data_PCOD9497884
_publ_section_title
;
Structure prediction by ZEFSAII (Michael W. Deem and Ramdas Pophale) SiO2 
 PCOD9497884
Probable space group: C C C M
;
_chemical_formula_sum "Si O2"
_cell_formula_units_Z 68
_cell_length_a 4.881939
_cell_length_b 28.038912
_cell_length_c 20.232976
_cell_angle_alpha 90.000000
_cell_angle_beta 90.000000
_cell_angle_gamma 90.000000
_cell_volume 2769.575907
_symmetry_space_group_name_H-M "C C C M"
_symmetry_group_IT_number 66
_symmetry_cell_setting 'orthorhombic'
loop_
_space_group_symop_operation_xyz
x,y,z
-x,-y,z
x,-y,1/2-z
-x,y,1/2-z
-x,-y,-z
x,y,-z
-x,y,1/2+z
x,-y,1/2+z
1/2+x,1/2+y,z
1/2-x,1/2-y,z
1/2+x,1/2-y,1/2-z
1/2-x,1/2+y,1/2-z
1/2-x,1/2-y,-z
1/2+x,1/2+y,-z
1/2-x,1/2+y,1/2+z
1/2+x,1/2-y,1/2+z
loop_
_atom_site_type_symbol
_atom_site_label
_atom_site_fract_x
_atom_site_fract_y
_atom_site_fract_z
Si Si1 0.829515 0.091527 0.573221
Si Si2 0.276167 0.301941 0.890029
Si Si3 0.717603 0.179187 0.193927
Si Si4 0.000000 0.000000 0.750000
Si Si5 0.687567 0.072864 0.840815
O O1 0.744098 0.076834 0.500000
O O2 0.860312 0.149292 0.574774
O O3 0.619557 0.075770 0.631105
O O4 0.122641 0.071989 0.594334
O O5 0.250000 0.250000 0.921701
O O6 0.486704 0.299315 0.826118
O O7 0.964740 0.312382 0.870363
O O8 0.500000 0.195210 0.250000
O O9 0.748993 0.122241 0.198489
O O10 0.202933 0.968470 0.794613
#
# Coordination Sequence:
#
# PCOD9497884 Si02
#       5
#    16  16  16   4  16
#     4  10  22  45  68  94 136 179 218 266 332 393
#     4  10  21  36  59  94 129 171 228 268 312 380
#     4  10  21  37  59  85 134 175 212 264 332 390
#     4  12  28  46  74 102 136 158 228 280 332 410
#     4  10  25  41  68 100 127 173 215 274 337 396
#
# _framework density 24.552496999999999
#
# number of rings (size 3 to 8) (size 9 to 14) (size 15 to 20)
#    0.000    1.882    0.000    2.118    9.882    4.235 
#    0.000    3.529    2.588    8.471    0.000    0.000 
#    0.000    0.000    0.000    0.000    0.000    0.000 
#
# Total GULP energy -189807.355720 kJ/mol
# GULP energy per Si atom -5582.569286 kJ/mol
# Density = 2.449661 g / cm^3
# Si number density = 24.552497 Si / 1000 Ang^3
#
#
#
# Elastic Constant Matrix: (Units=GPa)
#
#
# Indices 1 2 3 4 5 6 
#
# 1 142.6634 8.7792 25.1370 0.0000 0.0000 0.0000
# 2 8.7792 117.0359 38.0726 0.0000 0.0000 0.0000
# 3 25.1370 38.0726 84.1525 0.0000 0.0000 0.0000
# 4 0.0000 0.0000 0.0000 -5.3912 0.0000 0.0000
# 5 0.0000 0.0000 0.0000 0.0000 5.3437 0.0000
# 6 0.0000 0.0000 0.0000 0.0000 0.0000 6.8527
#
#
#
# Elastic Compliance Matrix: (Units=1/GPa)
#
#
# Indices 1 2 3 4 5 6 
#
# 1 0.007403 0.000192 -0.002298 0.000000 0.000000 0.000000
# 2 0.000192 0.010024 -0.004593 0.000000 0.000000 0.000000
# 3 -0.002298 -0.004593 0.014647 0.000000 0.000000 0.000000
# 4 0.000000 0.000000 0.000000 -0.185486 0.000000 0.000000
# 5 0.000000 0.000000 0.000000 0.000000 0.187136 0.000000
# 6 0.000000 0.000000 0.000000 0.000000 0.000000 0.145927
#
#
# Mechanical properties :
#
#
# Convention : Reuss Voigt Hill
#
# Bulk Modulus (GPa) = 53.54129 54.20326 53.87228
# Shear Modulus (GPa) = 25.09113 19.48524 22.28819
#
# Velocity S-wave (km/s) = 3.20024 2.82017 3.01620
# Velocity P-wave (km/s) = 5.95900 5.72092 5.84117
#
# Compressibility (1/GPa) = 0.01867717
#
# Stress axis : x y z
#
# Youngs Moduli (GPa) = 135.08742 99.76115 68.27121
#
# Poissons Ratio (x) = -0.01919 0.15690
# Poissons Ratio (y) = -0.02598 0.31354
# Poissons Ratio (z) = 0.31046 0.45816
#
# Static dielectric constant tensor:
#      x y z
#    x 1.880760 0.000000 0.000000 
#    y 0.000000 2.007770 0.000000 
#    z 0.000000 0.000000 2.032070 
# 
# From -- ./inp_files/45776.got.cif
#   From: 2010.05.17/outbox.cif.g08.bks.cpg/sg66_23_cif.got.tgz:45776.got - 2010.06.03 17:51:23.
