data_PCOD9497864
_publ_section_title
;
Structure prediction by ZEFSAII (Michael W. Deem and Ramdas Pophale) SiO2 
 PCOD9497864
Probable space group: C C C M
;
_chemical_formula_sum "Si O2"
_cell_formula_units_Z 48
_cell_length_a 18.572822
_cell_length_b 7.676038
_cell_length_c 14.544022
_cell_angle_alpha 90.000000
_cell_angle_beta 90.000000
_cell_angle_gamma 90.000000
_cell_volume 2073.478495
_symmetry_space_group_name_H-M "C C C M"
_symmetry_group_IT_number 66
_symmetry_cell_setting 'orthorhombic'
loop_
_space_group_symop_operation_xyz
x,y,z
-x,-y,z
x,-y,1/2-z
-x,y,1/2-z
-x,-y,-z
x,y,-z
-x,y,1/2+z
x,-y,1/2+z
1/2+x,1/2+y,z
1/2-x,1/2-y,z
1/2+x,1/2-y,1/2-z
1/2-x,1/2+y,1/2-z
1/2-x,1/2-y,-z
1/2+x,1/2+y,-z
1/2-x,1/2+y,1/2+z
1/2+x,1/2-y,1/2+z
loop_
_atom_site_type_symbol
_atom_site_label
_atom_site_fract_x
_atom_site_fract_y
_atom_site_fract_z
Si Si1 0.930381 0.319508 0.699410
Si Si2 0.623255 0.576375 0.500000
Si Si3 0.521715 0.232751 0.500000
Si Si4 0.796162 0.088532 0.662159
O O1 0.914446 0.500000 0.750000
O O2 0.951589 0.353389 0.593816
O O3 0.866138 0.184857 0.702248
O O4 0.000000 0.241781 0.750000
O O5 0.568585 0.411582 0.500000
O O6 0.564507 0.731366 0.500000
O O7 0.675213 0.549688 0.587700
O O8 0.750000 0.250000 0.621711
O O9 0.758556 0.000000 0.750000
#
# Coordination Sequence:
#
# PCOD9497864 Si02
#       4
#    16   8   8  16
#     4  10  21  36  57  86 118 152 190 239 291 343
#     4   9  19  36  61  85 112 154 199 239 280 343
#     4   9  18  35  58  87 117 150 195 239 284 340
#     4  11  22  38  59  84 117 154 196 242 292 346
#
# _framework density 23.149504
#
# number of rings (size 3 to 8) (size 9 to 14) (size 15 to 20)
#    0.000    2.000    0.000    3.500    0.000    6.000 
#    0.000    2.500    0.000    0.000    0.000    0.000 
#    0.000    0.000    0.000    0.000    0.000    0.000 
#
# Total GULP energy -134066.019694 kJ/mol
# GULP energy per Si atom -5586.084154 kJ/mol
# Density = 2.309681 g / cm^3
# Si number density = 23.149504 Si / 1000 Ang^3
#
#
#
# Elastic Constant Matrix: (Units=GPa)
#
#
# Indices 1 2 3 4 5 6 
#
# 1 80.1908 2.8282 13.6640 0.0000 0.0000 0.0000
# 2 2.8282 58.7511 33.7433 0.0000 0.0000 0.0000
# 3 13.6640 33.7433 177.6286 0.0000 0.0000 0.0000
# 4 0.0000 0.0000 0.0000 35.4283 0.0000 0.0000
# 5 0.0000 0.0000 0.0000 0.0000 16.4981 0.0000
# 6 0.0000 0.0000 0.0000 0.0000 0.0000 27.5372
#
#
#
# Elastic Compliance Matrix: (Units=1/GPa)
#
#
# Indices 1 2 3 4 5 6 
#
# 1 0.012636 -0.000056 -0.000961 0.000000 0.000000 0.000000
# 2 -0.000056 0.019106 -0.003625 0.000000 0.000000 0.000000
# 3 -0.000961 -0.003625 0.006392 0.000000 0.000000 0.000000
# 4 0.000000 0.000000 0.000000 0.028226 0.000000 0.000000
# 5 0.000000 0.000000 0.000000 0.000000 0.060613 0.000000
# 6 0.000000 0.000000 0.000000 0.000000 0.000000 0.036315
#
#
# Mechanical properties :
#
#
# Convention : Reuss Voigt Hill
#
# Bulk Modulus (GPa) = 34.66340 46.33796 40.50068
# Shear Modulus (GPa) = 27.44397 33.64837 30.54617
#
# Velocity S-wave (km/s) = 3.44686 3.81665 3.63646
# Velocity P-wave (km/s) = 5.55404 6.28352 5.93001
#
# Compressibility (1/GPa) = 0.02884887
#
# Stress axis : x y z
#
# Youngs Moduli (GPa) = 79.13863 52.34040 156.43772
#
# Poissons Ratio (x) = 0.00294 0.15039
# Poissons Ratio (y) = 0.00444 0.56710
# Poissons Ratio (z) = 0.07608 0.18974
#
# Static dielectric constant tensor:
#      x y z
#    x 1.854820 0.000000 0.000000 
#    y 0.000000 1.957020 0.000000 
#    z 0.000000 0.000000 1.904330 
# 
# From -- ./inp_files/23549.got.cif
#   From: 2010.05.17/outbox.cif.g08.bks.cpg/sg66_12_cif.got.tgz:23549.got - 2010.06.03 17:51:23.
