data_PCOD9497247
_publ_section_title
;
Structure prediction by ZEFSAII (Michael W. Deem and Ramdas Pophale) SiO2 
 PCOD9497247
Probable space group: C C C M
;
_chemical_formula_sum "Si O2"
_cell_formula_units_Z 64
_cell_length_a 20.895121
_cell_length_b 9.464082
_cell_length_c 15.094840
_cell_angle_alpha 90.000000
_cell_angle_beta 90.000000
_cell_angle_gamma 90.000000
_cell_volume 2985.051986
_symmetry_space_group_name_H-M "C C C M"
_symmetry_group_IT_number 66
_symmetry_cell_setting 'orthorhombic'
loop_
_space_group_symop_operation_xyz
x,y,z
-x,-y,z
x,-y,1/2-z
-x,y,1/2-z
-x,-y,-z
x,y,-z
-x,y,1/2+z
x,-y,1/2+z
1/2+x,1/2+y,z
1/2-x,1/2-y,z
1/2+x,1/2-y,1/2-z
1/2-x,1/2+y,1/2-z
1/2-x,1/2-y,-z
1/2+x,1/2+y,-z
1/2-x,1/2+y,1/2+z
1/2+x,1/2-y,1/2+z
loop_
_atom_site_type_symbol
_atom_site_label
_atom_site_fract_x
_atom_site_fract_y
_atom_site_fract_z
Si Si1 0.941912 0.906737 0.104580
Si Si2 0.684549 0.428972 0.844438
Si Si3 0.562517 0.087946 0.391640
Si Si4 0.325493 0.117444 0.397420
O O1 0.938655 0.748349 0.142019
O O2 0.875228 0.988612 0.114429
O O3 0.954873 0.889802 0.000000
O O4 0.000000 0.000000 0.142089
O O5 0.694852 0.500000 0.750000
O O6 0.669040 0.262058 0.842564
O O7 0.752512 0.435763 0.893974
O O8 0.563046 0.092317 0.500000
O O9 0.500000 0.000000 0.365131
O O10 0.625694 0.001694 0.366152
O O11 0.340870 0.154450 0.500000
#
# Coordination Sequence:
#
# PCOD9497247 Si02
#       4
#    16  16  16  16
#     4  10  20  36  60  86 114 151 197 246 294 352
#     4  11  23  37  57  84 117 153 193 246 302 354
#     4   9  18  33  57  87 113 143 189 243 291 340
#     4  10  21  40  63  85 117 161 204 243 295 368
#
# _framework density 21.440162000000001
#
# number of rings (size 3 to 8) (size 9 to 14) (size 15 to 20)
#    0.000    2.000    0.000    4.500    0.000    9.500 
#    0.000    3.750    0.000    5.250    0.000    0.000 
#    0.000    0.000    0.000    0.000    0.000    0.000 
#
# Total GULP energy -178812.295395 kJ/mol
# GULP energy per Si atom -5587.884231 kJ/mol
# Density = 2.139136 g / cm^3
# Si number density = 21.440162 Si / 1000 Ang^3
#
#
#
# Elastic Constant Matrix: (Units=GPa)
#
#
# Indices 1 2 3 4 5 6 
#
# 1 161.5672 130.7808 -14.1660 0.0000 0.0000 0.0000
# 2 130.7808 214.4446 22.2663 0.0000 0.0000 0.0000
# 3 -14.1660 22.2663 52.1748 0.0000 0.0000 0.0000
# 4 0.0000 0.0000 0.0000 25.3721 0.0000 0.0000
# 5 0.0000 0.0000 0.0000 0.0000 214.9887 0.0000
# 6 0.0000 0.0000 0.0000 0.0000 0.0000 35.1312
#
#
#
# Elastic Compliance Matrix: (Units=1/GPa)
#
#
# Indices 1 2 3 4 5 6 
#
# 1 0.015067 -0.010059 0.008384 0.000000 0.000000 0.000000
# 2 -0.010059 0.011595 -0.007680 0.000000 0.000000 0.000000
# 3 0.008384 -0.007680 0.024720 0.000000 0.000000 0.000000
# 4 0.000000 0.000000 0.000000 0.039413 0.000000 0.000000
# 5 0.000000 0.000000 0.000000 0.000000 0.004651 0.000000
# 6 0.000000 0.000000 0.000000 0.000000 0.000000 0.028465
#
#
# Mechanical properties :
#
#
# Convention : Reuss Voigt Hill
#
# Bulk Modulus (GPa) = 30.60730 78.43875 54.52302
# Shear Modulus (GPa) = 32.57068 74.38542 53.47805
#
# Velocity S-wave (km/s) = 3.90185 5.89659 4.99971
# Velocity P-wave (km/s) = 5.88268 9.11175 7.66909
#
# Compressibility (1/GPa) = 0.03267194
#
# Stress axis : x y z
#
# Youngs Moduli (GPa) = 66.37100 86.24228 40.45314
#
# Poissons Ratio (x) = 0.86752 -0.33915
# Poissons Ratio (y) = 0.66763 0.31066
# Poissons Ratio (z) = -0.55643 0.66230
#
# Static dielectric constant tensor:
#      x y z
#    x 1.752220 0.000000 0.000000 
#    y 0.000000 1.760310 0.000000 
#    z 0.000000 0.000000 1.808000 
# 
# From -- ./inp_files/31891.got.cif
#   From: 2010.05.17/outbox.cif.g08.bks.cpg/sg66_16_cif.got.tgz:31891.got - 2010.06.03 17:51:23.
