data_PCOD9498292
_publ_section_title
;
Structure prediction by ZEFSAII (Michael W. Deem and Ramdas Pophale) SiO2 
 PCOD9498292
Probable space group: C C C M
;
_chemical_formula_sum "Si O2"
_cell_formula_units_Z 120
_cell_length_a 20.180025
_cell_length_b 12.318512
_cell_length_c 22.322540
_cell_angle_alpha 90.000000
_cell_angle_beta 90.000000
_cell_angle_gamma 90.000000
_cell_volume 5549.112898
_symmetry_space_group_name_H-M "C C C M"
_symmetry_group_IT_number 66
_symmetry_cell_setting 'orthorhombic'
loop_
_space_group_symop_operation_xyz
x,y,z
-x,-y,z
x,-y,1/2-z
-x,y,1/2-z
-x,-y,-z
x,y,-z
-x,y,1/2+z
x,-y,1/2+z
1/2+x,1/2+y,z
1/2-x,1/2-y,z
1/2+x,1/2-y,1/2-z
1/2-x,1/2+y,1/2-z
1/2-x,1/2-y,-z
1/2+x,1/2+y,-z
1/2-x,1/2+y,1/2+z
1/2+x,1/2-y,1/2+z
loop_
_atom_site_type_symbol
_atom_site_label
_atom_site_fract_x
_atom_site_fract_y
_atom_site_fract_z
Si Si1 0.346545 0.469310 0.068045
Si Si2 0.899260 0.796939 0.430521
Si Si3 0.000000 0.500000 0.346336
Si Si4 0.564199 0.791715 0.781775
Si Si5 0.970960 0.114728 0.631321
Si Si6 0.119228 0.559248 0.070442
Si Si7 0.801518 0.339496 0.230925
Si Si8 0.276273 0.049409 0.148842
O O1 0.352530 0.599189 0.075972
O O2 0.420498 0.424955 0.079723
O O3 0.293599 0.432747 0.117124
O O4 0.325855 0.444971 0.000000
O O5 0.921614 0.793836 0.500000
O O6 0.860361 0.684935 0.420243
O O7 0.965077 0.818619 0.391567
O O8 0.959799 0.408238 0.308776
O O9 0.946703 0.552619 0.390247
O O10 0.500000 0.745103 0.750000
O O11 0.574564 0.697838 0.830524
O O12 0.621278 0.808524 0.732677
O O13 0.000000 0.000000 0.657886
O O14 0.170323 0.472459 0.096955
O O15 0.108303 0.541070 0.000000
O O16 0.750000 0.250000 0.211380
O O17 0.784738 0.442863 0.190698
O O18 0.791584 0.359973 0.302204
#
# Coordination Sequence:
#
# PCOD9498292 Si02
#       8
#    16  16   8  16  16  16  16  16
#     4  10  21  39  65  94 131 173 214 263 323 397
#     4   9  19  35  59  94 127 162 203 255 321 383
#     4  12  22  42  66  92 128 161 219 260 326 392
#     4  12  25  41  69  95 126 172 224 278 326 385
#     4  10  21  39  65  95 130 168 209 262 321 394
#     4  11  22  38  63  95 130 159 203 269 326 387
#     4  11  26  44  65  89 128 173 216 275 329 385
#     4  11  24  42  63  92 122 168 224 260 325 389
#
# _framework density 21.625077999999998
#
# number of rings (size 3 to 8) (size 9 to 14) (size 15 to 20)
#    0.000    1.333    2.667    2.800    3.733    2.933 
#    0.000    2.000    0.000    1.600    0.000    0.000 
#    0.000    0.000    0.000    0.000    0.000    0.000 
#
# Total GULP energy -334796.500035 kJ/mol
# GULP energy per Si atom -5579.941667 kJ/mol
# Density = 2.157586 g / cm^3
# Si number density = 21.625078 Si / 1000 Ang^3
#
#
#
# Elastic Constant Matrix: (Units=GPa)
#
#
# Indices 1 2 3 4 5 6 
#
# 1 72.5051 -3.6890 12.7466 0.0000 0.0000 0.0000
# 2 -3.6890 47.3745 -2.4286 0.0000 0.0000 0.0000
# 3 12.7466 -2.4286 59.3774 0.0000 0.0000 0.0000
# 4 0.0000 0.0000 0.0000 66.5792 0.0000 0.0000
# 5 0.0000 0.0000 0.0000 0.0000 24.1323 0.0000
# 6 0.0000 0.0000 0.0000 0.0000 0.0000 20.5267
#
#
#
# Elastic Compliance Matrix: (Units=1/GPa)
#
#
# Indices 1 2 3 4 5 6 
#
# 1 0.014377 0.000963 -0.003047 0.000000 0.000000 0.000000
# 2 0.000963 0.021217 0.000661 0.000000 0.000000 0.000000
# 3 -0.003047 0.000661 0.017523 0.000000 0.000000 0.000000
# 4 0.000000 0.000000 0.000000 0.015020 0.000000 0.000000
# 5 0.000000 0.000000 0.000000 0.000000 0.041438 0.000000
# 6 0.000000 0.000000 0.000000 0.000000 0.000000 0.048717
#
#
# Mechanical properties :
#
#
# Convention : Reuss Voigt Hill
#
# Bulk Modulus (GPa) = 19.89198 21.39056 20.64127
# Shear Modulus (GPa) = 28.10667 33.75620 30.93143
#
# Velocity S-wave (km/s) = 3.60908 3.95520 3.78610
# Velocity P-wave (km/s) = 5.15615 5.54718 5.35523
#
# Compressibility (1/GPa) = 0.05027151
#
# Stress axis : x y z
#
# Youngs Moduli (GPa) = 69.55654 47.13139 57.06941
#
# Poissons Ratio (x) = -0.04540 0.17388
# Poissons Ratio (y) = -0.06700 -0.03772
# Poissons Ratio (z) = 0.21193 -0.03115
#
# Static dielectric constant tensor:
#      x y z
#    x 1.732350 0.000000 0.000000 
#    y 0.000000 1.823450 0.000000 
#    z 0.000000 0.000000 1.833360 
# 
# From -- ./inp_files/59605.got.cif
#   From: 2010.05.17/outbox.cif.g08.bks.cpg/sg66_30_cif.got.tgz:59605.got - 2010.06.03 17:51:23.
