data_PCOD9498218
_publ_section_title
;
Structure prediction by ZEFSAII (Michael W. Deem and Ramdas Pophale) SiO2 
 PCOD9498218
Probable space group: C C C M
;
_chemical_formula_sum "Si O2"
_cell_formula_units_Z 56
_cell_length_a 34.575961
_cell_length_b 5.109952
_cell_length_c 14.309932
_cell_angle_alpha 90.000000
_cell_angle_beta 90.000000
_cell_angle_gamma 90.000000
_cell_volume 2528.300266
_symmetry_space_group_name_H-M "C C C M"
_symmetry_group_IT_number 66
_symmetry_cell_setting 'orthorhombic'
loop_
_space_group_symop_operation_xyz
x,y,z
-x,-y,z
x,-y,1/2-z
-x,y,1/2-z
-x,-y,-z
x,y,-z
-x,y,1/2+z
x,-y,1/2+z
1/2+x,1/2+y,z
1/2-x,1/2-y,z
1/2+x,1/2-y,1/2-z
1/2-x,1/2+y,1/2-z
1/2-x,1/2-y,-z
1/2+x,1/2+y,-z
1/2-x,1/2+y,1/2+z
1/2+x,1/2-y,1/2+z
loop_
_atom_site_type_symbol
_atom_site_label
_atom_site_fract_x
_atom_site_fract_y
_atom_site_fract_z
Si Si1 0.225476 0.496368 0.136294
Si Si2 0.090692 0.014850 0.361887
Si Si3 0.528067 0.259299 0.000000
Si Si4 0.862707 0.503306 0.137059
O O1 0.223874 0.500000 0.250000
O O2 0.250000 0.750000 0.108322
O O3 0.181181 0.459763 0.106013
O O4 0.250000 0.250000 0.107088
O O5 0.105722 0.725132 0.391311
O O6 0.084106 0.000000 0.250000
O O7 0.055348 0.169760 0.410958
O O8 0.125370 0.209797 0.386909
O O9 0.500000 0.500000 0.000000
O O10 0.500000 0.000000 0.000000
O O11 0.863257 0.500000 0.250000
#
# Coordination Sequence:
#
# PCOD9498218 Si02
#       4
#    16  16   8  16
#     4   9  15  23  40  73 114 151 192 244 291 334
#     4  10  21  39  61  87 118 155 197 243 297 363
#     4  12  26  44  66  94 122 152 196 250 312 382
#     4   9  17  31  53  81 116 157 201 243 290 354
#
# _framework density 22.149266999999998
#
# number of rings (size 3 to 8) (size 9 to 14) (size 15 to 20)
#    0.000    2.286    0.000    3.429    0.000    7.429 
#    0.000    1.429    0.000    0.000    0.000   20.000 
#    0.000    0.000    0.000    0.000    0.000    0.000 
#
# Total GULP energy -155984.473617 kJ/mol
# GULP energy per Si atom -5570.874058 kJ/mol
# Density = 2.209885 g / cm^3
# Si number density = 22.149267 Si / 1000 Ang^3
#
#
#
# Elastic Constant Matrix: (Units=GPa)
#
#
# Indices 1 2 3 4 5 6 
#
# 1 141.5505 58.5172 33.1277 0.0000 0.0000 0.0000
# 2 58.5172 179.1848 24.5897 0.0000 0.0000 0.0000
# 3 33.1277 24.5897 134.9252 0.0000 0.0000 0.0000
# 4 0.0000 0.0000 0.0000 3.6095 0.0000 0.0000
# 5 0.0000 0.0000 0.0000 0.0000 -206.9704 0.0000
# 6 0.0000 0.0000 0.0000 0.0000 0.0000 55.6386
#
#
#
# Elastic Compliance Matrix: (Units=1/GPa)
#
#
# Indices 1 2 3 4 5 6 
#
# 1 0.008500 -0.002553 -0.001622 0.000000 0.000000 0.000000
# 2 -0.002553 0.006491 -0.000556 0.000000 0.000000 0.000000
# 3 -0.001622 -0.000556 0.007911 0.000000 0.000000 0.000000
# 4 0.000000 0.000000 0.000000 0.277043 0.000000 0.000000
# 5 0.000000 0.000000 0.000000 0.000000 -0.004832 0.000000
# 6 0.000000 0.000000 0.000000 0.000000 0.000000 0.017973
#
#
# Mechanical properties :
#
#
# Convention : Reuss Voigt Hill
#
# Bulk Modulus (GPa) = 74.40560 76.45884 75.43222
# Shear Modulus (GPa) = 15.28921 -6.91606 4.18657
#
# Velocity S-wave (km/s) = 2.63017 -1.76897 1.37632
# Velocity P-wave (km/s) = 6.54900 5.51565 6.05441
#
# Compressibility (1/GPa) = 0.01343985
#
# Stress axis : x y z
#
# Youngs Moduli (GPa) = 117.65217 154.06034 126.40637
#
# Poissons Ratio (x) = 0.39335 0.20498
# Poissons Ratio (y) = 0.30039 0.07029
# Poissons Ratio (z) = 0.19078 0.08567
#
# Static dielectric constant tensor:
#      x y z
#    x 1.744090 0.000000 0.000000 
#    y 0.000000 1.748800 0.000000 
#    z 0.000000 0.000000 1.883730 
# 
# From -- ./inp_files/22519.got.cif
#   From: 2010.05.17/outbox.cif.g08.bks.cpg/sg66_12_cif.got.tgz:22519.got - 2010.06.03 17:51:23.
