data_PCOD9498595
_publ_section_title
;
Structure prediction by ZEFSAII (Michael W. Deem and Ramdas Pophale) SiO2 
 PCOD9498595
Probable space group: C C C M
;
_chemical_formula_sum "Si O2"
_cell_formula_units_Z 96
_cell_length_a 17.424119
_cell_length_b 13.080286
_cell_length_c 24.050244
_cell_angle_alpha 90.000000
_cell_angle_beta 90.000000
_cell_angle_gamma 90.000000
_cell_volume 5481.350269
_symmetry_space_group_name_H-M "C C C M"
_symmetry_group_IT_number 66
_symmetry_cell_setting 'orthorhombic'
loop_
_space_group_symop_operation_xyz
x,y,z
-x,-y,z
x,-y,1/2-z
-x,y,1/2-z
-x,-y,-z
x,y,-z
-x,y,1/2+z
x,-y,1/2+z
1/2+x,1/2+y,z
1/2-x,1/2-y,z
1/2+x,1/2-y,1/2-z
1/2-x,1/2+y,1/2-z
1/2-x,1/2-y,-z
1/2+x,1/2+y,-z
1/2-x,1/2+y,1/2+z
1/2+x,1/2-y,1/2+z
loop_
_atom_site_type_symbol
_atom_site_label
_atom_site_fract_x
_atom_site_fract_y
_atom_site_fract_z
Si Si1 0.988921 0.622002 0.500000
Si Si2 0.715659 0.419196 0.299989
Si Si3 0.515789 0.121983 0.620453
Si Si4 0.131396 0.285190 0.789637
Si Si5 0.765533 0.094682 0.118870
Si Si6 0.131909 0.268683 0.661538
Si Si7 0.199646 0.355505 0.500000
O O1 0.895240 0.647675 0.500000
O O2 0.000000 0.500000 0.500000
O O3 0.032550 0.652286 0.556612
O O4 0.698702 0.500000 0.250000
O O5 0.794776 0.359845 0.287274
O O6 0.655302 0.328311 0.308362
O O7 0.722869 0.484375 0.355709
O O8 0.573441 0.161177 0.667767
O O9 0.436554 0.179205 0.630044
O O10 0.500000 0.000000 0.625052
O O11 0.107620 0.264696 0.725803
O O12 0.840349 0.165192 0.130786
O O13 0.703026 0.153899 0.156298
O O14 0.730506 0.093991 0.057049
O O15 0.250000 0.250000 0.500000
#
# Coordination Sequence:
#
# PCOD9498595 Si02
#       7
#     8  16  16  16  16  16   8
#     4  10  22  38  55  85 121 161 196 245 305 355
#     4  11  20  38  59  80 119 156 193 242 295 355
#     4  11  23  37  57  85 123 156 197 247 304 352
#     4  11  23  35  57  91 116 158 194 238 303 367
#     4  11  20  34  62  86 118 151 197 248 295 338
#     4  11  19  34  57  90 114 147 199 245 294 353
#     4  12  20  36  63  93 117 151 213 256 288 351
#
# _framework density 17.513932
#
# number of rings (size 3 to 8) (size 9 to 14) (size 15 to 20)
#    0.000    1.000    6.667    2.500    2.333    0.667 
#    0.000    1.667    0.000    2.000    0.000    3.500 
#    0.000    0.000    0.000    0.000    0.000    0.000 
#
# Total GULP energy -267252.632114 kJ/mol
# GULP energy per Si atom -5567.763169 kJ/mol
# Density = 1.747407 g / cm^3
# Si number density = 17.513932 Si / 1000 Ang^3
#
#
#
# Elastic Constant Matrix: (Units=GPa)
#
#
# Indices 1 2 3 4 5 6 
#
# 1 36.2389 12.1007 18.8950 0.0000 0.0000 0.0000
# 2 12.1007 89.2317 34.6429 0.0000 0.0000 0.0000
# 3 18.8950 34.6429 136.0848 0.0000 0.0000 0.0000
# 4 0.0000 0.0000 0.0000 24.9595 0.0000 0.0000
# 5 0.0000 0.0000 0.0000 0.0000 20.6233 0.0000
# 6 0.0000 0.0000 0.0000 0.0000 0.0000 19.9611
#
#
#
# Elastic Compliance Matrix: (Units=1/GPa)
#
#
# Indices 1 2 3 4 5 6 
#
# 1 0.030345 -0.002751 -0.003513 0.000000 0.000000 0.000000
# 2 -0.002751 0.012685 -0.002847 0.000000 0.000000 0.000000
# 3 -0.003513 -0.002847 0.008561 0.000000 0.000000 0.000000
# 4 0.000000 0.000000 0.000000 0.040065 0.000000 0.000000
# 5 0.000000 0.000000 0.000000 0.000000 0.048489 0.000000
# 6 0.000000 0.000000 0.000000 0.000000 0.000000 0.050097
#
#
# Mechanical properties :
#
#
# Convention : Reuss Voigt Hill
#
# Bulk Modulus (GPa) = 29.96855 43.64808 36.80832
# Shear Modulus (GPa) = 22.76992 26.16991 24.46991
#
# Velocity S-wave (km/s) = 3.60961 3.86973 3.74193
# Velocity P-wave (km/s) = 5.87544 6.70391 6.30330
#
# Compressibility (1/GPa) = 0.03336831
#
# Stress axis : x y z
#
# Youngs Moduli (GPa) = 32.95437 78.83152 116.80951
#
# Poissons Ratio (x) = 0.21688 0.41035
# Poissons Ratio (y) = 0.09067 0.33259
# Poissons Ratio (z) = 0.11577 0.22445
#
# Static dielectric constant tensor:
#      x y z
#    x 1.632140 0.000000 0.000000 
#    y 0.000000 1.679360 0.000000 
#    z 0.000000 0.000000 1.709720 
# 
# From -- ./inp_files/58816.got.cif
#   From: 2010.05.17/outbox.cif.g08.bks.cpg/sg66_30_cif.got.tgz:58816.got - 2010.06.03 17:51:23.
