data_PCOD9498205
_publ_section_title
;
Structure prediction by ZEFSAII (Michael W. Deem and Ramdas Pophale) SiO2 
 PCOD9498205
Probable space group: C C C M
;
_chemical_formula_sum "Si O2"
_cell_formula_units_Z 96
_cell_length_a 25.996812
_cell_length_b 8.297601
_cell_length_c 21.964732
_cell_angle_alpha 90.000000
_cell_angle_beta 90.000000
_cell_angle_gamma 90.000000
_cell_volume 4738.038110
_symmetry_space_group_name_H-M "C C C M"
_symmetry_group_IT_number 66
_symmetry_cell_setting 'orthorhombic'
loop_
_space_group_symop_operation_xyz
x,y,z
-x,-y,z
x,-y,1/2-z
-x,y,1/2-z
-x,-y,-z
x,y,-z
-x,y,1/2+z
x,-y,1/2+z
1/2+x,1/2+y,z
1/2-x,1/2-y,z
1/2+x,1/2-y,1/2-z
1/2-x,1/2+y,1/2-z
1/2-x,1/2-y,-z
1/2+x,1/2+y,-z
1/2-x,1/2+y,1/2+z
1/2+x,1/2-y,1/2+z
loop_
_atom_site_type_symbol
_atom_site_label
_atom_site_fract_x
_atom_site_fract_y
_atom_site_fract_z
Si Si1 0.102172 0.671601 0.282042
Si Si2 0.796332 0.127426 0.303088
Si Si3 0.476877 0.158026 0.107408
Si Si4 0.450423 0.383112 0.323188
Si Si5 0.212307 0.903197 0.565015
Si Si6 0.906000 0.070023 0.564995
O O1 0.113383 0.500000 0.250000
O O2 0.153172 0.759504 0.306199
O O3 0.063064 0.631194 0.336777
O O4 0.075990 0.802909 0.235763
O O5 0.750000 0.250000 0.290035
O O6 0.783014 0.033201 0.366171
O O7 0.803600 0.000000 0.250000
O O8 0.525741 0.237413 0.139307
O O9 0.447904 0.289020 0.067253
O O10 0.500000 0.000000 0.077132
O O11 0.500000 0.500000 0.312724
O O12 0.413874 0.472868 0.372019
O O13 0.222495 0.991444 0.500000
O O14 0.250000 0.750000 0.564654
O O15 0.151726 0.862091 0.563233
O O16 0.913135 0.979399 0.500000
#
# Coordination Sequence:
#
# PCOD9498205 Si02
#       6
#    16  16  16  16  16  16
#     4  12  23  38  60  88 125 161 203 261 310 373
#     4  11  23  40  64  96 128 160 201 258 322 376
#     4  11  22  37  55  87 120 164 204 254 304 364
#     4  10  23  36  58  85 121 160 208 250 309 369
#     4   9  18  36  62  88 116 155 204 249 299 369
#     4  10  21  39  60  87 120 159 209 260 305 367
#
# _framework density 20.261551999999998
#
# number of rings (size 3 to 8) (size 9 to 14) (size 15 to 20)
#    0.000    1.500    3.333    2.000    2.333    5.333 
#    0.000    0.000    0.000    1.500    0.000    4.667 
#    0.000    0.000    0.000    0.000    0.000    0.000 
#
# Total GULP energy -267325.623183 kJ/mol
# GULP energy per Si atom -5569.283816 kJ/mol
# Density = 2.021544 g / cm^3
# Si number density = 20.261552 Si / 1000 Ang^3
#
#
#
# Elastic Constant Matrix: (Units=GPa)
#
#
# Indices 1 2 3 4 5 6 
#
# 1 95.4696 16.4142 7.0639 0.0000 0.0000 0.0000
# 2 16.4142 55.5819 26.7894 0.0000 0.0000 0.0000
# 3 7.0639 26.7894 140.1126 0.0000 0.0000 0.0000
# 4 0.0000 0.0000 0.0000 2.9302 0.0000 0.0000
# 5 0.0000 0.0000 0.0000 0.0000 70.8352 0.0000
# 6 0.0000 0.0000 0.0000 0.0000 0.0000 6.9453
#
#
#
# Elastic Compliance Matrix: (Units=1/GPa)
#
#
# Indices 1 2 3 4 5 6 
#
# 1 0.011036 -0.003294 0.000074 0.000000 0.000000 0.000000
# 2 -0.003294 0.020801 -0.003811 0.000000 0.000000 0.000000
# 3 0.000074 -0.003811 0.007862 0.000000 0.000000 0.000000
# 4 0.000000 0.000000 0.000000 0.341275 0.000000 0.000000
# 5 0.000000 0.000000 0.000000 0.000000 0.014117 0.000000
# 6 0.000000 0.000000 0.000000 0.000000 0.000000 0.143983
#
#
# Mechanical properties :
#
#
# Convention : Reuss Voigt Hill
#
# Bulk Modulus (GPa) = 39.00933 43.52214 41.26573
# Shear Modulus (GPa) = 8.90181 32.20189 20.55185
#
# Velocity S-wave (km/s) = 2.09833 3.99094 3.18831
# Velocity P-wave (km/s) = 5.01651 6.53939 5.82790
#
# Compressibility (1/GPa) = 0.02563489
#
# Stress axis : x y z
#
# Youngs Moduli (GPa) = 90.61660 48.07405 127.19264
#
# Poissons Ratio (x) = 0.15838 -0.00935
# Poissons Ratio (y) = 0.29853 0.48474
# Poissons Ratio (z) = -0.00666 0.18321
#
# Static dielectric constant tensor:
#      x y z
#    x 1.703830 0.000000 0.000000 
#    y 0.000000 1.736860 0.000000 
#    z 0.000000 0.000000 1.825980 
# 
# From -- ./inp_files/52969.got.cif
#   From: 2010.05.17/outbox.cif.g08.bks.cpg/sg66_27_cif.got.tgz:52969.got - 2010.06.03 17:51:23.
