data_PCOD9498708
_publ_section_title
;
Structure prediction by ZEFSAII (Michael W. Deem and Ramdas Pophale) SiO2 
 PCOD9498708
Probable space group: C C C M
;
_chemical_formula_sum "Si O2"
_cell_formula_units_Z 80
_cell_length_a 11.413021
_cell_length_b 25.072090
_cell_length_c 15.302551
_cell_angle_alpha 90.000000
_cell_angle_beta 90.000000
_cell_angle_gamma 90.000000
_cell_volume 4378.798796
_symmetry_space_group_name_H-M "C C C M"
_symmetry_group_IT_number 66
_symmetry_cell_setting 'orthorhombic'
loop_
_space_group_symop_operation_xyz
x,y,z
-x,-y,z
x,-y,1/2-z
-x,y,1/2-z
-x,-y,-z
x,y,-z
-x,y,1/2+z
x,-y,1/2+z
1/2+x,1/2+y,z
1/2-x,1/2-y,z
1/2+x,1/2-y,1/2-z
1/2-x,1/2+y,1/2-z
1/2-x,1/2-y,-z
1/2+x,1/2+y,-z
1/2-x,1/2+y,1/2+z
1/2+x,1/2-y,1/2+z
loop_
_atom_site_type_symbol
_atom_site_label
_atom_site_fract_x
_atom_site_fract_y
_atom_site_fract_z
Si Si1 0.271096 0.904422 0.906244
Si Si2 0.252784 0.186915 0.102310
Si Si3 0.812977 0.520944 0.843864
Si Si4 0.365046 0.394416 0.772306
Si Si5 0.525689 0.117338 0.353940
O O1 0.200691 0.887580 0.820341
O O2 0.400733 0.879875 0.899307
O O3 0.286479 0.968575 0.898712
O O4 0.217171 0.890898 0.000000
O O5 0.250000 0.250000 0.117271
O O6 0.163506 0.155386 0.165116
O O7 0.381494 0.163143 0.123496
O O8 0.227374 0.176542 0.000000
O O9 0.857299 0.500000 0.750000
O O10 0.697003 0.555327 0.820458
O O11 0.908091 0.562359 0.879246
O O12 0.500000 0.402705 0.750000
O O13 0.500000 0.116494 0.250000
#
# Coordination Sequence:
#
# PCOD9498708 Si02
#       5
#    16  16  16  16  16
#     4  11  22  34  56  88 121 154 194 238 287 343
#     4  10  22  40  63  88 112 146 195 248 305 359
#     4   9  18  31  52  81 117 154 193 226 282 342
#     4  10  22  40  58  79 116 161 198 245 291 349
#     4  11  18  34  60  86 117 154 186 239 298 351
#
# _framework density 18.269850000000002
#
# number of rings (size 3 to 8) (size 9 to 14) (size 15 to 20)
#    0.000    1.800    6.000    1.200    0.000   10.000 
#    0.000    1.000    0.000    0.600    0.000    0.000 
#    0.000    0.000    0.000    0.000    0.000    0.000 
#
# Total GULP energy -223200.591383 kJ/mol
# GULP energy per Si atom -5580.014785 kJ/mol
# Density = 1.822827 g / cm^3
# Si number density = 18.269850 Si / 1000 Ang^3
#
#
#
# Elastic Constant Matrix: (Units=GPa)
#
#
# Indices 1 2 3 4 5 6 
#
# 1 102.0942 12.1543 4.9351 0.0000 0.0000 0.0000
# 2 12.1543 71.6990 18.7756 0.0000 0.0000 0.0000
# 3 4.9351 18.7756 90.3046 0.0000 0.0000 0.0000
# 4 0.0000 0.0000 0.0000 14.3714 0.0000 0.0000
# 5 0.0000 0.0000 0.0000 0.0000 4.7278 0.0000
# 6 0.0000 0.0000 0.0000 0.0000 0.0000 8.4014
#
#
#
# Elastic Compliance Matrix: (Units=1/GPa)
#
#
# Indices 1 2 3 4 5 6 
#
# 1 0.010000 -0.001641 -0.000205 0.000000 0.000000 0.000000
# 2 -0.001641 0.015020 -0.003033 0.000000 0.000000 0.000000
# 3 -0.000205 -0.003033 0.011715 0.000000 0.000000 0.000000
# 4 0.000000 0.000000 0.000000 0.069582 0.000000 0.000000
# 5 0.000000 0.000000 0.000000 0.000000 0.211516 0.000000
# 6 0.000000 0.000000 0.000000 0.000000 0.000000 0.119028
#
#
# Mechanical properties :
#
#
# Convention : Reuss Voigt Hill
#
# Bulk Modulus (GPa) = 37.07025 37.31419 37.19222
# Shear Modulus (GPa) = 10.97423 20.71564 15.84494
#
# Velocity S-wave (km/s) = 2.45352 3.37095 2.94814
# Velocity P-wave (km/s) = 5.32549 5.96819 5.65598
#
# Compressibility (1/GPa) = 0.02697581
#
# Stress axis : x y z
#
# Youngs Moduli (GPa) = 99.99782 66.57907 85.35720
#
# Poissons Ratio (x) = 0.10929 0.01752
# Poissons Ratio (y) = 0.16415 0.25890
# Poissons Ratio (z) = 0.02052 0.20194
#
# Static dielectric constant tensor:
#      x y z
#    x 1.619830 0.000000 0.000000 
#    y 0.000000 1.626030 0.000000 
#    z 0.000000 0.000000 1.666720 
# 
# From -- ./inp_files/26358.got.cif
#   From: 2010.05.17/outbox.cif.g08.bks.cpg/sg66_14_cif.got.tgz:26358.got - 2010.06.03 17:51:23.
