data_PCOD9498068
_publ_section_title
;
Structure prediction by ZEFSAII (Michael W. Deem and Ramdas Pophale) SiO2 
 PCOD9498068
Probable space group: C C C M
;
_chemical_formula_sum "Si O2"
_cell_formula_units_Z 68
_cell_length_a 6.917469
_cell_length_b 25.942455
_cell_length_c 13.801817
_cell_angle_alpha 90.000000
_cell_angle_beta 90.000000
_cell_angle_gamma 90.000000
_cell_volume 2476.820642
_symmetry_space_group_name_H-M "C C C M"
_symmetry_group_IT_number 66
_symmetry_cell_setting 'orthorhombic'
loop_
_space_group_symop_operation_xyz
x,y,z
-x,-y,z
x,-y,1/2-z
-x,y,1/2-z
-x,-y,-z
x,y,-z
-x,y,1/2+z
x,-y,1/2+z
1/2+x,1/2+y,z
1/2-x,1/2-y,z
1/2+x,1/2-y,1/2-z
1/2-x,1/2+y,1/2-z
1/2-x,1/2-y,-z
1/2+x,1/2+y,-z
1/2-x,1/2+y,1/2+z
1/2+x,1/2-y,1/2+z
loop_
_atom_site_type_symbol
_atom_site_label
_atom_site_fract_x
_atom_site_fract_y
_atom_site_fract_z
Si Si1 0.500000 0.500000 0.750000
Si Si2 0.869402 0.622753 0.618136
Si Si3 0.702294 0.941702 0.111741
Si Si4 0.022879 0.734044 0.889372
Si Si5 0.956506 0.157182 0.386392
O O1 0.649529 0.528588 0.821443
O O2 0.867991 0.621884 0.500000
O O3 0.981762 0.570263 0.643562
O O4 0.969205 0.676313 0.649639
O O5 0.649289 0.629426 0.654198
O O6 0.788206 0.883706 0.112533
O O7 0.706116 0.960757 0.000000
O O8 0.250000 0.750000 0.890781
O O9 0.919787 0.785156 0.847308
O O10 0.954273 0.727223 0.000000
O O11 0.002456 0.167087 0.500000
#
# Coordination Sequence:
#
# PCOD9498068 Si02
#       5
#     4  16  16  16  16
#     4  12  26  44  58  78 108 150 206 276 310 348
#     4   8  14  27  50  83 118 148 181 223 277 355
#     4  10  21  38  59  79 106 148 196 249 309 357
#     4   7  10  19  41  79 120 147 172 209 261 335
#     4   8  14  27  50  83 118 148 178 220 276 349
#
# _framework density 27.454550999999999
#
# number of rings (size 3 to 8) (size 9 to 14) (size 15 to 20)
#    0.000    3.529    0.000    3.176    0.000    0.941 
#    0.000    8.235    0.000    5.647   18.353    0.000 
#    0.000    0.000    0.000    0.471    0.000   21.647 
#
# Total GULP energy -190050.810125 kJ/mol
# GULP energy per Si atom -5589.729710 kJ/mol
# Density = 2.739206 g / cm^3
# Si number density = 27.454551 Si / 1000 Ang^3
#
#
#
# Elastic Constant Matrix: (Units=GPa)
#
#
# Indices 1 2 3 4 5 6 
#
# 1 118.1799 51.1145 12.6237 0.0000 0.0000 0.0000
# 2 51.1145 54.5190 22.9769 0.0000 0.0000 0.0000
# 3 12.6237 22.9769 137.9733 0.0000 0.0000 0.0000
# 4 0.0000 0.0000 0.0000 70.9920 0.0000 0.0000
# 5 0.0000 0.0000 0.0000 0.0000 1.1076 0.0000
# 6 0.0000 0.0000 0.0000 0.0000 0.0000 63.7704
#
#
#
# Elastic Compliance Matrix: (Units=1/GPa)
#
#
# Indices 1 2 3 4 5 6 
#
# 1 0.014360 -0.013884 0.000998 0.000000 0.000000 0.000000
# 2 -0.013884 0.033151 -0.004250 0.000000 0.000000 0.000000
# 3 0.000998 -0.004250 0.007864 0.000000 0.000000 0.000000
# 4 0.000000 0.000000 0.000000 0.014086 0.000000 0.000000
# 5 0.000000 0.000000 0.000000 0.000000 0.902838 0.000000
# 6 0.000000 0.000000 0.000000 0.000000 0.000000 0.015681
#
#
# Mechanical properties :
#
#
# Convention : Reuss Voigt Hill
#
# Bulk Modulus (GPa) = 47.38727 53.78914 50.58820
# Shear Modulus (GPa) = 4.85773 42.10448 23.48111
#
# Velocity S-wave (km/s) = 1.33162 3.92038 2.92768
# Velocity P-wave (km/s) = 4.43419 6.33459 5.46759
#
# Compressibility (1/GPa) = 0.02110271
#
# Stress axis : x y z
#
# Youngs Moduli (GPa) = 69.63741 30.16539 127.15770
#
# Poissons Ratio (x) = 0.41882 -0.12694
# Poissons Ratio (y) = 0.96685 0.54046
# Poissons Ratio (z) = -0.06952 0.12821
#
# Static dielectric constant tensor:
#      x y z
#    x 2.157380 0.000000 0.000000 
#    y 0.000000 2.119840 0.000000 
#    z 0.000000 0.000000 2.188570 
# 
# From -- ./inp_files/26134.got.cif
#   From: 2010.05.17/outbox.cif.g08.bks.cpg/sg66_14_cif.got.tgz:26134.got - 2010.06.03 17:51:23.
