data_PCOD9498719
_publ_section_title
;
Structure prediction by ZEFSAII (Michael W. Deem and Ramdas Pophale) SiO2 
 PCOD9498719
Probable space group: C C C M
;
_chemical_formula_sum "Si O2"
_cell_formula_units_Z 84
_cell_length_a 31.378262
_cell_length_b 5.368409
_cell_length_c 24.868058
_cell_angle_alpha 90.000000
_cell_angle_beta 90.000000
_cell_angle_gamma 90.000000
_cell_volume 4189.057796
_symmetry_space_group_name_H-M "C C C M"
_symmetry_group_IT_number 66
_symmetry_cell_setting 'orthorhombic'
loop_
_space_group_symop_operation_xyz
x,y,z
-x,-y,z
x,-y,1/2-z
-x,y,1/2-z
-x,-y,-z
x,y,-z
-x,y,1/2+z
x,-y,1/2+z
1/2+x,1/2+y,z
1/2-x,1/2-y,z
1/2+x,1/2-y,1/2-z
1/2-x,1/2+y,1/2-z
1/2-x,1/2-y,-z
1/2+x,1/2+y,-z
1/2-x,1/2+y,1/2+z
1/2+x,1/2-y,1/2+z
loop_
_atom_site_type_symbol
_atom_site_label
_atom_site_fract_x
_atom_site_fract_y
_atom_site_fract_z
Si Si1 0.199127 0.248905 0.715140
Si Si2 0.500000 0.000000 0.250000
Si Si3 0.636294 0.852610 0.060889
Si Si4 0.871926 0.835820 0.375640
Si Si5 0.234198 0.493967 0.938540
Si Si6 0.955797 0.889557 0.309966
O O1 0.190149 0.500000 0.750000
O O2 0.250000 0.250000 0.703207
O O3 0.167575 0.230039 0.663950
O O4 0.190879 0.000000 0.750000
O O5 0.467035 0.111582 0.293370
O O6 0.638466 0.576797 0.087073
O O7 0.615104 0.078843 0.093947
O O8 0.684253 0.961819 0.057666
O O9 0.619669 0.830724 0.000000
O O10 0.913300 0.920359 0.342478
O O11 0.250000 0.750000 0.915061
O O12 0.250000 0.250000 0.908258
O O13 0.252848 0.491376 0.000000
O O14 0.951582 0.000000 0.250000
O O15 0.000000 0.000000 0.333512
#
# Coordination Sequence:
#
# PCOD9498719 Si02
#       6
#    16   4  16  16  16  16
#     4  10  22  40  60  90 132 167 202 250 303 379
#     4   8  18  36  64  94 134 148 182 264 330 376
#     4  11  25  41  57  87 125 165 217 269 308 351
#     4  12  24  38  68  91 121 173 212 251 313 381
#     4   9  17  32  54  75 104 149 201 261 315 343
#     4   9  21  38  64  99 128 153 192 257 322 387
#
# _framework density 20.052242
#
# number of rings (size 3 to 8) (size 9 to 14) (size 15 to 20)
#    0.000    2.095    0.000    3.429    6.667    5.333 
#    0.000    0.000    0.000    4.000    0.000    0.000 
#    0.000    0.000    0.000    0.000    0.000    0.000 
#
# Total GULP energy -233872.214528 kJ/mol
# GULP energy per Si atom -5568.386060 kJ/mol
# Density = 2.000660 g / cm^3
# Si number density = 20.052242 Si / 1000 Ang^3
#
#
#
# Elastic Constant Matrix: (Units=GPa)
#
#
# Indices 1 2 3 4 5 6 
#
# 1 85.6459 14.2900 37.0757 0.0000 0.0000 0.0000
# 2 14.2900 137.0504 50.7626 0.0000 0.0000 0.0000
# 3 37.0757 50.7626 107.9749 0.0000 0.0000 0.0000
# 4 0.0000 0.0000 0.0000 13.4564 0.0000 0.0000
# 5 0.0000 0.0000 0.0000 0.0000 12.0050 0.0000
# 6 0.0000 0.0000 0.0000 0.0000 0.0000 37.8747
#
#
#
# Elastic Compliance Matrix: (Units=1/GPa)
#
#
# Indices 1 2 3 4 5 6 
#
# 1 0.013731 0.000381 -0.004894 0.000000 0.000000 0.000000
# 2 0.000381 0.008846 -0.004289 0.000000 0.000000 0.000000
# 3 -0.004894 -0.004289 0.012958 0.000000 0.000000 0.000000
# 4 0.000000 0.000000 0.000000 0.074314 0.000000 0.000000
# 5 0.000000 0.000000 0.000000 0.000000 0.083298 0.000000
# 6 0.000000 0.000000 0.000000 0.000000 0.000000 0.026403
#
#
# Mechanical properties :
#
#
# Convention : Reuss Voigt Hill
#
# Bulk Modulus (GPa) = 55.77170 59.43645 57.60407
# Shear Modulus (GPa) = 20.56495 27.90342 24.23419
#
# Velocity S-wave (km/s) = 3.20592 3.73438 3.48020
# Velocity P-wave (km/s) = 6.44806 6.94977 6.70361
#
# Compressibility (1/GPa) = 0.01793024
#
# Stress axis : x y z
#
# Youngs Moduli (GPa) = 72.82797 113.04996 77.16944
#
# Poissons Ratio (x) = -0.04307 0.37767
# Poissons Ratio (y) = -0.02775 0.33102
# Poissons Ratio (z) = 0.35642 0.48492
#
# Static dielectric constant tensor:
#      x y z
#    x 1.685830 0.000000 0.000000 
#    y 0.000000 1.741990 0.000000 
#    z 0.000000 0.000000 1.739790 
# 
# From -- ./inp_files/60395.got.cif
#   From: 2010.05.17/outbox.cif.g08.bks.cpg/sg66_31_cif.got.tgz:60395.got - 2010.06.03 17:51:23.
