data_PCOD9498668
_publ_section_title
;
Structure prediction by ZEFSAII (Michael W. Deem and Ramdas Pophale) SiO2 
 PCOD9498668
Probable space group: C C C M
;
_chemical_formula_sum "Si O2"
_cell_formula_units_Z 96
_cell_length_a 8.512958
_cell_length_b 25.468940
_cell_length_c 21.983175
_cell_angle_alpha 90.000000
_cell_angle_beta 90.000000
_cell_angle_gamma 90.000000
_cell_volume 4766.304434
_symmetry_space_group_name_H-M "C C C M"
_symmetry_group_IT_number 66
_symmetry_cell_setting 'orthorhombic'
loop_
_space_group_symop_operation_xyz
x,y,z
-x,-y,z
x,-y,1/2-z
-x,y,1/2-z
-x,-y,-z
x,y,-z
-x,y,1/2+z
x,-y,1/2+z
1/2+x,1/2+y,z
1/2-x,1/2-y,z
1/2+x,1/2-y,1/2-z
1/2-x,1/2+y,1/2-z
1/2-x,1/2-y,-z
1/2+x,1/2+y,-z
1/2-x,1/2+y,1/2+z
1/2+x,1/2-y,1/2+z
loop_
_atom_site_type_symbol
_atom_site_label
_atom_site_fract_x
_atom_site_fract_y
_atom_site_fract_z
Si Si1 0.099208 0.445596 0.165924
Si Si2 0.608975 0.101831 0.933870
Si Si3 0.876227 0.203439 0.196618
Si Si4 0.173050 0.013097 0.603686
Si Si5 0.145787 0.197483 0.434421
Si Si6 0.323200 0.585249 0.224155
O O1 0.240059 0.459659 0.120092
O O2 0.185459 0.429858 0.228391
O O3 0.000000 0.500000 0.173103
O O4 0.994251 0.404676 0.127411
O O5 0.714323 0.049226 0.935818
O O6 0.730512 0.149801 0.929374
O O7 0.525937 0.106617 0.000000
O O8 0.750000 0.250000 0.197299
O O9 0.949184 0.200000 0.128498
O O10 0.801083 0.146175 0.207665
O O11 0.000000 0.212346 0.250000
O O12 0.168965 0.046246 0.666941
O O13 0.000000 0.000000 0.581258
O O14 0.437293 0.307474 0.500000
O O15 0.250000 0.250000 0.436273
O O16 0.500000 0.581373 0.250000
#
# Coordination Sequence:
#
# PCOD9498668 Si02
#       6
#    16  16  16  16  16  16
#     4  10  23  36  57  87 118 156 203 247 304 351
#     4  10  22  40  58  85 121 154 202 257 300 352
#     4  10  22  39  62  93 124 154 192 251 314 362
#     4  11  21  36  58  85 116 161 200 242 291 359
#     4   9  18  37  63  86 114 157 202 239 291 365
#     4  11  21  37  59  84 124 158 195 244 299 369
#
# _framework density 20.141390000000001
#
# number of rings (size 3 to 8) (size 9 to 14) (size 15 to 20)
#    0.000    1.833    3.333    0.500    0.000   10.667 
#    0.000    0.000    0.000    4.500    0.000    0.000 
#    0.000    0.000    0.000    0.000    0.000    0.000 
#
# Total GULP energy -267566.067471 kJ/mol
# GULP energy per Si atom -5574.293072 kJ/mol
# Density = 2.009555 g / cm^3
# Si number density = 20.141390 Si / 1000 Ang^3
#
#
#
# Elastic Constant Matrix: (Units=GPa)
#
#
# Indices 1 2 3 4 5 6 
#
# 1 58.3700 -2.1369 31.4122 0.0000 0.0000 0.0000
# 2 -2.1369 45.1028 19.3081 0.0000 0.0000 0.0000
# 3 31.4122 19.3081 172.4253 0.0000 0.0000 0.0000
# 4 0.0000 0.0000 0.0000 19.1519 0.0000 0.0000
# 5 0.0000 0.0000 0.0000 0.0000 21.1788 0.0000
# 6 0.0000 0.0000 0.0000 0.0000 0.0000 14.4853
#
#
#
# Elastic Compliance Matrix: (Units=1/GPa)
#
#
# Indices 1 2 3 4 5 6 
#
# 1 0.019267 0.002537 -0.003794 0.000000 0.000000 0.000000
# 2 0.002537 0.023622 -0.003107 0.000000 0.000000 0.000000
# 3 -0.003794 -0.003107 0.006839 0.000000 0.000000 0.000000
# 4 0.000000 0.000000 0.000000 0.052214 0.000000 0.000000
# 5 0.000000 0.000000 0.000000 0.000000 0.047217 0.000000
# 6 0.000000 0.000000 0.000000 0.000000 0.000000 0.069036
#
#
# Mechanical properties :
#
#
# Convention : Reuss Voigt Hill
#
# Bulk Modulus (GPa) = 24.39101 41.45168 32.92135
# Shear Modulus (GPa) = 20.78230 26.11752 23.44991
#
# Velocity S-wave (km/s) = 3.21568 3.60489 3.41583
# Velocity P-wave (km/s) = 5.09153 6.16052 5.65136
#
# Compressibility (1/GPa) = 0.04099871
#
# Stress axis : x y z
#
# Youngs Moduli (GPa) = 51.90277 42.33341 146.22493
#
# Poissons Ratio (x) = -0.10740 0.55479
# Poissons Ratio (y) = -0.13168 0.45438
# Poissons Ratio (z) = 0.19692 0.13155
#
# Static dielectric constant tensor:
#      x y z
#    x 1.723680 0.000000 0.000000 
#    y 0.000000 1.707070 0.000000 
#    z 0.000000 0.000000 1.816710 
# 
# From -- ./inp_files/47335.got.cif
#   From: 2010.05.17/outbox.cif.g08.bks.cpg/sg66_24_cif.got.tgz:47335.got - 2010.06.03 17:51:23.
