data_PCOD9498569
_publ_section_title
;
Structure prediction by ZEFSAII (Michael W. Deem and Ramdas Pophale) SiO2 
 PCOD9498569
Probable space group: C C C M
;
_chemical_formula_sum "Si O2"
_cell_formula_units_Z 80
_cell_length_a 24.440782
_cell_length_b 9.955990
_cell_length_c 14.796452
_cell_angle_alpha 90.000000
_cell_angle_beta 90.000000
_cell_angle_gamma 90.000000
_cell_volume 3600.452939
_symmetry_space_group_name_H-M "C C C M"
_symmetry_group_IT_number 66
_symmetry_cell_setting 'orthorhombic'
loop_
_space_group_symop_operation_xyz
x,y,z
-x,-y,z
x,-y,1/2-z
-x,y,1/2-z
-x,-y,-z
x,y,-z
-x,y,1/2+z
x,-y,1/2+z
1/2+x,1/2+y,z
1/2-x,1/2-y,z
1/2+x,1/2-y,1/2-z
1/2-x,1/2+y,1/2-z
1/2-x,1/2-y,-z
1/2+x,1/2+y,-z
1/2-x,1/2+y,1/2+z
1/2+x,1/2-y,1/2+z
loop_
_atom_site_type_symbol
_atom_site_label
_atom_site_fract_x
_atom_site_fract_y
_atom_site_fract_z
Si Si1 0.227343 0.595673 0.897855
Si Si2 0.093269 0.232538 0.103019
Si Si3 0.129725 0.312046 0.713034
Si Si4 0.522822 0.150484 0.898718
Si Si5 0.155166 0.955202 0.894650
O O1 0.250000 0.750000 0.897614
O O2 0.177451 0.599097 0.829641
O O3 0.281150 0.507856 0.876505
O O4 0.208938 0.565076 0.000000
O O5 0.125853 0.311716 0.179546
O O6 0.028595 0.252351 0.120277
O O7 0.114443 0.080181 0.110353
O O8 0.102948 0.278941 0.000000
O O9 0.070885 0.347665 0.672743
O O10 0.139704 0.161341 0.674566
O O11 0.500000 0.000000 0.900697
O O12 0.543820 0.183491 0.000000
O O13 0.154275 0.906924 0.000000
#
# Coordination Sequence:
#
# PCOD9498569 Si02
#       5
#    16  16  16  16  16
#     4   8  15  30  57  88 112 141 188 248 299 346
#     4  10  22  37  56  85 127 165 193 244 306 361
#     4  11  19  33  62  91 116 154 204 247 295 362
#     4  10  22  40  62  87 119 155 198 250 302 358
#     4   9  18  35  60  90 121 149 192 253 312 361
#
# _framework density 22.219425999999999
#
# number of rings (size 3 to 8) (size 9 to 14) (size 15 to 20)
#    0.000    2.400    0.000    4.200    0.000    2.400 
#    0.000    5.000   26.400    5.400    0.000    0.000 
#    0.000    0.000    0.000    0.000    0.000    0.000 
#
# Total GULP energy -223556.748823 kJ/mol
# GULP energy per Si atom -5588.918721 kJ/mol
# Density = 2.216885 g / cm^3
# Si number density = 22.219426 Si / 1000 Ang^3
#
#
#
# Elastic Constant Matrix: (Units=GPa)
#
#
# Indices 1 2 3 4 5 6 
#
# 1 123.0362 50.8148 59.5163 0.0000 0.0000 0.0000
# 2 50.8148 55.5259 20.1985 0.0000 0.0000 0.0000
# 3 59.5163 20.1985 131.0844 0.0000 0.0000 0.0000
# 4 0.0000 0.0000 0.0000 18.1071 0.0000 0.0000
# 5 0.0000 0.0000 0.0000 0.0000 47.9972 0.0000
# 6 0.0000 0.0000 0.0000 0.0000 0.0000 -29.6948
#
#
#
# Elastic Compliance Matrix: (Units=1/GPa)
#
#
# Indices 1 2 3 4 5 6 
#
# 1 0.015892 -0.012626 -0.005270 0.000000 0.000000 0.000000
# 2 -0.012626 0.029111 0.001247 0.000000 0.000000 0.000000
# 3 -0.005270 0.001247 0.009829 0.000000 0.000000 0.000000
# 4 0.000000 0.000000 0.000000 0.055227 0.000000 0.000000
# 5 0.000000 0.000000 0.000000 0.000000 0.020835 0.000000
# 6 0.000000 0.000000 0.000000 0.000000 0.000000 -0.033676
#
#
# Mechanical properties :
#
#
# Convention : Reuss Voigt Hill
#
# Bulk Modulus (GPa) = 46.43854 63.41176 54.92515
# Shear Modulus (GPa) = 36.31271 19.22304 27.76787
#
# Velocity S-wave (km/s) = 4.04701 2.94453 3.53896
# Velocity P-wave (km/s) = 6.54087 6.33728 6.43988
#
# Compressibility (1/GPa) = 0.02153384
#
# Stress axis : x y z
#
# Youngs Moduli (GPa) = 62.92655 34.35130 101.73858
#
# Poissons Ratio (x) = 0.43373 0.53613
# Poissons Ratio (y) = 0.79453 -0.12688
# Poissons Ratio (z) = 0.33160 -0.04284
#
# Static dielectric constant tensor:
#      x y z
#    x 1.814050 0.000000 0.000000 
#    y 0.000000 1.864060 0.000000 
#    z 0.000000 0.000000 1.840170 
# 
# From -- ./inp_files/32094.got.cif
#   From: 2010.05.17/outbox.cif.g08.bks.cpg/sg66_17_cif.got.tgz:32094.got - 2010.06.03 17:51:23.
