data_PCOD9498954
_publ_section_title
;
Structure prediction by ZEFSAII (Michael W. Deem and Ramdas Pophale) SiO2 
 PCOD9498954
Probable space group: C C C M
;
_chemical_formula_sum "Si O2"
_cell_formula_units_Z 48
_cell_length_a 12.874237
_cell_length_b 10.274660
_cell_length_c 16.306128
_cell_angle_alpha 90.000000
_cell_angle_beta 90.000000
_cell_angle_gamma 90.000000
_cell_volume 2156.948651
_symmetry_space_group_name_H-M "C C C M"
_symmetry_group_IT_number 66
_symmetry_cell_setting 'orthorhombic'
loop_
_space_group_symop_operation_xyz
x,y,z
-x,-y,z
x,-y,1/2-z
-x,y,1/2-z
-x,-y,-z
x,y,-z
-x,y,1/2+z
x,-y,1/2+z
1/2+x,1/2+y,z
1/2-x,1/2-y,z
1/2+x,1/2-y,1/2-z
1/2-x,1/2+y,1/2-z
1/2-x,1/2-y,-z
1/2+x,1/2+y,-z
1/2-x,1/2+y,1/2+z
1/2+x,1/2-y,1/2+z
loop_
_atom_site_type_symbol
_atom_site_label
_atom_site_fract_x
_atom_site_fract_y
_atom_site_fract_z
Si Si1 0.334893 0.500000 0.250000
Si Si2 0.956538 0.633473 0.593209
Si Si3 0.750000 0.750000 0.669481
Si Si4 0.355574 0.663704 0.406756
O O1 0.271535 0.376192 0.277689
O O2 0.380350 0.557199 0.336039
O O3 0.929414 0.596341 0.500000
O O4 0.855061 0.708469 0.624014
O O5 0.000000 0.500000 0.634129
O O6 0.051046 0.733841 0.595362
O O7 0.348549 0.607534 0.500000
O O8 0.250000 0.750000 0.394655
#
# Coordination Sequence:
#
# PCOD9498954 Si02
#       4
#     8  16   8  16
#     4  12  26  47  67 114 142 196 245 303 382 444
#     4  10  23  45  75 107 142 194 249 310 382 452
#     4  12  27  44  69 106 152 188 250 310 376 454
#     4  10  22  45  73 103 145 193 245 307 372 446
#
# _framework density 22.25366
#
# number of rings (size 3 to 8) (size 9 to 14) (size 15 to 20)
#    0.000    1.333    1.667    2.500    0.000    9.333 
#    0.000    3.333    0.000    0.000    0.000    0.000 
#    0.000    0.000    0.000    0.000    0.000    0.000 
#
# Total GULP energy -133739.730830 kJ/mol
# GULP energy per Si atom -5572.488785 kJ/mol
# Density = 2.220301 g / cm^3
# Si number density = 22.253660 Si / 1000 Ang^3
#
#
#
# Elastic Constant Matrix: (Units=GPa)
#
#
# Indices 1 2 3 4 5 6 
#
# 1 163.1309 41.3475 39.6219 0.0000 0.0000 0.0000
# 2 41.3475 127.2714 49.9041 0.0000 0.0000 0.0000
# 3 39.6219 49.9041 126.2650 0.0000 0.0000 0.0000
# 4 0.0000 0.0000 0.0000 48.0857 0.0000 0.0000
# 5 0.0000 0.0000 0.0000 0.0000 24.1837 0.0000
# 6 0.0000 0.0000 0.0000 0.0000 0.0000 11.8037
#
#
#
# Elastic Compliance Matrix: (Units=1/GPa)
#
#
# Indices 1 2 3 4 5 6 
#
# 1 0.006917 -0.001652 -0.001518 0.000000 0.000000 0.000000
# 2 -0.001652 0.009693 -0.003312 0.000000 0.000000 0.000000
# 3 -0.001518 -0.003312 0.009705 0.000000 0.000000 0.000000
# 4 0.000000 0.000000 0.000000 0.020796 0.000000 0.000000
# 5 0.000000 0.000000 0.000000 0.000000 0.041350 0.000000
# 6 0.000000 0.000000 0.000000 0.000000 0.000000 0.084719
#
#
# Mechanical properties :
#
#
# Convention : Reuss Voigt Hill
#
# Bulk Modulus (GPa) = 74.90162 75.37936 75.14049
# Shear Modulus (GPa) = 26.23345 35.86753 31.05049
#
# Velocity S-wave (km/s) = 3.43715 4.01903 3.73942
# Velocity P-wave (km/s) = 7.03443 7.44870 7.24452
#
# Compressibility (1/GPa) = 0.01335085
#
# Stress axis : x y z
#
# Youngs Moduli (GPa) = 144.56208 103.16898 103.03661
#
# Poissons Ratio (x) = 0.17046 0.15638
# Poissons Ratio (y) = 0.23885 0.34130
# Poissons Ratio (z) = 0.21940 0.34174
#
# Static dielectric constant tensor:
#      x y z
#    x 1.846750 0.000000 0.000000 
#    y 0.000000 1.814300 0.000000 
#    z 0.000000 0.000000 1.938290 
# 
# From -- ./inp_files/37641.got.cif
#   From: 2010.05.17/outbox.cif.g08.bks.cpg/sg66_19_cif.got.tgz:37641.got - 2010.06.03 17:51:23.
