data_PCOD9498934
_publ_section_title
;
Structure prediction by ZEFSAII (Michael W. Deem and Ramdas Pophale) SiO2 
 PCOD9498934
Probable space group: C C C M
;
_chemical_formula_sum "Si O2"
_cell_formula_units_Z 108
_cell_length_a 15.183521
_cell_length_b 24.195969
_cell_length_c 15.064204
_cell_angle_alpha 90.000000
_cell_angle_beta 90.000000
_cell_angle_gamma 90.000000
_cell_volume 5534.287317
_symmetry_space_group_name_H-M "C C C M"
_symmetry_group_IT_number 66
_symmetry_cell_setting 'orthorhombic'
loop_
_space_group_symop_operation_xyz
x,y,z
-x,-y,z
x,-y,1/2-z
-x,y,1/2-z
-x,-y,-z
x,y,-z
-x,y,1/2+z
x,-y,1/2+z
1/2+x,1/2+y,z
1/2-x,1/2-y,z
1/2+x,1/2-y,1/2-z
1/2-x,1/2+y,1/2-z
1/2-x,1/2-y,-z
1/2+x,1/2+y,-z
1/2-x,1/2+y,1/2+z
1/2+x,1/2-y,1/2+z
loop_
_atom_site_type_symbol
_atom_site_label
_atom_site_fract_x
_atom_site_fract_y
_atom_site_fract_z
Si Si1 0.114965 0.159932 0.596334
Si Si2 0.600610 0.201087 0.284258
Si Si3 0.581409 0.303476 0.400197
Si Si4 0.128899 0.094745 0.773645
Si Si5 0.250000 0.750000 0.843990
Si Si6 0.101818 0.518223 0.896710
Si Si7 0.663852 0.920041 0.223572
Si Si8 0.000000 0.000000 0.250000
O O1 0.118717 0.132641 0.500000
O O2 0.107055 0.116376 0.675059
O O3 0.197827 0.200971 0.606637
O O4 0.024977 0.194980 0.601101
O O5 0.500000 0.205044 0.250000
O O6 0.610583 0.244495 0.363774
O O7 0.673404 0.221075 0.213411
O O8 0.623510 0.138189 0.305595
O O9 0.611690 0.313195 0.500000
O O10 0.613090 0.352958 0.337270
O O11 0.231441 0.081845 0.768772
O O12 0.067333 0.042667 0.798024
O O13 0.147278 0.465227 0.852212
O O14 0.121795 0.564032 0.820203
O O15 0.000000 0.500000 0.897053
O O16 0.126581 0.530807 0.000000
#
# Coordination Sequence:
#
# PCOD9498934 Si02
#       8
#    16  16  16  16   8  16  16   4
#     4  11  22  41  67  95 133 172 213 270 332 393
#     4  12  21  38  66  97 134 173 220 270 334 408
#     4  11  23  42  67  94 134 179 214 267 338 399
#     4  12  23  44  64  95 132 172 224 278 332 390
#     4  12  21  40  65  96 130 178 213 266 335 406
#     4  10  22  44  66  88 127 172 214 271 336 392
#     4  11  23  40  67  96 129 172 221 276 335 395
#     4  12  24  40  74  92 126 182 232 274 326 404
#
# _framework density 19.514707999999999
#
# number of rings (size 3 to 8) (size 9 to 14) (size 15 to 20)
#    0.000    0.741    5.926    2.889    0.000    1.778 
#    0.000    4.815    0.000    0.000    0.000    0.000 
#    0.000    0.000    0.000    0.000    0.000    0.000 
#
# Total GULP energy -301307.908826 kJ/mol
# GULP energy per Si atom -5579.776089 kJ/mol
# Density = 1.947029 g / cm^3
# Si number density = 19.514708 Si / 1000 Ang^3
#
#
#
# Elastic Constant Matrix: (Units=GPa)
#
#
# Indices 1 2 3 4 5 6 
#
# 1 79.4687 24.2289 41.8748 0.0000 0.0000 0.0000
# 2 24.2289 112.1807 44.9129 0.0000 0.0000 0.0000
# 3 41.8748 44.9129 123.0546 0.0000 0.0000 0.0000
# 4 0.0000 0.0000 0.0000 -11.6486 0.0000 0.0000
# 5 0.0000 0.0000 0.0000 0.0000 73.7626 0.0000
# 6 0.0000 0.0000 0.0000 0.0000 0.0000 36.8051
#
#
#
# Elastic Compliance Matrix: (Units=1/GPa)
#
#
# Indices 1 2 3 4 5 6 
#
# 1 0.015532 -0.001450 -0.004756 0.000000 0.000000 0.000000
# 2 -0.001450 0.010575 -0.003366 0.000000 0.000000 0.000000
# 3 -0.004756 -0.003366 0.010974 0.000000 0.000000 0.000000
# 4 0.000000 0.000000 0.000000 -0.085847 0.000000 0.000000
# 5 0.000000 0.000000 0.000000 0.000000 0.013557 0.000000
# 6 0.000000 0.000000 0.000000 0.000000 0.000000 0.027170
#
#
# Mechanical properties :
#
#
# Convention : Reuss Voigt Hill
#
# Bulk Modulus (GPa) = 55.75608 59.63745 57.69676
# Shear Modulus (GPa) = 292.66980 33.36298 163.01639
#
# Velocity S-wave (km/s) = 12.25967 4.13926 9.14967
# Velocity P-wave (km/s) = 15.13383 7.31240 11.88495
#
# Compressibility (1/GPa) = 0.01793526
#
# Stress axis : x y z
#
# Youngs Moduli (GPa) = 64.38357 94.56125 91.12845
#
# Poissons Ratio (x) = 0.13716 0.43341
# Poissons Ratio (y) = 0.09339 0.30675
# Poissons Ratio (z) = 0.30621 0.31831
#
# Static dielectric constant tensor:
#      x y z
#    x 1.859990 0.000000 0.000000 
#    y 0.000000 1.699970 0.000000 
#    z 0.000000 0.000000 1.703950 
# 
# From -- ./inp_files/28754.got.cif
#   From: 2010.05.17/outbox.cif.g08.bks.cpg/sg66_15_cif.got.tgz:28754.got - 2010.06.03 17:51:23.
