data_PCOD9498411
_publ_section_title
;
Structure prediction by ZEFSAII (Michael W. Deem and Ramdas Pophale) SiO2 
 PCOD9498411
Probable space group: C C C M
;
_chemical_formula_sum "Si O2"
_cell_formula_units_Z 40
_cell_length_a 25.315519
_cell_length_b 4.968427
_cell_length_c 14.218647
_cell_angle_alpha 90.000000
_cell_angle_beta 90.000000
_cell_angle_gamma 90.000000
_cell_volume 1788.397363
_symmetry_space_group_name_H-M "C C C M"
_symmetry_group_IT_number 66
_symmetry_cell_setting 'orthorhombic'
loop_
_space_group_symop_operation_xyz
x,y,z
-x,-y,z
x,-y,1/2-z
-x,y,1/2-z
-x,-y,-z
x,y,-z
-x,y,1/2+z
x,-y,1/2+z
1/2+x,1/2+y,z
1/2-x,1/2-y,z
1/2+x,1/2-y,1/2-z
1/2-x,1/2+y,1/2-z
1/2-x,1/2-y,-z
1/2+x,1/2+y,-z
1/2-x,1/2+y,1/2+z
1/2+x,1/2-y,1/2+z
loop_
_atom_site_type_symbol
_atom_site_label
_atom_site_fract_x
_atom_site_fract_y
_atom_site_fract_z
Si Si1 0.606348 0.771909 0.311543
Si Si2 0.286191 0.011636 0.893023
Si Si3 0.038928 0.245512 0.500000
O O1 0.613591 0.500000 0.250000
O O2 0.661164 0.914933 0.342226
O O3 0.575066 0.725760 0.407469
O O4 0.577431 0.000000 0.250000
O O5 0.250000 0.750000 0.898681
O O6 0.250000 0.250000 0.850257
O O7 0.300339 0.100890 0.000000
O O8 0.000000 0.500000 0.500000
O O9 0.000000 0.000000 0.500000
#
# Coordination Sequence:
#
# PCOD9498411 Si02
#       3
#    16  16   8
#     4  12  26  45  73 108 144 189 242 297 364 438
#     4  10  21  40  68 101 141 185 230 282 346 424
#     4  12  28  50  74 102 143 186 245 314 372 426
#
# _framework density 22.366396000000002
#
# number of rings (size 3 to 8) (size 9 to 14) (size 15 to 20)
#    0.000    0.800    2.000    4.800    0.000    8.000 
#    0.000    0.000    0.000    0.000    0.000    0.000 
#    0.000    0.000    0.000    0.000    0.000    0.000 
#
# Total GULP energy -111894.134290 kJ/mol
# GULP energy per Si atom -5594.706715 kJ/mol
# Density = 2.231549 g / cm^3
# Si number density = 22.366396 Si / 1000 Ang^3
#
#
#
# Elastic Constant Matrix: (Units=GPa)
#
#
# Indices 1 2 3 4 5 6 
#
# 1 142.2828 72.7298 95.2251 0.0000 0.0000 0.0000
# 2 72.7298 192.9229 66.6548 0.0000 0.0000 0.0000
# 3 95.2251 66.6548 189.3689 0.0000 0.0000 0.0000
# 4 0.0000 0.0000 0.0000 31.2440 0.0000 0.0000
# 5 0.0000 0.0000 0.0000 0.0000 -14.7881 0.0000
# 6 0.0000 0.0000 0.0000 0.0000 0.0000 34.8953
#
#
#
# Elastic Compliance Matrix: (Units=1/GPa)
#
#
# Indices 1 2 3 4 5 6 
#
# 1 0.011720 -0.002712 -0.004939 0.000000 0.000000 0.000000
# 2 -0.002712 0.006529 -0.000934 0.000000 0.000000 0.000000
# 3 -0.004939 -0.000934 0.008093 0.000000 0.000000 0.000000
# 4 0.000000 0.000000 0.000000 0.032006 0.000000 0.000000
# 5 0.000000 0.000000 0.000000 0.000000 -0.067622 0.000000
# 6 0.000000 0.000000 0.000000 0.000000 0.000000 0.028657
#
#
# Mechanical properties :
#
#
# Convention : Reuss Voigt Hill
#
# Bulk Modulus (GPa) = 109.03348 110.42155 109.72751
# Shear Modulus (GPa) = 126.23109 29.60125 77.91617
#
# Velocity S-wave (km/s) = 7.52066 3.64190 5.90863
# Velocity P-wave (km/s) = 11.14757 8.19519 9.78339
#
# Compressibility (1/GPa) = 0.00917149
#
# Stress axis : x y z
#
# Youngs Moduli (GPa) = 85.32498 153.17323 123.56245
#
# Poissons Ratio (x) = 0.41539 0.61026
# Poissons Ratio (y) = 0.23139 0.11544
# Poissons Ratio (z) = 0.42141 0.14310
#
# Static dielectric constant tensor:
#      x y z
#    x 1.801610 0.000000 0.000000 
#    y 0.000000 1.798020 0.000000 
#    z 0.000000 0.000000 -0.247040 
# 
# From -- ./inp_files/22129.got.cif
#   From: 2010.05.17/outbox.cif.g08.bks.cpg/sg66_12_cif.got.tgz:22129.got - 2010.06.03 17:51:23.
