data_PCOD9498215
_publ_section_title
;
Structure prediction by ZEFSAII (Michael W. Deem and Ramdas Pophale) SiO2 
 PCOD9498215
Probable space group: C C C M
;
_chemical_formula_sum "Si O2"
_cell_formula_units_Z 68
_cell_length_a 21.354365
_cell_length_b 21.031536
_cell_length_c 7.980722
_cell_angle_alpha 90.000000
_cell_angle_beta 90.000000
_cell_angle_gamma 90.000000
_cell_volume 3584.262729
_symmetry_space_group_name_H-M "C C C M"
_symmetry_group_IT_number 66
_symmetry_cell_setting 'orthorhombic'
loop_
_space_group_symop_operation_xyz
x,y,z
-x,-y,z
x,-y,1/2-z
-x,y,1/2-z
-x,-y,-z
x,y,-z
-x,y,1/2+z
x,-y,1/2+z
1/2+x,1/2+y,z
1/2-x,1/2-y,z
1/2+x,1/2-y,1/2-z
1/2-x,1/2+y,1/2-z
1/2-x,1/2-y,-z
1/2+x,1/2+y,-z
1/2-x,1/2+y,1/2+z
1/2+x,1/2-y,1/2+z
loop_
_atom_site_type_symbol
_atom_site_label
_atom_site_fract_x
_atom_site_fract_y
_atom_site_fract_z
Si Si1 0.239749 0.571136 0.199129
Si Si2 0.000000 0.500000 0.250000
Si Si3 0.596581 0.903806 0.300145
Si Si4 0.931209 0.739480 0.201087
Si Si5 0.697436 0.700321 0.200387
O O1 0.258370 0.500000 0.250000
O O2 0.167968 0.584138 0.253392
O O3 0.282226 0.628593 0.263117
O O4 0.239606 0.574648 0.000000
O O5 0.948991 0.551980 0.190977
O O6 0.589024 0.919816 0.500000
O O7 0.578759 0.830771 0.275592
O O8 0.871979 0.781162 0.260066
O O9 0.000000 0.763444 0.250000
O O10 0.928985 0.734187 0.000000
O O11 0.750000 0.750000 0.267027
O O12 0.696751 0.708068 0.000000
#
# Coordination Sequence:
#
# PCOD9498215 Si02
#       5
#    16   4  16  16  16
#     4  11  23  38  58  86 118 154 197 247 293 347
#     4  12  22  36  52  78 122 164 198 224 274 336
#     4  11  23  35  52  80 115 157 199 234 278 336
#     4  11  23  38  59  84 116 152 193 242 293 346
#     4  10  21  39  61  86 116 155 198 245 295 350
#
# _framework density 18.971823000000001
#
# number of rings (size 3 to 8) (size 9 to 14) (size 15 to 20)
#    0.000    1.176    4.706    1.765    0.000    4.235 
#    0.000    0.000    0.000    0.706    0.000    4.941 
#    0.000    0.000    0.000    0.000    0.000    0.000 
#
# Total GULP energy -189703.558684 kJ/mol
# GULP energy per Si atom -5579.516432 kJ/mol
# Density = 1.892864 g / cm^3
# Si number density = 18.971823 Si / 1000 Ang^3
#
#
#
# Elastic Constant Matrix: (Units=GPa)
#
#
# Indices 1 2 3 4 5 6 
#
# 1 172.6916 104.1582 22.1324 0.0000 0.0000 0.0000
# 2 104.1582 125.4471 7.3910 0.0000 0.0000 0.0000
# 3 22.1324 7.3910 43.2883 0.0000 0.0000 0.0000
# 4 0.0000 0.0000 0.0000 15.4948 0.0000 0.0000
# 5 0.0000 0.0000 0.0000 0.0000 14.7334 0.0000
# 6 0.0000 0.0000 0.0000 0.0000 0.0000 44.3979
#
#
#
# Elastic Compliance Matrix: (Units=1/GPa)
#
#
# Indices 1 2 3 4 5 6 
#
# 1 0.012463 -0.010074 -0.004652 0.000000 0.000000 0.000000
# 2 -0.010074 0.016195 0.002385 0.000000 0.000000 0.000000
# 3 -0.004652 0.002385 0.025072 0.000000 0.000000 0.000000
# 4 0.000000 0.000000 0.000000 0.064538 0.000000 0.000000
# 5 0.000000 0.000000 0.000000 0.000000 0.067873 0.000000
# 6 0.000000 0.000000 0.000000 0.000000 0.000000 0.022524
#
#
# Mechanical properties :
#
#
# Convention : Reuss Voigt Hill
#
# Bulk Modulus (GPa) = 34.42423 67.64335 51.03379
# Shear Modulus (GPa) = 20.57373 28.77491 24.67432
#
# Velocity S-wave (km/s) = 3.29665 3.89873 3.61026
# Velocity P-wave (km/s) = 5.71619 7.48324 6.65859
#
# Compressibility (1/GPa) = 0.02904931
#
# Stress axis : x y z
#
# Youngs Moduli (GPa) = 80.23885 61.74705 39.88491
#
# Poissons Ratio (x) = 0.62202 0.18554
# Poissons Ratio (y) = 0.80830 -0.09514
# Poissons Ratio (z) = 0.37327 -0.14729
#
# Static dielectric constant tensor:
#      x y z
#    x 1.677840 0.000000 0.000000 
#    y 0.000000 1.780990 0.000000 
#    z 0.000000 0.000000 1.730710 
# 
# From -- ./inp_files/6254.got.cif
#   From: 2010.05.17/outbox.cif.g08.bks.cpg/sg66_4_cif.got.tgz:6254.got - 2010.06.03 17:51:23.
