data_PCOD9498345
_publ_section_title
;
Structure prediction by ZEFSAII (Michael W. Deem and Ramdas Pophale) SiO2 
 PCOD9498345
Probable space group: C C C M
;
_chemical_formula_sum "Si O2"
_cell_formula_units_Z 104
_cell_length_a 27.071124
_cell_length_b 7.059340
_cell_length_c 22.260743
_cell_angle_alpha 90.000000
_cell_angle_beta 90.000000
_cell_angle_gamma 90.000000
_cell_volume 4254.123007
_symmetry_space_group_name_H-M "C C C M"
_symmetry_group_IT_number 66
_symmetry_cell_setting 'orthorhombic'
loop_
_space_group_symop_operation_xyz
x,y,z
-x,-y,z
x,-y,1/2-z
-x,y,1/2-z
-x,-y,-z
x,y,-z
-x,y,1/2+z
x,-y,1/2+z
1/2+x,1/2+y,z
1/2-x,1/2-y,z
1/2+x,1/2-y,1/2-z
1/2-x,1/2+y,1/2-z
1/2-x,1/2-y,-z
1/2+x,1/2+y,-z
1/2-x,1/2+y,1/2+z
1/2+x,1/2-y,1/2+z
loop_
_atom_site_type_symbol
_atom_site_label
_atom_site_fract_x
_atom_site_fract_y
_atom_site_fract_z
Si Si1 0.539769 0.759908 0.367428
Si Si2 0.134392 0.413834 0.314900
Si Si3 0.203956 0.614915 0.500000
Si Si4 0.046721 0.360726 0.500000
Si Si5 0.067664 0.163514 0.135118
Si Si6 0.332462 0.523436 0.680618
Si Si7 0.901531 0.264902 0.500000
Si Si8 0.767082 0.534047 0.374578
O O1 0.581603 0.912353 0.349244
O O2 0.543798 0.746217 0.439464
O O3 0.552437 0.549359 0.346101
O O4 0.482041 0.784253 0.351108
O O5 0.122936 0.500000 0.250000
O O6 0.147950 0.191980 0.328300
O O7 0.186590 0.508665 0.332226
O O8 0.250000 0.750000 0.500000
O O9 0.156945 0.752337 0.500000
O O10 0.209990 0.492407 0.440296
O O11 0.091799 0.506647 0.500000
O O12 0.000000 0.500000 0.500000
O O13 0.076987 0.188300 0.063035
O O14 0.121872 0.167115 0.166710
O O15 0.316698 0.500000 0.750000
O O16 0.284428 0.571376 0.640568
O O17 0.750000 0.750000 0.366550
#
# Coordination Sequence:
#
# PCOD9498345 Si02
#       8
#    16  16   8   8  16  16   8  16
#     4  10  21  40  63  89 123 170 213 257 312 383
#     4  10  22  40  64  93 124 161 211 259 320 372
#     4  12  25  38  60  98 127 157 199 258 320 369
#     4  12  21  35  59  92 122 154 211 259 324 362
#     4  10  21  40  63  87 125 170 216 252 308 385
#     4  10  22  40  65  90 118 165 212 258 306 374
#     4  12  23  37  60  96 131 164 203 267 318 375
#     4  10  22  43  66  89 125 163 204 251 317 389
#
# _framework density 24.446871000000002
#
# number of rings (size 3 to 8) (size 9 to 14) (size 15 to 20)
#    0.000    1.538    1.538    3.000    0.000    4.923 
#    0.000   12.308    0.000    0.000    0.000    0.000 
#    0.000    0.000    0.000    0.000    0.000    0.000 
#
# Total GULP energy -290015.234423 kJ/mol
# GULP energy per Si atom -5577.216047 kJ/mol
# Density = 2.439123 g / cm^3
# Si number density = 24.446871 Si / 1000 Ang^3
#
#
#
# Elastic Constant Matrix: (Units=GPa)
#
#
# Indices 1 2 3 4 5 6 
#
# 1 179.9020 35.2459 49.9235 0.0000 0.0000 0.0000
# 2 35.2459 37.6301 -16.3037 0.0000 0.0000 0.0000
# 3 49.9235 -16.3037 89.5980 0.0000 0.0000 0.0000
# 4 0.0000 0.0000 0.0000 32.5640 0.0000 0.0000
# 5 0.0000 0.0000 0.0000 0.0000 35.8944 0.0000
# 6 0.0000 0.0000 0.0000 0.0000 0.0000 47.8167
#
#
#
# Elastic Compliance Matrix: (Units=1/GPa)
#
#
# Indices 1 2 3 4 5 6 
#
# 1 0.010483 -0.013407 -0.008281 0.000000 0.000000 0.000000
# 2 -0.013407 0.045994 0.015839 0.000000 0.000000 0.000000
# 3 -0.008281 0.015839 0.018657 0.000000 0.000000 0.000000
# 4 0.000000 0.000000 0.000000 0.030709 0.000000 0.000000
# 5 0.000000 0.000000 0.000000 0.000000 0.027859 0.000000
# 6 0.000000 0.000000 0.000000 0.000000 0.000000 0.020913
#
#
# Mechanical properties :
#
#
# Convention : Reuss Voigt Hill
#
# Bulk Modulus (GPa) = 15.76317 49.42904 32.59610
# Shear Modulus (GPa) = 26.67265 39.13932 32.90599
#
# Velocity S-wave (km/s) = 3.30668 4.00558 3.67280
# Velocity P-wave (km/s) = 4.58702 6.45413 5.59895
#
# Compressibility (1/GPa) = 0.06343901
#
# Stress axis : x y z
#
# Youngs Moduli (GPa) = 95.39177 21.74179 53.59877
#
# Poissons Ratio (x) = 0.29148 0.44383
# Poissons Ratio (y) = 1.27888 -0.84898
# Poissons Ratio (z) = 0.78991 -0.34438
#
# Static dielectric constant tensor:
#      x y z
#    x 2.091790 0.000000 0.000000 
#    y 0.000000 2.075230 0.000000 
#    z 0.000000 0.000000 1.521550 
# 
# From -- ./inp_files/53092.got.cif
#   From: 2010.05.17/outbox.cif.g08.bks.cpg/sg66_27_cif.got.tgz:53092.got - 2010.06.03 17:51:23.
