data_PCOD9498112
_publ_section_title
;
Structure prediction by ZEFSAII (Michael W. Deem and Ramdas Pophale) SiO2 
 PCOD9498112
Probable space group: C C C M
;
_chemical_formula_sum "Si O2"
_cell_formula_units_Z 56
_cell_length_a 5.032596
_cell_length_b 25.512338
_cell_length_c 22.468224
_cell_angle_alpha 90.000000
_cell_angle_beta 90.000000
_cell_angle_gamma 90.000000
_cell_volume 2884.769204
_symmetry_space_group_name_H-M "C C C M"
_symmetry_group_IT_number 66
_symmetry_cell_setting 'orthorhombic'
loop_
_space_group_symop_operation_xyz
x,y,z
-x,-y,z
x,-y,1/2-z
-x,y,1/2-z
-x,-y,-z
x,y,-z
-x,y,1/2+z
x,-y,1/2+z
1/2+x,1/2+y,z
1/2-x,1/2-y,z
1/2+x,1/2-y,1/2-z
1/2-x,1/2+y,1/2-z
1/2-x,1/2-y,-z
1/2+x,1/2+y,-z
1/2-x,1/2+y,1/2+z
1/2+x,1/2-y,1/2+z
loop_
_atom_site_type_symbol
_atom_site_label
_atom_site_fract_x
_atom_site_fract_y
_atom_site_fract_z
Si Si1 0.582503 0.058007 0.819391
Si Si2 0.390811 0.601750 0.380289
Si Si3 0.509868 0.285949 0.070155
Si Si4 0.756312 0.961628 0.000000
O O1 0.500000 0.056425 0.750000
O O2 0.383189 0.101236 0.844670
O O3 0.879942 0.071257 0.842286
O O4 0.500000 0.000000 0.842911
O O5 0.487269 0.659714 0.395481
O O6 0.301185 0.573631 0.441584
O O7 0.250000 0.250000 0.074493
O O8 0.750000 0.250000 0.091339
O O9 0.553064 0.298425 0.000000
O O10 0.500000 0.000000 0.000000
O O11 0.000000 0.000000 0.000000
#
# Coordination Sequence:
#
# PCOD9498112 Si02
#       4
#    16  16  16   8
#     4  11  24  41  63  88 121 168 215 250 295 370
#     4  12  22  40  63  90 125 161 203 258 314 367
#     4  10  21  38  61  89 121 158 205 249 303 375
#     4  12  24  36  56  94 132 160 190 248 325 382
#
# _framework density 19.412296999999999
#
# number of rings (size 3 to 8) (size 9 to 14) (size 15 to 20)
#    0.000    0.857    1.429    7.714    0.000    2.286 
#    0.000    0.000    0.000   17.143    0.000    0.000 
#    0.000    0.000    0.000    0.000    0.000    0.000 
#
# Total GULP energy -156259.428158 kJ/mol
# GULP energy per Si atom -5580.693863 kJ/mol
# Density = 1.936811 g / cm^3
# Si number density = 19.412297 Si / 1000 Ang^3
#
#
#
# Elastic Constant Matrix: (Units=GPa)
#
#
# Indices 1 2 3 4 5 6 
#
# 1 112.1483 17.9314 17.2761 0.0000 0.0000 0.0000
# 2 17.9314 106.8635 23.3444 0.0000 0.0000 0.0000
# 3 17.2761 23.3444 84.5102 0.0000 0.0000 0.0000
# 4 0.0000 0.0000 0.0000 25.1486 0.0000 0.0000
# 5 0.0000 0.0000 0.0000 0.0000 22.8413 0.0000
# 6 0.0000 0.0000 0.0000 0.0000 0.0000 32.0932
#
#
#
# Elastic Compliance Matrix: (Units=1/GPa)
#
#
# Indices 1 2 3 4 5 6 
#
# 1 0.009355 -0.001226 -0.001574 0.000000 0.000000 0.000000
# 2 -0.001226 0.010119 -0.002545 0.000000 0.000000 0.000000
# 3 -0.001574 -0.002545 0.012858 0.000000 0.000000 0.000000
# 4 0.000000 0.000000 0.000000 0.039764 0.000000 0.000000
# 5 0.000000 0.000000 0.000000 0.000000 0.043780 0.000000
# 6 0.000000 0.000000 0.000000 0.000000 0.000000 0.031159
#
#
# Mechanical properties :
#
#
# Convention : Reuss Voigt Hill
#
# Bulk Modulus (GPa) = 46.20386 46.73619 46.47003
# Shear Modulus (GPa) = 30.31434 32.34798 31.33116
#
# Velocity S-wave (km/s) = 3.95600 4.08654 4.02180
# Velocity P-wave (km/s) = 6.68727 6.81133 6.74959
#
# Compressibility (1/GPa) = 0.02164321
#
# Stress axis : x y z
#
# Youngs Moduli (GPa) = 106.89210 98.82076 77.77548
#
# Poissons Ratio (x) = 0.12115 0.12240
# Poissons Ratio (y) = 0.13105 0.19791
# Poissons Ratio (z) = 0.16823 0.25146
#
# Static dielectric constant tensor:
#      x y z
#    x 1.672620 0.000000 0.000000 
#    y 0.000000 1.640410 0.000000 
#    z 0.000000 0.000000 1.645320 
# 
# From -- ./inp_files/45481.got.cif
#   From: 2010.05.17/outbox.cif.g08.bks.cpg/sg66_23_cif.got.tgz:45481.got - 2010.06.03 17:51:23.
