data_PCOD9498820
_publ_section_title
;
Structure prediction by ZEFSAII (Michael W. Deem and Ramdas Pophale) SiO2 
 PCOD9498820
Probable space group: C C C M
;
_chemical_formula_sum "Si O2"
_cell_formula_units_Z 72
_cell_length_a 15.953347
_cell_length_b 10.843802
_cell_length_c 20.503213
_cell_angle_alpha 90.000000
_cell_angle_beta 90.000000
_cell_angle_gamma 90.000000
_cell_volume 3546.952023
_symmetry_space_group_name_H-M "C C C M"
_symmetry_group_IT_number 66
_symmetry_cell_setting 'orthorhombic'
loop_
_space_group_symop_operation_xyz
x,y,z
-x,-y,z
x,-y,1/2-z
-x,y,1/2-z
-x,-y,-z
x,y,-z
-x,y,1/2+z
x,-y,1/2+z
1/2+x,1/2+y,z
1/2-x,1/2-y,z
1/2+x,1/2-y,1/2-z
1/2-x,1/2+y,1/2-z
1/2-x,1/2-y,-z
1/2+x,1/2+y,-z
1/2-x,1/2+y,1/2+z
1/2+x,1/2-y,1/2+z
loop_
_atom_site_type_symbol
_atom_site_label
_atom_site_fract_x
_atom_site_fract_y
_atom_site_fract_z
Si Si1 0.728768 0.000000 0.250000
Si Si2 0.317013 0.865102 0.000000
Si Si3 0.824795 0.847499 0.859627
Si Si4 0.658675 0.186977 0.145082
Si Si5 0.496695 0.360200 0.673031
Si Si6 0.213567 0.889653 0.500000
O O1 0.791870 0.066045 0.301251
O O2 0.670850 0.087455 0.203765
O O3 0.250000 0.750000 0.000000
O O4 0.359708 0.858297 0.071233
O O5 0.279863 0.001704 0.000000
O O6 0.750000 0.750000 0.863423
O O7 0.916356 0.794093 0.845914
O O8 0.832399 0.907262 0.931141
O O9 0.750000 0.250000 0.143938
O O10 0.586773 0.286307 0.157699
O O11 0.500000 0.500000 0.645664
O O12 0.500000 0.371277 0.750000
O O13 0.250000 0.750000 0.500000
#
# Coordination Sequence:
#
# PCOD9498820 Si02
#       6
#     8   8  16  16  16   8
#     4  12  20  38  70  92 132 178 222 274 348 396
#     4  10  22  41  67 101 138 176 224 287 337 401
#     4  11  23  41  66  92 129 176 222 270 331 400
#     4  11  23  40  65  98 137 179 222 280 345 400
#     4  11  23  40  64  98 133 168 224 282 327 394
#     4  10  22  43  69  93 132 180 228 271 335 403
#
# _framework density 20.299119000000001
#
# number of rings (size 3 to 8) (size 9 to 14) (size 15 to 20)
#    0.000    1.111    2.222    6.000    3.111    0.889 
#    0.000    6.111    0.000    2.667    0.000    0.000 
#    0.000    0.000    0.000    0.000    0.000    0.000 
#
# Total GULP energy -200594.876469 kJ/mol
# GULP energy per Si atom -5572.079902 kJ/mol
# Density = 2.025292 g / cm^3
# Si number density = 20.299119 Si / 1000 Ang^3
#
#
#
# Elastic Constant Matrix: (Units=GPa)
#
#
# Indices 1 2 3 4 5 6 
#
# 1 156.6413 51.4503 45.8592 0.0000 0.0000 0.0000
# 2 51.4503 87.2249 52.0280 0.0000 0.0000 0.0000
# 3 45.8592 52.0280 188.1571 0.0000 0.0000 0.0000
# 4 0.0000 0.0000 0.0000 11.9142 0.0000 0.0000
# 5 0.0000 0.0000 0.0000 0.0000 26.7226 0.0000
# 6 0.0000 0.0000 0.0000 0.0000 0.0000 86.3570
#
#
#
# Elastic Compliance Matrix: (Units=1/GPa)
#
#
# Indices 1 2 3 4 5 6 
#
# 1 0.008011 -0.004264 -0.000773 0.000000 0.000000 0.000000
# 2 -0.004264 0.015999 -0.003385 0.000000 0.000000 0.000000
# 3 -0.000773 -0.003385 0.006439 0.000000 0.000000 0.000000
# 4 0.000000 0.000000 0.000000 0.083933 0.000000 0.000000
# 5 0.000000 0.000000 0.000000 0.000000 0.037422 0.000000
# 6 0.000000 0.000000 0.000000 0.000000 0.000000 0.011580
#
#
# Mechanical properties :
#
#
# Convention : Reuss Voigt Hill
#
# Bulk Modulus (GPa) = 73.50429 81.18870 77.34649
# Shear Modulus (GPa) = 27.06182 43.84449 35.45315
#
# Velocity S-wave (km/s) = 3.65520 4.65254 4.18369
# Velocity P-wave (km/s) = 7.35548 8.30328 7.84371
#
# Compressibility (1/GPa) = 0.01360465
#
# Stress axis : x y z
#
# Youngs Moduli (GPa) = 124.82837 62.50545 155.30109
#
# Poissons Ratio (x) = 0.26652 0.12012
# Poissons Ratio (y) = 0.53227 0.52563
# Poissons Ratio (z) = 0.09655 0.21155
#
# Static dielectric constant tensor:
#      x y z
#    x 1.728670 0.000000 0.000000 
#    y 0.000000 1.785400 0.000000 
#    z 0.000000 0.000000 1.351980 
# 
# From -- ./inp_files/41336.got.cif
#   From: 2010.05.17/outbox.cif.g08.bks.cpg/sg66_21_cif.got.tgz:41336.got - 2010.06.03 17:51:23.
