data_PCOD9498759
_publ_section_title
;
Structure prediction by ZEFSAII (Michael W. Deem and Ramdas Pophale) SiO2 
 PCOD9498759
Probable space group: C C C M
;
_chemical_formula_sum "Si O2"
_cell_formula_units_Z 88
_cell_length_a 23.404843
_cell_length_b 14.722530
_cell_length_c 12.846894
_cell_angle_alpha 90.000000
_cell_angle_beta 90.000000
_cell_angle_gamma 90.000000
_cell_volume 4426.763505
_symmetry_space_group_name_H-M "C C C M"
_symmetry_group_IT_number 66
_symmetry_cell_setting 'orthorhombic'
loop_
_space_group_symop_operation_xyz
x,y,z
-x,-y,z
x,-y,1/2-z
-x,y,1/2-z
-x,-y,-z
x,y,-z
-x,y,1/2+z
x,-y,1/2+z
1/2+x,1/2+y,z
1/2-x,1/2-y,z
1/2+x,1/2-y,1/2-z
1/2-x,1/2+y,1/2-z
1/2-x,1/2-y,-z
1/2+x,1/2+y,-z
1/2-x,1/2+y,1/2+z
1/2+x,1/2-y,1/2+z
loop_
_atom_site_type_symbol
_atom_site_label
_atom_site_fract_x
_atom_site_fract_y
_atom_site_fract_z
Si Si1 0.427486 0.245309 0.000000
Si Si2 0.232576 0.856032 0.119350
Si Si3 0.807467 0.310108 0.500000
Si Si4 0.105606 0.100008 0.700276
Si Si5 0.332589 0.900226 0.273306
Si Si6 0.975775 0.100897 0.000000
Si Si7 0.435177 0.780710 0.282658
O O1 0.359647 0.263176 0.000000
O O2 0.472867 0.326498 0.000000
O O3 0.436560 0.184890 0.899728
O O4 0.250000 0.750000 0.117602
O O5 0.169003 0.875033 0.161290
O O6 0.276831 0.897259 0.200885
O O7 0.237292 0.890200 0.000000
O O8 0.750000 0.250000 0.500000
O O9 0.814768 0.368893 0.391972
O O10 0.063326 0.110644 0.602119
O O11 0.083111 0.175038 0.781437
O O12 0.103641 0.000000 0.750000
O O13 0.381900 0.831934 0.231858
O O14 0.356606 0.000000 0.250000
O O15 0.000000 0.000000 0.000000
O O16 0.500000 0.789380 0.250000
#
# Coordination Sequence:
#
# PCOD9498759 Si02
#       7
#     8  16   8  16  16   8  16
#     4  10  22  40  65  94 129 171 225 268 332 411
#     4  11  23  44  68  98 134 177 226 281 353 421
#     4  10  24  46  74  98 136 187 237 294 361 418
#     4  12  25  41  66  98 137 180 224 280 345 419
#     4  11  25  45  68  99 136 176 236 290 342 414
#     4  12  24  42  62  98 137 179 221 273 338 421
#     4  11  23  43  68  94 132 178 223 278 347 408
#
# _framework density 19.879083999999999
#
# number of rings (size 3 to 8) (size 9 to 14) (size 15 to 20)
#    0.000    0.909    4.545    2.182    3.818    0.364 
#    4.909    0.000    0.000    3.273    0.000    0.000 
#    0.000    0.000    0.000    0.000    0.000    0.000 
#
# Total GULP energy -245246.007983 kJ/mol
# GULP energy per Si atom -5573.772909 kJ/mol
# Density = 1.983384 g / cm^3
# Si number density = 19.879084 Si / 1000 Ang^3
#
#
#
# Elastic Constant Matrix: (Units=GPa)
#
#
# Indices 1 2 3 4 5 6 
#
# 1 177.4923 35.4792 48.8006 0.0000 0.0000 0.0000
# 2 35.4792 85.0179 13.0505 0.0000 0.0000 0.0000
# 3 48.8006 13.0505 102.9003 0.0000 0.0000 0.0000
# 4 0.0000 0.0000 0.0000 19.2317 0.0000 0.0000
# 5 0.0000 0.0000 0.0000 0.0000 11.7141 0.0000
# 6 0.0000 0.0000 0.0000 0.0000 0.0000 25.2253
#
#
#
# Elastic Compliance Matrix: (Units=1/GPa)
#
#
# Indices 1 2 3 4 5 6 
#
# 1 0.006942 -0.002439 -0.002983 0.000000 0.000000 0.000000
# 2 -0.002439 0.012853 -0.000473 0.000000 0.000000 0.000000
# 3 -0.002983 -0.000473 0.011193 0.000000 0.000000 0.000000
# 4 0.000000 0.000000 0.000000 0.051998 0.000000 0.000000
# 5 0.000000 0.000000 0.000000 0.000000 0.085367 0.000000
# 6 0.000000 0.000000 0.000000 0.000000 0.000000 0.039643
#
#
# Mechanical properties :
#
#
# Convention : Reuss Voigt Hill
#
# Bulk Modulus (GPa) = 52.09177 62.23013 57.16095
# Shear Modulus (GPa) = 22.10589 29.10623 25.60606
#
# Velocity S-wave (km/s) = 3.33831 3.83059 3.59289
# Velocity P-wave (km/s) = 6.41251 7.13701 6.78444
#
# Compressibility (1/GPa) = 0.01919689
#
# Stress axis : x y z
#
# Youngs Moduli (GPa) = 144.05736 77.80453 89.34347
#
# Poissons Ratio (x) = 0.18977 0.26649
# Poissons Ratio (y) = 0.35136 0.04229
# Poissons Ratio (z) = 0.42969 0.03683
#
# Static dielectric constant tensor:
#      x y z
#    x 1.757930 0.000000 0.000000 
#    y 0.000000 1.729260 0.000000 
#    z 0.000000 0.000000 1.817420 
# 
# From -- ./inp_files/16498.got.cif
#   From: 2010.05.17/outbox.cif.g08.bks.cpg/sg66_9_cif.got.tgz:16498.got - 2010.06.03 17:51:23.
