data_PCOD9498139
_publ_section_title
;
Structure prediction by ZEFSAII (Michael W. Deem and Ramdas Pophale) SiO2 
 PCOD9498139
Probable space group: C C C M
;
_chemical_formula_sum "Si O2"
_cell_formula_units_Z 80
_cell_length_a 12.826995
_cell_length_b 11.791732
_cell_length_c 24.897768
_cell_angle_alpha 90.000000
_cell_angle_beta 90.000000
_cell_angle_gamma 90.000000
_cell_volume 3765.849341
_symmetry_space_group_name_H-M "C C C M"
_symmetry_group_IT_number 66
_symmetry_cell_setting 'orthorhombic'
loop_
_space_group_symop_operation_xyz
x,y,z
-x,-y,z
x,-y,1/2-z
-x,y,1/2-z
-x,-y,-z
x,y,-z
-x,y,1/2+z
x,-y,1/2+z
1/2+x,1/2+y,z
1/2-x,1/2-y,z
1/2+x,1/2-y,1/2-z
1/2-x,1/2+y,1/2-z
1/2-x,1/2-y,-z
1/2+x,1/2+y,-z
1/2-x,1/2+y,1/2+z
1/2+x,1/2-y,1/2+z
loop_
_atom_site_type_symbol
_atom_site_label
_atom_site_fract_x
_atom_site_fract_y
_atom_site_fract_z
Si Si1 0.859588 0.316973 0.294804
Si Si2 0.166363 0.573851 0.819356
Si Si3 0.612001 0.471898 0.855675
Si Si4 0.469760 0.762514 0.877781
Si Si5 0.853774 0.822624 0.061181
O O1 0.750000 0.250000 0.303861
O O2 0.863775 0.348760 0.231843
O O3 0.870018 0.444170 0.318589
O O4 0.954154 0.254330 0.324733
O O5 0.290757 0.556656 0.818215
O O6 0.112616 0.638058 0.868546
O O7 0.500000 0.500000 0.829509
O O8 0.591903 0.353980 0.885590
O O9 0.639367 0.572632 0.897130
O O10 0.552121 0.763620 0.925647
O O11 0.750000 0.750000 0.069128
O O12 0.859024 0.863343 0.000000
#
# Coordination Sequence:
#
# PCOD9498139 Si02
#       5
#    16  16  16  16  16
#     4  11  22  38  59  86 127 175 220 259 315 393
#     4  11  23  38  59  91 127 170 217 267 321 385
#     4  10  21  38  62  89 125 169 216 266 320 384
#     4  11  21  36  60  89 126 163 208 267 324 381
#     4  10  22  42  68  94 124 168 218 271 338 405
#
# _framework density 21.243547
#
# number of rings (size 3 to 8) (size 9 to 14) (size 15 to 20)
#    0.000    1.400    0.000    7.200    0.000    5.200 
#    0.000    7.000    0.000   13.200    0.000    0.000 
#    0.000    0.000    0.000    0.000    0.000    0.000 
#
# Total GULP energy -223046.744202 kJ/mol
# GULP energy per Si atom -5576.168605 kJ/mol
# Density = 2.119520 g / cm^3
# Si number density = 21.243547 Si / 1000 Ang^3
#
#
#
# Elastic Constant Matrix: (Units=GPa)
#
#
# Indices 1 2 3 4 5 6 
#
# 1 91.3168 44.1292 22.1556 0.0000 0.0000 0.0000
# 2 44.1292 100.6574 33.9986 0.0000 0.0000 0.0000
# 3 22.1556 33.9986 53.9870 0.0000 0.0000 0.0000
# 4 0.0000 0.0000 0.0000 52.8280 0.0000 0.0000
# 5 0.0000 0.0000 0.0000 0.0000 14.7687 0.0000
# 6 0.0000 0.0000 0.0000 0.0000 0.0000 40.9890
#
#
#
# Elastic Compliance Matrix: (Units=1/GPa)
#
#
# Indices 1 2 3 4 5 6 
#
# 1 0.014138 -0.005383 -0.002412 0.000000 0.000000 0.000000
# 2 -0.005383 0.014669 -0.007028 0.000000 0.000000 0.000000
# 3 -0.002412 -0.007028 0.023939 0.000000 0.000000 0.000000
# 4 0.000000 0.000000 0.000000 0.018929 0.000000 0.000000
# 5 0.000000 0.000000 0.000000 0.000000 0.067711 0.000000
# 6 0.000000 0.000000 0.000000 0.000000 0.000000 0.024397
#
#
# Mechanical properties :
#
#
# Convention : Reuss Voigt Hill
#
# Bulk Modulus (GPa) = 43.29343 49.61422 46.45382
# Shear Modulus (GPa) = 24.85969 31.42899 28.14434
#
# Velocity S-wave (km/s) = 3.42456 3.85055 3.64379
# Velocity P-wave (km/s) = 6.00505 6.57074 6.29425
#
# Compressibility (1/GPa) = 0.02309820
#
# Stress axis : x y z
#
# Youngs Moduli (GPa) = 70.73345 68.17175 41.77301
#
# Poissons Ratio (x) = 0.36700 0.10074
# Poissons Ratio (y) = 0.38079 0.29360
# Poissons Ratio (z) = 0.17058 0.47914
#
# Static dielectric constant tensor:
#      x y z
#    x 1.896440 0.000000 0.000000 
#    y 0.000000 1.781480 0.000000 
#    z 0.000000 0.000000 1.786070 
# 
# From -- ./inp_files/68780.got.cif
#   From: 2010.05.17/outbox.cif.g08.bks.cpg/sg66_35_cif.got.tgz:68780.got - 2010.06.03 17:51:23.
