data_PCOD9498199
_publ_section_title
;
Structure prediction by ZEFSAII (Michael W. Deem and Ramdas Pophale) SiO2 
 PCOD9498199
Probable space group: C C C M
;
_chemical_formula_sum "Si O2"
_cell_formula_units_Z 80
_cell_length_a 21.737405
_cell_length_b 11.140992
_cell_length_c 14.129268
_cell_angle_alpha 90.000000
_cell_angle_beta 90.000000
_cell_angle_gamma 90.000000
_cell_volume 3421.773213
_symmetry_space_group_name_H-M "C C C M"
_symmetry_group_IT_number 66
_symmetry_cell_setting 'orthorhombic'
loop_
_space_group_symop_operation_xyz
x,y,z
-x,-y,z
x,-y,1/2-z
-x,y,1/2-z
-x,-y,-z
x,y,-z
-x,y,1/2+z
x,-y,1/2+z
1/2+x,1/2+y,z
1/2-x,1/2-y,z
1/2+x,1/2-y,1/2-z
1/2-x,1/2+y,1/2-z
1/2-x,1/2-y,-z
1/2+x,1/2+y,-z
1/2-x,1/2+y,1/2+z
1/2+x,1/2-y,1/2+z
loop_
_atom_site_type_symbol
_atom_site_label
_atom_site_fract_x
_atom_site_fract_y
_atom_site_fract_z
Si Si1 0.037058 0.655784 0.389724
Si Si2 0.403750 0.144491 0.695119
Si Si3 0.736914 0.878876 0.304419
Si Si4 0.859112 0.870543 0.399409
Si Si5 0.941739 0.063046 0.646697
O O1 0.050555 0.628797 0.500000
O O2 0.080315 0.608240 0.303778
O O3 0.046425 0.797922 0.370192
O O4 0.966109 0.622252 0.364801
O O5 0.334577 0.104868 0.668672
O O6 0.391938 0.288613 0.680002
O O7 0.750000 0.750000 0.251530
O O8 0.786399 0.866027 0.387252
O O9 0.754726 0.000000 0.250000
O O10 0.878378 0.817333 0.500000
O O11 0.880053 0.007816 0.395286
O O12 0.940885 0.000000 0.750000
O O13 0.000000 0.000000 0.599523
#
# Coordination Sequence:
#
# PCOD9498199 Si02
#       5
#    16  16  16  16  16
#     4  11  21  35  59  91 129 175 221 273 341 412
#     4  10  21  39  59  90 130 171 220 279 336 404
#     4  10  24  44  69  93 132 181 229 283 336 399
#     4  11  21  34  60  95 130 175 226 278 341 404
#     4  11  18  31  53  86 135 172 213 277 345 396
#
# _framework density 23.379691000000001
#
# number of rings (size 3 to 8) (size 9 to 14) (size 15 to 20)
#    0.000    1.400    4.000    3.000    2.800    5.200 
#    0.000    3.000    0.000    7.200    0.000    0.000 
#    0.000    0.000    0.000    0.000    0.000    0.000 
#
# Total GULP energy -222808.495936 kJ/mol
# GULP energy per Si atom -5570.212398 kJ/mol
# Density = 2.332648 g / cm^3
# Si number density = 23.379691 Si / 1000 Ang^3
#
#
#
# Elastic Constant Matrix: (Units=GPa)
#
#
# Indices 1 2 3 4 5 6 
#
# 1 160.9645 15.9023 42.1699 0.0000 0.0000 0.0000
# 2 15.9023 102.6653 13.8305 0.0000 0.0000 0.0000
# 3 42.1699 13.8305 155.2270 0.0000 0.0000 0.0000
# 4 0.0000 0.0000 0.0000 5.7867 0.0000 0.0000
# 5 0.0000 0.0000 0.0000 0.0000 47.3926 0.0000
# 6 0.0000 0.0000 0.0000 0.0000 0.0000 42.4639
#
#
#
# Elastic Compliance Matrix: (Units=1/GPa)
#
#
# Indices 1 2 3 4 5 6 
#
# 1 0.006754 -0.000809 -0.001763 0.000000 0.000000 0.000000
# 2 -0.000809 0.009956 -0.000667 0.000000 0.000000 0.000000
# 3 -0.001763 -0.000667 0.006981 0.000000 0.000000 0.000000
# 4 0.000000 0.000000 0.000000 0.172811 0.000000 0.000000
# 5 0.000000 0.000000 0.000000 0.000000 0.021100 0.000000
# 6 0.000000 0.000000 0.000000 0.000000 0.000000 0.023549
#
#
# Mechanical properties :
#
#
# Convention : Reuss Voigt Hill
#
# Bulk Modulus (GPa) = 58.09701 62.51802 60.30752
# Shear Modulus (GPa) = 19.73425 42.25889 30.99657
#
# Velocity S-wave (km/s) = 2.90845 4.25609 3.64509
# Velocity P-wave (km/s) = 6.01515 7.13798 6.60049
#
# Compressibility (1/GPa) = 0.01721259
#
# Stress axis : x y z
#
# Youngs Moduli (GPa) = 148.05421 100.44641 143.25539
#
# Poissons Ratio (x) = 0.08123 0.25254
# Poissons Ratio (y) = 0.11973 0.09560
# Poissons Ratio (z) = 0.26100 0.06703
#
# Static dielectric constant tensor:
#      x y z
#    x 1.891490 0.000000 0.000000 
#    y 0.000000 2.035310 0.000000 
#    z 0.000000 0.000000 1.935340 
# 
# From -- ./inp_files/32107.got.cif
#   From: 2010.05.17/outbox.cif.g08.bks.cpg/sg66_17_cif.got.tgz:32107.got - 2010.06.03 17:51:23.
