data_PCOD9498666
_publ_section_title
;
Structure prediction by ZEFSAII (Michael W. Deem and Ramdas Pophale) SiO2 
 PCOD9498666
Probable space group: C C C M
;
_chemical_formula_sum "Si O2"
_cell_formula_units_Z 80
_cell_length_a 16.217034
_cell_length_b 13.952755
_cell_length_c 14.764620
_cell_angle_alpha 90.000000
_cell_angle_beta 90.000000
_cell_angle_gamma 90.000000
_cell_volume 3340.824559
_symmetry_space_group_name_H-M "C C C M"
_symmetry_group_IT_number 66
_symmetry_cell_setting 'orthorhombic'
loop_
_space_group_symop_operation_xyz
x,y,z
-x,-y,z
x,-y,1/2-z
-x,y,1/2-z
-x,-y,-z
x,y,-z
-x,y,1/2+z
x,-y,1/2+z
1/2+x,1/2+y,z
1/2-x,1/2-y,z
1/2+x,1/2-y,1/2-z
1/2-x,1/2+y,1/2-z
1/2-x,1/2-y,-z
1/2+x,1/2+y,-z
1/2-x,1/2+y,1/2+z
1/2+x,1/2-y,1/2+z
loop_
_atom_site_type_symbol
_atom_site_label
_atom_site_fract_x
_atom_site_fract_y
_atom_site_fract_z
Si Si1 0.343722 0.243621 0.890816
Si Si2 0.636555 0.793135 0.604946
Si Si3 0.521991 0.896596 0.854829
Si Si4 0.212294 0.094973 0.389327
Si Si5 0.417947 0.441490 0.110784
O O1 0.250000 0.250000 0.856832
O O2 0.387060 0.143352 0.868122
O O3 0.400650 0.332632 0.858976
O O4 0.340430 0.249858 0.000000
O O5 0.659188 0.785872 0.500000
O O6 0.541900 0.818845 0.608280
O O7 0.694833 0.878976 0.641158
O O8 0.660859 0.689203 0.641077
O O9 0.500000 0.901020 0.750000
O O10 0.500000 0.000000 0.894981
O O11 0.211792 0.087295 0.500000
O O12 0.162730 0.001772 0.360406
O O13 0.500000 0.500000 0.139436
O O14 0.422173 0.439186 0.000000
#
# Coordination Sequence:
#
# PCOD9498666 Si02
#       5
#    16  16  16  16  16
#     4  10  22  39  62  92 121 151 196 253 307 356
#     4   9  17  32  57  86 113 145 198 247 283 338
#     4  11  25  42  58  79 117 163 205 242 296 364
#     4   8  15  28  52  88 117 142 182 238 293 343
#     4   9  16  28  52  84 120 148 175 230 302 353
#
# _framework density 23.946185
#
# number of rings (size 3 to 8) (size 9 to 14) (size 15 to 20)
#    0.000    2.600    0.000    3.000    2.800    4.800 
#    3.600    0.000    0.000    5.400    0.000    0.000 
#    0.000    0.000    0.000    0.000    0.000    0.000 
#
# Total GULP energy -223310.878329 kJ/mol
# GULP energy per Si atom -5582.771958 kJ/mol
# Density = 2.389168 g / cm^3
# Si number density = 23.946185 Si / 1000 Ang^3
#
#
#
# Elastic Constant Matrix: (Units=GPa)
#
#
# Indices 1 2 3 4 5 6 
#
# 1 127.0877 51.6371 -1.4326 0.0000 0.0000 0.0000
# 2 51.6371 118.7103 -1.6013 0.0000 0.0000 0.0000
# 3 -1.4326 -1.6013 52.0798 0.0000 0.0000 0.0000
# 4 0.0000 0.0000 0.0000 7.0197 0.0000 0.0000
# 5 0.0000 0.0000 0.0000 0.0000 71.5551 0.0000
# 6 0.0000 0.0000 0.0000 0.0000 0.0000 36.6604
#
#
#
# Elastic Compliance Matrix: (Units=1/GPa)
#
#
# Indices 1 2 3 4 5 6 
#
# 1 0.009559 -0.004156 0.000135 0.000000 0.000000 0.000000
# 2 -0.004156 0.010234 0.000200 0.000000 0.000000 0.000000
# 3 0.000135 0.000200 0.019211 0.000000 0.000000 0.000000
# 4 0.000000 0.000000 0.000000 0.142456 0.000000 0.000000
# 5 0.000000 0.000000 0.000000 0.000000 0.013975 0.000000
# 6 0.000000 0.000000 0.000000 0.000000 0.000000 0.027277
#
#
# Mechanical properties :
#
#
# Convention : Reuss Voigt Hill
#
# Bulk Modulus (GPa) = 31.88451 43.89822 37.89136
# Shear Modulus (GPa) = 20.76342 39.66535 30.21439
#
# Velocity S-wave (km/s) = 2.94783 4.07435 3.55598
# Velocity P-wave (km/s) = 4.99302 6.36440 5.71996
#
# Compressibility (1/GPa) = 0.03136320
#
# Stress axis : x y z
#
# Youngs Moduli (GPa) = 104.61593 97.70961 52.05304
#
# Poissons Ratio (x) = 0.40609 -0.00704
# Poissons Ratio (y) = 0.43479 -0.01043
# Poissons Ratio (z) = -0.01414 -0.01958
#
# Static dielectric constant tensor:
#      x y z
#    x 1.857780 0.000000 0.000000 
#    y 0.000000 1.976620 0.000000 
#    z 0.000000 0.000000 1.908000 
# 
# From -- ./inp_files/49775.got.cif
#   From: 2010.05.17/outbox.cif.g08.bks.cpg/sg66_25_cif.got.tgz:49775.got - 2010.06.03 17:51:23.
