data_PCOD9498526
_publ_section_title
;
Structure prediction by ZEFSAII (Michael W. Deem and Ramdas Pophale) SiO2 
 PCOD9498526
Probable space group: C C C M
;
_chemical_formula_sum "Si O2"
_cell_formula_units_Z 112
_cell_length_a 14.667120
_cell_length_b 14.852315
_cell_length_c 23.696648
_cell_angle_alpha 90.000000
_cell_angle_beta 90.000000
_cell_angle_gamma 90.000000
_cell_volume 5162.094065
_symmetry_space_group_name_H-M "C C C M"
_symmetry_group_IT_number 66
_symmetry_cell_setting 'orthorhombic'
loop_
_space_group_symop_operation_xyz
x,y,z
-x,-y,z
x,-y,1/2-z
-x,y,1/2-z
-x,-y,-z
x,y,-z
-x,y,1/2+z
x,-y,1/2+z
1/2+x,1/2+y,z
1/2-x,1/2-y,z
1/2+x,1/2-y,1/2-z
1/2-x,1/2+y,1/2-z
1/2-x,1/2-y,-z
1/2+x,1/2+y,-z
1/2-x,1/2+y,1/2+z
1/2+x,1/2-y,1/2+z
loop_
_atom_site_type_symbol
_atom_site_label
_atom_site_fract_x
_atom_site_fract_y
_atom_site_fract_z
Si Si1 0.417860 0.119068 0.562030
Si Si2 0.307324 0.332469 0.326438
Si Si3 0.423768 0.423433 0.884108
Si Si4 0.080109 0.833094 0.939058
Si Si5 0.230155 0.507257 0.874910
Si Si6 0.553658 0.088028 0.665882
Si Si7 0.413659 0.714610 0.717072
O O1 0.444309 0.086627 0.500000
O O2 0.410074 0.226132 0.558693
O O3 0.492963 0.103678 0.610010
O O4 0.324815 0.070009 0.580991
O O5 0.250000 0.250000 0.350365
O O6 0.377965 0.352419 0.377082
O O7 0.252968 0.425337 0.323058
O O8 0.339640 0.297701 0.265909
O O9 0.500000 0.500000 0.867396
O O10 0.477051 0.369857 0.933084
O O11 0.324782 0.466021 0.897359
O O12 0.401385 0.349692 0.836151
O O13 0.116888 0.867746 0.000000
O O14 0.155719 0.437347 0.852676
O O15 0.563047 0.182406 0.699407
O O16 0.500000 0.000000 0.690864
O O17 0.500000 0.676388 0.750000
#
# Coordination Sequence:
#
# PCOD9498526 Si02
#       7
#    16  16  16  16  16  16  16
#     4  10  21  45  77 102 138 190 241 301 363 423
#     4  12  25  45  67 102 139 185 240 290 353 422
#     4  12  25  46  68 104 141 189 237 286 358 436
#     4  11  23  45  73  98 138 185 234 292 358 425
#     4  11  25  42  67 103 144 179 242 291 350 433
#     4  10  24  46  70 107 142 181 244 300 355 424
#     4  12  25  46  71  94 146 192 229 296 361 420
#
# _framework density 21.696621
#
# number of rings (size 3 to 8) (size 9 to 14) (size 15 to 20)
#    0.000    0.857    5.714    0.000    4.000    6.571 
#    0.000    0.000    0.000    1.714    0.000    0.000 
#    0.000    0.000    0.000    0.000    0.000    0.000 
#
# Total GULP energy -312026.143324 kJ/mol
# GULP energy per Si atom -5571.895416 kJ/mol
# Density = 2.164724 g / cm^3
# Si number density = 21.696621 Si / 1000 Ang^3
#
#
#
# Elastic Constant Matrix: (Units=GPa)
#
#
# Indices 1 2 3 4 5 6 
#
# 1 124.4156 42.8015 40.8796 0.0000 0.0000 0.0000
# 2 42.8015 104.2906 56.5907 0.0000 0.0000 0.0000
# 3 40.8796 56.5907 146.4243 0.0000 0.0000 0.0000
# 4 0.0000 0.0000 0.0000 -11.2934 0.0000 0.0000
# 5 0.0000 0.0000 0.0000 0.0000 28.2170 0.0000
# 6 0.0000 0.0000 0.0000 0.0000 0.0000 26.1167
#
#
#
# Elastic Compliance Matrix: (Units=1/GPa)
#
#
# Indices 1 2 3 4 5 6 
#
# 1 0.009601 -0.003145 -0.001465 0.000000 0.000000 0.000000
# 2 -0.003145 0.013164 -0.004209 0.000000 0.000000 0.000000
# 3 -0.001465 -0.004209 0.008865 0.000000 0.000000 0.000000
# 4 0.000000 0.000000 0.000000 -0.088548 0.000000 0.000000
# 5 0.000000 0.000000 0.000000 0.000000 0.035440 0.000000
# 6 0.000000 0.000000 0.000000 0.000000 0.000000 0.038290
#
#
# Mechanical properties :
#
#
# Convention : Reuss Voigt Hill
#
# Bulk Modulus (GPa) = 71.47643 72.85270 72.16456
# Shear Modulus (GPa) = 127.83024 24.26531 76.04778
#
# Velocity S-wave (km/s) = 7.68408 3.34786 5.92677
# Velocity P-wave (km/s) = 10.57080 6.97102 8.95368
#
# Compressibility (1/GPa) = 0.01399063
#
# Stress axis : x y z
#
# Youngs Moduli (GPa) = 104.15610 75.96694 112.79980
#
# Poissons Ratio (x) = 0.23895 0.16523
# Poissons Ratio (y) = 0.32762 0.47482
# Poissons Ratio (z) = 0.15257 0.31977
#
# Static dielectric constant tensor:
#      x y z
#    x 1.243650 0.000000 0.000000 
#    y 0.000000 1.842980 0.000000 
#    z 0.000000 0.000000 1.878590 
# 
# From -- ./inp_files/64663.got.cif
#   From: 2010.05.17/outbox.cif.g08.bks.cpg/sg66_33_cif.got.tgz:64663.got - 2010.06.03 17:51:23.
