data_PCOD9498537
_publ_section_title
;
Structure prediction by ZEFSAII (Michael W. Deem and Ramdas Pophale) SiO2 
 PCOD9498537
Probable space group: C C C M
;
_chemical_formula_sum "Si O2"
_cell_formula_units_Z 52
_cell_length_a 17.946626
_cell_length_b 8.858176
_cell_length_c 13.415261
_cell_angle_alpha 90.000000
_cell_angle_beta 90.000000
_cell_angle_gamma 90.000000
_cell_volume 2132.682689
_symmetry_space_group_name_H-M "C C C M"
_symmetry_group_IT_number 66
_symmetry_cell_setting 'orthorhombic'
loop_
_space_group_symop_operation_xyz
x,y,z
-x,-y,z
x,-y,1/2-z
-x,y,1/2-z
-x,-y,-z
x,y,-z
-x,y,1/2+z
x,-y,1/2+z
1/2+x,1/2+y,z
1/2-x,1/2-y,z
1/2+x,1/2-y,1/2-z
1/2-x,1/2+y,1/2-z
1/2-x,1/2-y,-z
1/2+x,1/2+y,-z
1/2-x,1/2+y,1/2+z
1/2+x,1/2-y,1/2+z
loop_
_atom_site_type_symbol
_atom_site_label
_atom_site_fract_x
_atom_site_fract_y
_atom_site_fract_z
Si Si1 0.000000 0.000000 0.000000
Si Si2 0.942608 0.253920 0.665037
Si Si3 0.808422 0.972250 0.000000
Si Si4 0.857052 0.619971 0.000000
Si Si5 0.812107 0.867143 0.307439
O O1 0.021695 0.129536 0.089073
O O2 0.907841 0.387663 0.597648
O O3 0.873660 0.188565 0.730601
O O4 0.000000 0.300659 0.750000
O O5 0.829088 0.796375 0.000000
O O6 0.718391 0.976930 0.000000
O O7 0.842917 0.059637 0.092686
O O8 0.750000 0.750000 0.336055
O O9 0.769314 0.000000 0.250000
#
# Coordination Sequence:
#
# PCOD9498537 Si02
#       5
#     4  16   8   8  16
#     4  10  22  34  52  92 130 160 200 266 328 374
#     4  11  23  37  61  96 130 166 212 266 327 378
#     4  11  23  41  62  95 131 166 220 259 322 378
#     4  10  22  41  64  91 133 171 205 269 323 381
#     4  12  24  40  65  95 130 170 215 265 318 385
#
# _framework density 24.382436999999999
#
# number of rings (size 3 to 8) (size 9 to 14) (size 15 to 20)
#    0.000    0.923    3.077    4.615    4.308    1.231 
#    0.000    0.000    0.000   10.154    0.000    0.000 
#    0.000    0.000    0.000    0.000    0.000    0.000 
#
# Total GULP energy -144847.071092 kJ/mol
# GULP energy per Si atom -5571.041196 kJ/mol
# Density = 2.432694 g / cm^3
# Si number density = 24.382437 Si / 1000 Ang^3
#
#
#
# Elastic Constant Matrix: (Units=GPa)
#
#
# Indices 1 2 3 4 5 6 
#
# 1 119.7140 10.4658 42.6157 0.0000 0.0000 0.0000
# 2 10.4658 18.3622 6.1117 0.0000 0.0000 0.0000
# 3 42.6157 6.1117 189.8481 0.0000 0.0000 0.0000
# 4 0.0000 0.0000 0.0000 1.5670 0.0000 0.0000
# 5 0.0000 0.0000 0.0000 0.0000 32.9923 0.0000
# 6 0.0000 0.0000 0.0000 0.0000 0.0000 31.3823
#
#
#
# Elastic Compliance Matrix: (Units=1/GPa)
#
#
# Indices 1 2 3 4 5 6 
#
# 1 0.009470 -0.004741 -0.001973 0.000000 0.000000 0.000000
# 2 -0.004741 0.057423 -0.000784 0.000000 0.000000 0.000000
# 3 -0.001973 -0.000784 0.005736 0.000000 0.000000 0.000000
# 4 0.000000 0.000000 0.000000 0.638173 0.000000 0.000000
# 5 0.000000 0.000000 0.000000 0.000000 0.030310 0.000000
# 6 0.000000 0.000000 0.000000 0.000000 0.000000 0.031865
#
#
# Mechanical properties :
#
#
# Convention : Reuss Voigt Hill
#
# Bulk Modulus (GPa) = 17.35155 49.59008 33.47081
# Shear Modulus (GPa) = 6.19437 31.10372 18.64904
#
# Velocity S-wave (km/s) = 1.59563 3.57551 2.76860
# Velocity P-wave (km/s) = 3.24447 6.11787 4.89668
#
# Compressibility (1/GPa) = 0.05763175
#
# Stress axis : x y z
#
# Youngs Moduli (GPa) = 105.59537 17.41462 174.35153
#
# Poissons Ratio (x) = 0.08256 0.34402
# Poissons Ratio (y) = 0.50062 0.13676
# Poissons Ratio (z) = 0.20836 0.01366
#
# Static dielectric constant tensor:
#      x y z
#    x 2.020640 0.000000 0.000000 
#    y 0.000000 1.959060 0.000000 
#    z 0.000000 0.000000 2.127680 
# 
# From -- ./inp_files/18423.got.cif
#   From: 2010.05.17/outbox.cif.g08.bks.cpg/sg66_10_cif.got.tgz:18423.got - 2010.06.03 17:51:23.
