data_PCOD9498947
_publ_section_title
;
Structure prediction by ZEFSAII (Michael W. Deem and Ramdas Pophale) SiO2 
 PCOD9498947
Probable space group: C C C M
;
_chemical_formula_sum "Si O2"
_cell_formula_units_Z 64
_cell_length_a 11.983899
_cell_length_b 15.065215
_cell_length_c 14.982999
_cell_angle_alpha 90.000000
_cell_angle_beta 90.000000
_cell_angle_gamma 90.000000
_cell_volume 2705.030864
_symmetry_space_group_name_H-M "C C C M"
_symmetry_group_IT_number 66
_symmetry_cell_setting 'orthorhombic'
loop_
_space_group_symop_operation_xyz
x,y,z
-x,-y,z
x,-y,1/2-z
-x,y,1/2-z
-x,-y,-z
x,y,-z
-x,y,1/2+z
x,-y,1/2+z
1/2+x,1/2+y,z
1/2-x,1/2-y,z
1/2+x,1/2-y,1/2-z
1/2-x,1/2+y,1/2-z
1/2-x,1/2-y,-z
1/2+x,1/2+y,-z
1/2-x,1/2+y,1/2+z
1/2+x,1/2-y,1/2+z
loop_
_atom_site_type_symbol
_atom_site_label
_atom_site_fract_x
_atom_site_fract_y
_atom_site_fract_z
Si Si1 0.045198 0.713410 0.603579
Si Si2 0.705623 0.848400 0.405688
Si Si3 0.797703 0.590568 0.218946
Si Si4 0.423085 0.581810 0.606984
O O1 0.086901 0.708441 0.500000
O O2 0.125551 0.664505 0.673216
O O3 0.032896 0.817864 0.626115
O O4 0.927516 0.662114 0.604714
O O5 0.731186 0.896294 0.500000
O O6 0.750000 0.750000 0.414817
O O7 0.753873 0.880394 0.313075
O O8 0.858533 0.500000 0.250000
O O9 0.697794 0.573529 0.150994
O O10 0.500000 0.500000 0.637040
O O11 0.414984 0.576665 0.500000
#
# Coordination Sequence:
#
# PCOD9498947 Si02
#       4
#    16  16  16  16
#     4  10  22  44  73 101 140 191 243 306 374 443
#     4  10  23  42  66  96 136 187 238 292 360 429
#     4  12  26  41  65 104 145 189 240 298 367 441
#     4  10  23  45  74 106 141 184 245 314 379 443
#
# _framework density 23.659618999999999
#
# number of rings (size 3 to 8) (size 9 to 14) (size 15 to 20)
#    0.000    1.500    0.000    3.750    3.500    6.500 
#    0.000    2.500    0.000    0.750    0.000    0.000 
#    0.000    0.000    0.000    0.000    0.000    0.000 
#
# Total GULP energy -178892.097715 kJ/mol
# GULP energy per Si atom -5590.378054 kJ/mol
# Density = 2.360577 g / cm^3
# Si number density = 23.659619 Si / 1000 Ang^3
#
#
#
# Elastic Constant Matrix: (Units=GPa)
#
#
# Indices 1 2 3 4 5 6 
#
# 1 57.7650 9.7438 16.0358 0.0000 0.0000 0.0000
# 2 9.7438 116.7442 41.8459 0.0000 0.0000 0.0000
# 3 16.0358 41.8459 104.2303 0.0000 0.0000 0.0000
# 4 0.0000 0.0000 0.0000 23.0100 0.0000 0.0000
# 5 0.0000 0.0000 0.0000 0.0000 6.1613 0.0000
# 6 0.0000 0.0000 0.0000 0.0000 0.0000 36.1642
#
#
#
# Elastic Compliance Matrix: (Units=1/GPa)
#
#
# Indices 1 2 3 4 5 6 
#
# 1 0.018120 -0.000599 -0.002547 0.000000 0.000000 0.000000
# 2 -0.000599 0.010025 -0.003933 0.000000 0.000000 0.000000
# 3 -0.002547 -0.003933 0.011565 0.000000 0.000000 0.000000
# 4 0.000000 0.000000 0.000000 0.043459 0.000000 0.000000
# 5 0.000000 0.000000 0.000000 0.000000 0.162304 0.000000
# 6 0.000000 0.000000 0.000000 0.000000 0.000000 0.027652
#
#
# Mechanical properties :
#
#
# Convention : Reuss Voigt Hill
#
# Bulk Modulus (GPa) = 39.13638 45.99894 42.56766
# Shear Modulus (GPa) = 16.90327 27.14136 22.02231
#
# Velocity S-wave (km/s) = 2.67579 3.39065 3.05421
# Velocity P-wave (km/s) = 5.11115 5.90024 5.51981
#
# Compressibility (1/GPa) = 0.02555167
#
# Stress axis : x y z
#
# Youngs Moduli (GPa) = 55.18855 99.74645 86.46844
#
# Poissons Ratio (x) = 0.05978 0.22024
# Poissons Ratio (y) = 0.03308 0.34006
# Poissons Ratio (z) = 0.14057 0.39228
#
# Static dielectric constant tensor:
#      x y z
#    x 1.878120 0.000000 0.000000 
#    y 0.000000 1.959400 0.000000 
#    z 0.000000 0.000000 2.022030 
# 
# From -- ./inp_files/25762.got.cif
#   From: 2010.05.17/outbox.cif.g08.bks.cpg/sg66_13_cif.got.tgz:25762.got - 2010.06.03 17:51:23.
