data_PCOD9498086
_publ_section_title
;
Structure prediction by ZEFSAII (Michael W. Deem and Ramdas Pophale) SiO2 
 PCOD9498086
Probable space group: C C C M
;
_chemical_formula_sum "Si O2"
_cell_formula_units_Z 60
_cell_length_a 9.798267
_cell_length_b 10.285336
_cell_length_c 24.402563
_cell_angle_alpha 90.000000
_cell_angle_beta 90.000000
_cell_angle_gamma 90.000000
_cell_volume 2459.252922
_symmetry_space_group_name_H-M "C C C M"
_symmetry_group_IT_number 66
_symmetry_cell_setting 'orthorhombic'
loop_
_space_group_symop_operation_xyz
x,y,z
-x,-y,z
x,-y,1/2-z
-x,y,1/2-z
-x,-y,-z
x,y,-z
-x,y,1/2+z
x,-y,1/2+z
1/2+x,1/2+y,z
1/2-x,1/2-y,z
1/2+x,1/2-y,1/2-z
1/2-x,1/2+y,1/2-z
1/2-x,1/2-y,-z
1/2+x,1/2+y,-z
1/2-x,1/2+y,1/2+z
1/2+x,1/2-y,1/2+z
loop_
_atom_site_type_symbol
_atom_site_label
_atom_site_fract_x
_atom_site_fract_y
_atom_site_fract_z
Si Si1 0.149872 0.870806 0.938692
Si Si2 0.000000 0.000000 0.652549
Si Si3 0.162684 0.378021 0.914212
Si Si4 0.774251 0.396335 0.707209
Si Si5 0.000000 0.500000 0.000000
O O1 0.250000 0.750000 0.932514
O O2 0.245062 0.999565 0.933567
O O3 0.091275 0.871791 0.000000
O O4 0.044933 0.885387 0.888995
O O5 0.127617 0.953396 0.687762
O O6 0.250000 0.250000 0.924923
O O7 0.140851 0.386274 0.849121
O O8 0.031810 0.391658 0.951865
O O9 0.830780 0.500000 0.750000
O O10 0.750000 0.250000 0.729067
#
# Coordination Sequence:
#
# PCOD9498086 Si02
#       5
#    16   8  16  16   4
#     4  10  21  38  59  98 135 176 223 270 326 403
#     4  10  22  42  70  92 134 181 219 276 352 398
#     4  10  23  42  65  97 134 181 225 276 338 411
#     4  10  23  46  72 100 134 179 232 291 345 405
#     4  12  22  40  68  94 138 180 220 272 342 404
#
# _framework density 24.397652000000001
#
# number of rings (size 3 to 8) (size 9 to 14) (size 15 to 20)
#    0.000    1.867    1.333    1.200    0.000   10.667 
#    0.000    6.000    0.000    0.000    0.000    0.000 
#    0.000    0.000    0.000    0.000    0.000    0.000 
#
# Total GULP energy -167536.425086 kJ/mol
# GULP energy per Si atom -5584.547503 kJ/mol
# Density = 2.434212 g / cm^3
# Si number density = 24.397652 Si / 1000 Ang^3
#
#
#
# Elastic Constant Matrix: (Units=GPa)
#
#
# Indices 1 2 3 4 5 6 
#
# 1 69.2774 20.1438 26.2218 0.0000 0.0000 0.0000
# 2 20.1438 190.4430 78.7140 0.0000 0.0000 0.0000
# 3 26.2218 78.7140 137.7630 0.0000 0.0000 0.0000
# 4 0.0000 0.0000 0.0000 43.5546 0.0000 0.0000
# 5 0.0000 0.0000 0.0000 0.0000 -24.1576 0.0000
# 6 0.0000 0.0000 0.0000 0.0000 0.0000 40.3124
#
#
#
# Elastic Compliance Matrix: (Units=1/GPa)
#
#
# Indices 1 2 3 4 5 6 
#
# 1 0.015600 -0.000554 -0.002653 0.000000 0.000000 0.000000
# 2 -0.000554 0.006894 -0.003834 0.000000 0.000000 0.000000
# 3 -0.002653 -0.003834 0.009954 0.000000 0.000000 0.000000
# 4 0.000000 0.000000 0.000000 0.022960 0.000000 0.000000
# 5 0.000000 0.000000 0.000000 0.000000 -0.041395 0.000000
# 6 0.000000 0.000000 0.000000 0.000000 0.000000 0.024806
#
#
# Mechanical properties :
#
#
# Convention : Reuss Voigt Hill
#
# Bulk Modulus (GPa) = 54.44340 71.96030 63.20185
# Shear Modulus (GPa) = 84.71383 30.10212 57.40798
#
# Velocity S-wave (km/s) = 5.89894 3.51638 4.85605
# Velocity P-wave (km/s) = 8.29217 6.78567 7.57646
#
# Compressibility (1/GPa) = 0.01836770
#
# Stress axis : x y z
#
# Youngs Moduli (GPa) = 64.10323 145.05358 100.45923
#
# Poissons Ratio (x) = 0.08029 0.26652
# Poissons Ratio (y) = 0.03548 0.38513
# Poissons Ratio (z) = 0.17007 0.55609
#
# Static dielectric constant tensor:
#      x y z
#    x 2.133270 0.000000 0.000000 
#    y 0.000000 1.963970 0.000000 
#    z 0.000000 0.000000 1.968820 
# 
# From -- ./inp_files/63271.got.cif
#   From: 2010.05.17/outbox.cif.g08.bks.cpg/sg66_32_cif.got.tgz:63271.got - 2010.06.03 17:51:23.
