data_PCOD9499035
_publ_section_title
;
Structure prediction by ZEFSAII (Michael W. Deem and Ramdas Pophale) SiO2 
 PCOD9499035
Probable space group: C C C M
;
_chemical_formula_sum "Si O2"
_cell_formula_units_Z 88
_cell_length_a 23.059034
_cell_length_b 12.697170
_cell_length_c 14.870938
_cell_angle_alpha 90.000000
_cell_angle_beta 90.000000
_cell_angle_gamma 90.000000
_cell_volume 4353.979771
_symmetry_space_group_name_H-M "C C C M"
_symmetry_group_IT_number 66
_symmetry_cell_setting 'orthorhombic'
loop_
_space_group_symop_operation_xyz
x,y,z
-x,-y,z
x,-y,1/2-z
-x,y,1/2-z
-x,-y,-z
x,y,-z
-x,y,1/2+z
x,-y,1/2+z
1/2+x,1/2+y,z
1/2-x,1/2-y,z
1/2+x,1/2-y,1/2-z
1/2-x,1/2+y,1/2-z
1/2-x,1/2-y,-z
1/2+x,1/2+y,-z
1/2-x,1/2+y,1/2+z
1/2+x,1/2-y,1/2+z
loop_
_atom_site_type_symbol
_atom_site_label
_atom_site_fract_x
_atom_site_fract_y
_atom_site_fract_z
Si Si1 0.998592 0.329226 0.857556
Si Si2 0.907159 0.488244 0.642328
Si Si3 0.320794 0.429200 0.833860
Si Si4 0.973629 0.156340 0.000000
Si Si5 0.403216 0.456547 0.000000
Si Si6 0.250000 0.750000 0.760800
Si Si7 0.784512 0.574974 0.399410
O O1 0.952305 0.419835 0.881879
O O2 0.000000 0.313249 0.750000
O O3 0.061588 0.378414 0.881332
O O4 0.978283 0.228907 0.912166
O O5 0.902006 0.500000 0.750000
O O6 0.844585 0.511766 0.603709
O O7 0.342679 0.500000 0.750000
O O8 0.294982 0.319047 0.797555
O O9 0.266832 0.495369 0.873817
O O10 0.368103 0.422402 0.911669
O O11 0.033567 0.093198 0.000000
O O12 0.917357 0.081765 0.000000
O O13 0.216814 0.667379 0.825496
O O14 0.775500 0.616755 0.500000
#
# Coordination Sequence:
#
# PCOD9499035 Si02
#       7
#    16  16  16   8   8   8  16
#     4   9  21  40  62  92 127 167 206 258 316 384
#     4   9  19  37  61  94 133 161 199 252 326 388
#     4  10  23  45  67  90 132 168 211 270 324 379
#     4  11  26  41  65  87 123 159 224 268 307 380
#     4  11  26  47  59  91 121 169 220 267 317 366
#     4  10  23  41  64  96 130 174 220 256 320 400
#     4  11  22  38  64  99 132 167 211 270 326 384
#
# _framework density 20.211395
#
# number of rings (size 3 to 8) (size 9 to 14) (size 15 to 20)
#    0.000    2.000    0.909    3.000    2.545    9.818 
#    0.000    1.818    0.000    0.000    0.000    0.000 
#    0.000    0.000    0.000    0.000    0.000    0.000 
#
# Total GULP energy -245755.265538 kJ/mol
# GULP energy per Si atom -5585.346944 kJ/mol
# Density = 2.016539 g / cm^3
# Si number density = 20.211395 Si / 1000 Ang^3
#
#
#
# Elastic Constant Matrix: (Units=GPa)
#
#
# Indices 1 2 3 4 5 6 
#
# 1 71.6240 17.4737 37.6425 0.0000 0.0000 0.0000
# 2 17.4737 89.0480 42.1591 0.0000 0.0000 0.0000
# 3 37.6425 42.1591 116.4972 0.0000 0.0000 0.0000
# 4 0.0000 0.0000 0.0000 25.4017 0.0000 0.0000
# 5 0.0000 0.0000 0.0000 0.0000 19.1678 0.0000
# 6 0.0000 0.0000 0.0000 0.0000 0.0000 21.3801
#
#
#
# Elastic Compliance Matrix: (Units=1/GPa)
#
#
# Indices 1 2 3 4 5 6 
#
# 1 0.016875 -0.000881 -0.005134 0.000000 0.000000 0.000000
# 2 -0.000881 0.013598 -0.004636 0.000000 0.000000 0.000000
# 3 -0.005134 -0.004636 0.011921 0.000000 0.000000 0.000000
# 4 0.000000 0.000000 0.000000 0.039367 0.000000 0.000000
# 5 0.000000 0.000000 0.000000 0.000000 0.052171 0.000000
# 6 0.000000 0.000000 0.000000 0.000000 0.000000 0.046772
#
#
# Mechanical properties :
#
#
# Convention : Reuss Voigt Hill
#
# Bulk Modulus (GPa) = 47.41275 52.41329 49.91302
# Shear Modulus (GPa) = 23.91933 25.18286 24.55110
#
# Velocity S-wave (km/s) = 3.44387 3.53366 3.48906
# Velocity P-wave (km/s) = 6.27081 6.52977 6.40160
#
# Compressibility (1/GPa) = 0.02109137
#
# Stress axis : x y z
#
# Youngs Moduli (GPa) = 59.26000 73.54161 83.88863
#
# Poissons Ratio (x) = 0.06477 0.43067
# Poissons Ratio (y) = 0.05219 0.38893
# Poissons Ratio (z) = 0.30423 0.34096
#
# Static dielectric constant tensor:
#      x y z
#    x 1.689410 0.000000 0.000000 
#    y 0.000000 1.735540 0.000000 
#    z 0.000000 0.000000 1.726450 
# 
# From -- ./inp_files/32244.got.cif
#   From: 2010.05.17/outbox.cif.g08.bks.cpg/sg66_17_cif.got.tgz:32244.got - 2010.06.03 17:51:23.
