data_PCOD9499825
_publ_section_title
;
Structure prediction by ZEFSAII (Michael W. Deem and Ramdas Pophale) SiO2 
 PCOD9499825
Probable space group: C C C M
;
_chemical_formula_sum "Si O2"
_cell_formula_units_Z 88
_cell_length_a 28.577098
_cell_length_b 5.100324
_cell_length_c 27.929973
_cell_angle_alpha 90.000000
_cell_angle_beta 90.000000
_cell_angle_gamma 90.000000
_cell_volume 4070.862238
_symmetry_space_group_name_H-M "C C C M"
_symmetry_group_IT_number 66
_symmetry_cell_setting 'orthorhombic'
loop_
_space_group_symop_operation_xyz
x,y,z
-x,-y,z
x,-y,1/2-z
-x,y,1/2-z
-x,-y,-z
x,y,-z
-x,y,1/2+z
x,-y,1/2+z
1/2+x,1/2+y,z
1/2-x,1/2-y,z
1/2+x,1/2-y,1/2-z
1/2-x,1/2+y,1/2-z
1/2-x,1/2-y,-z
1/2+x,1/2+y,-z
1/2-x,1/2+y,1/2+z
1/2+x,1/2-y,1/2+z
loop_
_atom_site_type_symbol
_atom_site_label
_atom_site_fract_x
_atom_site_fract_y
_atom_site_fract_z
Si Si1 0.828871 0.000000 0.250000
Si Si2 0.750000 0.250000 0.577040
Si Si3 0.634157 0.446365 0.500000
Si Si4 0.395724 0.000000 0.750000
Si Si5 0.945551 0.422851 0.351789
Si Si6 0.202752 0.920209 0.146874
Si Si7 0.196998 0.442602 0.500000
Si Si8 0.398668 0.598823 0.895047
O O1 0.862134 0.749714 0.251879
O O2 0.798986 0.001953 0.298114
O O3 0.708992 0.336529 0.611643
O O4 0.771153 0.477460 0.544659
O O5 0.654353 0.151858 0.500000
O O6 0.608552 0.508313 0.550072
O O7 0.677601 0.651624 0.500000
O O8 0.425355 0.020104 0.798683
O O9 0.925414 0.628433 0.390206
O O10 0.000000 0.500000 0.349815
O O11 0.927191 0.132506 0.367217
O O12 0.250000 0.750000 0.140250
O O13 0.151244 0.830103 0.130514
#
# Coordination Sequence:
#
# PCOD9499825 Si02
#       8
#     8   8   8   8  16  16   8  16
#     4  12  28  43  69 101 148 191 241 279 354 434
#     4  11  26  40  66 100 138 192 248 299 340 416
#     4  12  24  45  71 102 139 191 230 302 357 420
#     4  12  23  49  74 107 136 181 238 303 351 428
#     4  12  26  49  78 107 140 183 235 305 370 428
#     4  12  27  43  67 100 149 197 235 290 347 425
#     4  11  24  42  68 100 136 185 257 295 345 404
#     4  12  26  48  72 108 144 185 243 290 360 433
#
# _framework density 21.617042999999999
#
# number of rings (size 3 to 8) (size 9 to 14) (size 15 to 20)
#    0.000    0.182    5.455    3.000    6.364    0.727 
#    0.000    5.455    0.000    0.000    0.000    0.000 
#    0.000    0.000    0.000    0.000    0.000    0.000 
#
# Total GULP energy -246039.372033 kJ/mol
# GULP energy per Si atom -5591.803910 kJ/mol
# Density = 2.156784 g / cm^3
# Si number density = 21.617043 Si / 1000 Ang^3
#
#
#
# Elastic Constant Matrix: (Units=GPa)
#
#
# Indices 1 2 3 4 5 6 
#
# 1 90.7554 28.0033 31.0009 0.0000 0.0000 0.0000
# 2 28.0033 89.7536 0.1851 0.0000 0.0000 0.0000
# 3 31.0009 0.1851 157.8272 0.0000 0.0000 0.0000
# 4 0.0000 0.0000 0.0000 30.9944 0.0000 0.0000
# 5 0.0000 0.0000 0.0000 0.0000 41.9609 0.0000
# 6 0.0000 0.0000 0.0000 0.0000 0.0000 30.3746
#
#
#
# Elastic Compliance Matrix: (Units=1/GPa)
#
#
# Indices 1 2 3 4 5 6 
#
# 1 0.013166 -0.004103 -0.002581 0.000000 0.000000 0.000000
# 2 -0.004103 0.012420 0.000791 0.000000 0.000000 0.000000
# 3 -0.002581 0.000791 0.006842 0.000000 0.000000 0.000000
# 4 0.000000 0.000000 0.000000 0.032264 0.000000 0.000000
# 5 0.000000 0.000000 0.000000 0.000000 0.023832 0.000000
# 6 0.000000 0.000000 0.000000 0.000000 0.000000 0.032922
#
#
# Mechanical properties :
#
#
# Convention : Reuss Voigt Hill
#
# Bulk Modulus (GPa) = 48.44231 50.74609 49.59420
# Shear Modulus (GPa) = 35.68560 39.27578 37.48069
#
# Velocity S-wave (km/s) = 4.06742 4.26712 4.16847
# Velocity P-wave (km/s) = 6.67207 6.91403 6.79413
#
# Compressibility (1/GPa) = 0.02064311
#
# Stress axis : x y z
#
# Youngs Moduli (GPa) = 75.95170 80.51537 146.15289
#
# Poissons Ratio (x) = 0.33032 0.37727
# Poissons Ratio (y) = 0.31160 -0.11565
# Poissons Ratio (z) = 0.19606 -0.06371
#
# Static dielectric constant tensor:
#      x y z
#    x 1.925930 0.000000 0.000000 
#    y 0.000000 1.762180 0.000000 
#    z 0.000000 0.000000 1.783150 
# 
# From -- ./inp_files/70424.got.cif
#   From: 2010.05.17/outbox.cif.g08.bks.cpg/sg66_36_cif.got.tgz:70424.got - 2010.06.03 17:51:23.
