data_PCOD9499962
_publ_section_title
;
Structure prediction by ZEFSAII (Michael W. Deem and Ramdas Pophale) SiO2 
 PCOD9499962
Probable space group: C C C M
;
_chemical_formula_sum "Si O2"
_cell_formula_units_Z 72
_cell_length_a 7.713899
_cell_length_b 25.887196
_cell_length_c 14.062994
_cell_angle_alpha 90.000000
_cell_angle_beta 90.000000
_cell_angle_gamma 90.000000
_cell_volume 2808.256363
_symmetry_space_group_name_H-M "C C C M"
_symmetry_group_IT_number 66
_symmetry_cell_setting 'orthorhombic'
loop_
_space_group_symop_operation_xyz
x,y,z
-x,-y,z
x,-y,1/2-z
-x,y,1/2-z
-x,-y,-z
x,y,-z
-x,y,1/2+z
x,-y,1/2+z
1/2+x,1/2+y,z
1/2-x,1/2-y,z
1/2+x,1/2-y,1/2-z
1/2-x,1/2+y,1/2-z
1/2-x,1/2-y,-z
1/2+x,1/2+y,-z
1/2-x,1/2+y,1/2+z
1/2+x,1/2-y,1/2+z
loop_
_atom_site_type_symbol
_atom_site_label
_atom_site_fract_x
_atom_site_fract_y
_atom_site_fract_z
Si Si1 0.953738 0.942825 0.384264
Si Si2 0.000000 0.244102 0.750000
Si Si3 0.561472 0.942207 0.384602
Si Si4 0.048852 0.162151 0.891090
Si Si5 0.125019 0.330441 0.390568
O O1 0.951223 0.940001 0.500000
O O2 0.758583 0.938919 0.350895
O O3 0.081306 0.896606 0.357032
O O4 0.000000 0.000000 0.357486
O O5 0.890772 0.204491 0.683502
O O6 0.085549 0.282294 0.674911
O O7 0.550994 0.943431 0.500000
O O8 0.514121 0.882127 0.362533
O O9 0.500000 0.000000 0.355577
O O10 0.835922 0.163028 0.891357
O O11 0.106448 0.170172 0.000000
O O12 0.078986 0.318956 0.500000
#
# Coordination Sequence:
#
# PCOD9499962 Si02
#       5
#    16   8  16  16  16
#     4   8  14  28  52  79 105 136 176 221 271 328
#     4  12  20  30  54  78 100 134 188 232 256 302
#     4   8  14  28  52  79 105 136 176 221 271 328
#     4   9  19  36  56  77 104 141 182 222 269 327
#     4   9  19  36  56  77 104 141 182 222 269 327
#
# _framework density 25.638683
#
# number of rings (size 3 to 8) (size 9 to 14) (size 15 to 20)
#    0.000    3.111    0.000    4.000    0.000    1.778 
#    0.000    5.556    0.000   21.333    0.000    0.000 
#    0.000    0.000    0.000    0.000    0.000    5.333 
#
# Total GULP energy -200743.615280 kJ/mol
# GULP energy per Si atom -5576.211536 kJ/mol
# Density = 2.558033 g / cm^3
# Si number density = 25.638683 Si / 1000 Ang^3
#
#
#
# Elastic Constant Matrix: (Units=GPa)
#
#
# Indices 1 2 3 4 5 6 
#
# 1 25.7758 25.4913 11.6293 0.0000 0.0000 0.0000
# 2 25.4913 259.3098 79.7834 0.0000 0.0000 0.0000
# 3 11.6293 79.7834 151.4821 0.0000 0.0000 0.0000
# 4 0.0000 0.0000 0.0000 180.1406 0.0000 0.0000
# 5 0.0000 0.0000 0.0000 0.0000 14.9125 0.0000
# 6 0.0000 0.0000 0.0000 0.0000 0.0000 15.6997
#
#
#
# Elastic Compliance Matrix: (Units=1/GPa)
#
#
# Indices 1 2 3 4 5 6 
#
# 1 0.043183 -0.003849 -0.001288 0.000000 0.000000 0.000000
# 2 -0.003849 0.004945 -0.002309 0.000000 0.000000 0.000000
# 3 -0.001288 -0.002309 0.007916 0.000000 0.000000 0.000000
# 4 0.000000 0.000000 0.000000 0.005551 0.000000 0.000000
# 5 0.000000 0.000000 0.000000 0.000000 0.067058 0.000000
# 6 0.000000 0.000000 0.000000 0.000000 0.000000 0.063696
#
#
# Mechanical properties :
#
#
# Convention : Reuss Voigt Hill
#
# Bulk Modulus (GPa) = 24.29944 74.48617 49.39281
# Shear Modulus (GPa) = 22.62859 63.46148 43.04504
#
# Velocity S-wave (km/s) = 2.97407 4.98056 4.10190
# Velocity P-wave (km/s) = 4.61429 7.88606 6.46071
#
# Compressibility (1/GPa) = 0.04115321
#
# Stress axis : x y z
#
# Youngs Moduli (GPa) = 23.15700 202.21627 126.31861
#
# Poissons Ratio (x) = 0.77830 0.16271
# Poissons Ratio (y) = 0.08913 0.29168
# Poissons Ratio (z) = 0.02983 0.46694
#
# Static dielectric constant tensor:
#      x y z
#    x 2.086040 0.000000 0.000000 
#    y 0.000000 2.221900 0.000000 
#    z 0.000000 0.000000 1.992990 
# 
# From -- ./inp_files/24452.got.cif
#   From: 2010.05.17/outbox.cif.g08.bks.cpg/sg66_13_cif.got.tgz:24452.got - 2010.06.03 17:51:23.
