data_PCOD9499066
_publ_section_title
;
Structure prediction by ZEFSAII (Michael W. Deem and Ramdas Pophale) SiO2 
 PCOD9499066
Probable space group: C C C M
;
_chemical_formula_sum "Si O2"
_cell_formula_units_Z 32
_cell_length_a 5.231421
_cell_length_b 12.579298
_cell_length_c 21.172100
_cell_angle_alpha 90.000000
_cell_angle_beta 90.000000
_cell_angle_gamma 90.000000
_cell_volume 1393.285167
_symmetry_space_group_name_H-M "C C C M"
_symmetry_group_IT_number 66
_symmetry_cell_setting 'orthorhombic'
loop_
_space_group_symop_operation_xyz
x,y,z
-x,-y,z
x,-y,1/2-z
-x,y,1/2-z
-x,-y,-z
x,y,-z
-x,y,1/2+z
x,-y,1/2+z
1/2+x,1/2+y,z
1/2-x,1/2-y,z
1/2+x,1/2-y,1/2-z
1/2-x,1/2+y,1/2-z
1/2-x,1/2-y,-z
1/2+x,1/2+y,-z
1/2-x,1/2+y,1/2+z
1/2+x,1/2-y,1/2+z
loop_
_atom_site_type_symbol
_atom_site_label
_atom_site_fract_x
_atom_site_fract_y
_atom_site_fract_z
Si Si1 0.500000 0.500000 0.106310
Si Si2 0.747592 0.869710 0.206110
Si Si3 0.494073 0.677064 0.000000
O O1 0.278104 0.459262 0.153131
O O2 0.466419 0.600145 0.060587
O O3 0.500000 0.879034 0.250000
O O4 0.750000 0.750000 0.177893
O O5 0.000000 0.875260 0.250000
O O6 0.750000 0.750000 0.000000
O O7 0.250000 0.750000 0.000000
#
# Coordination Sequence:
#
# PCOD9499066 Si02
#       3
#     8  16   8
#     4  11  25  46  76 102 141 191 236 286 356 423
#     4  10  23  42  67 102 141 179 224 282 345 417
#     4  11  28  49  72 104 140 185 242 301 348 406
#
# _framework density 22.967302
#
# number of rings (size 3 to 8) (size 9 to 14) (size 15 to 20)
#    0.000    1.500    0.000    2.250    0.000   22.000 
#    0.000    5.000    0.000    0.000    0.000    0.000 
#    0.000    0.000    0.000    0.000    0.000    0.000 
#
# Total GULP energy -89477.278893 kJ/mol
# GULP energy per Si atom -5592.329931 kJ/mol
# Density = 2.291503 g / cm^3
# Si number density = 22.967302 Si / 1000 Ang^3
#
#
#
# Elastic Constant Matrix: (Units=GPa)
#
#
# Indices 1 2 3 4 5 6 
#
# 1 210.7395 94.6656 85.1598 0.0000 0.0000 0.0000
# 2 94.6656 211.4751 93.8392 0.0000 0.0000 0.0000
# 3 85.1598 93.8392 137.8500 0.0000 0.0000 0.0000
# 4 0.0000 0.0000 0.0000 -69.8004 0.0000 0.0000
# 5 0.0000 0.0000 0.0000 0.0000 -10.3972 0.0000
# 6 0.0000 0.0000 0.0000 0.0000 0.0000 37.0008
#
#
#
# Elastic Compliance Matrix: (Units=1/GPa)
#
#
# Indices 1 2 3 4 5 6 
#
# 1 0.006711 -0.001668 -0.003010 0.000000 0.000000 0.000000
# 2 -0.001668 0.007190 -0.003864 0.000000 0.000000 0.000000
# 3 -0.003010 -0.003864 0.011744 0.000000 0.000000 0.000000
# 4 0.000000 0.000000 0.000000 -0.014327 0.000000 0.000000
# 5 0.000000 0.000000 0.000000 0.000000 -0.096180 0.000000
# 6 0.000000 0.000000 0.000000 0.000000 0.000000 0.027026
#
#
# Mechanical properties :
#
#
# Convention : Reuss Voigt Hill
#
# Bulk Modulus (GPa) = 116.81674 123.04373 119.93024
# Shear Modulus (GPa) = -131.93941 10.45398 -60.74272
#
# Velocity S-wave (km/s) = -7.58758 2.13578 -5.14829
# Velocity P-wave (km/s) = 5.07830 7.73122 4.12205
#
# Compressibility (1/GPa) = 0.00856042
#
# Stress axis : x y z
#
# Youngs Moduli (GPa) = 149.00742 139.08057 85.14953
#
# Poissons Ratio (x) = 0.23205 0.25631
# Poissons Ratio (y) = 0.24862 0.32900
# Poissons Ratio (z) = 0.44853 0.53738
#
# Static dielectric constant tensor:
#      x y z
#    x 1.808570 0.000000 0.000000 
#    y 0.000000 1.885340 0.000000 
#    z 0.000000 0.000000 1.892310 
# 
# From -- ./inp_files/34229.got.cif
#   From: 2010.05.17/outbox.cif.g08.bks.cpg/sg66_18_cif.got.tgz:34229.got - 2010.06.03 17:51:23.
