data_PCOD9499141
_publ_section_title
;
Structure prediction by ZEFSAII (Michael W. Deem and Ramdas Pophale) SiO2 
 PCOD9499141
Probable space group: C C C M
;
_chemical_formula_sum "Si O2"
_cell_formula_units_Z 52
_cell_length_a 21.726652
_cell_length_b 7.978089
_cell_length_c 14.416291
_cell_angle_alpha 90.000000
_cell_angle_beta 90.000000
_cell_angle_gamma 90.000000
_cell_volume 2498.878988
_symmetry_space_group_name_H-M "C C C M"
_symmetry_group_IT_number 66
_symmetry_cell_setting 'orthorhombic'
loop_
_space_group_symop_operation_xyz
x,y,z
-x,-y,z
x,-y,1/2-z
-x,y,1/2-z
-x,-y,-z
x,y,-z
-x,y,1/2+z
x,-y,1/2+z
1/2+x,1/2+y,z
1/2-x,1/2-y,z
1/2+x,1/2-y,1/2-z
1/2-x,1/2+y,1/2-z
1/2-x,1/2-y,-z
1/2+x,1/2+y,-z
1/2-x,1/2+y,1/2+z
1/2+x,1/2-y,1/2+z
loop_
_atom_site_type_symbol
_atom_site_label
_atom_site_fract_x
_atom_site_fract_y
_atom_site_fract_z
Si Si1 0.836260 0.591348 0.000000
Si Si2 0.100102 0.938537 0.855775
Si Si3 0.698672 0.517415 0.000000
Si Si4 0.000000 0.000000 0.000000
Si Si5 0.931980 0.549123 0.357027
O O1 0.878493 0.542602 0.913090
O O2 0.771618 0.492742 0.000000
O O3 0.817419 0.784925 0.000000
O O4 0.076720 0.747912 0.865011
O O5 0.101956 0.000000 0.750000
O O6 0.051785 0.040372 0.918614
O O7 0.165341 0.946732 0.908359
O O8 0.928320 0.500000 0.250000
O O9 0.000000 0.500000 0.391409
#
# Coordination Sequence:
#
# PCOD9499141 Si02
#       5
#     8  16   8   4  16
#     4  11  23  46  66  94 137 164 223 277 316 394
#     4  11  24  42  66  98 130 175 216 267 323 392
#     4  10  25  42  70  97 122 182 218 264 332 378
#     4  10  24  34  66  92 126 166 208 258 314 382
#     4  11  26  41  64  99 132 175 213 270 333 380
#
# _framework density 20.809331
#
# number of rings (size 3 to 8) (size 9 to 14) (size 15 to 20)
#    0.000    1.231    0.000    4.615   17.231    3.692 
#    0.000    0.000    0.000    0.000    0.000    0.000 
#    0.000    0.000    0.000    0.000    0.000    0.000 
#
# Total GULP energy -144924.647907 kJ/mol
# GULP energy per Si atom -5574.024919 kJ/mol
# Density = 2.076197 g / cm^3
# Si number density = 20.809331 Si / 1000 Ang^3
#
#
#
# Elastic Constant Matrix: (Units=GPa)
#
#
# Indices 1 2 3 4 5 6 
#
# 1 214.2008 36.4858 86.9108 0.0000 0.0000 0.0000
# 2 36.4858 92.8412 16.8790 0.0000 0.0000 0.0000
# 3 86.9108 16.8790 182.7639 0.0000 0.0000 0.0000
# 4 0.0000 0.0000 0.0000 -53.6614 0.0000 0.0000
# 5 0.0000 0.0000 0.0000 0.0000 12.8999 0.0000
# 6 0.0000 0.0000 0.0000 0.0000 0.0000 23.6603
#
#
#
# Elastic Compliance Matrix: (Units=1/GPa)
#
#
# Indices 1 2 3 4 5 6 
#
# 1 0.006098 -0.001901 -0.002724 0.000000 0.000000 0.000000
# 2 -0.001901 0.011548 -0.000162 0.000000 0.000000 0.000000
# 3 -0.002724 -0.000162 0.006782 0.000000 0.000000 0.000000
# 4 0.000000 0.000000 0.000000 -0.018635 0.000000 0.000000
# 5 0.000000 0.000000 0.000000 0.000000 0.077520 0.000000
# 6 0.000000 0.000000 0.000000 0.000000 0.000000 0.042265
#
#
# Mechanical properties :
#
#
# Convention : Reuss Voigt Hill
#
# Bulk Modulus (GPa) = 67.33055 85.59524 76.46289
# Shear Modulus (GPa) = 35.68814 19.88177 27.78495
#
# Velocity S-wave (km/s) = 4.14576 3.09435 3.65803
# Velocity P-wave (km/s) = 7.43926 7.34773 7.39363
#
# Compressibility (1/GPa) = 0.01485210
#
# Stress axis : x y z
#
# Youngs Moduli (GPa) = 163.99877 86.59722 147.45057
#
# Poissons Ratio (x) = 0.16463 0.40166
# Poissons Ratio (y) = 0.31177 0.02395
# Poissons Ratio (z) = 0.44674 0.01407
#
# Static dielectric constant tensor:
#      x y z
#    x 1.743460 0.000000 0.000000 
#    y 0.000000 2.820390 0.000000 
#    z 0.000000 0.000000 1.720010 
# 
# From -- ./inp_files/30658.got.cif
#   From: 2010.05.17/outbox.cif.g08.bks.cpg/sg66_16_cif.got.tgz:30658.got - 2010.06.03 17:51:23.
