data_PCOD9499135
_publ_section_title
;
Structure prediction by ZEFSAII (Michael W. Deem and Ramdas Pophale) SiO2 
 PCOD9499135
Probable space group: C C C M
;
_chemical_formula_sum "Si O2"
_cell_formula_units_Z 48
_cell_length_a 21.149375
_cell_length_b 5.060492
_cell_length_c 18.725865
_cell_angle_alpha 90.000000
_cell_angle_beta 90.000000
_cell_angle_gamma 90.000000
_cell_volume 2004.158978
_symmetry_space_group_name_H-M "C C C M"
_symmetry_group_IT_number 66
_symmetry_cell_setting 'orthorhombic'
loop_
_space_group_symop_operation_xyz
x,y,z
-x,-y,z
x,-y,1/2-z
-x,y,1/2-z
-x,-y,-z
x,y,-z
-x,y,1/2+z
x,-y,1/2+z
1/2+x,1/2+y,z
1/2-x,1/2-y,z
1/2+x,1/2-y,1/2-z
1/2-x,1/2+y,1/2-z
1/2-x,1/2-y,-z
1/2+x,1/2+y,-z
1/2-x,1/2+y,1/2+z
1/2+x,1/2-y,1/2+z
loop_
_atom_site_type_symbol
_atom_site_label
_atom_site_fract_x
_atom_site_fract_y
_atom_site_fract_z
Si Si1 0.311310 0.583951 0.582202
Si Si2 0.143127 0.744090 0.201670
Si Si3 0.924700 0.509793 0.579164
O O1 0.301877 0.511114 0.500000
O O2 0.250000 0.750000 0.603660
O O3 0.314988 0.340678 0.635541
O O4 0.377095 0.755725 0.586428
O O5 0.165768 0.500000 0.250000
O O6 0.083690 0.653767 0.154970
O O7 0.133026 0.000000 0.250000
O O8 0.905445 0.623588 0.500000
O O9 0.000000 0.500000 0.573018
#
# Coordination Sequence:
#
# PCOD9499135 Si02
#       3
#    16  16  16
#     4  10  23  48  79 110 148 198 259 316 373 449
#     4  12  25  49  71 111 154 196 239 307 379 453
#     4  10  23  47  75 104 143 197 257 310 370 448
#
# _framework density 23.950195999999998
#
# number of rings (size 3 to 8) (size 9 to 14) (size 15 to 20)
#    0.000    1.333    3.333    1.000    0.000    3.333 
#   12.000   10.000    0.000    0.000    0.000    0.000 
#    0.000    0.000    0.000    0.000    0.000    0.000 
#
# Total GULP energy -133824.307641 kJ/mol
# GULP energy per Si atom -5576.012818 kJ/mol
# Density = 2.389568 g / cm^3
# Si number density = 23.950196 Si / 1000 Ang^3
#
#
#
# Elastic Constant Matrix: (Units=GPa)
#
#
# Indices 1 2 3 4 5 6 
#
# 1 125.3352 36.8455 -0.6610 0.0000 0.0000 0.0000
# 2 36.8455 124.3039 66.7372 0.0000 0.0000 0.0000
# 3 -0.6610 66.7372 159.5961 0.0000 0.0000 0.0000
# 4 0.0000 0.0000 0.0000 -115.6912 0.0000 0.0000
# 5 0.0000 0.0000 0.0000 0.0000 83.0845 0.0000
# 6 0.0000 0.0000 0.0000 0.0000 0.0000 17.8256
#
#
#
# Elastic Compliance Matrix: (Units=1/GPa)
#
#
# Indices 1 2 3 4 5 6 
#
# 1 0.009006 -0.003468 0.001488 0.000000 0.000000 0.000000
# 2 -0.003468 0.011709 -0.004911 0.000000 0.000000 0.000000
# 3 0.001488 -0.004911 0.008325 0.000000 0.000000 0.000000
# 4 0.000000 0.000000 0.000000 -0.008644 0.000000 0.000000
# 5 0.000000 0.000000 0.000000 0.000000 0.012036 0.000000
# 6 0.000000 0.000000 0.000000 0.000000 0.000000 0.056099
#
#
# Mechanical properties :
#
#
# Convention : Reuss Voigt Hill
#
# Bulk Modulus (GPa) = 65.53910 68.34206 66.94058
# Shear Modulus (GPa) = 46.55453 17.46469 32.00961
#
# Velocity S-wave (km/s) = 4.41364 2.70332 3.65979
# Velocity P-wave (km/s) = 7.30738 6.19200 6.77269
#
# Compressibility (1/GPa) = 0.01525807
#
# Stress axis : x y z
#
# Youngs Moduli (GPa) = 111.03705 85.40189 120.11314
#
# Poissons Ratio (x) = 0.29619 -0.17867
# Poissons Ratio (y) = 0.38509 0.58985
# Poissons Ratio (z) = -0.16517 0.41939
#
# Static dielectric constant tensor:
#      x y z
#    x 1.973600 0.000000 0.000000 
#    y 0.000000 2.131000 0.000000 
#    z 0.000000 0.000000 1.906250 
# 
# From -- ./inp_files/34665.got.cif
#   From: 2010.05.17/outbox.cif.g08.bks.cpg/sg66_18_cif.got.tgz:34665.got - 2010.06.03 17:51:23.
