data_PCOD9499854
_publ_section_title
;
Structure prediction by ZEFSAII (Michael W. Deem and Ramdas Pophale) SiO2 
 PCOD9499854
Probable space group: C C C M
;
_chemical_formula_sum "Si O2"
_cell_formula_units_Z 56
_cell_length_a 5.465487
_cell_length_b 17.883565
_cell_length_c 26.423118
_cell_angle_alpha 90.000000
_cell_angle_beta 90.000000
_cell_angle_gamma 90.000000
_cell_volume 2582.658758
_symmetry_space_group_name_H-M "C C C M"
_symmetry_group_IT_number 66
_symmetry_cell_setting 'orthorhombic'
loop_
_space_group_symop_operation_xyz
x,y,z
-x,-y,z
x,-y,1/2-z
-x,y,1/2-z
-x,-y,-z
x,y,-z
-x,y,1/2+z
x,-y,1/2+z
1/2+x,1/2+y,z
1/2-x,1/2-y,z
1/2+x,1/2-y,1/2-z
1/2-x,1/2+y,1/2-z
1/2-x,1/2-y,-z
1/2+x,1/2+y,-z
1/2-x,1/2+y,1/2+z
1/2+x,1/2-y,1/2+z
loop_
_atom_site_type_symbol
_atom_site_label
_atom_site_fract_x
_atom_site_fract_y
_atom_site_fract_z
Si Si1 0.999541 0.796954 0.389381
Si Si2 0.188553 0.931523 0.554889
Si Si3 0.000000 0.500000 0.856015
Si Si4 0.897552 0.080987 0.806209
O O1 0.750000 0.750000 0.395356
O O2 0.969978 0.849077 0.339861
O O3 0.250000 0.750000 0.385770
O O4 0.040090 0.855976 0.434525
O O5 0.315009 0.927212 0.500000
O O6 0.359009 0.948123 0.602857
O O7 0.000000 0.000000 0.553710
O O8 0.883408 0.438571 0.817893
O O9 0.000000 0.090040 0.750000
O O10 0.000000 0.000000 0.824551
#
# Coordination Sequence:
#
# PCOD9499854 Si02
#       4
#    16  16   8  16
#     4  12  26  47  71 104 158 200 235 303 375 447
#     4  11  24  44  74 108 141 194 254 304 362 438
#     4  12  19  47  76 104 144 178 250 318 368 420
#     4  11  25  45  72 106 133 191 250 310 361 435
#
# _framework density 21.683083
#
# number of rings (size 3 to 8) (size 9 to 14) (size 15 to 20)
#    0.000    0.571    5.714    2.143    0.000    4.571 
#    0.000    0.000    0.000    0.000    0.000    0.000 
#    0.000    0.000    0.000    0.000    0.000    0.000 
#
# Total GULP energy -156132.464318 kJ/mol
# GULP energy per Si atom -5576.159440 kJ/mol
# Density = 2.163373 g / cm^3
# Si number density = 21.683083 Si / 1000 Ang^3
#
#
#
# Elastic Constant Matrix: (Units=GPa)
#
#
# Indices 1 2 3 4 5 6 
#
# 1 103.7867 68.3305 53.0872 0.0000 0.0000 0.0000
# 2 68.3305 151.9129 39.5637 0.0000 0.0000 0.0000
# 3 53.0872 39.5637 166.8896 0.0000 0.0000 0.0000
# 4 0.0000 0.0000 0.0000 2001.4562 0.0000 0.0000
# 5 0.0000 0.0000 0.0000 0.0000 29.4301 0.0000
# 6 0.0000 0.0000 0.0000 0.0000 0.0000 56.4575
#
#
#
# Elastic Compliance Matrix: (Units=1/GPa)
#
#
# Indices 1 2 3 4 5 6 
#
# 1 0.015362 -0.006008 -0.003462 0.000000 0.000000 0.000000
# 2 -0.006008 0.009366 -0.000309 0.000000 0.000000 0.000000
# 3 -0.003462 -0.000309 0.007167 0.000000 0.000000 0.000000
# 4 0.000000 0.000000 0.000000 0.000500 0.000000 0.000000
# 5 0.000000 0.000000 0.000000 0.000000 0.033979 0.000000
# 6 0.000000 0.000000 0.000000 0.000000 0.000000 0.017712
#
#
# Mechanical properties :
#
#
# Convention : Reuss Voigt Hill
#
# Bulk Modulus (GPa) = 81.06905 82.72801 81.89853
# Shear Modulus (GPa) = 46.40158 434.90927 240.65542
#
# Velocity S-wave (km/s) = 4.63102 14.17783 10.54650
# Velocity P-wave (km/s) = 8.12801 17.50001 13.64395
#
# Compressibility (1/GPa) = 0.01233516
#
# Stress axis : x y z
#
# Youngs Moduli (GPa) = 65.09759 106.77356 139.53640
#
# Poissons Ratio (x) = 0.64149 0.48310
# Poissons Ratio (y) = 0.39110 0.04314
# Poissons Ratio (z) = 0.22538 0.03301
#
# Static dielectric constant tensor:
#      x y z
#    x 2.330430 0.000000 0.000000 
#    y 0.000000 1.774900 0.000000 
#    z 0.000000 0.000000 1.782770 
# 
# From -- ./inp_files/61080.got.cif
#   From: 2010.05.17/outbox.cif.g08.bks.cpg/sg66_31_cif.got.tgz:61080.got - 2010.06.03 17:51:23.
