data_PCOD9499820
_publ_section_title
;
Structure prediction by ZEFSAII (Michael W. Deem and Ramdas Pophale) SiO2 
 PCOD9499820
Probable space group: C C C M
;
_chemical_formula_sum "Si O2"
_cell_formula_units_Z 72
_cell_length_a 8.818832
_cell_length_b 25.045669
_cell_length_c 16.012548
_cell_angle_alpha 90.000000
_cell_angle_beta 90.000000
_cell_angle_gamma 90.000000
_cell_volume 3536.748277
_symmetry_space_group_name_H-M "C C C M"
_symmetry_group_IT_number 66
_symmetry_cell_setting 'orthorhombic'
loop_
_space_group_symop_operation_xyz
x,y,z
-x,-y,z
x,-y,1/2-z
-x,y,1/2-z
-x,-y,-z
x,y,-z
-x,y,1/2+z
x,-y,1/2+z
1/2+x,1/2+y,z
1/2-x,1/2-y,z
1/2+x,1/2-y,1/2-z
1/2-x,1/2+y,1/2-z
1/2-x,1/2-y,-z
1/2+x,1/2+y,-z
1/2-x,1/2+y,1/2+z
1/2+x,1/2-y,1/2+z
loop_
_atom_site_type_symbol
_atom_site_label
_atom_site_fract_x
_atom_site_fract_y
_atom_site_fract_z
Si Si1 0.934084 0.440066 0.336059
Si Si2 0.928014 0.059518 0.000000
Si Si3 0.592407 0.594891 0.166950
Si Si4 0.076860 0.733794 0.000000
Si Si5 0.089085 0.222221 0.165354
Si Si6 0.913659 0.605631 0.500000
O O1 0.752514 0.435817 0.335113
O O2 0.000000 0.500000 0.339910
O O3 0.000000 0.416009 0.250000
O O4 0.996820 0.411379 0.417407
O O5 0.995398 0.083770 0.915367
O O6 0.748607 0.074278 0.000000
O O7 0.000000 0.000000 0.000000
O O8 0.500000 0.579678 0.250000
O O9 0.615969 0.658591 0.167305
O O10 0.250000 0.750000 0.000000
O O11 0.084919 0.669632 0.000000
O O12 0.997747 0.758026 0.082530
O O13 0.250000 0.250000 0.165803
O O14 0.000000 0.236391 0.250000
#
# Coordination Sequence:
#
# PCOD9499820 Si02
#       6
#    16   8  16   8  16   8
#     4  11  24  43  66  95 128 166 213 266 321 384
#     4  12  25  42  65  94 129 172 219 269 323 384
#     4  11  24  43  67  95 129 169 215 266 322 384
#     4  12  25  41  64  94 130 169 217 267 319 383
#     4  11  24  42  66  95 129 169 214 266 323 385
#     4  12  24  41  67  94 129 173 213 266 325 381
#
# _framework density 20.357680999999999
#
# number of rings (size 3 to 8) (size 9 to 14) (size 15 to 20)
#    0.000    0.667    0.000    8.000    0.000    9.333 
#    0.000    0.000    0.000    0.000    0.000    0.000 
#    0.000    0.000    0.000    0.000    0.000    0.000 
#
# Total GULP energy -201386.478877 kJ/mol
# GULP energy per Si atom -5594.068858 kJ/mol
# Density = 2.031135 g / cm^3
# Si number density = 20.357681 Si / 1000 Ang^3
#
#
#
# Elastic Constant Matrix: (Units=GPa)
#
#
# Indices 1 2 3 4 5 6 
#
# 1 196.8322 57.3108 90.5573 0.0000 0.0000 0.0000
# 2 57.3108 95.7850 48.0401 0.0000 0.0000 0.0000
# 3 90.5573 48.0401 207.2651 0.0000 0.0000 0.0000
# 4 0.0000 0.0000 0.0000 7.4309 0.0000 0.0000
# 5 0.0000 0.0000 0.0000 0.0000 48.7117 0.0000
# 6 0.0000 0.0000 0.0000 0.0000 0.0000 33.9119
#
#
#
# Elastic Compliance Matrix: (Units=1/GPa)
#
#
# Indices 1 2 3 4 5 6 
#
# 1 0.007058 -0.003028 -0.002382 0.000000 0.000000 0.000000
# 2 -0.003028 0.013113 -0.001716 0.000000 0.000000 0.000000
# 3 -0.002382 -0.001716 0.006263 0.000000 0.000000 0.000000
# 4 0.000000 0.000000 0.000000 0.134573 0.000000 0.000000
# 5 0.000000 0.000000 0.000000 0.000000 0.020529 0.000000
# 6 0.000000 0.000000 0.000000 0.000000 0.000000 0.029488
#
#
# Mechanical properties :
#
#
# Convention : Reuss Voigt Hill
#
# Bulk Modulus (GPa) = 82.09384 99.07764 90.58574
# Shear Modulus (GPa) = 21.80192 38.27584 30.03888
#
# Velocity S-wave (km/s) = 3.27608 4.34079 3.84546
# Velocity P-wave (km/s) = 7.39753 8.59636 8.01938
#
# Compressibility (1/GPa) = 0.01218118
#
# Stress axis : x y z
#
# Youngs Moduli (GPa) = 141.68171 76.26168 159.66362
#
# Poissons Ratio (x) = 0.23095 0.38029
# Poissons Ratio (y) = 0.42908 0.27400
# Poissons Ratio (z) = 0.33746 0.13087
#
# Static dielectric constant tensor:
#      x y z
#    x 1.690410 0.000000 0.000000 
#    y 0.000000 1.866690 0.000000 
#    z 0.000000 0.000000 1.669340 
# 
# From -- ./inp_files/24532.got.cif
#   From: 2010.05.17/outbox.cif.g08.bks.cpg/sg66_13_cif.got.tgz:24532.got - 2010.06.03 17:51:23.
