data_PCOD9499882
_publ_section_title
;
Structure prediction by ZEFSAII (Michael W. Deem and Ramdas Pophale) SiO2 
 PCOD9499882
Probable space group: C C C M
;
_chemical_formula_sum "Si O2"
_cell_formula_units_Z 40
_cell_length_a 8.513619
_cell_length_b 20.671890
_cell_length_c 9.527590
_cell_angle_alpha 90.000000
_cell_angle_beta 90.000000
_cell_angle_gamma 90.000000
_cell_volume 1676.785293
_symmetry_space_group_name_H-M "C C C M"
_symmetry_group_IT_number 66
_symmetry_cell_setting 'orthorhombic'
loop_
_space_group_symop_operation_xyz
x,y,z
-x,-y,z
x,-y,1/2-z
-x,y,1/2-z
-x,-y,-z
x,y,-z
-x,y,1/2+z
x,-y,1/2+z
1/2+x,1/2+y,z
1/2-x,1/2-y,z
1/2+x,1/2-y,1/2-z
1/2-x,1/2+y,1/2-z
1/2-x,1/2-y,-z
1/2+x,1/2+y,-z
1/2-x,1/2+y,1/2+z
1/2+x,1/2-y,1/2+z
loop_
_atom_site_type_symbol
_atom_site_label
_atom_site_fract_x
_atom_site_fract_y
_atom_site_fract_z
Si Si1 0.582218 0.715494 0.000000
Si Si2 0.847782 0.666510 0.500000
Si Si3 0.337578 0.389136 0.769881
Si Si4 0.886979 0.561199 0.000000
O O1 0.750000 0.750000 0.000000
O O2 0.598491 0.669264 0.133011
O O3 0.426414 0.761111 0.000000
O O4 0.750754 0.642500 0.636572
O O5 0.005084 0.624201 0.500000
O O6 0.500000 0.426903 0.750000
O O7 0.219206 0.432175 0.861677
O O8 0.000000 0.500000 0.000000
#
# Coordination Sequence:
#
# PCOD9499882 Si02
#       4
#     8   8  16   8
#     4  11  25  40  67 111 158 193 241 291 376 459
#     4  12  25  44  74 105 148 198 247 298 371 444
#     4  11  26  46  71 111 151 194 247 305 374 455
#     4  11  26  49  74 103 140 194 253 312 378 439
#
# _framework density 23.855170000000001
#
# number of rings (size 3 to 8) (size 9 to 14) (size 15 to 20)
#    0.000    0.800    4.000    3.600    5.600    4.800 
#    0.000    6.000    0.000    0.000    0.000    0.000 
#    0.000    0.000    0.000    0.000    0.000    0.000 
#
# Total GULP energy -111826.845087 kJ/mol
# GULP energy per Si atom -5591.342254 kJ/mol
# Density = 2.380088 g / cm^3
# Si number density = 23.855170 Si / 1000 Ang^3
#
#
#
# Elastic Constant Matrix: (Units=GPa)
#
#
# Indices 1 2 3 4 5 6 
#
# 1 222.4038 63.3344 95.4083 0.0000 0.0000 0.0000
# 2 63.3344 119.4042 61.9959 0.0000 0.0000 0.0000
# 3 95.4083 61.9959 201.9970 0.0000 0.0000 0.0000
# 4 0.0000 0.0000 0.0000 -61.2782 0.0000 0.0000
# 5 0.0000 0.0000 0.0000 0.0000 82.1384 0.0000
# 6 0.0000 0.0000 0.0000 0.0000 0.0000 38.2735
#
#
#
# Elastic Compliance Matrix: (Units=1/GPa)
#
#
# Indices 1 2 3 4 5 6 
#
# 1 0.006032 -0.002046 -0.002221 0.000000 0.000000 0.000000
# 2 -0.002046 0.010657 -0.002304 0.000000 0.000000 0.000000
# 3 -0.002221 -0.002304 0.006707 0.000000 0.000000 0.000000
# 4 0.000000 0.000000 0.000000 -0.016319 0.000000 0.000000
# 5 0.000000 0.000000 0.000000 0.000000 0.012175 0.000000
# 6 0.000000 0.000000 0.000000 0.000000 0.000000 0.026128
#
#
# Mechanical properties :
#
#
# Convention : Reuss Voigt Hill
#
# Bulk Modulus (GPa) = 97.53775 109.47581 103.50678
# Shear Modulus (GPa) = 80.72493 33.36450 57.04471
#
# Velocity S-wave (km/s) = 5.82349 3.74388 4.89539
# Velocity P-wave (km/s) = 9.28405 8.04241 8.68545
#
# Compressibility (1/GPa) = 0.01025244
#
# Stress axis : x y z
#
# Youngs Moduli (GPa) = 165.78807 93.83818 149.10311
#
# Poissons Ratio (x) = 0.19202 0.33115
# Poissons Ratio (y) = 0.33924 0.34356
# Poissons Ratio (z) = 0.36821 0.21622
#
# Static dielectric constant tensor:
#      x y z
#    x 2.730100 0.000000 0.000000 
#    y 0.000000 2.027260 0.000000 
#    z 0.000000 0.000000 1.966430 
# 
# From -- ./inp_files/2477.got.cif
#   From: 2010.05.17/outbox.cif.g08.bks.cpg/sg66_2_cif.got.tgz:2477.got - 2010.06.03 17:51:23.
