data_PCOD9499525
_publ_section_title
;
Structure prediction by ZEFSAII (Michael W. Deem and Ramdas Pophale) SiO2 
 PCOD9499525
Probable space group: C C C M
;
_chemical_formula_sum "Si O2"
_cell_formula_units_Z 96
_cell_length_a 15.530336
_cell_length_b 11.826865
_cell_length_c 26.651446
_cell_angle_alpha 90.000000
_cell_angle_beta 90.000000
_cell_angle_gamma 90.000000
_cell_volume 4895.209335
_symmetry_space_group_name_H-M "C C C M"
_symmetry_group_IT_number 66
_symmetry_cell_setting 'orthorhombic'
loop_
_space_group_symop_operation_xyz
x,y,z
-x,-y,z
x,-y,1/2-z
-x,y,1/2-z
-x,-y,-z
x,y,-z
-x,y,1/2+z
x,-y,1/2+z
1/2+x,1/2+y,z
1/2-x,1/2-y,z
1/2+x,1/2-y,1/2-z
1/2-x,1/2+y,1/2-z
1/2-x,1/2-y,-z
1/2+x,1/2+y,-z
1/2-x,1/2+y,1/2+z
1/2+x,1/2-y,1/2+z
loop_
_atom_site_type_symbol
_atom_site_label
_atom_site_fract_x
_atom_site_fract_y
_atom_site_fract_z
Si Si1 0.285473 0.927197 0.391548
Si Si2 0.980940 0.308034 0.000000
Si Si3 0.626848 0.713577 0.143548
Si Si4 0.357914 0.023211 0.000000
Si Si5 0.798890 0.139118 0.145772
Si Si6 0.970066 0.878134 0.414318
Si Si7 0.899093 0.136466 0.248371
O O1 0.360484 0.844347 0.371068
O O2 0.198429 0.853593 0.388251
O O3 0.305297 0.963967 0.448361
O O4 0.267176 0.034661 0.356155
O O5 0.907285 0.403419 0.000000
O O6 0.974350 0.224075 0.046876
O O7 0.070323 0.377188 0.000000
O O8 0.535621 0.658841 0.129710
O O9 0.642994 0.688991 0.201890
O O10 0.750000 0.250000 0.128307
O O11 0.875489 0.108779 0.107934
O O12 0.844969 0.164502 0.198747
O O13 0.000000 0.000000 0.434523
O O14 0.000000 0.171494 0.250000
O O15 0.898174 0.000000 0.250000
#
# Coordination Sequence:
#
# PCOD9499525 Si02
#       7
#    16   8  16   8  16  16  16
#     4  11  24  43  66  99 137 174 227 288 332 402
#     4  11  25  42  69  96 126 189 234 272 341 424
#     4  11  23  41  68  98 131 175 231 277 333 409
#     4  11  24  45  66  92 140 186 225 278 356 406
#     4  12  26  41  67 102 140 177 223 284 347 402
#     4  12  22  45  67  98 133 176 231 280 336 400
#     4  11  21  40  69  96 131 181 224 274 335 404
#
# _framework density 19.61101
#
# number of rings (size 3 to 8) (size 9 to 14) (size 15 to 20)
#    0.000    0.667    6.667    1.250    2.333    2.667 
#    0.000    1.667    0.000    1.000    0.000    0.000 
#    0.000    0.000    0.000    0.000    0.000    0.000 
#
# Total GULP energy -268114.844866 kJ/mol
# GULP energy per Si atom -5585.725935 kJ/mol
# Density = 1.956637 g / cm^3
# Si number density = 19.611010 Si / 1000 Ang^3
#
#
#
# Elastic Constant Matrix: (Units=GPa)
#
#
# Indices 1 2 3 4 5 6 
#
# 1 71.5126 33.8104 24.4848 0.0000 0.0000 0.0000
# 2 33.8104 127.0203 32.3495 0.0000 0.0000 0.0000
# 3 24.4848 32.3495 123.3256 0.0000 0.0000 0.0000
# 4 0.0000 0.0000 0.0000 -5.9029 0.0000 0.0000
# 5 0.0000 0.0000 0.0000 0.0000 37.5349 0.0000
# 6 0.0000 0.0000 0.0000 0.0000 0.0000 22.3150
#
#
#
# Elastic Compliance Matrix: (Units=1/GPa)
#
#
# Indices 1 2 3 4 5 6 
#
# 1 0.016577 -0.003830 -0.002287 0.000000 0.000000 0.000000
# 2 -0.003830 0.009321 -0.001685 0.000000 0.000000 0.000000
# 3 -0.002287 -0.001685 0.009004 0.000000 0.000000 0.000000
# 4 0.000000 0.000000 0.000000 -0.169407 0.000000 0.000000
# 5 0.000000 0.000000 0.000000 0.000000 0.026642 0.000000
# 6 0.000000 0.000000 0.000000 0.000000 0.000000 0.044813
#
#
# Mechanical properties :
#
#
# Convention : Reuss Voigt Hill
#
# Bulk Modulus (GPa) = 51.81254 55.90534 53.85894
# Shear Modulus (GPa) = -121.91196 26.20363 -47.85416
#
# Velocity S-wave (km/s) = -7.89304 3.65933 -4.94516
# Velocity P-wave (km/s) = 7.52258 6.81346 2.25454
#
# Compressibility (1/GPa) = 0.01930035
#
# Stress axis : x y z
#
# Youngs Moduli (GPa) = 60.32340 107.28077 111.05590
#
# Poissons Ratio (x) = 0.41091 0.25393
# Poissons Ratio (y) = 0.23105 0.18709
# Poissons Ratio (z) = 0.13793 0.18073
#
# Static dielectric constant tensor:
#      x y z
#    x 1.690720 0.000000 0.000000 
#    y 0.000000 1.680020 0.000000 
#    z 0.000000 0.000000 1.694810 
# 
# From -- ./inp_files/58826.got.cif
#   From: 2010.05.17/outbox.cif.g08.bks.cpg/sg66_30_cif.got.tgz:58826.got - 2010.06.03 17:51:23.
