data_PCOD9499969
_publ_section_title
;
Structure prediction by ZEFSAII (Michael W. Deem and Ramdas Pophale) SiO2 
 PCOD9499969
Probable space group: C C C M
;
_chemical_formula_sum "Si O2"
_cell_formula_units_Z 104
_cell_length_a 8.634197
_cell_length_b 20.476127
_cell_length_c 29.577879
_cell_angle_alpha 90.000000
_cell_angle_beta 90.000000
_cell_angle_gamma 90.000000
_cell_volume 5229.218583
_symmetry_space_group_name_H-M "C C C M"
_symmetry_group_IT_number 66
_symmetry_cell_setting 'orthorhombic'
loop_
_space_group_symop_operation_xyz
x,y,z
-x,-y,z
x,-y,1/2-z
-x,y,1/2-z
-x,-y,-z
x,y,-z
-x,y,1/2+z
x,-y,1/2+z
1/2+x,1/2+y,z
1/2-x,1/2-y,z
1/2+x,1/2-y,1/2-z
1/2-x,1/2+y,1/2-z
1/2-x,1/2-y,-z
1/2+x,1/2+y,-z
1/2-x,1/2+y,1/2+z
1/2+x,1/2-y,1/2+z
loop_
_atom_site_type_symbol
_atom_site_label
_atom_site_fract_x
_atom_site_fract_y
_atom_site_fract_z
Si Si1 0.000000 0.000000 0.838455
Si Si2 0.998578 0.206640 0.051491
Si Si3 0.841001 0.182923 0.724088
Si Si4 0.483000 0.077085 0.366999
Si Si5 0.781451 0.561623 0.280226
Si Si6 0.667779 0.374216 0.627276
Si Si7 0.646485 0.154172 0.051796
O O1 0.919165 0.943868 0.868146
O O2 0.128660 0.965033 0.806755
O O3 0.825658 0.176010 0.053647
O O4 0.963615 0.282925 0.060743
O O5 0.110146 0.168489 0.085255
O O6 0.055098 0.200858 0.000000
O O7 0.750000 0.250000 0.727592
O O8 0.756448 0.121224 0.747110
O O9 0.872700 0.165606 0.672311
O O10 0.000000 0.190712 0.750000
O O11 0.400569 0.085592 0.318510
O O12 0.649960 0.110864 0.370446
O O13 0.382544 0.103646 0.408468
O O14 0.500000 0.000000 0.372006
O O15 0.832679 0.500000 0.250000
O O16 0.616063 0.132119 0.000000
#
# Coordination Sequence:
#
# PCOD9499969 Si02
#       7
#     8  16  16  16  16  16  16
#     4  12  21  46  71  92 122 176 233 272 313 394
#     4   9  21  45  74  99 127 174 223 268 330 401
#     4  12  28  44  64  97 135 174 222 280 332 385
#     4  12  26  41  64 101 136 175 217 275 334 390
#     4  12  23  47  70  90 128 184 233 272 325 391
#     4  12  26  42  68  98 136 169 225 272 329 399
#     4   9  21  44  72  99 131 171 218 272 334 400
#
# _framework density 19.888249999999999
#
# number of rings (size 3 to 8) (size 9 to 14) (size 15 to 20)
#    0.000    0.923    4.615    2.077    4.308    2.462 
#    0.000    1.923    0.000    0.000    0.000    0.000 
#    0.000    0.000    0.000    0.000    0.000    0.000 
#
# Total GULP energy -290865.841365 kJ/mol
# GULP energy per Si atom -5593.573872 kJ/mol
# Density = 1.984298 g / cm^3
# Si number density = 19.888250 Si / 1000 Ang^3
#
#
#
# Elastic Constant Matrix: (Units=GPa)
#
#
# Indices 1 2 3 4 5 6 
#
# 1 81.7722 15.6259 39.0035 0.0000 0.0000 0.0000
# 2 15.6259 69.2188 39.6313 0.0000 0.0000 0.0000
# 3 39.0035 39.6313 123.1145 0.0000 0.0000 0.0000
# 4 0.0000 0.0000 0.0000 37.8106 0.0000 0.0000
# 5 0.0000 0.0000 0.0000 0.0000 22.8590 0.0000
# 6 0.0000 0.0000 0.0000 0.0000 0.0000 27.3418
#
#
#
# Elastic Compliance Matrix: (Units=1/GPa)
#
#
# Indices 1 2 3 4 5 6 
#
# 1 0.014441 -0.000785 -0.004322 0.000000 0.000000 0.000000
# 2 -0.000785 0.017754 -0.005466 0.000000 0.000000 0.000000
# 3 -0.004322 -0.005466 0.011251 0.000000 0.000000 0.000000
# 4 0.000000 0.000000 0.000000 0.026448 0.000000 0.000000
# 5 0.000000 0.000000 0.000000 0.000000 0.043746 0.000000
# 6 0.000000 0.000000 0.000000 0.000000 0.000000 0.036574
#
#
# Mechanical properties :
#
#
# Convention : Reuss Voigt Hill
#
# Bulk Modulus (GPa) = 44.84578 51.40297 48.12437
# Shear Modulus (GPa) = 27.96503 29.59192 28.77848
#
# Velocity S-wave (km/s) = 3.75388 3.86153 3.80808
# Velocity P-wave (km/s) = 6.43325 6.76638 6.60191
#
# Compressibility (1/GPa) = 0.02229864
#
# Stress axis : x y z
#
# Youngs Moduli (GPa) = 69.24864 56.32538 88.87748
#
# Poissons Ratio (x) = 0.04423 0.38414
# Poissons Ratio (y) = 0.05438 0.48583
# Poissons Ratio (z) = 0.29930 0.30789
#
# Static dielectric constant tensor:
#      x y z
#    x 1.726260 0.000000 0.000000 
#    y 0.000000 1.625510 0.000000 
#    z 0.000000 0.000000 1.710490 
# 
# From -- ./inp_files/68258.got.cif
#   From: 2010.05.17/outbox.cif.g08.bks.cpg/sg66_35_cif.got.tgz:68258.got - 2010.06.03 17:51:23.
