data_PCOD9499365
_publ_section_title
;
Structure prediction by ZEFSAII (Michael W. Deem and Ramdas Pophale) SiO2 
 PCOD9499365
Probable space group: C C C M
;
_chemical_formula_sum "Si O2"
_cell_formula_units_Z 96
_cell_length_a 13.994298
_cell_length_b 11.542146
_cell_length_c 23.922254
_cell_angle_alpha 90.000000
_cell_angle_beta 90.000000
_cell_angle_gamma 90.000000
_cell_volume 3864.023674
_symmetry_space_group_name_H-M "C C C M"
_symmetry_group_IT_number 66
_symmetry_cell_setting 'orthorhombic'
loop_
_space_group_symop_operation_xyz
x,y,z
-x,-y,z
x,-y,1/2-z
-x,y,1/2-z
-x,-y,-z
x,y,-z
-x,y,1/2+z
x,-y,1/2+z
1/2+x,1/2+y,z
1/2-x,1/2-y,z
1/2+x,1/2-y,1/2-z
1/2-x,1/2+y,1/2-z
1/2-x,1/2-y,-z
1/2+x,1/2+y,-z
1/2-x,1/2+y,1/2+z
1/2+x,1/2-y,1/2+z
loop_
_atom_site_type_symbol
_atom_site_label
_atom_site_fract_x
_atom_site_fract_y
_atom_site_fract_z
Si Si1 0.365705 0.261753 0.938011
Si Si2 0.857655 0.567890 0.848125
Si Si3 0.130945 0.057829 0.151335
Si Si4 0.632726 0.244795 0.738582
Si Si5 0.919384 0.400996 0.061882
Si Si6 0.135881 0.784180 0.864055
O O1 0.250000 0.250000 0.942329
O O2 0.388637 0.161962 0.894313
O O3 0.390863 0.379954 0.907351
O O4 0.405137 0.243433 0.000000
O O5 0.744687 0.567687 0.841612
O O6 0.895869 0.624879 0.791771
O O7 0.877491 0.449135 0.879233
O O8 0.097967 0.141832 0.202841
O O9 0.114293 0.921815 0.144308
O O10 0.750000 0.250000 0.738687
O O11 0.604643 0.241209 0.802676
O O12 0.919972 0.267392 0.082174
O O13 0.000000 0.500000 0.054841
O O14 0.870755 0.403647 0.000000
O O15 0.250000 0.750000 0.871313
#
# Coordination Sequence:
#
# PCOD9499365 Si02
#       6
#    16  16  16  16  16  16
#     4   8  14  24  44  72 101 135 178 230 279 331
#     4   9  16  33  52  77 107 146 186 228 290 355
#     4   9  16  29  50  84 115 138 174 234 302 348
#     4   8  17  30  55  84 115 140 177 236 302 358
#     4  11  25  41  54  74 113 161 203 246 292 348
#     4  11  20  34  54  83 113 151 189 238 299 360
#
# _framework density 24.844569
#
# number of rings (size 3 to 8) (size 9 to 14) (size 15 to 20)
#    0.000    2.667    1.667    3.000    0.000    2.333 
#    0.000    1.667    0.000    4.000    0.000   15.167 
#    0.000    0.000    0.000    0.000    0.000    0.000 
#
# Total GULP energy -267220.879834 kJ/mol
# GULP energy per Si atom -5567.101663 kJ/mol
# Density = 2.478802 g / cm^3
# Si number density = 24.844569 Si / 1000 Ang^3
#
#
#
# Elastic Constant Matrix: (Units=GPa)
#
#
# Indices 1 2 3 4 5 6 
#
# 1 71.1988 10.5637 9.5408 0.0000 0.0000 0.0000
# 2 10.5637 133.2316 87.2442 0.0000 0.0000 0.0000
# 3 9.5408 87.2442 162.9620 0.0000 0.0000 0.0000
# 4 0.0000 0.0000 0.0000 -53.1884 0.0000 0.0000
# 5 0.0000 0.0000 0.0000 0.0000 24.1256 0.0000
# 6 0.0000 0.0000 0.0000 0.0000 0.0000 26.2680
#
#
#
# Elastic Compliance Matrix: (Units=1/GPa)
#
#
# Indices 1 2 3 4 5 6 
#
# 1 0.014226 -0.000897 -0.000353 0.000000 0.000000 0.000000
# 2 -0.000897 0.011614 -0.006165 0.000000 0.000000 0.000000
# 3 -0.000353 -0.006165 0.009458 0.000000 0.000000 0.000000
# 4 0.000000 0.000000 0.000000 -0.018801 0.000000 0.000000
# 5 0.000000 0.000000 0.000000 0.000000 0.041450 0.000000
# 6 0.000000 0.000000 0.000000 0.000000 0.000000 0.038069
#
#
# Mechanical properties :
#
#
# Convention : Reuss Voigt Hill
#
# Bulk Modulus (GPa) = 48.85789 64.67663 56.76726
# Shear Modulus (GPa) = 42.49270 16.77729 29.63500
#
# Velocity S-wave (km/s) = 4.14011 2.60145 3.45746
# Velocity P-wave (km/s) = 6.52397 5.92557 6.23196
#
# Compressibility (1/GPa) = 0.02046752
#
# Stress axis : x y z
#
# Youngs Moduli (GPa) = 70.29618 86.10273 105.73398
#
# Poissons Ratio (x) = 0.07723 0.03728
# Poissons Ratio (y) = 0.06306 0.65187
# Poissons Ratio (z) = 0.02479 0.53084
#
# Static dielectric constant tensor:
#      x y z
#    x 2.497740 0.000000 0.000000 
#    y 0.000000 2.132580 0.000000 
#    z 0.000000 0.000000 1.937750 
# 
# From -- ./inp_files/59480.got.cif
#   From: 2010.05.17/outbox.cif.g08.bks.cpg/sg66_30_cif.got.tgz:59480.got - 2010.06.03 17:51:23.
