data_PCOD9499448
_publ_section_title
;
Structure prediction by ZEFSAII (Michael W. Deem and Ramdas Pophale) SiO2 
 PCOD9499448
Probable space group: C C C M
;
_chemical_formula_sum "Si O2"
_cell_formula_units_Z 80
_cell_length_a 23.921974
_cell_length_b 8.684884
_cell_length_c 18.827273
_cell_angle_alpha 90.000000
_cell_angle_beta 90.000000
_cell_angle_gamma 90.000000
_cell_volume 3911.546128
_symmetry_space_group_name_H-M "C C C M"
_symmetry_group_IT_number 66
_symmetry_cell_setting 'orthorhombic'
loop_
_space_group_symop_operation_xyz
x,y,z
-x,-y,z
x,-y,1/2-z
-x,y,1/2-z
-x,-y,-z
x,y,-z
-x,y,1/2+z
x,-y,1/2+z
1/2+x,1/2+y,z
1/2-x,1/2-y,z
1/2+x,1/2-y,1/2-z
1/2-x,1/2+y,1/2-z
1/2-x,1/2-y,-z
1/2+x,1/2+y,-z
1/2-x,1/2+y,1/2+z
1/2+x,1/2-y,1/2+z
loop_
_atom_site_type_symbol
_atom_site_label
_atom_site_fract_x
_atom_site_fract_y
_atom_site_fract_z
Si Si1 0.690251 0.182384 0.739400
Si Si2 0.591785 0.158220 0.000000
Si Si3 0.336977 0.142379 0.000000
Si Si4 0.522950 0.322904 0.500000
Si Si5 0.849139 0.856276 0.378226
Si Si6 0.113991 0.183604 0.123557
Si Si7 0.268411 0.426537 0.500000
O O1 0.750000 0.250000 0.711898
O O2 0.678731 0.265462 0.814458
O O3 0.635176 0.221822 0.692160
O O4 0.695802 0.000000 0.750000
O O5 0.526962 0.200394 0.000000
O O6 0.617668 0.241758 0.069526
O O7 0.612121 0.982412 0.000000
O O8 0.340877 0.251090 0.067428
O O9 0.282543 0.040135 0.000000
O O10 0.500000 0.500000 0.500000
O O11 0.559273 0.301680 0.427503
O O12 0.803717 0.936192 0.428736
O O13 0.884626 0.004304 0.354806
O O14 0.250000 0.250000 0.500000
#
# Coordination Sequence:
#
# PCOD9499448 Si02
#       7
#    16   8   8   8  16  16   8
#     4  12  27  44  65  96 146 186 218 269 341 419
#     4  11  21  40  73  96 128 172 227 285 337 390
#     4  11  23  38  62 102 138 168 222 283 332 405
#     4  11  21  47  74  99 127 174 231 303 344 384
#     4  11  22  40  64  99 130 178 224 272 335 410
#     4  11  25  41  64  99 129 177 231 275 343 406
#     4  11  21  33  64  96 136 171 220 270 333 395
#
# _framework density 20.452269999999999
#
# number of rings (size 3 to 8) (size 9 to 14) (size 15 to 20)
#    0.000    0.800    4.000    5.400    5.600    2.400 
#    0.000    1.000    0.000    1.200    0.000    0.000 
#    0.000    0.000    0.000    0.000    0.000    0.000 
#
# Total GULP energy -223121.095763 kJ/mol
# GULP energy per Si atom -5578.027394 kJ/mol
# Density = 2.040572 g / cm^3
# Si number density = 20.452270 Si / 1000 Ang^3
#
#
#
# Elastic Constant Matrix: (Units=GPa)
#
#
# Indices 1 2 3 4 5 6 
#
# 1 109.4478 36.4131 41.9100 0.0000 0.0000 0.0000
# 2 36.4131 153.5923 33.3274 0.0000 0.0000 0.0000
# 3 41.9100 33.3274 95.8025 0.0000 0.0000 0.0000
# 4 0.0000 0.0000 0.0000 9.3817 0.0000 0.0000
# 5 0.0000 0.0000 0.0000 0.0000 24.7714 0.0000
# 6 0.0000 0.0000 0.0000 0.0000 0.0000 28.3257
#
#
#
# Elastic Compliance Matrix: (Units=1/GPa)
#
#
# Indices 1 2 3 4 5 6 
#
# 1 0.011395 -0.001752 -0.004375 0.000000 0.000000 0.000000
# 2 -0.001752 0.007312 -0.001777 0.000000 0.000000 0.000000
# 3 -0.004375 -0.001777 0.012970 0.000000 0.000000 0.000000
# 4 0.000000 0.000000 0.000000 0.106591 0.000000 0.000000
# 5 0.000000 0.000000 0.000000 0.000000 0.040369 0.000000
# 6 0.000000 0.000000 0.000000 0.000000 0.000000 0.035304
#
#
# Mechanical properties :
#
#
# Convention : Reuss Voigt Hill
#
# Bulk Modulus (GPa) = 63.01975 64.68263 63.85119
# Shear Modulus (GPa) = 21.27303 28.97524 25.12414
#
# Velocity S-wave (km/s) = 3.22860 3.76802 3.50870
# Velocity P-wave (km/s) = 6.69167 7.11516 6.90666
#
# Compressibility (1/GPa) = 0.01586804
#
# Stress axis : x y z
#
# Youngs Moduli (GPa) = 87.75663 136.76646 77.09837
#
# Poissons Ratio (x) = 0.23963 0.33734
# Poissons Ratio (y) = 0.15376 0.13701
# Poissons Ratio (z) = 0.38397 0.24305
#
# Static dielectric constant tensor:
#      x y z
#    x 1.788410 0.000000 0.000000 
#    y 0.000000 1.736000 0.000000 
#    z 0.000000 0.000000 1.882530 
# 
# From -- ./inp_files/44157.got.cif
#   From: 2010.05.17/outbox.cif.g08.bks.cpg/sg66_23_cif.got.tgz:44157.got - 2010.06.03 17:51:23.
