data_PCOD9499673
_publ_section_title
;
Structure prediction by ZEFSAII (Michael W. Deem and Ramdas Pophale) SiO2 
 PCOD9499673
Probable space group: C C C M
;
_chemical_formula_sum "Si O2"
_cell_formula_units_Z 52
_cell_length_a 8.836836
_cell_length_b 11.401440
_cell_length_c 23.873551
_cell_angle_alpha 90.000000
_cell_angle_beta 90.000000
_cell_angle_gamma 90.000000
_cell_volume 2405.323658
_symmetry_space_group_name_H-M "C C C M"
_symmetry_group_IT_number 66
_symmetry_cell_setting 'orthorhombic'
loop_
_space_group_symop_operation_xyz
x,y,z
-x,-y,z
x,-y,1/2-z
-x,y,1/2-z
-x,-y,-z
x,y,-z
-x,y,1/2+z
x,-y,1/2+z
1/2+x,1/2+y,z
1/2-x,1/2-y,z
1/2+x,1/2-y,1/2-z
1/2-x,1/2+y,1/2-z
1/2-x,1/2-y,-z
1/2+x,1/2+y,-z
1/2-x,1/2+y,1/2+z
1/2+x,1/2-y,1/2+z
loop_
_atom_site_type_symbol
_atom_site_label
_atom_site_fract_x
_atom_site_fract_y
_atom_site_fract_z
Si Si1 0.305159 0.383134 0.844842
Si Si2 0.455702 0.323746 0.564425
Si Si3 0.500000 0.500000 0.250000
Si Si4 0.137615 0.429587 0.590150
O O1 0.250000 0.250000 0.838670
O O2 0.414356 0.382416 0.899217
O O3 0.397755 0.421742 0.790679
O O4 0.181606 0.483882 0.858694
O O5 0.500380 0.300305 0.500000
O O6 0.299259 0.396729 0.562562
O O7 0.425265 0.201787 0.597167
O O8 0.000000 0.500000 0.561168
#
# Coordination Sequence:
#
# PCOD9499673 Si02
#       4
#    16  16   4  16
#     4  12  26  49  73 101 136 186 235 292 352 418
#     4  11  25  43  71 108 148 186 226 278 344 426
#     4  12  28  52  72  94 136 180 246 302 346 408
#     4  11  22  43  70 103 145 183 226 280 342 415
#
# _framework density 21.618713
#
# number of rings (size 3 to 8) (size 9 to 14) (size 15 to 20)
#    0.000    0.615    6.154    1.846    0.000    9.231 
#    0.000    0.000    0.000    0.000    0.000    0.000 
#    0.000    0.000    0.000    0.000    0.000    0.000 
#
# Total GULP energy -144929.283058 kJ/mol
# GULP energy per Si atom -5574.203195 kJ/mol
# Density = 2.156951 g / cm^3
# Si number density = 21.618713 Si / 1000 Ang^3
#
#
#
# Elastic Constant Matrix: (Units=GPa)
#
#
# Indices 1 2 3 4 5 6 
#
# 1 101.0056 66.7187 47.6099 0.0000 0.0000 0.0000
# 2 66.7187 184.3257 63.8742 0.0000 0.0000 0.0000
# 3 47.6099 63.8742 106.3373 0.0000 0.0000 0.0000
# 4 0.0000 0.0000 0.0000 -44.7176 0.0000 0.0000
# 5 0.0000 0.0000 0.0000 0.0000 -255.7412 0.0000
# 6 0.0000 0.0000 0.0000 0.0000 0.0000 62.4684
#
#
#
# Elastic Compliance Matrix: (Units=1/GPa)
#
#
# Indices 1 2 3 4 5 6 
#
# 1 0.014340 -0.003745 -0.004171 0.000000 0.000000 0.000000
# 2 -0.003745 0.007829 -0.003026 0.000000 0.000000 0.000000
# 3 -0.004171 -0.003026 0.013089 0.000000 0.000000 0.000000
# 4 0.000000 0.000000 0.000000 -0.022363 0.000000 0.000000
# 5 0.000000 0.000000 0.000000 0.000000 -0.003910 0.000000
# 6 0.000000 0.000000 0.000000 0.000000 0.000000 0.016008
#
#
# Mechanical properties :
#
#
# Convention : Reuss Voigt Hill
#
# Bulk Modulus (GPa) = 74.76932 83.11935 78.94433
# Shear Modulus (GPa) = 97.39586 -33.36702 32.01442
#
# Velocity S-wave (km/s) = 6.71933 -3.93292 3.85238
# Velocity P-wave (km/s) = 9.73960 4.23173 7.50891
#
# Compressibility (1/GPa) = 0.01337447
#
# Stress axis : x y z
#
# Youngs Moduli (GPa) = 69.73332 127.72242 76.39935
#
# Poissons Ratio (x) = 0.47836 0.31865
# Poissons Ratio (y) = 0.26118 0.23119
# Poissons Ratio (z) = 0.29084 0.38650
#
# Static dielectric constant tensor:
#      x y z
#    x 1.768330 0.000000 0.000000 
#    y 0.000000 1.613090 0.000000 
#    z 0.000000 0.000000 1.717060 
# 
# From -- ./inp_files/61853.got.cif
#   From: 2010.05.17/outbox.cif.g08.bks.cpg/sg66_31_cif.got.tgz:61853.got - 2010.06.03 17:51:23.
