data_PCOD9499578
_publ_section_title
;
Structure prediction by ZEFSAII (Michael W. Deem and Ramdas Pophale) SiO2 
 PCOD9499578
Probable space group: C C C M
;
_chemical_formula_sum "Si O2"
_cell_formula_units_Z 64
_cell_length_a 9.894287
_cell_length_b 19.672734
_cell_length_c 16.437980
_cell_angle_alpha 90.000000
_cell_angle_beta 90.000000
_cell_angle_gamma 90.000000
_cell_volume 3199.614610
_symmetry_space_group_name_H-M "C C C M"
_symmetry_group_IT_number 66
_symmetry_cell_setting 'orthorhombic'
loop_
_space_group_symop_operation_xyz
x,y,z
-x,-y,z
x,-y,1/2-z
-x,y,1/2-z
-x,-y,-z
x,y,-z
-x,y,1/2+z
x,-y,1/2+z
1/2+x,1/2+y,z
1/2-x,1/2-y,z
1/2+x,1/2-y,1/2-z
1/2-x,1/2+y,1/2-z
1/2-x,1/2-y,-z
1/2+x,1/2+y,-z
1/2-x,1/2+y,1/2+z
1/2+x,1/2-y,1/2+z
loop_
_atom_site_type_symbol
_atom_site_label
_atom_site_fract_x
_atom_site_fract_y
_atom_site_fract_z
Si Si1 0.329346 0.332923 0.823390
Si Si2 0.974897 0.080281 0.088996
Si Si3 0.934978 0.695058 0.903689
Si Si4 0.731778 0.827885 0.361944
O O1 0.435588 0.391264 0.838399
O O2 0.199958 0.345488 0.880682
O O3 0.407047 0.265229 0.854698
O O4 0.276721 0.325937 0.732203
O O5 0.826480 0.114199 0.098828
O O6 0.023747 0.105572 0.000000
O O7 0.000000 0.000000 0.088920
O O8 0.072557 0.660499 0.873749
O O9 0.942349 0.707720 0.000000
O O10 0.750000 0.750000 0.394529
#
# Coordination Sequence:
#
# PCOD9499578 Si02
#       4
#    16  16  16  16
#     4  11  22  37  62  93 129 166 206 264 328 381
#     4  11  25  44  65  92 129 174 219 264 322 393
#     4  11  22  37  60  93 126 163 209 265 320 374
#     4  12  23  37  63  96 130 165 212 269 320 382
#
# _framework density 20.002407999999999
#
# number of rings (size 3 to 8) (size 9 to 14) (size 15 to 20)
#    0.000    0.750    5.000    5.250    0.000    3.000 
#    0.000    1.250    0.000    7.500    0.000    0.000 
#    0.000    0.000    0.000    0.000    0.000    0.000 
#
# Total GULP energy -178594.991277 kJ/mol
# GULP energy per Si atom -5581.093477 kJ/mol
# Density = 1.995688 g / cm^3
# Si number density = 20.002408 Si / 1000 Ang^3
#
#
#
# Elastic Constant Matrix: (Units=GPa)
#
#
# Indices 1 2 3 4 5 6 
#
# 1 151.9288 60.8793 33.3491 0.0000 0.0000 0.0000
# 2 60.8793 62.1482 26.7513 0.0000 0.0000 0.0000
# 3 33.3491 26.7513 135.6009 0.0000 0.0000 0.0000
# 4 0.0000 0.0000 0.0000 -24.1904 0.0000 0.0000
# 5 0.0000 0.0000 0.0000 0.0000 13.3466 0.0000
# 6 0.0000 0.0000 0.0000 0.0000 0.0000 24.7656
#
#
#
# Elastic Compliance Matrix: (Units=1/GPa)
#
#
# Indices 1 2 3 4 5 6 
#
# 1 0.010884 -0.010392 -0.000627 0.000000 0.000000 0.000000
# 2 -0.010392 0.027506 -0.002871 0.000000 0.000000 0.000000
# 3 -0.000627 -0.002871 0.008095 0.000000 0.000000 0.000000
# 4 0.000000 0.000000 0.000000 -0.041339 0.000000 0.000000
# 5 0.000000 0.000000 0.000000 0.000000 0.074926 0.000000
# 6 0.000000 0.000000 0.000000 0.000000 0.000000 0.040379
#
#
# Mechanical properties :
#
#
# Convention : Reuss Voigt Hill
#
# Bulk Modulus (GPa) = 53.45732 65.73748 59.59740
# Shear Modulus (GPa) = 32.37014 18.03090 25.20052
#
# Velocity S-wave (km/s) = 4.02719 3.00565 3.55332
# Velocity P-wave (km/s) = 6.95757 6.70682 6.83334
#
# Compressibility (1/GPa) = 0.01870651
#
# Stress axis : x y z
#
# Youngs Moduli (GPa) = 91.88118 36.35600 123.53299
#
# Poissons Ratio (x) = 0.37780 0.07740
# Poissons Ratio (y) = 0.95480 0.35462
# Poissons Ratio (z) = 0.05757 0.10437
#
# Static dielectric constant tensor:
#      x y z
#    x 1.742090 0.000000 0.000000 
#    y 0.000000 1.741990 0.000000 
#    z 0.000000 0.000000 1.749900 
# 
# From -- ./inp_files/36348.got.cif
#   From: 2010.05.17/outbox.cif.g08.bks.cpg/sg66_19_cif.got.tgz:36348.got - 2010.06.03 17:51:23.
