data_PCOD9499623
_publ_section_title
;
Structure prediction by ZEFSAII (Michael W. Deem and Ramdas Pophale) SiO2 
 PCOD9499623
Probable space group: C C C M
;
_chemical_formula_sum "Si O2"
_cell_formula_units_Z 64
_cell_length_a 8.445761
_cell_length_b 14.615239
_cell_length_c 22.960617
_cell_angle_alpha 90.000000
_cell_angle_beta 90.000000
_cell_angle_gamma 90.000000
_cell_volume 2834.185446
_symmetry_space_group_name_H-M "C C C M"
_symmetry_group_IT_number 66
_symmetry_cell_setting 'orthorhombic'
loop_
_space_group_symop_operation_xyz
x,y,z
-x,-y,z
x,-y,1/2-z
-x,y,1/2-z
-x,-y,-z
x,y,-z
-x,y,1/2+z
x,-y,1/2+z
1/2+x,1/2+y,z
1/2-x,1/2-y,z
1/2+x,1/2-y,1/2-z
1/2-x,1/2+y,1/2-z
1/2-x,1/2-y,-z
1/2+x,1/2+y,-z
1/2-x,1/2+y,1/2+z
1/2+x,1/2-y,1/2+z
loop_
_atom_site_type_symbol
_atom_site_label
_atom_site_fract_x
_atom_site_fract_y
_atom_site_fract_z
Si Si1 0.314949 0.015657 0.870543
Si Si2 0.691106 0.895589 0.000000
Si Si3 0.986789 0.220983 0.000000
Si Si4 0.133818 0.174102 0.622794
Si Si5 0.141231 0.834970 0.704477
O O1 0.306154 0.050744 0.938151
O O2 0.248436 0.084056 0.821111
O O3 0.500000 0.000000 0.859089
O O4 0.207596 0.924888 0.866038
O O5 0.849922 0.835496 0.000000
O O6 0.539675 0.827224 0.000000
O O7 0.887756 0.190770 0.944857
O O8 0.250000 0.250000 0.647432
O O9 0.961579 0.192754 0.648501
O O10 0.250000 0.750000 0.723192
O O11 0.000000 0.859330 0.750000
#
# Coordination Sequence:
#
# PCOD9499623 Si02
#       5
#    16   8   8  16  16
#     4  12  26  45  74 110 151 191 243 299 362 442
#     4  11  22  41  70 110 151 201 237 297 362 442
#     4  11  22  39  70 104 151 197 239 291 360 434
#     4  12  25  44  71 107 145 192 240 297 362 430
#     4  12  27  50  75 103 138 184 240 304 368 433
#
# _framework density 22.581444999999999
#
# number of rings (size 3 to 8) (size 9 to 14) (size 15 to 20)
#    0.000    0.250    2.500    7.500    0.000    3.000 
#    0.000    1.250    0.000    0.000    0.000    0.000 
#    0.000    0.000    0.000    0.000    0.000    0.000 
#
# Total GULP energy -178991.835307 kJ/mol
# GULP energy per Si atom -5593.494853 kJ/mol
# Density = 2.253005 g / cm^3
# Si number density = 22.581445 Si / 1000 Ang^3
#
#
#
# Elastic Constant Matrix: (Units=GPa)
#
#
# Indices 1 2 3 4 5 6 
#
# 1 145.9095 59.7708 49.3912 0.0000 0.0000 0.0000
# 2 59.7708 145.0113 53.6818 0.0000 0.0000 0.0000
# 3 49.3912 53.6818 142.9272 0.0000 0.0000 0.0000
# 4 0.0000 0.0000 0.0000 26.1278 0.0000 0.0000
# 5 0.0000 0.0000 0.0000 0.0000 -99.8222 0.0000
# 6 0.0000 0.0000 0.0000 0.0000 0.0000 47.0741
#
#
#
# Elastic Compliance Matrix: (Units=1/GPa)
#
#
# Indices 1 2 3 4 5 6 
#
# 1 0.008678 -0.002865 -0.001923 0.000000 0.000000 0.000000
# 2 -0.002865 0.008956 -0.002374 0.000000 0.000000 0.000000
# 3 -0.001923 -0.002374 0.008552 0.000000 0.000000 0.000000
# 4 0.000000 0.000000 0.000000 0.038273 0.000000 0.000000
# 5 0.000000 0.000000 0.000000 0.000000 -0.010018 0.000000
# 6 0.000000 0.000000 0.000000 0.000000 0.000000 0.021243
#
#
# Mechanical properties :
#
#
# Convention : Reuss Voigt Hill
#
# Bulk Modulus (GPa) = 84.29331 84.39286 84.34309
# Shear Modulus (GPa) = 53.21283 12.74288 32.97785
#
# Velocity S-wave (km/s) = 4.85963 2.37809 3.82566
# Velocity P-wave (km/s) = 8.30046 6.70777 7.54625
#
# Compressibility (1/GPa) = 0.01186334
#
# Stress axis : x y z
#
# Youngs Moduli (GPa) = 115.23232 111.66163 116.92506
#
# Poissons Ratio (x) = 0.31993 0.22482
# Poissons Ratio (y) = 0.33016 0.27752
# Poissons Ratio (z) = 0.22157 0.26503
#
# Static dielectric constant tensor:
#      x y z
#    x 1.755940 0.000000 0.000000 
#    y 0.000000 1.954970 0.000000 
#    z 0.000000 0.000000 1.879310 
# 
# From -- ./inp_files/55055.got.cif
#   From: 2010.05.17/outbox.cif.g08.bks.cpg/sg66_28_cif.got.tgz:55055.got - 2010.06.03 17:51:23.
