data_PCOD9499295
_publ_section_title
;
Structure prediction by ZEFSAII (Michael W. Deem and Ramdas Pophale) SiO2 
 PCOD9499295
Probable space group: C C C M
;
_chemical_formula_sum "Si O2"
_cell_formula_units_Z 68
_cell_length_a 9.123060
_cell_length_b 14.782987
_cell_length_c 25.030853
_cell_angle_alpha 90.000000
_cell_angle_beta 90.000000
_cell_angle_gamma 90.000000
_cell_volume 3375.812958
_symmetry_space_group_name_H-M "C C C M"
_symmetry_group_IT_number 66
_symmetry_cell_setting 'orthorhombic'
loop_
_space_group_symop_operation_xyz
x,y,z
-x,-y,z
x,-y,1/2-z
-x,y,1/2-z
-x,-y,-z
x,y,-z
-x,y,1/2+z
x,-y,1/2+z
1/2+x,1/2+y,z
1/2-x,1/2-y,z
1/2+x,1/2-y,1/2-z
1/2-x,1/2+y,1/2-z
1/2-x,1/2-y,-z
1/2+x,1/2+y,-z
1/2-x,1/2+y,1/2+z
1/2+x,1/2-y,1/2+z
loop_
_atom_site_type_symbol
_atom_site_label
_atom_site_fract_x
_atom_site_fract_y
_atom_site_fract_z
Si Si1 0.409451 0.418970 0.607951
Si Si2 0.258258 0.957420 0.000000
Si Si3 0.335235 0.159440 0.686260
Si Si4 0.500000 0.000000 0.250000
Si Si5 0.087195 0.258864 0.111427
Si Si6 0.444453 0.859820 0.500000
O O1 0.500000 0.500000 0.634031
O O2 0.339248 0.451189 0.552607
O O3 0.281000 0.381020 0.644646
O O4 0.521901 0.338538 0.598090
O O5 0.380896 0.878602 0.000000
O O6 0.352523 0.048244 0.000000
O O7 0.250000 0.250000 0.709905
O O8 0.476215 0.194964 0.653123
O O9 0.393920 0.073216 0.719963
O O10 0.250000 0.250000 0.134127
O O11 0.093074 0.310706 0.055150
#
# Coordination Sequence:
#
# PCOD9499295 Si02
#       6
#    16   8  16   4  16   8
#     4  11  23  41  65  98 137 179 223 272 335 410
#     4  11  22  35  62  96 138 180 224 271 314 420
#     4  10  26  49  71 105 131 178 231 285 361 418
#     4  12  28  48  86  92 144 176 230 316 364 416
#     4  11  23  40  67  96 139 175 222 279 333 414
#     4  11  22  35  60  98 134 184 226 263 330 404
#
# _framework density 20.143295999999999
#
# number of rings (size 3 to 8) (size 9 to 14) (size 15 to 20)
#    0.000    1.176    2.353    2.824    6.588    1.882 
#    4.235    0.000    0.000    0.000    0.000    0.000 
#    0.000    0.000    0.000    0.000    0.000    0.000 
#
# Total GULP energy -189818.360570 kJ/mol
# GULP energy per Si atom -5582.892958 kJ/mol
# Density = 2.009745 g / cm^3
# Si number density = 20.143296 Si / 1000 Ang^3
#
#
#
# Elastic Constant Matrix: (Units=GPa)
#
#
# Indices 1 2 3 4 5 6 
#
# 1 157.2701 59.7321 29.2846 0.0000 0.0000 0.0000
# 2 59.7321 137.6035 46.2887 0.0000 0.0000 0.0000
# 3 29.2846 46.2887 43.1575 0.0000 0.0000 0.0000
# 4 0.0000 0.0000 0.0000 38.5588 0.0000 0.0000
# 5 0.0000 0.0000 0.0000 0.0000 -16.6141 0.0000
# 6 0.0000 0.0000 0.0000 0.0000 0.0000 38.8576
#
#
#
# Elastic Compliance Matrix: (Units=1/GPa)
#
#
# Indices 1 2 3 4 5 6 
#
# 1 0.007796 -0.002510 -0.002597 0.000000 0.000000 0.000000
# 2 -0.002510 0.012178 -0.011358 0.000000 0.000000 0.000000
# 3 -0.002597 -0.011358 0.037115 0.000000 0.000000 0.000000
# 4 0.000000 0.000000 0.000000 0.025934 0.000000 0.000000
# 5 0.000000 0.000000 0.000000 0.000000 -0.060190 0.000000
# 6 0.000000 0.000000 0.000000 0.000000 0.000000 0.025735
#
#
# Mechanical properties :
#
#
# Convention : Reuss Voigt Hill
#
# Bulk Modulus (GPa) = 41.39481 67.62690 54.51086
# Shear Modulus (GPa) = 55.83413 25.67551 40.75482
#
# Velocity S-wave (km/s) = 5.27054 3.57409 4.50293
# Velocity P-wave (km/s) = 7.59164 7.11884 7.35904
#
# Compressibility (1/GPa) = 0.02415762
#
# Stress axis : x y z
#
# Youngs Moduli (GPa) = 128.27876 82.11813 26.94319
#
# Poissons Ratio (x) = 0.20614 0.06998
# Poissons Ratio (y) = 0.32201 0.30601
# Poissons Ratio (z) = 0.33318 0.93268
#
# Static dielectric constant tensor:
#      x y z
#    x 1.713330 0.000000 0.000000 
#    y 0.000000 1.741830 0.000000 
#    z 0.000000 0.000000 1.688840 
# 
# From -- ./inp_files/62123.got.cif
#   From: 2010.05.17/outbox.cif.g08.bks.cpg/sg66_32_cif.got.tgz:62123.got - 2010.06.03 17:51:23.
