data_PCOD9499920
_publ_section_title
;
Structure prediction by ZEFSAII (Michael W. Deem and Ramdas Pophale) SiO2 
 PCOD9499920
Probable space group: C C C M
;
_chemical_formula_sum "Si O2"
_cell_formula_units_Z 52
_cell_length_a 9.851343
_cell_length_b 16.396943
_cell_length_c 15.548976
_cell_angle_alpha 90.000000
_cell_angle_beta 90.000000
_cell_angle_gamma 90.000000
_cell_volume 2511.655786
_symmetry_space_group_name_H-M "C C C M"
_symmetry_group_IT_number 66
_symmetry_cell_setting 'orthorhombic'
loop_
_space_group_symop_operation_xyz
x,y,z
-x,-y,z
x,-y,1/2-z
-x,y,1/2-z
-x,-y,-z
x,y,-z
-x,y,1/2+z
x,-y,1/2+z
1/2+x,1/2+y,z
1/2-x,1/2-y,z
1/2+x,1/2-y,1/2-z
1/2-x,1/2+y,1/2-z
1/2-x,1/2-y,-z
1/2+x,1/2+y,-z
1/2-x,1/2+y,1/2+z
1/2+x,1/2-y,1/2+z
loop_
_atom_site_type_symbol
_atom_site_label
_atom_site_fract_x
_atom_site_fract_y
_atom_site_fract_z
Si Si1 0.055277 0.271527 0.157394
Si Si2 0.363690 0.181214 0.500000
Si Si3 0.204538 0.886848 0.644289
Si Si4 0.500000 0.500000 0.750000
Si Si5 0.836192 0.498240 0.500000
O O1 0.119769 0.191793 0.111675
O O2 0.167531 0.338839 0.184822
O O3 0.000000 0.243220 0.250000
O O4 0.953860 0.309162 0.086802
O O5 0.250000 0.250000 0.500000
O O6 0.295420 0.092477 0.500000
O O7 0.100590 0.941161 0.697655
O O8 0.274953 0.948384 0.578837
O O9 0.000000 0.500000 0.500000
#
# Coordination Sequence:
#
# PCOD9499920 Si02
#       5
#    16   8  16   4   8
#     4  11  25  48  73 105 149 201 241 308 380 447
#     4  12  29  45  76 111 145 191 259 301 376 452
#     4  11  26  45  71  99 151 183 250 301 377 439
#     4  12  28  42  70 112 140 196 244 310 368 446
#     4  12  25  48  71 107 139 195 243 317 378 439
#
# _framework density 20.703474
#
# number of rings (size 3 to 8) (size 9 to 14) (size 15 to 20)
#    0.000    0.615    4.615    0.923   12.923    3.077 
#    0.000    0.000    0.000    0.000    0.000    0.000 
#    0.000    0.000    0.000    0.000    0.000    0.000 
#
# Total GULP energy -144991.540049 kJ/mol
# GULP energy per Si atom -5576.597694 kJ/mol
# Density = 2.065635 g / cm^3
# Si number density = 20.703474 Si / 1000 Ang^3
#
#
#
# Elastic Constant Matrix: (Units=GPa)
#
#
# Indices 1 2 3 4 5 6 
#
# 1 123.6406 69.7987 59.2320 0.0000 0.0000 0.0000
# 2 69.7987 192.0049 44.1809 0.0000 0.0000 0.0000
# 3 59.2320 44.1809 92.8165 0.0000 0.0000 0.0000
# 4 0.0000 0.0000 0.0000 33.4284 0.0000 0.0000
# 5 0.0000 0.0000 0.0000 0.0000 2.2738 0.0000
# 6 0.0000 0.0000 0.0000 0.0000 0.0000 53.8428
#
#
#
# Elastic Compliance Matrix: (Units=1/GPa)
#
#
# Indices 1 2 3 4 5 6 
#
# 1 0.013207 -0.003214 -0.006898 0.000000 0.000000 0.000000
# 2 -0.003214 0.006631 -0.001105 0.000000 0.000000 0.000000
# 3 -0.006898 -0.001105 0.015702 0.000000 0.000000 0.000000
# 4 0.000000 0.000000 0.000000 0.029915 0.000000 0.000000
# 5 0.000000 0.000000 0.000000 0.000000 0.439783 0.000000
# 6 0.000000 0.000000 0.000000 0.000000 0.000000 0.018573
#
#
# Mechanical properties :
#
#
# Convention : Reuss Voigt Hill
#
# Bulk Modulus (GPa) = 76.30623 83.87612 80.09117
# Shear Modulus (GPa) = 9.08076 33.59238 21.33657
#
# Velocity S-wave (km/s) = 2.09657 4.03246 3.21375
# Velocity P-wave (km/s) = 6.54199 7.89189 7.24843
#
# Compressibility (1/GPa) = 0.01310509
#
# Stress axis : x y z
#
# Youngs Moduli (GPa) = 75.71728 150.81066 63.68420
#
# Poissons Ratio (x) = 0.48466 0.43932
# Poissons Ratio (y) = 0.24333 0.07040
# Poissons Ratio (z) = 0.52233 0.16671
#
# Static dielectric constant tensor:
#      x y z
#    x 1.787070 0.000000 0.000000 
#    y 0.000000 1.672350 0.000000 
#    z 0.000000 0.000000 1.812930 
# 
# From -- ./inp_files/35990.got.cif
#   From: 2010.05.17/outbox.cif.g08.bks.cpg/sg66_18_cif.got.tgz:35990.got - 2010.06.03 17:51:23.
