data_PCOD9499644
_publ_section_title
;
Structure prediction by ZEFSAII (Michael W. Deem and Ramdas Pophale) SiO2 
 PCOD9499644
Probable space group: C C C M
;
_chemical_formula_sum "Si O2"
_cell_formula_units_Z 40
_cell_length_a 4.854047
_cell_length_b 14.889123
_cell_length_c 23.637972
_cell_angle_alpha 90.000000
_cell_angle_beta 90.000000
_cell_angle_gamma 90.000000
_cell_volume 1708.375398
_symmetry_space_group_name_H-M "C C C M"
_symmetry_group_IT_number 66
_symmetry_cell_setting 'orthorhombic'
loop_
_space_group_symop_operation_xyz
x,y,z
-x,-y,z
x,-y,1/2-z
-x,y,1/2-z
-x,-y,-z
x,y,-z
-x,y,1/2+z
x,-y,1/2+z
1/2+x,1/2+y,z
1/2-x,1/2-y,z
1/2+x,1/2-y,1/2-z
1/2-x,1/2+y,1/2-z
1/2-x,1/2-y,-z
1/2+x,1/2+y,-z
1/2-x,1/2+y,1/2+z
1/2+x,1/2-y,1/2+z
loop_
_atom_site_type_symbol
_atom_site_label
_atom_site_fract_x
_atom_site_fract_y
_atom_site_fract_z
Si Si1 0.654223 0.413321 0.631022
Si Si2 0.821577 0.645420 0.435593
Si Si3 0.250000 0.750000 0.711860
O O1 0.500000 0.500000 0.657606
O O2 0.470511 0.399571 0.575163
O O3 0.629422 0.329941 0.673735
O O4 0.965613 0.400548 0.607930
O O5 0.918455 0.637385 0.500000
O O6 0.750000 0.750000 0.424338
O O7 0.500000 0.785472 0.750000
#
# Coordination Sequence:
#
# PCOD9499644 Si02
#       3
#    16  16   8
#     4  12  25  44  70 103 138 180 238 291 355 436
#     4  11  22  41  69 102 145 189 226 276 352 436
#     4  12  26  48  73  94 135 184 236 310 374 420
#
# _framework density 23.414057
#
# number of rings (size 3 to 8) (size 9 to 14) (size 15 to 20)
#    0.000    0.400    4.000    4.800    0.000    8.800 
#    0.000    2.000    0.000    0.000    0.000    0.000 
#    0.000    0.000    0.000    0.000    0.000    0.000 
#
# Total GULP energy -111576.240251 kJ/mol
# GULP energy per Si atom -5578.812013 kJ/mol
# Density = 2.336077 g / cm^3
# Si number density = 23.414057 Si / 1000 Ang^3
#
#
#
# Elastic Constant Matrix: (Units=GPa)
#
#
# Indices 1 2 3 4 5 6 
#
# 1 108.8218 17.0099 23.7539 0.0000 0.0000 0.0000
# 2 17.0099 181.3896 45.4042 0.0000 0.0000 0.0000
# 3 23.7539 45.4042 81.2615 0.0000 0.0000 0.0000
# 4 0.0000 0.0000 0.0000 0.1643 0.0000 0.0000
# 5 0.0000 0.0000 0.0000 0.0000 60.5094 0.0000
# 6 0.0000 0.0000 0.0000 0.0000 0.0000 35.1498
#
#
#
# Elastic Compliance Matrix: (Units=1/GPa)
#
#
# Indices 1 2 3 4 5 6 
#
# 1 0.009824 -0.000235 -0.002740 0.000000 0.000000 0.000000
# 2 -0.000235 0.006415 -0.003516 0.000000 0.000000 0.000000
# 3 -0.002740 -0.003516 0.015071 0.000000 0.000000 0.000000
# 4 0.000000 0.000000 0.000000 6.087600 0.000000 0.000000
# 5 0.000000 0.000000 0.000000 0.000000 0.016526 0.000000
# 6 0.000000 0.000000 0.000000 0.000000 0.000000 0.028450
#
#
# Mechanical properties :
#
#
# Convention : Reuss Voigt Hill
#
# Bulk Modulus (GPa) = 54.56067 60.42321 57.49194
# Shear Modulus (GPa) = 0.80867 38.18503 19.49685
#
# Velocity S-wave (km/s) = 0.58833 4.04277 2.88878
# Velocity P-wave (km/s) = 4.88002 6.90322 5.97784
#
# Compressibility (1/GPa) = 0.01832822
#
# Stress axis : x y z
#
# Youngs Moduli (GPa) = 101.78865 155.88332 66.35145
#
# Poissons Ratio (x) = 0.03669 0.18182
# Poissons Ratio (y) = 0.02396 0.23326
# Poissons Ratio (z) = 0.27893 0.54802
#
# Static dielectric constant tensor:
#      x y z
#    x 2.133980 0.000000 0.000000 
#    y 0.000000 2.154720 0.000000 
#    z 0.000000 0.000000 1.807070 
# 
# From -- ./inp_files/45147.got.cif
#   From: 2010.05.17/outbox.cif.g08.bks.cpg/sg66_23_cif.got.tgz:45147.got - 2010.06.03 17:51:23.
