data_PCOD9499610
_publ_section_title
;
Structure prediction by ZEFSAII (Michael W. Deem and Ramdas Pophale) SiO2 
 PCOD9499610
Probable space group: C C C M
;
_chemical_formula_sum "Si O2"
_cell_formula_units_Z 112
_cell_length_a 11.911549
_cell_length_b 28.140730
_cell_length_c 16.010797
_cell_angle_alpha 90.000000
_cell_angle_beta 90.000000
_cell_angle_gamma 90.000000
_cell_volume 5366.814100
_symmetry_space_group_name_H-M "C C C M"
_symmetry_group_IT_number 66
_symmetry_cell_setting 'orthorhombic'
loop_
_space_group_symop_operation_xyz
x,y,z
-x,-y,z
x,-y,1/2-z
-x,y,1/2-z
-x,-y,-z
x,y,-z
-x,y,1/2+z
x,-y,1/2+z
1/2+x,1/2+y,z
1/2-x,1/2-y,z
1/2+x,1/2-y,1/2-z
1/2-x,1/2+y,1/2-z
1/2-x,1/2-y,-z
1/2+x,1/2+y,-z
1/2-x,1/2+y,1/2+z
1/2+x,1/2-y,1/2+z
loop_
_atom_site_type_symbol
_atom_site_label
_atom_site_fract_x
_atom_site_fract_y
_atom_site_fract_z
Si Si1 0.570179 0.719429 0.836304
Si Si2 0.952210 0.553106 0.410290
Si Si3 0.715977 0.438300 0.168411
Si Si4 0.342434 0.087229 0.839345
Si Si5 0.188140 0.306643 0.099932
Si Si6 0.150375 0.033635 0.905333
Si Si7 0.979894 0.119488 0.901268
O O1 0.500000 0.724894 0.750000
O O2 0.702639 0.705662 0.842837
O O3 0.584292 0.770861 0.881255
O O4 0.515125 0.673209 0.880051
O O5 0.976874 0.575877 0.500000
O O6 0.820816 0.556495 0.393980
O O7 0.000000 0.500000 0.411546
O O8 0.026549 0.576641 0.339332
O O9 0.776017 0.427040 0.255707
O O10 0.648138 0.487707 0.154401
O O11 0.631353 0.396204 0.146890
O O12 0.334300 0.140228 0.872179
O O13 0.276741 0.053556 0.904288
O O14 0.215705 0.303907 0.000000
O O15 0.073973 0.079171 0.880761
O O16 0.120681 0.019161 0.000000
O O17 0.961146 0.115804 0.000000
#
# Coordination Sequence:
#
# PCOD9499610 Si02
#       7
#    16  16  16  16  16  16  16
#     4  11  23  41  68 104 135 166 220 294 355 403
#     4  11  23  40  63  86 123 175 230 277 329 403
#     4  12  25  39  62  97 140 182 220 281 355 409
#     4  12  24  40  65  97 130 172 229 292 334 392
#     4  11  23  45  74 100 131 178 236 285 349 422
#     4  11  22  39  63  94 135 184 233 274 328 412
#     4  11  23  41  66  97 138 183 230 276 341 423
#
# _framework density 20.868991999999999
#
# number of rings (size 3 to 8) (size 9 to 14) (size 15 to 20)
#    0.000    0.714    2.857    6.429    0.000    2.857 
#    0.000    1.429    0.000    0.000    0.000   18.000 
#    0.000    0.000    0.000    0.000    0.000    0.000 
#
# Total GULP energy -312281.214279 kJ/mol
# GULP energy per Si atom -5576.450255 kJ/mol
# Density = 2.082149 g / cm^3
# Si number density = 20.868992 Si / 1000 Ang^3
#
#
#
# Elastic Constant Matrix: (Units=GPa)
#
#
# Indices 1 2 3 4 5 6 
#
# 1 93.5656 24.6411 40.4490 0.0000 0.0000 0.0000
# 2 24.6411 129.4522 42.2508 0.0000 0.0000 0.0000
# 3 40.4490 42.2508 131.0586 0.0000 0.0000 0.0000
# 4 0.0000 0.0000 0.0000 23.8845 0.0000 0.0000
# 5 0.0000 0.0000 0.0000 0.0000 25.0492 0.0000
# 6 0.0000 0.0000 0.0000 0.0000 0.0000 38.5389
#
#
#
# Elastic Compliance Matrix: (Units=1/GPa)
#
#
# Indices 1 2 3 4 5 6 
#
# 1 0.012513 -0.001253 -0.003458 0.000000 0.000000 0.000000
# 2 -0.001253 0.008759 -0.002437 0.000000 0.000000 0.000000
# 3 -0.003458 -0.002437 0.009483 0.000000 0.000000 0.000000
# 4 0.000000 0.000000 0.000000 0.041868 0.000000 0.000000
# 5 0.000000 0.000000 0.000000 0.000000 0.039921 0.000000
# 6 0.000000 0.000000 0.000000 0.000000 0.000000 0.025948
#
#
# Mechanical properties :
#
#
# Convention : Reuss Voigt Hill
#
# Bulk Modulus (GPa) = 60.75866 63.19536 61.97701
# Shear Modulus (GPa) = 31.59088 33.94355 32.76721
#
# Velocity S-wave (km/s) = 3.89494 4.03737 3.96680
# Velocity P-wave (km/s) = 7.02887 7.21675 7.12343
#
# Compressibility (1/GPa) = 0.01645856
#
# Stress axis : x y z
#
# Youngs Moduli (GPa) = 79.91973 114.17153 105.45231
#
# Poissons Ratio (x) = 0.14308 0.36463
# Poissons Ratio (y) = 0.10016 0.25697
# Poissons Ratio (z) = 0.27635 0.27822
#
# Static dielectric constant tensor:
#      x y z
#    x 1.753810 0.000000 0.000000 
#    y 0.000000 1.807450 0.000000 
#    z 0.000000 0.000000 1.816710 
# 
# From -- ./inp_files/27010.got.cif
#   From: 2010.05.17/outbox.cif.g08.bks.cpg/sg66_14_cif.got.tgz:27010.got - 2010.06.03 17:51:23.
