data_PCOD9499711
_publ_section_title
;
Structure prediction by ZEFSAII (Michael W. Deem and Ramdas Pophale) SiO2 
 PCOD9499711
Probable space group: C C C M
;
_chemical_formula_sum "Si O2"
_cell_formula_units_Z 112
_cell_length_a 25.061675
_cell_length_b 14.509216
_cell_length_c 16.829038
_cell_angle_alpha 90.000000
_cell_angle_beta 90.000000
_cell_angle_gamma 90.000000
_cell_volume 6119.463249
_symmetry_space_group_name_H-M "C C C M"
_symmetry_group_IT_number 66
_symmetry_cell_setting 'orthorhombic'
loop_
_space_group_symop_operation_xyz
x,y,z
-x,-y,z
x,-y,1/2-z
-x,y,1/2-z
-x,-y,-z
x,y,-z
-x,y,1/2+z
x,-y,1/2+z
1/2+x,1/2+y,z
1/2-x,1/2-y,z
1/2+x,1/2-y,1/2-z
1/2-x,1/2+y,1/2-z
1/2-x,1/2-y,-z
1/2+x,1/2+y,-z
1/2-x,1/2+y,1/2+z
1/2+x,1/2-y,1/2+z
loop_
_atom_site_type_symbol
_atom_site_label
_atom_site_fract_x
_atom_site_fract_y
_atom_site_fract_z
Si Si1 0.382241 0.673452 0.679183
Si Si2 0.696568 0.803694 0.592178
Si Si3 0.488934 0.606307 0.594029
Si Si4 0.167295 0.989710 0.409876
Si Si5 0.304679 0.192095 0.094825
Si Si6 0.778971 0.488832 0.156390
Si Si7 0.396607 0.334166 0.367705
O O1 0.438493 0.649234 0.638576
O O2 0.343545 0.590846 0.651872
O O3 0.353149 0.763010 0.643917
O O4 0.389466 0.672470 0.773126
O O5 0.706716 0.826207 0.500000
O O6 0.750000 0.750000 0.622289
O O7 0.686526 0.898224 0.639184
O O8 0.644611 0.739491 0.597313
O O9 0.500000 0.500000 0.620665
O O10 0.477725 0.602734 0.500000
O O11 0.541385 0.667697 0.609819
O O12 0.167894 0.953625 0.500000
O O13 0.223493 0.033490 0.387751
O O14 0.122839 0.066892 0.399870
O O15 0.250000 0.250000 0.111558
O O16 0.297641 0.085855 0.119936
O O17 0.313947 0.198710 0.000000
O O18 0.771071 0.500000 0.250000
#
# Coordination Sequence:
#
# PCOD9499711 Si02
#       7
#    16  16  16  16  16  16  16
#     4  12  24  38  59  88 121 156 200 249 297 347
#     4  11  23  39  61  86 120 161 200 240 296 359
#     4  11  23  39  61  86 120 161 200 240 296 359
#     4  12  22  35  55  84 121 161 199 237 292 359
#     4  11  23  39  61  86 120 161 200 240 296 359
#     4  12  24  38  59  88 121 156 200 249 297 347
#     4  12  24  38  59  88 121 156 200 249 297 347
#
# _framework density 18.302258999999999
#
# number of rings (size 3 to 8) (size 9 to 14) (size 15 to 20)
#    0.000    0.429    4.286    6.429    0.000    1.714 
#    0.000    0.000    0.000    0.857    0.000    6.000 
#    0.000    0.000    0.000    0.000    0.000    0.000 
#
# Total GULP energy -313109.018279 kJ/mol
# GULP energy per Si atom -5591.232469 kJ/mol
# Density = 1.826060 g / cm^3
# Si number density = 18.302259 Si / 1000 Ang^3
#
#
#
# Elastic Constant Matrix: (Units=GPa)
#
#
# Indices 1 2 3 4 5 6 
#
# 1 74.9273 17.4894 9.2911 0.0000 0.0000 0.0000
# 2 17.4894 85.8014 12.0566 0.0000 0.0000 0.0000
# 3 9.2911 12.0566 94.6838 0.0000 0.0000 0.0000
# 4 0.0000 0.0000 0.0000 211.4644 0.0000 0.0000
# 5 0.0000 0.0000 0.0000 0.0000 12.1886 0.0000
# 6 0.0000 0.0000 0.0000 0.0000 0.0000 28.3400
#
#
#
# Elastic Compliance Matrix: (Units=1/GPa)
#
#
# Indices 1 2 3 4 5 6 
#
# 1 0.014112 -0.002731 -0.001037 0.000000 0.000000 0.000000
# 2 -0.002731 0.012396 -0.001310 0.000000 0.000000 0.000000
# 3 -0.001037 -0.001310 0.010830 0.000000 0.000000 0.000000
# 4 0.000000 0.000000 0.000000 0.004729 0.000000 0.000000
# 5 0.000000 0.000000 0.000000 0.000000 0.082044 0.000000
# 6 0.000000 0.000000 0.000000 0.000000 0.000000 0.035286
#
#
# Mechanical properties :
#
#
# Convention : Reuss Voigt Hill
#
# Bulk Modulus (GPa) = 36.79004 37.00965 36.89984
# Shear Modulus (GPa) = 27.99333 64.83695 46.41514
#
# Velocity S-wave (km/s) = 3.91513 5.95840 5.04137
# Velocity P-wave (km/s) = 6.37045 8.22204 7.35475
#
# Compressibility (1/GPa) = 0.02718127
#
# Stress axis : x y z
#
# Youngs Moduli (GPa) = 70.86014 80.67376 92.33528
#
# Poissons Ratio (x) = 0.22031 0.09576
# Poissons Ratio (y) = 0.19351 0.12100
# Poissons Ratio (z) = 0.07349 0.10572
#
# Static dielectric constant tensor:
#      x y z
#    x 1.617940 0.000000 0.000000 
#    y 0.000000 1.634880 0.000000 
#    z 0.000000 0.000000 1.618850 
# 
# From -- ./inp_files/28662.got.cif
#   From: 2010.05.17/outbox.cif.g08.bks.cpg/sg66_15_cif.got.tgz:28662.got - 2010.06.03 17:51:23.
