data_PCOD9499808
_publ_section_title
;
Structure prediction by ZEFSAII (Michael W. Deem and Ramdas Pophale) SiO2 
 PCOD9499808
Probable space group: C C C M
;
_chemical_formula_sum "Si O2"
_cell_formula_units_Z 64
_cell_length_a 21.673877
_cell_length_b 10.762234
_cell_length_c 13.936434
_cell_angle_alpha 90.000000
_cell_angle_beta 90.000000
_cell_angle_gamma 90.000000
_cell_volume 3250.803341
_symmetry_space_group_name_H-M "C C C M"
_symmetry_group_IT_number 66
_symmetry_cell_setting 'orthorhombic'
loop_
_space_group_symop_operation_xyz
x,y,z
-x,-y,z
x,-y,1/2-z
-x,y,1/2-z
-x,-y,-z
x,y,-z
-x,y,1/2+z
x,-y,1/2+z
1/2+x,1/2+y,z
1/2-x,1/2-y,z
1/2+x,1/2-y,1/2-z
1/2-x,1/2+y,1/2-z
1/2-x,1/2-y,-z
1/2+x,1/2+y,-z
1/2-x,1/2+y,1/2+z
1/2+x,1/2-y,1/2+z
loop_
_atom_site_type_symbol
_atom_site_label
_atom_site_fract_x
_atom_site_fract_y
_atom_site_fract_z
Si Si1 0.809984 0.098655 0.000000
Si Si2 0.250000 0.250000 0.664303
Si Si3 0.067459 0.941230 0.500000
Si Si4 0.790295 0.375996 0.500000
Si Si5 0.153402 0.627795 0.710243
Si Si6 0.070127 0.863233 0.712919
O O1 0.797475 0.182113 0.093226
O O2 0.877627 0.041039 0.000000
O O3 0.758324 0.989904 0.000000
O O4 0.216962 0.348898 0.732381
O O5 0.072280 0.866645 0.597953
O O6 0.000000 0.000000 0.500000
O O7 0.750000 0.250000 0.500000
O O8 0.830597 0.379367 0.597347
O O9 0.125794 0.500000 0.750000
O O10 0.111830 0.746006 0.737978
O O11 0.000000 0.849613 0.750000
O O12 0.091507 0.000000 0.750000
#
# Coordination Sequence:
#
# PCOD9499808 Si02
#       6
#     8   8   8   8  16  16
#     4  11  24  42  65 101 133 173 221 270 338 402
#     4  11  24  41  68  92 136 183 210 271 338 412
#     4  12  23  43  69 101 133 169 232 292 323 390
#     4  12  23  41  64  99 132 173 223 273 340 407
#     4  12  25  42  67  99 139 175 225 277 344 404
#     4  11  24  44  69  98 130 178 232 276 339 402
#
# _framework density 19.687442000000001
#
# number of rings (size 3 to 8) (size 9 to 14) (size 15 to 20)
#    0.000    0.500    6.250    3.750    0.000    1.500 
#    0.000    1.250    0.000    3.000    0.000    0.000 
#    0.000    0.000    0.000    0.000    0.000    0.000 
#
# Total GULP energy -178872.174049 kJ/mol
# GULP energy per Si atom -5589.755439 kJ/mol
# Density = 1.964263 g / cm^3
# Si number density = 19.687442 Si / 1000 Ang^3
#
#
#
# Elastic Constant Matrix: (Units=GPa)
#
#
# Indices 1 2 3 4 5 6 
#
# 1 89.1883 46.9363 36.1969 0.0000 0.0000 0.0000
# 2 46.9363 132.5887 53.8668 0.0000 0.0000 0.0000
# 3 36.1969 53.8668 156.4660 0.0000 0.0000 0.0000
# 4 0.0000 0.0000 0.0000 26.3581 0.0000 0.0000
# 5 0.0000 0.0000 0.0000 0.0000 15.0519 0.0000
# 6 0.0000 0.0000 0.0000 0.0000 0.0000 22.9337
#
#
#
# Elastic Compliance Matrix: (Units=1/GPa)
#
#
# Indices 1 2 3 4 5 6 
#
# 1 0.014206 -0.004294 -0.001808 0.000000 0.000000 0.000000
# 2 -0.004294 0.010067 -0.002472 0.000000 0.000000 0.000000
# 3 -0.001808 -0.002472 0.007661 0.000000 0.000000 0.000000
# 4 0.000000 0.000000 0.000000 0.037939 0.000000 0.000000
# 5 0.000000 0.000000 0.000000 0.000000 0.066437 0.000000
# 6 0.000000 0.000000 0.000000 0.000000 0.000000 0.043604
#
#
# Mechanical properties :
#
#
# Convention : Reuss Voigt Hill
#
# Bulk Modulus (GPa) = 67.64041 72.47145 70.05593
# Shear Modulus (GPa) = 24.75370 28.95161 26.85265
#
# Velocity S-wave (km/s) = 3.54974 3.83895 3.69717
# Velocity P-wave (km/s) = 7.15769 7.51937 7.34076
#
# Compressibility (1/GPa) = 0.01478406
#
# Stress axis : x y z
#
# Youngs Moduli (GPa) = 70.39297 99.33729 130.53912
#
# Poissons Ratio (x) = 0.42659 0.23601
# Poissons Ratio (y) = 0.30229 0.32272
# Poissons Ratio (z) = 0.12727 0.24558
#
# Static dielectric constant tensor:
#      x y z
#    x 1.772990 0.000000 0.000000 
#    y 0.000000 1.718390 0.000000 
#    z 0.000000 0.000000 1.676340 
# 
# From -- ./inp_files/29630.got.cif
#   From: 2010.05.17/outbox.cif.g08.bks.cpg/sg66_15_cif.got.tgz:29630.got - 2010.06.03 17:51:23.
