data_PCOD9500557
_publ_section_title
;
Structure prediction by ZEFSAII (Michael W. Deem and Ramdas Pophale) SiO2 
 PCOD9500557
Probable space group: C M M A
;
_chemical_formula_sum "Si O2"
_cell_formula_units_Z 96
_cell_length_a 20.928805
_cell_length_b 23.647550
_cell_length_c 10.767462
_cell_angle_alpha 90.000000
_cell_angle_beta 90.000000
_cell_angle_gamma 90.000000
_cell_volume 5328.978054
_symmetry_space_group_name_H-M "C M M A"
_symmetry_group_IT_number 67
_symmetry_cell_setting 'orthorhombic'
loop_
_space_group_symop_operation_xyz
x,y,z
-x,1/2-y,z
x,-y,-z
-x,1/2+y,-z
-x,-y,-z
x,1/2+y,-z
-x,y,z
x,1/2-y,z
1/2+x,1/2+y,z
1/2-x,-y,z
1/2+x,1/2-y,-z
1/2-x,y,-z
1/2-x,1/2-y,-z
1/2+x,y,-z
1/2-x,1/2+y,z
1/2+x,-y,z
loop_
_atom_site_type_symbol
_atom_site_label
_atom_site_fract_x
_atom_site_fract_y
_atom_site_fract_z
Si Si1 0.745160 0.184622 0.740983
Si Si2 0.000000 0.621703 0.979313
Si Si3 0.624946 0.683656 0.439200
Si Si4 0.000000 0.686451 0.731022
Si Si5 0.250000 0.133242 0.000000
Si Si6 0.623891 0.120531 0.313254
Si Si7 0.000000 0.685818 0.213278
Si Si8 0.872845 0.941042 0.072497
O O1 0.762567 0.250000 0.731017
O O2 0.687529 0.174406 0.645510
O O3 0.807423 0.148226 0.712289
O O4 0.727844 0.170243 0.882702
O O5 0.000000 0.640020 0.837749
O O6 0.000000 0.677334 0.065669
O O7 0.062988 0.587165 0.017718
O O8 0.628798 0.750000 0.488243
O O9 0.562582 0.681761 0.353598
O O10 0.618858 0.633163 0.539594
O O11 0.000000 0.750000 0.785483
O O12 0.310361 0.095252 0.038153
O O13 0.563773 0.155900 0.261907
O O14 0.622137 0.064193 0.224703
O O15 0.000000 0.750000 0.253354
O O16 0.866291 0.000000 0.000000
#
# Coordination Sequence:
#
# PCOD9500557 Si02
#       8
#    16   8  16   8   8  16   8  16
#     4  10  19  31  50  77 110 141 169 207 255 315
#     4  10  20  34  53  76 100 130 170 214 265 314
#     4  10  19  31  49  75 110 146 172 200 250 316
#     4  10  20  33  51  76 108 140 166 199 248 315
#     4  10  20  34  54  78 102 134 176 218 264 314
#     4  10  20  32  50  75 102 137 175 210 253 309
#     4  10  18  29  48  74 105 134 166 211 256 310
#     4  10  21  37  56  75  97 130 175 226 269 304
#
# _framework density 18.014710000000001
#
# number of rings (size 3 to 8) (size 9 to 14) (size 15 to 20)
#    0.000    2.000    0.000    4.500    0.000    2.000 
#    0.000    5.000    0.000    5.000    0.000    9.333 
#    0.000    0.000    0.000    0.000    0.000    0.000 
#
# Total GULP energy -267203.291757 kJ/mol
# GULP energy per Si atom -5566.735245 kJ/mol
# Density = 1.797371 g / cm^3
# Si number density = 18.014710 Si / 1000 Ang^3
#
#
#
# Elastic Constant Matrix: (Units=GPa)
#
#
# Indices 1 2 3 4 5 6 
#
# 1 105.3931 14.5748 18.1352 0.0000 0.0000 0.0000
# 2 14.5748 39.4616 28.5499 0.0000 0.0000 0.0000
# 3 18.1352 28.5499 104.0395 0.0000 0.0000 0.0000
# 4 0.0000 0.0000 0.0000 21.2260 0.0000 0.0000
# 5 0.0000 0.0000 0.0000 0.0000 24.5485 0.0000
# 6 0.0000 0.0000 0.0000 0.0000 0.0000 15.9807
#
#
#
# Elastic Compliance Matrix: (Units=1/GPa)
#
#
# Indices 1 2 3 4 5 6 
#
# 1 0.010069 -0.003056 -0.000917 0.000000 0.000000 0.000000
# 2 -0.003056 0.032546 -0.008398 0.000000 0.000000 0.000000
# 3 -0.000917 -0.008398 0.012076 0.000000 0.000000 0.000000
# 4 0.000000 0.000000 0.000000 0.047112 0.000000 0.000000
# 5 0.000000 0.000000 0.000000 0.000000 0.040736 0.000000
# 6 0.000000 0.000000 0.000000 0.000000 0.000000 0.062576
#
#
# Mechanical properties :
#
#
# Convention : Reuss Voigt Hill
#
# Bulk Modulus (GPa) = 33.38971 41.26823 37.32897
# Shear Modulus (GPa) = 20.84739 24.85997 22.85368
#
# Velocity S-wave (km/s) = 3.40552 3.71884 3.56562
# Velocity P-wave (km/s) = 5.83424 6.43409 6.14149
#
# Compressibility (1/GPa) = 0.02994935
#
# Stress axis : x y z
#
# Youngs Moduli (GPa) = 99.31899 30.72589 82.80782
#
# Poissons Ratio (x) = 0.09389 0.07590
# Poissons Ratio (y) = 0.30348 0.69546
# Poissons Ratio (z) = 0.09103 0.25805
#
# Static dielectric constant tensor:
#      x y z
#    x 1.590930 0.000000 0.000000 
#    y 0.000000 1.616370 0.000000 
#    z 0.000000 0.000000 1.684650 
# 
# From -- ./inp_files/12718.got.cif
#   From: 2010.05.17/outbox.cif.g08.bks.cpg/sg67_7_cif.got.tgz:12718.got - 2010.06.03 18:28:57.
