data_PCOD9500275
_publ_section_title
;
Structure prediction by ZEFSAII (Michael W. Deem and Ramdas Pophale) SiO2 
 PCOD9500275
Probable space group: C M M A
;
_chemical_formula_sum "Si O2"
_cell_formula_units_Z 80
_cell_length_a 8.466529
_cell_length_b 27.476479
_cell_length_c 18.688859
_cell_angle_alpha 90.000000
_cell_angle_beta 90.000000
_cell_angle_gamma 90.000000
_cell_volume 4347.596862
_symmetry_space_group_name_H-M "C M M A"
_symmetry_group_IT_number 67
_symmetry_cell_setting 'orthorhombic'
loop_
_space_group_symop_operation_xyz
x,y,z
-x,1/2-y,z
x,-y,-z
-x,1/2+y,-z
-x,-y,-z
x,1/2+y,-z
-x,y,z
x,1/2-y,z
1/2+x,1/2+y,z
1/2-x,-y,z
1/2+x,1/2-y,-z
1/2-x,y,-z
1/2-x,1/2-y,-z
1/2+x,y,-z
1/2-x,1/2+y,z
1/2+x,-y,z
loop_
_atom_site_type_symbol
_atom_site_label
_atom_site_fract_x
_atom_site_fract_y
_atom_site_fract_z
Si Si1 0.690877 0.250000 0.580593
Si Si2 0.191035 0.153531 0.334950
Si Si3 0.192302 0.844002 0.831829
Si Si4 0.311634 0.449742 0.831996
Si Si5 0.812156 0.550393 0.331855
Si Si6 0.808395 0.750000 0.919344
O O1 0.500000 0.250000 0.581741
O O2 0.750000 0.250000 0.500000
O O3 0.742344 0.299155 0.621112
O O4 0.239152 0.159878 0.251599
O O5 0.257141 0.102099 0.363202
O O6 0.000000 0.150685 0.336271
O O7 0.242155 0.897163 0.860794
O O8 0.246626 0.798295 0.877666
O O9 0.000000 0.843368 0.832270
O O10 0.500000 0.451318 0.833364
O O11 0.250000 0.500000 0.864869
O O12 0.257852 0.449136 0.748923
O O13 0.750000 0.500000 0.365778
O O14 0.000000 0.548526 0.328125
O O15 0.000000 0.750000 0.918542
O O16 0.750000 0.750000 0.000000
#
# Coordination Sequence:
#
# PCOD9500275 Si02
#       6
#     8  16  16  16  16   8
#     4  10  21  35  53  73  99 130 162 198 242 290
#     4   9  17  32  52  74  96 127 166 201 234 280
#     4   8  15  28  49  70  91 120 158 194 229 273
#     4   9  15  25  42  67  95 123 153 190 233 282
#     4  10  17  26  43  70 101 130 156 194 241 286
#     4  10  19  33  49  67  91 122 156 196 240 284
#
# _framework density 18.400970000000001
#
# number of rings (size 3 to 8) (size 9 to 14) (size 15 to 20)
#    0.000    2.800    0.000    5.400    0.000    3.200 
#    0.000    5.000    0.000    2.400    0.000    8.400 
#    0.000    0.000    0.000    0.000    0.000    0.000 
#
# Total GULP energy -222803.163970 kJ/mol
# GULP energy per Si atom -5570.079099 kJ/mol
# Density = 1.835909 g / cm^3
# Si number density = 18.400970 Si / 1000 Ang^3
#
#
#
# Elastic Constant Matrix: (Units=GPa)
#
#
# Indices 1 2 3 4 5 6 
#
# 1 34.5384 38.6017 9.0013 0.0000 0.0000 0.0000
# 2 38.6017 250.0816 70.2587 0.0000 0.0000 0.0000
# 3 9.0013 70.2587 53.0953 0.0000 0.0000 0.0000
# 4 0.0000 0.0000 0.0000 -3.2243 0.0000 0.0000
# 5 0.0000 0.0000 0.0000 0.0000 17.1201 0.0000
# 6 0.0000 0.0000 0.0000 0.0000 0.0000 27.5543
#
#
#
# Elastic Compliance Matrix: (Units=1/GPa)
#
#
# Indices 1 2 3 4 5 6 
#
# 1 0.035115 -0.005965 0.001941 0.000000 0.000000 0.000000
# 2 -0.005965 0.007378 -0.008752 0.000000 0.000000 0.000000
# 3 0.001941 -0.008752 0.030086 0.000000 0.000000 0.000000
# 4 0.000000 0.000000 0.000000 -0.310147 0.000000 0.000000
# 5 0.000000 0.000000 0.000000 0.000000 0.058411 0.000000
# 6 0.000000 0.000000 0.000000 0.000000 0.000000 0.036292
#
#
# Mechanical properties :
#
#
# Convention : Reuss Voigt Hill
#
# Bulk Modulus (GPa) = 21.26489 63.71541 42.49015
# Shear Modulus (GPa) = -49.19498 22.94693 -13.12402
#
# Velocity S-wave (km/s) = -5.17620 3.53519 -2.67352
# Velocity P-wave (km/s) = 4.91351 7.16692 3.68932
#
# Compressibility (1/GPa) = 0.04702587
#
# Stress axis : x y z
#
# Youngs Moduli (GPa) = 28.47809 135.53164 33.23763
#
# Poissons Ratio (x) = 0.80850 -0.06451
# Poissons Ratio (y) = 0.16988 0.29090
# Poissons Ratio (z) = -0.05527 1.18619
#
# Static dielectric constant tensor:
#      x y z
#    x 1.632360 0.000000 0.000000 
#    y 0.000000 1.705700 0.000000 
#    z 0.000000 0.000000 1.587110 
# 
# From -- ./inp_files/37089.got.cif
#   From: 2010.05.17/outbox.cif.g08.bks.cpg/sg67_19_cif.got.tgz:37089.got - 2010.06.03 18:28:57.
