data_PCOD9500100
_publ_section_title
;
Structure prediction by ZEFSAII (Michael W. Deem and Ramdas Pophale) SiO2 
 PCOD9500100
Probable space group: C C C M
;
_chemical_formula_sum "Si O2"
_cell_formula_units_Z 48
_cell_length_a 27.000000
_cell_length_b 21.000000
_cell_length_c 9.000000
_cell_angle_alpha 90.000000
_cell_angle_beta 90.000000
_cell_angle_gamma 90.000000
_cell_volume 5103.000000
_symmetry_space_group_name_H-M "C C C M"
_symmetry_group_IT_number 66
_symmetry_cell_setting 'orthorhombic'
loop_
_space_group_symop_operation_xyz
x,y,z
-x,-y,z
x,-y,1/2-z
-x,y,1/2-z
-x,-y,-z
x,y,-z
-x,y,1/2+z
x,-y,1/2+z
1/2+x,1/2+y,z
1/2-x,1/2-y,z
1/2+x,1/2-y,1/2-z
1/2-x,1/2+y,1/2-z
1/2-x,1/2-y,-z
1/2+x,1/2+y,-z
1/2-x,1/2+y,1/2+z
1/2+x,1/2-y,1/2+z
loop_
_atom_site_type_symbol
_atom_site_label
_atom_site_fract_x
_atom_site_fract_y
_atom_site_fract_z
Si Si1 0.447404 0.300541 0.679851
Si Si2 0.271137 0.183322 0.820148
Si Si3 0.612332 0.185851 0.320236
Si Si4 0.705635 0.433771 0.323375
Si Si5 0.055046 0.433558 0.319289
Si Si6 0.087558 0.068251 0.821853
O O1 0.500000 0.280392 0.750000
O O2 0.447979 0.298536 0.500000
O O3 0.407716 0.251314 0.748534
O O4 0.437042 0.371922 0.739571
O O5 0.250000 0.250000 0.763196
O O6 0.329246 0.178666 0.791382
O O7 0.238411 0.124445 0.765234
O O8 0.265472 0.183777 0.000000
O O9 0.604184 0.186191 0.500000
O O10 0.584973 0.126847 0.241823
O O11 0.720202 0.500000 0.250000
O O12 0.712733 0.438866 0.500000
O O13 0.646911 0.423962 0.299505
O O14 0.075161 0.500000 0.250000
O O15 0.053681 0.435789 0.500000
O O16 0.000000 0.427664 0.250000
O O17 0.073462 0.000000 0.750000
O O18 0.077600 0.068986 0.000000
#
# Coordination Sequence:
#
# PCOD9500100 Si02
#       6
#    16  16  16  16  16  16
#     4  12  25  41  60  84 114 149 192 238 287 341
#     4   9  18  34  57  83 111 147 190 233 278 331
#     4  11  22  38  60  86 117 152 191 236 287 339
#     4   9  18  34  57  84 114 149 187 228 276 331
#     4  11  22  39  61  86 116 150 191 235 285 341
#     4  10  20  37  61  88 118 152 190 233 283 337
#
# _framework density 9.4062319999999993
#
# number of rings (size 3 to 8) (size 9 to 14) (size 15 to 20)
#    0.000    1.667    0.000    6.000    0.000    4.333 
#    0.000    5.000    0.000    3.500    0.000    0.000 
#    0.000    0.000    0.000    0.000    0.000    0.000 
#
# Total GULP energy -268146.944860 kJ/mol
# GULP energy per Si atom -5586.394685 kJ/mol
# Density = 0.938482 g / cm^3
# Si number density = 9.406232 Si / 1000 Ang^3
#
#
#
# Elastic Constant Matrix: (Units=GPa)
#
#
# Indices 1 2 3 4 5 6 
#
# 1 36.9294 21.0870 25.4912 0.0000 0.0000 0.0000
# 2 21.0870 100.2295 29.3578 0.0000 0.0000 0.0000
# 3 25.4912 29.3578 117.4686 0.0000 0.0000 0.0000
# 4 0.0000 0.0000 0.0000 39.1458 0.0000 0.0000
# 5 0.0000 0.0000 0.0000 0.0000 16.8133 0.0000
# 6 0.0000 0.0000 0.0000 0.0000 0.0000 39.8593
#
#
#
# Elastic Compliance Matrix: (Units=1/GPa)
#
#
# Indices 1 2 3 4 5 6 
#
# 1 0.034404 -0.005450 -0.006104 0.000000 0.000000 0.000000
# 2 -0.005450 0.011629 -0.001723 0.000000 0.000000 0.000000
# 3 -0.006104 -0.001723 0.010268 0.000000 0.000000 0.000000
# 4 0.000000 0.000000 0.000000 0.025546 0.000000 0.000000
# 5 0.000000 0.000000 0.000000 0.000000 0.059477 0.000000
# 6 0.000000 0.000000 0.000000 0.000000 0.000000 0.025088
#
#
# Mechanical properties :
#
#
# Convention : Reuss Voigt Hill
#
# Bulk Modulus (GPa) = 33.61818 45.16660 39.39239
# Shear Modulus (GPa) = 24.64491 31.07646 27.86068
#
# Velocity S-wave (km/s) = 3.62336 4.06878 3.85251
# Velocity P-wave (km/s) = 5.95096 6.79222 6.38546
#
# Compressibility (1/GPa) = 0.02974581
#
# Stress axis : x y z
#
# Youngs Moduli (GPa) = 29.06636 85.99488 97.38842
#
# Poissons Ratio (x) = 0.46870 0.59443
# Poissons Ratio (y) = 0.15842 0.16785
# Poissons Ratio (z) = 0.17741 0.14821
#
# Static dielectric constant tensor:
#      x y z
#    x 1.657190 0.000000 0.000000 
#    y 0.000000 1.665760 0.000000 
#    z 0.000000 0.000000 1.626250 
# 
# From -- ./inp_files/10253.got.cif
#   From: 2010.05.17/outbox.ucp.g08.bks.cvg/sg66_6_cif.got.tgz:10253.got - 2010.06.11 16:44:13.
