data_PCOD9500338
_publ_section_title
;
Structure prediction by ZEFSAII (Michael W. Deem and Ramdas Pophale) SiO2 
 PCOD9500338
Probable space group: C M M A
;
_chemical_formula_sum "Si O2"
_cell_formula_units_Z 64
_cell_length_a 18.794338
_cell_length_b 8.668265
_cell_length_c 21.383990
_cell_angle_alpha 90.000000
_cell_angle_beta 90.000000
_cell_angle_gamma 90.000000
_cell_volume 3483.757811
_symmetry_space_group_name_H-M "C M M A"
_symmetry_group_IT_number 67
_symmetry_cell_setting 'orthorhombic'
loop_
_space_group_symop_operation_xyz
x,y,z
-x,1/2-y,z
x,-y,-z
-x,1/2+y,-z
-x,-y,-z
x,1/2+y,-z
-x,y,z
x,1/2-y,z
1/2+x,1/2+y,z
1/2-x,-y,z
1/2+x,1/2-y,-z
1/2-x,y,-z
1/2-x,1/2-y,-z
1/2+x,y,-z
1/2-x,1/2+y,z
1/2+x,-y,z
loop_
_atom_site_type_symbol
_atom_site_label
_atom_site_fract_x
_atom_site_fract_y
_atom_site_fract_z
Si Si1 0.670908 0.433569 0.433038
Si Si2 0.417135 0.435545 0.681641
Si Si3 0.329959 0.935240 0.193908
Si Si4 0.669072 0.934373 0.935923
O O1 0.646736 0.500000 0.500000
O O2 0.675093 0.250000 0.436863
O O3 0.750000 0.500000 0.421528
O O4 0.620330 0.485530 0.377108
O O5 0.500000 0.476481 0.685457
O O6 0.411653 0.250000 0.674066
O O7 0.376403 0.475489 0.745663
O O8 0.326253 0.750000 0.187688
O O9 0.250000 0.000000 0.202367
O O10 0.361241 0.005484 0.129731
O O11 0.670923 0.750000 0.937766
O O12 0.750000 0.000000 0.934945
O O13 0.636058 0.000000 0.000000
#
# Coordination Sequence:
#
# PCOD9500338 Si02
#       4
#    16  16  16  16
#     4  11  22  38  61  86 112 142 178 221 267 318
#     4  10  22  39  57  79 110 146 182 222 268 318
#     4  10  19  32  52  77 105 138 176 218 265 316
#     4  10  17  27  45  71 103 134 169 215 265 316
#
# _framework density 18.370968000000001
#
# number of rings (size 3 to 8) (size 9 to 14) (size 15 to 20)
#    0.000    1.750    0.000    9.000    0.000    5.000 
#    0.000    0.000    0.000    0.750    0.000    0.000 
#    0.000    0.000    0.000    0.000    0.000    0.000 
#
# Total GULP energy -178695.346782 kJ/mol
# GULP energy per Si atom -5584.229587 kJ/mol
# Density = 1.832915 g / cm^3
# Si number density = 18.370968 Si / 1000 Ang^3
#
#
#
# Elastic Constant Matrix: (Units=GPa)
#
#
# Indices 1 2 3 4 5 6 
#
# 1 66.7121 50.5778 90.5566 0.0000 0.0000 0.0000
# 2 50.5778 123.6558 98.3421 0.0000 0.0000 0.0000
# 3 90.5566 98.3421 213.4285 0.0000 0.0000 0.0000
# 4 0.0000 0.0000 0.0000 42.2496 0.0000 0.0000
# 5 0.0000 0.0000 0.0000 0.0000 1.2633 0.0000
# 6 0.0000 0.0000 0.0000 0.0000 0.0000 14.9585
#
#
#
# Elastic Compliance Matrix: (Units=1/GPa)
#
#
# Indices 1 2 3 4 5 6 
#
# 1 0.036644 -0.004140 -0.013640 0.000000 0.000000 0.000000
# 2 -0.004140 0.013232 -0.004340 0.000000 0.000000 0.000000
# 3 -0.013640 -0.004340 0.012473 0.000000 0.000000 0.000000
# 4 0.000000 0.000000 0.000000 0.023669 0.000000 0.000000
# 5 0.000000 0.000000 0.000000 0.000000 0.791600 0.000000
# 6 0.000000 0.000000 0.000000 0.000000 0.000000 0.066851
#
#
# Mechanical properties :
#
#
# Convention : Reuss Voigt Hill
#
# Bulk Modulus (GPa) = 55.22556 98.08324 76.65440
# Shear Modulus (GPa) = 5.02640 22.64893 13.83767
#
# Velocity S-wave (km/s) = 1.65590 3.51503 2.74749
# Velocity P-wave (km/s) = 5.81228 8.36541 7.20287
#
# Compressibility (1/GPa) = 0.01810756
#
# Stress axis : x y z
#
# Youngs Moduli (GPa) = 27.28931 75.57266 80.17439
#
# Poissons Ratio (x) = 0.31290 1.09360
# Poissons Ratio (y) = 0.11299 0.34798
# Poissons Ratio (z) = 0.37223 0.32801
#
# Static dielectric constant tensor:
#      x y z
#    x 1.599870 0.000000 0.000000 
#    y 0.000000 1.617640 0.000000 
#    z 0.000000 0.000000 1.663750 
# 
# From -- ./inp_files/36564.got.cif
#   From: 2010.05.17/outbox.cif.g08.bks.cpg/sg67_19_cif.got.tgz:36564.got - 2010.06.03 18:28:57.
