data_PCOD9500236
_publ_section_title
;
Structure prediction by ZEFSAII (Michael W. Deem and Ramdas Pophale) SiO2 
 PCOD9500236
Probable space group: C M M A
;
_chemical_formula_sum "Si O2"
_cell_formula_units_Z 96
_cell_length_a 8.089007
_cell_length_b 24.503131
_cell_length_c 26.399121
_cell_angle_alpha 90.000000
_cell_angle_beta 90.000000
_cell_angle_gamma 90.000000
_cell_volume 5232.464129
_symmetry_space_group_name_H-M "C M M A"
_symmetry_group_IT_number 67
_symmetry_cell_setting 'orthorhombic'
loop_
_space_group_symop_operation_xyz
x,y,z
-x,1/2-y,z
x,-y,-z
-x,1/2+y,-z
-x,-y,-z
x,1/2+y,-z
-x,y,z
x,1/2-y,z
1/2+x,1/2+y,z
1/2-x,-y,z
1/2+x,1/2-y,-z
1/2-x,y,-z
1/2-x,1/2-y,-z
1/2+x,y,-z
1/2-x,1/2+y,z
1/2+x,-y,z
loop_
_atom_site_type_symbol
_atom_site_label
_atom_site_fract_x
_atom_site_fract_y
_atom_site_fract_z
Si Si1 0.200554 0.370215 0.152372
Si Si2 0.697866 0.062715 0.252079
Si Si3 0.197536 0.750000 0.281313
Si Si4 0.700055 0.861390 0.658977
Si Si5 0.800421 0.686907 0.443484
Si Si6 0.807828 0.250000 0.168501
Si Si7 0.196967 0.062864 0.055493
O O1 0.247027 0.401406 0.203927
O O2 0.264527 0.308025 0.151639
O O3 0.260904 0.402934 0.103155
O O4 0.000000 0.368520 0.151225
O O5 0.500000 0.064754 0.253112
O O6 0.761485 0.090575 0.304256
O O7 0.750000 0.000000 0.246967
O O8 0.234047 0.695712 0.312753
O O9 0.294275 0.750000 0.229126
O O10 0.000000 0.750000 0.270401
O O11 0.500000 0.867017 0.656378
O O12 0.760132 0.852389 0.601563
O O13 0.744096 0.750000 0.435406
O O14 0.750000 0.670566 0.500000
O O15 0.000000 0.688102 0.441047
O O16 0.000000 0.250000 0.152949
O O17 0.000000 0.064321 0.057078
O O18 0.250000 0.000000 0.060247
O O19 0.250000 0.082962 0.000000
#
# Coordination Sequence:
#
# PCOD9500236 Si02
#       7
#    16  16   8  16  16   8  16
#     4  10  21  36  54  78 108 139 168 205 255 306
#     4  11  22  35  53  76 102 134 172 213 255 302
#     4  10  16  30  51  74  98 132 175 205 244 303
#     4   9  17  30  51  73  99 133 167 205 249 302
#     4   9  16  28  46  70  99 128 160 200 247 297
#     4  10  20  34  51  76 110 140 165 203 254 301
#     4  10  20  35  55  77 101 132 172 214 256 298
#
# _framework density 18.346996000000001
#
# number of rings (size 3 to 8) (size 9 to 14) (size 15 to 20)
#    0.000    2.167    2.500    2.000    0.000    2.667 
#    0.000    2.917    0.000    0.500    0.000    3.500 
#    0.000    0.000    0.000    0.000    0.000    0.000 
#
# Total GULP energy -267698.843934 kJ/mol
# GULP energy per Si atom -5577.059249 kJ/mol
# Density = 1.830524 g / cm^3
# Si number density = 18.346996 Si / 1000 Ang^3
#
#
#
# Elastic Constant Matrix: (Units=GPa)
#
#
# Indices 1 2 3 4 5 6 
#
# 1 18.7841 10.9664 11.3340 0.0000 0.0000 0.0000
# 2 10.9664 125.0134 79.2299 0.0000 0.0000 0.0000
# 3 11.3340 79.2299 165.7086 0.0000 0.0000 0.0000
# 4 0.0000 0.0000 0.0000 9.4706 0.0000 0.0000
# 5 0.0000 0.0000 0.0000 0.0000 12.3463 0.0000
# 6 0.0000 0.0000 0.0000 0.0000 0.0000 6.2247
#
#
#
# Elastic Compliance Matrix: (Units=1/GPa)
#
#
# Indices 1 2 3 4 5 6 
#
# 1 0.056639 -0.003606 -0.002150 0.000000 0.000000 0.000000
# 2 -0.003606 0.011707 -0.005351 0.000000 0.000000 0.000000
# 3 -0.002150 -0.005351 0.008740 0.000000 0.000000 0.000000
# 4 0.000000 0.000000 0.000000 0.105590 0.000000 0.000000
# 5 0.000000 0.000000 0.000000 0.000000 0.080996 0.000000
# 6 0.000000 0.000000 0.000000 0.000000 0.000000 0.160650
#
#
# Mechanical properties :
#
#
# Convention : Reuss Voigt Hill
#
# Bulk Modulus (GPa) = 18.22399 56.95186 37.58793
# Shear Modulus (GPa) = 10.75673 19.47336 15.11505
#
# Velocity S-wave (km/s) = 2.42398 3.26144 2.87338
# Velocity P-wave (km/s) = 4.21767 6.72990 5.61606
#
# Compressibility (1/GPa) = 0.05487271
#
# Stress axis : x y z
#
# Youngs Moduli (GPa) = 17.65569 85.42259 114.41662
#
# Poissons Ratio (x) = 0.30803 0.24598
# Poissons Ratio (y) = 0.06367 0.61219
# Poissons Ratio (z) = 0.03796 0.45706
#
# Static dielectric constant tensor:
#      x y z
#    x 1.654480 0.000000 0.000000 
#    y 0.000000 1.635080 0.000000 
#    z 0.000000 0.000000 1.640510 
# 
# From -- ./inp_files/43685.got.cif
#   From: 2010.05.17/outbox.cif.g08.bks.cpg/sg67_22_cif.got.tgz:43685.got - 2010.06.03 18:28:57.
