data_PCOD9500865
_publ_section_title
;
Structure prediction by ZEFSAII (Michael W. Deem and Ramdas Pophale) SiO2 
 PCOD9500865
Probable space group: C M M A
;
_chemical_formula_sum "Si O2"
_cell_formula_units_Z 72
_cell_length_a 8.964340
_cell_length_b 19.088325
_cell_length_c 25.366191
_cell_angle_alpha 90.000000
_cell_angle_beta 90.000000
_cell_angle_gamma 90.000000
_cell_volume 4340.516376
_symmetry_space_group_name_H-M "C M M A"
_symmetry_group_IT_number 67
_symmetry_cell_setting 'orthorhombic'
loop_
_space_group_symop_operation_xyz
x,y,z
-x,1/2-y,z
x,-y,-z
-x,1/2+y,-z
-x,-y,-z
x,1/2+y,-z
-x,y,z
x,1/2-y,z
1/2+x,1/2+y,z
1/2-x,-y,z
1/2+x,1/2-y,-z
1/2-x,y,-z
1/2-x,1/2-y,-z
1/2+x,y,-z
1/2-x,1/2+y,z
1/2+x,-y,z
loop_
_atom_site_type_symbol
_atom_site_label
_atom_site_fract_x
_atom_site_fract_y
_atom_site_fract_z
Si Si1 0.179527 0.576538 0.235537
Si Si2 0.678839 0.250000 0.057590
Si Si3 0.671890 0.664674 0.446262
Si Si4 0.179171 0.331297 0.662879
Si Si5 0.174905 0.828595 0.852405
O O1 0.250000 0.500000 0.238919
O O2 0.220884 0.621391 0.287431
O O3 0.244648 0.616676 0.184887
O O4 0.000000 0.573046 0.232421
O O5 0.500000 0.250000 0.056109
O O6 0.741867 0.315533 0.091960
O O7 0.750000 0.250000 0.000000
O O8 0.500000 0.643635 0.445828
O O9 0.677918 0.750000 0.446947
O O10 0.750000 0.640376 0.500000
O O11 0.751522 0.643404 0.392173
O O12 0.224290 0.250000 0.671448
O O13 0.000000 0.332297 0.658017
O O14 0.183790 0.750000 0.827461
O O15 0.000000 0.844727 0.859947
#
# Coordination Sequence:
#
# PCOD9500865 Si02
#       5
#    16   8  16  16  16
#     4  11  22  35  52  74 105 143 179 219 266 315
#     4  10  18  32  56  86 116 144 177 216 259 302
#     4   9  16  26  43  68  96 125 158 202 255 309
#     4   9  18  32  50  72  98 130 169 212 260 314
#     4   9  19  34  54  81 109 139 177 219 259 305
#
# _framework density 16.587886999999998
#
# number of rings (size 3 to 8) (size 9 to 14) (size 15 to 20)
#    0.667    1.778    0.000    3.333    0.000    5.333 
#    0.000    2.222    0.000    1.333    0.000    9.333 
#    0.000    0.000    0.000    0.000    0.000    0.000 
#
# Total GULP energy -200539.744669 kJ/mol
# GULP energy per Si atom -5570.548463 kJ/mol
# Density = 1.655013 g / cm^3
# Si number density = 16.587887 Si / 1000 Ang^3
#
#
#
# Elastic Constant Matrix: (Units=GPa)
#
#
# Indices 1 2 3 4 5 6 
#
# 1 97.9199 47.4856 81.0953 0.0000 0.0000 0.0000
# 2 47.4856 69.0821 69.1140 0.0000 0.0000 0.0000
# 3 81.0953 69.1140 179.3385 0.0000 0.0000 0.0000
# 4 0.0000 0.0000 0.0000 -1.1728 0.0000 0.0000
# 5 0.0000 0.0000 0.0000 0.0000 32.4207 0.0000
# 6 0.0000 0.0000 0.0000 0.0000 0.0000 20.9634
#
#
#
# Elastic Compliance Matrix: (Units=1/GPa)
#
#
# Indices 1 2 3 4 5 6 
#
# 1 0.018168 -0.006948 -0.005538 0.000000 0.000000 0.000000
# 2 -0.006948 0.026216 -0.006961 0.000000 0.000000 0.000000
# 3 -0.005538 -0.006961 0.010763 0.000000 0.000000 0.000000
# 4 0.000000 0.000000 0.000000 -0.852626 0.000000 0.000000
# 5 0.000000 0.000000 0.000000 0.000000 0.030844 0.000000
# 6 0.000000 0.000000 0.000000 0.000000 0.000000 0.047702
#
#
# Mechanical properties :
#
#
# Convention : Reuss Voigt Hill
#
# Bulk Modulus (GPa) = 61.52807 82.41447 71.97127
# Shear Modulus (GPa) = -7.41158 20.35196 6.47019
#
# Velocity S-wave (km/s) = -2.11607 3.50654 1.97712
# Velocity P-wave (km/s) = 5.58590 8.13547 6.97811
#
# Compressibility (1/GPa) = 0.01625274
#
# Stress axis : x y z
#
# Youngs Moduli (GPa) = 55.04140 38.14452 92.91084
#
# Poissons Ratio (x) = 0.26503 0.51452
# Poissons Ratio (y) = 0.38243 0.64679
# Poissons Ratio (z) = 0.30481 0.26554
#
# Static dielectric constant tensor:
#      x y z
#    x 1.553470 0.000000 0.000000 
#    y 0.000000 1.547090 0.000000 
#    z 0.000000 0.000000 1.544600 
# 
# From -- ./inp_files/43190.got.cif
#   From: 2010.05.17/outbox.cif.g08.bks.cpg/sg67_22_cif.got.tgz:43190.got - 2010.06.03 18:28:57.
