data_PCOD9500329
_publ_section_title
;
Structure prediction by ZEFSAII (Michael W. Deem and Ramdas Pophale) SiO2 
 PCOD9500329
Probable space group: C M M A
;
_chemical_formula_sum "Si O2"
_cell_formula_units_Z 80
_cell_length_a 8.568328
_cell_length_b 18.690095
_cell_length_c 26.808616
_cell_angle_alpha 90.000000
_cell_angle_beta 90.000000
_cell_angle_gamma 90.000000
_cell_volume 4293.208554
_symmetry_space_group_name_H-M "C M M A"
_symmetry_group_IT_number 67
_symmetry_cell_setting 'orthorhombic'
loop_
_space_group_symop_operation_xyz
x,y,z
-x,1/2-y,z
x,-y,-z
-x,1/2+y,-z
-x,-y,-z
x,1/2+y,-z
-x,y,z
x,1/2-y,z
1/2+x,1/2+y,z
1/2-x,-y,z
1/2+x,1/2-y,-z
1/2-x,y,-z
1/2-x,1/2-y,-z
1/2+x,y,-z
1/2-x,1/2+y,z
1/2+x,-y,z
loop_
_atom_site_type_symbol
_atom_site_label
_atom_site_fract_x
_atom_site_fract_y
_atom_site_fract_z
Si Si1 0.186916 0.333392 0.054302
Si Si2 0.309792 0.667982 0.754121
Si Si3 0.686185 0.081754 0.551473
Si Si4 0.812259 0.081071 0.655937
Si Si5 0.687331 0.080256 0.148328
O O1 0.232449 0.250000 0.062012
O O2 0.254357 0.381000 0.098471
O O3 0.000000 0.337659 0.054240
O O4 0.250000 0.355224 0.000000
O O5 0.500000 0.668667 0.754515
O O6 0.256498 0.750000 0.755250
O O7 0.263341 0.627446 0.703612
O O8 0.259217 0.624921 0.803155
O O9 0.500000 0.080386 0.550565
O O10 0.750000 0.114780 0.500000
O O11 0.747503 0.112097 0.603798
O O12 0.750000 0.000000 0.552001
O O13 0.000000 0.078610 0.653226
O O14 0.750000 0.000000 0.661761
O O15 0.500000 0.078993 0.148222
O O16 0.750000 0.000000 0.150986
#
# Coordination Sequence:
#
# PCOD9500329 Si02
#       5
#    16  16  16  16  16
#     4  10  21  38  60  86 115 147 184 224 268 320
#     4   9  19  35  55  78 104 138 178 218 264 319
#     4  10  17  27  44  69 101 133 169 210 256 308
#     4  10  18  30  50  75 104 135 170 213 259 309
#     4  11  22  37  58  83 113 146 183 226 272 321
#
# _framework density 18.634081999999999
#
# number of rings (size 3 to 8) (size 9 to 14) (size 15 to 20)
#    0.000    2.000    0.000    6.600    0.000    2.400 
#    0.000    5.000    0.000    7.800    0.000    0.000 
#    0.000    0.000    0.000    0.000    0.000    0.000 
#
# Total GULP energy -223328.948608 kJ/mol
# GULP energy per Si atom -5583.223715 kJ/mol
# Density = 1.859167 g / cm^3
# Si number density = 18.634082 Si / 1000 Ang^3
#
#
#
# Elastic Constant Matrix: (Units=GPa)
#
#
# Indices 1 2 3 4 5 6 
#
# 1 82.0171 32.7750 55.6809 0.0000 0.0000 0.0000
# 2 32.7750 107.2484 107.7984 0.0000 0.0000 0.0000
# 3 55.6809 107.7984 228.6805 0.0000 0.0000 0.0000
# 4 0.0000 0.0000 0.0000 -5.2662 0.0000 0.0000
# 5 0.0000 0.0000 0.0000 0.0000 46.2454 0.0000
# 6 0.0000 0.0000 0.0000 0.0000 0.0000 8.9811
#
#
#
# Elastic Compliance Matrix: (Units=1/GPa)
#
#
# Indices 1 2 3 4 5 6 
#
# 1 0.014770 -0.001708 -0.002791 0.000000 0.000000 0.000000
# 2 -0.001708 0.017918 -0.008030 0.000000 0.000000 0.000000
# 3 -0.002791 -0.008030 0.008838 0.000000 0.000000 0.000000
# 4 0.000000 0.000000 0.000000 -0.189890 0.000000 0.000000
# 5 0.000000 0.000000 0.000000 0.000000 0.021624 0.000000
# 6 0.000000 0.000000 0.000000 0.000000 0.000000 0.111345
#
#
# Mechanical properties :
#
#
# Convention : Reuss Voigt Hill
#
# Bulk Modulus (GPa) = 60.73015 90.05052 75.39034
# Shear Modulus (GPa) = 329.96698 24.77151 177.36924
#
# Velocity S-wave (km/s) = 13.32147 3.65000 9.76688
# Velocity P-wave (km/s) = 16.40966 8.13597 12.95127
#
# Compressibility (1/GPa) = 0.01646629
#
# Stress axis : x y z
#
# Youngs Moduli (GPa) = 67.70449 55.81065 113.14869
#
# Poissons Ratio (x) = 0.09535 0.31580
# Poissons Ratio (y) = 0.11567 0.90862
# Poissons Ratio (z) = 0.18896 0.44818
#
# Static dielectric constant tensor:
#      x y z
#    x 1.629530 0.000000 0.000000 
#    y 0.000000 1.621440 0.000000 
#    z 0.000000 0.000000 1.658580 
# 
# From -- ./inp_files/43334.got.cif
#   From: 2010.05.17/outbox.cif.g08.bks.cpg/sg67_22_cif.got.tgz:43334.got - 2010.06.03 18:28:57.
