data_PCOD9500387
_publ_section_title
;
Structure prediction by ZEFSAII (Michael W. Deem and Ramdas Pophale) SiO2 
 PCOD9500387
Probable space group: C M M A
;
_chemical_formula_sum "Si O2"
_cell_formula_units_Z 80
_cell_length_a 18.439900
_cell_length_b 8.629512
_cell_length_c 26.750777
_cell_angle_alpha 90.000000
_cell_angle_beta 90.000000
_cell_angle_gamma 90.000000
_cell_volume 4256.779942
_symmetry_space_group_name_H-M "C M M A"
_symmetry_group_IT_number 67
_symmetry_cell_setting 'orthorhombic'
loop_
_space_group_symop_operation_xyz
x,y,z
-x,1/2-y,z
x,-y,-z
-x,1/2+y,-z
-x,-y,-z
x,1/2+y,-z
-x,y,z
x,1/2-y,z
1/2+x,1/2+y,z
1/2-x,-y,z
1/2+x,1/2-y,-z
1/2-x,y,-z
1/2-x,1/2-y,-z
1/2+x,y,-z
1/2-x,1/2+y,z
1/2+x,-y,z
loop_
_atom_site_type_symbol
_atom_site_label
_atom_site_fract_x
_atom_site_fract_y
_atom_site_fract_z
Si Si1 0.084018 0.436605 0.946596
Si Si2 0.085693 0.565097 0.751009
Si Si3 0.667374 0.064854 0.551371
Si Si4 0.668181 0.934806 0.655453
Si Si5 0.831174 0.063374 0.847204
O O1 0.084909 0.250000 0.948476
O O2 0.131578 0.485843 0.899371
O O3 0.000000 0.486286 0.939800
O O4 0.109626 0.500000 0.000000
O O5 0.096946 0.750000 0.748056
O O6 0.121812 0.486524 0.702856
O O7 0.123133 0.500643 0.800798
O O8 0.000000 0.533950 0.752404
O O9 0.668927 0.250000 0.550213
O O10 0.633778 0.000000 0.500000
O O11 0.750000 0.000000 0.551998
O O12 0.636427 0.004357 0.603793
O O13 0.671945 0.750000 0.651385
O O14 0.750000 0.000000 0.661698
O O15 0.830650 0.250000 0.845175
O O16 0.750000 0.000000 0.844322
#
# Coordination Sequence:
#
# PCOD9500387 Si02
#       5
#    16  16  16  16  16
#     4   9  19  36  58  83 112 148 188 229 274 326
#     4  11  24  41  60  82 109 143 184 229 279 336
#     4  10  17  28  47  75 110 145 184 227 275 327
#     4  11  21  35  56  82 113 147 185 229 278 329
#     4  11  23  39  59  84 115 148 186 231 279 330
#
# _framework density 18.793548000000001
#
# number of rings (size 3 to 8) (size 9 to 14) (size 15 to 20)
#    0.000    1.600    0.000    7.800    0.000    4.400 
#    0.000    4.000    0.000    0.600    0.000    0.000 
#    0.000    0.000    0.000    0.000    0.000    0.000 
#
# Total GULP energy -223485.791567 kJ/mol
# GULP energy per Si atom -5587.144789 kJ/mol
# Density = 1.875077 g / cm^3
# Si number density = 18.793548 Si / 1000 Ang^3
#
#
#
# Elastic Constant Matrix: (Units=GPa)
#
#
# Indices 1 2 3 4 5 6 
#
# 1 71.4942 56.1885 73.8854 0.0000 0.0000 0.0000
# 2 56.1885 130.5955 82.1117 0.0000 0.0000 0.0000
# 3 73.8854 82.1117 210.5301 0.0000 0.0000 0.0000
# 4 0.0000 0.0000 0.0000 39.2533 0.0000 0.0000
# 5 0.0000 0.0000 0.0000 0.0000 56.3269 0.0000
# 6 0.0000 0.0000 0.0000 0.0000 0.0000 38.9069
#
#
#
# Elastic Compliance Matrix: (Units=1/GPa)
#
#
# Indices 1 2 3 4 5 6 
#
# 1 0.026341 -0.007315 -0.006392 0.000000 0.000000 0.000000
# 2 -0.007315 0.012176 -0.002182 0.000000 0.000000 0.000000
# 3 -0.006392 -0.002182 0.007844 0.000000 0.000000 0.000000
# 4 0.000000 0.000000 0.000000 0.025476 0.000000 0.000000
# 5 0.000000 0.000000 0.000000 0.000000 0.017754 0.000000
# 6 0.000000 0.000000 0.000000 0.000000 0.000000 0.025702
#
#
# Mechanical properties :
#
#
# Convention : Reuss Voigt Hill
#
# Bulk Modulus (GPa) = 68.56254 92.99899 80.78077
# Shear Modulus (GPa) = 32.90975 40.25969 36.58472
#
# Velocity S-wave (km/s) = 4.18918 4.63342 4.41689
# Velocity P-wave (km/s) = 7.74339 8.84402 8.31194
#
# Compressibility (1/GPa) = 0.01458522
#
# Stress axis : x y z
#
# Youngs Moduli (GPa) = 37.96353 82.12733 127.48524
#
# Poissons Ratio (x) = 0.60072 0.81483
# Poissons Ratio (y) = 0.27769 0.27817
# Poissons Ratio (z) = 0.24265 0.17920
#
# Static dielectric constant tensor:
#      x y z
#    x 1.629120 0.000000 0.000000 
#    y 0.000000 1.629840 0.000000 
#    z 0.000000 0.000000 1.664300 
# 
# From -- ./inp_files/44417.got.cif
#   From: 2010.05.17/outbox.cif.g08.bks.cpg/sg67_23_cif.got.tgz:44417.got - 2010.06.03 18:28:57.
