data_PCOD9500751
_publ_section_title
;
Structure prediction by ZEFSAII (Michael W. Deem and Ramdas Pophale) SiO2 
 PCOD9500751
Probable space group: C M M A
;
_chemical_formula_sum "Si O2"
_cell_formula_units_Z 96
_cell_length_a 22.763496
_cell_length_b 21.131736
_cell_length_c 8.958772
_cell_angle_alpha 90.000000
_cell_angle_beta 90.000000
_cell_angle_gamma 90.000000
_cell_volume 4309.457696
_symmetry_space_group_name_H-M "C M M A"
_symmetry_group_IT_number 67
_symmetry_cell_setting 'orthorhombic'
loop_
_space_group_symop_operation_xyz
x,y,z
-x,1/2-y,z
x,-y,-z
-x,1/2+y,-z
-x,-y,-z
x,1/2+y,-z
-x,y,z
x,1/2-y,z
1/2+x,1/2+y,z
1/2-x,-y,z
1/2+x,1/2-y,-z
1/2-x,y,-z
1/2-x,1/2-y,-z
1/2+x,y,-z
1/2-x,1/2+y,z
1/2+x,-y,z
loop_
_atom_site_type_symbol
_atom_site_label
_atom_site_fract_x
_atom_site_fract_y
_atom_site_fract_z
Si Si1 0.590814 0.934142 0.931855
Si Si2 0.840131 0.520630 0.348205
Si Si3 0.278192 0.848585 0.656284
Si Si4 0.933839 0.173932 0.394735
Si Si5 0.168826 0.392278 0.203888
Si Si6 0.910679 0.178244 0.739152
O O1 0.615169 0.958159 0.775696
O O2 0.565872 0.867384 0.870747
O O3 0.642301 0.911520 0.044539
O O4 0.564505 0.000000 0.000000
O O5 0.870373 0.500000 0.500000
O O6 0.799069 0.579848 0.380527
O O7 0.811994 0.458357 0.278460
O O8 0.250000 0.823516 0.500000
O O9 0.226190 0.849055 0.778127
O O10 0.338920 0.821101 0.721736
O O11 0.924933 0.250000 0.382487
O O12 0.884133 0.138058 0.300677
O O13 0.929757 0.158557 0.571240
O O14 0.000000 0.158777 0.341983
O O15 0.929837 0.250000 0.764396
#
# Coordination Sequence:
#
# PCOD9500751 Si02
#       6
#    16  16  16  16  16  16
#     4   9  21  37  57  87 124 165 201 249 312 372
#     4  10  18  31  54  82 117 157 202 243 288 361
#     4  11  19  31  56  90 119 157 199 246 303 362
#     4  10  22  41  64  88 115 155 208 260 312 375
#     4  11  20  34  57  86 121 154 197 252 308 367
#     4  10  21  38  59  86 121 158 204 254 304 373
#
# _framework density 22.276584
#
# number of rings (size 3 to 8) (size 9 to 14) (size 15 to 20)
#    0.000    1.833    3.333    1.500    0.000    4.333 
#    0.000    8.333    0.000   31.500    0.000    0.000 
#    0.000    0.000    0.000    0.000    0.000    0.000 
#
# Total GULP energy -267335.125782 kJ/mol
# GULP energy per Si atom -5569.481787 kJ/mol
# Density = 2.222588 g / cm^3
# Si number density = 22.276584 Si / 1000 Ang^3
#
#
#
# Elastic Constant Matrix: (Units=GPa)
#
#
# Indices 1 2 3 4 5 6 
#
# 1 118.8445 30.0494 21.9485 0.0000 0.0000 0.0000
# 2 30.0494 105.7996 36.5803 0.0000 0.0000 0.0000
# 3 21.9485 36.5803 111.5334 0.0000 0.0000 0.0000
# 4 0.0000 0.0000 0.0000 22.9980 0.0000 0.0000
# 5 0.0000 0.0000 0.0000 0.0000 -5.5384 0.0000
# 6 0.0000 0.0000 0.0000 0.0000 0.0000 46.9723
#
#
#
# Elastic Compliance Matrix: (Units=1/GPa)
#
#
# Indices 1 2 3 4 5 6 
#
# 1 0.009178 -0.002236 -0.001073 0.000000 0.000000 0.000000
# 2 -0.002236 0.011205 -0.003235 0.000000 0.000000 0.000000
# 3 -0.001073 -0.003235 0.010238 0.000000 0.000000 0.000000
# 4 0.000000 0.000000 0.000000 0.043482 0.000000 0.000000
# 5 0.000000 0.000000 0.000000 0.000000 -0.180557 0.000000
# 6 0.000000 0.000000 0.000000 0.000000 0.000000 0.021289
#
#
# Mechanical properties :
#
#
# Convention : Reuss Voigt Hill
#
# Bulk Modulus (GPa) = 57.03251 57.03710 57.03481
# Shear Modulus (GPa) = -75.49153 29.39299 -23.04927
#
# Velocity S-wave (km/s) = -5.82768 3.63637 -3.22014
# Velocity P-wave (km/s) = 4.43000 6.57956 3.43989
#
# Compressibility (1/GPa) = 0.01753386
#
# Stress axis : x y z
#
# Youngs Moduli (GPa) = 108.95864 89.24277 97.67457
#
# Poissons Ratio (x) = 0.19953 0.10479
# Poissons Ratio (y) = 0.24361 0.31599
# Poissons Ratio (z) = 0.11689 0.28871
#
# Static dielectric constant tensor:
#      x y z
#    x 1.825450 0.000000 0.000000 
#    y 0.000000 1.929200 0.000000 
#    z 0.000000 0.000000 1.802930 
# 
# From -- ./inp_files/12624.got.cif
#   From: 2010.05.17/outbox.cif.g08.bks.cpg/sg67_7_cif.got.tgz:12624.got - 2010.06.03 18:28:57.
