data_PCOD9500571
_publ_section_title
;
Structure prediction by ZEFSAII (Michael W. Deem and Ramdas Pophale) SiO2 
 PCOD9500571
Probable space group: C M M A
;
_chemical_formula_sum "Si O2"
_cell_formula_units_Z 96
_cell_length_a 14.064163
_cell_length_b 20.328015
_cell_length_c 14.289022
_cell_angle_alpha 90.000000
_cell_angle_beta 90.000000
_cell_angle_gamma 90.000000
_cell_volume 4085.181613
_symmetry_space_group_name_H-M "C M M A"
_symmetry_group_IT_number 67
_symmetry_cell_setting 'orthorhombic'
loop_
_space_group_symop_operation_xyz
x,y,z
-x,1/2-y,z
x,-y,-z
-x,1/2+y,-z
-x,-y,-z
x,1/2+y,-z
-x,y,z
x,1/2-y,z
1/2+x,1/2+y,z
1/2-x,-y,z
1/2+x,1/2-y,-z
1/2-x,y,-z
1/2-x,1/2-y,-z
1/2+x,y,-z
1/2-x,1/2+y,z
1/2+x,-y,z
loop_
_atom_site_type_symbol
_atom_site_label
_atom_site_fract_x
_atom_site_fract_y
_atom_site_fract_z
Si Si1 0.391684 0.039417 0.131425
Si Si2 0.884118 0.895950 0.867377
Si Si3 0.139521 0.404803 0.482867
Si Si4 0.638365 0.479719 0.347425
Si Si5 0.384356 0.176683 0.052996
Si Si6 0.113710 0.677913 0.687125
O O1 0.500000 0.042019 0.093879
O O2 0.395651 0.030672 0.243260
O O3 0.349568 0.110995 0.107188
O O4 0.350042 0.968397 0.101618
O O5 0.850092 0.873903 0.764379
O O6 0.000000 0.901247 0.862789
O O7 0.863542 0.840986 0.944753
O O8 0.250000 0.418196 0.500000
O O9 0.108108 0.417099 0.588782
O O10 0.101486 0.459740 0.410796
O O11 0.130338 0.340124 0.421188
O O12 0.750000 0.500000 0.338288
O O13 0.500000 0.178859 0.063341
O O14 0.349613 0.250000 0.078013
O O15 0.152627 0.750000 0.708164
O O16 0.000000 0.679565 0.698930
#
# Coordination Sequence:
#
# PCOD9500571 Si02
#       6
#    16  16  16  16  16  16
#     4  10  18  29  50  80 103 128 173 218 248 295
#     4   9  16  28  47  73 103 134 169 210 251 292
#     4   9  18  33  51  71  96 131 173 210 251 305
#     4   9  18  33  52  73  96 130 168 211 257 301
#     4   9  17  29  46  72 108 142 167 199 249 304
#     4  10  19  30  47  75 108 136 167 212 260 298
#
# _framework density 23.499566000000002
#
# number of rings (size 3 to 8) (size 9 to 14) (size 15 to 20)
#    0.000    2.667    1.667    2.000    0.000    5.000 
#    0.000    2.500    0.000    5.000    0.000    1.167 
#    0.000    0.000    0.000    0.000    0.000    0.000 
#
# Total GULP energy -267553.564463 kJ/mol
# GULP energy per Si atom -5574.032593 kJ/mol
# Density = 2.344608 g / cm^3
# Si number density = 23.499566 Si / 1000 Ang^3
#
#
#
# Elastic Constant Matrix: (Units=GPa)
#
#
# Indices 1 2 3 4 5 6 
#
# 1 76.6922 11.9650 -0.3077 0.0000 0.0000 0.0000
# 2 11.9650 184.7569 45.8777 0.0000 0.0000 0.0000
# 3 -0.3077 45.8777 90.1697 0.0000 0.0000 0.0000
# 4 0.0000 0.0000 0.0000 28.5978 0.0000 0.0000
# 5 0.0000 0.0000 0.0000 0.0000 24.0330 0.0000
# 6 0.0000 0.0000 0.0000 0.0000 0.0000 15.6724
#
#
#
# Elastic Compliance Matrix: (Units=1/GPa)
#
#
# Indices 1 2 3 4 5 6 
#
# 1 0.013196 -0.000991 0.000549 0.000000 0.000000 0.000000
# 2 -0.000991 0.006270 -0.003193 0.000000 0.000000 0.000000
# 3 0.000549 -0.003193 0.012717 0.000000 0.000000 0.000000
# 4 0.000000 0.000000 0.000000 0.034968 0.000000 0.000000
# 5 0.000000 0.000000 0.000000 0.000000 0.041609 0.000000
# 6 0.000000 0.000000 0.000000 0.000000 0.000000 0.063806
#
#
# Mechanical properties :
#
#
# Convention : Reuss Voigt Hill
#
# Bulk Modulus (GPa) = 40.14087 51.85431 45.99759
# Shear Modulus (GPa) = 26.57591 33.26623 29.92107
#
# Velocity S-wave (km/s) = 3.36655 3.76654 3.57215
# Velocity P-wave (km/s) = 5.67716 6.40545 6.05227
#
# Compressibility (1/GPa) = 0.02491226
#
# Stress axis : x y z
#
# Youngs Moduli (GPa) = 75.78092 159.49882 78.63602
#
# Poissons Ratio (x) = 0.15806 -0.04319
# Poissons Ratio (y) = 0.07510 0.25111
# Poissons Ratio (z) = -0.04162 0.50933
#
# Static dielectric constant tensor:
#      x y z
#    x 1.962340 0.000000 0.000000 
#    y 0.000000 1.939850 0.000000 
#    z 0.000000 0.000000 1.885550 
# 
# From -- ./inp_files/29557.got.cif
#   From: 2010.05.17/outbox.cif.g08.bks.cpg/sg67_15_cif.got.tgz:29557.got - 2010.06.03 18:28:57.
