data_PCOD9500710
_publ_section_title
;
Structure prediction by ZEFSAII (Michael W. Deem and Ramdas Pophale) SiO2 
 PCOD9500710
Probable space group: C M M A
;
_chemical_formula_sum "Si O2"
_cell_formula_units_Z 72
_cell_length_a 9.739201
_cell_length_b 15.296351
_cell_length_c 23.638511
_cell_angle_alpha 90.000000
_cell_angle_beta 90.000000
_cell_angle_gamma 90.000000
_cell_volume 3521.529139
_symmetry_space_group_name_H-M "C M M A"
_symmetry_group_IT_number 67
_symmetry_cell_setting 'orthorhombic'
loop_
_space_group_symop_operation_xyz
x,y,z
-x,1/2-y,z
x,-y,-z
-x,1/2+y,-z
-x,-y,-z
x,1/2+y,-z
-x,y,z
x,1/2-y,z
1/2+x,1/2+y,z
1/2-x,-y,z
1/2+x,1/2-y,-z
1/2-x,y,-z
1/2-x,1/2-y,-z
1/2+x,y,-z
1/2-x,1/2+y,z
1/2+x,-y,z
loop_
_atom_site_type_symbol
_atom_site_label
_atom_site_fract_x
_atom_site_fract_y
_atom_site_fract_z
Si Si1 0.845238 0.851438 0.258971
Si Si2 0.000000 0.606418 0.937067
Si Si3 0.746250 0.605513 0.141114
Si Si4 0.000000 0.607588 0.066502
Si Si5 0.832265 0.586667 0.383804
Si Si6 0.327312 0.750000 0.439348
O O1 0.842292 0.750000 0.276114
O O2 0.747055 0.864506 0.205752
O O3 0.822189 0.905779 0.315610
O O4 0.000000 0.872156 0.238139
O O5 0.874739 0.634377 0.898949
O O6 0.000000 0.499298 0.937834
O O7 0.000000 0.637157 0.001612
O O8 0.750000 0.500000 0.143687
O O9 0.874549 0.635582 0.104712
O O10 0.750000 0.500000 0.402537
O O11 0.741100 0.666119 0.408483
O O12 0.000000 0.589508 0.397090
O O13 0.500000 0.750000 0.440861
O O14 0.250000 0.750000 0.500000
#
# Coordination Sequence:
#
# PCOD9500710 Si02
#       6
#    16   8  16   8  16   8
#     4  10  20  37  60  84 121 168 213 264 335 409
#     4   9  18  28  47  75 107 141 189 260 325 381
#     4  10  18  31  50  79 107 144 199 258 321 395
#     4   9  16  30  49  71 105 147 193 248 319 403
#     4  11  23  44  71 105 144 189 240 294 348 408
#     4  12  26  48  76 112 152 196 237 282 337 397
#
# _framework density 20.445663
#
# number of rings (size 3 to 8) (size 9 to 14) (size 15 to 20)
#    0.000    1.778    2.222    3.000    0.000    3.111 
#    4.000    2.778    0.000    4.000    0.000    0.000 
#    0.000    0.000    0.000    0.000    0.000    0.000 
#
# Total GULP energy -200566.532263 kJ/mol
# GULP energy per Si atom -5571.292563 kJ/mol
# Density = 2.039913 g / cm^3
# Si number density = 20.445663 Si / 1000 Ang^3
#
#
#
# Elastic Constant Matrix: (Units=GPa)
#
#
# Indices 1 2 3 4 5 6 
#
# 1 174.9983 41.8708 52.2120 0.0000 0.0000 0.0000
# 2 41.8708 99.1470 17.3310 0.0000 0.0000 0.0000
# 3 52.2120 17.3310 99.2747 0.0000 0.0000 0.0000
# 4 0.0000 0.0000 0.0000 19.8543 0.0000 0.0000
# 5 0.0000 0.0000 0.0000 0.0000 9.1749 0.0000
# 6 0.0000 0.0000 0.0000 0.0000 0.0000 19.6273
#
#
#
# Elastic Compliance Matrix: (Units=1/GPa)
#
#
# Indices 1 2 3 4 5 6 
#
# 1 0.007333 -0.002499 -0.003420 0.000000 0.000000 0.000000
# 2 -0.002499 0.011255 -0.000651 0.000000 0.000000 0.000000
# 3 -0.003420 -0.000651 0.011985 0.000000 0.000000 0.000000
# 4 0.000000 0.000000 0.000000 0.050367 0.000000 0.000000
# 5 0.000000 0.000000 0.000000 0.000000 0.108993 0.000000
# 6 0.000000 0.000000 0.000000 0.000000 0.000000 0.050949
#
#
# Mechanical properties :
#
#
# Convention : Reuss Voigt Hill
#
# Bulk Modulus (GPa) = 57.36001 66.24971 61.80486
# Shear Modulus (GPa) = 19.24312 27.19839 23.22075
#
# Velocity S-wave (km/s) = 3.07120 3.65125 3.37372
# Velocity P-wave (km/s) = 6.37904 7.08863 6.74317
#
# Compressibility (1/GPa) = 0.01743375
#
# Stress axis : x y z
#
# Youngs Moduli (GPa) = 136.37579 88.84910 83.43420
#
# Poissons Ratio (x) = 0.22202 0.28537
# Poissons Ratio (y) = 0.34078 0.05429
# Poissons Ratio (z) = 0.46644 0.05781
#
# Static dielectric constant tensor:
#      x y z
#    x 1.708180 0.000000 0.000000 
#    y 0.000000 1.779170 0.000000 
#    z 0.000000 0.000000 1.695590 
# 
# From -- ./inp_files/40548.got.cif
#   From: 2010.05.17/outbox.cif.g08.bks.cpg/sg67_21_cif.got.tgz:40548.got - 2010.06.03 18:28:57.
