data_PCOD9500688
_publ_section_title
;
Structure prediction by ZEFSAII (Michael W. Deem and Ramdas Pophale) SiO2 
 PCOD9500688
Probable space group: C M M A
;
_chemical_formula_sum "Si O2"
_cell_formula_units_Z 96
_cell_length_a 24.547848
_cell_length_b 14.900685
_cell_length_c 12.821652
_cell_angle_alpha 90.000000
_cell_angle_beta 90.000000
_cell_angle_gamma 90.000000
_cell_volume 4689.900669
_symmetry_space_group_name_H-M "C M M A"
_symmetry_group_IT_number 67
_symmetry_cell_setting 'orthorhombic'
loop_
_space_group_symop_operation_xyz
x,y,z
-x,1/2-y,z
x,-y,-z
-x,1/2+y,-z
-x,-y,-z
x,1/2+y,-z
-x,y,z
x,1/2-y,z
1/2+x,1/2+y,z
1/2-x,-y,z
1/2+x,1/2-y,-z
1/2-x,y,-z
1/2-x,1/2-y,-z
1/2+x,y,-z
1/2-x,1/2+y,z
1/2+x,-y,z
loop_
_atom_site_type_symbol
_atom_site_label
_atom_site_fract_x
_atom_site_fract_y
_atom_site_fract_z
Si Si1 0.693513 0.644874 0.663590
Si Si2 0.117187 0.604058 0.526763
Si Si3 0.382470 0.139950 0.147684
Si Si4 0.309179 0.640445 0.043069
Si Si5 0.312862 0.858688 0.280891
Si Si6 0.500000 0.641128 0.779458
Si Si7 0.500000 0.103810 0.465081
O O1 0.699133 0.750000 0.687873
O O2 0.662993 0.639139 0.553502
O O3 0.654461 0.608304 0.754806
O O4 0.754948 0.609185 0.671267
O O5 0.113446 0.500000 0.500000
O O6 0.138595 0.614231 0.643271
O O7 0.057215 0.643606 0.505727
O O8 0.382497 0.250000 0.149240
O O9 0.444463 0.111159 0.165276
O O10 0.354595 0.112054 0.039886
O O11 0.309240 0.750000 0.044666
O O12 0.317300 0.610249 0.161596
O O13 0.250000 0.613452 0.000000
O O14 0.312895 0.750000 0.280095
O O15 0.500000 0.750000 0.777470
O O16 0.500000 0.610396 0.659705
O O17 0.500000 0.000000 0.500000
#
# Coordination Sequence:
#
# PCOD9500688 Si02
#       7
#    16  16  16  16  16   8   8
#     4  10  18  31  53  80 107 134 172 217 257 312
#     4  11  23  37  52  74 103 143 179 221 270 316
#     4   9  16  27  48  79 105 130 168 214 259 297
#     4   9  15  28  50  77 108 138 169 206 254 315
#     4  10  20  33  53  82 112 141 172 210 260 320
#     4  10  18  30  53  82 107 132 176 230 263 297
#     4  10  22  38  53  72  96 142 185 220 260 316
#
# _framework density 20.469517
#
# number of rings (size 3 to 8) (size 9 to 14) (size 15 to 20)
#    0.000    2.167    3.333    1.000    0.000    3.333 
#    0.000    0.833    0.000    3.000    0.000    2.333 
#    0.000    0.000    0.000    0.000    0.000    0.000 
#
# Total GULP energy -268014.062480 kJ/mol
# GULP energy per Si atom -5583.626302 kJ/mol
# Density = 2.042293 g / cm^3
# Si number density = 20.469517 Si / 1000 Ang^3
#
#
#
# Elastic Constant Matrix: (Units=GPa)
#
#
# Indices 1 2 3 4 5 6 
#
# 1 175.4809 1.5833 106.0914 0.0000 0.0000 0.0000
# 2 1.5833 38.9105 2.4400 0.0000 0.0000 0.0000
# 3 106.0914 2.4400 179.3826 0.0000 0.0000 0.0000
# 4 0.0000 0.0000 0.0000 -7.8071 0.0000 0.0000
# 5 0.0000 0.0000 0.0000 0.0000 38.8070 0.0000
# 6 0.0000 0.0000 0.0000 0.0000 0.0000 12.0564
#
#
#
# Elastic Compliance Matrix: (Units=1/GPa)
#
#
# Indices 1 2 3 4 5 6 
#
# 1 0.008870 -0.000032 -0.005246 0.000000 0.000000 0.000000
# 2 -0.000032 0.025722 -0.000331 0.000000 0.000000 0.000000
# 3 -0.005246 -0.000331 0.008682 0.000000 0.000000 0.000000
# 4 0.000000 0.000000 0.000000 -0.128089 0.000000 0.000000
# 5 0.000000 0.000000 0.000000 0.000000 0.025769 0.000000
# 6 0.000000 0.000000 0.000000 0.000000 0.000000 0.082944
#
#
# Mechanical properties :
#
#
# Convention : Reuss Voigt Hill
#
# Bulk Modulus (GPa) = 31.19472 68.22261 49.70866
# Shear Modulus (GPa) = 109.17102 27.52189 68.34645
#
# Velocity S-wave (km/s) = 7.31090 3.67076 5.78462
# Velocity P-wave (km/s) = 9.30260 7.16709 8.30378
#
# Compressibility (1/GPa) = 0.03205671
#
# Stress axis : x y z
#
# Youngs Moduli (GPa) = 112.73525 38.87714 115.18588
#
# Poissons Ratio (x) = 0.00124 0.60423
# Poissons Ratio (y) = 0.00361 0.03812
# Poissons Ratio (z) = 0.59138 0.01287
#
# Static dielectric constant tensor:
#      x y z
#    x 1.749270 0.000000 0.000000 
#    y 0.000000 1.848480 0.000000 
#    z 0.000000 0.000000 1.657160 
# 
# From -- ./inp_files/19704.got.cif
#   From: 2010.05.17/outbox.cif.g08.bks.cpg/sg67_10_cif.got.tgz:19704.got - 2010.06.03 18:28:57.
