data_PCOD9500772
_publ_section_title
;
Structure prediction by ZEFSAII (Michael W. Deem and Ramdas Pophale) SiO2 
 PCOD9500772
Probable space group: C M M A
;
_chemical_formula_sum "Si O2"
_cell_formula_units_Z 112
_cell_length_a 18.114383
_cell_length_b 20.601552
_cell_length_c 18.243708
_cell_angle_alpha 90.000000
_cell_angle_beta 90.000000
_cell_angle_gamma 90.000000
_cell_volume 6808.267284
_symmetry_space_group_name_H-M "C M M A"
_symmetry_group_IT_number 67
_symmetry_cell_setting 'orthorhombic'
loop_
_space_group_symop_operation_xyz
x,y,z
-x,1/2-y,z
x,-y,-z
-x,1/2+y,-z
-x,-y,-z
x,1/2+y,-z
-x,y,z
x,1/2-y,z
1/2+x,1/2+y,z
1/2-x,-y,z
1/2+x,1/2-y,-z
1/2-x,y,-z
1/2-x,1/2-y,-z
1/2+x,y,-z
1/2-x,1/2+y,z
1/2+x,-y,z
loop_
_atom_site_type_symbol
_atom_site_label
_atom_site_fract_x
_atom_site_fract_y
_atom_site_fract_z
Si Si1 0.785847 0.932470 0.306344
Si Si2 0.417662 0.672543 0.339209
Si Si3 0.088414 0.565005 0.041184
Si Si4 0.912456 0.472083 0.798470
Si Si5 0.266889 0.326918 0.585613
Si Si6 0.343211 0.111630 0.800379
Si Si7 0.672164 0.825213 0.042303
O O1 0.864642 0.947852 0.270262
O O2 0.782787 0.875265 0.365848
O O3 0.731537 0.910226 0.240534
O O4 0.750000 0.000000 0.335153
O O5 0.500000 0.645809 0.353565
O O6 0.422235 0.750000 0.342891
O O7 0.351534 0.653889 0.394378
O O8 0.389574 0.652643 0.258771
O O9 0.109310 0.564693 0.126698
O O10 0.000000 0.562393 0.038596
O O11 0.116856 0.500000 0.000000
O O12 0.116698 0.627961 0.000121
O O13 0.890183 0.546600 0.814304
O O14 0.000000 0.466675 0.786630
O O15 0.257373 0.250000 0.604843
O O16 0.250000 0.333810 0.500000
O O17 0.325248 0.149626 0.874274
O O18 0.650058 0.750000 0.041215
O O19 0.750000 0.831120 0.000000
#
# Coordination Sequence:
#
# PCOD9500772 Si02
#       7
#    16  16  16  16  16  16  16
#     4   9  19  33  52  78 103 132 169 209 255 311
#     4   9  17  29  48  76 105 130 161 207 261 312
#     4  10  20  35  52  71  97 135 177 216 264 319
#     4  10  19  33  52  73  99 131 174 219 261 311
#     4   9  18  34  55  77 105 142 177 210 257 318
#     4  10  18  32  51  72  98 132 170 211 262 317
#     4  11  23  35  49  74 104 134 174 224 273 320
#
# _framework density 16.450586999999999
#
# number of rings (size 3 to 8) (size 9 to 14) (size 15 to 20)
#    0.000    2.286    1.429    1.714    0.000    2.000 
#    0.000    1.429    0.000    2.143    0.000    6.000 
#    0.000    0.000    0.000    0.000    0.000    0.000 
#
# Total GULP energy -312119.115220 kJ/mol
# GULP energy per Si atom -5573.555629 kJ/mol
# Density = 1.641314 g / cm^3
# Si number density = 16.450587 Si / 1000 Ang^3
#
#
#
# Elastic Constant Matrix: (Units=GPa)
#
#
# Indices 1 2 3 4 5 6 
#
# 1 59.9282 25.6842 39.5045 0.0000 0.0000 0.0000
# 2 25.6842 83.0697 51.3844 0.0000 0.0000 0.0000
# 3 39.5045 51.3844 100.0967 0.0000 0.0000 0.0000
# 4 0.0000 0.0000 0.0000 30.7585 0.0000 0.0000
# 5 0.0000 0.0000 0.0000 0.0000 12.8555 0.0000
# 6 0.0000 0.0000 0.0000 0.0000 0.0000 20.1550
#
#
#
# Elastic Compliance Matrix: (Units=1/GPa)
#
#
# Indices 1 2 3 4 5 6 
#
# 1 0.022820 -0.002175 -0.007889 0.000000 0.000000 0.000000
# 2 -0.002175 0.017847 -0.008303 0.000000 0.000000 0.000000
# 3 -0.007889 -0.008303 0.017366 0.000000 0.000000 0.000000
# 4 0.000000 0.000000 0.000000 0.032511 0.000000 0.000000
# 5 0.000000 0.000000 0.000000 0.000000 0.077788 0.000000
# 6 0.000000 0.000000 0.000000 0.000000 0.000000 0.049616
#
#
# Mechanical properties :
#
#
# Convention : Reuss Voigt Hill
#
# Bulk Modulus (GPa) = 46.95481 52.91566 49.93523
# Shear Modulus (GPa) = 19.09989 21.18856 20.14422
#
# Velocity S-wave (km/s) = 3.41111 3.59278 3.50312
# Velocity P-wave (km/s) = 6.64222 7.03186 6.83982
#
# Compressibility (1/GPa) = 0.02129707
#
# Stress axis : x y z
#
# Youngs Moduli (GPa) = 43.82193 56.03288 57.58292
#
# Poissons Ratio (x) = 0.12190 0.45429
# Poissons Ratio (y) = 0.09533 0.47811
# Poissons Ratio (z) = 0.34572 0.46524
#
# Static dielectric constant tensor:
#      x y z
#    x 1.600050 0.000000 0.000000 
#    y 0.000000 1.553540 0.000000 
#    z 0.000000 0.000000 1.538550 
# 
# From -- ./inp_files/34412.got.cif
#   From: 2010.05.17/outbox.cif.g08.bks.cpg/sg67_18_cif.got.tgz:34412.got - 2010.06.03 18:28:57.
