data_PCOD9500667
_publ_section_title
;
Structure prediction by ZEFSAII (Michael W. Deem and Ramdas Pophale) SiO2 
 PCOD9500667
Probable space group: C M M A
;
_chemical_formula_sum "Si O2"
_cell_formula_units_Z 96
_cell_length_a 7.863870
_cell_length_b 26.810875
_cell_length_c 24.095628
_cell_angle_alpha 90.000000
_cell_angle_beta 90.000000
_cell_angle_gamma 90.000000
_cell_volume 5080.255597
_symmetry_space_group_name_H-M "C M M A"
_symmetry_group_IT_number 67
_symmetry_cell_setting 'orthorhombic'
loop_
_space_group_symop_operation_xyz
x,y,z
-x,1/2-y,z
x,-y,-z
-x,1/2+y,-z
-x,-y,-z
x,1/2+y,-z
-x,y,z
x,1/2-y,z
1/2+x,1/2+y,z
1/2-x,-y,z
1/2+x,1/2-y,-z
1/2-x,y,-z
1/2-x,1/2-y,-z
1/2+x,y,-z
1/2-x,1/2+y,z
1/2+x,-y,z
loop_
_atom_site_type_symbol
_atom_site_label
_atom_site_fract_x
_atom_site_fract_y
_atom_site_fract_z
Si Si1 0.791852 0.750000 0.130581
Si Si2 0.203192 0.151294 0.676887
Si Si3 0.795276 0.055537 0.870036
Si Si4 0.295133 0.555521 0.742651
Si Si5 0.291540 0.250000 0.259046
Si Si6 0.795057 0.347898 0.935656
Si Si7 0.297696 0.193175 0.561953
O O1 0.740078 0.750000 0.194818
O O2 0.734756 0.700346 0.098561
O O3 0.000000 0.750000 0.130181
O O4 0.269164 0.100375 0.704213
O O5 0.267642 0.200355 0.709241
O O6 0.237009 0.158877 0.612022
O O7 0.000000 0.151008 0.684475
O O8 0.733283 0.061005 0.806363
O O9 0.731965 0.100696 0.908051
O O10 0.000000 0.058536 0.868546
O O11 0.750000 0.000000 0.889724
O O12 0.500000 0.558425 0.744429
O O13 0.250000 0.500000 0.723226
O O14 0.500000 0.250000 0.260193
O O15 0.000000 0.348131 0.931526
O O16 0.750000 0.344294 0.000000
O O17 0.500000 0.195737 0.565106
O O18 0.228693 0.250000 0.569472
O O19 0.250000 0.176726 0.500000
#
# Coordination Sequence:
#
# PCOD9500667 Si02
#       7
#     8  16  16  16   8  16  16
#     4   9  17  31  50  71  95 126 161 199 242 291
#     4  10  18  30  51  78 104 130 165 206 247 295
#     4   9  18  33  51  72  97 125 160 203 248 295
#     4   9  18  32  51  74 100 131 167 204 246 297
#     4   9  16  27  49  77 100 124 158 201 248 293
#     4  10  20  33  50  70  94 124 162 203 244 294
#     4  10  20  33  50  73 105 141 173 205 243 289
#
# _framework density 18.896687
#
# number of rings (size 3 to 8) (size 9 to 14) (size 15 to 20)
#    0.000    2.500    0.833    1.750    0.000    6.333 
#    0.000    1.667    0.000    4.500    0.000    3.500 
#    0.000    0.000    0.000    0.000    0.000    0.000 
#
# Total GULP energy -267868.264938 kJ/mol
# GULP energy per Si atom -5580.588853 kJ/mol
# Density = 1.885368 g / cm^3
# Si number density = 18.896687 Si / 1000 Ang^3
#
#
#
# Elastic Constant Matrix: (Units=GPa)
#
#
# Indices 1 2 3 4 5 6 
#
# 1 19.2140 9.1349 -2.0407 0.0000 0.0000 0.0000
# 2 9.1349 159.9927 98.6926 0.0000 0.0000 0.0000
# 3 -2.0407 98.6926 135.3048 0.0000 0.0000 0.0000
# 4 0.0000 0.0000 0.0000 11.1386 0.0000 0.0000
# 5 0.0000 0.0000 0.0000 0.0000 22.1594 0.0000
# 6 0.0000 0.0000 0.0000 0.0000 0.0000 18.6845
#
#
#
# Elastic Compliance Matrix: (Units=1/GPa)
#
#
# Indices 1 2 3 4 5 6 
#
# 1 0.055863 -0.006743 0.005761 0.000000 0.000000 0.000000
# 2 -0.006743 0.012177 -0.008984 0.000000 0.000000 0.000000
# 3 0.005761 -0.008984 0.014030 0.000000 0.000000 0.000000
# 4 0.000000 0.000000 0.000000 0.089778 0.000000 0.000000
# 5 0.000000 0.000000 0.000000 0.000000 0.045128 0.000000
# 6 0.000000 0.000000 0.000000 0.000000 0.000000 0.053520
#
#
# Mechanical properties :
#
#
# Convention : Reuss Voigt Hill
#
# Bulk Modulus (GPa) = 16.09295 58.45390 37.27343
# Shear Modulus (GPa) = 16.06986 24.31147 20.19066
#
# Velocity S-wave (km/s) = 2.91934 3.59074 3.27230
# Velocity P-wave (km/s) = 4.46073 6.94203 5.83480
#
# Compressibility (1/GPa) = 0.06213900
#
# Stress axis : x y z
#
# Youngs Moduli (GPa) = 17.90082 82.12237 71.27385
#
# Poissons Ratio (x) = 0.55379 -0.41063
# Poissons Ratio (y) = 0.12071 0.64030
# Poissons Ratio (z) = -0.10313 0.73776
#
# Static dielectric constant tensor:
#      x y z
#    x 1.696740 0.000000 0.000000 
#    y 0.000000 1.653860 0.000000 
#    z 0.000000 0.000000 1.633000 
# 
# From -- ./inp_files/40803.got.cif
#   From: 2010.05.17/outbox.cif.g08.bks.cpg/sg67_21_cif.got.tgz:40803.got - 2010.06.03 18:28:57.
