data_PCOD9500579
_publ_section_title
;
Structure prediction by ZEFSAII (Michael W. Deem and Ramdas Pophale) SiO2 
 PCOD9500579
Probable space group: C M M A
;
_chemical_formula_sum "Si O2"
_cell_formula_units_Z 80
_cell_length_a 8.461206
_cell_length_b 24.320643
_cell_length_c 21.073236
_cell_angle_alpha 90.000000
_cell_angle_beta 90.000000
_cell_angle_gamma 90.000000
_cell_volume 4336.492028
_symmetry_space_group_name_H-M "C M M A"
_symmetry_group_IT_number 67
_symmetry_cell_setting 'orthorhombic'
loop_
_space_group_symop_operation_xyz
x,y,z
-x,1/2-y,z
x,-y,-z
-x,1/2+y,-z
-x,-y,-z
x,1/2+y,-z
-x,y,z
x,1/2-y,z
1/2+x,1/2+y,z
1/2-x,-y,z
1/2+x,1/2-y,-z
1/2-x,y,-z
1/2-x,1/2-y,-z
1/2+x,y,-z
1/2-x,1/2+y,z
1/2+x,-y,z
loop_
_atom_site_type_symbol
_atom_site_label
_atom_site_fract_x
_atom_site_fract_y
_atom_site_fract_z
Si Si1 0.813508 0.863556 0.198061
Si Si2 0.308238 0.128603 0.566670
Si Si3 0.691233 0.813828 0.930309
Si Si4 0.316289 0.250000 0.592149
Si Si5 0.811970 0.438210 0.308927
Si Si6 0.681891 0.750000 0.726614
O O1 0.753363 0.853254 0.126590
O O2 0.735175 0.907702 0.244030
O O3 0.797278 0.804307 0.231867
O O4 0.000000 0.876490 0.194881
O O5 0.500000 0.129500 0.567380
O O6 0.250000 0.104397 0.500000
O O7 0.247172 0.191736 0.570411
O O8 0.253803 0.096184 0.629451
O O9 0.500000 0.813987 0.929230
O O10 0.740820 0.750000 0.919154
O O11 0.750000 0.829660 0.000000
O O12 0.500000 0.250000 0.573512
O O13 0.299492 0.250000 0.667967
O O14 0.750000 0.500000 0.310626
O O15 0.000000 0.439215 0.312900
O O16 0.500000 0.750000 0.702540
#
# Coordination Sequence:
#
# PCOD9500579 Si02
#       6
#    16  16  16   8  16   8
#     4  10  19  34  56  82 113 147 183 224 269 320
#     4  10  22  37  56  80 109 142 176 219 271 327
#     4   9  17  30  49  79 118 153 183 215 258 316
#     4  10  19  35  53  79 115 141 173 221 267 324
#     4  11  24  41  59  80 105 139 185 234 279 324
#     4  10  18  29  52  83 110 143 180 217 268 324
#
# _framework density 18.448091999999999
#
# number of rings (size 3 to 8) (size 9 to 14) (size 15 to 20)
#    0.000    2.000    3.000    0.900    0.000    3.600 
#    0.000    2.000    0.000    0.600    0.000    4.200 
#    0.000    0.000    0.000    0.000    0.000    0.000 
#
# Total GULP energy -223147.734842 kJ/mol
# GULP energy per Si atom -5578.693371 kJ/mol
# Density = 1.840610 g / cm^3
# Si number density = 18.448092 Si / 1000 Ang^3
#
#
#
# Elastic Constant Matrix: (Units=GPa)
#
#
# Indices 1 2 3 4 5 6 
#
# 1 11.6114 25.5335 24.6433 0.0000 0.0000 0.0000
# 2 25.5335 114.6269 67.9486 0.0000 0.0000 0.0000
# 3 24.6433 67.9486 165.9824 0.0000 0.0000 0.0000
# 4 0.0000 0.0000 0.0000 11.6332 0.0000 0.0000
# 5 0.0000 0.0000 0.0000 0.0000 29.7354 0.0000
# 6 0.0000 0.0000 0.0000 0.0000 0.0000 7.2642
#
#
#
# Elastic Compliance Matrix: (Units=1/GPa)
#
#
# Indices 1 2 3 4 5 6 
#
# 1 0.192135 -0.034184 -0.014532 0.000000 0.000000 0.000000
# 2 -0.034184 0.017601 -0.002130 0.000000 0.000000 0.000000
# 3 -0.014532 -0.002130 0.009054 0.000000 0.000000 0.000000
# 4 0.000000 0.000000 0.000000 0.085961 0.000000 0.000000
# 5 0.000000 0.000000 0.000000 0.000000 0.033630 0.000000
# 6 0.000000 0.000000 0.000000 0.000000 0.000000 0.137662
#
#
# Mechanical properties :
#
#
# Convention : Reuss Voigt Hill
#
# Bulk Modulus (GPa) = 8.53990 58.71905 33.62947
# Shear Modulus (GPa) = 8.10676 21.33290 14.71983
#
# Velocity S-wave (km/s) = 2.09855 3.40424 2.82779
# Velocity P-wave (km/s) = 3.24208 6.88115 5.37872
#
# Compressibility (1/GPa) = 0.11709741
#
# Stress axis : x y z
#
# Youngs Moduli (GPa) = 5.20468 56.81389 110.44421
#
# Poissons Ratio (x) = 1.94214 1.60499
# Poissons Ratio (y) = 0.17792 0.23527
# Poissons Ratio (z) = 0.07563 0.12102
#
# Static dielectric constant tensor:
#      x y z
#    x 1.643730 0.000000 0.000000 
#    y 0.000000 1.626480 0.000000 
#    z 0.000000 0.000000 1.648410 
# 
# From -- ./inp_files/32883.got.cif
#   From: 2010.05.17/outbox.cif.g08.bks.cpg/sg67_17_cif.got.tgz:32883.got - 2010.06.03 18:28:57.
