data_PCOD9500313
_publ_section_title
;
Structure prediction by ZEFSAII (Michael W. Deem and Ramdas Pophale) SiO2 
 PCOD9500313
Probable space group: C M M A
;
_chemical_formula_sum "Si O2"
_cell_formula_units_Z 96
_cell_length_a 19.374862
_cell_length_b 8.572396
_cell_length_c 32.681080
_cell_angle_alpha 90.000000
_cell_angle_beta 90.000000
_cell_angle_gamma 90.000000
_cell_volume 5427.967553
_symmetry_space_group_name_H-M "C M M A"
_symmetry_group_IT_number 67
_symmetry_cell_setting 'orthorhombic'
loop_
_space_group_symop_operation_xyz
x,y,z
-x,1/2-y,z
x,-y,-z
-x,1/2+y,-z
-x,-y,-z
x,1/2+y,-z
-x,y,z
x,1/2-y,z
1/2+x,1/2+y,z
1/2-x,-y,z
1/2+x,1/2-y,-z
1/2-x,y,-z
1/2-x,1/2-y,-z
1/2+x,y,-z
1/2-x,1/2+y,z
1/2+x,-y,z
loop_
_atom_site_type_symbol
_atom_site_label
_atom_site_fract_x
_atom_site_fract_y
_atom_site_fract_z
Si Si1 0.171141 0.563734 0.457742
Si Si2 0.672332 0.437566 0.043676
Si Si3 0.579087 0.437193 0.704093
Si Si4 0.328109 0.437954 0.628006
Si Si5 0.079715 0.559399 0.120099
Si Si6 0.916108 0.431071 0.790459
O O1 0.139333 0.500000 0.500000
O O2 0.172354 0.750000 0.458327
O O3 0.250000 0.500000 0.457387
O O4 0.141798 0.501535 0.414913
O O5 0.673667 0.250000 0.042380
O O6 0.750000 0.500000 0.048590
O O7 0.625957 0.488889 0.081937
O O8 0.646049 0.500000 0.000000
O O9 0.500000 0.495112 0.699798
O O10 0.577021 0.250000 0.702468
O O11 0.626728 0.490094 0.666752
O O12 0.605600 0.484747 0.748984
O O13 0.326323 0.250000 0.626182
O O14 0.250000 0.500000 0.632311
O O15 0.079802 0.750000 0.121465
O O16 0.105909 0.506990 0.164954
O O17 0.000000 0.511094 0.114777
O O18 0.896250 0.250000 0.787223
O O19 0.000000 0.437798 0.791785
#
# Coordination Sequence:
#
# PCOD9500313 Si02
#       6
#    16  16  16  16  16  16
#     4  10  17  27  44  66  92 120 153 190 229 274
#     4  10  19  32  49  67  92 124 155 187 224 272
#     4   9  18  32  49  69  94 124 155 188 229 274
#     4  10  19  31  47  68  95 123 152 189 231 272
#     4   8  15  29  49  71  92 116 149 190 232 269
#     4   8  14  27  48  70  90 116 152 189 224 268
#
# _framework density 17.686177000000001
#
# number of rings (size 3 to 8) (size 9 to 14) (size 15 to 20)
#    0.000    2.833    0.000    5.500    0.000    1.667 
#    0.000    2.500    0.000    8.000    0.000    0.000 
#    0.000    0.000    0.000    0.000    0.000    0.000 
#
# Total GULP energy -267352.955366 kJ/mol
# GULP energy per Si atom -5569.853237 kJ/mol
# Density = 1.764592 g / cm^3
# Si number density = 17.686177 Si / 1000 Ang^3
#
#
#
# Elastic Constant Matrix: (Units=GPa)
#
#
# Indices 1 2 3 4 5 6 
#
# 1 37.1125 14.0815 66.7273 0.0000 0.0000 0.0000
# 2 14.0815 53.2820 39.5424 0.0000 0.0000 0.0000
# 3 66.7273 39.5424 224.0265 0.0000 0.0000 0.0000
# 4 0.0000 0.0000 0.0000 29.1318 0.0000 0.0000
# 5 0.0000 0.0000 0.0000 0.0000 30.9309 0.0000
# 6 0.0000 0.0000 0.0000 0.0000 0.0000 11.0069
#
#
#
# Elastic Compliance Matrix: (Units=1/GPa)
#
#
# Indices 1 2 3 4 5 6 
#
# 1 0.058401 -0.002905 -0.016882 0.000000 0.000000 0.000000
# 2 -0.002905 0.021742 -0.002972 0.000000 0.000000 0.000000
# 3 -0.016882 -0.002972 0.010017 0.000000 0.000000 0.000000
# 4 0.000000 0.000000 0.000000 0.034327 0.000000 0.000000
# 5 0.000000 0.000000 0.000000 0.000000 0.032330 0.000000
# 6 0.000000 0.000000 0.000000 0.000000 0.000000 0.090852
#
#
# Mechanical properties :
#
#
# Convention : Reuss Voigt Hill
#
# Bulk Modulus (GPa) = 22.40143 61.68037 42.04090
# Shear Modulus (GPa) = 16.23015 27.15190 21.69103
#
# Velocity S-wave (km/s) = 3.03260 3.92242 3.50586
# Velocity P-wave (km/s) = 4.99558 7.44745 6.34114
#
# Compressibility (1/GPa) = 0.04464001
#
# Stress axis : x y z
#
# Youngs Moduli (GPa) = 17.12291 45.99459 99.83210
#
# Poissons Ratio (x) = 0.13364 1.68539
# Poissons Ratio (y) = 0.04975 0.29672
# Poissons Ratio (z) = 0.28907 0.13670
#
# Static dielectric constant tensor:
#      x y z
#    x 1.591160 0.000000 0.000000 
#    y 0.000000 1.604280 0.000000 
#    z 0.000000 0.000000 1.649030 
# 
# From -- ./inp_files/44786.got.cif
#   From: 2010.05.17/outbox.cif.g08.bks.cpg/sg67_23_cif.got.tgz:44786.got - 2010.06.03 18:28:57.
