data_PCOD9500986
_publ_section_title
;
Structure prediction by ZEFSAII (Michael W. Deem and Ramdas Pophale) SiO2 
 PCOD9500986
Probable space group: C M M A
;
_chemical_formula_sum "Si O2"
_cell_formula_units_Z 80
_cell_length_a 10.701898
_cell_length_b 32.709751
_cell_length_c 12.384532
_cell_angle_alpha 90.000000
_cell_angle_beta 90.000000
_cell_angle_gamma 90.000000
_cell_volume 4335.284921
_symmetry_space_group_name_H-M "C M M A"
_symmetry_group_IT_number 67
_symmetry_cell_setting 'orthorhombic'
loop_
_space_group_symop_operation_xyz
x,y,z
-x,1/2-y,z
x,-y,-z
-x,1/2+y,-z
-x,-y,-z
x,1/2+y,-z
-x,y,z
x,1/2-y,z
1/2+x,1/2+y,z
1/2-x,-y,z
1/2+x,1/2-y,-z
1/2-x,y,-z
1/2-x,1/2-y,-z
1/2+x,y,-z
1/2-x,1/2+y,z
1/2+x,-y,z
loop_
_atom_site_type_symbol
_atom_site_label
_atom_site_fract_x
_atom_site_fract_y
_atom_site_fract_z
Si Si1 0.000000 0.797133 0.723838
Si Si2 0.748627 0.405164 0.208634
Si Si3 0.500000 0.297752 0.983342
Si Si4 0.695353 0.351393 0.600482
Si Si5 0.500000 0.953787 0.276082
Si Si6 0.000000 0.449833 0.743080
Si Si7 0.750000 0.848499 0.000000
Si Si8 0.500000 0.084822 0.502001
O O1 0.114919 0.821603 0.673996
O O2 0.000000 0.750000 0.692170
O O3 0.000000 0.799331 0.852853
O O4 0.724550 0.376004 0.312244
O O5 0.875589 0.430588 0.233289
O O6 0.625830 0.432983 0.201378
O O7 0.768195 0.377429 0.103775
O O8 0.500000 0.250000 0.016236
O O9 0.373344 0.320817 0.018380
O O10 0.750000 0.326767 0.500000
O O11 0.615210 0.385725 0.535303
O O12 0.500000 0.949846 0.406179
O O13 0.500000 0.001326 0.249669
O O14 0.000000 0.434039 0.617424
#
# Coordination Sequence:
#
# PCOD9500986 Si02
#       8
#     8  16   8  16   8   8   8   8
#     4  10  21  37  59  89 124 165 201 243 310 372
#     4  11  23  39  60  88 114 163 202 244 302 367
#     4  11  23  41  67  96 122 156 207 264 309 349
#     4  10  18  36  60  84 120 158 201 240 295 376
#     4  10  23  39  57  83 124 161 198 243 309 375
#     4  12  21  37  58  93 119 145 202 269 303 337
#     4  12  23  44  65  88 122 164 206 252 301 374
#     4   9  19  32  56  85 115 155 195 246 300 357
#
# _framework density 18.453227999999999
#
# number of rings (size 3 to 8) (size 9 to 14) (size 15 to 20)
#    0.000    1.400    4.000    3.000    0.000    0.400 
#    0.000    5.000    0.000    1.200    0.000    0.000 
#    0.000    0.000    0.000    0.000    0.000    0.000 
#
# Total GULP energy -223001.593078 kJ/mol
# GULP energy per Si atom -5575.039827 kJ/mol
# Density = 1.841123 g / cm^3
# Si number density = 18.453228 Si / 1000 Ang^3
#
#
#
# Elastic Constant Matrix: (Units=GPa)
#
#
# Indices 1 2 3 4 5 6 
#
# 1 106.4384 40.7584 7.2386 0.0000 0.0000 0.0000
# 2 40.7584 110.8622 23.8026 0.0000 0.0000 0.0000
# 3 7.2386 23.8026 66.1782 0.0000 0.0000 0.0000
# 4 0.0000 0.0000 0.0000 24.6794 0.0000 0.0000
# 5 0.0000 0.0000 0.0000 0.0000 21.5107 0.0000
# 6 0.0000 0.0000 0.0000 0.0000 0.0000 15.4686
#
#
#
# Elastic Compliance Matrix: (Units=1/GPa)
#
#
# Indices 1 2 3 4 5 6 
#
# 1 0.010939 -0.004080 0.000271 0.000000 0.000000 0.000000
# 2 -0.004080 0.011297 -0.003617 0.000000 0.000000 0.000000
# 3 0.000271 -0.003617 0.016382 0.000000 0.000000 0.000000
# 4 0.000000 0.000000 0.000000 0.040520 0.000000 0.000000
# 5 0.000000 0.000000 0.000000 0.000000 0.046489 0.000000
# 6 0.000000 0.000000 0.000000 0.000000 0.000000 0.064647
#
#
# Mechanical properties :
#
#
# Convention : Reuss Voigt Hill
#
# Bulk Modulus (GPa) = 42.07689 47.45311 44.76500
# Shear Modulus (GPa) = 23.46901 26.44366 24.95633
#
# Velocity S-wave (km/s) = 3.57011 3.78962 3.68150
# Velocity P-wave (km/s) = 6.31235 6.70220 6.51019
#
# Compressibility (1/GPa) = 0.02376601
#
# Stress axis : x y z
#
# Youngs Moduli (GPa) = 91.41609 88.52113 61.04266
#
# Poissons Ratio (x) = 0.36116 -0.01654
# Poissons Ratio (y) = 0.37297 0.22078
# Poissons Ratio (z) = -0.02477 0.32017
#
# Static dielectric constant tensor:
#      x y z
#    x 1.684720 0.000000 0.000000 
#    y 0.000000 1.614550 0.000000 
#    z 0.000000 0.000000 1.644980 
# 
# From -- ./inp_files/16858.got.cif
#   From: 2010.05.17/outbox.cif.g08.bks.cpg/sg67_9_cif.got.tgz:16858.got - 2010.06.03 18:28:57.
