data_PCOD9500502
_publ_section_title
;
Structure prediction by ZEFSAII (Michael W. Deem and Ramdas Pophale) SiO2 
 PCOD9500502
Probable space group: C M M A
;
_chemical_formula_sum "Si O2"
_cell_formula_units_Z 96
_cell_length_a 26.780438
_cell_length_b 9.731278
_cell_length_c 22.453176
_cell_angle_alpha 90.000000
_cell_angle_beta 90.000000
_cell_angle_gamma 90.000000
_cell_volume 5851.474757
_symmetry_space_group_name_H-M "C M M A"
_symmetry_group_IT_number 67
_symmetry_cell_setting 'orthorhombic'
loop_
_space_group_symop_operation_xyz
x,y,z
-x,1/2-y,z
x,-y,-z
-x,1/2+y,-z
-x,-y,-z
x,1/2+y,-z
-x,y,z
x,1/2-y,z
1/2+x,1/2+y,z
1/2-x,-y,z
1/2+x,1/2-y,-z
1/2-x,y,-z
1/2-x,1/2-y,-z
1/2+x,y,-z
1/2-x,1/2+y,z
1/2+x,-y,z
loop_
_atom_site_type_symbol
_atom_site_label
_atom_site_fract_x
_atom_site_fract_y
_atom_site_fract_z
Si Si1 0.340088 0.582920 0.060397
Si Si2 0.555311 0.587434 0.122236
Si Si3 0.060461 0.250000 0.544127
Si Si4 0.295800 0.913791 0.829047
Si Si5 0.060253 0.463952 0.643964
Si Si6 0.060659 0.250000 0.408316
Si Si7 0.096208 0.903368 0.225102
O O1 0.330749 0.750000 0.057917
O O2 0.398550 0.562047 0.077820
O O3 0.309877 0.502476 0.111957
O O4 0.329519 0.500000 0.000000
O O5 0.500000 0.548422 0.100090
O O6 0.555476 0.750000 0.133774
O O7 0.567023 0.509902 0.183702
O O8 0.074423 0.377947 0.585400
O O9 0.079017 0.250000 0.476574
O O10 0.000000 0.250000 0.540027
O O11 0.285464 0.750000 0.840351
O O12 0.345123 0.919663 0.788292
O O13 0.250000 0.000000 0.802073
O O14 0.075040 0.617537 0.628540
O O15 0.083759 0.417393 0.705686
O O16 0.000000 0.452440 0.650224
O O17 0.000000 0.250000 0.411855
O O18 0.081875 0.750000 0.205153
#
# Coordination Sequence:
#
# PCOD9500502 Si02
#       7
#    16  16   8  16  16   8  16
#     4  10  20  35  54  77 103 131 164 199 238 287
#     4   9  19  33  49  70 100 136 169 204 240 276
#     4   9  16  28  44  62  95 137 172 203 237 275
#     4  10  21  38  57  76  98 123 154 200 255 303
#     4  10  18  28  44  68  99 135 170 202 236 278
#     4   9  18  28  40  64  97 137 174 203 235 273
#     4  10  20  33  49  71  98 127 164 205 246 295
#
# _framework density 16.406120999999999
#
# number of rings (size 3 to 8) (size 9 to 14) (size 15 to 20)
#    0.000    2.333    0.833    2.000    1.167    5.000 
#    0.000    1.667    0.000    0.000    0.000    0.000 
#    0.000    4.000    0.000    0.000    0.000    0.000 
#
# Total GULP energy -267361.692793 kJ/mol
# GULP energy per Si atom -5570.035267 kJ/mol
# Density = 1.636878 g / cm^3
# Si number density = 16.406121 Si / 1000 Ang^3
#
#
#
# Elastic Constant Matrix: (Units=GPa)
#
#
# Indices 1 2 3 4 5 6 
#
# 1 39.0712 25.0641 6.9920 0.0000 0.0000 0.0000
# 2 25.0641 86.7305 12.2010 0.0000 0.0000 0.0000
# 3 6.9920 12.2010 56.3776 0.0000 0.0000 0.0000
# 4 0.0000 0.0000 0.0000 -1.7931 0.0000 0.0000
# 5 0.0000 0.0000 0.0000 0.0000 6.9230 0.0000
# 6 0.0000 0.0000 0.0000 0.0000 0.0000 20.2184
#
#
#
# Elastic Compliance Matrix: (Units=1/GPa)
#
#
# Indices 1 2 3 4 5 6 
#
# 1 0.031637 -0.008861 -0.002006 0.000000 0.000000 0.000000
# 2 -0.008861 0.014374 -0.002012 0.000000 0.000000 0.000000
# 3 -0.002006 -0.002012 0.018422 0.000000 0.000000 0.000000
# 4 0.000000 0.000000 0.000000 -0.557693 0.000000 0.000000
# 5 0.000000 0.000000 0.000000 0.000000 0.144446 0.000000
# 6 0.000000 0.000000 0.000000 0.000000 0.000000 0.049460
#
#
# Mechanical properties :
#
#
# Convention : Reuss Voigt Hill
#
# Bulk Modulus (GPa) = 25.85605 30.07706 27.96656
# Shear Modulus (GPa) = -19.17870 14.26448 -2.45711
#
# Velocity S-wave (km/s) = -3.42277 2.95186 -1.22512
# Velocity P-wave (km/s) = 0.41684 5.47637 3.88358
#
# Compressibility (1/GPa) = 0.03867567
#
# Stress axis : x y z
#
# Youngs Moduli (GPa) = 31.60816 69.57209 54.28377
#
# Poissons Ratio (x) = 0.61645 0.10890
# Poissons Ratio (y) = 0.28007 0.10921
# Poissons Ratio (z) = 0.06341 0.13996
#
# Static dielectric constant tensor:
#      x y z
#    x 1.567060 0.000000 0.000000 
#    y 0.000000 1.510360 0.000000 
#    z 0.000000 0.000000 1.522280 
# 
# From -- ./inp_files/42715.got.cif
#   From: 2010.05.17/outbox.cif.g08.bks.cpg/sg67_22_cif.got.tgz:42715.got - 2010.06.03 18:28:57.
