data_PCOD9500504
_publ_section_title
;
Structure prediction by ZEFSAII (Michael W. Deem and Ramdas Pophale) SiO2 
 PCOD9500504
Probable space group: C M M A
;
_chemical_formula_sum "Si O2"
_cell_formula_units_Z 112
_cell_length_a 27.256962
_cell_length_b 13.658567
_cell_length_c 15.366641
_cell_angle_alpha 90.000000
_cell_angle_beta 90.000000
_cell_angle_gamma 90.000000
_cell_volume 5720.862785
_symmetry_space_group_name_H-M "C M M A"
_symmetry_group_IT_number 67
_symmetry_cell_setting 'orthorhombic'
loop_
_space_group_symop_operation_xyz
x,y,z
-x,1/2-y,z
x,-y,-z
-x,1/2+y,-z
-x,-y,-z
x,1/2+y,-z
-x,y,z
x,1/2-y,z
1/2+x,1/2+y,z
1/2-x,-y,z
1/2+x,1/2-y,-z
1/2-x,y,-z
1/2-x,1/2-y,-z
1/2+x,y,-z
1/2-x,1/2+y,z
1/2+x,-y,z
loop_
_atom_site_type_symbol
_atom_site_label
_atom_site_fract_x
_atom_site_fract_y
_atom_site_fract_z
Si Si1 0.119652 0.632035 0.955709
Si Si2 0.199304 0.864129 0.246362
Si Si3 0.444377 0.439387 0.792186
Si Si4 0.725504 0.635993 0.408966
Si Si5 0.649171 0.554790 0.293770
Si Si6 0.787783 0.865258 0.863822
Si Si7 0.444888 0.363095 0.118077
O O1 0.121584 0.750000 0.954213
O O2 0.082743 0.601249 0.878505
O O3 0.175200 0.596104 0.937393
O O4 0.095706 0.606170 0.047649
O O5 0.185164 0.750000 0.236257
O O6 0.234425 0.872065 0.331454
O O7 0.233248 0.897331 0.164542
O O8 0.157584 0.943453 0.261818
O O9 0.500000 0.403647 0.784523
O O10 0.407405 0.417574 0.713522
O O11 0.445687 0.556575 0.807012
O O12 0.710960 0.750000 0.413437
O O13 0.750000 0.609839 0.500000
O O14 0.678189 0.573713 0.382230
O O15 0.679076 0.619516 0.222821
O O16 0.781176 0.750000 0.880092
O O17 0.500000 0.367203 0.077284
O O18 0.436751 0.250000 0.144028
#
# Coordination Sequence:
#
# PCOD9500504 Si02
#       7
#    16  16  16  16  16  16  16
#     4   9  16  26  43  66  90 119 155 199 254 305
#     4   9  17  28  43  66  94 123 155 189 230 284
#     4  10  20  31  43  63  92 125 163 206 245 283
#     4   9  17  30  50  77 103 119 137 174 223 277
#     4  10  18  28  45  66  92 127 159 188 231 282
#     4   8  14  25  41  63  91 118 147 189 242 297
#     4   9  17  29  44  61  84 119 166 216 257 288
#
# _framework density 19.577466999999999
#
# number of rings (size 3 to 8) (size 9 to 14) (size 15 to 20)
#    0.000    2.857    0.000    3.857    0.000    4.286 
#    0.000    0.000    0.000    0.857    0.000   12.000 
#    0.000    3.429    0.000    1.429    0.000    0.000 
#
# Total GULP energy -312060.863402 kJ/mol
# GULP energy per Si atom -5572.515418 kJ/mol
# Density = 1.953291 g / cm^3
# Si number density = 19.577467 Si / 1000 Ang^3
#
#
#
# Elastic Constant Matrix: (Units=GPa)
#
#
# Indices 1 2 3 4 5 6 
#
# 1 83.2084 11.6594 25.2648 0.0000 0.0000 0.0000
# 2 11.6594 48.5804 6.0114 0.0000 0.0000 0.0000
# 3 25.2648 6.0114 33.0493 0.0000 0.0000 0.0000
# 4 0.0000 0.0000 0.0000 14.7481 0.0000 0.0000
# 5 0.0000 0.0000 0.0000 0.0000 24.8820 0.0000
# 6 0.0000 0.0000 0.0000 0.0000 0.0000 14.7098
#
#
#
# Elastic Compliance Matrix: (Units=1/GPa)
#
#
# Indices 1 2 3 4 5 6 
#
# 1 0.015912 -0.002367 -0.011734 0.000000 0.000000 0.000000
# 2 -0.002367 0.021411 -0.002085 0.000000 0.000000 0.000000
# 3 -0.011734 -0.002085 0.039607 0.000000 0.000000 0.000000
# 4 0.000000 0.000000 0.000000 0.067805 0.000000 0.000000
# 5 0.000000 0.000000 0.000000 0.000000 0.040190 0.000000
# 6 0.000000 0.000000 0.000000 0.000000 0.000000 0.067982
#
#
# Mechanical properties :
#
#
# Convention : Reuss Voigt Hill
#
# Bulk Modulus (GPa) = 22.44245 27.85661 25.14953
# Shear Modulus (GPa) = 16.65938 18.99482 17.82710
#
# Velocity S-wave (km/s) = 2.92026 3.11824 3.02088
# Velocity P-wave (km/s) = 4.78110 5.21770 5.00416
#
# Compressibility (1/GPa) = 0.04455842
#
# Stress axis : x y z
#
# Youngs Moduli (GPa) = 62.84372 46.70599 25.24801
#
# Poissons Ratio (x) = 0.11056 0.29626
# Poissons Ratio (y) = 0.14876 0.05264
# Poissons Ratio (z) = 0.73740 0.09738
#
# Static dielectric constant tensor:
#      x y z
#    x 1.723210 0.000000 0.000000 
#    y 0.000000 1.744540 0.000000 
#    z 0.000000 0.000000 1.688800 
# 
# From -- ./inp_files/31181.got.cif
#   From: 2010.05.17/outbox.cif.g08.bks.cpg/sg67_16_cif.got.tgz:31181.got - 2010.06.03 18:28:57.
