data_PCOD9500042
_publ_section_title
;
Structure prediction by ZEFSAII (Michael W. Deem and Ramdas Pophale) SiO2 
 PCOD9500042
Probable space group: C C C M
;
_chemical_formula_sum "Si O2"
_cell_formula_units_Z 80
_cell_length_a 32.449573
_cell_length_b 13.581442
_cell_length_c 7.771149
_cell_angle_alpha 90.000000
_cell_angle_beta 90.000000
_cell_angle_gamma 90.000000
_cell_volume 3424.838569
_symmetry_space_group_name_H-M "C C C M"
_symmetry_group_IT_number 66
_symmetry_cell_setting 'orthorhombic'
loop_
_space_group_symop_operation_xyz
x,y,z
-x,-y,z
x,-y,1/2-z
-x,y,1/2-z
-x,-y,-z
x,y,-z
-x,y,1/2+z
x,-y,1/2+z
1/2+x,1/2+y,z
1/2-x,1/2-y,z
1/2+x,1/2-y,1/2-z
1/2-x,1/2+y,1/2-z
1/2-x,1/2-y,-z
1/2+x,1/2+y,-z
1/2-x,1/2+y,1/2+z
1/2+x,1/2-y,1/2+z
loop_
_atom_site_type_symbol
_atom_site_label
_atom_site_fract_x
_atom_site_fract_y
_atom_site_fract_z
Si Si1 0.544586 0.675426 0.293543
Si Si2 0.789562 0.367437 0.500000
Si Si3 0.848262 0.368445 0.804482
Si Si4 0.135718 0.133858 0.303492
Si Si5 0.696334 0.627891 0.000000
Si Si6 0.939175 0.394617 0.206640
O O1 0.500000 0.630812 0.250000
O O2 0.547730 0.678097 0.500000
O O3 0.588059 0.626594 0.238379
O O4 0.544246 0.789535 0.227538
O O5 0.812787 0.396183 0.674023
O O6 0.743253 0.407739 0.500000
O O7 0.795572 0.247208 0.500000
O O8 0.854350 0.250501 0.814431
O O9 0.892237 0.399882 0.729969
O O10 0.842081 0.403054 0.000000
O O11 0.138518 0.096303 0.500000
O O12 0.169215 0.099401 0.165733
O O13 0.958128 0.500000 0.250000
O O14 0.938395 0.386921 0.000000
#
# Coordination Sequence:
#
# PCOD9500042 Si02
#       6
#    16   8  16  16   8  16
#     4   9  18  29  39  52  68  91 123 156 195 233
#     4   9  16  24  38  58  71  87 113 135 173 226
#     4   8  15  27  38  50  71  92 111 141 179 220
#     4   8  15  27  38  50  71  92 111 141 179 220
#     4   9  16  24  38  58  71  87 113 135 173 226
#     4   9  18  29  39  52  68  91 123 156 195 233
#
# _framework density 23.358764000000001
#
# number of rings (size 3 to 8) (size 9 to 14) (size 15 to 20)
#    0.000    3.400    0.000    2.400    2.800    2.000 
#    0.000    6.000    0.000    0.000    0.000    0.000 
#    0.000    0.000    0.000    0.000    0.000    0.000 
#
# Total GULP energy -223102.159118 kJ/mol
# GULP energy per Si atom -5577.553978 kJ/mol
# Density = 2.330560 g / cm^3
# Si number density = 23.358764 Si / 1000 Ang^3
#
#
#
# Elastic Constant Matrix: (Units=GPa)
#
#
# Indices 1 2 3 4 5 6 
#
# 1 250.5468 5.8352 91.4157 0.0000 0.0000 0.0000
# 2 5.8352 69.0833 6.2115 0.0000 0.0000 0.0000
# 3 91.4157 6.2115 83.8701 0.0000 0.0000 0.0000
# 4 0.0000 0.0000 0.0000 13.7988 0.0000 0.0000
# 5 0.0000 0.0000 0.0000 0.0000 62.1185 0.0000
# 6 0.0000 0.0000 0.0000 0.0000 0.0000 -46.5707
#
#
#
# Elastic Compliance Matrix: (Units=1/GPa)
#
#
# Indices 1 2 3 4 5 6 
#
# 1 0.006627 0.000090 -0.007230 0.000000 0.000000 0.000000
# 2 0.000090 0.014574 -0.001178 0.000000 0.000000 0.000000
# 3 -0.007230 -0.001178 0.019891 0.000000 0.000000 0.000000
# 4 0.000000 0.000000 0.000000 0.072470 0.000000 0.000000
# 5 0.000000 0.000000 0.000000 0.000000 0.016098 0.000000
# 6 0.000000 0.000000 0.000000 0.000000 0.000000 -0.021473
#
#
# Mechanical properties :
#
#
# Convention : Reuss Voigt Hill
#
# Bulk Modulus (GPa) = 40.88871 67.82500 54.35685
# Shear Modulus (GPa) = 37.60109 25.87184 31.73646
#
# Velocity S-wave (km/s) = 4.01649 3.33165 3.68999
# Velocity P-wave (km/s) = 6.24918 6.62564 6.44016
#
# Compressibility (1/GPa) = 0.02445663
#
# Stress axis : x y z
#
# Youngs Moduli (GPa) = 150.89380 68.61745 50.27400
#
# Poissons Ratio (x) = -0.00620 0.36349
# Poissons Ratio (y) = -0.01363 0.05921
# Poissons Ratio (z) = 1.09098 0.08081
#
# Static dielectric constant tensor:
#      x y z
#    x 1.873690 0.000000 0.000000 
#    y 0.000000 1.945810 0.000000 
#    z 0.000000 0.000000 1.825460 
# 
# From -- ./inp_files/6755.got.cif
#   From: 2010.05.17/outbox.cif.g08.bks.cpg/sg66_4_cif.got.tgz:6755.got - 2010.06.03 17:51:23.
