data_PCOD9500926
_publ_section_title
;
Structure prediction by ZEFSAII (Michael W. Deem and Ramdas Pophale) SiO2 
 PCOD9500926
Probable space group: C M M A
;
_chemical_formula_sum "Si O2"
_cell_formula_units_Z 116
_cell_length_a 18.646920
_cell_length_b 21.102998
_cell_length_c 14.578294
_cell_angle_alpha 90.000000
_cell_angle_beta 90.000000
_cell_angle_gamma 90.000000
_cell_volume 5736.644926
_symmetry_space_group_name_H-M "C M M A"
_symmetry_group_IT_number 67
_symmetry_cell_setting 'orthorhombic'
loop_
_space_group_symop_operation_xyz
x,y,z
-x,1/2-y,z
x,-y,-z
-x,1/2+y,-z
-x,-y,-z
x,1/2+y,-z
-x,y,z
x,1/2-y,z
1/2+x,1/2+y,z
1/2-x,-y,z
1/2+x,1/2-y,-z
1/2-x,y,-z
1/2-x,1/2-y,-z
1/2+x,y,-z
1/2-x,1/2+y,z
1/2+x,-y,z
loop_
_atom_site_type_symbol
_atom_site_label
_atom_site_fract_x
_atom_site_fract_y
_atom_site_fract_z
Si Si1 0.418595 0.485087 0.684425
Si Si2 0.087011 0.574500 0.007402
Si Si3 0.861056 0.323834 0.623974
Si Si4 0.387722 0.868590 0.184259
Si Si5 0.086945 0.892371 0.211744
Si Si6 0.415914 0.883388 0.449529
Si Si7 0.204911 0.676359 0.667860
Si Si8 0.500000 0.750000 0.199029
O O1 0.500000 0.503526 0.662263
O O2 0.419046 0.429291 0.760753
O O3 0.384949 0.546016 0.732110
O O4 0.391347 0.451012 0.592201
O O5 0.109104 0.601713 0.106157
O O6 0.000000 0.578798 0.000416
O O7 0.105154 0.500000 0.000000
O O8 0.117271 0.612908 0.921510
O O9 0.868847 0.250000 0.597230
O O10 0.886735 0.333812 0.728044
O O11 0.905472 0.368492 0.555712
O O12 0.778010 0.344190 0.619570
O O13 0.312935 0.856773 0.236326
O O14 0.437477 0.806702 0.197021
O O15 0.000000 0.893487 0.210885
O O16 0.500000 0.875189 0.426053
O O17 0.364180 0.835077 0.395973
O O18 0.214475 0.750000 0.685063
#
# Coordination Sequence:
#
# PCOD9500926 Si02
#       8
#    16  16  16  16  16  16  16   4
#     4   9  17  33  57  90 119 147 191 250 304 362
#     4  10  18  33  60  90 120 155 195 249 308 362
#     4  11  24  43  55  79 123 168 207 245 298 371
#     4  11  19  33  55  94 127 154 194 250 312 358
#     4  10  21  37  62  86 115 161 205 249 301 358
#     4  10  21  35  63  94 117 146 195 255 304 364
#     4  10  22  37  59  83 120 164 198 243 308 368
#     4  12  20  28  58  96 136 152 188 266 310 352
#
# _framework density 20.220879
#
# number of rings (size 3 to 8) (size 9 to 14) (size 15 to 20)
#    0.000    1.793    3.448    1.241    0.966    3.586 
#    1.241    5.517    0.000    5.793    0.000    0.000 
#    0.000    0.000    0.000    0.000    0.000    0.000 
#
# Total GULP energy -322926.614645 kJ/mol
# GULP energy per Si atom -5567.700252 kJ/mol
# Density = 2.017486 g / cm^3
# Si number density = 20.220879 Si / 1000 Ang^3
#
#
#
# Elastic Constant Matrix: (Units=GPa)
#
#
# Indices 1 2 3 4 5 6 
#
# 1 41.7008 8.8785 19.5680 0.0000 0.0000 0.0000
# 2 8.8785 56.2845 20.7790 0.0000 0.0000 0.0000
# 3 19.5680 20.7790 128.6940 0.0000 0.0000 0.0000
# 4 0.0000 0.0000 0.0000 24.8347 0.0000 0.0000
# 5 0.0000 0.0000 0.0000 0.0000 -8.3604 0.0000
# 6 0.0000 0.0000 0.0000 0.0000 0.0000 15.1975
#
#
#
# Elastic Compliance Matrix: (Units=1/GPa)
#
#
# Indices 1 2 3 4 5 6 
#
# 1 0.026242 -0.002835 -0.003532 0.000000 0.000000 0.000000
# 2 -0.002835 0.019199 -0.002669 0.000000 0.000000 0.000000
# 3 -0.003532 -0.002669 0.008738 0.000000 0.000000 0.000000
# 4 0.000000 0.000000 0.000000 0.040266 0.000000 0.000000
# 5 0.000000 0.000000 0.000000 0.000000 -0.119611 0.000000
# 6 0.000000 0.000000 0.000000 0.000000 0.000000 0.065800
#
#
# Mechanical properties :
#
#
# Convention : Reuss Voigt Hill
#
# Bulk Modulus (GPa) = 27.69596 36.12562 31.91079
# Shear Modulus (GPa) = 70.67837 18.16460 44.42149
#
# Velocity S-wave (km/s) = 5.91853 3.00043 4.69210
# Velocity P-wave (km/s) = 7.77379 5.46880 6.72085
#
# Compressibility (1/GPa) = 0.03610635
#
# Stress axis : x y z
#
# Youngs Moduli (GPa) = 38.10754 52.08492 114.43796
#
# Poissons Ratio (x) = 0.14768 0.40422
# Poissons Ratio (y) = 0.10805 0.30541
# Poissons Ratio (z) = 0.13460 0.13901
#
# Static dielectric constant tensor:
#      x y z
#    x 1.730870 0.000000 0.000000 
#    y 0.000000 1.742330 0.000000 
#    z 0.000000 0.000000 1.758370 
# 
# From -- ./inp_files/28750.got.cif
#   From: 2010.05.17/outbox.cif.g08.bks.cpg/sg67_15_cif.got.tgz:28750.got - 2010.06.03 18:28:57.
