data_PCOD9500506
_publ_section_title
;
Structure prediction by ZEFSAII (Michael W. Deem and Ramdas Pophale) SiO2 
 PCOD9500506
Probable space group: C M M A
;
_chemical_formula_sum "Si O2"
_cell_formula_units_Z 116
_cell_length_a 30.130710
_cell_length_b 9.017721
_cell_length_c 25.717528
_cell_angle_alpha 90.000000
_cell_angle_beta 90.000000
_cell_angle_gamma 90.000000
_cell_volume 6987.718182
_symmetry_space_group_name_H-M "C M M A"
_symmetry_group_IT_number 67
_symmetry_cell_setting 'orthorhombic'
loop_
_space_group_symop_operation_xyz
x,y,z
-x,1/2-y,z
x,-y,-z
-x,1/2+y,-z
-x,-y,-z
x,1/2+y,-z
-x,y,z
x,1/2-y,z
1/2+x,1/2+y,z
1/2-x,-y,z
1/2+x,1/2-y,-z
1/2-x,y,-z
1/2-x,1/2-y,-z
1/2+x,y,-z
1/2-x,1/2+y,z
1/2+x,-y,z
loop_
_atom_site_type_symbol
_atom_site_label
_atom_site_fract_x
_atom_site_fract_y
_atom_site_fract_z
Si Si1 0.947798 0.571293 0.349943
Si Si2 0.882450 0.573065 0.256889
Si Si3 0.604715 0.570287 0.446357
Si Si4 0.795038 0.080963 0.425806
Si Si5 0.000000 0.750000 0.818258
Si Si6 0.912030 0.413729 0.155300
Si Si7 0.947376 0.072953 0.944552
Si Si8 0.704890 0.579493 0.300191
O O1 0.944050 0.750000 0.356866
O O2 0.922646 0.532028 0.296282
O O3 0.922884 0.490477 0.397385
O O4 0.000000 0.533396 0.348156
O O5 0.880956 0.750000 0.254183
O O6 0.888091 0.504874 0.199984
O O7 0.837754 0.509111 0.281533
O O8 0.587382 0.500000 0.500000
O O9 0.603345 0.750000 0.447107
O O10 0.656521 0.521156 0.441260
O O11 0.792681 0.250000 0.444366
O O12 0.795233 0.080503 0.362997
O O13 0.750000 0.000000 0.442062
O O14 0.039160 0.876052 0.822469
O O15 0.891449 0.250000 0.146145
O O16 0.919434 0.500648 0.101773
O O17 0.942025 0.250000 0.946529
O O18 0.000000 0.041137 0.935347
O O19 0.936306 0.000000 0.000000
O O20 0.703103 0.750000 0.282717
O O21 0.750000 0.500000 0.283007
#
# Coordination Sequence:
#
# PCOD9500506 Si02
#       8
#    16  16  16  16   4  16  16  16
#     4  10  23  40  57  78 102 133 173 215 259 309
#     4  11  22  35  55  81 109 139 173 216 266 317
#     4  11  23  40  58  79 103 132 168 211 256 310
#     4   9  19  34  55  80 107 132 163 199 248 307
#     4   8  20  32  48  68 106 144 188 226 270 310
#     4  10  19  33  47  70 103 141 184 224 266 312
#     4  10  18  28  45  67  97 138 185 230 272 317
#     4  10  19  35  56  81 108 137 170 208 254 314
#
# _framework density 16.600556000000001
#
# number of rings (size 3 to 8) (size 9 to 14) (size 15 to 20)
#    0.414    1.517    2.069    2.069    0.966    3.586 
#    0.000    1.379    0.000    0.000    0.000    0.000 
#    0.000    0.552    0.000    5.517    0.000    3.310 
#
# Total GULP energy -322905.536500 kJ/mol
# GULP energy per Si atom -5567.336836 kJ/mol
# Density = 1.656277 g / cm^3
# Si number density = 16.600556 Si / 1000 Ang^3
#
#
#
# Elastic Constant Matrix: (Units=GPa)
#
#
# Indices 1 2 3 4 5 6 
#
# 1 92.5094 36.8876 42.2906 0.0000 0.0000 0.0000
# 2 36.8876 74.2426 57.8611 0.0000 0.0000 0.0000
# 3 42.2906 57.8611 115.2014 0.0000 0.0000 0.0000
# 4 0.0000 0.0000 0.0000 11.5036 0.0000 0.0000
# 5 0.0000 0.0000 0.0000 0.0000 -116.0108 0.0000
# 6 0.0000 0.0000 0.0000 0.0000 0.0000 29.0207
#
#
#
# Elastic Compliance Matrix: (Units=1/GPa)
#
#
# Indices 1 2 3 4 5 6 
#
# 1 0.013973 -0.004839 -0.002699 0.000000 0.000000 0.000000
# 2 -0.004839 0.023809 -0.010182 0.000000 0.000000 0.000000
# 3 -0.002699 -0.010182 0.014785 0.000000 0.000000 0.000000
# 4 0.000000 0.000000 0.000000 0.086929 0.000000 0.000000
# 5 0.000000 0.000000 0.000000 0.000000 -0.008620 0.000000
# 6 0.000000 0.000000 0.000000 0.000000 0.000000 0.034458
#
#
# Mechanical properties :
#
#
# Convention : Reuss Voigt Hill
#
# Bulk Modulus (GPa) = 58.38634 61.78134 60.08384
# Shear Modulus (GPa) = 24.21499 -5.43634 9.38932
#
# Velocity S-wave (km/s) = 3.82342 -1.81160 2.38082
# Velocity P-wave (km/s) = 7.39858 5.73771 6.62044
#
# Compressibility (1/GPa) = 0.01712729
#
# Stress axis : x y z
#
# Youngs Moduli (GPa) = 71.56589 42.00114 67.63505
#
# Poissons Ratio (x) = 0.20324 0.18255
# Poissons Ratio (y) = 0.34631 0.68865
# Poissons Ratio (z) = 0.19316 0.42765
#
# Static dielectric constant tensor:
#      x y z
#    x 1.543700 0.000000 0.000000 
#    y 0.000000 1.575520 0.000000 
#    z 0.000000 0.000000 1.546410 
# 
# From -- ./inp_files/42986.got.cif
#   From: 2010.05.17/outbox.cif.g08.bks.cpg/sg67_22_cif.got.tgz:42986.got - 2010.06.03 18:28:57.
