data_PCOD9500452
_publ_section_title
;
Structure prediction by ZEFSAII (Michael W. Deem and Ramdas Pophale) SiO2 
 PCOD9500452
Probable space group: C M M A
;
_chemical_formula_sum "Si O2"
_cell_formula_units_Z 64
_cell_length_a 5.398667
_cell_length_b 31.618583
_cell_length_c 18.447269
_cell_angle_alpha 90.000000
_cell_angle_beta 90.000000
_cell_angle_gamma 90.000000
_cell_volume 3148.915625
_symmetry_space_group_name_H-M "C M M A"
_symmetry_group_IT_number 67
_symmetry_cell_setting 'orthorhombic'
loop_
_space_group_symop_operation_xyz
x,y,z
-x,1/2-y,z
x,-y,-z
-x,1/2+y,-z
-x,-y,-z
x,1/2+y,-z
-x,y,z
x,1/2-y,z
1/2+x,1/2+y,z
1/2-x,-y,z
1/2+x,1/2-y,-z
1/2-x,y,-z
1/2-x,1/2-y,-z
1/2+x,y,-z
1/2-x,1/2+y,z
1/2+x,-y,z
loop_
_atom_site_type_symbol
_atom_site_label
_atom_site_fract_x
_atom_site_fract_y
_atom_site_fract_z
Si Si1 0.000000 0.472637 0.158840
Si Si2 0.500000 0.146211 0.163493
Si Si3 0.500000 0.923312 0.313061
Si Si4 0.000000 0.388639 0.094571
Si Si5 0.000000 0.367204 0.675520
Si Si6 0.500000 0.299295 0.452736
Si Si7 0.000000 0.047539 0.469291
Si Si8 0.500000 0.187140 0.023213
O O1 0.250000 0.500000 0.156697
O O2 0.000000 0.447330 0.236119
O O3 0.000000 0.439169 0.092221
O O4 0.248936 0.122257 0.139529
O O5 0.500000 0.156033 0.247030
O O6 0.500000 0.184803 0.108940
O O7 0.249406 0.895708 0.322483
O O8 0.500000 0.953934 0.382852
O O9 0.000000 0.358749 0.022623
O O10 0.000000 0.333772 0.610897
O O11 0.500000 0.250000 0.427125
O O12 0.250000 0.304882 0.500000
O O13 0.750000 0.068565 0.500000
O O14 0.000000 0.000000 0.500000
O O15 0.750000 0.207138 0.000000
#
# Coordination Sequence:
#
# PCOD9500452 Si02
#       8
#     8   8   8   8   8   8   8   8
#     4  12  24  35  54  72 107 149 196 239 302 354
#     4  10  17  33  53  81 104 135 177 234 285 327
#     4  12  25  38  57  82 106 146 190 247 291 333
#     4  10  18  35  49  75 102 143 186 237 284 343
#     4  12  22  38  63  90 113 142 186 241 277 325
#     4  10  23  43  66  93 128 162 184 216 282 352
#     4  10  23  39  52  67  95 131 180 228 278 341
#     4   8  16  27  52  70 100 136 172 227 280 334
#
# _framework density 20.324456999999999
#
# number of rings (size 3 to 8) (size 9 to 14) (size 15 to 20)
#    0.000    1.500    2.500    3.000    3.500    3.000 
#    0.000    0.000    0.000   20.250    0.000    0.000 
#    0.000    9.000    0.000    0.000    0.000    9.750 
#
# Total GULP energy -178425.171045 kJ/mol
# GULP energy per Si atom -5575.786595 kJ/mol
# Density = 2.027820 g / cm^3
# Si number density = 20.324457 Si / 1000 Ang^3
#
#
#
# Elastic Constant Matrix: (Units=GPa)
#
#
# Indices 1 2 3 4 5 6 
#
# 1 204.9974 44.1806 18.6744 0.0000 0.0000 0.0000
# 2 44.1806 103.7101 50.4473 0.0000 0.0000 0.0000
# 3 18.6744 50.4473 100.0760 0.0000 0.0000 0.0000
# 4 0.0000 0.0000 0.0000 -60.4691 0.0000 0.0000
# 5 0.0000 0.0000 0.0000 0.0000 -17.6617 0.0000
# 6 0.0000 0.0000 0.0000 0.0000 0.0000 41.1343
#
#
#
# Elastic Compliance Matrix: (Units=1/GPa)
#
#
# Indices 1 2 3 4 5 6 
#
# 1 0.005374 -0.002387 0.000200 0.000000 0.000000 0.000000
# 2 -0.002387 0.013835 -0.006529 0.000000 0.000000 0.000000
# 3 0.000200 -0.006529 0.013246 0.000000 0.000000 0.000000
# 4 0.000000 0.000000 0.000000 -0.016537 0.000000 0.000000
# 5 0.000000 0.000000 0.000000 0.000000 -0.056620 0.000000
# 6 0.000000 0.000000 0.000000 0.000000 0.000000 0.024311
#
#
# Mechanical properties :
#
#
# Convention : Reuss Voigt Hill
#
# Bulk Modulus (GPa) = 66.55651 70.59867 68.57759
# Shear Modulus (GPa) = 826.83042 12.29943 419.56492
#
# Velocity S-wave (km/s) = 20.19155 2.46266 14.38338
# Velocity P-wave (km/s) = 24.00867 6.54962 17.59707
#
# Compressibility (1/GPa) = 0.01502483
#
# Stress axis : x y z
#
# Youngs Moduli (GPa) = 186.07135 72.28172 75.49450
#
# Poissons Ratio (x) = 0.17253 -0.01513
# Poissons Ratio (y) = 0.44414 0.49287
# Poissons Ratio (z) = -0.03728 0.47190
#
# Static dielectric constant tensor:
#      x y z
#    x 1.696310 0.000000 0.000000 
#    y 0.000000 1.741190 0.000000 
#    z 0.000000 0.000000 1.717690 
# 
# From -- ./inp_files/31446.got.cif
#   From: 2010.05.17/outbox.cif.g08.bks.cpg/sg67_16_cif.got.tgz:31446.got - 2010.06.03 18:28:57.
