data_PCOD9500404
_publ_section_title
;
Structure prediction by ZEFSAII (Michael W. Deem and Ramdas Pophale) SiO2 
 PCOD9500404
Probable space group: C M M A
;
_chemical_formula_sum "Si O2"
_cell_formula_units_Z 120
_cell_length_a 19.213425
_cell_length_b 24.475423
_cell_length_c 15.618941
_cell_angle_alpha 90.000000
_cell_angle_beta 90.000000
_cell_angle_gamma 90.000000
_cell_volume 7344.911717
_symmetry_space_group_name_H-M "C M M A"
_symmetry_group_IT_number 67
_symmetry_cell_setting 'orthorhombic'
loop_
_space_group_symop_operation_xyz
x,y,z
-x,1/2-y,z
x,-y,-z
-x,1/2+y,-z
-x,-y,-z
x,1/2+y,-z
-x,y,z
x,1/2-y,z
1/2+x,1/2+y,z
1/2-x,-y,z
1/2+x,1/2-y,-z
1/2-x,y,-z
1/2-x,1/2-y,-z
1/2+x,y,-z
1/2-x,1/2+y,z
1/2+x,-y,z
loop_
_atom_site_type_symbol
_atom_site_label
_atom_site_fract_x
_atom_site_fract_y
_atom_site_fract_z
Si Si1 0.275994 0.686126 0.901131
Si Si2 0.081267 0.931343 0.681329
Si Si3 0.420760 0.366465 0.155154
Si Si4 0.250000 0.500000 0.782214
Si Si5 0.079280 0.439425 0.010830
Si Si6 0.872736 0.443091 0.691740
Si Si7 0.169001 0.599663 0.840589
Si Si8 0.919639 0.065784 0.508488
O O1 0.264860 0.750000 0.883914
O O2 0.356034 0.671299 0.875863
O O3 0.226205 0.646481 0.846784
O O4 0.250000 0.676686 0.000000
O O5 0.124168 0.900896 0.754174
O O6 0.105805 0.916280 0.585214
O O7 0.000000 0.918604 0.687082
O O8 0.088810 0.997381 0.694303
O O9 0.500000 0.342838 0.159033
O O10 0.422110 0.412449 0.081693
O O11 0.403544 0.398598 0.243040
O O12 0.203579 0.460524 0.723222
O O13 0.205076 0.540296 0.839276
O O14 0.000000 0.445493 0.043504
O O15 0.109161 0.500000 0.000000
O O16 0.120268 0.401473 0.076452
O O17 0.877635 0.421995 0.594505
O O18 0.000000 0.083485 0.520496
O O19 0.920848 0.000000 0.500000
#
# Coordination Sequence:
#
# PCOD9500404 Si02
#       8
#    16  16  16   8  16  16  16  16
#     4  11  24  42  58  73  99 139 178 217 269 319
#     4   9  17  29  49  76 108 144 177 209 250 310
#     4  11  21  35  55  77 100 132 177 221 260 306
#     4  10  20  28  48  76 108 142 176 208 252 316
#     4  10  20  31  48  77 109 138 168 205 255 311
#     4  10  17  29  46  75 111 145 176 211 257 305
#     4  11  20  34  51  74 104 139 171 210 261 310
#     4   8  14  26  44  68 103 146 178 204 247 301
#
# _framework density 16.337841000000001
#
# number of rings (size 3 to 8) (size 9 to 14) (size 15 to 20)
#    0.000    2.000    2.667    4.000    0.000    1.333 
#    0.000    8.333    0.000    1.600    0.000    1.867 
#    0.000    1.067    0.000    0.000    0.000    0.000 
#
# Total GULP energy -334091.159064 kJ/mol
# GULP energy per Si atom -5568.185984 kJ/mol
# Density = 1.630066 g / cm^3
# Si number density = 16.337841 Si / 1000 Ang^3
#
#
#
# Elastic Constant Matrix: (Units=GPa)
#
#
# Indices 1 2 3 4 5 6 
#
# 1 76.3478 21.8158 35.4371 0.0000 0.0000 0.0000
# 2 21.8158 41.9861 26.0410 0.0000 0.0000 0.0000
# 3 35.4371 26.0410 102.7809 0.0000 0.0000 0.0000
# 4 0.0000 0.0000 0.0000 10.2772 0.0000 0.0000
# 5 0.0000 0.0000 0.0000 0.0000 14.9314 0.0000
# 6 0.0000 0.0000 0.0000 0.0000 0.0000 8.9229
#
#
#
# Elastic Compliance Matrix: (Units=1/GPa)
#
#
# Indices 1 2 3 4 5 6 
#
# 1 0.016814 -0.006099 -0.004252 0.000000 0.000000 0.000000
# 2 -0.006099 0.030471 -0.005617 0.000000 0.000000 0.000000
# 3 -0.004252 -0.005617 0.012619 0.000000 0.000000 0.000000
# 4 0.000000 0.000000 0.000000 0.097303 0.000000 0.000000
# 5 0.000000 0.000000 0.000000 0.000000 0.066973 0.000000
# 6 0.000000 0.000000 0.000000 0.000000 0.000000 0.112071
#
#
# Mechanical properties :
#
#
# Convention : Reuss Voigt Hill
#
# Bulk Modulus (GPa) = 35.75717 43.07807 39.41762
# Shear Modulus (GPa) = 13.24470 16.01437 14.62953
#
# Velocity S-wave (km/s) = 2.85033 3.13421 2.99563
# Velocity P-wave (km/s) = 5.72417 6.28665 6.01199
#
# Compressibility (1/GPa) = 0.02796642
#
# Stress axis : x y z
#
# Youngs Moduli (GPa) = 59.47289 32.81854 79.24804
#
# Poissons Ratio (x) = 0.20018 0.33696
# Poissons Ratio (y) = 0.36275 0.44515
# Poissons Ratio (z) = 0.25287 0.18435
#
# Static dielectric constant tensor:
#      x y z
#    x 1.607170 0.000000 0.000000 
#    y 0.000000 1.511060 0.000000 
#    z 0.000000 0.000000 1.571600 
# 
# From -- ./inp_files/29669.got.cif
#   From: 2010.05.17/outbox.cif.g08.bks.cpg/sg67_15_cif.got.tgz:29669.got - 2010.06.03 18:28:57.
