data_PCOD9501397
_publ_section_title
;
Structure prediction by ZEFSAII (Michael W. Deem and Ramdas Pophale) SiO2 
 PCOD9501397
Probable space group: C M M A
;
_chemical_formula_sum "Si O2"
_cell_formula_units_Z 112
_cell_length_a 29.160771
_cell_length_b 16.353534
_cell_length_c 11.125713
_cell_angle_alpha 90.000000
_cell_angle_beta 90.000000
_cell_angle_gamma 90.000000
_cell_volume 5305.648484
_symmetry_space_group_name_H-M "C M M A"
_symmetry_group_IT_number 67
_symmetry_cell_setting 'orthorhombic'
loop_
_space_group_symop_operation_xyz
x,y,z
-x,1/2-y,z
x,-y,-z
-x,1/2+y,-z
-x,-y,-z
x,1/2+y,-z
-x,y,z
x,1/2-y,z
1/2+x,1/2+y,z
1/2-x,-y,z
1/2+x,1/2-y,-z
1/2-x,y,-z
1/2-x,1/2-y,-z
1/2+x,y,-z
1/2-x,1/2+y,z
1/2+x,-y,z
loop_
_atom_site_type_symbol
_atom_site_label
_atom_site_fract_x
_atom_site_fract_y
_atom_site_fract_z
Si Si1 0.698521 0.505509 0.357436
Si Si2 0.447024 0.905310 0.305025
Si Si3 0.148938 0.344828 0.228282
Si Si4 0.646961 0.659948 0.703632
Si Si5 0.951136 0.052391 0.878569
Si Si6 0.132291 0.659067 0.033164
Si Si7 0.552564 0.155274 0.435421
O O1 0.702032 0.500000 0.500000
O O2 0.750000 0.500000 0.305846
O O3 0.673800 0.588057 0.311349
O O4 0.670092 0.423999 0.331482
O O5 0.500000 0.140894 0.394317
O O6 0.405701 0.851938 0.252230
O O7 0.439711 0.902880 0.449091
O O8 0.443310 0.991520 0.234131
O O9 0.163476 0.250000 0.246374
O O10 0.155234 0.371839 0.088637
O O11 0.660250 0.750000 0.651406
O O12 0.660287 0.665109 0.844419
O O13 0.593131 0.651085 0.662800
O O14 0.910055 0.109235 0.916293
O O15 0.000000 0.095441 0.861744
O O16 0.955158 0.000000 0.000000
O O17 0.116425 0.750000 0.000136
O O18 0.500000 0.122328 0.714709
O O19 0.553919 0.250000 0.479991
#
# Coordination Sequence:
#
# PCOD9501397 Si02
#       7
#    16  16  16  16  16  16  16
#     4  11  26  46  69  98 126 158 206 260 321 392
#     4  10  19  32  56  89 124 165 213 261 309 368
#     4  11  23  41  66  95 128 169 214 262 315 372
#     4  10  22  41  65  93 129 169 209 262 323 382
#     4  10  19  32  50  79 122 169 217 268 318 362
#     4  10  22  38  59  88 121 163 214 261 312 380
#     4   9  18  34  57  89 128 169 214 262 316 379
#
# _framework density 21.109577999999999
#
# number of rings (size 3 to 8) (size 9 to 14) (size 15 to 20)
#    0.000    1.857    1.429    2.143    0.000    4.000 
#    0.000    6.429    0.000   11.143    0.000    0.000 
#    0.000    0.000    0.000    0.000    0.000    0.000 
#
# Total GULP energy -311882.329425 kJ/mol
# GULP energy per Si atom -5569.327311 kJ/mol
# Density = 2.106153 g / cm^3
# Si number density = 21.109578 Si / 1000 Ang^3
#
#
#
# Elastic Constant Matrix: (Units=GPa)
#
#
# Indices 1 2 3 4 5 6 
#
# 1 73.8659 50.3919 19.6643 0.0000 0.0000 0.0000
# 2 50.3919 110.9046 42.1732 0.0000 0.0000 0.0000
# 3 19.6643 42.1732 117.8824 0.0000 0.0000 0.0000
# 4 0.0000 0.0000 0.0000 25.4147 0.0000 0.0000
# 5 0.0000 0.0000 0.0000 0.0000 -3.6500 0.0000
# 6 0.0000 0.0000 0.0000 0.0000 0.0000 8.7464
#
#
#
# Elastic Compliance Matrix: (Units=1/GPa)
#
#
# Indices 1 2 3 4 5 6 
#
# 1 0.019621 -0.008878 -0.000097 0.000000 0.000000 0.000000
# 2 -0.008878 0.014454 -0.003690 0.000000 0.000000 0.000000
# 3 -0.000097 -0.003690 0.009819 0.000000 0.000000 0.000000
# 4 0.000000 0.000000 0.000000 0.039347 0.000000 0.000000
# 5 0.000000 0.000000 0.000000 0.000000 -0.273974 0.000000
# 6 0.000000 0.000000 0.000000 0.000000 0.000000 0.114332
#
#
# Mechanical properties :
#
#
# Convention : Reuss Voigt Hill
#
# Bulk Modulus (GPa) = 53.86792 58.56797 56.21794
# Shear Modulus (GPa) = -111.40237 18.79713 -46.30262
#
# Velocity S-wave (km/s) = -7.27241 2.98729 -4.68850
# Velocity P-wave (km/s) = 6.70400 6.30107 1.61866
#
# Compressibility (1/GPa) = 0.01856392
#
# Stress axis : x y z
#
# Youngs Moduli (GPa) = 50.96674 69.18512 101.84037
#
# Poissons Ratio (x) = 0.61425 0.00985
# Poissons Ratio (y) = 0.45250 0.37579
# Poissons Ratio (z) = 0.00493 0.25529
#
# Static dielectric constant tensor:
#      x y z
#    x 1.802400 0.000000 0.000000 
#    y 0.000000 1.858530 0.000000 
#    z 0.000000 0.000000 1.845810 
# 
# From -- ./inp_files/23782.got.cif
#   From: 2010.05.17/outbox.cif.g08.bks.cpg/sg67_12_cif.got.tgz:23782.got - 2010.06.03 18:28:57.
