data_PCOD9501943
_publ_section_title
;
Structure prediction by ZEFSAII (Michael W. Deem and Ramdas Pophale) SiO2 
 PCOD9501943
Probable space group: C M M A
;
_chemical_formula_sum "Si O2"
_cell_formula_units_Z 80
_cell_length_a 14.879364
_cell_length_b 10.703983
_cell_length_c 27.655047
_cell_angle_alpha 90.000000
_cell_angle_beta 90.000000
_cell_angle_gamma 90.000000
_cell_volume 4404.576728
_symmetry_space_group_name_H-M "C M M A"
_symmetry_group_IT_number 67
_symmetry_cell_setting 'orthorhombic'
loop_
_space_group_symop_operation_xyz
x,y,z
-x,1/2-y,z
x,-y,-z
-x,1/2+y,-z
-x,-y,-z
x,1/2+y,-z
-x,y,z
x,1/2-y,z
1/2+x,1/2+y,z
1/2-x,-y,z
1/2+x,1/2-y,-z
1/2-x,y,-z
1/2-x,1/2-y,-z
1/2+x,y,-z
1/2-x,1/2+y,z
1/2+x,-y,z
loop_
_atom_site_type_symbol
_atom_site_label
_atom_site_fract_x
_atom_site_fract_y
_atom_site_fract_z
Si Si1 0.000000 0.400010 0.800489
Si Si2 0.823664 0.896343 0.139607
Si Si3 0.141478 0.492907 0.613305
Si Si4 0.857097 0.250000 0.550457
Si Si5 0.349549 0.616641 0.975390
Si Si6 0.360527 0.250000 0.559933
Si Si7 0.000000 0.902961 0.311183
O O1 0.911953 0.432922 0.830679
O O2 0.000000 0.250000 0.798483
O O3 0.000000 0.440982 0.744950
O O4 0.800393 0.750000 0.150402
O O5 0.840519 0.900884 0.081905
O O6 0.750000 0.000000 0.151152
O O7 0.250000 0.500000 0.620596
O O8 0.117855 0.377589 0.577672
O O9 0.114854 0.624472 0.588812
O O10 0.086661 0.459747 0.661490
O O11 0.748125 0.250000 0.553666
O O12 0.891400 0.250000 0.495639
O O13 0.392940 0.750000 0.984528
O O14 0.395732 0.500000 0.000000
O O15 0.250000 0.622569 0.000000
O O16 0.000000 0.750000 0.315114
#
# Coordination Sequence:
#
# PCOD9501943 Si02
#       7
#     8  16  16   8  16   8   8
#     4   9  22  40  59  82 107 149 194 246 285 338
#     4  10  19  35  60  84 114 147 190 230 282 341
#     4  10  20  35  59  86 112 153 191 229 279 342
#     4   9  16  33  55  87 120 155 185 218 277 346
#     4   9  15  25  47  80 110 146 177 214 267 329
#     4   9  18  31  55  87 126 149 177 230 285 336
#     4  11  22  41  62  80 110 147 199 245 288 331
#
# _framework density 18.162925999999999
#
# number of rings (size 3 to 8) (size 9 to 14) (size 15 to 20)
#    0.000    2.400    3.000    0.600    0.000    3.600 
#    0.000    4.000    4.400    0.000    0.000    0.000 
#    0.000    0.000    0.000    0.000    0.000    0.000 
#
# Total GULP energy -222907.206048 kJ/mol
# GULP energy per Si atom -5572.680151 kJ/mol
# Density = 1.812159 g / cm^3
# Si number density = 18.162926 Si / 1000 Ang^3
#
#
#
# Elastic Constant Matrix: (Units=GPa)
#
#
# Indices 1 2 3 4 5 6 
#
# 1 97.5243 61.6436 70.1211 0.0000 0.0000 0.0000
# 2 61.6436 162.5151 66.3607 0.0000 0.0000 0.0000
# 3 70.1211 66.3607 156.5849 0.0000 0.0000 0.0000
# 4 0.0000 0.0000 0.0000 37.0733 0.0000 0.0000
# 5 0.0000 0.0000 0.0000 0.0000 28.9912 0.0000
# 6 0.0000 0.0000 0.0000 0.0000 0.0000 12.3873
#
#
#
# Elastic Compliance Matrix: (Units=1/GPa)
#
#
# Indices 1 2 3 4 5 6 
#
# 1 0.017083 -0.004058 -0.005930 0.000000 0.000000 0.000000
# 2 -0.004058 0.008405 -0.001745 0.000000 0.000000 0.000000
# 3 -0.005930 -0.001745 0.009781 0.000000 0.000000 0.000000
# 4 0.000000 0.000000 0.000000 0.026974 0.000000 0.000000
# 5 0.000000 0.000000 0.000000 0.000000 0.034493 0.000000
# 6 0.000000 0.000000 0.000000 0.000000 0.000000 0.080728
#
#
# Mechanical properties :
#
#
# Convention : Reuss Voigt Hill
#
# Bulk Modulus (GPa) = 84.72340 90.31943 87.52142
# Shear Modulus (GPa) = 24.40643 30.25695 27.33169
#
# Velocity S-wave (km/s) = 3.66970 4.08593 3.88339
# Velocity P-wave (km/s) = 8.04383 8.49088 8.27038
#
# Compressibility (1/GPa) = 0.01180311
#
# Stress axis : x y z
#
# Youngs Moduli (GPa) = 58.53856 118.97641 102.23598
#
# Poissons Ratio (x) = 0.48283 0.60626
# Poissons Ratio (y) = 0.23756 0.17837
# Poissons Ratio (z) = 0.34714 0.20758
#
# Static dielectric constant tensor:
#      x y z
#    x 1.616060 0.000000 0.000000 
#    y 0.000000 1.646550 0.000000 
#    z 0.000000 0.000000 1.607550 
# 
# From -- ./inp_files/41807.got.cif
#   From: 2010.05.17/outbox.cif.g08.bks.cpg/sg67_21_cif.got.tgz:41807.got - 2010.06.03 18:28:57.
