data_PCOD9501049
_publ_section_title
;
Structure prediction by ZEFSAII (Michael W. Deem and Ramdas Pophale) SiO2 
 PCOD9501049
Probable space group: C M M A
;
_chemical_formula_sum "Si O2"
_cell_formula_units_Z 64
_cell_length_a 20.334523
_cell_length_b 13.831392
_cell_length_c 12.733533
_cell_angle_alpha 90.000000
_cell_angle_beta 90.000000
_cell_angle_gamma 90.000000
_cell_volume 3581.366752
_symmetry_space_group_name_H-M "C M M A"
_symmetry_group_IT_number 67
_symmetry_cell_setting 'orthorhombic'
loop_
_space_group_symop_operation_xyz
x,y,z
-x,1/2-y,z
x,-y,-z
-x,1/2+y,-z
-x,-y,-z
x,1/2+y,-z
-x,y,z
x,1/2-y,z
1/2+x,1/2+y,z
1/2-x,-y,z
1/2+x,1/2-y,-z
1/2-x,y,-z
1/2-x,1/2-y,-z
1/2+x,y,-z
1/2-x,1/2+y,z
1/2+x,-y,z
loop_
_atom_site_type_symbol
_atom_site_label
_atom_site_fract_x
_atom_site_fract_y
_atom_site_fract_z
Si Si1 0.360718 0.973511 0.613466
Si Si2 0.735401 0.137341 0.673579
Si Si3 0.704811 0.135404 0.094218
Si Si4 0.425163 0.633343 0.803540
O O1 0.296746 0.902715 0.605176
O O2 0.408786 0.922072 0.695369
O O3 0.388698 0.000000 0.500000
O O4 0.328168 0.071751 0.657162
O O5 0.724593 0.250000 0.654073
O O6 0.759136 0.123406 0.794000
O O7 0.697482 0.250000 0.075614
O O8 0.630606 0.099477 0.113929
O O9 0.750000 0.099242 0.000000
O O10 0.500000 0.616452 0.836382
O O11 0.416959 0.750000 0.786903
#
# Coordination Sequence:
#
# PCOD9501049 Si02
#       4
#    16  16  16  16
#     4  10  19  29  45  69  96 127 164 206 246 288
#     4   9  17  29  45  68  97 125 158 205 255 296
#     4   8  14  27  49  73  94 120 157 200 246 295
#     4   9  18  33  51  71  97 128 164 207 250 295
#
# _framework density 17.870273000000001
#
# number of rings (size 3 to 8) (size 9 to 14) (size 15 to 20)
#    0.000    3.000    0.000    3.750    0.000    3.500 
#    0.000   10.000    0.000    3.750    0.000    3.500 
#    0.000    0.000    0.000    0.000    0.000    0.000 
#
# Total GULP energy -178264.132924 kJ/mol
# GULP energy per Si atom -5570.754154 kJ/mol
# Density = 1.782960 g / cm^3
# Si number density = 17.870273 Si / 1000 Ang^3
#
#
#
# Elastic Constant Matrix: (Units=GPa)
#
#
# Indices 1 2 3 4 5 6 
#
# 1 109.2449 27.0142 55.1292 0.0000 0.0000 0.0000
# 2 27.0142 91.7501 12.9993 0.0000 0.0000 0.0000
# 3 55.1292 12.9993 75.5655 0.0000 0.0000 0.0000
# 4 0.0000 0.0000 0.0000 30.0376 0.0000 0.0000
# 5 0.0000 0.0000 0.0000 0.0000 14.7923 0.0000
# 6 0.0000 0.0000 0.0000 0.0000 0.0000 10.2944
#
#
#
# Elastic Compliance Matrix: (Units=1/GPa)
#
#
# Indices 1 2 3 4 5 6 
#
# 1 0.015246 -0.002986 -0.010609 0.000000 0.000000 0.000000
# 2 -0.002986 0.011756 0.000156 0.000000 0.000000 0.000000
# 3 -0.010609 0.000156 0.020947 0.000000 0.000000 0.000000
# 4 0.000000 0.000000 0.000000 0.033292 0.000000 0.000000
# 5 0.000000 0.000000 0.000000 0.000000 0.067603 0.000000
# 6 0.000000 0.000000 0.000000 0.000000 0.000000 0.097140
#
#
# Mechanical properties :
#
#
# Convention : Reuss Voigt Hill
#
# Bulk Modulus (GPa) = 47.45898 51.87176 49.66537
# Shear Modulus (GPa) = 17.86452 23.11939 20.49195
#
# Velocity S-wave (km/s) = 3.16520 3.60075 3.38998
# Velocity P-wave (km/s) = 6.32243 6.81007 6.57078
#
# Compressibility (1/GPa) = 0.02107083
#
# Stress axis : x y z
#
# Youngs Moduli (GPa) = 65.59180 85.06163 47.74036
#
# Poissons Ratio (x) = 0.25397 0.50648
# Poissons Ratio (y) = 0.19584 -0.00744
# Poissons Ratio (z) = 0.69587 -0.01326
#
# Static dielectric constant tensor:
#      x y z
#    x 1.615890 0.000000 0.000000 
#    y 0.000000 1.632500 0.000000 
#    z 0.000000 0.000000 1.644980 
# 
# From -- ./inp_files/17639.got.cif
#   From: 2010.05.17/outbox.cif.g08.bks.cpg/sg67_9_cif.got.tgz:17639.got - 2010.06.03 18:28:57.
