data_PCOD9501075
_publ_section_title
;
Structure prediction by ZEFSAII (Michael W. Deem and Ramdas Pophale) SiO2 
 PCOD9501075
Probable space group: C M M A
;
_chemical_formula_sum "Si O2"
_cell_formula_units_Z 120
_cell_length_a 27.654544
_cell_length_b 8.861896
_cell_length_c 29.813124
_cell_angle_alpha 90.000000
_cell_angle_beta 90.000000
_cell_angle_gamma 90.000000
_cell_volume 7306.352768
_symmetry_space_group_name_H-M "C M M A"
_symmetry_group_IT_number 67
_symmetry_cell_setting 'orthorhombic'
loop_
_space_group_symop_operation_xyz
x,y,z
-x,1/2-y,z
x,-y,-z
-x,1/2+y,-z
-x,-y,-z
x,1/2+y,-z
-x,y,z
x,1/2-y,z
1/2+x,1/2+y,z
1/2-x,-y,z
1/2+x,1/2-y,-z
1/2-x,y,-z
1/2-x,1/2-y,-z
1/2+x,y,-z
1/2-x,1/2+y,z
1/2+x,-y,z
loop_
_atom_site_type_symbol
_atom_site_label
_atom_site_fract_x
_atom_site_fract_y
_atom_site_fract_z
Si Si1 0.107566 0.430559 0.950441
Si Si2 0.557041 0.069698 0.640645
Si Si3 0.053740 0.929387 0.806999
Si Si4 0.147378 0.070592 0.133666
Si Si5 0.801575 0.568391 0.776053
Si Si6 0.893615 0.070622 0.726218
Si Si7 0.500000 0.431618 0.049633
Si Si8 0.558740 0.576523 0.546126
O O1 0.108951 0.250000 0.953835
O O2 0.145674 0.487474 0.913708
O O3 0.053237 0.476871 0.933271
O O4 0.114382 0.500000 0.000000
O O5 0.500000 0.030355 0.647344
O O6 0.561053 0.250000 0.643651
O O7 0.589349 0.992406 0.678525
O O8 0.571429 0.013600 0.591093
O O9 0.056272 0.750000 0.796566
O O10 0.096137 0.960833 0.841916
O O11 0.000000 0.963462 0.823860
O O12 0.065813 0.020806 0.762261
O O13 0.151067 0.250000 0.126111
O O14 0.185733 0.026846 0.172072
O O15 0.801820 0.750000 0.773281
O O16 0.750000 0.500000 0.763803
O O17 0.844328 0.503904 0.744917
O O18 0.888637 0.250000 0.725230
O O19 0.500000 0.250000 0.048561
O O20 0.500000 0.500000 0.000000
O O21 0.575669 0.500000 0.500000
O O22 0.500000 0.576643 0.544422
O O23 0.574565 0.750000 0.548960
#
# Coordination Sequence:
#
# PCOD9501075 Si02
#       8
#    16  16  16  16  16  16   8  16
#     4  10  19  31  47  67  95 127 160 195 230 270
#     4  10  19  30  45  66  97 138 177 214 255 295
#     4   9  18  32  47  65  94 131 164 196 236 282
#     4   9  19  33  50  73  97 123 155 190 232 283
#     4  10  21  39  60  78  98 122 153 194 243 296
#     4  11  21  32  48  72  99 127 162 201 244 294
#     4   8  16  28  40  60  88 122 158 190 220 254
#     4   9  16  26  40  60  89 128 175 220 257 295
#
# _framework density 16.424061999999999
#
# number of rings (size 3 to 8) (size 9 to 14) (size 15 to 20)
#    0.000    2.400    0.000    4.000    0.933    7.467 
#    0.000    0.000    0.000    0.400    0.000    2.800 
#    0.000    0.533    0.000    5.333    0.000    3.467 
#
# Total GULP energy -334457.875525 kJ/mol
# GULP energy per Si atom -5574.297925 kJ/mol
# Density = 1.638668 g / cm^3
# Si number density = 16.424062 Si / 1000 Ang^3
#
#
#
# Elastic Constant Matrix: (Units=GPa)
#
#
# Indices 1 2 3 4 5 6 
#
# 1 54.3737 19.6106 24.0368 0.0000 0.0000 0.0000
# 2 19.6106 45.0007 46.0147 0.0000 0.0000 0.0000
# 3 24.0368 46.0147 109.3615 0.0000 0.0000 0.0000
# 4 0.0000 0.0000 0.0000 29.2032 0.0000 0.0000
# 5 0.0000 0.0000 0.0000 0.0000 13.1238 0.0000
# 6 0.0000 0.0000 0.0000 0.0000 0.0000 17.1616
#
#
#
# Elastic Compliance Matrix: (Units=1/GPa)
#
#
# Indices 1 2 3 4 5 6 
#
# 1 0.021943 -0.008128 -0.001403 0.000000 0.000000 0.000000
# 2 -0.008128 0.042013 -0.015891 0.000000 0.000000 0.000000
# 3 -0.001403 -0.015891 0.016139 0.000000 0.000000 0.000000
# 4 0.000000 0.000000 0.000000 0.034243 0.000000 0.000000
# 5 0.000000 0.000000 0.000000 0.000000 0.076197 0.000000
# 6 0.000000 0.000000 0.000000 0.000000 0.000000 0.058270
#
#
# Mechanical properties :
#
#
# Convention : Reuss Voigt Hill
#
# Bulk Modulus (GPa) = 34.18685 43.11781 38.65233
# Shear Modulus (GPa) = 16.16045 19.83595 17.99820
#
# Velocity S-wave (km/s) = 3.14020 3.47902 3.31394
# Velocity P-wave (km/s) = 5.83165 6.51521 6.18288
#
# Compressibility (1/GPa) = 0.02925101
#
# Stress axis : x y z
#
# Youngs Moduli (GPa) = 45.57298 23.80238 61.96344
#
# Poissons Ratio (x) = 0.19346 0.08694
# Poissons Ratio (y) = 0.37040 0.98465
# Poissons Ratio (z) = 0.06394 0.37824
#
# Static dielectric constant tensor:
#      x y z
#    x 1.556760 0.000000 0.000000 
#    y 0.000000 1.546650 0.000000 
#    z 0.000000 0.000000 1.545530 
# 
# From -- ./inp_files/45035.got.cif
#   From: 2010.05.17/outbox.cif.g08.bks.cpg/sg67_23_cif.got.tgz:45035.got - 2010.06.03 18:28:57.
