data_PCOD9501656
_publ_section_title
;
Structure prediction by ZEFSAII (Michael W. Deem and Ramdas Pophale) SiO2 
 PCOD9501656
Probable space group: C M M A
;
_chemical_formula_sum "Si O2"
_cell_formula_units_Z 96
_cell_length_a 8.662444
_cell_length_b 18.934987
_cell_length_c 31.657092
_cell_angle_alpha 90.000000
_cell_angle_beta 90.000000
_cell_angle_gamma 90.000000
_cell_volume 5192.499575
_symmetry_space_group_name_H-M "C M M A"
_symmetry_group_IT_number 67
_symmetry_cell_setting 'orthorhombic'
loop_
_space_group_symop_operation_xyz
x,y,z
-x,1/2-y,z
x,-y,-z
-x,1/2+y,-z
-x,-y,-z
x,1/2+y,-z
-x,y,z
x,1/2-y,z
1/2+x,1/2+y,z
1/2-x,-y,z
1/2+x,1/2-y,-z
1/2-x,y,-z
1/2-x,1/2-y,-z
1/2+x,y,-z
1/2-x,1/2+y,z
1/2+x,-y,z
loop_
_atom_site_type_symbol
_atom_site_label
_atom_site_fract_x
_atom_site_fract_y
_atom_site_fract_z
Si Si1 0.812011 0.830885 0.626635
Si Si2 0.185843 0.078686 0.454393
Si Si3 0.814436 0.420967 0.291732
Si Si4 0.315033 0.167305 0.213765
Si Si5 0.317182 0.165961 0.877867
Si Si6 0.683858 0.420980 0.044528
O O1 0.758351 0.750000 0.628987
O O2 0.766281 0.869504 0.583350
O O3 0.763300 0.876570 0.667075
O O4 0.000000 0.829651 0.627040
O O5 0.250000 0.101280 0.500000
O O6 0.000000 0.075607 0.456133
O O7 0.250000 0.000000 0.446225
O O8 0.750000 0.500000 0.293452
O O9 0.755751 0.380593 0.250264
O O10 0.000000 0.423315 0.291353
O O11 0.500000 0.162026 0.214191
O O12 0.272750 0.250000 0.220634
O O13 0.252411 0.146290 0.167671
O O14 0.500000 0.151883 0.878111
O O15 0.293388 0.250000 0.882971
O O16 0.237672 0.125184 0.916042
O O17 0.500000 0.423993 0.042097
O O18 0.750000 0.500000 0.049559
O O19 0.750000 0.392997 0.000000
#
# Coordination Sequence:
#
# PCOD9501656 Si02
#       6
#    16  16  16  16  16  16
#     4   9  19  35  55  79 107 141 180 223 273 327
#     4  10  19  33  54  78 107 141 178 221 268 321
#     4  11  22  37  58  82 110 144 184 227 273 327
#     4  10  21  38  59  84 114 145 180 225 276 329
#     4  10  21  38  60  86 115 148 187 229 276 331
#     4  11  22  38  59  83 114 150 190 234 282 333
#
# _framework density 18.488205000000001
#
# number of rings (size 3 to 8) (size 9 to 14) (size 15 to 20)
#    0.000    1.833    0.000    5.500    0.000    4.000 
#    0.000    5.833    0.000    5.500    0.000    0.000 
#    0.000    0.000    0.000    0.000    0.000    0.000 
#
# Total GULP energy -268206.681281 kJ/mol
# GULP energy per Si atom -5587.639193 kJ/mol
# Density = 1.844612 g / cm^3
# Si number density = 18.488205 Si / 1000 Ang^3
#
#
#
# Elastic Constant Matrix: (Units=GPa)
#
#
# Indices 1 2 3 4 5 6 
#
# 1 88.3792 56.0907 71.5092 0.0000 0.0000 0.0000
# 2 56.0907 117.3083 121.2957 0.0000 0.0000 0.0000
# 3 71.5092 121.2957 206.6174 0.0000 0.0000 0.0000
# 4 0.0000 0.0000 0.0000 30.5573 0.0000 0.0000
# 5 0.0000 0.0000 0.0000 0.0000 19.1429 0.0000
# 6 0.0000 0.0000 0.0000 0.0000 0.0000 18.0003
#
#
#
# Elastic Compliance Matrix: (Units=1/GPa)
#
#
# Indices 1 2 3 4 5 6 
#
# 1 0.016860 -0.005161 -0.002806 0.000000 0.000000 0.000000
# 2 -0.005161 0.023271 -0.011875 0.000000 0.000000 0.000000
# 3 -0.002806 -0.011875 0.012782 0.000000 0.000000 0.000000
# 4 0.000000 0.000000 0.000000 0.032725 0.000000 0.000000
# 5 0.000000 0.000000 0.000000 0.000000 0.052239 0.000000
# 6 0.000000 0.000000 0.000000 0.000000 0.000000 0.055555
#
#
# Mechanical properties :
#
#
# Convention : Reuss Voigt Hill
#
# Bulk Modulus (GPa) = 75.58353 101.12179 88.35266
# Shear Modulus (GPa) = 21.05036 24.43406 22.74221
#
# Velocity S-wave (km/s) = 3.37795 3.63933 3.51107
# Velocity P-wave (km/s) = 7.49565 8.51315 8.02055
#
# Compressibility (1/GPa) = 0.01323040
#
# Stress axis : x y z
#
# Youngs Moduli (GPa) = 59.31108 42.97191 78.23307
#
# Poissons Ratio (x) = 0.22176 0.21949
# Poissons Ratio (y) = 0.30608 0.92904
# Poissons Ratio (z) = 0.16641 0.51030
#
# Static dielectric constant tensor:
#      x y z
#    x 1.621340 0.000000 0.000000 
#    y 0.000000 1.613380 0.000000 
#    z 0.000000 0.000000 1.614080 
# 
# From -- ./inp_files/43419.got.cif
#   From: 2010.05.17/outbox.cif.g08.bks.cpg/sg67_22_cif.got.tgz:43419.got - 2010.06.03 18:28:57.
