data_PCOD9501673
_publ_section_title
;
Structure prediction by ZEFSAII (Michael W. Deem and Ramdas Pophale) SiO2 
 PCOD9501673
Probable space group: C M M A
;
_chemical_formula_sum "Si O2"
_cell_formula_units_Z 112
_cell_length_a 21.485460
_cell_length_b 19.218187
_cell_length_c 14.015524
_cell_angle_alpha 90.000000
_cell_angle_beta 90.000000
_cell_angle_gamma 90.000000
_cell_volume 5787.172272
_symmetry_space_group_name_H-M "C M M A"
_symmetry_group_IT_number 67
_symmetry_cell_setting 'orthorhombic'
loop_
_space_group_symop_operation_xyz
x,y,z
-x,1/2-y,z
x,-y,-z
-x,1/2+y,-z
-x,-y,-z
x,1/2+y,-z
-x,y,z
x,1/2-y,z
1/2+x,1/2+y,z
1/2-x,-y,z
1/2+x,1/2-y,-z
1/2-x,y,-z
1/2-x,1/2-y,-z
1/2+x,y,-z
1/2-x,1/2+y,z
1/2+x,-y,z
loop_
_atom_site_type_symbol
_atom_site_label
_atom_site_fract_x
_atom_site_fract_y
_atom_site_fract_z
Si Si1 0.648718 0.084470 0.261825
Si Si2 0.683510 0.168035 0.447422
Si Si3 0.247122 0.084108 0.109101
Si Si4 0.376037 0.577145 0.225844
Si Si5 0.074059 0.172972 0.864984
Si Si6 0.571731 0.926999 0.026597
Si Si7 0.572881 0.832345 0.399898
O O1 0.674885 0.116155 0.359000
O O2 0.696251 0.103676 0.177089
O O3 0.587795 0.124613 0.225773
O O4 0.637454 0.001634 0.261466
O O5 0.683515 0.250000 0.418159
O O6 0.750000 0.155762 0.500000
O O7 0.623408 0.157510 0.515736
O O8 0.185547 0.102730 0.169429
O O9 0.250000 0.000000 0.104269
O O10 0.250000 0.109787 0.000000
O O11 0.424806 0.578375 0.139250
O O12 0.400954 0.623750 0.311262
O O13 0.101142 0.250000 0.853370
O O14 0.000000 0.179899 0.873048
O O15 0.096716 0.135353 0.962257
O O16 0.500000 0.932147 0.996943
O O17 0.604594 0.000000 0.000000
O O18 0.500000 0.850380 0.421402
O O19 0.573837 0.750000 0.377204
#
# Coordination Sequence:
#
# PCOD9501673 Si02
#       7
#    16  16  16  16  16  16  16
#     4  11  21  36  59  88 118 151 192 244 298 358
#     4  10  22  42  66  87 116 158 201 248 307 371
#     4   9  19  33  54  84 121 158 196 236 286 350
#     4  11  21  35  60  87 116 157 198 246 298 357
#     4  10  21  35  54  84 119 154 193 235 283 347
#     4  10  19  33  54  81 115 157 196 231 280 343
#     4  10  23  43  63  86 117 155 204 260 315 373
#
# _framework density 19.353148000000001
#
# number of rings (size 3 to 8) (size 9 to 14) (size 15 to 20)
#    0.000    1.857    1.429    2.571    2.000    2.286 
#    0.000    5.000    0.000    3.000    0.000    0.000 
#    0.000    0.000    0.000    0.000    0.000    0.000 
#
# Total GULP energy -312151.227283 kJ/mol
# GULP energy per Si atom -5574.129059 kJ/mol
# Density = 1.930910 g / cm^3
# Si number density = 19.353148 Si / 1000 Ang^3
#
#
#
# Elastic Constant Matrix: (Units=GPa)
#
#
# Indices 1 2 3 4 5 6 
#
# 1 103.4591 40.5427 47.1652 0.0000 0.0000 0.0000
# 2 40.5427 68.5601 64.9163 0.0000 0.0000 0.0000
# 3 47.1652 64.9163 129.5279 0.0000 0.0000 0.0000
# 4 0.0000 0.0000 0.0000 13.3654 0.0000 0.0000
# 5 0.0000 0.0000 0.0000 0.0000 20.3374 0.0000
# 6 0.0000 0.0000 0.0000 0.0000 0.0000 12.1892
#
#
#
# Elastic Compliance Matrix: (Units=1/GPa)
#
#
# Indices 1 2 3 4 5 6 
#
# 1 0.012763 -0.005989 -0.001646 0.000000 0.000000 0.000000
# 2 -0.005989 0.030568 -0.013139 0.000000 0.000000 0.000000
# 3 -0.001646 -0.013139 0.014905 0.000000 0.000000 0.000000
# 4 0.000000 0.000000 0.000000 0.074820 0.000000 0.000000
# 5 0.000000 0.000000 0.000000 0.000000 0.049171 0.000000
# 6 0.000000 0.000000 0.000000 0.000000 0.000000 0.082040
#
#
# Mechanical properties :
#
#
# Convention : Reuss Voigt Hill
#
# Bulk Modulus (GPa) = 59.92431 67.42173 63.67302
# Shear Modulus (GPa) = 16.05771 19.10660 17.58216
#
# Velocity S-wave (km/s) = 2.88361 3.14548 3.01739
# Velocity P-wave (km/s) = 6.48982 6.93580 6.71651
#
# Compressibility (1/GPa) = 0.01668772
#
# Stress axis : x y z
#
# Youngs Moduli (GPa) = 78.35246 32.71369 67.09248
#
# Poissons Ratio (x) = 0.19592 0.11043
# Poissons Ratio (y) = 0.46924 0.88155
# Poissons Ratio (z) = 0.12896 0.42984
#
# Static dielectric constant tensor:
#      x y z
#    x 1.793650 0.000000 0.000000 
#    y 0.000000 1.698170 0.000000 
#    z 0.000000 0.000000 1.655380 
# 
# From -- ./inp_files/22172.got.cif
#   From: 2010.05.17/outbox.cif.g08.bks.cpg/sg67_12_cif.got.tgz:22172.got - 2010.06.03 18:28:57.
