data_PCOD9501760
_publ_section_title
;
Structure prediction by ZEFSAII (Michael W. Deem and Ramdas Pophale) SiO2 
 PCOD9501760
Probable space group: C M M A
;
_chemical_formula_sum "Si O2"
_cell_formula_units_Z 96
_cell_length_a 8.566007
_cell_length_b 29.642111
_cell_length_c 21.056722
_cell_angle_alpha 90.000000
_cell_angle_beta 90.000000
_cell_angle_gamma 90.000000
_cell_volume 5346.607677
_symmetry_space_group_name_H-M "C M M A"
_symmetry_group_IT_number 67
_symmetry_cell_setting 'orthorhombic'
loop_
_space_group_symop_operation_xyz
x,y,z
-x,1/2-y,z
x,-y,-z
-x,1/2+y,-z
-x,-y,-z
x,1/2+y,-z
-x,y,z
x,1/2-y,z
1/2+x,1/2+y,z
1/2-x,-y,z
1/2+x,1/2-y,-z
1/2-x,y,-z
1/2-x,1/2-y,-z
1/2+x,y,-z
1/2-x,1/2+y,z
1/2+x,-y,z
loop_
_atom_site_type_symbol
_atom_site_label
_atom_site_fract_x
_atom_site_fract_y
_atom_site_fract_z
Si Si1 0.687183 0.197801 0.070447
Si Si2 0.685932 0.951939 0.763850
Si Si3 0.812624 0.639534 0.814193
Si Si4 0.309660 0.198269 0.692081
Si Si5 0.687241 0.451908 0.620244
Si Si6 0.811744 0.643642 0.567729
O O1 0.500000 0.194623 0.070782
O O2 0.730661 0.250000 0.085177
O O3 0.758025 0.164850 0.122740
O O4 0.750000 0.187870 0.000000
O O5 0.500000 0.953576 0.759831
O O6 0.741505 0.909963 0.805511
O O7 0.754250 0.945926 0.692625
O O8 0.750000 0.000000 0.787354
O O9 0.761530 0.669321 0.753190
O O10 0.000000 0.636349 0.812962
O O11 0.500000 0.198439 0.691930
O O12 0.257197 0.250000 0.695911
O O13 0.259479 0.174086 0.627070
O O14 0.500000 0.453344 0.621296
O O15 0.750000 0.500000 0.596641
O O16 0.738268 0.408055 0.581080
O O17 0.750000 0.659235 0.500000
O O18 0.000000 0.644327 0.566926
#
# Coordination Sequence:
#
# PCOD9501760 Si02
#       6
#    16  16  16  16  16  16
#     4  10  21  37  57  86 123 159 196 235 278 329
#     4  11  21  34  55  83 113 145 182 227 279 333
#     4  11  20  35  59  86 115 148 189 232 280 333
#     4   9  18  34  55  77 104 140 182 226 274 330
#     4  10  19  34  53  76 104 136 175 224 278 338
#     4  10  21  36  52  73 103 138 181 227 278 335
#
# _framework density 17.955310999999998
#
# number of rings (size 3 to 8) (size 9 to 14) (size 15 to 20)
#    0.000    1.833    1.667    4.500    0.000    3.667 
#    0.000    1.667    0.000    2.500    0.000    3.500 
#    0.000    0.000    0.000    0.000    0.000    0.000 
#
# Total GULP energy -268107.941443 kJ/mol
# GULP energy per Si atom -5585.582113 kJ/mol
# Density = 1.791444 g / cm^3
# Si number density = 17.955311 Si / 1000 Ang^3
#
#
#
# Elastic Constant Matrix: (Units=GPa)
#
#
# Indices 1 2 3 4 5 6 
#
# 1 51.0762 28.4817 19.7507 0.0000 0.0000 0.0000
# 2 28.4817 134.3711 69.1658 0.0000 0.0000 0.0000
# 3 19.7507 69.1658 100.7414 0.0000 0.0000 0.0000
# 4 0.0000 0.0000 0.0000 178.2384 0.0000 0.0000
# 5 0.0000 0.0000 0.0000 0.0000 27.5999 0.0000
# 6 0.0000 0.0000 0.0000 0.0000 0.0000 20.5920
#
#
#
# Elastic Compliance Matrix: (Units=1/GPa)
#
#
# Indices 1 2 3 4 5 6 
#
# 1 0.022401 -0.003847 -0.001750 0.000000 0.000000 0.000000
# 2 -0.003847 0.012170 -0.007601 0.000000 0.000000 0.000000
# 3 -0.001750 -0.007601 0.015489 0.000000 0.000000 0.000000
# 4 0.000000 0.000000 0.000000 0.005610 0.000000 0.000000
# 5 0.000000 0.000000 0.000000 0.000000 0.036232 0.000000
# 6 0.000000 0.000000 0.000000 0.000000 0.000000 0.048563
#
#
# Mechanical properties :
#
#
# Convention : Reuss Voigt Hill
#
# Bulk Modulus (GPa) = 42.26280 57.88723 50.07502
# Shear Modulus (GPa) = 28.61234 56.53877 42.57555
#
# Velocity S-wave (km/s) = 3.99624 5.61756 4.87478
# Velocity P-wave (km/s) = 6.69941 8.62471 7.72229
#
# Compressibility (1/GPa) = 0.02366147
#
# Stress axis : x y z
#
# Youngs Moduli (GPa) = 44.64139 82.16740 64.56398
#
# Poissons Ratio (x) = 0.31611 0.11302
# Poissons Ratio (y) = 0.17174 0.49078
# Poissons Ratio (z) = 0.07814 0.62459
#
# Static dielectric constant tensor:
#      x y z
#    x 1.607370 0.000000 0.000000 
#    y 0.000000 1.618690 0.000000 
#    z 0.000000 0.000000 1.584210 
# 
# From -- ./inp_files/37164.got.cif
#   From: 2010.05.17/outbox.cif.g08.bks.cpg/sg67_19_cif.got.tgz:37164.got - 2010.06.03 18:28:57.
