data_PCOD9501571
_publ_section_title
;
Structure prediction by ZEFSAII (Michael W. Deem and Ramdas Pophale) SiO2 
 PCOD9501571
Probable space group: C M M A
;
_chemical_formula_sum "Si O2"
_cell_formula_units_Z 104
_cell_length_a 27.478947
_cell_length_b 8.825977
_cell_length_c 24.446306
_cell_angle_alpha 90.000000
_cell_angle_beta 90.000000
_cell_angle_gamma 90.000000
_cell_volume 5928.927250
_symmetry_space_group_name_H-M "C M M A"
_symmetry_group_IT_number 67
_symmetry_cell_setting 'orthorhombic'
loop_
_space_group_symop_operation_xyz
x,y,z
-x,1/2-y,z
x,-y,-z
-x,1/2+y,-z
-x,-y,-z
x,1/2+y,-z
-x,y,z
x,1/2-y,z
1/2+x,1/2+y,z
1/2-x,-y,z
1/2+x,1/2-y,-z
1/2-x,y,-z
1/2-x,1/2-y,-z
1/2+x,y,-z
1/2-x,1/2+y,z
1/2+x,-y,z
loop_
_atom_site_type_symbol
_atom_site_label
_atom_site_fract_x
_atom_site_fract_y
_atom_site_fract_z
Si Si1 0.608205 0.070731 0.837271
Si Si2 0.801627 0.431721 0.773533
Si Si3 0.407253 0.928292 0.621448
Si Si4 0.056811 0.068772 0.941115
Si Si5 0.500000 0.069299 0.560353
Si Si6 0.057331 0.922526 0.725704
Si Si7 0.698270 0.067336 0.354815
O O1 0.614770 0.250000 0.845437
O O2 0.568746 0.049067 0.788865
O O3 0.656460 0.998259 0.811575
O O4 0.589655 0.995217 0.892571
O O5 0.801416 0.250000 0.776094
O O6 0.750000 0.500000 0.790654
O O7 0.808091 0.476252 0.709401
O O8 0.410906 0.750000 0.609442
O O9 0.351070 0.978456 0.613276
O O10 0.450637 0.013343 0.590232
O O11 0.417585 0.959519 0.685475
O O12 0.060172 0.250000 0.943209
O O13 0.000000 0.027604 0.930796
O O14 0.070132 0.000000 0.000000
O O15 0.500000 0.250000 0.559170
O O16 0.500000 0.000000 0.500000
O O17 0.074266 0.750000 0.712877
O O18 0.000000 0.928331 0.715980
O O19 0.700929 0.250000 0.356831
O O20 0.750000 0.000000 0.373431
#
# Coordination Sequence:
#
# PCOD9501571 Si02
#       7
#    16  16  16  16   8  16  16
#     4  11  21  33  52  78 109 145 183 226 277 335
#     4  10  19  33  50  75 109 146 185 227 275 331
#     4  11  21  36  57  85 117 152 189 235 283 333
#     4  10  21  37  56  77 103 139 182 229 278 330
#     4  12  26  44  64  88 116 156 199 238 283 336
#     4  10  20  32  48  76 112 149 184 223 275 333
#     4   9  19  33  53  81 115 152 191 231 281 337
#
# _framework density 17.541115999999999
#
# number of rings (size 3 to 8) (size 9 to 14) (size 15 to 20)
#    0.000    1.692    2.308    3.000    0.000    4.000 
#    0.000    0.000    0.000    0.923    0.000    6.462 
#    0.000    0.000    0.000    0.000    0.000    0.000 
#
# Total GULP energy -290207.741237 kJ/mol
# GULP energy per Si atom -5580.918101 kJ/mol
# Density = 1.750119 g / cm^3
# Si number density = 17.541116 Si / 1000 Ang^3
#
#
#
# Elastic Constant Matrix: (Units=GPa)
#
#
# Indices 1 2 3 4 5 6 
#
# 1 135.2003 47.4604 43.5996 0.0000 0.0000 0.0000
# 2 47.4604 64.6991 30.3984 0.0000 0.0000 0.0000
# 3 43.5996 30.3984 60.5780 0.0000 0.0000 0.0000
# 4 0.0000 0.0000 0.0000 27.6222 0.0000 0.0000
# 5 0.0000 0.0000 0.0000 0.0000 13.1635 0.0000
# 6 0.0000 0.0000 0.0000 0.0000 0.0000 28.8637
#
#
#
# Elastic Compliance Matrix: (Units=1/GPa)
#
#
# Indices 1 2 3 4 5 6 
#
# 1 0.011039 -0.005712 -0.005079 0.000000 0.000000 0.000000
# 2 -0.005712 0.023179 -0.007521 0.000000 0.000000 0.000000
# 3 -0.005079 -0.007521 0.023937 0.000000 0.000000 0.000000
# 4 0.000000 0.000000 0.000000 0.036203 0.000000 0.000000
# 5 0.000000 0.000000 0.000000 0.000000 0.075967 0.000000
# 6 0.000000 0.000000 0.000000 0.000000 0.000000 0.034646
#
#
# Mechanical properties :
#
#
# Convention : Reuss Voigt Hill
#
# Bulk Modulus (GPa) = 46.44054 55.93269 51.18662
# Shear Modulus (GPa) = 20.09865 23.19782 21.64824
#
# Velocity S-wave (km/s) = 3.38864 3.64054 3.51685
# Velocity P-wave (km/s) = 6.46864 7.04466 6.76278
#
# Compressibility (1/GPa) = 0.02153291
#
# Stress axis : x y z
#
# Youngs Moduli (GPa) = 90.58501 43.14162 41.77577
#
# Poissons Ratio (x) = 0.24640 0.21219
# Poissons Ratio (y) = 0.51738 0.31419
# Poissons Ratio (z) = 0.46010 0.32446
#
# Static dielectric constant tensor:
#      x y z
#    x 1.614480 0.000000 0.000000 
#    y 0.000000 1.603680 0.000000 
#    z 0.000000 0.000000 1.575110 
# 
# From -- ./inp_files/39947.got.cif
#   From: 2010.05.17/outbox.cif.g08.bks.cpg/sg67_20_cif.got.tgz:39947.got - 2010.06.03 18:28:57.
