data_PCOD9501573
_publ_section_title
;
Structure prediction by ZEFSAII (Michael W. Deem and Ramdas Pophale) SiO2 
 PCOD9501573
Probable space group: C M M A
;
_chemical_formula_sum "Si O2"
_cell_formula_units_Z 72
_cell_length_a 8.749517
_cell_length_b 26.265431
_cell_length_c 20.556139
_cell_angle_alpha 90.000000
_cell_angle_beta 90.000000
_cell_angle_gamma 90.000000
_cell_volume 4724.002913
_symmetry_space_group_name_H-M "C M M A"
_symmetry_group_IT_number 67
_symmetry_cell_setting 'orthorhombic'
loop_
_space_group_symop_operation_xyz
x,y,z
-x,1/2-y,z
x,-y,-z
-x,1/2+y,-z
-x,-y,-z
x,1/2+y,-z
-x,y,z
x,1/2-y,z
1/2+x,1/2+y,z
1/2-x,-y,z
1/2+x,1/2-y,-z
1/2-x,y,-z
1/2-x,1/2-y,-z
1/2+x,y,-z
1/2-x,1/2+y,z
1/2+x,-y,z
loop_
_atom_site_type_symbol
_atom_site_label
_atom_site_fract_x
_atom_site_fract_y
_atom_site_fract_z
Si Si1 0.815183 0.345443 0.151590
Si Si2 0.316631 0.445486 0.928220
Si Si3 0.317329 0.250000 0.072605
Si Si4 0.186276 0.190726 0.291063
Si Si5 0.177943 0.688125 0.567335
O O1 0.775915 0.399409 0.119633
O O2 0.741830 0.299695 0.110754
O O3 0.768286 0.339890 0.227003
O O4 0.000000 0.339574 0.148559
O O5 0.500000 0.448902 0.932650
O O6 0.250000 0.500000 0.907383
O O7 0.250000 0.434774 0.000000
O O8 0.500000 0.250000 0.069786
O O9 0.250000 0.250000 0.000000
O O10 0.231026 0.250000 0.282158
O O11 0.241645 0.172173 0.361977
O O12 0.000000 0.190381 0.294075
O O13 0.189060 0.750000 0.568044
O O14 0.250000 0.669948 0.500000
O O15 0.000000 0.674975 0.565305
#
# Coordination Sequence:
#
# PCOD9501573 Si02
#       5
#    16  16   8  16  16
#     4  10  19  33  51  68  88 118 152 185 221 268
#     4  10  20  33  51  69  86 112 145 185 230 268
#     4  12  24  34  46  66  91 120 149 182 223 264
#     4   8  13  24  43  61  83 115 148 177 210 257
#     4   8  13  21  35  55  78 111 146 175 206 243
#
# _framework density 15.241311
#
# number of rings (size 3 to 8) (size 9 to 14) (size 15 to 20)
#    0.000    2.667    1.111    4.333    0.000    3.556 
#    0.000    1.111    0.000    0.000    0.000    0.000 
#    0.000    0.889    0.000   11.111    0.000    0.444 
#
# Total GULP energy -200503.532749 kJ/mol
# GULP energy per Si atom -5569.542576 kJ/mol
# Density = 1.520662 g / cm^3
# Si number density = 15.241311 Si / 1000 Ang^3
#
#
#
# Elastic Constant Matrix: (Units=GPa)
#
#
# Indices 1 2 3 4 5 6 
#
# 1 28.2561 30.5680 42.0281 0.0000 0.0000 0.0000
# 2 30.5680 86.8527 79.5916 0.0000 0.0000 0.0000
# 3 42.0281 79.5916 175.6135 0.0000 0.0000 0.0000
# 4 0.0000 0.0000 0.0000 12.1186 0.0000 0.0000
# 5 0.0000 0.0000 0.0000 0.0000 18.6683 0.0000
# 6 0.0000 0.0000 0.0000 0.0000 0.0000 14.2180
#
#
#
# Elastic Compliance Matrix: (Units=1/GPa)
#
#
# Indices 1 2 3 4 5 6 
#
# 1 0.064167 -0.014557 -0.008759 0.000000 0.000000 0.000000
# 2 -0.014557 0.022995 -0.006938 0.000000 0.000000 0.000000
# 3 -0.008759 -0.006938 0.010935 0.000000 0.000000 0.000000
# 4 0.000000 0.000000 0.000000 0.082518 0.000000 0.000000
# 5 0.000000 0.000000 0.000000 0.000000 0.053567 0.000000
# 6 0.000000 0.000000 0.000000 0.000000 0.000000 0.070334
#
#
# Mechanical properties :
#
#
# Convention : Reuss Voigt Hill
#
# Bulk Modulus (GPa) = 26.60361 66.12196 46.36278
# Shear Modulus (GPa) = 13.24318 18.23660 15.73989
#
# Velocity S-wave (km/s) = 2.95091 3.46283 3.21707
# Velocity P-wave (km/s) = 5.39475 7.71141 6.65467
#
# Compressibility (1/GPa) = 0.03758889
#
# Stress axis : x y z
#
# Youngs Moduli (GPa) = 15.58441 43.48745 91.44929
#
# Poissons Ratio (x) = 0.63304 0.80100
# Poissons Ratio (y) = 0.22686 0.63448
# Poissons Ratio (z) = 0.13650 0.30172
#
# Static dielectric constant tensor:
#      x y z
#    x 1.530040 0.000000 0.000000 
#    y 0.000000 1.477560 0.000000 
#    z 0.000000 0.000000 1.540100 
# 
# From -- ./inp_files/37065.got.cif
#   From: 2010.05.17/outbox.cif.g08.bks.cpg/sg67_19_cif.got.tgz:37065.got - 2010.06.03 18:28:57.
