data_PCOD9501521
_publ_section_title
;
Structure prediction by ZEFSAII (Michael W. Deem and Ramdas Pophale) SiO2 
 PCOD9501521
Probable space group: C M M A
;
_chemical_formula_sum "Si O2"
_cell_formula_units_Z 116
_cell_length_a 19.847267
_cell_length_b 18.859924
_cell_length_c 15.236085
_cell_angle_alpha 90.000000
_cell_angle_beta 90.000000
_cell_angle_gamma 90.000000
_cell_volume 5703.140061
_symmetry_space_group_name_H-M "C M M A"
_symmetry_group_IT_number 67
_symmetry_cell_setting 'orthorhombic'
loop_
_space_group_symop_operation_xyz
x,y,z
-x,1/2-y,z
x,-y,-z
-x,1/2+y,-z
-x,-y,-z
x,1/2+y,-z
-x,y,z
x,1/2-y,z
1/2+x,1/2+y,z
1/2-x,-y,z
1/2+x,1/2-y,-z
1/2-x,y,-z
1/2-x,1/2-y,-z
1/2+x,y,-z
1/2-x,1/2+y,z
1/2+x,-y,z
loop_
_atom_site_type_symbol
_atom_site_label
_atom_site_fract_x
_atom_site_fract_y
_atom_site_fract_z
Si Si1 0.418657 0.830577 0.970969
Si Si2 0.368653 0.575472 0.809150
Si Si3 0.922809 0.046339 0.089391
Si Si4 0.120484 0.641358 0.647353
Si Si5 0.678152 0.380953 0.464723
Si Si6 0.000000 0.250000 0.318199
Si Si7 0.423135 0.521438 0.634606
Si Si8 0.733848 0.829533 0.716713
O O1 0.500000 0.830576 0.970326
O O2 0.394552 0.750000 0.973611
O O3 0.395682 0.871587 0.883805
O O4 0.400067 0.876713 0.056715
O O5 0.371600 0.496988 0.850612
O O6 0.416073 0.566736 0.724319
O O7 0.299632 0.608840 0.774573
O O8 0.000000 0.048637 0.125943
O O9 0.927660 0.000000 0.000000
O O10 0.141746 0.657329 0.545991
O O11 0.058999 0.688630 0.677745
O O12 0.100662 0.558719 0.650908
O O13 0.187494 0.656662 0.702688
O O14 0.750000 0.408974 0.500000
O O15 0.627957 0.441276 0.431751
O O16 0.698287 0.335336 0.379363
O O17 0.500000 0.522540 0.604259
O O18 0.722154 0.750000 0.751354
#
# Coordination Sequence:
#
# PCOD9501521 Si02
#       8
#    16  16  16  16  16   4  16  16
#     4   9  16  28  52  85 126 170 210 244 288 350
#     4  10  19  32  53  82 122 162 199 245 301 345
#     4   8  14  27  49  78 117 163 203 240 284 346
#     4  11  23  39  60  77 109 152 207 250 313 372
#     4   9  22  37  58  83 116 153 198 255 313 376
#     4  12  24  40  60  80 104 156 196 266 314 368
#     4  11  22  36  56  86 115 152 204 263 309 352
#     4  10  21  37  56  83 115 155 201 252 305 373
#
# _framework density 20.339673000000001
#
# number of rings (size 3 to 8) (size 9 to 14) (size 15 to 20)
#    0.000    2.207    1.379    2.897    1.931    8.000 
#    0.000    0.000    1.517    2.483    0.000   17.379 
#    0.000   14.345    0.000    1.379    0.828    0.000 
#
# Total GULP energy -323159.580888 kJ/mol
# GULP energy per Si atom -5571.716912 kJ/mol
# Density = 2.029338 g / cm^3
# Si number density = 20.339673 Si / 1000 Ang^3
#
#
#
# Elastic Constant Matrix: (Units=GPa)
#
#
# Indices 1 2 3 4 5 6 
#
# 1 113.6856 48.4273 37.1063 0.0000 0.0000 0.0000
# 2 48.4273 123.8802 43.3646 0.0000 0.0000 0.0000
# 3 37.1063 43.3646 67.1752 0.0000 0.0000 0.0000
# 4 0.0000 0.0000 0.0000 15.4538 0.0000 0.0000
# 5 0.0000 0.0000 0.0000 0.0000 16.3907 0.0000
# 6 0.0000 0.0000 0.0000 0.0000 0.0000 -17.6945
#
#
#
# Elastic Compliance Matrix: (Units=1/GPa)
#
#
# Indices 1 2 3 4 5 6 
#
# 1 0.011502 -0.002936 -0.004458 0.000000 0.000000 0.000000
# 2 -0.002936 0.011178 -0.005594 0.000000 0.000000 0.000000
# 3 -0.004458 -0.005594 0.020961 0.000000 0.000000 0.000000
# 4 0.000000 0.000000 0.000000 0.064709 0.000000 0.000000
# 5 0.000000 0.000000 0.000000 0.000000 0.061010 0.000000
# 6 0.000000 0.000000 0.000000 0.000000 0.000000 -0.056515
#
#
# Mechanical properties :
#
#
# Convention : Reuss Voigt Hill
#
# Bulk Modulus (GPa) = 56.61273 62.50414 59.55844
# Shear Modulus (GPa) = 34.55189 14.55286 24.55238
#
# Velocity S-wave (km/s) = 4.12605 2.67777 3.47813
# Velocity P-wave (km/s) = 7.11289 6.35275 6.74354
#
# Compressibility (1/GPa) = 0.01766387
#
# Stress axis : x y z
#
# Youngs Moduli (GPa) = 86.94231 89.45902 47.70848
#
# Poissons Ratio (x) = 0.26262 0.21270
# Poissons Ratio (y) = 0.25523 0.26690
# Poissons Ratio (z) = 0.38761 0.50048
#
# Static dielectric constant tensor:
#      x y z
#    x 1.679860 0.000000 0.000000 
#    y 0.000000 1.735550 0.000000 
#    z 0.000000 0.000000 1.777980 
# 
# From -- ./inp_files/34366.got.cif
#   From: 2010.05.17/outbox.cif.g08.bks.cpg/sg67_18_cif.got.tgz:34366.got - 2010.06.03 18:28:57.
