data_PCOD9501193
_publ_section_title
;
Structure prediction by ZEFSAII (Michael W. Deem and Ramdas Pophale) SiO2 
 PCOD9501193
Probable space group: C M M A
;
_chemical_formula_sum "Si O2"
_cell_formula_units_Z 112
_cell_length_a 7.509553
_cell_length_b 18.859632
_cell_length_c 38.257671
_cell_angle_alpha 90.000000
_cell_angle_beta 90.000000
_cell_angle_gamma 90.000000
_cell_volume 5418.334706
_symmetry_space_group_name_H-M "C M M A"
_symmetry_group_IT_number 67
_symmetry_cell_setting 'orthorhombic'
loop_
_space_group_symop_operation_xyz
x,y,z
-x,1/2-y,z
x,-y,-z
-x,1/2+y,-z
-x,-y,-z
x,1/2+y,-z
-x,y,z
x,1/2-y,z
1/2+x,1/2+y,z
1/2-x,-y,z
1/2+x,1/2-y,-z
1/2-x,y,-z
1/2-x,1/2-y,-z
1/2+x,y,-z
1/2-x,1/2+y,z
1/2+x,-y,z
loop_
_atom_site_type_symbol
_atom_site_label
_atom_site_fract_x
_atom_site_fract_y
_atom_site_fract_z
Si Si1 0.286458 0.583001 0.104799
Si Si2 0.712722 0.831393 0.462437
Si Si3 0.713363 0.416679 0.681607
Si Si4 0.786520 0.169238 0.038415
Si Si5 0.282769 0.666880 0.386213
Si Si6 0.281854 0.668077 0.250053
Si Si7 0.713489 0.416684 0.817657
O O1 0.500000 0.592476 0.105641
O O2 0.250000 0.500000 0.099999
O O3 0.217087 0.626284 0.071657
O O4 0.218502 0.602787 0.143553
O O5 0.500000 0.827715 0.460207
O O6 0.781763 0.750000 0.464165
O O7 0.750000 0.866145 0.500000
O O8 0.774832 0.859633 0.424808
O O9 0.500000 0.408063 0.681420
O O10 0.750000 0.500000 0.682806
O O11 0.781183 0.379769 0.646160
O O12 0.778343 0.376174 0.716179
O O13 0.717755 0.250000 0.038756
O O14 0.000000 0.172258 0.041579
O O15 0.750000 0.138090 0.000000
O O16 0.500000 0.665397 0.385647
O O17 0.233272 0.750000 0.382511
O O18 0.500000 0.666911 0.249919
O O19 0.228211 0.750000 0.252037
O O20 0.220623 0.630372 0.214423
O O21 0.500000 0.408521 0.818496
O O22 0.750000 0.500000 0.811754
#
# Coordination Sequence:
#
# PCOD9501193 Si02
#       7
#    16  16  16  16  16  16  16
#     4   9  18  31  47  68  93 121 151 184 223 266
#     4   8  13  22  38  61  86 110 139 177 220 262
#     4  10  19  31  48  68  91 119 150 184 222 265
#     4   9  18  32  48  66  89 118 152 189 229 270
#     4   8  14  26  45  66  87 115 151 186 218 258
#     4   9  17  29  48  73  94 115 150 190 221 255
#     4   9  17  30  48  69  94 122 150 182 221 265
#
# _framework density 20.670558
#
# number of rings (size 3 to 8) (size 9 to 14) (size 15 to 20)
#    0.000    3.143    0.000    1.714    0.000    3.143 
#    0.000    5.000    0.000    4.286    0.000    7.000 
#    0.000    0.000    0.000    0.000    0.000    0.000 
#
# Total GULP energy -312200.997144 kJ/mol
# GULP energy per Si atom -5575.017806 kJ/mol
# Density = 2.062351 g / cm^3
# Si number density = 20.670558 Si / 1000 Ang^3
#
#
#
# Elastic Constant Matrix: (Units=GPa)
#
#
# Indices 1 2 3 4 5 6 
#
# 1 54.7598 -1.4520 10.1619 0.0000 0.0000 0.0000
# 2 -1.4520 100.6494 123.5033 0.0000 0.0000 0.0000
# 3 10.1619 123.5033 272.9212 0.0000 0.0000 0.0000
# 4 0.0000 0.0000 0.0000 15.3024 0.0000 0.0000
# 5 0.0000 0.0000 0.0000 0.0000 7.2246 0.0000
# 6 0.0000 0.0000 0.0000 0.0000 0.0000 16.5411
#
#
#
# Elastic Compliance Matrix: (Units=1/GPa)
#
#
# Indices 1 2 3 4 5 6 
#
# 1 0.018669 0.002524 -0.001837 0.000000 0.000000 0.000000
# 2 0.002524 0.022682 -0.010358 0.000000 0.000000 0.000000
# 3 -0.001837 -0.010358 0.008420 0.000000 0.000000 0.000000
# 4 0.000000 0.000000 0.000000 0.065349 0.000000 0.000000
# 5 0.000000 0.000000 0.000000 0.000000 0.138416 0.000000
# 6 0.000000 0.000000 0.000000 0.000000 0.000000 0.060455
#
#
# Mechanical properties :
#
#
# Convention : Reuss Voigt Hill
#
# Bulk Modulus (GPa) = 32.86464 76.97299 54.91882
# Shear Modulus (GPa) = 14.55701 27.55476 21.05588
#
# Velocity S-wave (km/s) = 2.65663 3.65505 3.19508
# Velocity P-wave (km/s) = 5.03428 7.42505 6.34332
#
# Compressibility (1/GPa) = 0.03042784
#
# Stress axis : x y z
#
# Youngs Moduli (GPa) = 53.56358 44.08806 118.76868
#
# Poissons Ratio (x) = -0.11126 0.21819
# Poissons Ratio (y) = -0.13517 1.23021
# Poissons Ratio (z) = 0.09840 0.45667
#
# Static dielectric constant tensor:
#      x y z
#    x 2.054270 0.000000 0.000000 
#    y 0.000000 1.799300 0.000000 
#    z 0.000000 0.000000 1.776790 
# 
# From -- ./inp_files/45607.got.cif
#   From: 2010.05.17/outbox.cif.g08.bks.cpg/sg67_23_cif.got.tgz:45607.got - 2010.06.03 18:28:57.
