data_PCOD9501253
_publ_section_title
;
Structure prediction by ZEFSAII (Michael W. Deem and Ramdas Pophale) SiO2 
 PCOD9501253
Probable space group: C M M A
;
_chemical_formula_sum "Si O2"
_cell_formula_units_Z 104
_cell_length_a 27.728342
_cell_length_b 17.406525
_cell_length_c 12.570004
_cell_angle_alpha 90.000000
_cell_angle_beta 90.000000
_cell_angle_gamma 90.000000
_cell_volume 6066.963694
_symmetry_space_group_name_H-M "C M M A"
_symmetry_group_IT_number 67
_symmetry_cell_setting 'orthorhombic'
loop_
_space_group_symop_operation_xyz
x,y,z
-x,1/2-y,z
x,-y,-z
-x,1/2+y,-z
-x,-y,-z
x,1/2+y,-z
-x,y,z
x,1/2-y,z
1/2+x,1/2+y,z
1/2-x,-y,z
1/2+x,1/2-y,-z
1/2-x,y,-z
1/2-x,1/2-y,-z
1/2+x,y,-z
1/2-x,1/2+y,z
1/2+x,-y,z
loop_
_atom_site_type_symbol
_atom_site_label
_atom_site_fract_x
_atom_site_fract_y
_atom_site_fract_z
Si Si1 0.899490 0.338064 0.018273
Si Si2 0.500000 0.450214 0.297852
Si Si3 0.000000 0.338052 0.898937
Si Si4 0.824680 0.449042 0.900278
Si Si5 0.000000 0.341410 0.500119
Si Si6 0.244964 0.837181 0.870069
Si Si7 0.919009 0.444826 0.399722
Si Si8 0.643901 0.596531 0.215179
O O1 0.882959 0.250000 0.010203
O O2 0.896256 0.364558 0.140100
O O3 0.952407 0.344583 0.970391
O O4 0.863066 0.391178 0.951886
O O5 0.500000 0.406304 0.186493
O O6 0.500000 0.382331 0.385217
O O7 0.546803 0.503022 0.322511
O O8 0.000000 0.250000 0.853289
O O9 0.783835 0.401369 0.840491
O O10 0.849426 0.509321 0.823316
O O11 0.805536 0.500000 0.000000
O O12 0.953322 0.376769 0.441640
O O13 0.000000 0.250000 0.504360
O O14 0.256265 0.750000 0.837683
O O15 0.193373 0.860697 0.820638
O O16 0.250000 0.838238 0.000000
O O17 0.906506 0.500000 0.500000
O O18 0.874438 0.409192 0.335159
#
# Coordination Sequence:
#
# PCOD9501253 Si02
#       8
#    16   8   8  16   8  16  16  16
#     4  10  20  32  45  71 109 143 171 209 255 313
#     4   9  17  36  54  73 102 144 186 224 260 313
#     4  10  20  31  47  73 111 149 177 204 252 322
#     4  10  19  31  50  72 100 138 181 215 249 312
#     4   9  18  33  58  80 101 137 188 240 276 315
#     4  11  20  32  51  76 108 141 173 217 263 317
#     4   9  20  37  55  77 106 136 182 237 279 309
#     4  11  21  32  52  77 102 140 178 217 269 322
#
# _framework density 17.142016999999999
#
# number of rings (size 3 to 8) (size 9 to 14) (size 15 to 20)
#    0.000    2.000    3.077    3.462    0.000    2.462 
#    0.000    5.000    0.000    2.769    0.000    1.077 
#    0.000    0.000    0.000    0.000    0.000    0.000 
#
# Total GULP energy -289867.373489 kJ/mol
# GULP energy per Si atom -5574.372567 kJ/mol
# Density = 1.710300 g / cm^3
# Si number density = 17.142017 Si / 1000 Ang^3
#
#
#
# Elastic Constant Matrix: (Units=GPa)
#
#
# Indices 1 2 3 4 5 6 
#
# 1 75.8411 37.7151 31.5299 0.0000 0.0000 0.0000
# 2 37.7151 121.9969 17.7802 0.0000 0.0000 0.0000
# 3 31.5299 17.7802 42.6027 0.0000 0.0000 0.0000
# 4 0.0000 0.0000 0.0000 13.7346 0.0000 0.0000
# 5 0.0000 0.0000 0.0000 0.0000 23.5185 0.0000
# 6 0.0000 0.0000 0.0000 0.0000 0.0000 13.1081
#
#
#
# Elastic Compliance Matrix: (Units=1/GPa)
#
#
# Indices 1 2 3 4 5 6 
#
# 1 0.021167 -0.004537 -0.013772 0.000000 0.000000 0.000000
# 2 -0.004537 0.009700 -0.000691 0.000000 0.000000 0.000000
# 3 -0.013772 -0.000691 0.033954 0.000000 0.000000 0.000000
# 4 0.000000 0.000000 0.000000 0.072809 0.000000 0.000000
# 5 0.000000 0.000000 0.000000 0.000000 0.042520 0.000000
# 6 0.000000 0.000000 0.000000 0.000000 0.000000 0.076289
#
#
# Mechanical properties :
#
#
# Convention : Reuss Voigt Hill
#
# Bulk Modulus (GPa) = 37.28340 46.05456 41.66898
# Shear Modulus (GPa) = 16.48110 20.29995 18.39052
#
# Velocity S-wave (km/s) = 3.10408 3.44499 3.27897
# Velocity P-wave (km/s) = 5.88592 6.53825 6.22064
#
# Compressibility (1/GPa) = 0.02682159
#
# Stress axis : x y z
#
# Youngs Moduli (GPa) = 47.24320 103.09195 29.45182
#
# Poissons Ratio (x) = 0.46768 0.40562
# Poissons Ratio (y) = 0.21432 0.02035
# Poissons Ratio (z) = 0.65065 0.07122
#
# Static dielectric constant tensor:
#      x y z
#    x 1.603360 0.000000 0.000000 
#    y 0.000000 1.594940 0.000000 
#    z 0.000000 0.000000 1.583200 
# 
# From -- ./inp_files/23020.got.cif
#   From: 2010.05.17/outbox.cif.g08.bks.cpg/sg67_12_cif.got.tgz:23020.got - 2010.06.03 18:28:57.
