data_PCOD9501487
_publ_section_title
;
Structure prediction by ZEFSAII (Michael W. Deem and Ramdas Pophale) SiO2 
 PCOD9501487
Probable space group: C M M A
;
_chemical_formula_sum "Si O2"
_cell_formula_units_Z 116
_cell_length_a 17.984782
_cell_length_b 15.265114
_cell_length_c 22.574604
_cell_angle_alpha 90.000000
_cell_angle_beta 90.000000
_cell_angle_gamma 90.000000
_cell_volume 6197.626082
_symmetry_space_group_name_H-M "C M M A"
_symmetry_group_IT_number 67
_symmetry_cell_setting 'orthorhombic'
loop_
_space_group_symop_operation_xyz
x,y,z
-x,1/2-y,z
x,-y,-z
-x,1/2+y,-z
-x,-y,-z
x,1/2+y,-z
-x,y,z
x,1/2-y,z
1/2+x,1/2+y,z
1/2-x,-y,z
1/2+x,1/2-y,-z
1/2-x,y,-z
1/2-x,1/2-y,-z
1/2+x,y,-z
1/2-x,1/2+y,z
1/2+x,-y,z
loop_
_atom_site_type_symbol
_atom_site_label
_atom_site_fract_x
_atom_site_fract_y
_atom_site_fract_z
Si Si1 0.739072 0.354857 0.224389
Si Si2 0.875396 0.901171 0.005951
Si Si3 0.257515 0.855709 0.091186
Si Si4 0.000000 0.750000 0.019916
Si Si5 0.917280 0.646059 0.280825
Si Si6 0.205020 0.090502 0.346487
Si Si7 0.306591 0.846666 0.553567
Si Si8 0.084467 0.521180 0.396458
O O1 0.740556 0.250000 0.222824
O O2 0.760315 0.385868 0.159178
O O3 0.654042 0.379340 0.241707
O O4 0.792476 0.382979 0.278115
O O5 0.830975 0.877813 0.945712
O O6 0.935485 0.827240 0.018587
O O7 0.812264 0.897522 0.057065
O O8 0.904543 0.000000 0.000000
O O9 0.247475 0.750000 0.089494
O O10 0.909973 0.750000 0.295502
O O11 0.915632 0.586522 0.339315
O O12 0.000000 0.635256 0.253389
O O13 0.255485 0.152071 0.387356
O O14 0.250000 0.000000 0.349620
O O15 0.126270 0.066929 0.375524
O O16 0.341088 0.750000 0.547743
O O17 0.250000 0.861331 0.500000
O O18 0.366119 0.924216 0.557276
O O19 0.000000 0.506515 0.414976
#
# Coordination Sequence:
#
# PCOD9501487 Si02
#       8
#    16  16  16   4  16  16  16  16
#     4  10  19  32  57  85 111 158 195 235 286 340
#     4  11  22  40  63  90 115 162 203 251 311 368
#     4  10  19  38  61  86 119 155 204 254 293 353
#     4  12  22  42  68  78 136 150 198 264 314 376
#     4   9  16  29  48  78 113 143 178 222 275 338
#     4  10  19  32  52  79 112 146 189 230 278 339
#     4  10  20  35  56  81 107 140 188 240 283 341
#     4  10  20  34  55  79 113 147 179 229 290 338
#
# _framework density 18.716843999999998
#
# number of rings (size 3 to 8) (size 9 to 14) (size 15 to 20)
#    0.000    1.931    4.138    2.276    0.000    4.414 
#    1.241    1.379    1.517    2.483    0.000    0.000 
#    0.000    0.000    0.000    0.000    0.000    0.000 
#
# Total GULP energy -322995.022055 kJ/mol
# GULP energy per Si atom -5568.879691 kJ/mol
# Density = 1.867424 g / cm^3
# Si number density = 18.716844 Si / 1000 Ang^3
#
#
#
# Elastic Constant Matrix: (Units=GPa)
#
#
# Indices 1 2 3 4 5 6 
#
# 1 92.9488 17.0338 15.2050 0.0000 0.0000 0.0000
# 2 17.0338 65.2104 2.1162 0.0000 0.0000 0.0000
# 3 15.2050 2.1162 65.9335 0.0000 0.0000 0.0000
# 4 0.0000 0.0000 0.0000 34.2183 0.0000 0.0000
# 5 0.0000 0.0000 0.0000 0.0000 -53.5042 0.0000
# 6 0.0000 0.0000 0.0000 0.0000 0.0000 -66.0436
#
#
#
# Elastic Compliance Matrix: (Units=1/GPa)
#
#
# Indices 1 2 3 4 5 6 
#
# 1 0.011732 -0.002980 -0.002610 0.000000 0.000000 0.000000
# 2 -0.002980 0.016108 0.000170 0.000000 0.000000 0.000000
# 3 -0.002610 0.000170 0.015763 0.000000 0.000000 0.000000
# 4 0.000000 0.000000 0.000000 0.029224 0.000000 0.000000
# 5 0.000000 0.000000 0.000000 0.000000 -0.018690 0.000000
# 6 0.000000 0.000000 0.000000 0.000000 0.000000 -0.015142
#
#
# Mechanical properties :
#
#
# Convention : Reuss Voigt Hill
#
# Bulk Modulus (GPa) = 30.52145 32.53361 31.52753
# Shear Modulus (GPa) = 82.29766 -4.41669 38.94049
#
# Velocity S-wave (km/s) = 6.63817 -1.53781 4.56620
# Velocity P-wave (km/s) = 8.66580 3.77711 6.68441
#
# Compressibility (1/GPa) = 0.03276385
#
# Stress axis : x y z
#
# Youngs Moduli (GPa) = 85.23986 62.08168 63.43898
#
# Poissons Ratio (x) = 0.18499 0.16556
# Poissons Ratio (y) = 0.25399 -0.01080
# Poissons Ratio (z) = 0.22246 -0.01056
#
# Static dielectric constant tensor:
#      x y z
#    x 1.655970 0.000000 0.000000 
#    y 0.000000 1.674140 0.000000 
#    z 0.000000 0.000000 1.675270 
# 
# From -- ./inp_files/42211.got.cif
#   From: 2010.05.17/outbox.cif.g08.bks.cpg/sg67_22_cif.got.tgz:42211.got - 2010.06.03 18:28:57.
