data_PCOD9501654
_publ_section_title
;
Structure prediction by ZEFSAII (Michael W. Deem and Ramdas Pophale) SiO2 
 PCOD9501654
Probable space group: C M M A
;
_chemical_formula_sum "Si O2"
_cell_formula_units_Z 96
_cell_length_a 8.579817
_cell_length_b 19.028908
_cell_length_c 31.801208
_cell_angle_alpha 90.000000
_cell_angle_beta 90.000000
_cell_angle_gamma 90.000000
_cell_volume 5192.009861
_symmetry_space_group_name_H-M "C M M A"
_symmetry_group_IT_number 67
_symmetry_cell_setting 'orthorhombic'
loop_
_space_group_symop_operation_xyz
x,y,z
-x,1/2-y,z
x,-y,-z
-x,1/2+y,-z
-x,-y,-z
x,1/2+y,-z
-x,y,z
x,1/2-y,z
1/2+x,1/2+y,z
1/2-x,-y,z
1/2+x,1/2-y,-z
1/2-x,y,-z
1/2-x,1/2-y,-z
1/2+x,y,-z
1/2-x,1/2+y,z
1/2+x,-y,z
loop_
_atom_site_type_symbol
_atom_site_label
_atom_site_fract_x
_atom_site_fract_y
_atom_site_fract_z
Si Si1 0.809961 0.830638 0.625873
Si Si2 0.187366 0.078483 0.454185
Si Si3 0.686811 0.578980 0.293461
Si Si4 0.313685 0.168172 0.216140
Si Si5 0.312392 0.168153 0.874662
Si Si6 0.812808 0.420865 0.044439
O O1 0.756790 0.750000 0.628329
O O2 0.763113 0.869011 0.582796
O O3 0.759294 0.876421 0.665904
O O4 0.000000 0.829685 0.626339
O O5 0.250000 0.099690 0.500000
O O6 0.000000 0.075889 0.455545
O O7 0.250000 0.000000 0.445525
O O8 0.500000 0.576559 0.294111
O O9 0.750000 0.500000 0.294799
O O10 0.741486 0.619534 0.251853
O O11 0.500000 0.165752 0.218965
O O12 0.263499 0.250000 0.221685
O O13 0.261309 0.145502 0.169521
O O14 0.500000 0.163080 0.871000
O O15 0.271976 0.250000 0.880998
O O16 0.262984 0.123598 0.915041
O O17 0.750000 0.500000 0.048469
O O18 0.000000 0.422140 0.042797
O O19 0.750000 0.392258 0.000000
#
# Coordination Sequence:
#
# PCOD9501654 Si02
#       6
#    16  16  16  16  16  16
#     4   9  19  35  55  79 106 139 178 219 266 319
#     4  10  19  33  54  78 107 140 176 218 262 313
#     4  11  22  37  58  81 108 142 180 222 268 320
#     4  10  21  37  57  82 111 141 176 220 268 319
#     4   9  19  36  56  78 105 140 180 218 261 315
#     4  10  20  34  53  76 104 138 175 217 263 313
#
# _framework density 18.489948999999999
#
# number of rings (size 3 to 8) (size 9 to 14) (size 15 to 20)
#    0.000    2.167    0.000    4.000    0.000    4.333 
#    0.000    4.167    0.000    5.500    0.000    0.000 
#    0.000    0.000    0.000    0.000    0.000    0.000 
#
# Total GULP energy -268025.092405 kJ/mol
# GULP energy per Si atom -5583.856092 kJ/mol
# Density = 1.844787 g / cm^3
# Si number density = 18.489949 Si / 1000 Ang^3
#
#
#
# Elastic Constant Matrix: (Units=GPa)
#
#
# Indices 1 2 3 4 5 6 
#
# 1 41.7351 34.2190 46.0888 0.0000 0.0000 0.0000
# 2 34.2190 126.0532 125.7007 0.0000 0.0000 0.0000
# 3 46.0888 125.7007 202.5502 0.0000 0.0000 0.0000
# 4 0.0000 0.0000 0.0000 42.4073 0.0000 0.0000
# 5 0.0000 0.0000 0.0000 0.0000 15.8135 0.0000
# 6 0.0000 0.0000 0.0000 0.0000 0.0000 18.9210
#
#
#
# Elastic Compliance Matrix: (Units=1/GPa)
#
#
# Indices 1 2 3 4 5 6 
#
# 1 0.032689 -0.003822 -0.005067 0.000000 0.000000 0.000000
# 2 -0.003822 0.021261 -0.012325 0.000000 0.000000 0.000000
# 3 -0.005067 -0.012325 0.013738 0.000000 0.000000 0.000000
# 4 0.000000 0.000000 0.000000 0.023581 0.000000 0.000000
# 5 0.000000 0.000000 0.000000 0.000000 0.063237 0.000000
# 6 0.000000 0.000000 0.000000 0.000000 0.000000 0.052851
#
#
# Mechanical properties :
#
#
# Convention : Reuss Voigt Hill
#
# Bulk Modulus (GPa) = 39.58391 86.92837 63.25614
# Shear Modulus (GPa) = 19.36454 26.38370 22.87412
#
# Velocity S-wave (km/s) = 3.23971 3.78156 3.52107
# Velocity P-wave (km/s) = 5.95392 8.13528 7.12853
#
# Compressibility (1/GPa) = 0.02526279
#
# Stress axis : x y z
#
# Youngs Moduli (GPa) = 30.59126 47.03498 72.78840
#
# Poissons Ratio (x) = 0.17975 0.36878
# Poissons Ratio (y) = 0.11691 0.89709
# Poissons Ratio (z) = 0.15499 0.57969
#
# Static dielectric constant tensor:
#      x y z
#    x 1.628250 0.000000 0.000000 
#    y 0.000000 1.614940 0.000000 
#    z 0.000000 0.000000 1.622970 
# 
# From -- ./inp_files/43421.got.cif
#   From: 2010.05.17/outbox.cif.g08.bks.cpg/sg67_22_cif.got.tgz:43421.got - 2010.06.03 18:28:57.
