data_PCOD9501475
_publ_section_title
;
Structure prediction by ZEFSAII (Michael W. Deem and Ramdas Pophale) SiO2 
 PCOD9501475
Probable space group: C M M A
;
_chemical_formula_sum "Si O2"
_cell_formula_units_Z 96
_cell_length_a 16.536926
_cell_length_b 18.451522
_cell_length_c 16.887217
_cell_angle_alpha 90.000000
_cell_angle_beta 90.000000
_cell_angle_gamma 90.000000
_cell_volume 5152.821076
_symmetry_space_group_name_H-M "C M M A"
_symmetry_group_IT_number 67
_symmetry_cell_setting 'orthorhombic'
loop_
_space_group_symop_operation_xyz
x,y,z
-x,1/2-y,z
x,-y,-z
-x,1/2+y,-z
-x,-y,-z
x,1/2+y,-z
-x,y,z
x,1/2-y,z
1/2+x,1/2+y,z
1/2-x,-y,z
1/2+x,1/2-y,-z
1/2-x,y,-z
1/2-x,1/2-y,-z
1/2+x,y,-z
1/2-x,1/2+y,z
1/2+x,-y,z
loop_
_atom_site_type_symbol
_atom_site_label
_atom_site_fract_x
_atom_site_fract_y
_atom_site_fract_z
Si Si1 0.598432 0.330126 0.166915
Si Si2 0.097978 0.520406 0.088685
Si Si3 0.161689 0.535253 0.751673
Si Si4 0.154574 0.167222 0.514699
Si Si5 0.094981 0.835562 0.659182
Si Si6 0.593895 0.100696 0.329347
O O1 0.500000 0.330015 0.167360
O O2 0.625869 0.250000 0.143576
O O3 0.622414 0.397394 0.111831
O O4 0.624271 0.349638 0.256435
O O5 0.135307 0.470025 0.156877
O O6 0.000000 0.515789 0.094068
O O7 0.122002 0.500000 0.000000
O O8 0.250000 0.500000 0.743334
O O9 0.149658 0.613944 0.714476
O O10 0.104353 0.480673 0.702259
O O11 0.128559 0.250000 0.534205
O O12 0.250000 0.167864 0.500000
O O13 0.111446 0.145851 0.432892
O O14 0.137019 0.116451 0.588732
O O15 0.113539 0.750000 0.667910
O O16 0.000000 0.846463 0.677406
O O17 0.500000 0.117135 0.341232
#
# Coordination Sequence:
#
# PCOD9501475 Si02
#       6
#    16  16  16  16  16  16
#     4   8  14  26  47  76 105 130 163 212 264 309
#     4   9  18  34  55  78 106 139 176 220 269 327
#     4  11  22  37  56  80 108 139 177 224 281 334
#     4  10  20  33  50  77 113 148 182 223 273 323
#     4  10  21  38  58  79 109 150 193 232 269 321
#     4  10  19  32  52  76 102 137 182 227 268 316
#
# _framework density 18.630572000000001
#
# number of rings (size 3 to 8) (size 9 to 14) (size 15 to 20)
#    0.000    2.333    0.000    4.500    0.000    2.667 
#    0.000    7.500    0.000    3.000    0.000    5.833 
#    0.000    0.000    0.000    0.000    0.000    0.000 
#
# Total GULP energy -267835.817374 kJ/mol
# GULP energy per Si atom -5579.912862 kJ/mol
# Density = 1.858817 g / cm^3
# Si number density = 18.630572 Si / 1000 Ang^3
#
#
#
# Elastic Constant Matrix: (Units=GPa)
#
#
# Indices 1 2 3 4 5 6 
#
# 1 45.0614 14.4194 31.0143 0.0000 0.0000 0.0000
# 2 14.4194 77.3830 71.5884 0.0000 0.0000 0.0000
# 3 31.0143 71.5884 147.5450 0.0000 0.0000 0.0000
# 4 0.0000 0.0000 0.0000 13.0376 0.0000 0.0000
# 5 0.0000 0.0000 0.0000 0.0000 11.2776 0.0000
# 6 0.0000 0.0000 0.0000 0.0000 0.0000 20.0029
#
#
#
# Elastic Compliance Matrix: (Units=1/GPa)
#
#
# Indices 1 2 3 4 5 6 
#
# 1 0.025952 0.000383 -0.005641 0.000000 0.000000 0.000000
# 2 0.000383 0.023453 -0.011460 0.000000 0.000000 0.000000
# 3 -0.005641 -0.011460 0.013524 0.000000 0.000000 0.000000
# 4 0.000000 0.000000 0.000000 0.076701 0.000000 0.000000
# 5 0.000000 0.000000 0.000000 0.000000 0.088671 0.000000
# 6 0.000000 0.000000 0.000000 0.000000 0.000000 0.049993
#
#
# Mechanical properties :
#
#
# Convention : Reuss Voigt Hill
#
# Bulk Modulus (GPa) = 33.90689 56.00373 44.95531
# Shear Modulus (GPa) = 15.54917 19.06144 17.30531
#
# Velocity S-wave (km/s) = 2.89209 3.20211 3.05104
# Velocity P-wave (km/s) = 5.42138 6.61791 6.04930
#
# Compressibility (1/GPa) = 0.02949253
#
# Stress axis : x y z
#
# Youngs Moduli (GPa) = 38.53285 42.63820 73.94504
#
# Poissons Ratio (x) = -0.01631 0.41710
# Poissons Ratio (y) = -0.01474 0.84740
# Poissons Ratio (z) = 0.21735 0.48863
#
# Static dielectric constant tensor:
#      x y z
#    x 1.663410 0.000000 0.000000 
#    y 0.000000 1.663640 0.000000 
#    z 0.000000 0.000000 1.617180 
# 
# From -- ./inp_files/27241.got.cif
#   From: 2010.05.17/outbox.cif.g08.bks.cpg/sg67_14_cif.got.tgz:27241.got - 2010.06.03 18:28:57.
