data_PCOD9501554
_publ_section_title
;
Structure prediction by ZEFSAII (Michael W. Deem and Ramdas Pophale) SiO2 
 PCOD9501554
Probable space group: C M M A
;
_chemical_formula_sum "Si O2"
_cell_formula_units_Z 96
_cell_length_a 22.714273
_cell_length_b 20.523445
_cell_length_c 9.998087
_cell_angle_alpha 90.000000
_cell_angle_beta 90.000000
_cell_angle_gamma 90.000000
_cell_volume 4660.859533
_symmetry_space_group_name_H-M "C M M A"
_symmetry_group_IT_number 67
_symmetry_cell_setting 'orthorhombic'
loop_
_space_group_symop_operation_xyz
x,y,z
-x,1/2-y,z
x,-y,-z
-x,1/2+y,-z
-x,-y,-z
x,1/2+y,-z
-x,y,z
x,1/2-y,z
1/2+x,1/2+y,z
1/2-x,-y,z
1/2+x,1/2-y,-z
1/2-x,y,-z
1/2-x,1/2-y,-z
1/2+x,y,-z
1/2-x,1/2+y,z
1/2+x,-y,z
loop_
_atom_site_type_symbol
_atom_site_label
_atom_site_fract_x
_atom_site_fract_y
_atom_site_fract_z
Si Si1 0.164045 0.326832 0.719180
Si Si2 0.106540 0.171921 0.998550
Si Si3 0.129141 0.629786 0.576385
Si Si4 0.401959 0.500000 0.500000
Si Si5 0.500000 0.673479 0.439695
Si Si6 0.000000 0.078210 0.662695
Si Si7 0.000000 0.921461 0.020158
Si Si8 0.710532 0.674579 0.192862
O O1 0.173206 0.250000 0.696294
O O2 0.118282 0.333368 0.840007
O O3 0.142821 0.353118 0.577362
O O4 0.226010 0.355357 0.773369
O O5 0.094299 0.250000 0.027906
O O6 0.055834 0.120185 0.033279
O O7 0.166657 0.152405 0.075632
O O8 0.135104 0.552072 0.582702
O O9 0.061598 0.646297 0.615300
O O10 0.172479 0.667618 0.672816
O O11 0.444466 0.539049 0.601410
O O12 0.500000 0.750000 0.427906
O O13 0.500000 0.648668 0.592716
O O14 0.000000 0.083485 0.819320
O O15 0.000000 0.000000 0.000000
O O16 0.721892 0.750000 0.158865
#
# Coordination Sequence:
#
# PCOD9501554 Si02
#       8
#    16  16  16   8   8   8   8  16
#     4  10  20  38  63  88 115 152 202 252 297 351
#     4  10  22  41  63  89 121 158 199 247 301 365
#     4  11  21  34  58  85 121 156 199 248 295 354
#     4   9  20  36  57  76 116 156 201 231 292 350
#     4  10  19  32  55  89 117 145 186 242 302 351
#     4   9  20  38  54  80 110 160 191 235 286 352
#     4  12  26  38  63  89 123 158 201 243 298 363
#     4  10  21  37  60  89 120 155 194 247 307 354
#
# _framework density 20.597059000000002
#
# number of rings (size 3 to 8) (size 9 to 14) (size 15 to 20)
#    0.000    1.833    0.000    5.250    2.333    6.000 
#    0.000    2.500    0.000    1.000    0.000    0.000 
#    0.000    0.000    0.000    0.000    0.000    0.000 
#
# Total GULP energy -267721.613021 kJ/mol
# GULP energy per Si atom -5577.533605 kJ/mol
# Density = 2.055018 g / cm^3
# Si number density = 20.597059 Si / 1000 Ang^3
#
#
#
# Elastic Constant Matrix: (Units=GPa)
#
#
# Indices 1 2 3 4 5 6 
#
# 1 97.3631 23.9777 11.0692 0.0000 0.0000 0.0000
# 2 23.9777 69.7282 1.4164 0.0000 0.0000 0.0000
# 3 11.0692 1.4164 65.4983 0.0000 0.0000 0.0000
# 4 0.0000 0.0000 0.0000 18.4729 0.0000 0.0000
# 5 0.0000 0.0000 0.0000 0.0000 -17.0760 0.0000
# 6 0.0000 0.0000 0.0000 0.0000 0.0000 -44.5076
#
#
#
# Elastic Compliance Matrix: (Units=1/GPa)
#
#
# Indices 1 2 3 4 5 6 
#
# 1 0.011441 -0.003897 -0.001849 0.000000 0.000000 0.000000
# 2 -0.003897 0.015675 0.000320 0.000000 0.000000 0.000000
# 3 -0.001849 0.000320 0.015573 0.000000 0.000000 0.000000
# 4 0.000000 0.000000 0.000000 0.054133 0.000000 0.000000
# 5 0.000000 0.000000 0.000000 0.000000 -0.058562 0.000000
# 6 0.000000 0.000000 0.000000 0.000000 0.000000 -0.022468
#
#
# Mechanical properties :
#
#
# Convention : Reuss Voigt Hill
#
# Bulk Modulus (GPa) = 31.41076 33.94624 32.67850
# Shear Modulus (GPa) = 134.20334 4.45293 69.32813
#
# Velocity S-wave (km/s) = 8.08072 1.47194 5.80795
# Velocity P-wave (km/s) = 10.11668 4.40519 7.80234
#
# Compressibility (1/GPa) = 0.03183622
#
# Stress axis : x y z
#
# Youngs Moduli (GPa) = 87.40736 63.79648 64.21293
#
# Poissons Ratio (x) = 0.24859 0.11874
# Poissons Ratio (y) = 0.34059 -0.02052
# Poissons Ratio (z) = 0.16164 -0.02039
#
# Static dielectric constant tensor:
#      x y z
#    x 1.807440 0.000000 0.000000 
#    y 0.000000 1.751090 0.000000 
#    z 0.000000 0.000000 1.737050 
# 
# From -- ./inp_files/20929.got.cif
#   From: 2010.05.17/outbox.cif.g08.bks.cpg/sg67_11_cif.got.tgz:20929.got - 2010.06.03 18:28:57.
