data_PCOD9501354
_publ_section_title
;
Structure prediction by ZEFSAII (Michael W. Deem and Ramdas Pophale) SiO2 
 PCOD9501354
Probable space group: C M M A
;
_chemical_formula_sum "Si O2"
_cell_formula_units_Z 104
_cell_length_a 8.315055
_cell_length_b 27.675183
_cell_length_c 24.815280
_cell_angle_alpha 90.000000
_cell_angle_beta 90.000000
_cell_angle_gamma 90.000000
_cell_volume 5710.508830
_symmetry_space_group_name_H-M "C M M A"
_symmetry_group_IT_number 67
_symmetry_cell_setting 'orthorhombic'
loop_
_space_group_symop_operation_xyz
x,y,z
-x,1/2-y,z
x,-y,-z
-x,1/2+y,-z
-x,-y,-z
x,1/2+y,-z
-x,y,z
x,1/2-y,z
1/2+x,1/2+y,z
1/2-x,-y,z
1/2+x,1/2-y,-z
1/2-x,y,-z
1/2-x,1/2-y,-z
1/2+x,y,-z
1/2-x,1/2+y,z
1/2+x,-y,z
loop_
_atom_site_type_symbol
_atom_site_label
_atom_site_fract_x
_atom_site_fract_y
_atom_site_fract_z
Si Si1 0.194376 0.552341 0.234570
Si Si2 0.305426 0.194263 0.059622
Si Si3 0.191283 0.250000 0.561279
Si Si4 0.307675 0.552753 0.640624
Si Si5 0.692703 0.654754 0.375624
Si Si6 0.690082 0.358517 0.164520
Si Si7 0.188850 0.693979 0.736712
O O1 0.250000 0.500000 0.215544
O O2 0.251007 0.557204 0.296775
O O3 0.255782 0.593950 0.194613
O O4 0.000000 0.554612 0.235929
O O5 0.500000 0.194194 0.060814
O O6 0.252876 0.250000 0.068887
O O7 0.244543 0.159677 0.107383
O O8 0.250000 0.179961 0.000000
O O9 0.250000 0.250000 0.500000
O O10 0.251225 0.200512 0.589467
O O11 0.000000 0.250000 0.563525
O O12 0.500000 0.552888 0.640740
O O13 0.250000 0.500000 0.621046
O O14 0.248509 0.600699 0.609775
O O15 0.500000 0.655826 0.374729
O O16 0.752411 0.664584 0.314465
O O17 0.500000 0.366320 0.157123
O O18 0.717769 0.317217 0.208934
O O19 0.199732 0.750000 0.722241
O O20 0.000000 0.682547 0.745251
#
# Coordination Sequence:
#
# PCOD9501354 Si02
#       7
#    16  16   8  16  16  16  16
#     4   9  18  30  46  70 102 135 172 214 261 320
#     4   9  18  32  49  68  93 126 166 212 262 315
#     4  12  26  44  66  90 118 158 201 240 281 332
#     4  10  19  33  53  82 115 153 194 233 283 338
#     4  11  21  37  58  84 119 154 189 235 281 331
#     4  10  19  32  49  72  99 132 172 216 264 322
#     4  10  20  32  47  74 110 143 172 211 267 324
#
# _framework density 18.212036999999999
#
# number of rings (size 3 to 8) (size 9 to 14) (size 15 to 20)
#    0.000    2.000    2.308    2.077    0.000    3.385 
#    0.000    1.538    0.000    0.923    0.000    6.462 
#    0.000    0.000    0.000    0.000    0.000    0.000 
#
# Total GULP energy -289975.515059 kJ/mol
# GULP energy per Si atom -5576.452213 kJ/mol
# Density = 1.817059 g / cm^3
# Si number density = 18.212037 Si / 1000 Ang^3
#
#
#
# Elastic Constant Matrix: (Units=GPa)
#
#
# Indices 1 2 3 4 5 6 
#
# 1 25.2808 23.4827 8.2252 0.0000 0.0000 0.0000
# 2 23.4827 131.9647 41.7594 0.0000 0.0000 0.0000
# 3 8.2252 41.7594 63.8005 0.0000 0.0000 0.0000
# 4 0.0000 0.0000 0.0000 13.4567 0.0000 0.0000
# 5 0.0000 0.0000 0.0000 0.0000 18.9865 0.0000
# 6 0.0000 0.0000 0.0000 0.0000 0.0000 27.8038
#
#
#
# Elastic Compliance Matrix: (Units=1/GPa)
#
#
# Indices 1 2 3 4 5 6 
#
# 1 0.047417 -0.008202 -0.000745 0.000000 0.000000 0.000000
# 2 -0.008202 0.010976 -0.006127 0.000000 0.000000 0.000000
# 3 -0.000745 -0.006127 0.019780 0.000000 0.000000 0.000000
# 4 0.000000 0.000000 0.000000 0.074312 0.000000 0.000000
# 5 0.000000 0.000000 0.000000 0.000000 0.052669 0.000000
# 6 0.000000 0.000000 0.000000 0.000000 0.000000 0.035966
#
#
# Mechanical properties :
#
#
# Convention : Reuss Voigt Hill
#
# Bulk Modulus (GPa) = 20.82205 40.88673 30.85439
# Shear Modulus (GPa) = 17.40490 21.88799 19.64645
#
# Velocity S-wave (km/s) = 3.09476 3.47052 3.28801
# Velocity P-wave (km/s) = 4.92220 6.20955 5.60297
#
# Compressibility (1/GPa) = 0.04802600
#
# Stress axis : x y z
#
# Youngs Moduli (GPa) = 21.08969 91.10714 50.55613
#
# Poissons Ratio (x) = 0.74726 0.03764
# Poissons Ratio (y) = 0.17298 0.30975
# Poissons Ratio (z) = 0.01570 0.55819
#
# Static dielectric constant tensor:
#      x y z
#    x 1.632430 0.000000 0.000000 
#    y 0.000000 1.656290 0.000000 
#    z 0.000000 0.000000 1.616720 
# 
# From -- ./inp_files/40998.got.cif
#   From: 2010.05.17/outbox.cif.g08.bks.cpg/sg67_21_cif.got.tgz:40998.got - 2010.06.03 18:28:57.
