data_PCOD9501843
_publ_section_title
;
Structure prediction by ZEFSAII (Michael W. Deem and Ramdas Pophale) SiO2 
 PCOD9501843
Probable space group: C M M A
;
_chemical_formula_sum "Si O2"
_cell_formula_units_Z 64
_cell_length_a 14.583259
_cell_length_b 16.085088
_cell_length_c 11.840096
_cell_angle_alpha 90.000000
_cell_angle_beta 90.000000
_cell_angle_gamma 90.000000
_cell_volume 2777.366890
_symmetry_space_group_name_H-M "C M M A"
_symmetry_group_IT_number 67
_symmetry_cell_setting 'orthorhombic'
loop_
_space_group_symop_operation_xyz
x,y,z
-x,1/2-y,z
x,-y,-z
-x,1/2+y,-z
-x,-y,-z
x,1/2+y,-z
-x,y,z
x,1/2-y,z
1/2+x,1/2+y,z
1/2-x,-y,z
1/2+x,1/2-y,-z
1/2-x,y,-z
1/2-x,1/2-y,-z
1/2+x,y,-z
1/2-x,1/2+y,z
1/2+x,-y,z
loop_
_atom_site_type_symbol
_atom_site_label
_atom_site_fract_x
_atom_site_fract_y
_atom_site_fract_z
Si Si1 0.611936 0.250000 0.821406
Si Si2 0.645893 0.583999 0.543363
Si Si3 0.610515 0.656929 0.769573
Si Si4 0.351223 0.750000 0.442290
Si Si5 0.388726 0.402973 0.983936
O O1 0.500000 0.250000 0.818304
O O2 0.647715 0.250000 0.693037
O O3 0.639673 0.164144 0.887240
O O4 0.601908 0.500000 0.500000
O O5 0.750000 0.582717 0.500000
O O6 0.646222 0.592783 0.677662
O O7 0.603634 0.666493 0.489579
O O8 0.500000 0.653419 0.765160
O O9 0.639333 0.750000 0.738139
O O10 0.636808 0.638465 0.897114
O O11 0.250000 0.750000 0.500000
O O12 0.500000 0.406221 0.974514
O O13 0.359298 0.500000 0.000000
#
# Coordination Sequence:
#
# PCOD9501843 Si02
#       5
#     8  16  16   8  16
#     4  10  20  35  58  89 121 152 196 240 288 362
#     4  10  22  39  58  80 110 159 201 241 290 347
#     4  10  19  34  58  86 117 150 190 237 290 353
#     4  10  22  39  56  80 116 158 192 243 298 347
#     4   9  18  33  54  84 119 151 182 233 298 349
#
# _framework density 23.043409
#
# number of rings (size 3 to 8) (size 9 to 14) (size 15 to 20)
#    0.000    2.250    2.500    0.000    3.500    1.500 
#    0.000    0.000    0.000   12.000    0.000    0.000 
#    0.000    0.000    0.000    0.000    0.000    0.250 
#
# Total GULP energy -178638.586358 kJ/mol
# GULP energy per Si atom -5582.455824 kJ/mol
# Density = 2.299096 g / cm^3
# Si number density = 23.043409 Si / 1000 Ang^3
#
#
#
# Elastic Constant Matrix: (Units=GPa)
#
#
# Indices 1 2 3 4 5 6 
#
# 1 91.2478 5.9268 4.2438 0.0000 0.0000 0.0000
# 2 5.9268 186.4025 46.6884 0.0000 0.0000 0.0000
# 3 4.2438 46.6884 160.3299 0.0000 0.0000 0.0000
# 4 0.0000 0.0000 0.0000 140.0721 0.0000 0.0000
# 5 0.0000 0.0000 0.0000 0.0000 28.8065 0.0000
# 6 0.0000 0.0000 0.0000 0.0000 0.0000 -11.4871
#
#
#
# Elastic Compliance Matrix: (Units=1/GPa)
#
#
# Indices 1 2 3 4 5 6 
#
# 1 0.010988 -0.000298 -0.000204 0.000000 0.000000 0.000000
# 2 -0.000298 0.005795 -0.001680 0.000000 0.000000 0.000000
# 3 -0.000204 -0.001680 0.006732 0.000000 0.000000 0.000000
# 4 0.000000 0.000000 0.000000 0.007139 0.000000 0.000000
# 5 0.000000 0.000000 0.000000 0.000000 0.034714 0.000000
# 6 0.000000 0.000000 0.000000 0.000000 0.000000 -0.087054
#
#
# Mechanical properties :
#
#
# Convention : Reuss Voigt Hill
#
# Bulk Modulus (GPa) = 52.21701 61.29982 56.75841
# Shear Modulus (GPa) = -457.09810 56.88637 -200.10586
#
# Velocity S-wave (km/s) = -14.09945 4.97395 -9.32884
# Velocity P-wave (km/s) = 15.56759 7.72312 9.55781
#
# Compressibility (1/GPa) = 0.01915085
#
# Stress axis : x y z
#
# Youngs Moduli (GPa) = 91.00817 172.56527 148.55224
#
# Poissons Ratio (x) = 0.05147 0.03030
# Poissons Ratio (y) = 0.02715 0.24951
# Poissons Ratio (z) = 0.01856 0.28984
#
# Static dielectric constant tensor:
#      x y z
#    x 1.863430 0.000000 0.000000 
#    y 0.000000 2.043960 0.000000 
#    z 0.000000 0.000000 1.803630 
# 
# From -- ./inp_files/10713.got.cif
#   From: 2010.05.17/outbox.cif.g08.bks.cpg/sg67_6_cif.got.tgz:10713.got - 2010.06.03 18:28:57.
