data_PCOD9501589
_publ_section_title
;
Structure prediction by ZEFSAII (Michael W. Deem and Ramdas Pophale) SiO2 
 PCOD9501589
Probable space group: C M M A
;
_chemical_formula_sum "Si O2"
_cell_formula_units_Z 80
_cell_length_a 9.100097
_cell_length_b 27.349067
_cell_length_c 17.073912
_cell_angle_alpha 90.000000
_cell_angle_beta 90.000000
_cell_angle_gamma 90.000000
_cell_volume 4249.340920
_symmetry_space_group_name_H-M "C M M A"
_symmetry_group_IT_number 67
_symmetry_cell_setting 'orthorhombic'
loop_
_space_group_symop_operation_xyz
x,y,z
-x,1/2-y,z
x,-y,-z
-x,1/2+y,-z
-x,-y,-z
x,1/2+y,-z
-x,y,z
x,1/2-y,z
1/2+x,1/2+y,z
1/2-x,-y,z
1/2+x,1/2-y,-z
1/2-x,y,-z
1/2-x,1/2-y,-z
1/2+x,y,-z
1/2-x,1/2+y,z
1/2+x,-y,z
loop_
_atom_site_type_symbol
_atom_site_label
_atom_site_fract_x
_atom_site_fract_y
_atom_site_fract_z
Si Si1 0.677186 0.448875 0.283522
Si Si2 0.333770 0.452957 0.882058
Si Si3 0.678776 0.657555 0.690795
Si Si4 0.750000 0.372782 0.000000
Si Si5 0.327415 0.195578 0.142142
Si Si6 0.678116 0.750000 0.584846
O O1 0.500000 0.453058 0.283428
O O2 0.750000 0.500000 0.310365
O O3 0.737893 0.440796 0.194972
O O4 0.720511 0.398577 0.327538
O O5 0.500000 0.465438 0.858345
O O6 0.250000 0.500000 0.915085
O O7 0.339585 0.409988 0.945161
O O8 0.500000 0.657395 0.691768
O O9 0.733523 0.671682 0.778233
O O10 0.722419 0.701069 0.632585
O O11 0.817168 0.337361 0.934725
O O12 0.500000 0.200729 0.157826
O O13 0.264647 0.250000 0.129622
O O14 0.500000 0.750000 0.579428
O O15 0.750000 0.750000 0.500000
#
# Coordination Sequence:
#
# PCOD9501589 Si02
#       6
#    16  16  16   8  16   8
#     4  10  19  34  56  81 109 146 191 235 278 331
#     4  11  23  35  49  71 102 142 188 243 291 330
#     4   9  17  33  59  83 109 146 185 222 268 334
#     4  12  22  32  48  70 104 142 194 238 290 318
#     4  10  19  33  52  73  99 141 192 234 273 330
#     4  10  20  38  66  97 120 144 178 219 274 334
#
# _framework density 18.826449
#
# number of rings (size 3 to 8) (size 9 to 14) (size 15 to 20)
#    0.000    1.800    3.000    3.600    0.000    3.200 
#    0.000    2.000    0.000    0.600    0.000    4.200 
#    0.000    0.000    0.000    0.000    0.000    0.000 
#
# Total GULP energy -222713.561826 kJ/mol
# GULP energy per Si atom -5567.839046 kJ/mol
# Density = 1.878360 g / cm^3
# Si number density = 18.826449 Si / 1000 Ang^3
#
#
#
# Elastic Constant Matrix: (Units=GPa)
#
#
# Indices 1 2 3 4 5 6 
#
# 1 56.7527 33.6359 8.9049 0.0000 0.0000 0.0000
# 2 33.6359 203.1322 62.4057 0.0000 0.0000 0.0000
# 3 8.9049 62.4057 73.9920 0.0000 0.0000 0.0000
# 4 0.0000 0.0000 0.0000 18.5441 0.0000 0.0000
# 5 0.0000 0.0000 0.0000 0.0000 -61.1877 0.0000
# 6 0.0000 0.0000 0.0000 0.0000 0.0000 16.1914
#
#
#
# Elastic Compliance Matrix: (Units=1/GPa)
#
#
# Indices 1 2 3 4 5 6 
#
# 1 0.019552 -0.003394 0.000510 0.000000 0.000000 0.000000
# 2 -0.003394 0.007234 -0.005693 0.000000 0.000000 0.000000
# 3 0.000510 -0.005693 0.018255 0.000000 0.000000 0.000000
# 4 0.000000 0.000000 0.000000 0.053925 0.000000 0.000000
# 5 0.000000 0.000000 0.000000 0.000000 -0.016343 0.000000
# 6 0.000000 0.000000 0.000000 0.000000 0.000000 0.061761
#
#
# Mechanical properties :
#
#
# Convention : Reuss Voigt Hill
#
# Bulk Modulus (GPa) = 35.85992 60.41889 48.13940
# Shear Modulus (GPa) = 29.26827 9.97159 19.61993
#
# Velocity S-wave (km/s) = 3.94716 2.30393 3.23173
# Velocity P-wave (km/s) = 6.31367 6.26416 6.28896
#
# Compressibility (1/GPa) = 0.02788629
#
# Stress axis : x y z
#
# Youngs Moduli (GPa) = 51.14588 138.24055 54.78003
#
# Poissons Ratio (x) = 0.46920 -0.02791
# Poissons Ratio (y) = 0.17359 0.31184
# Poissons Ratio (z) = -0.02606 0.78694
#
# Static dielectric constant tensor:
#      x y z
#    x 1.655880 0.000000 0.000000 
#    y 0.000000 1.770820 0.000000 
#    z 0.000000 0.000000 1.625700 
# 
# From -- ./inp_files/32170.got.cif
#   From: 2010.05.17/outbox.cif.g08.bks.cpg/sg67_17_cif.got.tgz:32170.got - 2010.06.03 18:28:57.
