data_PCOD9501368
_publ_section_title
;
Structure prediction by ZEFSAII (Michael W. Deem and Ramdas Pophale) SiO2 
 PCOD9501368
Probable space group: C M M A
;
_chemical_formula_sum "Si O2"
_cell_formula_units_Z 56
_cell_length_a 8.508349
_cell_length_b 14.732690
_cell_length_c 24.608464
_cell_angle_alpha 90.000000
_cell_angle_beta 90.000000
_cell_angle_gamma 90.000000
_cell_volume 3084.692328
_symmetry_space_group_name_H-M "C M M A"
_symmetry_group_IT_number 67
_symmetry_cell_setting 'orthorhombic'
loop_
_space_group_symop_operation_xyz
x,y,z
-x,1/2-y,z
x,-y,-z
-x,1/2+y,-z
-x,-y,-z
x,1/2+y,-z
-x,y,z
x,1/2-y,z
1/2+x,1/2+y,z
1/2-x,-y,z
1/2+x,1/2-y,-z
1/2-x,y,-z
1/2-x,1/2-y,-z
1/2+x,y,-z
1/2-x,1/2+y,z
1/2+x,-y,z
loop_
_atom_site_type_symbol
_atom_site_label
_atom_site_fract_x
_atom_site_fract_y
_atom_site_fract_z
Si Si1 0.812385 0.750000 0.438842
Si Si2 0.688894 0.397427 0.644360
Si Si3 0.811595 0.101851 0.058143
Si Si4 0.308233 0.750000 0.144164
Si Si5 0.808817 0.250000 0.267925
O O1 0.750000 0.750000 0.500000
O O2 0.750891 0.661745 0.406257
O O3 0.000000 0.750000 0.438468
O O4 0.500000 0.398272 0.642392
O O5 0.750000 0.500000 0.644920
O O6 0.738144 0.338867 0.697524
O O7 0.760031 0.163413 0.108496
O O8 0.000000 0.101392 0.056044
O O9 0.750000 0.000000 0.064374
O O10 0.750000 0.136633 0.000000
O O11 0.500000 0.750000 0.145843
O O12 0.251897 0.750000 0.206067
O O13 0.000000 0.250000 0.266760
#
# Coordination Sequence:
#
# PCOD9501368 Si02
#       5
#     8  16  16   8   8
#     4  11  22  38  59  85 116 145 180 223 265 313
#     4  10  20  36  58  82 110 146 182 219 265 315
#     4  10  19  32  50  71  98 130 167 209 259 314
#     4   9  18  32  51  74 100 134 170 211 262 311
#     4   8  17  34  53  75 105 137 174 218 264 312
#
# _framework density 18.154160999999998
#
# number of rings (size 3 to 8) (size 9 to 14) (size 15 to 20)
#    0.000    2.286    0.000    5.143    0.000    1.714 
#    0.000    5.000    0.000   18.857    0.000    0.000 
#    0.000    0.000    0.000    0.000    0.000    0.000 
#
# Total GULP energy -156257.272064 kJ/mol
# GULP energy per Si atom -5580.616859 kJ/mol
# Density = 1.811284 g / cm^3
# Si number density = 18.154161 Si / 1000 Ang^3
#
#
#
# Elastic Constant Matrix: (Units=GPa)
#
#
# Indices 1 2 3 4 5 6 
#
# 1 71.9850 42.6982 43.1539 0.0000 0.0000 0.0000
# 2 42.6982 171.5145 109.6652 0.0000 0.0000 0.0000
# 3 43.1539 109.6652 211.2068 0.0000 0.0000 0.0000
# 4 0.0000 0.0000 0.0000 8.0510 0.0000 0.0000
# 5 0.0000 0.0000 0.0000 0.0000 20.5282 0.0000
# 6 0.0000 0.0000 0.0000 0.0000 0.0000 18.9053
#
#
#
# Elastic Compliance Matrix: (Units=1/GPa)
#
#
# Indices 1 2 3 4 5 6 
#
# 1 0.016786 -0.002973 -0.001886 0.000000 0.000000 0.000000
# 2 -0.002973 0.009255 -0.004198 0.000000 0.000000 0.000000
# 3 -0.001886 -0.004198 0.007300 0.000000 0.000000 0.000000
# 4 0.000000 0.000000 0.000000 0.124208 0.000000 0.000000
# 5 0.000000 0.000000 0.000000 0.000000 0.048713 0.000000
# 6 0.000000 0.000000 0.000000 0.000000 0.000000 0.052895
#
#
# Mechanical properties :
#
#
# Convention : Reuss Voigt Hill
#
# Bulk Modulus (GPa) = 65.67483 93.97121 79.82302
# Shear Modulus (GPa) = 17.70881 26.77619 22.24250
#
# Velocity S-wave (km/s) = 3.12664 3.84465 3.50408
# Velocity P-wave (km/s) = 7.02063 8.46072 7.77409
#
# Compressibility (1/GPa) = 0.01522653
#
# Stress axis : x y z
#
# Youngs Moduli (GPa) = 59.57409 108.05467 136.99157
#
# Poissons Ratio (x) = 0.32123 0.25838
# Poissons Ratio (y) = 0.17710 0.57507
# Poissons Ratio (z) = 0.11236 0.45360
#
# Static dielectric constant tensor:
#      x y z
#    x 1.614780 0.000000 0.000000 
#    y 0.000000 1.606340 0.000000 
#    z 0.000000 0.000000 1.614850 
# 
# From -- ./inp_files/40402.got.cif
#   From: 2010.05.17/outbox.cif.g08.bks.cpg/sg67_21_cif.got.tgz:40402.got - 2010.06.03 18:28:57.
