data_PCOD9501460
_publ_section_title
;
Structure prediction by ZEFSAII (Michael W. Deem and Ramdas Pophale) SiO2 
 PCOD9501460
Probable space group: C M M A
;
_chemical_formula_sum "Si O2"
_cell_formula_units_Z 96
_cell_length_a 19.666786
_cell_length_b 8.847036
_cell_length_c 31.456721
_cell_angle_alpha 90.000000
_cell_angle_beta 90.000000
_cell_angle_gamma 90.000000
_cell_volume 5473.241825
_symmetry_space_group_name_H-M "C M M A"
_symmetry_group_IT_number 67
_symmetry_cell_setting 'orthorhombic'
loop_
_space_group_symop_operation_xyz
x,y,z
-x,1/2-y,z
x,-y,-z
-x,1/2+y,-z
-x,-y,-z
x,1/2+y,-z
-x,y,z
x,1/2-y,z
1/2+x,1/2+y,z
1/2-x,-y,z
1/2+x,1/2-y,-z
1/2-x,y,-z
1/2-x,1/2-y,-z
1/2+x,y,-z
1/2-x,1/2+y,z
1/2+x,-y,z
loop_
_atom_site_type_symbol
_atom_site_label
_atom_site_fract_x
_atom_site_fract_y
_atom_site_fract_z
Si Si1 0.080174 0.069911 0.367100
Si Si2 0.917218 0.424296 0.543868
Si Si3 0.176507 0.932347 0.046304
Si Si4 0.922348 0.433978 0.876941
Si Si5 0.323973 0.432179 0.198385
Si Si6 0.324129 0.431004 0.296094
O O1 0.087583 0.250000 0.365631
O O2 0.000000 0.033197 0.362703
O O3 0.103308 0.010009 0.413269
O O4 0.122403 0.994466 0.329554
O O5 0.893710 0.500000 0.500000
O O6 0.896390 0.250000 0.545767
O O7 0.000000 0.428460 0.542994
O O8 0.181286 0.750000 0.043843
O O9 0.120311 0.974638 0.081136
O O10 0.250000 0.000000 0.058689
O O11 0.160261 0.000000 0.000000
O O12 0.924275 0.250000 0.875886
O O13 0.880115 0.483055 0.835479
O O14 0.000000 0.487984 0.877499
O O15 0.318999 0.250000 0.196020
O O16 0.250000 0.500000 0.188474
O O17 0.341506 0.472015 0.247143
O O18 0.321087 0.250000 0.298953
O O19 0.250000 0.500000 0.304948
#
# Coordination Sequence:
#
# PCOD9501460 Si02
#       6
#    16  16  16  16  16  16
#     4  10  20  33  50  74 104 136 170 211 257 302
#     4   9  16  27  45  70 100 133 170 211 254 301
#     4  10  19  32  52  74  98 130 167 207 246 290
#     4   9  18  32  50  74 102 131 163 201 248 297
#     4   9  18  33  54  75  96 126 164 205 245 293
#     4  10  20  34  53  76 101 132 169 209 254 304
#
# _framework density 17.53988
#
# number of rings (size 3 to 8) (size 9 to 14) (size 15 to 20)
#    0.000    2.500    0.000    3.000    0.000    4.667 
#    0.000    2.500    0.000    4.500    0.000    3.500 
#    0.000    0.000    0.000    0.000    0.000    0.000 
#
# Total GULP energy -267749.441148 kJ/mol
# GULP energy per Si atom -5578.113357 kJ/mol
# Density = 1.749996 g / cm^3
# Si number density = 17.539880 Si / 1000 Ang^3
#
#
#
# Elastic Constant Matrix: (Units=GPa)
#
#
# Indices 1 2 3 4 5 6 
#
# 1 113.7498 46.7461 114.6409 0.0000 0.0000 0.0000
# 2 46.7461 54.1273 54.0684 0.0000 0.0000 0.0000
# 3 114.6409 54.0684 156.1394 0.0000 0.0000 0.0000
# 4 0.0000 0.0000 0.0000 17.1712 0.0000 0.0000
# 5 0.0000 0.0000 0.0000 0.0000 28.9632 0.0000
# 6 0.0000 0.0000 0.0000 0.0000 0.0000 23.3367
#
#
#
# Elastic Compliance Matrix: (Units=1/GPa)
#
#
# Indices 1 2 3 4 5 6 
#
# 1 0.035492 -0.007065 -0.023613 0.000000 0.000000 0.000000
# 2 -0.007065 0.029652 -0.005080 0.000000 0.000000 0.000000
# 3 -0.023613 -0.005080 0.025501 0.000000 0.000000 0.000000
# 4 0.000000 0.000000 0.000000 0.058237 0.000000 0.000000
# 5 0.000000 0.000000 0.000000 0.000000 0.034527 0.000000
# 6 0.000000 0.000000 0.000000 0.000000 0.000000 0.042851
#
#
# Mechanical properties :
#
#
# Convention : Reuss Voigt Hill
#
# Bulk Modulus (GPa) = 52.27932 83.88080 68.08006
# Shear Modulus (GPa) = 16.43915 21.13161 18.78538
#
# Velocity S-wave (km/s) = 3.06477 3.47475 3.27618
# Velocity P-wave (km/s) = 6.51110 8.00158 7.29451
#
# Compressibility (1/GPa) = 0.01912802
#
# Stress axis : x y z
#
# Youngs Moduli (GPa) = 28.17507 33.72494 39.21474
#
# Poissons Ratio (x) = 0.23828 0.92596
# Poissons Ratio (y) = 0.19907 0.19922
# Poissons Ratio (z) = 0.66529 0.17133
#
# Static dielectric constant tensor:
#      x y z
#    x 1.575290 0.000000 0.000000 
#    y 0.000000 1.588060 0.000000 
#    z 0.000000 0.000000 1.592650 
# 
# From -- ./inp_files/44616.got.cif
#   From: 2010.05.17/outbox.cif.g08.bks.cpg/sg67_23_cif.got.tgz:44616.got - 2010.06.03 18:28:57.
