data_PCOD9501752
_publ_section_title
;
Structure prediction by ZEFSAII (Michael W. Deem and Ramdas Pophale) SiO2 
 PCOD9501752
Probable space group: C M M A
;
_chemical_formula_sum "Si O2"
_cell_formula_units_Z 100
_cell_length_a 29.218949
_cell_length_b 9.055367
_cell_length_c 23.155112
_cell_angle_alpha 90.000000
_cell_angle_beta 90.000000
_cell_angle_gamma 90.000000
_cell_volume 6126.571872
_symmetry_space_group_name_H-M "C M M A"
_symmetry_group_IT_number 67
_symmetry_cell_setting 'orthorhombic'
loop_
_space_group_symop_operation_xyz
x,y,z
-x,1/2-y,z
x,-y,-z
-x,1/2+y,-z
-x,-y,-z
x,1/2+y,-z
-x,y,z
x,1/2-y,z
1/2+x,1/2+y,z
1/2-x,-y,z
1/2+x,1/2-y,-z
1/2-x,y,-z
1/2-x,1/2-y,-z
1/2+x,y,-z
1/2-x,1/2+y,z
1/2+x,-y,z
loop_
_atom_site_type_symbol
_atom_site_label
_atom_site_fract_x
_atom_site_fract_y
_atom_site_fract_z
Si Si1 0.554876 0.575305 0.678177
Si Si2 0.075945 0.422648 0.906633
Si Si3 0.181936 0.921459 0.059329
Si Si4 0.000000 0.500000 0.000000
Si Si5 0.205121 0.925600 0.820814
Si Si6 0.444315 0.420331 0.558698
Si Si7 0.397992 0.426500 0.787558
O O1 0.500000 0.554582 0.683984
O O2 0.563986 0.750000 0.679144
O O3 0.569036 0.506117 0.616724
O O4 0.579699 0.495031 0.730839
O O5 0.063205 0.250000 0.899603
O O6 0.126714 0.426693 0.934020
O O7 0.079792 0.501656 0.844808
O O8 0.039881 0.495239 0.949581
O O9 0.196071 0.750000 0.060307
O O10 0.200097 0.007421 0.114992
O O11 0.194997 0.000000 0.000000
O O12 0.210832 0.750000 0.823762
O O13 0.156565 0.957764 0.790427
O O14 0.250000 0.000000 0.793808
O O15 0.428917 0.500000 0.500000
O O16 0.500000 0.421156 0.557544
O O17 0.429663 0.250000 0.560430
O O18 0.404099 0.250000 0.789247
#
# Coordination Sequence:
#
# PCOD9501752 Si02
#       7
#    16  16  16   4  16  16  16
#     4  10  20  33  50  73 104 142 181 214 249 292
#     4  10  22  36  51  70  94 125 162 204 250 298
#     4  10  19  34  52  71  94 119 147 188 240 296
#     4  12  22  36  52  74  92 124 170 210 254 304
#     4  10  21  37  56  77  96 120 153 196 250 308
#     4   9  16  27  45  70 102 139 179 218 254 290
#     4  10  22  38  55  75 101 130 165 209 255 302
#
# _framework density 16.322341999999999
#
# number of rings (size 3 to 8) (size 9 to 14) (size 15 to 20)
#    0.000    2.080    0.800    2.640    1.120    7.040 
#    0.000    1.600    0.000    0.000    0.000    0.000 
#    0.000    0.640    0.000    6.720    0.000    4.000 
#
# Total GULP energy -278571.941806 kJ/mol
# GULP energy per Si atom -5571.438836 kJ/mol
# Density = 1.628519 g / cm^3
# Si number density = 16.322342 Si / 1000 Ang^3
#
#
#
# Elastic Constant Matrix: (Units=GPa)
#
#
# Indices 1 2 3 4 5 6 
#
# 1 66.3860 28.3801 38.7212 0.0000 0.0000 0.0000
# 2 28.3801 66.6278 57.8963 0.0000 0.0000 0.0000
# 3 38.7212 57.8963 136.2552 0.0000 0.0000 0.0000
# 4 0.0000 0.0000 0.0000 23.7435 0.0000 0.0000
# 5 0.0000 0.0000 0.0000 0.0000 0.2795 0.0000
# 6 0.0000 0.0000 0.0000 0.0000 0.0000 13.4153
#
#
#
# Elastic Compliance Matrix: (Units=1/GPa)
#
#
# Indices 1 2 3 4 5 6 
#
# 1 0.019232 -0.005458 -0.003146 0.000000 0.000000 0.000000
# 2 -0.005458 0.025343 -0.009218 0.000000 0.000000 0.000000
# 3 -0.003146 -0.009218 0.012150 0.000000 0.000000 0.000000
# 4 0.000000 0.000000 0.000000 0.042117 0.000000 0.000000
# 5 0.000000 0.000000 0.000000 0.000000 3.577773 0.000000
# 6 0.000000 0.000000 0.000000 0.000000 0.000000 0.074542
#
#
# Mechanical properties :
#
#
# Convention : Reuss Voigt Hill
#
# Bulk Modulus (GPa) = 47.43483 57.69602 52.56542
# Shear Modulus (GPa) = 1.31793 17.10576 9.21185
#
# Velocity S-wave (km/s) = 0.89955 3.24079 2.37823
# Velocity P-wave (km/s) = 5.49575 7.03052 6.30997
#
# Compressibility (1/GPa) = 0.02108156
#
# Stress axis : x y z
#
# Youngs Moduli (GPa) = 51.99733 39.45854 82.30535
#
# Poissons Ratio (x) = 0.21536 0.25895
# Poissons Ratio (y) = 0.28379 0.75865
# Poissons Ratio (z) = 0.16359 0.36371
#
# Static dielectric constant tensor:
#      x y z
#    x 1.565710 0.000000 0.000000 
#    y 0.000000 1.557130 0.000000 
#    z 0.000000 0.000000 1.512450 
# 
# From -- ./inp_files/40226.got.cif
#   From: 2010.05.17/outbox.cif.g08.bks.cpg/sg67_21_cif.got.tgz:40226.got - 2010.06.03 18:28:57.
