data_PCOD9501985
_publ_section_title
;
Structure prediction by ZEFSAII (Michael W. Deem and Ramdas Pophale) SiO2 
 PCOD9501985
Probable space group: C M M A
;
_chemical_formula_sum "Si O2"
_cell_formula_units_Z 112
_cell_length_a 21.033706
_cell_length_b 24.630212
_cell_length_c 11.206204
_cell_angle_alpha 90.000000
_cell_angle_beta 90.000000
_cell_angle_gamma 90.000000
_cell_volume 5805.538018
_symmetry_space_group_name_H-M "C M M A"
_symmetry_group_IT_number 67
_symmetry_cell_setting 'orthorhombic'
loop_
_space_group_symop_operation_xyz
x,y,z
-x,1/2-y,z
x,-y,-z
-x,1/2+y,-z
-x,-y,-z
x,1/2+y,-z
-x,y,z
x,1/2-y,z
1/2+x,1/2+y,z
1/2-x,-y,z
1/2+x,1/2-y,-z
1/2-x,y,-z
1/2-x,1/2-y,-z
1/2+x,y,-z
1/2-x,1/2+y,z
1/2+x,-y,z
loop_
_atom_site_type_symbol
_atom_site_label
_atom_site_fract_x
_atom_site_fract_y
_atom_site_fract_z
Si Si1 0.384208 0.466336 0.678440
Si Si2 0.113588 0.421058 0.575401
Si Si3 0.704814 0.190139 0.617743
Si Si4 0.931168 0.939798 0.942123
Si Si5 0.755133 0.922491 0.314501
Si Si6 0.073052 0.811195 0.481070
Si Si7 0.810365 0.938702 0.058498
O O1 0.406184 0.528138 0.656082
O O2 0.406362 0.434246 0.560533
O O3 0.408661 0.445946 0.805283
O O4 0.307199 0.459985 0.674513
O O5 0.190709 0.421416 0.583572
O O6 0.087060 0.361972 0.605690
O O7 0.712383 0.250000 0.673022
O O8 0.750000 0.189818 0.500000
O O9 0.726534 0.138320 0.692854
O O10 0.631292 0.184473 0.575595
O O11 0.000000 0.913559 0.946980
O O12 0.876052 0.912572 0.019514
O O13 0.937069 0.000000 0.000000
O O14 0.794436 0.938363 0.196544
O O15 0.078993 0.750000 0.430318
O O16 0.000000 0.816171 0.525314
O O17 0.750000 0.910595 0.000000
O O18 0.812311 0.000000 0.000000
#
# Coordination Sequence:
#
# PCOD9501985 Si02
#       7
#    16  16  16  16  16  16  16
#     4  11  22  34  52  85 123 157 189 240 298 365
#     4  11  22  33  52  88 123 155 190 236 301 363
#     4  10  19  36  60  87 116 152 200 250 304 364
#     4  10  21  38  55  74 105 153 204 242 283 346
#     4  12  20  34  59  88 120 155 199 249 301 363
#     4  10  21  38  57  78 115 164 207 242 287 358
#     4  10  20  34  55  81 107 148 201 245 286 349
#
# _framework density 19.291924999999999
#
# number of rings (size 3 to 8) (size 9 to 14) (size 15 to 20)
#    0.000    1.429    4.286    2.571    2.000    2.286 
#    0.000    2.143    0.000    0.429    0.000    0.000 
#    0.000    3.429    0.000    6.714    0.000    0.000 
#
# Total GULP energy -312025.269784 kJ/mol
# GULP energy per Si atom -5571.879818 kJ/mol
# Density = 1.924802 g / cm^3
# Si number density = 19.291925 Si / 1000 Ang^3
#
#
#
# Elastic Constant Matrix: (Units=GPa)
#
#
# Indices 1 2 3 4 5 6 
#
# 1 131.8266 19.1418 26.0227 0.0000 0.0000 0.0000
# 2 19.1418 126.1553 21.0838 0.0000 0.0000 0.0000
# 3 26.0227 21.0838 77.5365 0.0000 0.0000 0.0000
# 4 0.0000 0.0000 0.0000 8.1474 0.0000 0.0000
# 5 0.0000 0.0000 0.0000 0.0000 -87.7076 0.0000
# 6 0.0000 0.0000 0.0000 0.0000 0.0000 31.6128
#
#
#
# Elastic Compliance Matrix: (Units=1/GPa)
#
#
# Indices 1 2 3 4 5 6 
#
# 1 0.008205 -0.000822 -0.002530 0.000000 0.000000 0.000000
# 2 -0.000822 0.008386 -0.002005 0.000000 0.000000 0.000000
# 3 -0.002530 -0.002005 0.014291 0.000000 0.000000 0.000000
# 4 0.000000 0.000000 0.000000 0.122739 0.000000 0.000000
# 5 0.000000 0.000000 0.000000 0.000000 -0.011402 0.000000
# 6 0.000000 0.000000 0.000000 0.000000 0.000000 0.031633
#
#
# Mechanical properties :
#
#
# Convention : Reuss Voigt Hill
#
# Bulk Modulus (GPa) = 49.58097 52.00166 50.79131
# Shear Modulus (GPa) = 26.13846 8.36185 17.25015
#
# Velocity S-wave (km/s) = 3.68488 2.08418 2.99350
# Velocity P-wave (km/s) = 6.62273 5.72760 6.19136
#
# Compressibility (1/GPa) = 0.02016903
#
# Stress axis : x y z
#
# Youngs Moduli (GPa) = 121.88395 119.23944 69.97229
#
# Poissons Ratio (x) = 0.09802 0.17703
# Poissons Ratio (y) = 0.10019 0.14026
# Poissons Ratio (z) = 0.30837 0.23902
#
# Static dielectric constant tensor:
#      x y z
#    x 1.767040 0.000000 0.000000 
#    y 0.000000 1.738610 0.000000 
#    z 0.000000 0.000000 1.707410 
# 
# From -- ./inp_files/22388.got.cif
#   From: 2010.05.17/outbox.cif.g08.bks.cpg/sg67_12_cif.got.tgz:22388.got - 2010.06.03 18:28:57.
