data_PCOD9501996
_publ_section_title
;
Structure prediction by ZEFSAII (Michael W. Deem and Ramdas Pophale) SiO2 
 PCOD9501996
Probable space group: C M M A
;
_chemical_formula_sum "Si O2"
_cell_formula_units_Z 96
_cell_length_a 22.165017
_cell_length_b 27.646160
_cell_length_c 7.890455
_cell_angle_alpha 90.000000
_cell_angle_beta 90.000000
_cell_angle_gamma 90.000000
_cell_volume 4835.094128
_symmetry_space_group_name_H-M "C M M A"
_symmetry_group_IT_number 67
_symmetry_cell_setting 'orthorhombic'
loop_
_space_group_symop_operation_xyz
x,y,z
-x,1/2-y,z
x,-y,-z
-x,1/2+y,-z
-x,-y,-z
x,1/2+y,-z
-x,y,z
x,1/2-y,z
1/2+x,1/2+y,z
1/2-x,-y,z
1/2+x,1/2-y,-z
1/2-x,y,-z
1/2-x,1/2-y,-z
1/2+x,y,-z
1/2-x,1/2+y,z
1/2+x,-y,z
loop_
_atom_site_type_symbol
_atom_site_label
_atom_site_fract_x
_atom_site_fract_y
_atom_site_fract_z
Si Si1 0.814178 0.407409 0.086679
Si Si2 0.122881 0.032254 0.332399
Si Si3 0.715519 0.695552 0.226601
Si Si4 0.931040 0.052878 0.884761
Si Si5 0.434891 0.385503 0.456929
Si Si6 0.161088 0.803629 0.395200
O O1 0.819028 0.442058 0.251392
O O2 0.813140 0.350487 0.134277
O O3 0.750000 0.417659 0.000000
O O4 0.874710 0.422074 0.982947
O O5 0.083155 0.077679 0.394004
O O6 0.134393 0.000000 0.500000
O O7 0.090314 0.999589 0.188505
O O8 0.706483 0.750000 0.154840
O O9 0.786868 0.686365 0.256928
O O10 0.690468 0.697431 0.417771
O O11 0.937204 0.082467 0.710884
O O12 0.000000 0.052915 0.957791
O O13 0.500000 0.363985 0.495332
O O14 0.387685 0.344565 0.412857
O O15 0.136747 0.750000 0.359793
#
# Coordination Sequence:
#
# PCOD9501996 Si02
#       6
#    16  16  16  16  16  16
#     4  12  24  40  61  92 124 154 200 250 306 358
#     4  10  22  41  62  84 116 160 205 253 297 356
#     4   9  19  37  61  86 116 153 197 240 295 361
#     4  10  23  41  61  86 122 165 203 243 302 372
#     4  10  19  36  61  90 117 153 204 252 297 352
#     4   9  17  34  60  89 116 150 195 248 299 349
#
# _framework density 19.854835999999999
#
# number of rings (size 3 to 8) (size 9 to 14) (size 15 to 20)
#    0.000    2.000    1.667    3.000    0.000    6.000 
#    0.000    5.000    0.000    1.500    0.000    0.000 
#    0.000    0.000    0.000    0.000    0.000    0.000 
#
# Total GULP energy -267541.821908 kJ/mol
# GULP energy per Si atom -5573.787956 kJ/mol
# Density = 1.980965 g / cm^3
# Si number density = 19.854836 Si / 1000 Ang^3
#
#
#
# Elastic Constant Matrix: (Units=GPa)
#
#
# Indices 1 2 3 4 5 6 
#
# 1 124.5214 96.0224 37.3203 0.0000 0.0000 0.0000
# 2 96.0224 163.4526 34.9763 0.0000 0.0000 0.0000
# 3 37.3203 34.9763 57.8944 0.0000 0.0000 0.0000
# 4 0.0000 0.0000 0.0000 22.1247 0.0000 0.0000
# 5 0.0000 0.0000 0.0000 0.0000 26.2357 0.0000
# 6 0.0000 0.0000 0.0000 0.0000 0.0000 9.1462
#
#
#
# Elastic Compliance Matrix: (Units=1/GPa)
#
#
# Indices 1 2 3 4 5 6 
#
# 1 0.015992 -0.008256 -0.005321 0.000000 0.000000 0.000000
# 2 -0.008256 0.011289 -0.001498 0.000000 0.000000 0.000000
# 3 -0.005321 -0.001498 0.021608 0.000000 0.000000 0.000000
# 4 0.000000 0.000000 0.000000 0.045198 0.000000 0.000000
# 5 0.000000 0.000000 0.000000 0.000000 0.038116 0.000000
# 6 0.000000 0.000000 0.000000 0.000000 0.000000 0.109335
#
#
# Mechanical properties :
#
#
# Convention : Reuss Voigt Hill
#
# Bulk Modulus (GPa) = 53.36591 75.83406 64.59998
# Shear Modulus (GPa) = 17.98984 23.33793 20.66389
#
# Velocity S-wave (km/s) = 3.01336 3.43217 3.22956
# Velocity P-wave (km/s) = 6.24848 7.34735 6.82008
#
# Compressibility (1/GPa) = 0.01873855
#
# Stress axis : x y z
#
# Youngs Moduli (GPa) = 62.53090 88.58446 46.27950
#
# Poissons Ratio (x) = 0.73137 0.24626
# Poissons Ratio (y) = 0.51626 0.06932
# Poissons Ratio (z) = 0.33273 0.13268
#
# Static dielectric constant tensor:
#      x y z
#    x 1.700490 0.000000 0.000000 
#    y 0.000000 1.719070 0.000000 
#    z 0.000000 0.000000 1.759190 
# 
# From -- ./inp_files/11436.got.cif
#   From: 2010.05.17/outbox.cif.g08.bks.cpg/sg67_6_cif.got.tgz:11436.got - 2010.06.03 18:28:57.
