data_PCOD9501414
_publ_section_title
;
Structure prediction by ZEFSAII (Michael W. Deem and Ramdas Pophale) SiO2 
 PCOD9501414
Probable space group: C M M A
;
_chemical_formula_sum "Si O2"
_cell_formula_units_Z 120
_cell_length_a 27.189322
_cell_length_b 8.877742
_cell_length_c 28.579591
_cell_angle_alpha 90.000000
_cell_angle_beta 90.000000
_cell_angle_gamma 90.000000
_cell_volume 6898.535556
_symmetry_space_group_name_H-M "C M M A"
_symmetry_group_IT_number 67
_symmetry_cell_setting 'orthorhombic'
loop_
_space_group_symop_operation_xyz
x,y,z
-x,1/2-y,z
x,-y,-z
-x,1/2+y,-z
-x,-y,-z
x,1/2+y,-z
-x,y,z
x,1/2-y,z
1/2+x,1/2+y,z
1/2-x,-y,z
1/2+x,1/2-y,-z
1/2-x,y,-z
1/2-x,1/2-y,-z
1/2+x,y,-z
1/2-x,1/2+y,z
1/2+x,-y,z
loop_
_atom_site_type_symbol
_atom_site_label
_atom_site_fract_x
_atom_site_fract_y
_atom_site_fract_z
Si Si1 0.601178 0.069823 0.141857
Si Si2 0.059313 0.424271 0.048563
Si Si3 0.802341 0.569771 0.818204
Si Si4 0.696786 0.932208 0.380533
Si Si5 0.651925 0.569050 0.281470
Si Si6 0.555485 0.931358 0.758158
Si Si7 0.500000 0.931415 0.447903
Si Si8 0.107777 0.932039 0.551914
O O1 0.604616 0.250000 0.140672
O O2 0.569053 0.028663 0.187956
O O3 0.578318 0.009380 0.094206
O O4 0.654362 0.997471 0.150360
O O5 0.074515 0.250000 0.049980
O O6 0.000000 0.429685 0.049200
O O7 0.075755 0.500000 0.000000
O O8 0.801302 0.750000 0.821679
O O9 0.750000 0.500000 0.829879
O O10 0.816887 0.528444 0.764669
O O11 0.700146 0.750000 0.381402
O O12 0.679079 0.979180 0.328677
O O13 0.653668 0.978696 0.416293
O O14 0.750000 0.000000 0.391502
O O15 0.647230 0.750000 0.282702
O O16 0.597883 0.500341 0.274143
O O17 0.500000 0.980971 0.747232
O O18 0.557482 0.750000 0.754819
O O19 0.500000 0.750000 0.450694
O O20 0.446445 0.974916 0.427662
O O21 0.500000 0.000000 0.500000
O O22 0.108870 0.750000 0.548680
O O23 0.111745 0.000000 0.500000
#
# Coordination Sequence:
#
# PCOD9501414 Si02
#       8
#    16  16  16  16  16  16   8  16
#     4  10  19  32  51  74 101 134 170 209 255 301
#     4  10  20  33  50  74 104 137 172 210 251 298
#     4  10  19  32  51  74  99 127 166 212 254 300
#     4  10  21  36  52  74 102 133 170 209 253 305
#     4   9  19  34  50  72 100 131 170 209 249 300
#     4   9  18  32  50  73 103 136 169 206 251 304
#     4   8  14  28  50  72  94 122 154 198 244 288
#     4   9  18  33  53  76 101 128 165 206 251 303
#
# _framework density 17.394995999999999
#
# number of rings (size 3 to 8) (size 9 to 14) (size 15 to 20)
#    0.000    2.533    0.000    2.000    0.000    4.000 
#    1.200    1.333    0.000    0.400    0.000    2.800 
#    0.000    0.000    0.000    0.000    0.000    0.000 
#
# Total GULP energy -334575.764843 kJ/mol
# GULP energy per Si atom -5576.262747 kJ/mol
# Density = 1.735540 g / cm^3
# Si number density = 17.394996 Si / 1000 Ang^3
#
#
#
# Elastic Constant Matrix: (Units=GPa)
#
#
# Indices 1 2 3 4 5 6 
#
# 1 123.5433 25.9101 33.5151 0.0000 0.0000 0.0000
# 2 25.9101 29.1196 15.1652 0.0000 0.0000 0.0000
# 3 33.5151 15.1652 59.7602 0.0000 0.0000 0.0000
# 4 0.0000 0.0000 0.0000 23.1471 0.0000 0.0000
# 5 0.0000 0.0000 0.0000 0.0000 15.3612 0.0000
# 6 0.0000 0.0000 0.0000 0.0000 0.0000 31.1346
#
#
#
# Elastic Compliance Matrix: (Units=1/GPa)
#
#
# Indices 1 2 3 4 5 6 
#
# 1 0.010781 -0.007425 -0.004162 0.000000 0.000000 0.000000
# 2 -0.007425 0.044685 -0.007175 0.000000 0.000000 0.000000
# 3 -0.004162 -0.007175 0.020888 0.000000 0.000000 0.000000
# 4 0.000000 0.000000 0.000000 0.043202 0.000000 0.000000
# 5 0.000000 0.000000 0.000000 0.000000 0.065099 0.000000
# 6 0.000000 0.000000 0.000000 0.000000 0.000000 0.032119
#
#
# Mechanical properties :
#
#
# Convention : Reuss Voigt Hill
#
# Bulk Modulus (GPa) = 25.75369 40.17821 32.96595
# Shear Modulus (GPa) = 18.70973 23.11743 20.91358
#
# Velocity S-wave (km/s) = 3.28316 3.64946 3.47115
# Velocity P-wave (km/s) = 5.40459 6.39576 5.92095
#
# Compressibility (1/GPa) = 0.03882938
#
# Stress axis : x y z
#
# Youngs Moduli (GPa) = 92.75964 22.37907 47.87330
#
# Poissons Ratio (x) = 0.16616 0.19924
# Poissons Ratio (y) = 0.68873 0.34351
# Poissons Ratio (z) = 0.38605 0.16058
#
# Static dielectric constant tensor:
#      x y z
#    x 1.593320 0.000000 0.000000 
#    y 0.000000 1.585040 0.000000 
#    z 0.000000 0.000000 1.575200 
# 
# From -- ./inp_files/44991.got.cif
#   From: 2010.05.17/outbox.cif.g08.bks.cpg/sg67_23_cif.got.tgz:44991.got - 2010.06.03 18:28:57.
