data_PCOD9501404
_publ_section_title
;
Structure prediction by ZEFSAII (Michael W. Deem and Ramdas Pophale) SiO2 
 PCOD9501404
Probable space group: C M M A
;
_chemical_formula_sum "Si O2"
_cell_formula_units_Z 120
_cell_length_a 8.913400
_cell_length_b 27.735064
_cell_length_c 28.663485
_cell_angle_alpha 90.000000
_cell_angle_beta 90.000000
_cell_angle_gamma 90.000000
_cell_volume 7086.006739
_symmetry_space_group_name_H-M "C M M A"
_symmetry_group_IT_number 67
_symmetry_cell_setting 'orthorhombic'
loop_
_space_group_symop_operation_xyz
x,y,z
-x,1/2-y,z
x,-y,-z
-x,1/2+y,-z
-x,-y,-z
x,1/2+y,-z
-x,y,z
x,1/2-y,z
1/2+x,1/2+y,z
1/2-x,-y,z
1/2+x,1/2-y,-z
1/2-x,y,-z
1/2-x,1/2-y,-z
1/2+x,y,-z
1/2-x,1/2+y,z
1/2+x,-y,z
loop_
_atom_site_type_symbol
_atom_site_label
_atom_site_fract_x
_atom_site_fract_y
_atom_site_fract_z
Si Si1 0.321153 0.641752 0.548722
Si Si2 0.319284 0.551708 0.886840
Si Si3 0.319369 0.250000 0.051724
Si Si4 0.679115 0.305423 0.355679
Si Si5 0.818421 0.856386 0.051770
Si Si6 0.820917 0.448622 0.778261
Si Si7 0.678035 0.392920 0.695670
Si Si8 0.320386 0.052171 0.600115
O O1 0.500000 0.636908 0.544203
O O2 0.250000 0.657152 0.500000
O O3 0.289082 0.678293 0.591189
O O4 0.249771 0.591116 0.564995
O O5 0.500000 0.547862 0.889982
O O6 0.250000 0.500000 0.900874
O O7 0.270885 0.597694 0.917444
O O8 0.280461 0.560342 0.832410
O O9 0.500000 0.250000 0.048747
O O10 0.277052 0.302882 0.071732
O O11 0.250000 0.250000 0.000000
O O12 0.500000 0.311549 0.348707
O O13 0.718230 0.250000 0.348575
O O14 0.766130 0.341180 0.321759
O O15 0.000000 0.857813 0.048587
O O16 0.750000 0.860148 0.000000
O O17 0.750000 0.500000 0.765080
O O18 0.758585 0.409708 0.742465
O O19 0.000000 0.451324 0.774944
O O20 0.500000 0.393568 0.702115
O O21 0.714820 0.428970 0.652555
O O22 0.500000 0.051059 0.594963
O O23 0.250000 0.000000 0.592893
#
# Coordination Sequence:
#
# PCOD9501404 Si02
#       8
#    16  16   8  16  16  16  16  16
#     4  10  20  34  51  72  99 129 162 199 238 284
#     4   9  19  33  48  69 100 134 170 207 249 300
#     4   8  14  26  46  68  90 118 156 202 248 288
#     4   9  19  36  56  76  99 129 164 202 245 290
#     4   9  17  30  48  71  97 128 167 211 254 300
#     4  10  19  32  51  73 100 132 166 204 244 293
#     4  10  20  33  52  77 101 127 160 201 248 296
#     4  10  20  33  49  71  98 126 159 196 239 289
#
# _framework density 16.934784000000001
#
# number of rings (size 3 to 8) (size 9 to 14) (size 15 to 20)
#    0.000    2.533    0.000    2.000    0.000    5.333 
#    0.000    2.667    1.467    0.000    0.000    0.000 
#    0.000    0.000    0.000    0.000    0.000    0.000 
#
# Total GULP energy -334538.578779 kJ/mol
# GULP energy per Si atom -5575.642980 kJ/mol
# Density = 1.689624 g / cm^3
# Si number density = 16.934784 Si / 1000 Ang^3
#
#
#
# Elastic Constant Matrix: (Units=GPa)
#
#
# Indices 1 2 3 4 5 6 
#
# 1 29.2679 34.0068 28.5509 0.0000 0.0000 0.0000
# 2 34.0068 111.0510 56.0332 0.0000 0.0000 0.0000
# 3 28.5509 56.0332 70.4602 0.0000 0.0000 0.0000
# 4 0.0000 0.0000 0.0000 9.4846 0.0000 0.0000
# 5 0.0000 0.0000 0.0000 0.0000 25.4427 0.0000
# 6 0.0000 0.0000 0.0000 0.0000 0.0000 25.7866
#
#
#
# Elastic Compliance Matrix: (Units=1/GPa)
#
#
# Indices 1 2 3 4 5 6 
#
# 1 0.063380 -0.010773 -0.017115 0.000000 0.000000 0.000000
# 2 -0.010773 0.016871 -0.009051 0.000000 0.000000 0.000000
# 3 -0.017115 -0.009051 0.028325 0.000000 0.000000 0.000000
# 4 0.000000 0.000000 0.000000 0.105434 0.000000 0.000000
# 5 0.000000 0.000000 0.000000 0.000000 0.039304 0.000000
# 6 0.000000 0.000000 0.000000 0.000000 0.000000 0.038780
#
#
# Mechanical properties :
#
#
# Convention : Reuss Voigt Hill
#
# Bulk Modulus (GPa) = 28.81997 49.77346 39.29671
# Shear Modulus (GPa) = 13.24373 18.28867 15.76620
#
# Velocity S-wave (km/s) = 2.79954 3.28982 3.05453
# Velocity P-wave (km/s) = 5.24452 6.62462 5.97456
#
# Compressibility (1/GPa) = 0.03469816
#
# Stress axis : x y z
#
# Youngs Moduli (GPa) = 15.77791 59.27398 35.30414
#
# Poissons Ratio (x) = 0.63856 0.60422
# Poissons Ratio (y) = 0.16998 0.31954
# Poissons Ratio (z) = 0.27003 0.53650
#
# Static dielectric constant tensor:
#      x y z
#    x 1.566110 0.000000 0.000000 
#    y 0.000000 1.574640 0.000000 
#    z 0.000000 0.000000 1.556990 
# 
# From -- ./inp_files/43888.got.cif
#   From: 2010.05.17/outbox.cif.g08.bks.cpg/sg67_22_cif.got.tgz:43888.got - 2010.06.03 18:28:57.
