data_PCOD9501336
_publ_section_title
;
Structure prediction by ZEFSAII (Michael W. Deem and Ramdas Pophale) SiO2 
 PCOD9501336
Probable space group: C M M A
;
_chemical_formula_sum "Si O2"
_cell_formula_units_Z 80
_cell_length_a 9.184314
_cell_length_b 15.355620
_cell_length_c 27.646627
_cell_angle_alpha 90.000000
_cell_angle_beta 90.000000
_cell_angle_gamma 90.000000
_cell_volume 3899.026911
_symmetry_space_group_name_H-M "C M M A"
_symmetry_group_IT_number 67
_symmetry_cell_setting 'orthorhombic'
loop_
_space_group_symop_operation_xyz
x,y,z
-x,1/2-y,z
x,-y,-z
-x,1/2+y,-z
-x,-y,-z
x,1/2+y,-z
-x,y,z
x,1/2-y,z
1/2+x,1/2+y,z
1/2-x,-y,z
1/2+x,1/2-y,-z
1/2-x,y,-z
1/2-x,1/2-y,-z
1/2+x,y,-z
1/2-x,1/2+y,z
1/2+x,-y,z
loop_
_atom_site_type_symbol
_atom_site_label
_atom_site_fract_x
_atom_site_fract_y
_atom_site_fract_z
Si Si1 0.666556 0.356612 0.355149
Si Si2 0.330738 0.142964 0.741167
Si Si3 0.676118 0.905860 0.046488
Si Si4 0.676749 0.848068 0.154964
Si Si5 0.666709 0.356633 0.548330
O O1 0.500000 0.384548 0.358503
O O2 0.668653 0.250000 0.354954
O O3 0.738246 0.385121 0.304827
O O4 0.755151 0.384537 0.402395
O O5 0.500000 0.119081 0.734599
O O6 0.327485 0.250000 0.742469
O O7 0.277016 0.110183 0.793938
O O8 0.500000 0.906890 0.040966
O O9 0.712555 0.876114 0.100798
O O10 0.750000 0.000000 0.046011
O O11 0.750000 0.859159 0.000000
O O12 0.500000 0.848680 0.157187
O O13 0.730891 0.750000 0.157735
O O14 0.500000 0.385021 0.547350
O O15 0.667615 0.250000 0.548346
O O16 0.750000 0.384476 0.500000
#
# Coordination Sequence:
#
# PCOD9501336 Si02
#       5
#    16  16  16  16  16
#     4   9  15  21  29  43  64  89 117 152 196 243
#     4   8  13  23  38  53  69  92 124 160 198 241
#     4  10  19  32  49  67  89 116 145 176 211 255
#     4   8  15  28  46  66  86 110 142 179 216 254
#     4   9  15  21  28  38  54  80 117 160 201 239
#
# _framework density 20.517941
#
# number of rings (size 3 to 8) (size 9 to 14) (size 15 to 20)
#    0.000    3.200    0.000    3.600    0.000    5.200 
#    0.000    2.000    0.000    4.200    0.000    0.000 
#    0.000    0.000    0.000    0.000    0.000    1.000 
#
# Total GULP energy -222722.284301 kJ/mol
# GULP energy per Si atom -5568.057108 kJ/mol
# Density = 2.047124 g / cm^3
# Si number density = 20.517941 Si / 1000 Ang^3
#
#
#
# Elastic Constant Matrix: (Units=GPa)
#
#
# Indices 1 2 3 4 5 6 
#
# 1 125.9105 9.7630 121.4783 0.0000 0.0000 0.0000
# 2 9.7630 17.3924 16.7494 0.0000 0.0000 0.0000
# 3 121.4783 16.7494 280.9520 0.0000 0.0000 0.0000
# 4 0.0000 0.0000 0.0000 106.9183 0.0000 0.0000
# 5 0.0000 0.0000 0.0000 0.0000 76.4829 0.0000
# 6 0.0000 0.0000 0.0000 0.0000 0.0000 1.7533
#
#
#
# Elastic Compliance Matrix: (Units=1/GPa)
#
#
# Indices 1 2 3 4 5 6 
#
# 1 0.013699 -0.002106 -0.005798 0.000000 0.000000 0.000000
# 2 -0.002106 0.061322 -0.002745 0.000000 0.000000 0.000000
# 3 -0.005798 -0.002745 0.006230 0.000000 0.000000 0.000000
# 4 0.000000 0.000000 0.000000 0.009353 0.000000 0.000000
# 5 0.000000 0.000000 0.000000 0.000000 0.013075 0.000000
# 6 0.000000 0.000000 0.000000 0.000000 0.000000 0.570356
#
#
# Mechanical properties :
#
#
# Convention : Reuss Voigt Hill
#
# Bulk Modulus (GPa) = 16.67975 80.02624 48.35300
# Shear Modulus (GPa) = 6.98990 55.44852 31.21921
#
# Velocity S-wave (km/s) = 1.84773 5.20414 3.90495
# Velocity P-wave (km/s) = 3.56359 8.67171 6.62939
#
# Compressibility (1/GPa) = 0.05995293
#
# Stress axis : x y z
#
# Youngs Moduli (GPa) = 72.99798 16.30726 160.52003
#
# Poissons Ratio (x) = 0.03435 0.93063
# Poissons Ratio (y) = 0.15377 0.44063
# Poissons Ratio (z) = 0.42321 0.04476
#
# Static dielectric constant tensor:
#      x y z
#    x 1.735040 0.000000 0.000000 
#    y 0.000000 1.914270 0.000000 
#    z 0.000000 0.000000 1.817750 
# 
# From -- ./inp_files/43316.got.cif
#   From: 2010.05.17/outbox.cif.g08.bks.cpg/sg67_22_cif.got.tgz:43316.got - 2010.06.03 18:28:57.
