data_PCOD9501510
_publ_section_title
;
Structure prediction by ZEFSAII (Michael W. Deem and Ramdas Pophale) SiO2 
 PCOD9501510
Probable space group: C M M A
;
_chemical_formula_sum "Si O2"
_cell_formula_units_Z 112
_cell_length_a 16.710061
_cell_length_b 15.682961
_cell_length_c 21.788339
_cell_angle_alpha 90.000000
_cell_angle_beta 90.000000
_cell_angle_gamma 90.000000
_cell_volume 5709.922603
_symmetry_space_group_name_H-M "C M M A"
_symmetry_group_IT_number 67
_symmetry_cell_setting 'orthorhombic'
loop_
_space_group_symop_operation_xyz
x,y,z
-x,1/2-y,z
x,-y,-z
-x,1/2+y,-z
-x,-y,-z
x,1/2+y,-z
-x,y,z
x,1/2-y,z
1/2+x,1/2+y,z
1/2-x,-y,z
1/2+x,1/2-y,-z
1/2-x,y,-z
1/2-x,1/2-y,-z
1/2+x,y,-z
1/2-x,1/2+y,z
1/2+x,-y,z
loop_
_atom_site_type_symbol
_atom_site_label
_atom_site_fract_x
_atom_site_fract_y
_atom_site_fract_z
Si Si1 0.626492 0.844828 0.371906
Si Si2 0.908020 0.600085 0.491590
Si Si3 0.818190 0.845471 0.372100
Si Si4 0.152707 0.000243 0.157555
Si Si5 0.847559 0.152980 0.069846
Si Si6 0.409017 0.512074 0.704703
Si Si7 0.652532 0.652947 0.929938
O O1 0.603129 0.750000 0.350656
O O2 0.599439 0.857480 0.442047
O O3 0.722651 0.850564 0.371470
O O4 0.595497 0.922269 0.330990
O O5 0.889030 0.500000 0.500000
O O6 0.850682 0.639630 0.440783
O O7 0.000000 0.606518 0.469903
O O8 0.841595 0.750000 0.351821
O O9 0.854314 0.919158 0.329880
O O10 0.119269 0.999727 0.225783
O O11 0.126896 0.916931 0.119114
O O12 0.250000 0.000000 0.160555
O O13 0.126780 0.083200 0.118938
O O14 0.872798 0.250000 0.083510
O O15 0.750043 0.152397 0.070002
O O16 0.872016 0.131826 0.999887
O O17 0.500000 0.542890 0.702796
O O18 0.627347 0.750000 0.916200
#
# Coordination Sequence:
#
# PCOD9501510 Si02
#       7
#    16  16  16  16  16  16  16
#     4  11  24  42  65  90 115 149 195 245 293 340
#     4  11  22  37  62  95 126 155 184 227 289 351
#     4  11  24  42  65  90 115 149 195 245 293 340
#     4  10  19  32  53  79 108 145 188 233 281 333
#     4   8  14  26  48  80 112 139 175 228 284 333
#     4  12  26  42  58  81 116 159 199 239 290 346
#     4   8  14  26  48  80 112 139 175 228 284 333
#
# _framework density 19.614977
#
# number of rings (size 3 to 8) (size 9 to 14) (size 15 to 20)
#    0.000    1.857    1.429    4.286    0.000    7.429 
#    0.000    2.857    0.000    1.714    0.000    2.000 
#    0.000    0.000    0.000    0.000    0.000    0.000 
#
# Total GULP energy -312905.002392 kJ/mol
# GULP energy per Si atom -5587.589328 kJ/mol
# Density = 1.957033 g / cm^3
# Si number density = 19.614977 Si / 1000 Ang^3
#
#
#
# Elastic Constant Matrix: (Units=GPa)
#
#
# Indices 1 2 3 4 5 6 
#
# 1 36.6199 19.7186 7.8385 0.0000 0.0000 0.0000
# 2 19.7186 110.7769 60.0011 0.0000 0.0000 0.0000
# 3 7.8385 60.0011 127.9598 0.0000 0.0000 0.0000
# 4 0.0000 0.0000 0.0000 -7.2386 0.0000 0.0000
# 5 0.0000 0.0000 0.0000 0.0000 257.5032 0.0000
# 6 0.0000 0.0000 0.0000 0.0000 0.0000 -127.3709
#
#
#
# Elastic Compliance Matrix: (Units=1/GPa)
#
#
# Indices 1 2 3 4 5 6 
#
# 1 0.030280 -0.005878 0.000901 0.000000 0.000000 0.000000
# 2 -0.005878 0.013241 -0.005849 0.000000 0.000000 0.000000
# 3 0.000901 -0.005849 0.010502 0.000000 0.000000 0.000000
# 4 0.000000 0.000000 0.000000 -0.138149 0.000000 0.000000
# 5 0.000000 0.000000 0.000000 0.000000 0.003883 0.000000
# 6 0.000000 0.000000 0.000000 0.000000 0.000000 -0.007851
#
#
# Mechanical properties :
#
#
# Convention : Reuss Voigt Hill
#
# Bulk Modulus (GPa) = 30.89056 50.05256 40.47156
# Shear Modulus (GPa) = -89.84652 37.09863 -26.37395
#
# Velocity S-wave (km/s) = -6.77529 4.35367 -3.67083
# Velocity P-wave (km/s) = 6.73969 7.13061 1.64654
#
# Compressibility (1/GPa) = 0.03237235
#
# Stress axis : x y z
#
# Youngs Moduli (GPa) = 33.02528 75.52022 95.21695
#
# Poissons Ratio (x) = 0.44392 -0.08583
# Poissons Ratio (y) = 0.19413 0.55692
# Poissons Ratio (z) = -0.02977 0.44171
#
# Static dielectric constant tensor:
#      x y z
#    x 1.677440 0.000000 0.000000 
#    y 0.000000 1.690280 0.000000 
#    z 0.000000 0.000000 1.643970 
# 
# From -- ./inp_files/41939.got.cif
#   From: 2010.05.17/outbox.cif.g08.bks.cpg/sg67_21_cif.got.tgz:41939.got - 2010.06.03 18:28:57.
