data_PCOD9502034
_publ_section_title
;
Structure prediction by ZEFSAII (Michael W. Deem and Ramdas Pophale) SiO2 
 PCOD9502034
Probable space group: C M M A
;
_chemical_formula_sum "Si O2"
_cell_formula_units_Z 112
_cell_length_a 14.140519
_cell_length_b 24.056109
_cell_length_c 13.991926
_cell_angle_alpha 90.000000
_cell_angle_beta 90.000000
_cell_angle_gamma 90.000000
_cell_volume 4759.575630
_symmetry_space_group_name_H-M "C M M A"
_symmetry_group_IT_number 67
_symmetry_cell_setting 'orthorhombic'
loop_
_space_group_symop_operation_xyz
x,y,z
-x,1/2-y,z
x,-y,-z
-x,1/2+y,-z
-x,-y,-z
x,1/2+y,-z
-x,y,z
x,1/2-y,z
1/2+x,1/2+y,z
1/2-x,-y,z
1/2+x,1/2-y,-z
1/2-x,y,-z
1/2-x,1/2-y,-z
1/2+x,y,-z
1/2-x,1/2+y,z
1/2+x,-y,z
loop_
_atom_site_type_symbol
_atom_site_label
_atom_site_fract_x
_atom_site_fract_y
_atom_site_fract_z
Si Si1 0.613435 0.190786 0.732462
Si Si2 0.613792 0.135208 0.260159
Si Si3 0.731972 0.848479 0.102857
Si Si4 0.111604 0.960169 0.908138
Si Si5 0.387281 0.987625 0.696880
Si Si6 0.146769 0.310954 0.545892
Si Si7 0.889662 0.405628 0.402850
O O1 0.500000 0.188072 0.735698
O O2 0.639647 0.250000 0.687775
O O3 0.658838 0.186449 0.835066
O O4 0.649889 0.137982 0.674143
O O5 0.500000 0.134261 0.244445
O O6 0.672231 0.145406 0.163876
O O7 0.638156 0.180028 0.341256
O O8 0.647336 0.075313 0.301169
O O9 0.680785 0.907970 0.087787
O O10 0.750000 0.823706 0.000000
O O11 0.126955 0.988982 0.804671
O O12 0.000000 0.943526 0.910080
O O13 0.126659 0.000000 0.000000
O O14 0.500000 0.981814 0.681169
O O15 0.350865 0.032790 0.619152
O O16 0.103162 0.250000 0.523969
O O17 0.250000 0.308679 0.500000
O O18 0.110596 0.369108 0.499195
O O19 0.000000 0.412014 0.379677
#
# Coordination Sequence:
#
# PCOD9502034 Si02
#       7
#    16  16  16  16  16  16  16
#     4  10  21  40  66  95 127 163 212 283 358 415
#     4  11  26  45  64  96 145 196 234 281 352 424
#     4  12  25  40  64  97 131 178 235 290 335 415
#     4  10  20  38  65  97 134 174 220 282 351 416
#     4   9  19  37  61  92 135 173 213 269 331 409
#     4  11  25  45  67  95 130 172 231 293 350 418
#     4  10  19  37  67  96 122 159 211 275 343 409
#
# _framework density 23.531510000000001
#
# number of rings (size 3 to 8) (size 9 to 14) (size 15 to 20)
#    0.000    1.571    1.429    3.000    0.000    8.571 
#    0.000    2.857    0.000    0.429    0.000    0.000 
#    0.000    0.000    0.000    0.000    0.000    0.000 
#
# Total GULP energy -312872.709768 kJ/mol
# GULP energy per Si atom -5587.012674 kJ/mol
# Density = 2.347795 g / cm^3
# Si number density = 23.531510 Si / 1000 Ang^3
#
#
#
# Elastic Constant Matrix: (Units=GPa)
#
#
# Indices 1 2 3 4 5 6 
#
# 1 95.4095 30.9650 22.5655 0.0000 0.0000 0.0000
# 2 30.9650 101.4634 47.4789 0.0000 0.0000 0.0000
# 3 22.5655 47.4789 131.9460 0.0000 0.0000 0.0000
# 4 0.0000 0.0000 0.0000 18.1951 0.0000 0.0000
# 5 0.0000 0.0000 0.0000 0.0000 28.3242 0.0000
# 6 0.0000 0.0000 0.0000 0.0000 0.0000 -657.8317
#
#
#
# Elastic Compliance Matrix: (Units=1/GPa)
#
#
# Indices 1 2 3 4 5 6 
#
# 1 0.011714 -0.003172 -0.000862 0.000000 0.000000 0.000000
# 2 -0.003172 0.012710 -0.004031 0.000000 0.000000 0.000000
# 3 -0.000862 -0.004031 0.009177 0.000000 0.000000 0.000000
# 4 0.000000 0.000000 0.000000 0.054960 0.000000 0.000000
# 5 0.000000 0.000000 0.000000 0.000000 0.035306 0.000000
# 6 0.000000 0.000000 0.000000 0.000000 0.000000 -0.001520
#
#
# Mechanical properties :
#
#
# Convention : Reuss Voigt Hill
#
# Bulk Modulus (GPa) = 57.23601 58.98197 58.10899
# Shear Modulus (GPa) = 34.65002 -107.07519 -36.21259
#
# Velocity S-wave (km/s) = 3.84147 -6.75290 -3.92713
# Velocity P-wave (km/s) = 6.63715 5.97350 2.04562
#
# Compressibility (1/GPa) = 0.01747152
#
# Stress axis : x y z
#
# Youngs Moduli (GPa) = 85.36515 78.67808 108.97002
#
# Poissons Ratio (x) = 0.24954 0.09395
# Poissons Ratio (y) = 0.27075 0.43927
# Poissons Ratio (z) = 0.07360 0.31716
#
# Static dielectric constant tensor:
#      x y z
#    x 1.899510 0.000000 0.000000 
#    y 0.000000 1.934840 0.000000 
#    z 0.000000 0.000000 1.892920 
# 
# From -- ./inp_files/27539.got.cif
#   From: 2010.05.17/outbox.cif.g08.bks.cpg/sg67_14_cif.got.tgz:27539.got - 2010.06.03 18:28:57.
