data_PCOD9502714
_publ_section_title
;
Structure prediction by ZEFSAII (Michael W. Deem and Ramdas Pophale) SiO2 
 PCOD9502714
Probable space group: C M M A
;
_chemical_formula_sum "Si O2"
_cell_formula_units_Z 128
_cell_length_a 18.081146
_cell_length_b 17.839703
_cell_length_c 23.362583
_cell_angle_alpha 90.000000
_cell_angle_beta 90.000000
_cell_angle_gamma 90.000000
_cell_volume 7535.887912
_symmetry_space_group_name_H-M "C M M A"
_symmetry_group_IT_number 67
_symmetry_cell_setting 'orthorhombic'
loop_
_space_group_symop_operation_xyz
x,y,z
-x,1/2-y,z
x,-y,-z
-x,1/2+y,-z
-x,-y,-z
x,1/2+y,-z
-x,y,z
x,1/2-y,z
1/2+x,1/2+y,z
1/2-x,-y,z
1/2+x,1/2-y,-z
1/2-x,y,-z
1/2-x,1/2-y,-z
1/2+x,y,-z
1/2-x,1/2+y,z
1/2+x,-y,z
loop_
_atom_site_type_symbol
_atom_site_label
_atom_site_fract_x
_atom_site_fract_y
_atom_site_fract_z
Si Si1 0.263432 0.340535 0.733313
Si Si2 0.586044 0.575912 0.536993
Si Si3 0.843303 0.338194 0.436707
Si Si4 0.822773 0.164223 0.040642
Si Si5 0.286365 0.579713 0.622759
Si Si6 0.915709 0.658235 0.062656
Si Si7 0.722903 0.658139 0.860489
Si Si8 0.418103 0.659260 0.317365
O O1 0.262096 0.250000 0.731392
O O2 0.216759 0.371617 0.680172
O O3 0.234223 0.364773 0.795145
O O4 0.348513 0.364825 0.721127
O O5 0.595014 0.500000 0.500000
O O6 0.500000 0.587530 0.548559
O O7 0.618578 0.639591 0.495533
O O8 0.634374 0.570878 0.593965
O O9 0.828836 0.250000 0.433846
O O10 0.767577 0.381635 0.424024
O O11 0.896719 0.358372 0.383098
O O12 0.845349 0.250000 0.053536
O O13 0.790806 0.130844 0.099247
O O14 0.750000 0.167564 0.000000
O O15 0.885832 0.131424 0.999566
O O16 0.250000 0.500000 0.635963
O O17 0.914071 0.750000 0.060994
O O18 0.854706 0.636012 0.110034
O O19 0.000000 0.635498 0.073788
O O20 0.724836 0.750000 0.862391
O O21 0.500000 0.630683 0.303066
O O22 0.420452 0.750000 0.313606
#
# Coordination Sequence:
#
# PCOD9502714 Si02
#       8
#    16  16  16  16  16  16  16  16
#     4   9  18  31  47  67  91 125 167 201 235 289
#     4  11  23  37  53  76 104 128 154 196 252 308
#     4  10  20  34  56  79  98 125 161 200 244 299
#     4   7  10  17  30  48  73 105 137 173 223 275
#     4  11  21  36  54  72  97 130 163 201 245 295
#     4   8  12  18  31  54  82 114 153 193 233 279
#     4   8  13  23  37  53  80 118 155 191 232 282
#     4   8  14  26  43  65  90 112 142 189 238 280
#
# _framework density 16.985389999999999
#
# number of rings (size 3 to 8) (size 9 to 14) (size 15 to 20)
#    0.000    3.000    1.250    3.375    0.000    2.250 
#    0.000    1.250    0.000    4.500    0.000    0.000 
#    0.000    4.500    0.000    1.125    0.000    1.250 
#
# Total GULP energy -356273.232359 kJ/mol
# GULP energy per Si atom -5566.769256 kJ/mol
# Density = 1.694673 g / cm^3
# Si number density = 16.985390 Si / 1000 Ang^3
#
#
#
# Elastic Constant Matrix: (Units=GPa)
#
#
# Indices 1 2 3 4 5 6 
#
# 1 104.5169 4.2088 65.6698 0.0000 0.0000 0.0000
# 2 4.2088 17.6057 3.0051 0.0000 0.0000 0.0000
# 3 65.6698 3.0051 112.0633 0.0000 0.0000 0.0000
# 4 0.0000 0.0000 0.0000 2.9272 0.0000 0.0000
# 5 0.0000 0.0000 0.0000 0.0000 15.5942 0.0000
# 6 0.0000 0.0000 0.0000 0.0000 0.0000 7.3588
#
#
#
# Elastic Compliance Matrix: (Units=1/GPa)
#
#
# Indices 1 2 3 4 5 6 
#
# 1 0.015223 -0.002126 -0.008863 0.000000 0.000000 0.000000
# 2 -0.002126 0.057358 -0.000292 0.000000 0.000000 0.000000
# 3 -0.008863 -0.000292 0.014125 0.000000 0.000000 0.000000
# 4 0.000000 0.000000 0.000000 0.341620 0.000000 0.000000
# 5 0.000000 0.000000 0.000000 0.000000 0.064126 0.000000
# 6 0.000000 0.000000 0.000000 0.000000 0.000000 0.135893
#
#
# Mechanical properties :
#
#
# Convention : Reuss Voigt Hill
#
# Bulk Modulus (GPa) = 15.59034 42.21703 28.90368
# Shear Modulus (GPa) = 7.43727 15.92952 11.68339
#
# Velocity S-wave (km/s) = 2.09479 3.06573 2.62553
# Velocity P-wave (km/s) = 3.87936 6.11886 5.12298
#
# Compressibility (1/GPa) = 0.06414229
#
# Stress axis : x y z
#
# Youngs Moduli (GPa) = 65.69206 17.43437 70.79433
#
# Poissons Ratio (x) = 0.03707 0.62748
# Poissons Ratio (y) = 0.13967 0.02068
# Poissons Ratio (z) = 0.58226 0.00509
#
# Static dielectric constant tensor:
#      x y z
#    x 1.588730 0.000000 0.000000 
#    y 0.000000 1.595900 0.000000 
#    z 0.000000 0.000000 1.587780 
# 
# From -- ./inp_files/42259.got.cif
#   From: 2010.05.17/outbox.cif.g08.bks.cpg/sg67_22_cif.got.tgz:42259.got - 2010.06.03 18:28:57.
