data_PCOD9502783
_publ_section_title
;
Structure prediction by ZEFSAII (Michael W. Deem and Ramdas Pophale) SiO2 
 PCOD9502783
Probable space group: C M M A
;
_chemical_formula_sum "Si O2"
_cell_formula_units_Z 100
_cell_length_a 25.885082
_cell_length_b 8.817764
_cell_length_c 20.742736
_cell_angle_alpha 90.000000
_cell_angle_beta 90.000000
_cell_angle_gamma 90.000000
_cell_volume 4734.499295
_symmetry_space_group_name_H-M "C M M A"
_symmetry_group_IT_number 67
_symmetry_cell_setting 'orthorhombic'
loop_
_space_group_symop_operation_xyz
x,y,z
-x,1/2-y,z
x,-y,-z
-x,1/2+y,-z
-x,-y,-z
x,1/2+y,-z
-x,y,z
x,1/2-y,z
1/2+x,1/2+y,z
1/2-x,-y,z
1/2+x,1/2-y,-z
1/2-x,y,-z
1/2-x,1/2-y,-z
1/2+x,y,-z
1/2-x,1/2+y,z
1/2+x,-y,z
loop_
_atom_site_type_symbol
_atom_site_label
_atom_site_fract_x
_atom_site_fract_y
_atom_site_fract_z
Si Si1 0.196886 0.432657 0.928044
Si Si2 0.000000 0.250000 0.932372
Si Si3 0.055146 0.931871 0.392432
Si Si4 0.199537 0.929066 0.701032
Si Si5 0.083742 0.427021 0.258919
Si Si6 0.587888 0.581561 0.867847
Si Si7 0.167290 0.568006 0.433790
O O1 0.200361 0.250000 0.930497
O O2 0.250000 0.500000 0.899380
O O3 0.143116 0.472926 0.893353
O O4 0.193572 0.500000 0.000000
O O5 0.045955 0.119151 0.922785
O O6 0.055419 0.750000 0.396391
O O7 0.107321 0.985127 0.426658
O O8 0.000000 0.989479 0.417604
O O9 0.060056 0.979740 0.317799
O O10 0.206366 0.750000 0.692805
O O11 0.145675 0.954295 0.737610
O O12 0.250000 0.000000 0.733141
O O13 0.193170 0.006640 0.631069
O O14 0.074103 0.250000 0.270430
O O15 0.066153 0.477530 0.188620
O O16 0.596151 0.750000 0.837246
O O17 0.188186 0.500000 0.500000
O O18 0.169888 0.750000 0.435057
#
# Coordination Sequence:
#
# PCOD9502783 Si02
#       7
#    16   4  16  16  16  16  16
#     4  10  20  36  60  90 118 152 195 244 294 340
#     4   8  20  40  60  78 116 160 206 228 278 338
#     4   9  19  34  53  74 100 137 175 211 264 326
#     4  10  21  37  54  75 105 137 171 217 271 329
#     4  10  21  34  52  82 111 137 176 228 274 320
#     4   9  20  37  59  80 114 158 196 232 278 343
#     4  10  20  35  53  74 100 131 171 217 264 323
#
# _framework density 21.121558
#
# number of rings (size 3 to 8) (size 9 to 14) (size 15 to 20)
#    0.480    1.920    0.000    2.400    1.120    5.440 
#    0.000    5.200    0.000    0.000    0.000    0.000 
#    0.000    0.000    0.000    0.000    0.000    0.000 
#
# Total GULP energy -278370.182190 kJ/mol
# GULP energy per Si atom -5567.403644 kJ/mol
# Density = 2.107348 g / cm^3
# Si number density = 21.121558 Si / 1000 Ang^3
#
#
#
# Elastic Constant Matrix: (Units=GPa)
#
#
# Indices 1 2 3 4 5 6 
#
# 1 123.0641 11.3340 4.2600 0.0000 0.0000 0.0000
# 2 11.3340 27.6890 3.4924 0.0000 0.0000 0.0000
# 3 4.2600 3.4924 41.3420 0.0000 0.0000 0.0000
# 4 0.0000 0.0000 0.0000 7.9608 0.0000 0.0000
# 5 0.0000 0.0000 0.0000 0.0000 -14.3055 0.0000
# 6 0.0000 0.0000 0.0000 0.0000 0.0000 30.6517
#
#
#
# Elastic Compliance Matrix: (Units=1/GPa)
#
#
# Indices 1 2 3 4 5 6 
#
# 1 0.008458 -0.003388 -0.000585 0.000000 0.000000 0.000000
# 2 -0.003388 0.037862 -0.002849 0.000000 0.000000 0.000000
# 3 -0.000585 -0.002849 0.024489 0.000000 0.000000 0.000000
# 4 0.000000 0.000000 0.000000 0.125616 0.000000 0.000000
# 5 0.000000 0.000000 0.000000 0.000000 -0.069903 0.000000
# 6 0.000000 0.000000 0.000000 0.000000 0.000000 0.032625
#
#
# Mechanical properties :
#
#
# Convention : Reuss Voigt Hill
#
# Bulk Modulus (GPa) = 17.49369 25.58534 21.53952
# Shear Modulus (GPa) = 26.06245 16.39532 21.22888
#
# Velocity S-wave (km/s) = 3.51654 2.78912 3.17374
# Velocity P-wave (km/s) = 4.97880 4.74468 4.86315
#
# Compressibility (1/GPa) = 0.05716346
#
# Stress axis : x y z
#
# Youngs Moduli (GPa) = 118.22889 26.41190 40.83386
#
# Poissons Ratio (x) = 0.08949 0.02390
# Poissons Ratio (y) = 0.40060 0.11635
# Poissons Ratio (z) = 0.06920 0.07525
#
# Static dielectric constant tensor:
#      x y z
#    x 1.838910 0.000000 0.000000 
#    y 0.000000 1.732390 0.000000 
#    z 0.000000 0.000000 1.744820 
# 
# From -- ./inp_files/40174.got.cif
#   From: 2010.05.17/outbox.cif.g08.bks.cpg/sg67_21_cif.got.tgz:40174.got - 2010.06.03 18:28:57.
