data_PCOD9502236
_publ_section_title
;
Structure prediction by ZEFSAII (Michael W. Deem and Ramdas Pophale) SiO2 
 PCOD9502236
Probable space group: C M M A
;
_chemical_formula_sum "Si O2"
_cell_formula_units_Z 52
_cell_length_a 13.538858
_cell_length_b 15.017542
_cell_length_c 12.893236
_cell_angle_alpha 90.000000
_cell_angle_beta 90.000000
_cell_angle_gamma 90.000000
_cell_volume 2621.457497
_symmetry_space_group_name_H-M "C M M A"
_symmetry_group_IT_number 67
_symmetry_cell_setting 'orthorhombic'
loop_
_space_group_symop_operation_xyz
x,y,z
-x,1/2-y,z
x,-y,-z
-x,1/2+y,-z
-x,-y,-z
x,1/2+y,-z
-x,y,z
x,1/2-y,z
1/2+x,1/2+y,z
1/2-x,-y,z
1/2+x,1/2-y,-z
1/2-x,y,-z
1/2-x,1/2-y,-z
1/2+x,y,-z
1/2-x,1/2+y,z
1/2+x,-y,z
loop_
_atom_site_type_symbol
_atom_site_label
_atom_site_fract_x
_atom_site_fract_y
_atom_site_fract_z
Si Si1 0.250000 0.000000 0.000000
Si Si2 0.116980 0.856209 0.875904
Si Si3 0.791503 0.150938 0.343502
Si Si4 0.392043 0.097065 0.450886
O O1 0.180491 0.930658 0.936183
O O2 0.140371 0.750000 0.898099
O O3 0.141919 0.872045 0.754368
O O4 0.000000 0.867079 0.894445
O O5 0.752709 0.250000 0.324836
O O6 0.693023 0.094973 0.365014
O O7 0.853441 0.151571 0.449945
O O8 0.500000 0.125928 0.414531
O O9 0.398746 0.000000 0.500000
#
# Coordination Sequence:
#
# PCOD9502236 Si02
#       4
#     4  16  16  16
#     4  12  24  40  72  94 116 156 204 264 316 370
#     4  10  23  43  65  92 124 159 202 253 312 373
#     4  10  20  35  56  80 115 157 195 235 289 356
#     4  10  20  32  52  83 120 155 195 239 281 339
#
# _framework density 19.836293999999999
#
# number of rings (size 3 to 8) (size 9 to 14) (size 15 to 20)
#    0.000    1.846    0.000    5.538    4.308    3.692 
#    0.000    1.538    0.000    3.692    0.000    0.000 
#    0.000    0.000    0.000    0.000    0.000    0.000 
#
# Total GULP energy -144861.839373 kJ/mol
# GULP energy per Si atom -5571.609207 kJ/mol
# Density = 1.979115 g / cm^3
# Si number density = 19.836294 Si / 1000 Ang^3
#
#
#
# Elastic Constant Matrix: (Units=GPa)
#
#
# Indices 1 2 3 4 5 6 
#
# 1 143.2557 61.2629 33.1222 0.0000 0.0000 0.0000
# 2 61.2629 105.3780 40.6859 0.0000 0.0000 0.0000
# 3 33.1222 40.6859 57.8800 0.0000 0.0000 0.0000
# 4 0.0000 0.0000 0.0000 26.5883 0.0000 0.0000
# 5 0.0000 0.0000 0.0000 0.0000 22.7794 0.0000
# 6 0.0000 0.0000 0.0000 0.0000 0.0000 28.5567
#
#
#
# Elastic Compliance Matrix: (Units=1/GPa)
#
#
# Indices 1 2 3 4 5 6 
#
# 1 0.009477 -0.004688 -0.002128 0.000000 0.000000 0.000000
# 2 -0.004688 0.015344 -0.008103 0.000000 0.000000 0.000000
# 3 -0.002128 -0.008103 0.024191 0.000000 0.000000 0.000000
# 4 0.000000 0.000000 0.000000 0.037611 0.000000 0.000000
# 5 0.000000 0.000000 0.000000 0.000000 0.043899 0.000000
# 6 0.000000 0.000000 0.000000 0.000000 0.000000 0.035018
#
#
# Mechanical properties :
#
#
# Convention : Reuss Voigt Hill
#
# Bulk Modulus (GPa) = 52.15462 64.07285 58.11374
# Shear Modulus (GPa) = 24.78086 27.01439 25.89763
#
# Velocity S-wave (km/s) = 3.53833 3.69435 3.61718
# Velocity P-wave (km/s) = 6.56069 7.11116 6.84146
#
# Compressibility (1/GPa) = 0.01917376
#
# Stress axis : x y z
#
# Youngs Moduli (GPa) = 105.51357 65.17364 41.33844
#
# Poissons Ratio (x) = 0.30555 0.08797
# Poissons Ratio (y) = 0.49467 0.33495
# Poissons Ratio (z) = 0.22453 0.52808
#
# Static dielectric constant tensor:
#      x y z
#    x 1.713910 0.000000 0.000000 
#    y 0.000000 1.819600 0.000000 
#    z 0.000000 0.000000 1.680850 
# 
# From -- ./inp_files/17221.got.cif
#   From: 2010.05.17/outbox.cif.g08.bks.cpg/sg67_9_cif.got.tgz:17221.got - 2010.06.03 18:28:57.
