data_PCOD9502369
_publ_section_title
;
Structure prediction by ZEFSAII (Michael W. Deem and Ramdas Pophale) SiO2 
 PCOD9502369
Probable space group: C M M A
;
_chemical_formula_sum "Si O2"
_cell_formula_units_Z 96
_cell_length_a 19.327952
_cell_length_b 8.877549
_cell_length_c 31.157971
_cell_angle_alpha 90.000000
_cell_angle_beta 90.000000
_cell_angle_gamma 90.000000
_cell_volume 5346.235498
_symmetry_space_group_name_H-M "C M M A"
_symmetry_group_IT_number 67
_symmetry_cell_setting 'orthorhombic'
loop_
_space_group_symop_operation_xyz
x,y,z
-x,1/2-y,z
x,-y,-z
-x,1/2+y,-z
-x,-y,-z
x,1/2+y,-z
-x,y,z
x,1/2-y,z
1/2+x,1/2+y,z
1/2-x,-y,z
1/2+x,1/2-y,-z
1/2-x,y,-z
1/2-x,1/2-y,-z
1/2+x,y,-z
1/2-x,1/2+y,z
1/2+x,-y,z
loop_
_atom_site_type_symbol
_atom_site_label
_atom_site_fract_x
_atom_site_fract_y
_atom_site_fract_z
Si Si1 0.581964 0.571159 0.866385
Si Si2 0.415716 0.076060 0.955778
Si Si3 0.323833 0.568852 0.452758
Si Si4 0.825208 0.429164 0.206780
Si Si5 0.673969 0.930508 0.306431
Si Si6 0.417889 0.429614 0.380313
O O1 0.500000 0.539296 0.862808
O O2 0.591629 0.750000 0.865681
O O3 0.606230 0.507184 0.912350
O O4 0.621637 0.496580 0.827059
O O5 0.500000 0.070313 0.956342
O O6 0.395170 0.250000 0.954427
O O7 0.391953 0.000000 0.000000
O O8 0.336190 0.500000 0.500000
O O9 0.319743 0.750000 0.454639
O O10 0.250000 0.500000 0.438114
O O11 0.382343 0.513387 0.420293
O O12 0.821403 0.250000 0.201790
O O13 0.750000 0.500000 0.199129
O O14 0.843718 0.460804 0.256521
O O15 0.676222 0.750000 0.312990
O O16 0.750000 0.000000 0.314496
O O17 0.619366 0.006123 0.338088
O O18 0.500000 0.455953 0.379146
O O19 0.405913 0.250000 0.383757
#
# Coordination Sequence:
#
# PCOD9502369 Si02
#       6
#    16  16  16  16  16  16
#     4  10  20  33  51  77 108 141 178 221 269 320
#     4   9  16  27  45  70 101 136 175 219 266 316
#     4  11  22  39  63  88 116 149 189 232 273 322
#     4  10  21  37  57  80 107 141 180 223 271 324
#     4  10  21  38  60  83 108 141 183 227 271 323
#     4  11  24  40  58  83 116 151 186 226 275 327
#
# _framework density 17.956558999999999
#
# number of rings (size 3 to 8) (size 9 to 14) (size 15 to 20)
#    0.000    1.833    0.000    5.000    0.000    7.333 
#    0.000    3.333    0.000    0.500    0.000    3.500 
#    0.000    0.000    0.000    0.000    0.000    0.000 
#
# Total GULP energy -268121.173423 kJ/mol
# GULP energy per Si atom -5585.857780 kJ/mol
# Density = 1.791569 g / cm^3
# Si number density = 17.956559 Si / 1000 Ang^3
#
#
#
# Elastic Constant Matrix: (Units=GPa)
#
#
# Indices 1 2 3 4 5 6 
#
# 1 82.5299 78.7008 84.9693 0.0000 0.0000 0.0000
# 2 78.7008 132.5031 91.0193 0.0000 0.0000 0.0000
# 3 84.9693 91.0193 130.3400 0.0000 0.0000 0.0000
# 4 0.0000 0.0000 0.0000 37.1722 0.0000 0.0000
# 5 0.0000 0.0000 0.0000 0.0000 4.5484 0.0000
# 6 0.0000 0.0000 0.0000 0.0000 0.0000 28.7251
#
#
#
# Elastic Compliance Matrix: (Units=1/GPa)
#
#
# Indices 1 2 3 4 5 6 
#
# 1 0.046086 -0.012945 -0.021004 0.000000 0.000000 0.000000
# 2 -0.012945 0.018141 -0.004229 0.000000 0.000000 0.000000
# 3 -0.021004 -0.004229 0.024318 0.000000 0.000000 0.000000
# 4 0.000000 0.000000 0.000000 0.026902 0.000000 0.000000
# 5 0.000000 0.000000 0.000000 0.000000 0.219858 0.000000
# 6 0.000000 0.000000 0.000000 0.000000 0.000000 0.034813
#
#
# Mechanical properties :
#
#
# Convention : Reuss Voigt Hill
#
# Bulk Modulus (GPa) = 82.04304 94.97241 88.50773
# Shear Modulus (GPa) = 11.09788 20.13470 15.61629
#
# Velocity S-wave (km/s) = 2.48874 3.35222 2.95222
# Velocity P-wave (km/s) = 7.35169 8.24549 7.81138
#
# Compressibility (1/GPa) = 0.01218872
#
# Stress axis : x y z
#
# Youngs Moduli (GPa) = 21.69864 55.12413 41.12120
#
# Poissons Ratio (x) = 0.71357 0.86371
# Poissons Ratio (y) = 0.28088 0.17392
# Poissons Ratio (z) = 0.45576 0.23314
#
# Static dielectric constant tensor:
#      x y z
#    x 1.587890 0.000000 0.000000 
#    y 0.000000 1.598250 0.000000 
#    z 0.000000 0.000000 1.608310 
# 
# From -- ./inp_files/44593.got.cif
#   From: 2010.05.17/outbox.cif.g08.bks.cpg/sg67_23_cif.got.tgz:44593.got - 2010.06.03 18:28:57.
