data_PCOD9502193
_publ_section_title
;
Structure prediction by ZEFSAII (Michael W. Deem and Ramdas Pophale) SiO2 
 PCOD9502193
Probable space group: C M M A
;
_chemical_formula_sum "Si O2"
_cell_formula_units_Z 72
_cell_length_a 11.216502
_cell_length_b 14.411841
_cell_length_c 17.095494
_cell_angle_alpha 90.000000
_cell_angle_beta 90.000000
_cell_angle_gamma 90.000000
_cell_volume 2763.494185
_symmetry_space_group_name_H-M "C M M A"
_symmetry_group_IT_number 67
_symmetry_cell_setting 'orthorhombic'
loop_
_space_group_symop_operation_xyz
x,y,z
-x,1/2-y,z
x,-y,-z
-x,1/2+y,-z
-x,-y,-z
x,1/2+y,-z
-x,y,z
x,1/2-y,z
1/2+x,1/2+y,z
1/2-x,-y,z
1/2+x,1/2-y,-z
1/2-x,y,-z
1/2-x,1/2-y,-z
1/2+x,y,-z
1/2-x,1/2+y,z
1/2+x,-y,z
loop_
_atom_site_type_symbol
_atom_site_label
_atom_site_fract_x
_atom_site_fract_y
_atom_site_fract_z
Si Si1 0.371340 0.137269 0.458848
Si Si2 0.500000 0.645074 0.325257
Si Si3 0.258664 0.606398 0.879002
Si Si4 0.500000 0.425881 0.071755
Si Si5 0.242519 0.362035 0.695659
Si Si6 0.000000 0.616781 0.858164
O O1 0.500000 0.106271 0.490116
O O2 0.370504 0.250000 0.464379
O O3 0.250000 0.105850 0.500000
O O4 0.357402 0.114432 0.367062
O O5 0.500000 0.750000 0.358761
O O6 0.369686 0.603430 0.338760
O O7 0.500000 0.650433 0.230445
O O8 0.250000 0.500000 0.904975
O O9 0.381158 0.635135 0.919696
O O10 0.275190 0.608862 0.785002
O O11 0.126843 0.646324 0.894065
O O12 0.500000 0.503534 0.141881
O O13 0.500000 0.500000 0.000000
O O14 0.251772 0.250000 0.698217
#
# Coordination Sequence:
#
# PCOD9502193 Si02
#       6
#    16   8  16   8  16   8
#     4   9  18  29  43  67 100 134 170 211 258 311
#     4   8  14  26  46  69  92 122 158 203 250 297
#     4   9  18  32  50  73 100 131 169 212 256 302
#     4  10  20  32  49  72  97 128 161 204 257 304
#     4   9  17  29  49  74 100 132 172 217 265 308
#     4   8  16  30  46  69  93 119 161 197 242 296
#
# _framework density 26.053972000000002
#
# number of rings (size 3 to 8) (size 9 to 14) (size 15 to 20)
#    0.000    3.111    0.000    0.000    3.111    4.000 
#    0.000    0.000    0.000    2.000    0.000   12.444 
#    0.000    0.000    0.000    0.000    0.000    0.000 
#
# Total GULP energy -200906.074561 kJ/mol
# GULP energy per Si atom -5580.724293 kJ/mol
# Density = 2.599467 g / cm^3
# Si number density = 26.053972 Si / 1000 Ang^3
#
#
#
# Elastic Constant Matrix: (Units=GPa)
#
#
# Indices 1 2 3 4 5 6 
#
# 1 299.3701 2.2802 66.1649 0.0000 0.0000 0.0000
# 2 2.2802 101.1625 0.0085 0.0000 0.0000 0.0000
# 3 66.1649 0.0085 122.2288 0.0000 0.0000 0.0000
# 4 0.0000 0.0000 0.0000 19.3992 0.0000 0.0000
# 5 0.0000 0.0000 0.0000 0.0000 14.6619 0.0000
# 6 0.0000 0.0000 0.0000 0.0000 0.0000 -6.5197
#
#
#
# Elastic Compliance Matrix: (Units=1/GPa)
#
#
# Indices 1 2 3 4 5 6 
#
# 1 0.003795 -0.000085 -0.002054 0.000000 0.000000 0.000000
# 2 -0.000085 0.009887 0.000046 0.000000 0.000000 0.000000
# 3 -0.002054 0.000046 0.009293 0.000000 0.000000 0.000000
# 4 0.000000 0.000000 0.000000 0.051549 0.000000 0.000000
# 5 0.000000 0.000000 0.000000 0.000000 0.068204 0.000000
# 6 0.000000 0.000000 0.000000 0.000000 0.000000 -0.153381
#
#
# Mechanical properties :
#
#
# Convention : Reuss Voigt Hill
#
# Bulk Modulus (GPa) = 53.22793 73.29651 63.26222
# Shear Modulus (GPa) = -24746.91851 35.79545 -12355.56153
#
# Velocity S-wave (km/s) = -97.56510 3.71063 -68.93903
# Velocity P-wave (km/s) = 112.56757 6.82290 79.45094
#
# Compressibility (1/GPa) = 0.01878713
#
# Stress axis : x y z
#
# Youngs Moduli (GPa) = 263.50253 101.14281 107.60297
#
# Poissons Ratio (x) = 0.00863 0.22105
# Poissons Ratio (y) = 0.02249 -0.00490
# Poissons Ratio (z) = 0.54132 -0.00460
#
# Static dielectric constant tensor:
#      x y z
#    x 2.157040 0.000000 0.000000 
#    y 0.000000 1.986720 0.000000 
#    z 0.000000 0.000000 2.031500 
# 
# From -- ./inp_files/32859.got.cif
#   From: 2010.05.17/outbox.cif.g08.bks.cpg/sg67_17_cif.got.tgz:32859.got - 2010.06.03 18:28:57.
