data_PCOD9502303
_publ_section_title
;
Structure prediction by ZEFSAII (Michael W. Deem and Ramdas Pophale) SiO2 
 PCOD9502303
Probable space group: C M M A
;
_chemical_formula_sum "Si O2"
_cell_formula_units_Z 88
_cell_length_a 15.695722
_cell_length_b 8.902170
_cell_length_c 31.246573
_cell_angle_alpha 90.000000
_cell_angle_beta 90.000000
_cell_angle_gamma 90.000000
_cell_volume 4365.958206
_symmetry_space_group_name_H-M "C M M A"
_symmetry_group_IT_number 67
_symmetry_cell_setting 'orthorhombic'
loop_
_space_group_symop_operation_xyz
x,y,z
-x,1/2-y,z
x,-y,-z
-x,1/2+y,-z
-x,-y,-z
x,1/2+y,-z
-x,y,z
x,1/2-y,z
1/2+x,1/2+y,z
1/2-x,-y,z
1/2+x,1/2-y,-z
1/2-x,y,-z
1/2-x,1/2-y,-z
1/2+x,y,-z
1/2-x,1/2+y,z
1/2+x,-y,z
loop_
_atom_site_type_symbol
_atom_site_label
_atom_site_fract_x
_atom_site_fract_y
_atom_site_fract_z
Si Si1 0.343582 0.571136 0.364132
Si Si2 0.500000 0.931234 0.952600
Si Si3 0.101276 0.416686 0.721498
Si Si4 0.845749 0.569564 0.542626
Si Si5 0.660000 0.068621 0.902301
Si Si6 0.601675 0.927825 0.192492
O O1 0.337833 0.750000 0.362354
O O2 0.250000 0.500000 0.364121
O O3 0.386146 0.511262 0.321310
O O4 0.384213 0.533365 0.410606
O O5 0.500000 0.250000 0.046571
O O6 0.582918 0.994104 0.928143
O O7 0.500000 0.000000 0.000000
O O8 0.137364 0.250000 0.715144
O O9 0.134766 0.488550 0.765346
O O10 0.000000 0.406240 0.727710
O O11 0.886772 0.500000 0.500000
O O12 0.840779 0.750000 0.538320
O O13 0.750000 0.500000 0.544058
O O14 0.657855 0.250000 0.906862
O O15 0.645843 0.031920 0.852037
O O16 0.750000 0.000000 0.916240
O O17 0.500000 0.957047 0.187209
O O18 0.611090 0.750000 0.199453
#
# Coordination Sequence:
#
# PCOD9502303 Si02
#       6
#    16   8  16  16  16  16
#     4  10  20  33  50  73 102 136 174 222 277 335
#     4  12  26  46  72 100 134 178 220 270 325 378
#     4  10  21  35  53  79 110 147 189 232 280 340
#     4   9  16  26  43  67  93 124 164 211 268 330
#     4  11  23  42  67 100 135 172 218 267 320 380
#     4   9  18  36  60  83 115 159 200 245 298 356
#
# _framework density 20.155940000000001
#
# number of rings (size 3 to 8) (size 9 to 14) (size 15 to 20)
#    0.000    2.000    0.909    3.545    0.000    5.818 
#    0.000    3.636    0.000    0.545    0.000    0.000 
#    0.000    0.000    0.000    0.000    0.000    0.000 
#
# Total GULP energy -245577.839586 kJ/mol
# GULP energy per Si atom -5581.314536 kJ/mol
# Density = 2.011006 g / cm^3
# Si number density = 20.155940 Si / 1000 Ang^3
#
#
#
# Elastic Constant Matrix: (Units=GPa)
#
#
# Indices 1 2 3 4 5 6 
#
# 1 72.9193 41.9207 53.6642 0.0000 0.0000 0.0000
# 2 41.9207 107.4340 86.0902 0.0000 0.0000 0.0000
# 3 53.6642 86.0902 178.4609 0.0000 0.0000 0.0000
# 4 0.0000 0.0000 0.0000 -13.0833 0.0000 0.0000
# 5 0.0000 0.0000 0.0000 0.0000 -34.1070 0.0000
# 6 0.0000 0.0000 0.0000 0.0000 0.0000 22.4967
#
#
#
# Elastic Compliance Matrix: (Units=1/GPa)
#
#
# Indices 1 2 3 4 5 6 
#
# 1 0.018910 -0.004600 -0.003467 0.000000 0.000000 0.000000
# 2 -0.004600 0.016293 -0.006476 0.000000 0.000000 0.000000
# 3 -0.003467 -0.006476 0.009770 0.000000 0.000000 0.000000
# 4 0.000000 0.000000 0.000000 -0.076433 0.000000 0.000000
# 5 0.000000 0.000000 0.000000 0.000000 -0.029320 0.000000
# 6 0.000000 0.000000 0.000000 0.000000 0.000000 0.044451
#
#
# Mechanical properties :
#
#
# Convention : Reuss Voigt Hill
#
# Bulk Modulus (GPa) = 62.95072 80.24047 71.59559
# Shear Modulus (GPa) = 276.94617 6.87057 141.90837
#
# Velocity S-wave (km/s) = 11.73457 1.84827 8.39989
# Velocity P-wave (km/s) = 14.65946 6.66716 11.38751
#
# Compressibility (1/GPa) = 0.01588544
#
# Stress axis : x y z
#
# Youngs Moduli (GPa) = 52.88170 61.37673 102.35144
#
# Poissons Ratio (x) = 0.28236 0.35486
# Poissons Ratio (y) = 0.24328 0.66286
# Poissons Ratio (z) = 0.18335 0.39750
#
# Static dielectric constant tensor:
#      x y z
#    x 1.700250 0.000000 0.000000 
#    y 0.000000 1.689050 0.000000 
#    z 0.000000 0.000000 1.742470 
# 
# From -- ./inp_files/45764.got.cif
#   From: 2010.05.17/outbox.cif.g08.bks.cpg/sg67_23_cif.got.tgz:45764.got - 2010.06.03 18:28:57.
