data_PCOD9502307
_publ_section_title
;
Structure prediction by ZEFSAII (Michael W. Deem and Ramdas Pophale) SiO2 
 PCOD9502307
Probable space group: C M M A
;
_chemical_formula_sum "Si O2"
_cell_formula_units_Z 72
_cell_length_a 9.599229
_cell_length_b 26.702326
_cell_length_c 16.053817
_cell_angle_alpha 90.000000
_cell_angle_beta 90.000000
_cell_angle_gamma 90.000000
_cell_volume 4114.942341
_symmetry_space_group_name_H-M "C M M A"
_symmetry_group_IT_number 67
_symmetry_cell_setting 'orthorhombic'
loop_
_space_group_symop_operation_xyz
x,y,z
-x,1/2-y,z
x,-y,-z
-x,1/2+y,-z
-x,-y,-z
x,1/2+y,-z
-x,y,z
x,1/2-y,z
1/2+x,1/2+y,z
1/2-x,-y,z
1/2+x,1/2-y,-z
1/2-x,y,-z
1/2-x,1/2-y,-z
1/2+x,y,-z
1/2-x,1/2+y,z
1/2+x,-y,z
loop_
_atom_site_type_symbol
_atom_site_label
_atom_site_fract_x
_atom_site_fract_y
_atom_site_fract_z
Si Si1 0.159382 0.049543 0.655623
Si Si2 0.847965 0.693406 0.625642
Si Si3 0.250000 0.386036 0.500000
Si Si4 0.666323 0.354125 0.237093
Si Si5 0.835065 0.690726 0.914147
O O1 0.177391 0.078847 0.568137
O O2 0.193282 0.090082 0.727300
O O3 0.000000 0.034796 0.665152
O O4 0.250000 0.000000 0.657394
O O5 0.835357 0.750000 0.593565
O O6 0.843264 0.652105 0.553542
O O7 0.724975 0.681563 0.689720
O O8 0.000000 0.689496 0.668492
O O9 0.500000 0.347924 0.225069
O O10 0.755517 0.340774 0.156179
O O11 0.826280 0.750000 0.892192
O O12 0.000000 0.678589 0.922140
O O13 0.750000 0.684105 0.000000
#
# Coordination Sequence:
#
# PCOD9502307 Si02
#       5
#    16  16   8  16  16
#     4  10  22  37  54  75  99 131 173 221 270 316
#     4  10  20  33  50  73 103 140 179 216 257 310
#     4  10  20  34  52  74 102 134 174 220 268 314
#     4  10  21  36  53  76 106 139 175 215 261 310
#     4  10  20  34  55  84 115 145 175 206 245 297
#
# _framework density 17.497207
#
# number of rings (size 3 to 8) (size 9 to 14) (size 15 to 20)
#    0.000    2.000    0.000    3.333    0.000   11.556 
#    0.000    0.000    0.000    0.667    0.000    4.667 
#    0.000    0.000    0.000    0.000    0.000    0.000 
#
# Total GULP energy -200770.484680 kJ/mol
# GULP energy per Si atom -5576.957908 kJ/mol
# Density = 1.745738 g / cm^3
# Si number density = 17.497207 Si / 1000 Ang^3
#
#
#
# Elastic Constant Matrix: (Units=GPa)
#
#
# Indices 1 2 3 4 5 6 
#
# 1 123.3370 79.4217 65.7068 0.0000 0.0000 0.0000
# 2 79.4217 118.7606 58.0047 0.0000 0.0000 0.0000
# 3 65.7068 58.0047 102.6053 0.0000 0.0000 0.0000
# 4 0.0000 0.0000 0.0000 5.7637 0.0000 0.0000
# 5 0.0000 0.0000 0.0000 0.0000 24.6988 0.0000
# 6 0.0000 0.0000 0.0000 0.0000 0.0000 52.9724
#
#
#
# Elastic Compliance Matrix: (Units=1/GPa)
#
#
# Indices 1 2 3 4 5 6 
#
# 1 0.016537 -0.008132 -0.005993 0.000000 0.000000 0.000000
# 2 -0.008132 0.015631 -0.003629 0.000000 0.000000 0.000000
# 3 -0.005993 -0.003629 0.015635 0.000000 0.000000 0.000000
# 4 0.000000 0.000000 0.000000 0.173499 0.000000 0.000000
# 5 0.000000 0.000000 0.000000 0.000000 0.040488 0.000000
# 6 0.000000 0.000000 0.000000 0.000000 0.000000 0.018878
#
#
# Mechanical properties :
#
#
# Convention : Reuss Voigt Hill
#
# Bulk Modulus (GPa) = 81.32892 83.44104 82.38498
# Shear Modulus (GPa) = 15.61157 26.12495 20.86826
#
# Velocity S-wave (km/s) = 2.99027 3.86825 3.45724
# Velocity P-wave (km/s) = 7.64881 8.23060 7.94503
#
# Compressibility (1/GPa) = 0.01229575
#
# Stress axis : x y z
#
# Youngs Moduli (GPa) = 60.46944 63.97449 63.95825
#
# Poissons Ratio (x) = 0.52027 0.38329
# Poissons Ratio (y) = 0.49176 0.23209
# Poissons Ratio (z) = 0.36238 0.23215
#
# Static dielectric constant tensor:
#      x y z
#    x 1.601250 0.000000 0.000000 
#    y 0.000000 1.587250 0.000000 
#    z 0.000000 0.000000 1.595670 
# 
# From -- ./inp_files/25092.got.cif
#   From: 2010.05.17/outbox.cif.g08.bks.cpg/sg67_13_cif.got.tgz:25092.got - 2010.06.03 18:28:57.
