data_PCOD9502087
_publ_section_title
;
Structure prediction by ZEFSAII (Michael W. Deem and Ramdas Pophale) SiO2 
 PCOD9502087
Probable space group: C M M A
;
_chemical_formula_sum "Si O2"
_cell_formula_units_Z 104
_cell_length_a 9.131344
_cell_length_b 27.421683
_cell_length_c 24.940349
_cell_angle_alpha 90.000000
_cell_angle_beta 90.000000
_cell_angle_gamma 90.000000
_cell_volume 6244.984093
_symmetry_space_group_name_H-M "C M M A"
_symmetry_group_IT_number 67
_symmetry_cell_setting 'orthorhombic'
loop_
_space_group_symop_operation_xyz
x,y,z
-x,1/2-y,z
x,-y,-z
-x,1/2+y,-z
-x,-y,-z
x,1/2+y,-z
-x,y,z
x,1/2-y,z
1/2+x,1/2+y,z
1/2-x,-y,z
1/2+x,1/2-y,-z
1/2-x,y,-z
1/2-x,1/2-y,-z
1/2+x,y,-z
1/2-x,1/2+y,z
1/2+x,-y,z
loop_
_atom_site_type_symbol
_atom_site_label
_atom_site_fract_x
_atom_site_fract_y
_atom_site_fract_z
Si Si1 0.831188 0.190453 0.445445
Si Si2 0.333891 0.953209 0.242753
Si Si3 0.670375 0.050056 0.887657
Si Si4 0.164653 0.192562 0.660024
Si Si5 0.177110 0.845780 0.760198
Si Si6 0.674970 0.250000 0.057306
Si Si7 0.676871 0.847958 0.876302
O O1 0.831402 0.250000 0.444747
O O2 0.750000 0.175756 0.500000
O O3 0.747426 0.172659 0.392306
O O4 0.000000 0.174967 0.445067
O O5 0.500000 0.948089 0.094914
O O6 0.331031 0.953031 0.177487
O O7 0.278170 0.900304 0.258176
O O8 0.250000 0.000000 0.262313
O O9 0.500000 0.042934 0.739966
O O10 0.754519 0.101125 0.898705
O O11 0.750000 0.000000 0.906490
O O12 0.150170 0.250000 0.649970
O O13 0.260177 0.187465 0.713616
O O14 0.000000 0.172598 0.667098
O O15 0.252197 0.838539 0.817830
O O16 0.000000 0.843404 0.765520
O O17 0.500000 0.250000 0.051034
O O18 0.712000 0.199980 0.088709
O O19 0.750000 0.250000 0.000000
O O20 0.500000 0.853046 0.872241
#
# Coordination Sequence:
#
# PCOD9502087 Si02
#       7
#    16  16  16  16  16   8  16
#     4   9  16  27  43  61  83 115 157 201 242 286
#     4   8  15  26  41  62  90 120 154 188 226 277
#     4   9  16  28  48  76 104 132 163 199 244 297
#     4  10  20  31  43  62  91 127 163 201 243 286
#     4  10  20  32  46  70  99 129 162 197 240 293
#     4  10  24  42  60  78 100 132 173 214 253 294
#     4  10  20  35  53  76 103 133 167 207 251 301
#
# _framework density 16.653365000000001
#
# number of rings (size 3 to 8) (size 9 to 14) (size 15 to 20)
#    0.000    2.615    0.000    3.231    1.077    8.308 
#    0.000    0.000    0.000    0.462    0.000    3.231 
#    0.000    0.615    0.000    6.462    0.000    4.000 
#
# Total GULP energy -289511.377342 kJ/mol
# GULP energy per Si atom -5567.526487 kJ/mol
# Density = 1.661546 g / cm^3
# Si number density = 16.653365 Si / 1000 Ang^3
#
#
#
# Elastic Constant Matrix: (Units=GPa)
#
#
# Indices 1 2 3 4 5 6 
#
# 1 105.1903 53.0885 50.8351 0.0000 0.0000 0.0000
# 2 53.0885 80.3510 42.3291 0.0000 0.0000 0.0000
# 3 50.8351 42.3291 73.0151 0.0000 0.0000 0.0000
# 4 0.0000 0.0000 0.0000 -4.3551 0.0000 0.0000
# 5 0.0000 0.0000 0.0000 0.0000 18.2445 0.0000
# 6 0.0000 0.0000 0.0000 0.0000 0.0000 26.3336
#
#
#
# Elastic Compliance Matrix: (Units=1/GPa)
#
#
# Indices 1 2 3 4 5 6 
#
# 1 0.016722 -0.007076 -0.007540 0.000000 0.000000 0.000000
# 2 -0.007076 0.020912 -0.007197 0.000000 0.000000 0.000000
# 3 -0.007540 -0.007197 0.023117 0.000000 0.000000 0.000000
# 4 0.000000 0.000000 0.000000 -0.229618 0.000000 0.000000
# 5 0.000000 0.000000 0.000000 0.000000 0.054811 0.000000
# 6 0.000000 0.000000 0.000000 0.000000 0.000000 0.037974
#
#
# Mechanical properties :
#
#
# Convention : Reuss Voigt Hill
#
# Bulk Modulus (GPa) = 58.39196 61.22910 59.81053
# Shear Modulus (GPa) = -186.92307 15.53154 -85.69576
#
# Velocity S-wave (km/s) = -10.60599 3.05722 -7.18124
# Velocity P-wave (km/s) = 10.71651 7.02202 5.72428
#
# Compressibility (1/GPa) = 0.01712565
#
# Stress axis : x y z
#
# Youngs Moduli (GPa) = 59.80323 47.81980 43.25760
#
# Poissons Ratio (x) = 0.33838 0.32615
# Poissons Ratio (y) = 0.42317 0.31131
# Poissons Ratio (z) = 0.45090 0.34415
#
# Static dielectric constant tensor:
#      x y z
#    x 1.566680 0.000000 0.000000 
#    y 0.000000 1.597920 0.000000 
#    z 0.000000 0.000000 1.532640 
# 
# From -- ./inp_files/37318.got.cif
#   From: 2010.05.17/outbox.cif.g08.bks.cpg/sg67_19_cif.got.tgz:37318.got - 2010.06.03 18:28:57.
