data_PCOD9502209
_publ_section_title
;
Structure prediction by ZEFSAII (Michael W. Deem and Ramdas Pophale) SiO2 
 PCOD9502209
Probable space group: C M M A
;
_chemical_formula_sum "Si O2"
_cell_formula_units_Z 80
_cell_length_a 27.621822
_cell_length_b 8.893172
_cell_length_c 19.006957
_cell_angle_alpha 90.000000
_cell_angle_beta 90.000000
_cell_angle_gamma 90.000000
_cell_volume 4668.975623
_symmetry_space_group_name_H-M "C M M A"
_symmetry_group_IT_number 67
_symmetry_cell_setting 'orthorhombic'
loop_
_space_group_symop_operation_xyz
x,y,z
-x,1/2-y,z
x,-y,-z
-x,1/2+y,-z
-x,-y,-z
x,1/2+y,-z
-x,y,z
x,1/2-y,z
1/2+x,1/2+y,z
1/2-x,-y,z
1/2+x,1/2-y,-z
1/2-x,y,-z
1/2-x,1/2-y,-z
1/2+x,y,-z
1/2-x,1/2+y,z
1/2+x,-y,z
loop_
_atom_site_type_symbol
_atom_site_label
_atom_site_fract_x
_atom_site_fract_y
_atom_site_fract_z
Si Si1 0.944252 0.430350 0.639626
Si Si2 0.699244 0.929768 0.710265
Si Si3 0.443511 0.429175 0.926584
Si Si4 0.100907 0.428499 0.789524
Si Si5 0.149673 0.429483 0.425335
O O1 0.936514 0.250000 0.630773
O O2 0.932306 0.464808 0.721455
O O3 0.905023 0.517935 0.593574
O O4 0.000000 0.464834 0.623484
O O5 0.702825 0.750000 0.701791
O O6 0.655615 0.960382 0.764561
O O7 0.750000 0.000000 0.732504
O O8 0.682745 0.003290 0.636661
O O9 0.500000 0.474425 0.917701
O O10 0.441343 0.250000 0.931608
O O11 0.414811 0.485379 0.858814
O O12 0.426197 0.500000 0.000000
O O13 0.096268 0.250000 0.802026
O O14 0.163288 0.500000 0.500000
O O15 0.152769 0.250000 0.426819
#
# Coordination Sequence:
#
# PCOD9502209 Si02
#       5
#    16  16  16  16  16
#     4   9  18  33  52  74 102 137 174 211 254 305
#     4  10  21  38  58  80 103 130 167 210 259 310
#     4  10  20  32  49  76 109 143 177 210 246 292
#     4   9  18  33  53  76 104 135 167 207 253 301
#     4  11  22  36  53  74 102 134 170 213 259 308
#
# _framework density 17.134378999999999
#
# number of rings (size 3 to 8) (size 9 to 14) (size 15 to 20)
#    0.000    2.200    0.000    4.800    0.000    7.200 
#    0.000    2.000    0.000    0.600    0.000    4.200 
#    0.000    0.000    0.000    0.000    0.000    0.000 
#
# Total GULP energy -223336.120765 kJ/mol
# GULP energy per Si atom -5583.403019 kJ/mol
# Density = 1.709538 g / cm^3
# Si number density = 17.134379 Si / 1000 Ang^3
#
#
#
# Elastic Constant Matrix: (Units=GPa)
#
#
# Indices 1 2 3 4 5 6 
#
# 1 53.9328 29.8931 8.7735 0.0000 0.0000 0.0000
# 2 29.8931 69.6283 44.3020 0.0000 0.0000 0.0000
# 3 8.7735 44.3020 90.6276 0.0000 0.0000 0.0000
# 4 0.0000 0.0000 0.0000 33.8602 0.0000 0.0000
# 5 0.0000 0.0000 0.0000 0.0000 5.8456 0.0000
# 6 0.0000 0.0000 0.0000 0.0000 0.0000 29.8865
#
#
#
# Elastic Compliance Matrix: (Units=1/GPa)
#
#
# Indices 1 2 3 4 5 6 
#
# 1 0.025369 -0.013541 0.004163 0.000000 0.000000 0.000000
# 2 -0.013541 0.028073 -0.012412 0.000000 0.000000 0.000000
# 3 0.004163 -0.012412 0.016699 0.000000 0.000000 0.000000
# 4 0.000000 0.000000 0.000000 0.029533 0.000000 0.000000
# 5 0.000000 0.000000 0.000000 0.000000 0.171069 0.000000
# 6 0.000000 0.000000 0.000000 0.000000 0.000000 0.033460
#
#
# Mechanical properties :
#
#
# Convention : Reuss Voigt Hill
#
# Bulk Modulus (GPa) = 37.64822 42.23619 39.94220
# Shear Modulus (GPa) = 14.01991 22.66647 18.34319
#
# Velocity S-wave (km/s) = 2.86358 3.64107 3.27547
# Velocity P-wave (km/s) = 5.74051 6.50999 6.13732
#
# Compressibility (1/GPa) = 0.02656168
#
# Stress axis : x y z
#
# Youngs Moduli (GPa) = 39.41756 35.62192 59.88531
#
# Poissons Ratio (x) = 0.48234 -0.24931
# Poissons Ratio (y) = 0.53374 0.74330
# Poissons Ratio (z) = -0.16410 0.44214
#
# Static dielectric constant tensor:
#      x y z
#    x 1.579160 0.000000 0.000000 
#    y 0.000000 1.569230 0.000000 
#    z 0.000000 0.000000 1.556050 
# 
# From -- ./inp_files/32121.got.cif
#   From: 2010.05.17/outbox.cif.g08.bks.cpg/sg67_17_cif.got.tgz:32121.got - 2010.06.03 18:28:57.
