data_PCOD9502464
_publ_section_title
;
Structure prediction by ZEFSAII (Michael W. Deem and Ramdas Pophale) SiO2 
 PCOD9502464
Probable space group: C M M A
;
_chemical_formula_sum "Si O2"
_cell_formula_units_Z 120
_cell_length_a 7.861280
_cell_length_b 28.258125
_cell_length_c 28.891418
_cell_angle_alpha 90.000000
_cell_angle_beta 90.000000
_cell_angle_gamma 90.000000
_cell_volume 6418.085002
_symmetry_space_group_name_H-M "C M M A"
_symmetry_group_IT_number 67
_symmetry_cell_setting 'orthorhombic'
loop_
_space_group_symop_operation_xyz
x,y,z
-x,1/2-y,z
x,-y,-z
-x,1/2+y,-z
-x,-y,-z
x,1/2+y,-z
-x,y,z
x,1/2-y,z
1/2+x,1/2+y,z
1/2-x,-y,z
1/2+x,1/2-y,-z
1/2-x,y,-z
1/2-x,1/2-y,-z
1/2+x,y,-z
1/2-x,1/2+y,z
1/2+x,-y,z
loop_
_atom_site_type_symbol
_atom_site_label
_atom_site_fract_x
_atom_site_fract_y
_atom_site_fract_z
Si Si1 0.196975 0.884725 0.297496
Si Si2 0.794718 0.145636 0.945811
Si Si3 0.794661 0.552679 0.215868
Si Si4 0.294851 0.553159 0.890249
Si Si5 0.291399 0.803497 0.638343
Si Si6 0.702841 0.633679 0.552703
Si Si7 0.795292 0.250000 0.945545
Si Si8 0.803844 0.053424 0.381473
O O1 0.272637 0.908479 0.251790
O O2 0.271405 0.837633 0.320646
O O3 0.202644 0.922639 0.339282
O O4 0.000000 0.874235 0.286801
O O5 0.732663 0.098555 0.919318
O O6 0.734506 0.197987 0.928462
O O7 0.000000 0.145988 0.941952
O O8 0.750000 0.141947 0.000000
O O9 0.750000 0.500000 0.232529
O O10 0.733354 0.557237 0.163005
O O11 0.000000 0.555901 0.215015
O O12 0.500000 0.555264 0.889838
O O13 0.250000 0.500000 0.907135
O O14 0.500000 0.804186 0.639237
O O15 0.234884 0.750000 0.642993
O O16 0.240457 0.826315 0.589269
O O17 0.500000 0.630292 0.555898
O O18 0.750000 0.643001 0.500000
O O19 0.776534 0.584990 0.572967
O O20 0.000000 0.250000 0.940628
O O21 0.750000 0.250000 0.000000
O O22 0.000000 0.055350 0.367877
O O23 0.750000 0.000000 0.389201
#
# Coordination Sequence:
#
# PCOD9502464 Si02
#       8
#    16  16  16  16  16  16   8  16
#     4   9  17  30  49  71  94 120 152 191 229 270
#     4   9  17  29  46  66  90 121 157 199 240 283
#     4   9  17  29  46  67  92 122 154 188 227 273
#     4   9  18  31  45  64  93 126 158 193 236 284
#     4   8  15  29  49  70  93 121 151 185 226 269
#     4  10  20  34  50  70  95 124 157 191 227 268
#     4   8  14  26  44  64  84 112 150 192 236 276
#     4  11  21  33  49  70  96 123 153 188 228 275
#
# _framework density 18.697164999999998
#
# number of rings (size 3 to 8) (size 9 to 14) (size 15 to 20)
#    0.000    2.800    0.000    2.800    0.000    2.933 
#    0.000    2.667    1.467    9.600    0.000    0.000 
#    0.000    0.000    0.267    0.000    0.533    0.000 
#
# Total GULP energy -334297.748214 kJ/mol
# GULP energy per Si atom -5571.629137 kJ/mol
# Density = 1.865461 g / cm^3
# Si number density = 18.697165 Si / 1000 Ang^3
#
#
#
# Elastic Constant Matrix: (Units=GPa)
#
#
# Indices 1 2 3 4 5 6 
#
# 1 23.5294 0.6793 -8.7406 0.0000 0.0000 0.0000
# 2 0.6793 200.9344 73.0888 0.0000 0.0000 0.0000
# 3 -8.7406 73.0888 65.4805 0.0000 0.0000 0.0000
# 4 0.0000 0.0000 0.0000 17.2477 0.0000 0.0000
# 5 0.0000 0.0000 0.0000 0.0000 14.5149 0.0000
# 6 0.0000 0.0000 0.0000 0.0000 0.0000 14.4154
#
#
#
# Elastic Compliance Matrix: (Units=1/GPa)
#
#
# Indices 1 2 3 4 5 6 
#
# 1 0.046620 -0.004076 0.010773 0.000000 0.000000 0.000000
# 2 -0.004076 0.008735 -0.010294 0.000000 0.000000 0.000000
# 3 0.010773 -0.010294 0.028200 0.000000 0.000000 0.000000
# 4 0.000000 0.000000 0.000000 0.057979 0.000000 0.000000
# 5 0.000000 0.000000 0.000000 0.000000 0.068895 0.000000
# 6 0.000000 0.000000 0.000000 0.000000 0.000000 0.069370
#
#
# Mechanical properties :
#
#
# Convention : Reuss Voigt Hill
#
# Bulk Modulus (GPa) = 13.09595 46.66658 29.88127
# Shear Modulus (GPa) = 16.00280 24.23007 20.11644
#
# Velocity S-wave (km/s) = 2.92874 3.60380 3.28366
# Velocity P-wave (km/s) = 4.29606 6.50614 5.51298
#
# Compressibility (1/GPa) = 0.07635948
#
# Stress axis : x y z
#
# Youngs Moduli (GPa) = 21.45024 114.48354 35.46137
#
# Poissons Ratio (x) = 0.46665 -0.38202
# Poissons Ratio (y) = 0.08743 0.36504
# Poissons Ratio (z) = -0.23108 1.17848
#
# Static dielectric constant tensor:
#      x y z
#    x 1.720810 0.000000 0.000000 
#    y 0.000000 1.667780 0.000000 
#    z 0.000000 0.000000 1.640990 
# 
# From -- ./inp_files/43925.got.cif
#   From: 2010.05.17/outbox.cif.g08.bks.cpg/sg67_22_cif.got.tgz:43925.got - 2010.06.03 18:28:57.
