data_PCOD9502329
_publ_section_title
;
Structure prediction by ZEFSAII (Michael W. Deem and Ramdas Pophale) SiO2 
 PCOD9502329
Probable space group: C M M A
;
_chemical_formula_sum "Si O2"
_cell_formula_units_Z 112
_cell_length_a 18.669388
_cell_length_b 28.151465
_cell_length_c 11.371811
_cell_angle_alpha 90.000000
_cell_angle_beta 90.000000
_cell_angle_gamma 90.000000
_cell_volume 5976.689790
_symmetry_space_group_name_H-M "C M M A"
_symmetry_group_IT_number 67
_symmetry_cell_setting 'orthorhombic'
loop_
_space_group_symop_operation_xyz
x,y,z
-x,1/2-y,z
x,-y,-z
-x,1/2+y,-z
-x,-y,-z
x,1/2+y,-z
-x,y,z
x,1/2-y,z
1/2+x,1/2+y,z
1/2-x,-y,z
1/2+x,1/2-y,-z
1/2-x,y,-z
1/2-x,1/2-y,-z
1/2+x,y,-z
1/2-x,1/2+y,z
1/2+x,-y,z
loop_
_atom_site_type_symbol
_atom_site_label
_atom_site_fract_x
_atom_site_fract_y
_atom_site_fract_z
Si Si1 0.288595 0.381107 0.250136
Si Si2 0.200604 0.696232 0.614836
Si Si3 0.581546 0.612221 0.908931
Si Si4 0.415413 0.618485 0.389690
Si Si5 0.652574 0.085736 0.858163
Si Si6 0.147436 0.455033 0.575569
Si Si7 0.579759 0.506943 0.812454
O O1 0.246798 0.334965 0.294212
O O2 0.364894 0.369325 0.192120
O O3 0.236766 0.405199 0.154521
O O4 0.297933 0.419726 0.355708
O O5 0.185883 0.750000 0.654076
O O6 0.250000 0.697926 0.500000
O O7 0.129056 0.666561 0.586515
O O8 0.500000 0.630422 0.904243
O O9 0.578520 0.555858 0.882879
O O10 0.617173 0.615386 0.036773
O O11 0.500000 0.625576 0.385023
O O12 0.384821 0.600265 0.265056
O O13 0.395956 0.579505 0.488524
O O14 0.635140 0.030146 0.865087
O O15 0.174074 0.500000 0.500000
O O16 0.100274 0.478084 0.679917
O O17 0.500000 0.485466 0.815760
#
# Coordination Sequence:
#
# PCOD9502329 Si02
#       7
#    16  16  16  16  16  16  16
#     4  10  23  40  57  87 114 157 195 246 296 359
#     4  10  21  42  64  86 117 150 189 246 312 364
#     4  10  21  37  58  80 113 156 203 248 288 339
#     4  11  22  36  59  88 119 156 200 244 292 358
#     4  11  21  35  54  81 116 157 201 243 290 341
#     4  11  21  35  53  80 125 162 200 237 286 349
#     4  10  20  33  50  76 112 160 203 241 285 336
#
# _framework density 18.739470000000001
#
# number of rings (size 3 to 8) (size 9 to 14) (size 15 to 20)
#    0.000    1.571    2.857    2.571    0.000    4.857 
#    5.143    2.857    0.000    7.286    0.000    0.000 
#    0.000    0.000    0.000    0.000    0.000    0.000 
#
# Total GULP energy -312586.838312 kJ/mol
# GULP energy per Si atom -5581.907827 kJ/mol
# Density = 1.869682 g / cm^3
# Si number density = 18.739470 Si / 1000 Ang^3
#
#
#
# Elastic Constant Matrix: (Units=GPa)
#
#
# Indices 1 2 3 4 5 6 
#
# 1 105.9155 16.6860 18.0083 0.0000 0.0000 0.0000
# 2 16.6860 66.9964 3.5620 0.0000 0.0000 0.0000
# 3 18.0083 3.5620 76.8860 0.0000 0.0000 0.0000
# 4 0.0000 0.0000 0.0000 8.6308 0.0000 0.0000
# 5 0.0000 0.0000 0.0000 0.0000 22.9826 0.0000
# 6 0.0000 0.0000 0.0000 0.0000 0.0000 33.6957
#
#
#
# Elastic Compliance Matrix: (Units=1/GPa)
#
#
# Indices 1 2 3 4 5 6 
#
# 1 0.010211 -0.002422 -0.002279 0.000000 0.000000 0.000000
# 2 -0.002422 0.015537 -0.000153 0.000000 0.000000 0.000000
# 3 -0.002279 -0.000153 0.013547 0.000000 0.000000 0.000000
# 4 0.000000 0.000000 0.000000 0.115864 0.000000 0.000000
# 5 0.000000 0.000000 0.000000 0.000000 0.043511 0.000000
# 6 0.000000 0.000000 0.000000 0.000000 0.000000 0.029677
#
#
# Mechanical properties :
#
#
# Convention : Reuss Voigt Hill
#
# Bulk Modulus (GPa) = 33.79777 36.25671 35.02724
# Shear Modulus (GPa) = 20.16793 27.16458 23.66626
#
# Velocity S-wave (km/s) = 3.28415 3.81148 3.55760
# Velocity P-wave (km/s) = 5.69698 6.22572 5.96721
#
# Compressibility (1/GPa) = 0.02958775
#
# Stress axis : x y z
#
# Youngs Moduli (GPa) = 97.93771 64.36055 73.81598
#
# Poissons Ratio (x) = 0.15587 0.16825
# Poissons Ratio (y) = 0.23719 0.01126
# Poissons Ratio (z) = 0.22323 0.00982
#
# Static dielectric constant tensor:
#      x y z
#    x 1.673930 0.000000 0.000000 
#    y 0.000000 1.640020 0.000000 
#    z 0.000000 0.000000 1.686540 
# 
# From -- ./inp_files/21091.got.cif
#   From: 2010.05.17/outbox.cif.g08.bks.cpg/sg67_11_cif.got.tgz:21091.got - 2010.06.03 18:28:57.
