data_PCOD9502384
_publ_section_title
;
Structure prediction by ZEFSAII (Michael W. Deem and Ramdas Pophale) SiO2 
 PCOD9502384
Probable space group: C M M A
;
_chemical_formula_sum "Si O2"
_cell_formula_units_Z 112
_cell_length_a 26.491594
_cell_length_b 15.262864
_cell_length_c 15.675590
_cell_angle_alpha 90.000000
_cell_angle_beta 90.000000
_cell_angle_gamma 90.000000
_cell_volume 6338.230382
_symmetry_space_group_name_H-M "C M M A"
_symmetry_group_IT_number 67
_symmetry_cell_setting 'orthorhombic'
loop_
_space_group_symop_operation_xyz
x,y,z
-x,1/2-y,z
x,-y,-z
-x,1/2+y,-z
-x,-y,-z
x,1/2+y,-z
-x,y,z
x,1/2-y,z
1/2+x,1/2+y,z
1/2-x,-y,z
1/2+x,1/2-y,-z
1/2-x,y,-z
1/2-x,1/2-y,-z
1/2+x,y,-z
1/2-x,1/2+y,z
1/2+x,-y,z
loop_
_atom_site_type_symbol
_atom_site_label
_atom_site_fract_x
_atom_site_fract_y
_atom_site_fract_z
Si Si1 0.717813 0.912120 0.753739
Si Si2 0.156886 0.991524 0.099660
Si Si3 0.581555 0.353216 0.690746
Si Si4 0.319888 0.157275 0.786523
Si Si5 0.884052 0.356183 0.667992
Si Si6 0.057471 0.977693 0.199640
Si Si7 0.443627 0.356185 0.497324
O O1 0.762449 0.843141 0.757435
O O2 0.671972 0.890037 0.691004
O O3 0.750000 0.000000 0.732916
O O4 0.691599 0.923848 0.846864
O O5 0.171434 0.081921 0.145649
O O6 0.098385 0.975326 0.123592
O O7 0.165954 0.000000 0.000000
O O8 0.566171 0.250000 0.703171
O O9 0.641552 0.357174 0.708611
O O10 0.559941 0.425933 0.755453
O O11 0.568394 0.380124 0.594601
O O12 0.334040 0.250000 0.825727
O O13 0.886153 0.250000 0.677626
O O14 0.921706 0.406355 0.732601
O O15 0.902829 0.381231 0.573398
O O16 0.000000 0.959643 0.175124
O O17 0.500000 0.387332 0.474070
O O18 0.444673 0.250000 0.496451
#
# Coordination Sequence:
#
# PCOD9502384 Si02
#       7
#    16  16  16  16  16  16  16
#     4   9  18  33  53  73  97 130 166 205 251 300
#     4   9  19  35  51  71  99 125 157 206 254 299
#     4   9  18  33  52  76 104 131 167 216 260 296
#     4   9  17  31  52  74  96 124 159 201 250 302
#     4  10  20  34  51  74 107 141 172 206 244 294
#     4  10  20  33  52  75  99 135 174 205 249 304
#     4   9  17  30  50  75 103 136 172 210 250 291
#
# _framework density 17.670548
#
# number of rings (size 3 to 8) (size 9 to 14) (size 15 to 20)
#    0.000    2.714    0.000    2.143    0.000    5.143 
#    0.000    6.429    0.000    7.714    0.000    6.000 
#    0.000    0.000    0.000    0.000    0.000    0.000 
#
# Total GULP energy -311792.345425 kJ/mol
# GULP energy per Si atom -5567.720454 kJ/mol
# Density = 1.763033 g / cm^3
# Si number density = 17.670548 Si / 1000 Ang^3
#
#
#
# Elastic Constant Matrix: (Units=GPa)
#
#
# Indices 1 2 3 4 5 6 
#
# 1 137.5953 14.5213 27.5620 0.0000 0.0000 0.0000
# 2 14.5213 55.1170 1.0275 0.0000 0.0000 0.0000
# 3 27.5620 1.0275 63.5021 0.0000 0.0000 0.0000
# 4 0.0000 0.0000 0.0000 12.2057 0.0000 0.0000
# 5 0.0000 0.0000 0.0000 0.0000 -14.6496 0.0000
# 6 0.0000 0.0000 0.0000 0.0000 0.0000 3.6892
#
#
#
# Elastic Compliance Matrix: (Units=1/GPa)
#
#
# Indices 1 2 3 4 5 6 
#
# 1 0.008194 -0.002093 -0.003523 0.000000 0.000000 0.000000
# 2 -0.002093 0.018683 0.000606 0.000000 0.000000 0.000000
# 3 -0.003523 0.000606 0.017267 0.000000 0.000000 0.000000
# 4 0.000000 0.000000 0.000000 0.081929 0.000000 0.000000
# 5 0.000000 0.000000 0.000000 0.000000 -0.068261 0.000000
# 6 0.000000 0.000000 0.000000 0.000000 0.000000 0.271062
#
#
# Mechanical properties :
#
#
# Convention : Reuss Voigt Hill
#
# Bulk Modulus (GPa) = 29.30409 38.04845 33.67627
# Shear Modulus (GPa) = 14.27476 14.45596 14.36536
#
# Velocity S-wave (km/s) = 2.84532 2.86332 2.85433
# Velocity P-wave (km/s) = 5.23584 5.70178 5.47377
#
# Compressibility (1/GPa) = 0.03412493
#
# Stress axis : x y z
#
# Youngs Moduli (GPa) = 122.03701 53.52342 57.91505
#
# Poissons Ratio (x) = 0.11204 0.20402
# Poissons Ratio (y) = 0.25545 -0.03511
# Poissons Ratio (z) = 0.42990 -0.03245
#
# Static dielectric constant tensor:
#      x y z
#    x 1.621350 0.000000 0.000000 
#    y 0.000000 1.696060 0.000000 
#    z 0.000000 0.000000 1.568680 
# 
# From -- ./inp_files/30128.got.cif
#   From: 2010.05.17/outbox.cif.g08.bks.cpg/sg67_16_cif.got.tgz:30128.got - 2010.06.03 18:28:57.
