data_PCOD9502213
_publ_section_title
;
Structure prediction by ZEFSAII (Michael W. Deem and Ramdas Pophale) SiO2 
 PCOD9502213
Probable space group: C M M A
;
_chemical_formula_sum "Si O2"
_cell_formula_units_Z 72
_cell_length_a 10.405479
_cell_length_b 33.891448
_cell_length_c 12.397600
_cell_angle_alpha 90.000000
_cell_angle_beta 90.000000
_cell_angle_gamma 90.000000
_cell_volume 4372.097329
_symmetry_space_group_name_H-M "C M M A"
_symmetry_group_IT_number 67
_symmetry_cell_setting 'orthorhombic'
loop_
_space_group_symop_operation_xyz
x,y,z
-x,1/2-y,z
x,-y,-z
-x,1/2+y,-z
-x,-y,-z
x,1/2+y,-z
-x,y,z
x,1/2-y,z
1/2+x,1/2+y,z
1/2-x,-y,z
1/2+x,1/2-y,-z
1/2-x,y,-z
1/2-x,1/2-y,-z
1/2+x,y,-z
1/2-x,1/2+y,z
1/2+x,-y,z
loop_
_atom_site_type_symbol
_atom_site_label
_atom_site_fract_x
_atom_site_fract_y
_atom_site_fract_z
Si Si1 0.743400 0.095070 0.869604
Si Si2 0.000000 0.041842 0.128326
Si Si3 0.224362 0.177855 0.250850
Si Si4 0.649541 0.750000 0.096669
Si Si5 0.000000 0.702365 0.595349
Si Si6 0.500000 0.451945 0.132610
Si Si7 0.500000 0.203107 0.338427
O O1 0.627124 0.065744 0.842243
O O2 0.721088 0.135920 0.808360
O O3 0.874760 0.073084 0.838144
O O4 0.750000 0.101620 0.000000
O O5 0.000000 0.997199 0.171386
O O6 0.000000 0.042726 0.997452
O O7 0.178177 0.211519 0.167993
O O8 0.369750 0.185975 0.288286
O O9 0.125506 0.183105 0.350016
O O10 0.500000 0.750000 0.062538
O O11 0.750000 0.750000 0.000000
O O12 0.000000 0.697104 0.467197
O O13 0.000000 0.750000 0.617099
O O14 0.500000 0.250000 0.318195
#
# Coordination Sequence:
#
# PCOD9502213 Si02
#       7
#    16   8  16   8   8   8   8
#     4  10  20  32  49  77 110 145 175 214 262 316
#     4   9  17  30  52  71 101 145 178 214 262 313
#     4  12  21  39  54  80 111 143 185 225 276 323
#     4  12  26  40  55  77 112 158 191 219 251 320
#     4  11  21  40  58  76 102 138 189 240 286 323
#     4   9  17  32  48  73 105 139 182 216 256 313
#     4  11  23  36  60  80 100 138 187 240 290 323
#
# _framework density 16.468070000000001
#
# number of rings (size 3 to 8) (size 9 to 14) (size 15 to 20)
#    0.000    1.333    3.333    3.333    1.556    4.444 
#    4.000    0.000    0.000    0.000    0.000    0.000 
#    0.000   62.222    0.000    0.000    0.000    0.000 
#
# Total GULP energy -200982.242724 kJ/mol
# GULP energy per Si atom -5582.840076 kJ/mol
# Density = 1.643059 g / cm^3
# Si number density = 16.468070 Si / 1000 Ang^3
#
#
#
# Elastic Constant Matrix: (Units=GPa)
#
#
# Indices 1 2 3 4 5 6 
#
# 1 166.7891 62.2522 31.7111 0.0000 0.0000 0.0000
# 2 62.2522 153.8151 33.0536 0.0000 0.0000 0.0000
# 3 31.7111 33.0536 41.6449 0.0000 0.0000 0.0000
# 4 0.0000 0.0000 0.0000 3.0684 0.0000 0.0000
# 5 0.0000 0.0000 0.0000 0.0000 20.6310 0.0000
# 6 0.0000 0.0000 0.0000 0.0000 0.0000 -15.5855
#
#
#
# Elastic Compliance Matrix: (Units=1/GPa)
#
#
# Indices 1 2 3 4 5 6 
#
# 1 0.007584 -0.002204 -0.004025 0.000000 0.000000 0.000000
# 2 -0.002204 0.008479 -0.005051 0.000000 0.000000 0.000000
# 3 -0.004025 -0.005051 0.031087 0.000000 0.000000 0.000000
# 4 0.000000 0.000000 0.000000 0.325901 0.000000 0.000000
# 5 0.000000 0.000000 0.000000 0.000000 0.048471 0.000000
# 6 0.000000 0.000000 0.000000 0.000000 0.000000 -0.064162
#
#
# Mechanical properties :
#
#
# Convention : Reuss Voigt Hill
#
# Bulk Modulus (GPa) = 40.67033 68.47589 54.57311
# Shear Modulus (GPa) = 12.88274 17.30492 15.09383
#
# Velocity S-wave (km/s) = 2.79997 3.24515 3.03074
# Velocity P-wave (km/s) = 5.93323 7.46409 6.74225
#
# Compressibility (1/GPa) = 0.02458795
#
# Stress axis : x y z
#
# Youngs Moduli (GPa) = 131.86344 117.93976 32.16811
#
# Poissons Ratio (x) = 0.25997 0.12948
# Poissons Ratio (y) = 0.29066 0.16249
# Poissons Ratio (z) = 0.53076 0.59574
#
# Static dielectric constant tensor:
#      x y z
#    x 1.564350 0.000000 0.000000 
#    y 0.000000 1.533220 0.000000 
#    z 0.000000 0.000000 1.536220 
# 
# From -- ./inp_files/25363.got.cif
#   From: 2010.05.17/outbox.cif.g08.bks.cpg/sg67_13_cif.got.tgz:25363.got - 2010.06.03 18:28:57.
