data_PCOD9502739
_publ_section_title
;
Structure prediction by ZEFSAII (Michael W. Deem and Ramdas Pophale) SiO2 
 PCOD9502739
Probable space group: C M M A
;
_chemical_formula_sum "Si O2"
_cell_formula_units_Z 112
_cell_length_a 14.342692
_cell_length_b 17.252997
_cell_length_c 23.090665
_cell_angle_alpha 90.000000
_cell_angle_beta 90.000000
_cell_angle_gamma 90.000000
_cell_volume 5713.887162
_symmetry_space_group_name_H-M "C M M A"
_symmetry_group_IT_number 67
_symmetry_cell_setting 'orthorhombic'
loop_
_space_group_symop_operation_xyz
x,y,z
-x,1/2-y,z
x,-y,-z
-x,1/2+y,-z
-x,-y,-z
x,1/2+y,-z
-x,y,z
x,1/2-y,z
1/2+x,1/2+y,z
1/2-x,-y,z
1/2+x,1/2-y,-z
1/2-x,y,-z
1/2-x,1/2-y,-z
1/2+x,y,-z
1/2-x,1/2+y,z
1/2+x,-y,z
loop_
_atom_site_type_symbol
_atom_site_label
_atom_site_fract_x
_atom_site_fract_y
_atom_site_fract_z
Si Si1 0.140500 0.413569 0.013617
Si Si2 0.723094 0.158019 0.414862
Si Si3 0.109659 0.089643 0.480163
Si Si4 0.223250 0.411726 0.806202
Si Si5 0.391607 0.343408 0.299740
Si Si6 0.105066 0.659190 0.861867
Si Si7 0.104863 0.163216 0.898541
O O1 0.121106 0.388195 0.078855
O O2 0.105783 0.500000 0.000000
O O3 0.250000 0.413221 0.000000
O O4 0.101440 0.354022 0.966457
O O5 0.743761 0.250000 0.414254
O O6 0.817947 0.110841 0.428829
O O7 0.650245 0.139995 0.466575
O O8 0.670648 0.136387 0.355722
O O9 0.000000 0.104717 0.468557
O O10 0.118856 0.000000 0.500000
O O11 0.250000 0.500000 0.796842
O O12 0.157282 0.379326 0.756241
O O13 0.318349 0.364264 0.814984
O O14 0.167751 0.399160 0.866311
O O15 0.500000 0.367423 0.305980
O O16 0.390956 0.250000 0.294356
O O17 0.113936 0.750000 0.875741
O O18 0.000000 0.644159 0.841408
O O19 0.142172 0.250000 0.888035
O O20 0.000000 0.159754 0.875118
#
# Coordination Sequence:
#
# PCOD9502739 Si02
#       7
#    16  16  16  16  16  16  16
#     4  11  22  36  57  87 118 148 184 231 292 350
#     4  10  20  35  59  89 121 158 204 254 298 343
#     4  10  20  34  56  88 129 171 205 241 291 347
#     4  12  25  40  61  87 114 147 189 241 296 351
#     4  10  22  42  66  89 115 152 199 251 302 349
#     4  11  24  41  60  82 113 153 189 228 287 356
#     4  11  23  39  62  88 112 146 192 239 288 345
#
# _framework density 19.601367
#
# number of rings (size 3 to 8) (size 9 to 14) (size 15 to 20)
#    0.000    1.286    1.429    5.571    0.000    9.143 
#    0.000    0.714    0.000    0.857    0.000    0.000 
#    0.000    0.000    0.000    0.000    0.000    0.000 
#
# Total GULP energy -312903.900139 kJ/mol
# GULP energy per Si atom -5587.569645 kJ/mol
# Density = 1.955675 g / cm^3
# Si number density = 19.601367 Si / 1000 Ang^3
#
#
#
# Elastic Constant Matrix: (Units=GPa)
#
#
# Indices 1 2 3 4 5 6 
#
# 1 174.8221 47.6968 49.6634 0.0000 0.0000 0.0000
# 2 47.6968 63.7552 22.2522 0.0000 0.0000 0.0000
# 3 49.6634 22.2522 83.2723 0.0000 0.0000 0.0000
# 4 0.0000 0.0000 0.0000 8.1026 0.0000 0.0000
# 5 0.0000 0.0000 0.0000 0.0000 23.3873 0.0000
# 6 0.0000 0.0000 0.0000 0.0000 0.0000 29.0592
#
#
#
# Elastic Compliance Matrix: (Units=1/GPa)
#
#
# Indices 1 2 3 4 5 6 
#
# 1 0.008019 -0.004775 -0.003506 0.000000 0.000000 0.000000
# 2 -0.004775 0.020142 -0.002534 0.000000 0.000000 0.000000
# 3 -0.003506 -0.002534 0.014777 0.000000 0.000000 0.000000
# 4 0.000000 0.000000 0.000000 0.123417 0.000000 0.000000
# 5 0.000000 0.000000 0.000000 0.000000 0.042758 0.000000
# 6 0.000000 0.000000 0.000000 0.000000 0.000000 0.034413
#
#
# Mechanical properties :
#
#
# Convention : Reuss Voigt Hill
#
# Bulk Modulus (GPa) = 46.93512 62.34160 54.63836
# Shear Modulus (GPa) = 18.36470 25.59228 21.97849
#
# Velocity S-wave (km/s) = 3.06422 3.61728 3.35217
# Velocity P-wave (km/s) = 6.04285 7.02282 6.55119
#
# Compressibility (1/GPa) = 0.02130601
#
# Stress axis : x y z
#
# Youngs Moduli (GPa) = 124.70213 49.64701 67.67137
#
# Poissons Ratio (x) = 0.23709 0.23729
# Poissons Ratio (y) = 0.59551 0.17151
# Poissons Ratio (z) = 0.43727 0.12582
#
# Static dielectric constant tensor:
#      x y z
#    x 1.719890 0.000000 0.000000 
#    y 0.000000 1.684800 0.000000 
#    z 0.000000 0.000000 1.674600 
# 
# From -- ./inp_files/41955.got.cif
#   From: 2010.05.17/outbox.cif.g08.bks.cpg/sg67_21_cif.got.tgz:41955.got - 2010.06.03 18:28:57.
