data_PCOD9502416
_publ_section_title
;
Structure prediction by ZEFSAII (Michael W. Deem and Ramdas Pophale) SiO2 
 PCOD9502416
Probable space group: C M M A
;
_chemical_formula_sum "Si O2"
_cell_formula_units_Z 64
_cell_length_a 24.558273
_cell_length_b 16.815179
_cell_length_c 8.369851
_cell_angle_alpha 90.000000
_cell_angle_beta 90.000000
_cell_angle_gamma 90.000000
_cell_volume 3456.344671
_symmetry_space_group_name_H-M "C M M A"
_symmetry_group_IT_number 67
_symmetry_cell_setting 'orthorhombic'
loop_
_space_group_symop_operation_xyz
x,y,z
-x,1/2-y,z
x,-y,-z
-x,1/2+y,-z
-x,-y,-z
x,1/2+y,-z
-x,y,z
x,1/2-y,z
1/2+x,1/2+y,z
1/2-x,-y,z
1/2+x,1/2-y,-z
1/2-x,y,-z
1/2-x,1/2-y,-z
1/2+x,y,-z
1/2-x,1/2+y,z
1/2+x,-y,z
loop_
_atom_site_type_symbol
_atom_site_label
_atom_site_fract_x
_atom_site_fract_y
_atom_site_fract_z
Si Si1 0.402620 0.428037 0.620720
Si Si2 0.186009 0.985599 0.186858
Si Si3 0.115045 0.342820 0.687746
Si Si4 0.500000 0.926078 0.128530
Si Si5 0.000000 0.340966 0.824011
O O1 0.417263 0.500000 0.500000
O O2 0.347047 0.451869 0.707147
O O3 0.392811 0.354630 0.502165
O O4 0.448234 0.423399 0.755737
O O5 0.162457 0.900101 0.244739
O O6 0.250000 0.000000 0.209713
O O7 0.173563 0.000000 0.000000
O O8 0.123185 0.250000 0.727857
O O9 0.057438 0.373551 0.761285
O O10 0.500000 0.850564 0.012808
O O11 0.500000 0.000000 0.000000
O O12 0.000000 0.250000 0.769849
#
# Coordination Sequence:
#
# PCOD9502416 Si02
#       5
#    16  16  16   8   8
#     4  10  20  33  53  79 109 145 185 231 277 328
#     4  10  21  39  59  80 109 146 187 235 282 331
#     4  10  21  38  58  83 115 150 186 231 284 338
#     4  12  20  31  54  83 110 147 193 231 269 330
#     4  10  21  35  53  79 114 147 177 221 278 328
#
# _framework density 18.516673000000001
#
# number of rings (size 3 to 8) (size 9 to 14) (size 15 to 20)
#    0.000    1.750    0.000    6.375    0.000    5.500 
#    0.000    6.250    0.000    0.000    0.000    0.000 
#    0.000    0.000    0.000    0.000    0.000    0.000 
#
# Total GULP energy -178444.596624 kJ/mol
# GULP energy per Si atom -5576.393645 kJ/mol
# Density = 1.847453 g / cm^3
# Si number density = 18.516673 Si / 1000 Ang^3
#
#
#
# Elastic Constant Matrix: (Units=GPa)
#
#
# Indices 1 2 3 4 5 6 
#
# 1 121.2310 47.7555 72.6524 0.0000 0.0000 0.0000
# 2 47.7555 62.8321 25.9060 0.0000 0.0000 0.0000
# 3 72.6524 25.9060 132.4934 0.0000 0.0000 0.0000
# 4 0.0000 0.0000 0.0000 19.5253 0.0000 0.0000
# 5 0.0000 0.0000 0.0000 0.0000 152.4323 0.0000
# 6 0.0000 0.0000 0.0000 0.0000 0.0000 18.8321
#
#
#
# Elastic Compliance Matrix: (Units=1/GPa)
#
#
# Indices 1 2 3 4 5 6 
#
# 1 0.016153 -0.009382 -0.007023 0.000000 0.000000 0.000000
# 2 -0.009382 0.022760 0.000694 0.000000 0.000000 0.000000
# 3 -0.007023 0.000694 0.011263 0.000000 0.000000 0.000000
# 4 0.000000 0.000000 0.000000 0.051216 0.000000 0.000000
# 5 0.000000 0.000000 0.000000 0.000000 0.006560 0.000000
# 6 0.000000 0.000000 0.000000 0.000000 0.000000 0.053101
#
#
# Mechanical properties :
#
#
# Convention : Reuss Voigt Hill
#
# Bulk Modulus (GPa) = 53.31985 67.68715 60.50350
# Shear Modulus (GPa) = 25.16034 49.50743 37.33389
#
# Velocity S-wave (km/s) = 3.69018 5.17636 4.49512
# Velocity P-wave (km/s) = 6.85673 8.50649 7.72577
#
# Compressibility (1/GPa) = 0.01875474
#
# Stress axis : x y z
#
# Youngs Moduli (GPa) = 61.90692 43.93741 88.78635
#
# Poissons Ratio (x) = 0.41220 0.62357
# Poissons Ratio (y) = 0.58078 -0.06164
# Poissons Ratio (z) = 0.43479 -0.03050
#
# Static dielectric constant tensor:
#      x y z
#    x 1.652640 0.000000 0.000000 
#    y 0.000000 1.684630 0.000000 
#    z 0.000000 0.000000 1.658570 
# 
# From -- ./inp_files/9407.got.cif
#   From: 2010.05.17/outbox.cif.g08.bks.cpg/sg67_5_cif.got.tgz:9407.got - 2010.06.03 18:28:57.
