data_PCOD9502820
_publ_section_title
;
Structure prediction by ZEFSAII (Michael W. Deem and Ramdas Pophale) SiO2 
 PCOD9502820
Probable space group: C M M A
;
_chemical_formula_sum "Si O2"
_cell_formula_units_Z 104
_cell_length_a 30.713211
_cell_length_b 8.687400
_cell_length_c 20.665305
_cell_angle_alpha 90.000000
_cell_angle_beta 90.000000
_cell_angle_gamma 90.000000
_cell_volume 5513.874301
_symmetry_space_group_name_H-M "C M M A"
_symmetry_group_IT_number 67
_symmetry_cell_setting 'orthorhombic'
loop_
_space_group_symop_operation_xyz
x,y,z
-x,1/2-y,z
x,-y,-z
-x,1/2+y,-z
-x,-y,-z
x,1/2+y,-z
-x,y,z
x,1/2-y,z
1/2+x,1/2+y,z
1/2-x,-y,z
1/2+x,1/2-y,-z
1/2-x,y,-z
1/2-x,1/2-y,-z
1/2+x,y,-z
1/2-x,1/2+y,z
1/2+x,-y,z
loop_
_atom_site_type_symbol
_atom_site_label
_atom_site_fract_x
_atom_site_fract_y
_atom_site_fract_z
Si Si1 0.948602 0.435272 0.808900
Si Si2 0.615947 0.064669 0.703918
Si Si3 0.105744 0.563305 0.931433
Si Si4 0.595665 0.935636 0.572812
Si Si5 0.295450 0.423492 0.913344
Si Si6 0.705786 0.076473 0.757970
Si Si7 0.000000 0.433791 0.571645
O O1 0.946219 0.250000 0.810861
O O2 0.924298 0.493731 0.744036
O O3 0.922320 0.503166 0.870650
O O4 0.000000 0.478570 0.809904
O O5 0.612176 0.250000 0.708016
O O6 0.659775 0.006433 0.739009
O O7 0.622564 0.012227 0.629840
O O8 0.105655 0.750000 0.929745
O O9 0.156612 0.508893 0.927433
O O10 0.088484 0.500000 0.000000
O O11 0.599641 0.750000 0.571374
O O12 0.546695 0.979748 0.597399
O O13 0.601833 0.000000 0.500000
O O14 0.295628 0.250000 0.939428
O O15 0.250000 0.500000 0.933008
O O16 0.293309 0.418531 0.835532
O O17 0.705472 0.250000 0.732946
O O18 0.750000 0.000000 0.734795
O O19 0.000000 0.500000 0.500000
O O20 0.000000 0.250000 0.569398
#
# Coordination Sequence:
#
# PCOD9502820 Si02
#       7
#    16  16  16  16  16  16   8
#     4  11  25  43  62  86 115 150 197 246 290 340
#     4  11  22  38  60  88 120 154 192 238 290 345
#     4  11  23  41  62  86 117 153 195 240 290 347
#     4  10  20  35  54  81 116 156 198 240 288 344
#     4   9  18  34  55  82 116 150 186 231 284 345
#     4   9  18  34  56  84 115 147 187 232 284 344
#     4   8  16  30  48  70 104 142 183 228 269 324
#
# _framework density 18.861511
#
# number of rings (size 3 to 8) (size 9 to 14) (size 15 to 20)
#    0.000    2.000    1.538    1.846    1.077    4.923 
#    0.000    1.538    0.000    0.462    0.000    3.231 
#    0.000    0.000    0.000    0.000    0.000    0.000 
#
# Total GULP energy -289684.258936 kJ/mol
# GULP energy per Si atom -5570.851133 kJ/mol
# Density = 1.881858 g / cm^3
# Si number density = 18.861511 Si / 1000 Ang^3
#
#
#
# Elastic Constant Matrix: (Units=GPa)
#
#
# Indices 1 2 3 4 5 6 
#
# 1 121.1124 36.3647 49.8360 0.0000 0.0000 0.0000
# 2 36.3647 48.3168 33.1266 0.0000 0.0000 0.0000
# 3 49.8360 33.1266 113.9214 0.0000 0.0000 0.0000
# 4 0.0000 0.0000 0.0000 20.6961 0.0000 0.0000
# 5 0.0000 0.0000 0.0000 0.0000 -9.8551 0.0000
# 6 0.0000 0.0000 0.0000 0.0000 0.0000 25.7276
#
#
#
# Elastic Compliance Matrix: (Units=1/GPa)
#
#
# Indices 1 2 3 4 5 6 
#
# 1 0.011502 -0.006503 -0.003140 0.000000 0.000000 0.000000
# 2 -0.006503 0.029528 -0.005741 0.000000 0.000000 0.000000
# 3 -0.003140 -0.005741 0.011821 0.000000 0.000000 0.000000
# 4 0.000000 0.000000 0.000000 0.048318 0.000000 0.000000
# 5 0.000000 0.000000 0.000000 0.000000 -0.101470 0.000000
# 6 0.000000 0.000000 0.000000 0.000000 0.000000 0.038869
#
#
# Mechanical properties :
#
#
# Convention : Reuss Voigt Hill
#
# Bulk Modulus (GPa) = 45.28884 58.00057 51.64471
# Shear Modulus (GPa) = 65.19107 18.24861 41.71984
#
# Velocity S-wave (km/s) = 5.88541 3.11385 4.70819
# Velocity P-wave (km/s) = 8.38137 6.61404 7.54960
#
# Compressibility (1/GPa) = 0.02208049
#
# Stress axis : x y z
#
# Youngs Moduli (GPa) = 86.94338 33.86652 84.59339
#
# Poissons Ratio (x) = 0.22025 0.26566
# Poissons Ratio (y) = 0.56543 0.48567
# Poissons Ratio (z) = 0.27304 0.19443
#
# Static dielectric constant tensor:
#      x y z
#    x 1.708120 0.000000 0.000000 
#    y 0.000000 1.648010 0.000000 
#    z 0.000000 0.000000 1.639390 
# 
# From -- ./inp_files/40180.got.cif
#   From: 2010.05.17/outbox.cif.g08.bks.cpg/sg67_21_cif.got.tgz:40180.got - 2010.06.03 18:28:57.
