data_PCOD9502462
_publ_section_title
;
Structure prediction by ZEFSAII (Michael W. Deem and Ramdas Pophale) SiO2 
 PCOD9502462
Probable space group: C M M A
;
_chemical_formula_sum "Si O2"
_cell_formula_units_Z 96
_cell_length_a 8.543695
_cell_length_b 28.210436
_cell_length_c 25.087370
_cell_angle_alpha 90.000000
_cell_angle_beta 90.000000
_cell_angle_gamma 90.000000
_cell_volume 6046.592061
_symmetry_space_group_name_H-M "C M M A"
_symmetry_group_IT_number 67
_symmetry_cell_setting 'orthorhombic'
loop_
_space_group_symop_operation_xyz
x,y,z
-x,1/2-y,z
x,-y,-z
-x,1/2+y,-z
-x,-y,-z
x,1/2+y,-z
-x,y,z
x,1/2-y,z
1/2+x,1/2+y,z
1/2-x,-y,z
1/2+x,1/2-y,-z
1/2-x,y,-z
1/2-x,1/2-y,-z
1/2+x,y,-z
1/2-x,1/2+y,z
1/2+x,-y,z
loop_
_atom_site_type_symbol
_atom_site_label
_atom_site_fract_x
_atom_site_fract_y
_atom_site_fract_z
Si Si1 0.689926 0.601558 0.280457
Si Si2 0.812532 0.644017 0.557645
Si Si3 0.187198 0.554035 0.945289
Si Si4 0.689044 0.553725 0.171605
Si Si5 0.309560 0.197024 0.664394
Si Si6 0.686505 0.552011 0.614339
O O1 0.500000 0.599547 0.282981
O O2 0.740837 0.584194 0.222321
O O3 0.738800 0.655041 0.295659
O O4 0.754424 0.567673 0.326944
O O5 0.750000 0.657817 0.500000
O O6 0.764275 0.679580 0.605163
O O7 0.749717 0.592337 0.574567
O O8 0.000000 0.642314 0.556839
O O9 0.250000 0.500000 0.944672
O O10 0.234919 0.573199 0.887008
O O11 0.000000 0.553006 0.948277
O O12 0.250000 0.576552 0.000000
O O13 0.500000 0.551944 0.172409
O O14 0.750000 0.500000 0.176933
O O15 0.500000 0.198029 0.665501
O O16 0.253101 0.250000 0.675940
O O17 0.500000 0.551849 0.613435
O O18 0.750000 0.500000 0.601504
#
# Coordination Sequence:
#
# PCOD9502462 Si02
#       6
#    16  16  16  16  16  16
#     4   9  17  30  46  65  89 114 143 178 215 255
#     4  10  20  34  50  69  91 113 141 174 209 251
#     4   9  15  23  34  50  75 108 145 178 209 242
#     4   9  17  26  38  58  84 115 146 177 210 247
#     4   8  15  29  49  69  88 111 137 169 213 260
#     4  11  21  33  48  66  89 117 147 176 210 249
#
# _framework density 15.876711
#
# number of rings (size 3 to 8) (size 9 to 14) (size 15 to 20)
#    0.000    2.667    0.000    4.500    0.000    3.333 
#    0.000    1.667    0.000   12.000    0.000    0.000 
#    0.000    0.667    0.000    0.500    0.000    1.333 
#
# Total GULP energy -267436.618011 kJ/mol
# GULP energy per Si atom -5571.596209 kJ/mol
# Density = 1.584057 g / cm^3
# Si number density = 15.876711 Si / 1000 Ang^3
#
#
#
# Elastic Constant Matrix: (Units=GPa)
#
#
# Indices 1 2 3 4 5 6 
#
# 1 35.9092 8.8256 18.6458 0.0000 0.0000 0.0000
# 2 8.8256 70.3036 29.6353 0.0000 0.0000 0.0000
# 3 18.6458 29.6353 126.5852 0.0000 0.0000 0.0000
# 4 0.0000 0.0000 0.0000 12.5442 0.0000 0.0000
# 5 0.0000 0.0000 0.0000 0.0000 -82.3724 0.0000
# 6 0.0000 0.0000 0.0000 0.0000 0.0000 9.3167
#
#
#
# Elastic Compliance Matrix: (Units=1/GPa)
#
#
# Indices 1 2 3 4 5 6 
#
# 1 0.030443 -0.002143 -0.003982 0.000000 0.000000 0.000000
# 2 -0.002143 0.015932 -0.003414 0.000000 0.000000 0.000000
# 3 -0.003982 -0.003414 0.009286 0.000000 0.000000 0.000000
# 4 0.000000 0.000000 0.000000 0.079718 0.000000 0.000000
# 5 0.000000 0.000000 0.000000 0.000000 -0.012140 0.000000
# 6 0.000000 0.000000 0.000000 0.000000 0.000000 0.107334
#
#
# Mechanical properties :
#
#
# Convention : Reuss Voigt Hill
#
# Bulk Modulus (GPa) = 27.33638 38.55684 32.94661
# Shear Modulus (GPa) = 19.09522 -0.38955 9.35284
#
# Velocity S-wave (km/s) = 3.47179 -0.49587 2.42975
# Velocity P-wave (km/s) = 5.77290 4.90000 5.35427
#
# Compressibility (1/GPa) = 0.03658129
#
# Stress axis : x y z
#
# Youngs Moduli (GPa) = 32.84873 62.76569 107.69172
#
# Poissons Ratio (x) = 0.13450 0.42888
# Poissons Ratio (y) = 0.07039 0.36769
# Poissons Ratio (z) = 0.13082 0.21430
#
# Static dielectric constant tensor:
#      x y z
#    x 1.538990 0.000000 0.000000 
#    y 0.000000 1.508360 0.000000 
#    z 0.000000 0.000000 1.566570 
# 
# From -- ./inp_files/40931.got.cif
#   From: 2010.05.17/outbox.cif.g08.bks.cpg/sg67_21_cif.got.tgz:40931.got - 2010.06.03 18:28:57.
