data_PCOD9502920
_publ_section_title
;
Structure prediction by ZEFSAII (Michael W. Deem and Ramdas Pophale) SiO2 
 PCOD9502920
Probable space group: C M M A
;
_chemical_formula_sum "Si O2"
_cell_formula_units_Z 88
_cell_length_a 22.509193
_cell_length_b 8.692421
_cell_length_c 24.402371
_cell_angle_alpha 90.000000
_cell_angle_beta 90.000000
_cell_angle_gamma 90.000000
_cell_volume 4774.552827
_symmetry_space_group_name_H-M "C M M A"
_symmetry_group_IT_number 67
_symmetry_cell_setting 'orthorhombic'
loop_
_space_group_symop_operation_xyz
x,y,z
-x,1/2-y,z
x,-y,-z
-x,1/2+y,-z
-x,-y,-z
x,1/2+y,-z
-x,y,z
x,1/2-y,z
1/2+x,1/2+y,z
1/2-x,-y,z
1/2+x,1/2-y,-z
1/2-x,y,-z
1/2-x,1/2-y,-z
1/2+x,y,-z
1/2-x,1/2+y,z
1/2+x,-y,z
loop_
_atom_site_type_symbol
_atom_site_label
_atom_site_fract_x
_atom_site_fract_y
_atom_site_fract_z
Si Si1 0.070689 0.573450 0.756850
Si Si2 0.569537 0.434107 0.123698
Si Si3 0.607323 0.565764 0.642562
Si Si4 0.815246 0.931884 0.554188
Si Si5 0.686056 0.064651 0.938121
Si Si6 0.000000 0.934200 0.438751
O O1 0.090867 0.750000 0.763869
O O2 0.079351 0.480258 0.812877
O O3 0.098172 0.496752 0.703288
O O4 0.000000 0.575761 0.747037
O O5 0.500000 0.481185 0.109932
O O6 0.572284 0.250000 0.116747
O O7 0.624887 0.509752 0.091230
O O8 0.611284 0.750000 0.643840
O O9 0.661627 0.488353 0.612192
O O10 0.554956 0.521922 0.600104
O O11 0.816175 0.750000 0.549585
O O12 0.847832 0.000000 0.500000
O O13 0.750000 0.000000 0.551955
O O14 0.688602 0.250000 0.937993
O O15 0.750000 0.000000 0.915712
O O16 0.682645 0.000000 0.000000
O O17 0.000000 0.750000 0.444224
O O18 0.000000 0.000000 0.500000
#
# Coordination Sequence:
#
# PCOD9502920 Si02
#       6
#    16  16  16  16  16   8
#     4  10  20  35  56  83 114 151 192 235 284 340
#     4  10  21  38  61  89 122 161 205 252 300 354
#     4  11  21  36  55  79 108 144 182 225 276 335
#     4  11  22  38  57  78 102 136 177 224 278 337
#     4  11  22  39  63  91 126 165 206 250 302 361
#     4  10  22  34  50  76 108 140 175 218 273 330
#
# _framework density 18.431045000000001
#
# number of rings (size 3 to 8) (size 9 to 14) (size 15 to 20)
#    0.000    1.455    0.909    6.545    0.000    5.091 
#    0.000    0.909    0.000    0.000    0.000    0.000 
#    0.000    0.000    0.000    0.000    0.000    0.000 
#
# Total GULP energy -245349.100448 kJ/mol
# GULP energy per Si atom -5576.115919 kJ/mol
# Density = 1.838909 g / cm^3
# Si number density = 18.431045 Si / 1000 Ang^3
#
#
#
# Elastic Constant Matrix: (Units=GPa)
#
#
# Indices 1 2 3 4 5 6 
#
# 1 113.8615 56.1761 65.6875 0.0000 0.0000 0.0000
# 2 56.1761 98.9289 40.5932 0.0000 0.0000 0.0000
# 3 65.6875 40.5932 100.6059 0.0000 0.0000 0.0000
# 4 0.0000 0.0000 0.0000 38.9290 0.0000 0.0000
# 5 0.0000 0.0000 0.0000 0.0000 34.5845 0.0000
# 6 0.0000 0.0000 0.0000 0.0000 0.0000 22.9373
#
#
#
# Elastic Compliance Matrix: (Units=1/GPa)
#
#
# Indices 1 2 3 4 5 6 
#
# 1 0.016582 -0.005960 -0.008422 0.000000 0.000000 0.000000
# 2 -0.005960 0.014256 -0.001861 0.000000 0.000000 0.000000
# 3 -0.008422 -0.001861 0.016189 0.000000 0.000000 0.000000
# 4 0.000000 0.000000 0.000000 0.025688 0.000000 0.000000
# 5 0.000000 0.000000 0.000000 0.000000 0.028915 0.000000
# 6 0.000000 0.000000 0.000000 0.000000 0.000000 0.043597
#
#
# Mechanical properties :
#
#
# Convention : Reuss Voigt Hill
#
# Bulk Modulus (GPa) = 68.76599 70.92332 69.84465
# Shear Modulus (GPa) = 27.38840 29.35281 28.37061
#
# Velocity S-wave (km/s) = 3.85904 3.99504 3.92763
# Velocity P-wave (km/s) = 7.56618 7.73591 7.65152
#
# Compressibility (1/GPa) = 0.01454207
#
# Stress axis : x y z
#
# Youngs Moduli (GPa) = 60.30750 70.14495 61.76961
#
# Poissons Ratio (x) = 0.41808 0.52020
# Poissons Ratio (y) = 0.35944 0.11493
# Poissons Ratio (z) = 0.50789 0.13052
#
# Static dielectric constant tensor:
#      x y z
#    x 1.691690 0.000000 0.000000 
#    y 0.000000 1.622350 0.000000 
#    z 0.000000 0.000000 1.601270 
# 
# From -- ./inp_files/42359.got.cif
#   From: 2010.05.17/outbox.cif.g08.bks.cpg/sg67_22_cif.got.tgz:42359.got - 2010.06.03 18:28:57.
