data_PCOD9502497
_publ_section_title
;
Structure prediction by ZEFSAII (Michael W. Deem and Ramdas Pophale) SiO2 
 PCOD9502497
Probable space group: C M M A
;
_chemical_formula_sum "Si O2"
_cell_formula_units_Z 128
_cell_length_a 26.675256
_cell_length_b 23.941748
_cell_length_c 10.498246
_cell_angle_alpha 90.000000
_cell_angle_beta 90.000000
_cell_angle_gamma 90.000000
_cell_volume 6704.728502
_symmetry_space_group_name_H-M "C M M A"
_symmetry_group_IT_number 67
_symmetry_cell_setting 'orthorhombic'
loop_
_space_group_symop_operation_xyz
x,y,z
-x,1/2-y,z
x,-y,-z
-x,1/2+y,-z
-x,-y,-z
x,1/2+y,-z
-x,y,z
x,1/2-y,z
1/2+x,1/2+y,z
1/2-x,-y,z
1/2+x,1/2-y,-z
1/2-x,y,-z
1/2-x,1/2-y,-z
1/2+x,y,-z
1/2-x,1/2+y,z
1/2+x,-y,z
loop_
_atom_site_type_symbol
_atom_site_label
_atom_site_fract_x
_atom_site_fract_y
_atom_site_fract_z
Si Si1 0.287223 0.184366 0.811498
Si Si2 0.942117 0.622383 0.689889
Si Si3 0.176617 0.316431 0.723136
Si Si4 0.616777 0.412107 0.180717
Si Si5 0.355493 0.315771 0.559712
Si Si6 0.366975 0.392311 0.896935
Si Si7 0.193882 0.502040 0.845633
Si Si8 0.942936 0.007989 0.637722
O O1 0.287715 0.250000 0.843855
O O2 0.229995 0.167081 0.785366
O O3 0.317983 0.176561 0.679156
O O4 0.319497 0.149208 0.913122
O O5 0.905483 0.647236 0.581041
O O6 0.911095 0.636861 0.817579
O O7 0.943307 0.554907 0.691160
O O8 0.000000 0.641421 0.682792
O O9 0.172251 0.250000 0.740079
O O10 0.129788 0.349424 0.781383
O O11 0.173266 0.328019 0.571620
O O12 0.667068 0.447374 0.203917
O O13 0.578170 0.446150 0.266165
O O14 0.609813 0.413752 0.028811
O O15 0.369576 0.250000 0.558292
O O16 0.340922 0.444032 0.821436
O O17 0.250000 0.500000 0.796332
O O18 0.196201 0.500000 0.000000
O O19 0.000000 0.026186 0.612517
O O20 0.916869 0.000000 0.500000
#
# Coordination Sequence:
#
# PCOD9502497 Si02
#       8
#    16  16  16  16  16  16  16  16
#     4   9  18  33  55  80 110 147 185 228 275 329
#     4  10  20  35  56  81 109 140 181 234 284 333
#     4  10  20  34  54  81 110 144 185 227 276 336
#     4  11  21  34  54  77 108 147 182 229 284 338
#     4   9  18  34  56  81 110 143 183 231 280 334
#     4  10  20  34  51  79 112 143 184 229 276 332
#     4   9  17  30  48  71 103 143 180 215 264 325
#     4  10  21  37  57  79 104 138 183 234 285 336
#
# _framework density 19.091003000000001
#
# number of rings (size 3 to 8) (size 9 to 14) (size 15 to 20)
#    0.000    2.250    1.250    1.875    0.000    4.250 
#    0.000    2.500    0.000    1.125    0.000    1.750 
#    0.000    0.000    0.000    0.000    0.000    0.000 
#
# Total GULP energy -356453.710936 kJ/mol
# GULP energy per Si atom -5569.589233 kJ/mol
# Density = 1.904755 g / cm^3
# Si number density = 19.091003 Si / 1000 Ang^3
#
#
#
# Elastic Constant Matrix: (Units=GPa)
#
#
# Indices 1 2 3 4 5 6 
#
# 1 92.2313 23.4813 24.5282 0.0000 0.0000 0.0000
# 2 23.4813 46.9884 10.9144 0.0000 0.0000 0.0000
# 3 24.5282 10.9144 55.3866 0.0000 0.0000 0.0000
# 4 0.0000 0.0000 0.0000 24.3353 0.0000 0.0000
# 5 0.0000 0.0000 0.0000 0.0000 20.8547 0.0000
# 6 0.0000 0.0000 0.0000 0.0000 0.0000 21.7510
#
#
#
# Elastic Compliance Matrix: (Units=1/GPa)
#
#
# Indices 1 2 3 4 5 6 
#
# 1 0.013584 -0.005650 -0.004903 0.000000 0.000000 0.000000
# 2 -0.005650 0.024652 -0.002356 0.000000 0.000000 0.000000
# 3 -0.004903 -0.002356 0.020690 0.000000 0.000000 0.000000
# 4 0.000000 0.000000 0.000000 0.041093 0.000000 0.000000
# 5 0.000000 0.000000 0.000000 0.000000 0.047951 0.000000
# 6 0.000000 0.000000 0.000000 0.000000 0.000000 0.045975
#
#
# Mechanical properties :
#
#
# Convention : Reuss Voigt Hill
#
# Bulk Modulus (GPa) = 30.20184 34.71715 32.45949
# Shear Modulus (GPa) = 21.66388 22.43370 22.04879
#
# Velocity S-wave (km/s) = 3.37229 3.43168 3.40211
# Velocity P-wave (km/s) = 5.56932 5.82464 5.69841
#
# Compressibility (1/GPa) = 0.03311057
#
# Stress axis : x y z
#
# Youngs Moduli (GPa) = 73.61333 40.56397 48.33180
#
# Poissons Ratio (x) = 0.22918 0.23695
# Poissons Ratio (y) = 0.41590 0.11387
# Poissons Ratio (z) = 0.36090 0.09557
#
# Static dielectric constant tensor:
#      x y z
#    x 1.668470 0.000000 0.000000 
#    y 0.000000 1.709660 0.000000 
#    z 0.000000 0.000000 1.706870 
# 
# From -- ./inp_files/22357.got.cif
#   From: 2010.05.17/outbox.cif.g08.bks.cpg/sg67_12_cif.got.tgz:22357.got - 2010.06.03 18:28:57.
