data_PCOD9502476
_publ_section_title
;
Structure prediction by ZEFSAII (Michael W. Deem and Ramdas Pophale) SiO2 
 PCOD9502476
Probable space group: C M M A
;
_chemical_formula_sum "Si O2"
_cell_formula_units_Z 96
_cell_length_a 8.914902
_cell_length_b 26.313184
_cell_length_c 25.748143
_cell_angle_alpha 90.000000
_cell_angle_beta 90.000000
_cell_angle_gamma 90.000000
_cell_volume 6039.985395
_symmetry_space_group_name_H-M "C M M A"
_symmetry_group_IT_number 67
_symmetry_cell_setting 'orthorhombic'
loop_
_space_group_symop_operation_xyz
x,y,z
-x,1/2-y,z
x,-y,-z
-x,1/2+y,-z
-x,-y,-z
x,1/2+y,-z
-x,y,z
x,1/2-y,z
1/2+x,1/2+y,z
1/2-x,-y,z
1/2+x,1/2-y,-z
1/2-x,y,-z
1/2-x,1/2-y,-z
1/2+x,y,-z
1/2-x,1/2+y,z
1/2+x,-y,z
loop_
_atom_site_type_symbol
_atom_site_label
_atom_site_fract_x
_atom_site_fract_y
_atom_site_fract_z
Si Si1 0.319144 0.054175 0.943525
Si Si2 0.679312 0.943476 0.448706
Si Si3 0.320100 0.644960 0.133736
Si Si4 0.172478 0.750000 0.130605
Si Si5 0.680307 0.943939 0.332755
Si Si6 0.318912 0.856144 0.254251
Si Si7 0.326617 0.750000 0.743221
O O1 0.500000 0.050356 0.947203
O O2 0.279313 0.097908 0.902653
O O3 0.250000 0.000000 0.927555
O O4 0.250000 0.065864 0.000000
O O5 0.500000 0.946532 0.454818
O O6 0.750000 0.918150 0.500000
O O7 0.713467 0.923235 0.391013
O O8 0.750000 0.000000 0.447117
O O9 0.500000 0.649818 0.133401
O O10 0.251324 0.697905 0.114308
O O11 0.274368 0.636428 0.193857
O O12 0.179893 0.750000 0.193666
O O13 0.000000 0.750000 0.114694
O O14 0.500000 0.949435 0.329418
O O15 0.729731 0.903335 0.289777
O O16 0.750000 0.000000 0.326317
O O17 0.500000 0.853338 0.256114
O O18 0.253266 0.802245 0.272842
O O19 0.500000 0.750000 0.727617
#
# Coordination Sequence:
#
# PCOD9502476 Si02
#       7
#    16  16  16   8  16  16   8
#     4  10  20  34  51  70  91 119 153 188 221 259
#     4   9  15  24  38  57  81 112 148 182 214 255
#     4   9  18  32  50  69  91 119 150 181 220 268
#     4   9  17  29  48  72  95 116 143 182 225 263
#     4   9  18  29  42  63  92 121 149 180 219 264
#     4   9  17  31  48  66  90 121 150 179 219 268
#     4   9  17  29  45  68  91 114 149 188 220 257
#
# _framework density 15.894079
#
# number of rings (size 3 to 8) (size 9 to 14) (size 15 to 20)
#    0.000    2.833    0.000    2.500    0.000    5.333 
#    0.000    0.417    0.000    0.000    0.000    0.583 
#    0.000    0.000    0.000    0.000    0.000    0.000 
#
# Total GULP energy -267270.236642 kJ/mol
# GULP energy per Si atom -5568.129930 kJ/mol
# Density = 1.585790 g / cm^3
# Si number density = 15.894079 Si / 1000 Ang^3
#
#
#
# Elastic Constant Matrix: (Units=GPa)
#
#
# Indices 1 2 3 4 5 6 
#
# 1 37.8048 42.4108 36.7381 0.0000 0.0000 0.0000
# 2 42.4108 130.6182 85.6816 0.0000 0.0000 0.0000
# 3 36.7381 85.6816 86.1833 0.0000 0.0000 0.0000
# 4 0.0000 0.0000 0.0000 -1.8183 0.0000 0.0000
# 5 0.0000 0.0000 0.0000 0.0000 12.8764 0.0000
# 6 0.0000 0.0000 0.0000 0.0000 0.0000 20.9280
#
#
#
# Elastic Compliance Matrix: (Units=1/GPa)
#
#
# Indices 1 2 3 4 5 6 
#
# 1 0.046770 -0.006059 -0.013913 0.000000 0.000000 0.000000
# 2 -0.006059 0.022794 -0.020079 0.000000 0.000000 0.000000
# 3 -0.013913 -0.020079 0.037496 0.000000 0.000000 0.000000
# 4 0.000000 0.000000 0.000000 -0.549973 0.000000 0.000000
# 5 0.000000 0.000000 0.000000 0.000000 0.077662 0.000000
# 6 0.000000 0.000000 0.000000 0.000000 0.000000 0.047783
#
#
# Mechanical properties :
#
#
# Convention : Reuss Voigt Hill
#
# Bulk Modulus (GPa) = 37.09482 64.91860 51.00671
# Shear Modulus (GPa) = -21.89320 12.38227 -4.75546
#
# Velocity S-wave (km/s) = -3.71542 2.79417 -1.73161
# Velocity P-wave (km/s) = 2.23241 7.16541 5.30692
#
# Compressibility (1/GPa) = 0.02695794
#
# Stress axis : x y z
#
# Youngs Moduli (GPa) = 21.38141 43.87058 26.66977
#
# Poissons Ratio (x) = 0.26583 0.37105
# Poissons Ratio (y) = 0.12956 0.53549
# Poissons Ratio (z) = 0.29747 0.88086
#
# Static dielectric constant tensor:
#      x y z
#    x 1.534610 0.000000 0.000000 
#    y 0.000000 1.505270 0.000000 
#    z 0.000000 0.000000 1.559780 
# 
# From -- ./inp_files/40963.got.cif
#   From: 2010.05.17/outbox.cif.g08.bks.cpg/sg67_21_cif.got.tgz:40963.got - 2010.06.03 18:28:57.
