data_PCOD9502396
_publ_section_title
;
Structure prediction by ZEFSAII (Michael W. Deem and Ramdas Pophale) SiO2 
 PCOD9502396
Probable space group: C M M A
;
_chemical_formula_sum "Si O2"
_cell_formula_units_Z 112
_cell_length_a 25.178210
_cell_length_b 16.997399
_cell_length_c 14.165718
_cell_angle_alpha 90.000000
_cell_angle_beta 90.000000
_cell_angle_gamma 90.000000
_cell_volume 6062.418492
_symmetry_space_group_name_H-M "C M M A"
_symmetry_group_IT_number 67
_symmetry_cell_setting 'orthorhombic'
loop_
_space_group_symop_operation_xyz
x,y,z
-x,1/2-y,z
x,-y,-z
-x,1/2+y,-z
-x,-y,-z
x,1/2+y,-z
-x,y,z
x,1/2-y,z
1/2+x,1/2+y,z
1/2-x,-y,z
1/2+x,1/2-y,-z
1/2-x,y,-z
1/2-x,1/2-y,-z
1/2+x,y,-z
1/2-x,1/2+y,z
1/2+x,-y,z
loop_
_atom_site_type_symbol
_atom_site_label
_atom_site_fract_x
_atom_site_fract_y
_atom_site_fract_z
Si Si1 0.441259 0.591924 0.025976
Si Si2 0.830980 0.593385 0.020150
Si Si3 0.435954 0.339347 0.773314
Si Si4 0.165866 0.092659 0.516365
Si Si5 0.259193 0.156502 0.855119
Si Si6 0.745285 0.843775 0.358696
Si Si7 0.438407 0.654867 0.438147
O O1 0.500000 0.627048 0.010729
O O2 0.426154 0.606695 0.135848
O O3 0.444993 0.500000 0.000000
O O4 0.391114 0.622802 0.967998
O O5 0.793319 0.613417 0.107069
O O6 0.830925 0.500000 0.000000
O O7 0.804816 0.633632 0.928627
O O8 0.500000 0.333221 0.767181
O O9 0.415030 0.250000 0.788701
O O10 0.420569 0.368085 0.668918
O O11 0.199861 0.115711 0.608482
O O12 0.199579 0.132594 0.431933
O O13 0.105418 0.122309 0.509708
O O14 0.167296 0.000000 0.500000
O O15 0.250808 0.250000 0.860293
O O16 0.270586 0.134707 0.747536
O O17 0.752678 0.750000 0.363731
O O18 0.500000 0.630444 0.453979
O O19 0.437620 0.750000 0.439621
#
# Coordination Sequence:
#
# PCOD9502396 Si02
#       7
#    16  16  16  16  16  16  16
#     4   9  18  32  48  73 108 141 173 209 261 318
#     4  10  20  33  52  78 107 141 175 212 263 317
#     4   8  15  28  48  75 101 130 173 219 258 299
#     4  11  22  35  54  84 111 137 172 220 273 326
#     4  10  21  36  55  77 102 136 178 224 262 305
#     4  10  21  38  58  77 103 141 182 222 270 322
#     4   9  18  34  56  81 110 142 177 219 265 316
#
# _framework density 18.474475000000002
#
# number of rings (size 3 to 8) (size 9 to 14) (size 15 to 20)
#    0.000    2.429    0.000    5.143    2.000    3.714 
#    2.571    0.000    0.000    0.857    0.000    2.000 
#    0.000    0.000    0.000    0.000    0.000    0.000 
#
# Total GULP energy -312147.523060 kJ/mol
# GULP energy per Si atom -5574.062912 kJ/mol
# Density = 1.843243 g / cm^3
# Si number density = 18.474475 Si / 1000 Ang^3
#
#
#
# Elastic Constant Matrix: (Units=GPa)
#
#
# Indices 1 2 3 4 5 6 
#
# 1 95.8802 5.4592 -6.4215 0.0000 0.0000 0.0000
# 2 5.4592 43.4159 4.8127 0.0000 0.0000 0.0000
# 3 -6.4215 4.8127 33.9031 0.0000 0.0000 0.0000
# 4 0.0000 0.0000 0.0000 -47.2514 0.0000 0.0000
# 5 0.0000 0.0000 0.0000 0.0000 -44.1151 0.0000
# 6 0.0000 0.0000 0.0000 0.0000 0.0000 11.8127
#
#
#
# Elastic Compliance Matrix: (Units=1/GPa)
#
#
# Indices 1 2 3 4 5 6 
#
# 1 0.010671 -0.001591 0.002247 0.000000 0.000000 0.000000
# 2 -0.001591 0.023638 -0.003657 0.000000 0.000000 0.000000
# 3 0.002247 -0.003657 0.030441 0.000000 0.000000 0.000000
# 4 0.000000 0.000000 0.000000 -0.021163 0.000000 0.000000
# 5 0.000000 0.000000 0.000000 0.000000 -0.022668 0.000000
# 6 0.000000 0.000000 0.000000 0.000000 0.000000 0.084654
#
#
# Mechanical properties :
#
#
# Convention : Reuss Voigt Hill
#
# Bulk Modulus (GPa) = 17.02183 20.10000 18.56092
# Shear Modulus (GPa) = 38.12223 -4.62085 16.75069
#
# Velocity S-wave (km/s) = 4.54751 -1.58324 3.01440
# Velocity P-wave (km/s) = 6.06687 2.74978 4.71000
#
# Compressibility (1/GPa) = 0.05874810
#
# Stress axis : x y z
#
# Youngs Moduli (GPa) = 93.71416 42.30392 32.85095
#
# Poissons Ratio (x) = 0.06730 -0.07381
# Poissons Ratio (y) = 0.14908 0.12013
# Poissons Ratio (z) = -0.21057 0.15470
#
# Static dielectric constant tensor:
#      x y z
#    x 1.678850 0.000000 0.000000 
#    y 0.000000 1.630050 0.000000 
#    z 0.000000 0.000000 1.633280 
# 
# From -- ./inp_files/30822.got.cif
#   From: 2010.05.17/outbox.cif.g08.bks.cpg/sg67_16_cif.got.tgz:30822.got - 2010.06.03 18:28:57.
