data_PCOD9502807
_publ_section_title
;
Structure prediction by ZEFSAII (Michael W. Deem and Ramdas Pophale) SiO2 
 PCOD9502807
Probable space group: C M M A
;
_chemical_formula_sum "Si O2"
_cell_formula_units_Z 96
_cell_length_a 8.668924
_cell_length_b 19.894859
_cell_length_c 31.302394
_cell_angle_alpha 90.000000
_cell_angle_beta 90.000000
_cell_angle_gamma 90.000000
_cell_volume 5398.630633
_symmetry_space_group_name_H-M "C M M A"
_symmetry_group_IT_number 67
_symmetry_cell_setting 'orthorhombic'
loop_
_space_group_symop_operation_xyz
x,y,z
-x,1/2-y,z
x,-y,-z
-x,1/2+y,-z
-x,-y,-z
x,1/2+y,-z
-x,y,z
x,1/2-y,z
1/2+x,1/2+y,z
1/2-x,-y,z
1/2+x,1/2-y,-z
1/2-x,y,-z
1/2-x,1/2-y,-z
1/2+x,y,-z
1/2-x,1/2+y,z
1/2+x,-y,z
loop_
_atom_site_type_symbol
_atom_site_label
_atom_site_fract_x
_atom_site_fract_y
_atom_site_fract_z
Si Si1 0.185915 0.172474 0.045891
Si Si2 0.315458 0.328971 0.712336
Si Si3 0.184327 0.425483 0.453613
Si Si4 0.684310 0.574795 0.785002
Si Si5 0.314094 0.925371 0.122538
Si Si6 0.315572 0.329024 0.381171
O O1 0.235118 0.250000 0.052715
O O2 0.233442 0.124892 0.084802
O O3 0.000000 0.171505 0.044031
O O4 0.250000 0.150252 0.000000
O O5 0.500000 0.337266 0.712481
O O6 0.280786 0.250000 0.719891
O O7 0.240996 0.374924 0.748529
O O8 0.249755 0.346419 0.665608
O O9 0.250000 0.500000 0.444707
O O10 0.250000 0.405185 0.500000
O O11 0.239888 0.374597 0.417357
O O12 0.000000 0.428357 0.455508
O O13 0.500000 0.571866 0.786461
O O14 0.750000 0.500000 0.776835
O O15 0.749141 0.595967 0.831363
O O16 0.500000 0.927629 0.124729
O O17 0.250000 0.000000 0.114165
O O18 0.500000 0.337747 0.381513
O O19 0.281586 0.250000 0.388603
#
# Coordination Sequence:
#
# PCOD9502807 Si02
#       6
#    16  16  16  16  16  16
#     4   9  19  35  54  76 103 136 174 216 262 313
#     4  10  21  38  59  83 112 145 181 223 272 324
#     4  11  22  38  59  83 113 147 186 229 276 327
#     4  11  22  37  57  81 110 143 182 225 271 322
#     4  10  20  35  54  77 106 139 176 218 266 318
#     4  10  21  38  59  84 114 146 183 227 273 323
#
# _framework density 17.782288000000001
#
# number of rings (size 3 to 8) (size 9 to 14) (size 15 to 20)
#    0.000    1.833    0.000    6.000    0.000    5.333 
#    0.000    6.667    0.000    0.000    0.000    0.000 
#    0.000    0.000    0.000    0.000    0.000    0.000 
#
# Total GULP energy -268145.533322 kJ/mol
# GULP energy per Si atom -5586.365278 kJ/mol
# Density = 1.774181 g / cm^3
# Si number density = 17.782288 Si / 1000 Ang^3
#
#
#
# Elastic Constant Matrix: (Units=GPa)
#
#
# Indices 1 2 3 4 5 6 
#
# 1 111.0683 60.0848 84.0375 0.0000 0.0000 0.0000
# 2 60.0848 88.8700 122.7864 0.0000 0.0000 0.0000
# 3 84.0375 122.7864 200.3816 0.0000 0.0000 0.0000
# 4 0.0000 0.0000 0.0000 41.1824 0.0000 0.0000
# 5 0.0000 0.0000 0.0000 0.0000 37.0699 0.0000
# 6 0.0000 0.0000 0.0000 0.0000 0.0000 28.1445
#
#
#
# Elastic Compliance Matrix: (Units=1/GPa)
#
#
# Indices 1 2 3 4 5 6 
#
# 1 0.014202 -0.008950 -0.000472 0.000000 0.000000 0.000000
# 2 -0.008950 0.079002 -0.044656 0.000000 0.000000 0.000000
# 3 -0.000472 -0.044656 0.032552 0.000000 0.000000 0.000000
# 4 0.000000 0.000000 0.000000 0.024282 0.000000 0.000000
# 5 0.000000 0.000000 0.000000 0.000000 0.026976 0.000000
# 6 0.000000 0.000000 0.000000 0.000000 0.000000 0.035531
#
#
# Mechanical properties :
#
#
# Convention : Reuss Voigt Hill
#
# Bulk Modulus (GPa) = 56.81712 103.79307 80.30509
# Shear Modulus (GPa) = 15.31075 30.17344 22.74209
#
# Velocity S-wave (km/s) = 2.93748 4.12372 3.58008
# Velocity P-wave (km/s) = 6.59742 9.00938 7.89604
#
# Compressibility (1/GPa) = 0.01760033
#
# Stress axis : x y z
#
# Youngs Moduli (GPa) = 70.41114 12.65793 30.72003
#
# Poissons Ratio (x) = 0.11329 0.01451
# Poissons Ratio (y) = 0.63016 1.37183
# Poissons Ratio (z) = 0.03325 0.56525
#
# Static dielectric constant tensor:
#      x y z
#    x 1.595750 0.000000 0.000000 
#    y 0.000000 1.589180 0.000000 
#    z 0.000000 0.000000 1.578040 
# 
# From -- ./inp_files/43497.got.cif
#   From: 2010.05.17/outbox.cif.g08.bks.cpg/sg67_22_cif.got.tgz:43497.got - 2010.06.03 18:28:57.
