data_PCOD9502599
_publ_section_title
;
Structure prediction by ZEFSAII (Michael W. Deem and Ramdas Pophale) SiO2 
 PCOD9502599
Probable space group: C M M A
;
_chemical_formula_sum "Si O2"
_cell_formula_units_Z 80
_cell_length_a 17.956888
_cell_length_b 9.087446
_cell_length_c 27.007846
_cell_angle_alpha 90.000000
_cell_angle_beta 90.000000
_cell_angle_gamma 90.000000
_cell_volume 4407.201079
_symmetry_space_group_name_H-M "C M M A"
_symmetry_group_IT_number 67
_symmetry_cell_setting 'orthorhombic'
loop_
_space_group_symop_operation_xyz
x,y,z
-x,1/2-y,z
x,-y,-z
-x,1/2+y,-z
-x,-y,-z
x,1/2+y,-z
-x,y,z
x,1/2-y,z
1/2+x,1/2+y,z
1/2-x,-y,z
1/2+x,1/2-y,-z
1/2-x,y,-z
1/2-x,1/2-y,-z
1/2+x,y,-z
1/2-x,1/2+y,z
1/2+x,-y,z
loop_
_atom_site_type_symbol
_atom_site_label
_atom_site_fract_x
_atom_site_fract_y
_atom_site_fract_z
Si Si1 0.085962 0.570772 0.342294
Si Si2 0.090867 0.579994 0.050348
Si Si3 0.589872 0.920335 0.151322
Si Si4 0.909139 0.420215 0.549633
Si Si5 0.830299 0.072867 0.757784
O O1 0.085423 0.750000 0.344572
O O2 0.113705 0.519390 0.396395
O O3 0.133747 0.528468 0.294921
O O4 0.000000 0.524270 0.335578
O O5 0.114449 0.750000 0.051705
O O6 0.114335 0.493052 0.099500
O O7 0.000000 0.579143 0.050041
O O8 0.115168 0.500000 0.000000
O O9 0.500000 0.923241 0.152222
O O10 0.613724 0.750000 0.154327
O O11 0.620236 0.012420 0.197310
O O12 0.883505 0.500000 0.500000
O O13 0.887464 0.250000 0.546463
O O14 0.000000 0.425533 0.550324
O O15 0.826374 0.250000 0.759699
O O16 0.750000 0.000000 0.762186
#
# Coordination Sequence:
#
# PCOD9502599 Si02
#       5
#    16  16  16  16  16
#     4   8  15  29  50  73  96 126 164 203 245 298
#     4   9  16  27  46  74 106 137 168 204 248 295
#     4  10  20  34  53  78 106 134 168 211 254 298
#     4   8  13  23  41  67  96 122 151 191 240 292
#     4  11  22  36  53  72  98 133 172 212 257 306
#
# _framework density 18.152111000000001
#
# number of rings (size 3 to 8) (size 9 to 14) (size 15 to 20)
#    0.000    2.800    0.000    3.600    0.000    4.400 
#    0.000    2.000    0.000    6.000    0.000    8.400 
#    0.000    0.000    0.000    0.000    0.000    0.000 
#
# Total GULP energy -222952.191698 kJ/mol
# GULP energy per Si atom -5573.804792 kJ/mol
# Density = 1.811080 g / cm^3
# Si number density = 18.152111 Si / 1000 Ang^3
#
#
#
# Elastic Constant Matrix: (Units=GPa)
#
#
# Indices 1 2 3 4 5 6 
#
# 1 14.8104 17.9802 25.8580 0.0000 0.0000 0.0000
# 2 17.9802 91.1661 68.1821 0.0000 0.0000 0.0000
# 3 25.8580 68.1821 186.2867 0.0000 0.0000 0.0000
# 4 0.0000 0.0000 0.0000 32.8284 0.0000 0.0000
# 5 0.0000 0.0000 0.0000 0.0000 -7.8099 0.0000
# 6 0.0000 0.0000 0.0000 0.0000 0.0000 14.4633
#
#
#
# Elastic Compliance Matrix: (Units=1/GPa)
#
#
# Indices 1 2 3 4 5 6 
#
# 1 0.098758 -0.012702 -0.009059 0.000000 0.000000 0.000000
# 2 -0.012702 0.016737 -0.004363 0.000000 0.000000 0.000000
# 3 -0.009059 -0.004363 0.008222 0.000000 0.000000 0.000000
# 4 0.000000 0.000000 0.000000 0.030461 0.000000 0.000000
# 5 0.000000 0.000000 0.000000 0.000000 -0.128042 0.000000
# 6 0.000000 0.000000 0.000000 0.000000 0.000000 0.069141
#
#
# Mechanical properties :
#
#
# Convention : Reuss Voigt Hill
#
# Bulk Modulus (GPa) = 13.99212 57.36709 35.67961
# Shear Modulus (GPa) = 29.18039 19.91254 24.54646
#
# Velocity S-wave (km/s) = 4.01377 3.31567 3.68131
# Velocity P-wave (km/s) = 5.40421 6.80664 6.14556
#
# Compressibility (1/GPa) = 0.07146878
#
# Stress axis : x y z
#
# Youngs Moduli (GPa) = 10.12580 59.74791 121.62005
#
# Poissons Ratio (x) = 0.75893 1.10178
# Poissons Ratio (y) = 0.12862 0.53059
# Poissons Ratio (z) = 0.09173 0.26066
#
# Static dielectric constant tensor:
#      x y z
#    x 1.608580 0.000000 0.000000 
#    y 0.000000 1.613840 0.000000 
#    z 0.000000 0.000000 1.630720 
# 
# From -- ./inp_files/43245.got.cif
#   From: 2010.05.17/outbox.cif.g08.bks.cpg/sg67_22_cif.got.tgz:43245.got - 2010.06.03 18:28:57.
