data_PCOD9502532
_publ_section_title
;
Structure prediction by ZEFSAII (Michael W. Deem and Ramdas Pophale) SiO2 
 PCOD9502532
Probable space group: C M M A
;
_chemical_formula_sum "Si O2"
_cell_formula_units_Z 88
_cell_length_a 8.922440
_cell_length_b 31.084096
_cell_length_c 17.496526
_cell_angle_alpha 90.000000
_cell_angle_beta 90.000000
_cell_angle_gamma 90.000000
_cell_volume 4852.591177
_symmetry_space_group_name_H-M "C M M A"
_symmetry_group_IT_number 67
_symmetry_cell_setting 'orthorhombic'
loop_
_space_group_symop_operation_xyz
x,y,z
-x,1/2-y,z
x,-y,-z
-x,1/2+y,-z
-x,-y,-z
x,1/2+y,-z
-x,y,z
x,1/2-y,z
1/2+x,1/2+y,z
1/2-x,-y,z
1/2+x,1/2-y,-z
1/2-x,y,-z
1/2-x,1/2-y,-z
1/2+x,y,-z
1/2-x,1/2+y,z
1/2+x,-y,z
loop_
_atom_site_type_symbol
_atom_site_label
_atom_site_fract_x
_atom_site_fract_y
_atom_site_fract_z
Si Si1 0.679144 0.577156 0.422635
Si Si2 0.827450 0.663372 0.366541
Si Si3 0.679275 0.954724 0.252599
Si Si4 0.672630 0.869661 0.807136
Si Si5 0.821685 0.750000 0.583655
Si Si6 0.179642 0.701087 0.915721
O O1 0.500000 0.578790 0.429868
O O2 0.750000 0.558308 0.500000
O O3 0.746904 0.624882 0.411587
O O4 0.716659 0.553584 0.342664
O O5 0.827823 0.650259 0.277930
O O6 0.738829 0.707312 0.376216
O O7 0.000000 0.667903 0.392619
O O8 0.500000 0.955370 0.246302
O O9 0.745178 0.915308 0.203575
O O10 0.750000 0.000000 0.229692
O O11 0.500000 0.875795 0.831106
O O12 0.753998 0.835950 0.862229
O O13 0.750000 0.750000 0.500000
O O14 0.000000 0.750000 0.580008
O O15 0.215114 0.750000 0.888066
O O16 0.000000 0.697380 0.919823
O O17 0.250000 0.697110 0.000000
#
# Coordination Sequence:
#
# PCOD9502532 Si02
#       6
#    16  16  16  16   8  16
#     4  10  20  34  52  74 102 138 179 229 284 338
#     4  10  21  36  52  73 101 137 181 227 275 329
#     4  10  21  37  57  81 110 144 187 234 284 338
#     4  10  21  37  59  84 113 148 185 228 277 330
#     4  12  24  36  50  68  97 136 181 230 278 328
#     4  10  21  37  59  89 123 157 190 226 270 322
#
# _framework density 18.134641999999999
#
# number of rings (size 3 to 8) (size 9 to 14) (size 15 to 20)
#    0.000    1.818    0.000    4.091    1.273    5.818 
#    0.000    1.818    0.000    0.545    0.000    3.818 
#    0.000    0.000    0.000    0.000    0.000    0.000 
#
# Total GULP energy -245780.844137 kJ/mol
# GULP energy per Si atom -5585.928276 kJ/mol
# Density = 1.809337 g / cm^3
# Si number density = 18.134642 Si / 1000 Ang^3
#
#
#
# Elastic Constant Matrix: (Units=GPa)
#
#
# Indices 1 2 3 4 5 6 
#
# 1 110.4181 72.7214 37.5477 0.0000 0.0000 0.0000
# 2 72.7214 156.2023 49.0484 0.0000 0.0000 0.0000
# 3 37.5477 49.0484 62.6540 0.0000 0.0000 0.0000
# 4 0.0000 0.0000 0.0000 8.8351 0.0000 0.0000
# 5 0.0000 0.0000 0.0000 0.0000 31.4141 0.0000
# 6 0.0000 0.0000 0.0000 0.0000 0.0000 31.0011
#
#
#
# Elastic Compliance Matrix: (Units=1/GPa)
#
#
# Indices 1 2 3 4 5 6 
#
# 1 0.013893 -0.005110 -0.004326 0.000000 0.000000 0.000000
# 2 -0.005110 0.010368 -0.005054 0.000000 0.000000 0.000000
# 3 -0.004326 -0.005054 0.022510 0.000000 0.000000 0.000000
# 4 0.000000 0.000000 0.000000 0.113186 0.000000 0.000000
# 5 0.000000 0.000000 0.000000 0.000000 0.031833 0.000000
# 6 0.000000 0.000000 0.000000 0.000000 0.000000 0.032257
#
#
# Mechanical properties :
#
#
# Convention : Reuss Voigt Hill
#
# Bulk Modulus (GPa) = 56.20791 71.98993 64.09892
# Shear Modulus (GPa) = 19.30839 25.58051 22.44445
#
# Velocity S-wave (km/s) = 3.26655 3.75985 3.52185
# Velocity P-wave (km/s) = 6.72973 7.65717 7.20838
#
# Compressibility (1/GPa) = 0.01779109
#
# Stress axis : x y z
#
# Youngs Moduli (GPa) = 71.98091 96.45214 44.42522
#
# Poissons Ratio (x) = 0.49283 0.19217
# Poissons Ratio (y) = 0.36779 0.22454
# Poissons Ratio (z) = 0.31136 0.48750
#
# Static dielectric constant tensor:
#      x y z
#    x 1.609640 0.000000 0.000000 
#    y 0.000000 1.605980 0.000000 
#    z 0.000000 0.000000 1.556610 
# 
# From -- ./inp_files/32411.got.cif
#   From: 2010.05.17/outbox.cif.g08.bks.cpg/sg67_17_cif.got.tgz:32411.got - 2010.06.03 18:28:57.
