data_PCOD9502261
_publ_section_title
;
Structure prediction by ZEFSAII (Michael W. Deem and Ramdas Pophale) SiO2 
 PCOD9502261
Probable space group: C M M A
;
_chemical_formula_sum "Si O2"
_cell_formula_units_Z 96
_cell_length_a 30.042708
_cell_length_b 7.521655
_cell_length_c 21.253842
_cell_angle_alpha 90.000000
_cell_angle_beta 90.000000
_cell_angle_gamma 90.000000
_cell_volume 4802.749483
_symmetry_space_group_name_H-M "C M M A"
_symmetry_group_IT_number 67
_symmetry_cell_setting 'orthorhombic'
loop_
_space_group_symop_operation_xyz
x,y,z
-x,1/2-y,z
x,-y,-z
-x,1/2+y,-z
-x,-y,-z
x,1/2+y,-z
-x,y,z
x,1/2-y,z
1/2+x,1/2+y,z
1/2-x,-y,z
1/2+x,1/2-y,-z
1/2-x,y,-z
1/2-x,1/2-y,-z
1/2+x,y,-z
1/2-x,1/2+y,z
1/2+x,-y,z
loop_
_atom_site_type_symbol
_atom_site_label
_atom_site_fract_x
_atom_site_fract_y
_atom_site_fract_z
Si Si1 0.700698 0.962604 0.241280
Si Si2 0.700829 0.962833 0.385894
Si Si3 0.893318 0.462661 0.430320
Si Si4 0.108325 0.967482 0.811671
Si Si5 0.551087 0.532723 0.310143
Si Si6 0.050643 0.463042 0.071829
O O1 0.696218 0.750000 0.245422
O O2 0.698763 0.030361 0.313533
O O3 0.658796 0.027516 0.201207
O O4 0.750000 0.000000 0.216174
O O5 0.697397 0.750000 0.383317
O O6 0.657431 0.030476 0.422200
O O7 0.750000 0.000000 0.411850
O O8 0.910320 0.500000 0.500000
O O9 0.891878 0.250000 0.423700
O O10 0.923808 0.528153 0.373189
O O11 0.108810 0.750000 0.813200
O O12 0.078647 0.019559 0.751532
O O13 0.084674 0.029260 0.875456
O O14 0.500000 0.474729 0.307708
O O15 0.550907 0.750000 0.310675
O O16 0.048534 0.250000 0.078819
O O17 0.000000 0.531017 0.081029
O O18 0.063876 0.500000 0.000000
#
# Coordination Sequence:
#
# PCOD9502261 Si02
#       6
#    16  16  16  16  16  16
#     4   9  16  28  47  70  94 118 149 191 234 273
#     4   9  17  30  47  66  90 117 148 188 234 278
#     4  10  20  33  47  66  92 121 152 190 235 279
#     4   9  15  27  49  73  95 121 156 195 229 265
#     4   9  16  28  48  71  91 115 154 198 232 267
#     4   9  17  29  47  73 102 129 156 187 227 274
#
# _framework density 19.98855
#
# number of rings (size 3 to 8) (size 9 to 14) (size 15 to 20)
#    0.000    2.833    1.667    0.500    0.000    3.333 
#    0.000    2.500    0.000    1.500    0.000    3.500 
#    0.000    0.000    0.000    0.000    0.000    0.000 
#
# Total GULP energy -267818.680314 kJ/mol
# GULP energy per Si atom -5579.555840 kJ/mol
# Density = 1.994306 g / cm^3
# Si number density = 19.988550 Si / 1000 Ang^3
#
#
#
# Elastic Constant Matrix: (Units=GPa)
#
#
# Indices 1 2 3 4 5 6 
#
# 1 160.2397 1.7576 91.2162 0.0000 0.0000 0.0000
# 2 1.7576 49.3619 -2.0105 0.0000 0.0000 0.0000
# 3 91.2162 -2.0105 138.5220 0.0000 0.0000 0.0000
# 4 0.0000 0.0000 0.0000 10.8302 0.0000 0.0000
# 5 0.0000 0.0000 0.0000 0.0000 5.6829 0.0000
# 6 0.0000 0.0000 0.0000 0.0000 0.0000 10.3023
#
#
#
# Elastic Compliance Matrix: (Units=1/GPa)
#
#
# Indices 1 2 3 4 5 6 
#
# 1 0.010002 -0.000625 -0.006595 0.000000 0.000000 0.000000
# 2 -0.000625 0.020310 0.000706 0.000000 0.000000 0.000000
# 3 -0.006595 0.000706 0.011572 0.000000 0.000000 0.000000
# 4 0.000000 0.000000 0.000000 0.092334 0.000000 0.000000
# 5 0.000000 0.000000 0.000000 0.000000 0.175966 0.000000
# 6 0.000000 0.000000 0.000000 0.000000 0.000000 0.097065
#
#
# Mechanical properties :
#
#
# Convention : Reuss Voigt Hill
#
# Bulk Modulus (GPa) = 34.65483 58.89446 46.77465
# Shear Modulus (GPa) = 11.63074 22.50712 17.06893
#
# Velocity S-wave (km/s) = 2.41482 3.35923 2.92539
# Velocity P-wave (km/s) = 5.01499 6.67638 5.90441
#
# Compressibility (1/GPa) = 0.02885600
#
# Stress axis : x y z
#
# Youngs Moduli (GPa) = 99.98167 49.23793 86.41358
#
# Poissons Ratio (x) = 0.03076 0.56992
# Poissons Ratio (y) = 0.06246 -0.06102
# Poissons Ratio (z) = 0.65940 -0.03477
#
# Static dielectric constant tensor:
#      x y z
#    x 1.712320 0.000000 0.000000 
#    y 0.000000 1.785510 0.000000 
#    z 0.000000 0.000000 1.679380 
# 
# From -- ./inp_files/33025.got.cif
#   From: 2010.05.17/outbox.cif.g08.bks.cpg/sg67_17_cif.got.tgz:33025.got - 2010.06.03 18:28:57.
