data_PCOD9502801
_publ_section_title
;
Structure prediction by ZEFSAII (Michael W. Deem and Ramdas Pophale) SiO2 
 PCOD9502801
Probable space group: C M M A
;
_chemical_formula_sum "Si O2"
_cell_formula_units_Z 96
_cell_length_a 14.657461
_cell_length_b 19.613023
_cell_length_c 13.760500
_cell_angle_alpha 90.000000
_cell_angle_beta 90.000000
_cell_angle_gamma 90.000000
_cell_volume 3955.828906
_symmetry_space_group_name_H-M "C M M A"
_symmetry_group_IT_number 67
_symmetry_cell_setting 'orthorhombic'
loop_
_space_group_symop_operation_xyz
x,y,z
-x,1/2-y,z
x,-y,-z
-x,1/2+y,-z
-x,-y,-z
x,1/2+y,-z
-x,y,z
x,1/2-y,z
1/2+x,1/2+y,z
1/2-x,-y,z
1/2+x,1/2-y,-z
1/2-x,y,-z
1/2-x,1/2-y,-z
1/2+x,y,-z
1/2-x,1/2+y,z
1/2+x,-y,z
loop_
_atom_site_type_symbol
_atom_site_label
_atom_site_fract_x
_atom_site_fract_y
_atom_site_fract_z
Si Si1 0.393020 0.325649 0.797972
Si Si2 0.888459 0.673523 0.408840
Si Si3 0.605934 0.461863 0.318956
Si Si4 0.353851 0.529770 0.899010
Si Si5 0.142733 0.327007 0.985840
Si Si6 0.888140 0.599461 0.607394
O O1 0.500000 0.319167 0.776682
O O2 0.351263 0.250000 0.801478
O O3 0.355682 0.367510 0.708442
O O4 0.388842 0.352169 0.907769
O O5 0.853929 0.750000 0.391258
O O6 0.856817 0.613847 0.336011
O O7 0.862972 0.644838 0.515318
O O8 0.000000 0.677938 0.405420
O O9 0.500000 0.456302 0.346414
O O10 0.609493 0.486395 0.207555
O O11 0.644210 0.521534 0.386838
O O12 0.250000 0.500000 0.897321
O O13 0.368451 0.611560 0.910595
O O14 0.392812 0.500000 0.000000
O O15 0.106606 0.250000 0.965191
O O16 0.250000 0.320619 0.000000
O O17 0.000000 0.597530 0.606616
#
# Coordination Sequence:
#
# PCOD9502801 Si02
#       6
#    16  16  16  16  16  16
#     4   9  17  29  49  81 113 138 173 222 269 311
#     4   9  17  31  52  80 114 145 172 208 261 324
#     4  10  21  34  53  82 111 139 177 222 266 315
#     4  11  22  38  56  76 103 142 185 223 267 322
#     4  10  20  35  54  75 102 140 183 223 267 321
#     4   9  16  28  50  79 110 142 173 212 261 313
#
# _framework density 24.267984999999999
#
# number of rings (size 3 to 8) (size 9 to 14) (size 15 to 20)
#    0.000    2.333    1.667    2.000    0.000    5.667 
#    0.000    0.000    0.000    2.000    0.000    1.167 
#    0.000    0.000    0.000    0.000    0.000    0.000 
#
# Total GULP energy -267842.238472 kJ/mol
# GULP energy per Si atom -5580.046635 kJ/mol
# Density = 2.421275 g / cm^3
# Si number density = 24.267985 Si / 1000 Ang^3
#
#
#
# Elastic Constant Matrix: (Units=GPa)
#
#
# Indices 1 2 3 4 5 6 
#
# 1 56.7475 9.8816 -4.8714 0.0000 0.0000 0.0000
# 2 9.8816 115.5496 35.6528 0.0000 0.0000 0.0000
# 3 -4.8714 35.6528 70.0272 0.0000 0.0000 0.0000
# 4 0.0000 0.0000 0.0000 60.6637 0.0000 0.0000
# 5 0.0000 0.0000 0.0000 0.0000 49.7373 0.0000
# 6 0.0000 0.0000 0.0000 0.0000 0.0000 17.8933
#
#
#
# Elastic Compliance Matrix: (Units=1/GPa)
#
#
# Indices 1 2 3 4 5 6 
#
# 1 0.018235 -0.002314 0.002447 0.000000 0.000000 0.000000
# 2 -0.002314 0.010561 -0.005538 0.000000 0.000000 0.000000
# 3 0.002447 -0.005538 0.017270 0.000000 0.000000 0.000000
# 4 0.000000 0.000000 0.000000 0.016484 0.000000 0.000000
# 5 0.000000 0.000000 0.000000 0.000000 0.020106 0.000000
# 6 0.000000 0.000000 0.000000 0.000000 0.000000 0.055887
#
#
# Mechanical properties :
#
#
# Convention : Reuss Voigt Hill
#
# Bulk Modulus (GPa) = 28.36486 35.96114 32.16300
# Shear Modulus (GPa) = 31.03569 39.10297 35.06933
#
# Velocity S-wave (km/s) = 3.58001 4.01845 3.80555
# Velocity P-wave (km/s) = 5.36677 6.03168 5.70891
#
# Compressibility (1/GPa) = 0.03525489
#
# Stress axis : x y z
#
# Youngs Moduli (GPa) = 54.83972 94.68877 57.90438
#
# Poissons Ratio (x) = 0.21915 -0.14168
# Poissons Ratio (y) = 0.12692 0.32067
# Poissons Ratio (z) = -0.13418 0.52437
#
# Static dielectric constant tensor:
#      x y z
#    x 1.942130 0.000000 0.000000 
#    y 0.000000 2.017890 0.000000 
#    z 0.000000 0.000000 1.904750 
# 
# From -- ./inp_files/20874.got.cif
#   From: 2010.05.17/outbox.cif.g08.bks.cpg/sg67_11_cif.got.tgz:20874.got - 2010.06.03 18:28:57.
