data_PCOD9502740
_publ_section_title
;
Structure prediction by ZEFSAII (Michael W. Deem and Ramdas Pophale) SiO2 
 PCOD9502740
Probable space group: C M M A
;
_chemical_formula_sum "Si O2"
_cell_formula_units_Z 100
_cell_length_a 15.807246
_cell_length_b 18.052454
_cell_length_c 17.128176
_cell_angle_alpha 90.000000
_cell_angle_beta 90.000000
_cell_angle_gamma 90.000000
_cell_volume 4887.689131
_symmetry_space_group_name_H-M "C M M A"
_symmetry_group_IT_number 67
_symmetry_cell_setting 'orthorhombic'
loop_
_space_group_symop_operation_xyz
x,y,z
-x,1/2-y,z
x,-y,-z
-x,1/2+y,-z
-x,-y,-z
x,1/2+y,-z
-x,y,z
x,1/2-y,z
1/2+x,1/2+y,z
1/2-x,-y,z
1/2+x,1/2-y,-z
1/2-x,y,-z
1/2-x,1/2-y,-z
1/2+x,y,-z
1/2-x,1/2+y,z
1/2+x,-y,z
loop_
_atom_site_type_symbol
_atom_site_label
_atom_site_fract_x
_atom_site_fract_y
_atom_site_fract_z
Si Si1 0.402940 0.418596 0.993769
Si Si2 0.837096 0.665843 0.138902
Si Si3 0.500000 0.250000 0.338847
Si Si4 0.865327 0.167003 0.156759
Si Si5 0.365289 0.621300 0.694752
Si Si6 0.148364 0.514928 0.586729
Si Si7 0.332683 0.336374 0.667592
O O1 0.500000 0.423136 0.020064
O O2 0.400200 0.389863 0.905665
O O3 0.363973 0.500000 0.000000
O O4 0.358977 0.363440 0.053804
O O5 0.868727 0.750000 0.150002
O O6 0.736075 0.666744 0.146011
O O7 0.872746 0.617862 0.210854
O O8 0.426586 0.315034 0.335283
O O9 0.896088 0.250000 0.138555
O O10 0.877357 0.152796 0.248297
O O11 0.382478 0.544073 0.651029
O O12 0.365485 0.399888 0.610250
O O13 0.115128 0.500000 0.500000
O O14 0.250000 0.500000 0.584774
O O15 0.267766 0.646714 0.678968
O O16 0.342799 0.250000 0.644827
#
# Coordination Sequence:
#
# PCOD9502740 Si02
#       7
#    16  16   4  16  16  16  16
#     4  11  25  37  48  77 115 148 189 233 279 339
#     4  10  20  36  57  81 109 142 191 238 287 342
#     4  12  20  36  58  90 122 160 196 240 290 366
#     4   9  19  36  57  80 106 143 190 238 280 332
#     4  10  20  34  56  89 120 153 196 239 296 353
#     4   9  19  36  57  90 123 147 186 244 299 346
#     4   9  17  36  60  87 118 148 198 245 291 348
#
# _framework density 20.459565999999999
#
# number of rings (size 3 to 8) (size 9 to 14) (size 15 to 20)
#    0.000    2.240    1.600    1.920    3.360    3.840 
#    1.440    2.000    0.000    0.000    0.000    0.000 
#    0.000    0.000    0.000    0.000    0.000    0.000 
#
# Total GULP energy -278518.236823 kJ/mol
# GULP energy per Si atom -5570.364736 kJ/mol
# Density = 2.041300 g / cm^3
# Si number density = 20.459566 Si / 1000 Ang^3
#
#
#
# Elastic Constant Matrix: (Units=GPa)
#
#
# Indices 1 2 3 4 5 6 
#
# 1 24.5219 11.9834 12.5379 0.0000 0.0000 0.0000
# 2 11.9834 135.9847 78.6775 0.0000 0.0000 0.0000
# 3 12.5379 78.6775 100.9323 0.0000 0.0000 0.0000
# 4 0.0000 0.0000 0.0000 31.8718 0.0000 0.0000
# 5 0.0000 0.0000 0.0000 0.0000 -25.3754 0.0000
# 6 0.0000 0.0000 0.0000 0.0000 0.0000 -82.2431
#
#
#
# Elastic Compliance Matrix: (Units=1/GPa)
#
#
# Indices 1 2 3 4 5 6 
#
# 1 0.043670 -0.001293 -0.004417 0.000000 0.000000 0.000000
# 2 -0.001293 0.013433 -0.010311 0.000000 0.000000 0.000000
# 3 -0.004417 -0.010311 0.018494 0.000000 0.000000 0.000000
# 4 0.000000 0.000000 0.000000 0.031376 0.000000 0.000000
# 5 0.000000 0.000000 0.000000 0.000000 -0.039408 0.000000
# 6 0.000000 0.000000 0.000000 0.000000 0.000000 -0.012159
#
#
# Mechanical properties :
#
#
# Convention : Reuss Voigt Hill
#
# Bulk Modulus (GPa) = 22.95904 51.98184 37.47044
# Shear Modulus (GPa) = 49.03659 -4.60001 22.21829
#
# Velocity S-wave (km/s) = 4.90098 -1.50107 3.29897
# Velocity P-wave (km/s) = 6.57816 4.73898 5.73281
#
# Compressibility (1/GPa) = 0.04355583
#
# Stress axis : x y z
#
# Youngs Moduli (GPa) = 22.89904 74.44230 54.07280
#
# Poissons Ratio (x) = 0.09624 0.23884
# Poissons Ratio (y) = 0.02960 0.55753
# Poissons Ratio (z) = 0.10114 0.76755
#
# Static dielectric constant tensor:
#      x y z
#    x 1.742410 0.000000 0.000000 
#    y 0.000000 1.727320 0.000000 
#    z 0.000000 0.000000 1.723930 
# 
# From -- ./inp_files/35009.got.cif
#   From: 2010.05.17/outbox.cif.g08.bks.cpg/sg67_18_cif.got.tgz:35009.got - 2010.06.03 18:28:57.
