data_PCOD9502009
_publ_section_title
;
Structure prediction by ZEFSAII (Michael W. Deem and Ramdas Pophale) SiO2 
 PCOD9502009
Probable space group: C M M A
;
_chemical_formula_sum "Si O2"
_cell_formula_units_Z 64
_cell_length_a 22.111788
_cell_length_b 16.823017
_cell_length_c 7.414027
_cell_angle_alpha 90.000000
_cell_angle_beta 90.000000
_cell_angle_gamma 90.000000
_cell_volume 2757.921554
_symmetry_space_group_name_H-M "C M M A"
_symmetry_group_IT_number 67
_symmetry_cell_setting 'orthorhombic'
loop_
_space_group_symop_operation_xyz
x,y,z
-x,1/2-y,z
x,-y,-z
-x,1/2+y,-z
-x,-y,-z
x,1/2+y,-z
-x,y,z
x,1/2-y,z
1/2+x,1/2+y,z
1/2-x,-y,z
1/2+x,1/2-y,-z
1/2-x,y,-z
1/2-x,1/2-y,-z
1/2+x,y,-z
1/2-x,1/2+y,z
1/2+x,-y,z
loop_
_atom_site_type_symbol
_atom_site_label
_atom_site_fract_x
_atom_site_fract_y
_atom_site_fract_z
Si Si1 0.361378 0.594097 0.496600
Si Si2 0.000000 0.590123 0.581304
Si Si3 0.000000 0.349849 0.010762
Si Si4 0.119595 0.838630 0.150779
Si Si5 0.209397 0.340108 0.161280
O O1 0.363320 0.500000 0.500000
O O2 0.432029 0.622592 0.472293
O O3 0.341435 0.620503 0.695935
O O4 0.313658 0.622186 0.346272
O O5 0.000000 0.500000 0.500000
O O6 0.000000 0.607508 0.796395
O O7 0.000000 0.250000 0.029311
O O8 0.943843 0.377474 0.890800
O O9 0.109241 0.750000 0.219296
O O10 0.148246 0.833460 0.954547
O O11 0.233730 0.250000 0.193898
O O12 0.250000 0.378246 0.000000
#
# Coordination Sequence:
#
# PCOD9502009 Si02
#       5
#    16   8   8  16  16
#     4  11  23  40  61  94 131 170 211 262 332 404
#     4  10  21  38  58  94 133 170 206 251 334 404
#     4  10  19  36  64  94 127 170 220 274 324 384
#     4  10  21  38  62  91 122 162 214 269 326 388
#     4  10  22  42  66  90 121 167 221 274 325 380
#
# _framework density 23.205883
#
# number of rings (size 3 to 8) (size 9 to 14) (size 15 to 20)
#    0.000    1.750    2.500    1.500    0.000    3.000 
#    0.000   10.000    0.000    0.000    0.000    0.000 
#    0.000    0.000    0.000    0.000    0.000    0.000 
#
# Total GULP energy -178160.185591 kJ/mol
# GULP energy per Si atom -5567.505800 kJ/mol
# Density = 2.315307 g / cm^3
# Si number density = 23.205883 Si / 1000 Ang^3
#
#
#
# Elastic Constant Matrix: (Units=GPa)
#
#
# Indices 1 2 3 4 5 6 
#
# 1 60.3633 -6.7496 8.4196 0.0000 0.0000 0.0000
# 2 -6.7496 39.7208 44.4591 0.0000 0.0000 0.0000
# 3 8.4196 44.4591 173.4594 0.0000 0.0000 0.0000
# 4 0.0000 0.0000 0.0000 -2.9165 0.0000 0.0000
# 5 0.0000 0.0000 0.0000 0.0000 51.4001 0.0000
# 6 0.0000 0.0000 0.0000 0.0000 0.0000 37.2846
#
#
#
# Elastic Compliance Matrix: (Units=1/GPa)
#
#
# Indices 1 2 3 4 5 6 
#
# 1 0.017497 0.005502 -0.002260 0.000000 0.000000 0.000000
# 2 0.005502 0.037034 -0.009759 0.000000 0.000000 0.000000
# 3 -0.002260 -0.009759 0.008376 0.000000 0.000000 0.000000
# 4 0.000000 0.000000 0.000000 -0.342877 0.000000 0.000000
# 5 0.000000 0.000000 0.000000 0.000000 0.019455 0.000000
# 6 0.000000 0.000000 0.000000 0.000000 0.000000 0.026821
#
#
# Mechanical properties :
#
#
# Convention : Reuss Voigt Hill
#
# Bulk Modulus (GPa) = 20.05056 40.64465 30.34761
# Shear Modulus (GPa) = -24.50545 32.31459 3.90457
#
# Velocity S-wave (km/s) = -3.25314 3.73569 1.29855
# Velocity P-wave (km/s) = 2.33485 6.01332 3.91845
#
# Compressibility (1/GPa) = 0.04987391
#
# Stress axis : x y z
#
# Youngs Moduli (GPa) = 57.15339 27.00209 119.38736
#
# Poissons Ratio (x) = -0.14857 0.26976
# Poissons Ratio (y) = -0.31447 1.16513
# Poissons Ratio (z) = 0.12914 0.26352
#
# Static dielectric constant tensor:
#      x y z
#    x 2.044880 0.000000 0.000000 
#    y 0.000000 1.771960 0.000000 
#    z 0.000000 0.000000 1.877920 
# 
# From -- ./inp_files/4033.got.cif
#   From: 2010.05.17/outbox.cif.g08.bks.cpg/sg67_3_cif.got.tgz:4033.got - 2010.06.03 18:28:57.
