data_PCOD9502076
_publ_section_title
;
Structure prediction by ZEFSAII (Michael W. Deem and Ramdas Pophale) SiO2 
 PCOD9502076
Probable space group: C M M A
;
_chemical_formula_sum "Si O2"
_cell_formula_units_Z 76
_cell_length_a 22.853573
_cell_length_b 30.075922
_cell_length_c 6.477503
_cell_angle_alpha 90.000000
_cell_angle_beta 90.000000
_cell_angle_gamma 90.000000
_cell_volume 4452.261674
_symmetry_space_group_name_H-M "C M M A"
_symmetry_group_IT_number 67
_symmetry_cell_setting 'orthorhombic'
loop_
_space_group_symop_operation_xyz
x,y,z
-x,1/2-y,z
x,-y,-z
-x,1/2+y,-z
-x,-y,-z
x,1/2+y,-z
-x,y,z
x,1/2-y,z
1/2+x,1/2+y,z
1/2-x,-y,z
1/2+x,1/2-y,-z
1/2-x,y,-z
1/2-x,1/2-y,-z
1/2+x,y,-z
1/2-x,1/2+y,z
1/2+x,-y,z
loop_
_atom_site_type_symbol
_atom_site_label
_atom_site_fract_x
_atom_site_fract_y
_atom_site_fract_z
Si Si1 0.848991 0.363706 0.701825
Si Si2 0.250000 0.000000 0.000000
Si Si3 0.569449 0.301453 0.035122
Si Si4 0.810050 0.544209 0.379200
Si Si5 0.250000 0.166432 0.000000
Si Si6 0.340224 0.700400 0.321917
O O1 0.854248 0.414904 0.635864
O O2 0.833712 0.335388 0.499796
O O3 0.901903 0.337542 0.812410
O O4 0.795403 0.361547 0.864025
O O5 0.210205 0.029050 0.847501
O O6 0.500000 0.306487 0.021546
O O7 0.582093 0.250000 0.101349
O O8 0.601092 0.306509 0.813434
O O9 0.830987 0.500000 0.500000
O O10 0.750000 0.558160 0.500000
O O11 0.211894 0.195310 0.157576
O O12 0.340377 0.750000 0.410125
#
# Coordination Sequence:
#
# PCOD9502076 Si02
#       6
#    16   4  16  16   8  16
#     4  11  20  32  52  76 102 133 167 208 256 300
#     4   8  16  32  52  68 100 140 162 198 246 288
#     4   9  20  37  53  72  98 132 179 221 250 293
#     4   9  18  30  47  74 103 132 167 202 245 306
#     4  10  20  30  46  72 104 134 166 200 240 308
#     4  10  20  32  48  71 101 135 165 201 251 303
#
# _framework density 17.069976
#
# number of rings (size 3 to 8) (size 9 to 14) (size 15 to 20)
#    0.000    2.526    0.000    3.474    0.000    9.263 
#    0.000    2.105    0.000    0.632    0.000    2.211 
#    0.000    0.000    0.000    0.000    0.000    0.000 
#
# Total GULP energy -211878.040465 kJ/mol
# GULP energy per Si atom -5575.737907 kJ/mol
# Density = 1.703112 g / cm^3
# Si number density = 17.069976 Si / 1000 Ang^3
#
#
#
# Elastic Constant Matrix: (Units=GPa)
#
#
# Indices 1 2 3 4 5 6 
#
# 1 71.3500 29.3357 19.0559 0.0000 0.0000 0.0000
# 2 29.3357 135.0521 46.5645 0.0000 0.0000 0.0000
# 3 19.0559 46.5645 87.1578 0.0000 0.0000 0.0000
# 4 0.0000 0.0000 0.0000 1.3574 0.0000 0.0000
# 5 0.0000 0.0000 0.0000 0.0000 6.1795 0.0000
# 6 0.0000 0.0000 0.0000 0.0000 0.0000 18.1159
#
#
#
# Elastic Compliance Matrix: (Units=1/GPa)
#
#
# Indices 1 2 3 4 5 6 
#
# 1 0.015661 -0.002723 -0.001969 0.000000 0.000000 0.000000
# 2 -0.002723 0.009550 -0.004507 0.000000 0.000000 0.000000
# 3 -0.001969 -0.004507 0.014312 0.000000 0.000000 0.000000
# 4 0.000000 0.000000 0.000000 0.736680 0.000000 0.000000
# 5 0.000000 0.000000 0.000000 0.000000 0.161825 0.000000
# 6 0.000000 0.000000 0.000000 0.000000 0.000000 0.055200
#
#
# Mechanical properties :
#
#
# Convention : Reuss Voigt Hill
#
# Bulk Modulus (GPa) = 47.33807 53.71913 50.52860
# Shear Modulus (GPa) = 4.90838 18.37082 11.63960
#
# Velocity S-wave (km/s) = 1.69755 3.28412 2.61411
# Velocity P-wave (km/s) = 5.62443 6.77634 6.22708
#
# Compressibility (1/GPa) = 0.02112465
#
# Stress axis : x y z
#
# Youngs Moduli (GPa) = 63.85340 104.71341 69.87252
#
# Poissons Ratio (x) = 0.28511 0.13761
# Poissons Ratio (y) = 0.17386 0.31490
# Poissons Ratio (z) = 0.12575 0.47192
#
# Static dielectric constant tensor:
#      x y z
#    x 1.564400 0.000000 0.000000 
#    y 0.000000 1.600050 0.000000 
#    z 0.000000 0.000000 1.584590 
# 
# From -- ./inp_files/3564.got.cif
#   From: 2010.05.17/outbox.cif.g08.bks.cpg/sg67_2_cif.got.tgz:3564.got - 2010.06.03 18:28:57.
