data_PCOD9503384
_publ_section_title
;
Structure prediction by ZEFSAII (Michael W. Deem and Ramdas Pophale) SiO2 
 PCOD9503384
Probable space group: C M M A
;
_chemical_formula_sum "Si O2"
_cell_formula_units_Z 116
_cell_length_a 8.050857
_cell_length_b 31.735791
_cell_length_c 24.004280
_cell_angle_alpha 90.000000
_cell_angle_beta 90.000000
_cell_angle_gamma 90.000000
_cell_volume 6133.101104
_symmetry_space_group_name_H-M "C M M A"
_symmetry_group_IT_number 67
_symmetry_cell_setting 'orthorhombic'
loop_
_space_group_symop_operation_xyz
x,y,z
-x,1/2-y,z
x,-y,-z
-x,1/2+y,-z
-x,-y,-z
x,1/2+y,-z
-x,y,z
x,1/2-y,z
1/2+x,1/2+y,z
1/2-x,-y,z
1/2+x,1/2-y,-z
1/2-x,y,-z
1/2-x,1/2-y,-z
1/2+x,y,-z
1/2-x,1/2+y,z
1/2+x,-y,z
loop_
_atom_site_type_symbol
_atom_site_label
_atom_site_fract_x
_atom_site_fract_y
_atom_site_fract_z
Si Si1 0.700770 0.546695 0.228769
Si Si2 0.804863 0.797546 0.620967
Si Si3 0.000000 0.250000 0.915985
Si Si4 0.692331 0.881634 0.563377
Si Si5 0.196458 0.297404 0.746063
Si Si6 0.805417 0.454321 0.354938
Si Si7 0.702038 0.818819 0.063658
Si Si8 0.697316 0.130137 0.829917
O O1 0.500000 0.548280 0.229247
O O2 0.750000 0.500000 0.210190
O O3 0.765602 0.552306 0.292502
O O4 0.762272 0.585153 0.190893
O O5 0.739903 0.750000 0.610625
O O6 0.723208 0.834639 0.586156
O O7 0.782208 0.805978 0.686867
O O8 0.000000 0.797883 0.608150
O O9 0.152559 0.285936 0.918069
O O10 0.500000 0.891011 0.565199
O O11 0.750000 0.885070 0.500000
O O12 0.773336 0.915721 0.604223
O O13 0.245349 0.250000 0.764875
O O14 0.233812 0.332296 0.791591
O O15 0.000000 0.296928 0.735553
O O16 0.750000 0.500000 0.376834
O O17 0.000000 0.457501 0.347239
O O18 0.500000 0.805906 0.065781
O O19 0.721129 0.857583 0.106044
O O20 0.750000 0.828169 0.000000
O O21 0.500000 0.130410 0.819935
#
# Coordination Sequence:
#
# PCOD9503384 Si02
#       8
#    16  16   4  16  16  16  16  16
#     4   9  19  37  60  87 114 146 185 232 287 346
#     4  10  21  39  60  80 109 147 188 233 285 339
#     4  12  24  40  62  82 124 160 222 244 300 342
#     4  12  25  40  59  83 111 145 189 233 284 340
#     4  10  21  34  53  82 115 149 188 231 282 343
#     4  10  20  37  62  89 119 149 183 225 280 343
#     4  11  24  39  59  86 119 166 208 254 298 349
#     4  10  22  37  55  82 119 154 192 243 293 346
#
# _framework density 18.913761000000001
#
# number of rings (size 3 to 8) (size 9 to 14) (size 15 to 20)
#    0.000    1.655    0.690    3.724    1.931    4.414 
#    0.000    1.379    0.000    0.414    0.000    2.897 
#    0.000    0.000    0.000    0.000    0.000    0.000 
#
# Total GULP energy -323029.899715 kJ/mol
# GULP energy per Si atom -5569.481030 kJ/mol
# Density = 1.887071 g / cm^3
# Si number density = 18.913761 Si / 1000 Ang^3
#
#
#
# Elastic Constant Matrix: (Units=GPa)
#
#
# Indices 1 2 3 4 5 6 
#
# 1 55.1392 16.2583 15.2998 0.0000 0.0000 0.0000
# 2 16.2583 117.4075 66.1006 0.0000 0.0000 0.0000
# 3 15.2998 66.1006 52.4939 0.0000 0.0000 0.0000
# 4 0.0000 0.0000 0.0000 223.0975 0.0000 0.0000
# 5 0.0000 0.0000 0.0000 0.0000 20.5967 0.0000
# 6 0.0000 0.0000 0.0000 0.0000 0.0000 30.7042
#
#
#
# Elastic Compliance Matrix: (Units=1/GPa)
#
#
# Indices 1 2 3 4 5 6 
#
# 1 0.019835 0.001746 -0.007979 0.000000 0.000000 0.000000
# 2 0.001746 0.029416 -0.037550 0.000000 0.000000 0.000000
# 3 -0.007979 -0.037550 0.068658 0.000000 0.000000 0.000000
# 4 0.000000 0.000000 0.000000 0.004482 0.000000 0.000000
# 5 0.000000 0.000000 0.000000 0.000000 0.048551 0.000000
# 6 0.000000 0.000000 0.000000 0.000000 0.000000 0.032569
#
#
# Mechanical properties :
#
#
# Convention : Reuss Voigt Hill
#
# Bulk Modulus (GPa) = 32.95658 46.70645 39.83151
# Shear Modulus (GPa) = 16.60067 63.37182 39.98625
#
# Velocity S-wave (km/s) = 2.96582 5.79469 4.60296
# Velocity P-wave (km/s) = 5.40283 8.33782 7.02531
#
# Compressibility (1/GPa) = 0.03034296
#
# Stress axis : x y z
#
# Youngs Moduli (GPa) = 50.41530 33.99501 14.56494
#
# Poissons Ratio (x) = -0.05934 0.11622
# Poissons Ratio (y) = -0.08800 0.54691
# Poissons Ratio (z) = 0.40227 1.27650
#
# Static dielectric constant tensor:
#      x y z
#    x 1.728140 0.000000 0.000000 
#    y 0.000000 1.662710 0.000000 
#    z 0.000000 0.000000 1.626410 
# 
# From -- ./inp_files/41244.got.cif
#   From: 2010.05.17/outbox.cif.g08.bks.cpg/sg67_21_cif.got.tgz:41244.got - 2010.06.03 18:28:57.
