data_PCOD9503361
_publ_section_title
;
Structure prediction by ZEFSAII (Michael W. Deem and Ramdas Pophale) SiO2 
 PCOD9503361
Probable space group: C M M A
;
_chemical_formula_sum "Si O2"
_cell_formula_units_Z 72
_cell_length_a 8.572352
_cell_length_b 15.714969
_cell_length_c 28.840448
_cell_angle_alpha 90.000000
_cell_angle_beta 90.000000
_cell_angle_gamma 90.000000
_cell_volume 3885.219205
_symmetry_space_group_name_H-M "C M M A"
_symmetry_group_IT_number 67
_symmetry_cell_setting 'orthorhombic'
loop_
_space_group_symop_operation_xyz
x,y,z
-x,1/2-y,z
x,-y,-z
-x,1/2+y,-z
-x,-y,-z
x,1/2+y,-z
-x,y,z
x,1/2-y,z
1/2+x,1/2+y,z
1/2-x,-y,z
1/2+x,1/2-y,-z
1/2-x,y,-z
1/2-x,1/2-y,-z
1/2+x,y,-z
1/2-x,1/2+y,z
1/2+x,-y,z
loop_
_atom_site_type_symbol
_atom_site_label
_atom_site_fract_x
_atom_site_fract_y
_atom_site_fract_z
Si Si1 0.309618 0.750000 0.718635
Si Si2 0.185870 0.750000 0.947938
Si Si3 0.311961 0.250000 0.388706
Si Si4 0.687983 0.407214 0.218993
Si Si5 0.313158 0.906897 0.448009
Si Si6 0.187432 0.093722 0.888297
O O1 0.500000 0.750000 0.719511
O O2 0.263073 0.750000 0.665110
O O3 0.257574 0.833473 0.746607
O O4 0.245911 0.833146 0.920818
O O5 0.000000 0.750000 0.948778
O O6 0.250000 0.750000 0.000000
O O7 0.500000 0.250000 0.391113
O O8 0.247845 0.166750 0.414555
O O9 0.500000 0.409085 0.220055
O O10 0.750000 0.500000 0.231929
O O11 0.733589 0.389806 0.165494
O O12 0.500000 0.908115 0.449042
O O13 0.250000 0.890527 0.500000
O O14 0.250000 0.000000 0.434085
O O15 0.000000 0.094140 0.890835
O O16 0.250000 0.000000 0.900627
#
# Coordination Sequence:
#
# PCOD9503361 Si02
#       6
#     8   8   8  16  16  16
#     4   9  19  35  55  79 112 152 187 222 272 329
#     4  12  25  40  58  83 115 150 189 230 281 337
#     4  11  22  37  56  82 117 154 189 228 277 332
#     4   9  18  35  58  83 110 144 185 229 275 325
#     4  11  22  39  61  85 111 143 186 233 282 334
#     4  10  20  37  61  87 115 147 187 233 281 331
#
# _framework density 18.531773999999999
#
# number of rings (size 3 to 8) (size 9 to 14) (size 15 to 20)
#    0.000    1.778    0.000    5.667    0.000    4.000 
#    0.000    7.222    0.000    0.000    0.000    0.000 
#    0.000    0.000    0.000    0.000    0.000    0.000 
#
# Total GULP energy -201180.461673 kJ/mol
# GULP energy per Si atom -5588.346158 kJ/mol
# Density = 1.848959 g / cm^3
# Si number density = 18.531774 Si / 1000 Ang^3
#
#
#
# Elastic Constant Matrix: (Units=GPa)
#
#
# Indices 1 2 3 4 5 6 
#
# 1 99.1845 64.3009 54.8636 0.0000 0.0000 0.0000
# 2 64.3009 206.2953 150.9146 0.0000 0.0000 0.0000
# 3 54.8636 150.9146 146.0377 0.0000 0.0000 0.0000
# 4 0.0000 0.0000 0.0000 -20.6883 0.0000 0.0000
# 5 0.0000 0.0000 0.0000 0.0000 20.0697 0.0000
# 6 0.0000 0.0000 0.0000 0.0000 0.0000 35.7833
#
#
#
# Elastic Compliance Matrix: (Units=1/GPa)
#
#
# Indices 1 2 3 4 5 6 
#
# 1 0.012916 -0.001951 -0.002836 0.000000 0.000000 0.000000
# 2 -0.001951 0.020159 -0.020099 0.000000 0.000000 0.000000
# 3 -0.002836 -0.020099 0.028684 0.000000 0.000000 0.000000
# 4 0.000000 0.000000 0.000000 -0.048336 0.000000 0.000000
# 5 0.000000 0.000000 0.000000 0.000000 0.049826 0.000000
# 6 0.000000 0.000000 0.000000 0.000000 0.000000 0.027946
#
#
# Mechanical properties :
#
#
# Convention : Reuss Voigt Hill
#
# Bulk Modulus (GPa) = 83.43312 110.18620 96.80966
# Shear Modulus (GPa) = 34.49154 19.12882 26.81018
#
# Velocity S-wave (km/s) = 4.31886 3.21630 3.80770
# Velocity P-wave (km/s) = 8.36597 8.56620 8.46668
#
# Compressibility (1/GPa) = 0.01198565
#
# Stress axis : x y z
#
# Youngs Moduli (GPa) = 77.42439 49.60482 34.86310
#
# Poissons Ratio (x) = 0.09679 0.09887
# Poissons Ratio (y) = 0.15107 0.70073
# Poissons Ratio (z) = 0.21956 0.99703
#
# Static dielectric constant tensor:
#      x y z
#    x 1.624450 0.000000 0.000000 
#    y 0.000000 1.606360 0.000000 
#    z 0.000000 0.000000 1.618890 
# 
# From -- ./inp_files/43124.got.cif
#   From: 2010.05.17/outbox.cif.g08.bks.cpg/sg67_22_cif.got.tgz:43124.got - 2010.06.03 18:28:57.
