data_PCOD9503939
_publ_section_title
;
Structure prediction by ZEFSAII (Michael W. Deem and Ramdas Pophale) SiO2 
 PCOD9503939
Probable space group: C M M A
;
_chemical_formula_sum "Si O2"
_cell_formula_units_Z 112
_cell_length_a 15.637940
_cell_length_b 14.659605
_cell_length_c 24.317289
_cell_angle_alpha 90.000000
_cell_angle_beta 90.000000
_cell_angle_gamma 90.000000
_cell_volume 5574.641803
_symmetry_space_group_name_H-M "C M M A"
_symmetry_group_IT_number 67
_symmetry_cell_setting 'orthorhombic'
loop_
_space_group_symop_operation_xyz
x,y,z
-x,1/2-y,z
x,-y,-z
-x,1/2+y,-z
-x,-y,-z
x,1/2+y,-z
-x,y,z
x,1/2-y,z
1/2+x,1/2+y,z
1/2-x,-y,z
1/2+x,1/2-y,-z
1/2-x,y,-z
1/2-x,1/2-y,-z
1/2+x,y,-z
1/2-x,1/2+y,z
1/2+x,-y,z
loop_
_atom_site_type_symbol
_atom_site_label
_atom_site_fract_x
_atom_site_fract_y
_atom_site_fract_z
Si Si1 0.652331 0.148859 0.338953
Si Si2 0.093122 0.957837 0.633064
Si Si3 0.901746 0.474286 0.061480
Si Si4 0.207328 0.141169 0.148132
Si Si5 0.185004 0.640980 0.731891
Si Si6 0.093158 0.143991 0.860161
Si Si7 0.215160 0.352114 0.439316
O O1 0.615790 0.250000 0.329200
O O2 0.717848 0.125418 0.289370
O O3 0.710483 0.153193 0.393810
O O4 0.593589 0.063427 0.350533
O O5 0.126669 0.905242 0.686562
O O6 0.154716 0.931357 0.583079
O O7 0.000000 0.925806 0.618035
O O8 0.835885 0.412972 0.097465
O O9 0.909341 0.571058 0.091598
O O10 0.000000 0.435261 0.059732
O O11 0.873288 0.500000 0.000000
O O12 0.193920 0.250000 0.140130
O O13 0.166396 0.110561 0.206117
O O14 0.309230 0.129263 0.160331
O O15 0.173797 0.750000 0.730030
O O16 0.092930 0.250000 0.877388
O O17 0.000000 0.131535 0.829436
O O18 0.174107 0.250000 0.438833
O O19 0.250000 0.368366 0.500000
#
# Coordination Sequence:
#
# PCOD9503939 Si02
#       7
#    16  16  16  16  16  16  16
#     4   9  19  36  55  76 109 154 195 228 273 337
#     4  11  22  34  55  87 118 149 187 240 302 354
#     4  10  22  38  55  79 113 152 193 237 285 342
#     4  10  21  37  60  88 115 149 194 243 299 361
#     4   9  19  37  59  82 110 145 187 236 289 351
#     4   9  19  36  56  79 108 141 180 228 279 333
#     4   9  18  35  59  82 107 146 193 237 282 339
#
# _framework density 20.090978
#
# number of rings (size 3 to 8) (size 9 to 14) (size 15 to 20)
#    0.000    2.429    0.000    3.429    0.000    7.429 
#    0.000    7.857    0.000    5.143    0.000    0.000 
#    0.000    0.000    0.000    0.000    0.000    0.000 
#
# Total GULP energy -311771.300471 kJ/mol
# GULP energy per Si atom -5567.344651 kJ/mol
# Density = 2.004525 g / cm^3
# Si number density = 20.090978 Si / 1000 Ang^3
#
#
#
# Elastic Constant Matrix: (Units=GPa)
#
#
# Indices 1 2 3 4 5 6 
#
# 1 78.7583 24.5952 26.3853 0.0000 0.0000 0.0000
# 2 24.5952 47.7171 20.0609 0.0000 0.0000 0.0000
# 3 26.3853 20.0609 113.2329 0.0000 0.0000 0.0000
# 4 0.0000 0.0000 0.0000 19.2074 0.0000 0.0000
# 5 0.0000 0.0000 0.0000 0.0000 3.2335 0.0000
# 6 0.0000 0.0000 0.0000 0.0000 0.0000 252.4112
#
#
#
# Elastic Compliance Matrix: (Units=1/GPa)
#
#
# Indices 1 2 3 4 5 6 
#
# 1 0.015717 -0.007090 -0.002406 0.000000 0.000000 0.000000
# 2 -0.007090 0.025841 -0.002926 0.000000 0.000000 0.000000
# 3 -0.002406 -0.002926 0.009910 0.000000 0.000000 0.000000
# 4 0.000000 0.000000 0.000000 0.052063 0.000000 0.000000
# 5 0.000000 0.000000 0.000000 0.000000 0.309264 0.000000
# 6 0.000000 0.000000 0.000000 0.000000 0.000000 0.003962
#
#
# Mechanical properties :
#
#
# Convention : Reuss Voigt Hill
#
# Bulk Modulus (GPa) = 37.55900 42.42122 39.99011
# Shear Modulus (GPa) = 11.09934 66.21487 38.65710
#
# Velocity S-wave (km/s) = 2.35298 5.74709 4.39122
# Velocity P-wave (km/s) = 5.11049 8.07460 6.75708
#
# Compressibility (1/GPa) = 0.02662478
#
# Stress axis : x y z
#
# Youngs Moduli (GPa) = 63.62438 38.69773 100.90319
#
# Poissons Ratio (x) = 0.27435 0.24281
# Poissons Ratio (y) = 0.45107 0.29526
# Poissons Ratio (z) = 0.15310 0.11324
#
# Static dielectric constant tensor:
#      x y z
#    x 1.800840 0.000000 0.000000 
#    y 0.000000 1.733000 0.000000 
#    z 0.000000 0.000000 1.678630 
# 
# From -- ./inp_files/41979.got.cif
#   From: 2010.05.17/outbox.cif.g08.bks.cpg/sg67_21_cif.got.tgz:41979.got - 2010.06.03 18:28:57.
