data_PCOD9503499
_publ_section_title
;
Structure prediction by ZEFSAII (Michael W. Deem and Ramdas Pophale) SiO2 
 PCOD9503499
Probable space group: C M M A
;
_chemical_formula_sum "Si O2"
_cell_formula_units_Z 64
_cell_length_a 16.715135
_cell_length_b 16.569798
_cell_length_c 11.550186
_cell_angle_alpha 90.000000
_cell_angle_beta 90.000000
_cell_angle_gamma 90.000000
_cell_volume 3199.013557
_symmetry_space_group_name_H-M "C M M A"
_symmetry_group_IT_number 67
_symmetry_cell_setting 'orthorhombic'
loop_
_space_group_symop_operation_xyz
x,y,z
-x,1/2-y,z
x,-y,-z
-x,1/2+y,-z
-x,-y,-z
x,1/2+y,-z
-x,y,z
x,1/2-y,z
1/2+x,1/2+y,z
1/2-x,-y,z
1/2+x,1/2-y,-z
1/2-x,y,-z
1/2-x,1/2-y,-z
1/2+x,y,-z
1/2-x,1/2+y,z
1/2+x,-y,z
loop_
_atom_site_type_symbol
_atom_site_label
_atom_site_fract_x
_atom_site_fract_y
_atom_site_fract_z
Si Si1 0.861799 0.909944 0.452387
Si Si2 0.207263 0.344006 0.334096
Si Si3 0.828781 0.847162 0.928538
Si Si4 0.000000 0.405680 0.974584
Si Si5 0.000000 0.846937 0.288620
O O1 0.859530 0.854287 0.567161
O O2 0.778574 0.898514 0.383730
O O3 0.925662 0.879362 0.361408
O O4 0.873987 0.000000 0.500000
O O5 0.233100 0.250000 0.330246
O O6 0.181297 0.369385 0.206430
O O7 0.827321 0.750000 0.935230
O O8 0.750000 0.876373 0.000000
O O9 0.915768 0.873247 0.974120
O O10 0.000000 0.382990 0.839674
O O11 0.000000 0.500000 0.000000
O O12 0.000000 0.750000 0.281289
#
# Coordination Sequence:
#
# PCOD9503499 Si02
#       5
#    16  16  16   8   8
#     4  11  23  39  63  96 132 168 218 279 340 399
#     4  10  20  38  65  93 128 170 220 270 331 415
#     4  10  22  43  70  97 131 182 235 282 343 416
#     4  12  28  44  66 102 144 177 230 294 353 422
#     4  12  25  44  68  91 131 183 230 275 346 429
#
# _framework density 20.006167000000001
#
# number of rings (size 3 to 8) (size 9 to 14) (size 15 to 20)
#    0.000    1.250    0.000    7.500    3.500    3.500 
#    4.500    1.250    0.000    0.000    0.000    0.000 
#    0.000    0.000    0.000    0.000    0.000    0.000 
#
# Total GULP energy -178696.585748 kJ/mol
# GULP energy per Si atom -5584.268305 kJ/mol
# Density = 1.996063 g / cm^3
# Si number density = 20.006167 Si / 1000 Ang^3
#
#
#
# Elastic Constant Matrix: (Units=GPa)
#
#
# Indices 1 2 3 4 5 6 
#
# 1 134.3828 36.6164 110.4131 0.0000 0.0000 0.0000
# 2 36.6164 102.3446 64.0809 0.0000 0.0000 0.0000
# 3 110.4131 64.0809 237.8847 0.0000 0.0000 0.0000
# 4 0.0000 0.0000 0.0000 25.9662 0.0000 0.0000
# 5 0.0000 0.0000 0.0000 0.0000 21.7491 0.0000
# 6 0.0000 0.0000 0.0000 0.0000 0.0000 68.3474
#
#
#
# Elastic Compliance Matrix: (Units=1/GPa)
#
#
# Indices 1 2 3 4 5 6 
#
# 1 0.012110 -0.000978 -0.005357 0.000000 0.000000 0.000000
# 2 -0.000978 0.011832 -0.002733 0.000000 0.000000 0.000000
# 3 -0.005357 -0.002733 0.007426 0.000000 0.000000 0.000000
# 4 0.000000 0.000000 0.000000 0.038512 0.000000 0.000000
# 5 0.000000 0.000000 0.000000 0.000000 0.045979 0.000000
# 6 0.000000 0.000000 0.000000 0.000000 0.000000 0.014631
#
#
# Mechanical properties :
#
#
# Convention : Reuss Voigt Hill
#
# Bulk Modulus (GPa) = 75.57999 99.64810 87.61405
# Shear Modulus (GPa) = 32.67172 40.77931 36.72552
#
# Velocity S-wave (km/s) = 4.04553 4.51969 4.28917
# Velocity P-wave (km/s) = 7.72542 8.78372 8.27151
#
# Compressibility (1/GPa) = 0.01323102
#
# Stress axis : x y z
#
# Youngs Moduli (GPa) = 82.57976 84.51431 134.65381
#
# Poissons Ratio (x) = 0.08268 0.72135
# Poissons Ratio (y) = 0.08079 0.36805
# Poissons Ratio (z) = 0.44238 0.23100
#
# Static dielectric constant tensor:
#      x y z
#    x 1.839940 0.000000 0.000000 
#    y 0.000000 1.714510 0.000000 
#    z 0.000000 0.000000 1.689000 
# 
# From -- ./inp_files/19000.got.cif
#   From: 2010.05.17/outbox.cif.g08.bks.cpg/sg67_10_cif.got.tgz:19000.got - 2010.06.03 18:28:57.
