data_PCOD9503208
_publ_section_title
;
Structure prediction by ZEFSAII (Michael W. Deem and Ramdas Pophale) SiO2 
 PCOD9503208
Probable space group: C M M A
;
_chemical_formula_sum "Si O2"
_cell_formula_units_Z 80
_cell_length_a 23.832097
_cell_length_b 15.265154
_cell_length_c 10.960272
_cell_angle_alpha 90.000000
_cell_angle_beta 90.000000
_cell_angle_gamma 90.000000
_cell_volume 3987.353868
_symmetry_space_group_name_H-M "C M M A"
_symmetry_group_IT_number 67
_symmetry_cell_setting 'orthorhombic'
loop_
_space_group_symop_operation_xyz
x,y,z
-x,1/2-y,z
x,-y,-z
-x,1/2+y,-z
-x,-y,-z
x,1/2+y,-z
-x,y,z
x,1/2-y,z
1/2+x,1/2+y,z
1/2-x,-y,z
1/2+x,1/2-y,-z
1/2-x,y,-z
1/2-x,1/2-y,-z
1/2+x,y,-z
1/2-x,1/2+y,z
1/2+x,-y,z
loop_
_atom_site_type_symbol
_atom_site_label
_atom_site_fract_x
_atom_site_fract_y
_atom_site_fract_z
Si Si1 0.671517 0.408468 0.561486
Si Si2 0.566776 0.150887 0.934797
Si Si3 0.934421 0.532902 0.701596
Si Si4 0.888738 0.144921 0.794178
Si Si5 0.723122 0.847846 0.680048
O O1 0.683964 0.500000 0.500000
O O2 0.608480 0.418044 0.610115
O O3 0.689467 0.345597 0.450339
O O4 0.718115 0.396074 0.665088
O O5 0.500000 0.149454 0.957429
O O6 0.581367 0.250000 0.892115
O O7 0.577454 0.078805 0.832039
O O8 0.594984 0.135394 0.064910
O O9 0.921785 0.428789 0.715827
O O10 0.000000 0.545731 0.671035
O O11 0.896626 0.250000 0.763079
O O12 0.823866 0.120273 0.772664
O O13 0.738313 0.750000 0.714839
#
# Coordination Sequence:
#
# PCOD9503208 Si02
#       5
#    16  16  16  16  16
#     4  11  21  37  59  82 115 151 194 241 292 346
#     4   9  19  37  59  83 118 160 198 240 293 353
#     4  11  23  37  59  87 119 158 197 238 293 351
#     4  10  20  36  59  89 118 151 198 242 285 348
#     4  10  21  38  62  86 111 151 197 243 299 349
#
# _framework density 20.063431999999999
#
# number of rings (size 3 to 8) (size 9 to 14) (size 15 to 20)
#    0.000    1.800    2.000    3.600    0.000    4.800 
#    0.000    1.000    0.000    6.000    0.000    0.000 
#    0.000    0.000    0.000    0.000    0.000    0.000 
#
# Total GULP energy -222841.632271 kJ/mol
# GULP energy per Si atom -5571.040807 kJ/mol
# Density = 2.001777 g / cm^3
# Si number density = 20.063432 Si / 1000 Ang^3
#
#
#
# Elastic Constant Matrix: (Units=GPa)
#
#
# Indices 1 2 3 4 5 6 
#
# 1 114.9757 32.4280 24.7072 0.0000 0.0000 0.0000
# 2 32.4280 60.8724 6.7417 0.0000 0.0000 0.0000
# 3 24.7072 6.7417 28.4307 0.0000 0.0000 0.0000
# 4 0.0000 0.0000 0.0000 -1.3399 0.0000 0.0000
# 5 0.0000 0.0000 0.0000 0.0000 159.2232 0.0000
# 6 0.0000 0.0000 0.0000 0.0000 0.0000 25.7035
#
#
#
# Elastic Compliance Matrix: (Units=1/GPa)
#
#
# Indices 1 2 3 4 5 6 
#
# 1 0.012256 -0.005494 -0.009348 0.000000 0.000000 0.000000
# 2 -0.005494 0.019333 0.000190 0.000000 0.000000 0.000000
# 3 -0.009348 0.000190 0.043252 0.000000 0.000000 0.000000
# 4 0.000000 0.000000 0.000000 -0.746314 0.000000 0.000000
# 5 0.000000 0.000000 0.000000 0.000000 0.006280 0.000000
# 6 0.000000 0.000000 0.000000 0.000000 0.000000 0.038905
#
#
# Mechanical properties :
#
#
# Convention : Reuss Voigt Hill
#
# Bulk Modulus (GPa) = 21.96007 36.89250 29.42628
# Shear Modulus (GPa) = -8.59394 46.07748 18.74177
#
# Velocity S-wave (km/s) = -2.07188 4.79747 3.05966
# Velocity P-wave (km/s) = 2.29031 7.00825 5.21349
#
# Compressibility (1/GPa) = 0.04553720
#
# Stress axis : x y z
#
# Youngs Moduli (GPa) = 81.59489 51.72410 23.12040
#
# Poissons Ratio (x) = 0.28415 0.21613
# Poissons Ratio (y) = 0.44825 -0.00438
# Poissons Ratio (z) = 0.76274 -0.00981
#
# Static dielectric constant tensor:
#      x y z
#    x 1.737320 0.000000 0.000000 
#    y 0.000000 1.938670 0.000000 
#    z 0.000000 0.000000 1.786800 
# 
# From -- ./inp_files/17940.got.cif
#   From: 2010.05.17/outbox.cif.g08.bks.cpg/sg67_9_cif.got.tgz:17940.got - 2010.06.03 18:28:57.
