data_PCOD9503506
_publ_section_title
;
Structure prediction by ZEFSAII (Michael W. Deem and Ramdas Pophale) SiO2 
 PCOD9503506
Probable space group: C M M A
;
_chemical_formula_sum "Si O2"
_cell_formula_units_Z 96
_cell_length_a 14.272335
_cell_length_b 21.823505
_cell_length_c 14.480917
_cell_angle_alpha 90.000000
_cell_angle_beta 90.000000
_cell_angle_gamma 90.000000
_cell_volume 4510.405599
_symmetry_space_group_name_H-M "C M M A"
_symmetry_group_IT_number 67
_symmetry_cell_setting 'orthorhombic'
loop_
_space_group_symop_operation_xyz
x,y,z
-x,1/2-y,z
x,-y,-z
-x,1/2+y,-z
-x,-y,-z
x,1/2+y,-z
-x,y,z
x,1/2-y,z
1/2+x,1/2+y,z
1/2-x,-y,z
1/2+x,1/2-y,-z
1/2-x,y,-z
1/2-x,1/2-y,-z
1/2+x,y,-z
1/2-x,1/2+y,z
1/2+x,-y,z
loop_
_atom_site_type_symbol
_atom_site_label
_atom_site_fract_x
_atom_site_fract_y
_atom_site_fract_z
Si Si1 0.890298 0.149135 0.429619
Si Si2 0.388610 0.250000 0.719347
Si Si3 0.111372 0.819558 0.359435
Si Si4 0.735981 0.614587 0.138176
Si Si5 0.394735 0.071284 0.024490
Si Si6 0.759628 0.572709 0.669876
Si Si7 0.741536 0.750000 0.111574
O O1 0.860294 0.193372 0.345647
O O2 0.878428 0.179723 0.528971
O O3 0.825322 0.091074 0.415368
O O4 0.000000 0.135182 0.419402
O O5 0.500000 0.250000 0.722322
O O6 0.352206 0.250000 0.823936
O O7 0.140165 0.750000 0.327835
O O8 0.170249 0.880150 0.330474
O O9 0.000000 0.826252 0.338399
O O10 0.825550 0.574554 0.110976
O O11 0.693152 0.590362 0.232234
O O12 0.777559 0.683311 0.140450
O O13 0.659018 0.608036 0.056972
O O14 0.500000 0.094442 0.039229
O O15 0.399305 0.000000 0.000000
O O16 0.750000 0.500000 0.668888
O O17 0.750000 0.750000 0.000000
#
# Coordination Sequence:
#
# PCOD9503506 Si02
#       7
#    16   8  16  16  16  16   8
#     4  10  21  40  67  97 125 163 221 276 320 378
#     4  10  20  38  66  96 123 163 217 262 312 378
#     4  10  23  43  68  95 131 176 225 276 330 394
#     4  11  23  41  61  89 128 162 208 266 321 387
#     4  10  21  40  65  87 115 164 214 256 314 386
#     4  12  26  40  63  96 134 179 220 268 336 398
#     4  12  22  40  61  93 126 159 197 257 333 381
#
# _framework density 21.284116000000001
#
# number of rings (size 3 to 8) (size 9 to 14) (size 15 to 20)
#    0.000    1.333    4.167    2.500    2.333    4.667 
#    0.000    2.083    0.000    0.000    0.000    0.000 
#    0.000    0.000    0.000    0.000    0.000    0.000 
#
# Total GULP energy -267529.664457 kJ/mol
# GULP energy per Si atom -5573.534676 kJ/mol
# Density = 2.123567 g / cm^3
# Si number density = 21.284116 Si / 1000 Ang^3
#
#
#
# Elastic Constant Matrix: (Units=GPa)
#
#
# Indices 1 2 3 4 5 6 
#
# 1 38.4431 1.2914 0.0379 0.0000 0.0000 0.0000
# 2 1.2914 123.3713 12.0457 0.0000 0.0000 0.0000
# 3 0.0379 12.0457 60.4245 0.0000 0.0000 0.0000
# 4 0.0000 0.0000 0.0000 27.8927 0.0000 0.0000
# 5 0.0000 0.0000 0.0000 0.0000 15.5837 0.0000
# 6 0.0000 0.0000 0.0000 0.0000 0.0000 9.4310
#
#
#
# Elastic Compliance Matrix: (Units=1/GPa)
#
#
# Indices 1 2 3 4 5 6 
#
# 1 0.026022 -0.000276 0.000039 0.000000 0.000000 0.000000
# 2 -0.000276 0.008269 -0.001648 0.000000 0.000000 0.000000
# 3 0.000039 -0.001648 0.016878 0.000000 0.000000 0.000000
# 4 0.000000 0.000000 0.000000 0.035852 0.000000 0.000000
# 5 0.000000 0.000000 0.000000 0.000000 0.064170 0.000000
# 6 0.000000 0.000000 0.000000 0.000000 0.000000 0.106034
#
#
# Mechanical properties :
#
#
# Convention : Reuss Voigt Hill
#
# Bulk Modulus (GPa) = 21.09804 27.66542 24.38173
# Shear Modulus (GPa) = 18.06391 24.50574 21.28482
#
# Velocity S-wave (km/s) = 2.91641 3.39685 3.16576
# Velocity P-wave (km/s) = 4.61245 5.33022 4.98427
#
# Compressibility (1/GPa) = 0.04739776
#
# Stress axis : x y z
#
# Youngs Moduli (GPa) = 38.42943 120.92711 59.24815
#
# Poissons Ratio (x) = 0.03340 -0.00229
# Poissons Ratio (y) = 0.01061 0.09766
# Poissons Ratio (z) = -0.00149 0.19933
#
# Static dielectric constant tensor:
#      x y z
#    x 1.777310 0.000000 0.000000 
#    y 0.000000 1.825390 0.000000 
#    z 0.000000 0.000000 1.799920 
# 
# From -- ./inp_files/27263.got.cif
#   From: 2010.05.17/outbox.cif.g08.bks.cpg/sg67_14_cif.got.tgz:27263.got - 2010.06.03 18:28:57.
