data_PCOD9503196
_publ_section_title
;
Structure prediction by ZEFSAII (Michael W. Deem and Ramdas Pophale) SiO2 
 PCOD9503196
Probable space group: C M M A
;
_chemical_formula_sum "Si O2"
_cell_formula_units_Z 112
_cell_length_a 21.555761
_cell_length_b 15.743200
_cell_length_c 15.845179
_cell_angle_alpha 90.000000
_cell_angle_beta 90.000000
_cell_angle_gamma 90.000000
_cell_volume 5377.166968
_symmetry_space_group_name_H-M "C M M A"
_symmetry_group_IT_number 67
_symmetry_cell_setting 'orthorhombic'
loop_
_space_group_symop_operation_xyz
x,y,z
-x,1/2-y,z
x,-y,-z
-x,1/2+y,-z
-x,-y,-z
x,1/2+y,-z
-x,y,z
x,1/2-y,z
1/2+x,1/2+y,z
1/2-x,-y,z
1/2+x,1/2-y,-z
1/2-x,y,-z
1/2-x,1/2-y,-z
1/2+x,y,-z
1/2-x,1/2+y,z
1/2+x,-y,z
loop_
_atom_site_type_symbol
_atom_site_label
_atom_site_fract_x
_atom_site_fract_y
_atom_site_fract_z
Si Si1 0.175715 0.495705 0.100580
Si Si2 0.363966 0.344865 0.200568
Si Si3 0.670446 0.844856 0.511983
Si Si4 0.256133 0.101537 0.329032
Si Si5 0.928853 0.920220 0.618825
Si Si6 0.432617 0.377824 0.356267
Si Si7 0.136276 0.347401 0.227004
O O1 0.250000 0.500000 0.119395
O O2 0.142504 0.579874 0.134997
O O3 0.148158 0.414364 0.150984
O O4 0.169164 0.500000 0.000000
O O5 0.356768 0.250000 0.166309
O O6 0.310059 0.365260 0.268362
O O7 0.423912 0.352370 0.259362
O O8 0.681922 0.750000 0.478462
O O9 0.726941 0.877275 0.573864
O O10 0.629493 0.897912 0.443160
O O11 0.618223 0.838056 0.584601
O O12 0.195731 0.143262 0.288715
O O13 0.250000 0.000000 0.323551
O O14 0.918332 0.874220 0.708685
O O15 0.000000 0.902979 0.587727
O O16 0.924630 0.020636 0.635712
O O17 0.500000 0.354308 0.386764
O O18 0.130317 0.250000 0.198603
#
# Coordination Sequence:
#
# PCOD9503196 Si02
#       7
#    16  16  16  16  16  16  16
#     4  11  23  41  64  96 131 161 197 251 316 384
#     4  11  20  37  63  90 125 161 199 252 311 372
#     4  11  23  37  56  89 127 163 211 264 311 360
#     4  11  20  38  60  86 125 168 207 254 311 367
#     4  11  24  42  62  86 122 170 217 260 309 365
#     4  10  20  36  59  86 118 162 212 256 305 361
#     4  12  22  39  65  90 125 169 211 253 307 376
#
# _framework density 20.828811000000002
#
# number of rings (size 3 to 8) (size 9 to 14) (size 15 to 20)
#    0.000    1.000    4.286    4.714    0.000    5.143 
#    0.000    5.714    0.000    1.714    0.000    2.000 
#    0.000    0.000    0.000    0.000    0.000    0.000 
#
# Total GULP energy -312606.721697 kJ/mol
# GULP energy per Si atom -5582.262887 kJ/mol
# Density = 2.078140 g / cm^3
# Si number density = 20.828811 Si / 1000 Ang^3
#
#
#
# Elastic Constant Matrix: (Units=GPa)
#
#
# Indices 1 2 3 4 5 6 
#
# 1 17.1466 4.1037 7.1514 0.0000 0.0000 0.0000
# 2 4.1037 173.7251 47.5136 0.0000 0.0000 0.0000
# 3 7.1514 47.5136 122.8000 0.0000 0.0000 0.0000
# 4 0.0000 0.0000 0.0000 -10.7735 0.0000 0.0000
# 5 0.0000 0.0000 0.0000 0.0000 20.7912 0.0000
# 6 0.0000 0.0000 0.0000 0.0000 0.0000 17.6490
#
#
#
# Elastic Compliance Matrix: (Units=1/GPa)
#
#
# Indices 1 2 3 4 5 6 
#
# 1 0.059814 -0.000515 -0.003284 0.000000 0.000000 0.000000
# 2 -0.000515 0.006442 -0.002463 0.000000 0.000000 0.000000
# 3 -0.003284 -0.002463 0.009287 0.000000 0.000000 0.000000
# 4 0.000000 0.000000 0.000000 -0.092820 0.000000 0.000000
# 5 0.000000 0.000000 0.000000 0.000000 0.048097 0.000000
# 6 0.000000 0.000000 0.000000 0.000000 0.000000 0.056661
#
#
# Mechanical properties :
#
#
# Convention : Reuss Voigt Hill
#
# Bulk Modulus (GPa) = 15.86796 47.91211 31.89003
# Shear Modulus (GPa) = 41.31902 22.52686 31.92294
#
# Velocity S-wave (km/s) = 4.45876 3.29222 3.91913
# Velocity P-wave (km/s) = 5.84313 6.12408 5.98525
#
# Compressibility (1/GPa) = 0.06302007
#
# Stress axis : x y z
#
# Youngs Moduli (GPa) = 16.71863 155.23438 107.67311
#
# Poissons Ratio (x) = 0.07990 0.35361
# Poissons Ratio (y) = 0.00860 0.26515
# Poissons Ratio (z) = 0.05491 0.38227
#
# Static dielectric constant tensor:
#      x y z
#    x 1.876140 0.000000 0.000000 
#    y 0.000000 1.745850 0.000000 
#    z 0.000000 0.000000 1.748760 
# 
# From -- ./inp_files/30176.got.cif
#   From: 2010.05.17/outbox.cif.g08.bks.cpg/sg67_16_cif.got.tgz:30176.got - 2010.06.03 18:28:57.
