data_PCOD9503103
_publ_section_title
;
Structure prediction by ZEFSAII (Michael W. Deem and Ramdas Pophale) SiO2 
 PCOD9503103
Probable space group: C M M A
;
_chemical_formula_sum "Si O2"
_cell_formula_units_Z 96
_cell_length_a 20.322262
_cell_length_b 18.112426
_cell_length_c 12.070544
_cell_angle_alpha 90.000000
_cell_angle_beta 90.000000
_cell_angle_gamma 90.000000
_cell_volume 4442.991821
_symmetry_space_group_name_H-M "C M M A"
_symmetry_group_IT_number 67
_symmetry_cell_setting 'orthorhombic'
loop_
_space_group_symop_operation_xyz
x,y,z
-x,1/2-y,z
x,-y,-z
-x,1/2+y,-z
-x,-y,-z
x,1/2+y,-z
-x,y,z
x,1/2-y,z
1/2+x,1/2+y,z
1/2-x,-y,z
1/2+x,1/2-y,-z
1/2-x,y,-z
1/2-x,1/2-y,-z
1/2+x,y,-z
1/2-x,1/2+y,z
1/2+x,-y,z
loop_
_atom_site_type_symbol
_atom_site_label
_atom_site_fract_x
_atom_site_fract_y
_atom_site_fract_z
Si Si1 0.897691 0.834161 0.935465
Si Si2 0.926531 0.943789 0.745853
Si Si3 0.199337 0.336189 0.589735
Si Si4 0.249247 0.668121 0.160798
Si Si5 0.142516 0.443359 0.898894
Si Si6 0.924061 0.911523 0.506377
O O1 0.919798 0.750000 0.940930
O O2 0.931289 0.885058 0.844294
O O3 0.822376 0.833842 0.887903
O O4 0.901883 0.876246 0.053081
O O5 0.903968 0.900723 0.635628
O O6 0.000000 0.972796 0.721188
O O7 0.882851 0.010921 0.793207
O O8 0.187047 0.250000 0.563256
O O9 0.250000 0.367846 0.500000
O O10 0.236002 0.337479 0.707812
O O11 0.129454 0.376581 0.575435
O O12 0.221933 0.750000 0.128277
O O13 0.211112 0.596965 0.118469
O O14 0.145486 0.500000 0.000000
O O15 0.000000 0.886644 0.489305
O O16 0.922392 0.000000 0.500000
#
# Coordination Sequence:
#
# PCOD9503103 Si02
#       6
#    16  16  16  16  16  16
#     4  10  21  36  56  82 111 144 184 230 280 335
#     4  10  22  38  56  80 112 149 187 230 277 328
#     4  10  21  37  58  84 114 148 187 234 288 346
#     4  10  20  36  57  81 111 143 179 228 284 338
#     4  10  21  35  56  80 109 144 184 227 274 328
#     4  10  21  38  59  83 113 150 192 236 284 343
#
# _framework density 21.607061000000002
#
# number of rings (size 3 to 8) (size 9 to 14) (size 15 to 20)
#    0.000    2.000    0.000    3.000    0.000   12.000 
#    0.000    6.667    0.000    2.500    0.000    0.000 
#    0.000    0.000    0.000    0.000    0.000    0.000 
#
# Total GULP energy -267791.449060 kJ/mol
# GULP energy per Si atom -5578.988522 kJ/mol
# Density = 2.155788 g / cm^3
# Si number density = 21.607061 Si / 1000 Ang^3
#
#
#
# Elastic Constant Matrix: (Units=GPa)
#
#
# Indices 1 2 3 4 5 6 
#
# 1 80.7933 32.0109 10.5407 0.0000 0.0000 0.0000
# 2 32.0109 91.8319 8.9735 0.0000 0.0000 0.0000
# 3 10.5407 8.9735 63.8544 0.0000 0.0000 0.0000
# 4 0.0000 0.0000 0.0000 11.4026 0.0000 0.0000
# 5 0.0000 0.0000 0.0000 0.0000 30.4487 0.0000
# 6 0.0000 0.0000 0.0000 0.0000 0.0000 -33.4357
#
#
#
# Elastic Compliance Matrix: (Units=1/GPa)
#
#
# Indices 1 2 3 4 5 6 
#
# 1 0.014543 -0.004902 -0.001712 0.000000 0.000000 0.000000
# 2 -0.004902 0.012693 -0.000975 0.000000 0.000000 0.000000
# 3 -0.001712 -0.000975 0.016080 0.000000 0.000000 0.000000
# 4 0.000000 0.000000 0.000000 0.087700 0.000000 0.000000
# 5 0.000000 0.000000 0.000000 0.000000 0.032842 0.000000
# 6 0.000000 0.000000 0.000000 0.000000 0.000000 -0.029908
#
#
# Mechanical properties :
#
#
# Convention : Reuss Voigt Hill
#
# Bulk Modulus (GPa) = 35.53717 37.72552 36.63135
# Shear Modulus (GPa) = 31.54438 14.01341 22.77890
#
# Velocity S-wave (km/s) = 3.82502 2.54944 3.25042
# Velocity P-wave (km/s) = 5.99920 5.11507 5.57469
#
# Compressibility (1/GPa) = 0.02813955
#
# Stress axis : x y z
#
# Youngs Moduli (GPa) = 68.76239 78.78060 62.18848
#
# Poissons Ratio (x) = 0.38619 0.10645
# Poissons Ratio (y) = 0.33708 0.06061
# Poissons Ratio (z) = 0.11770 0.07678
#
# Static dielectric constant tensor:
#      x y z
#    x 1.821260 0.000000 0.000000 
#    y 0.000000 1.777160 0.000000 
#    z 0.000000 0.000000 1.866290 
# 
# From -- ./inp_files/19640.got.cif
#   From: 2010.05.17/outbox.cif.g08.bks.cpg/sg67_10_cif.got.tgz:19640.got - 2010.06.03 18:28:57.
