data_PCOD9503256
_publ_section_title
;
Structure prediction by ZEFSAII (Michael W. Deem and Ramdas Pophale) SiO2 
 PCOD9503256
Probable space group: C M M A
;
_chemical_formula_sum "Si O2"
_cell_formula_units_Z 64
_cell_length_a 13.582053
_cell_length_b 29.108630
_cell_length_c 8.242257
_cell_angle_alpha 90.000000
_cell_angle_beta 90.000000
_cell_angle_gamma 90.000000
_cell_volume 3258.617149
_symmetry_space_group_name_H-M "C M M A"
_symmetry_group_IT_number 67
_symmetry_cell_setting 'orthorhombic'
loop_
_space_group_symop_operation_xyz
x,y,z
-x,1/2-y,z
x,-y,-z
-x,1/2+y,-z
-x,-y,-z
x,1/2+y,-z
-x,y,z
x,1/2-y,z
1/2+x,1/2+y,z
1/2-x,-y,z
1/2+x,1/2-y,-z
1/2-x,y,-z
1/2-x,1/2-y,-z
1/2+x,y,-z
1/2-x,1/2+y,z
1/2+x,-y,z
loop_
_atom_site_type_symbol
_atom_site_label
_atom_site_fract_x
_atom_site_fract_y
_atom_site_fract_z
Si Si1 0.500000 0.695749 0.767115
Si Si2 0.336281 0.064883 0.119947
Si Si3 0.336656 0.366737 0.394553
Si Si4 0.000000 0.402532 0.373014
Si Si5 0.500000 0.497033 0.299426
Si Si6 0.500000 0.628652 0.044306
O O1 0.500000 0.750000 0.754041
O O2 0.405860 0.671643 0.683587
O O3 0.500000 0.676495 0.949422
O O4 0.294868 0.098297 0.260300
O O5 0.405635 0.027515 0.213668
O O6 0.407700 0.098544 0.018145
O O7 0.250000 0.048970 0.000000
O O8 0.250000 0.346343 0.500000
O O9 0.407019 0.397291 0.510070
O O10 0.000000 0.448910 0.268282
O O11 0.000000 0.364063 0.235537
O O12 0.500000 0.500000 0.500000
#
# Coordination Sequence:
#
# PCOD9503256 Si02
#       6
#     8  16  16   8   8   8
#     4   9  20  40  63  86 118 157 203 259 320 382
#     4  10  20  37  59  88 121 165 214 257 305 364
#     4  10  20  36  61  90 121 162 201 252 316 378
#     4  11  20  38  63  85 123 170 205 253 310 370
#     4  11  20  40  62  88 129 172 216 265 307 360
#     4   9  20  37  57  82 118 158 202 248 314 379
#
# _framework density 19.640232999999998
#
# number of rings (size 3 to 8) (size 9 to 14) (size 15 to 20)
#    0.000    2.000    2.500    3.000    0.000    2.500 
#    0.000   15.000    0.000   25.500    0.000    0.875 
#    0.000    0.000    0.000    0.000    0.000    0.000 
#
# Total GULP energy -178505.952488 kJ/mol
# GULP energy per Si atom -5578.311015 kJ/mol
# Density = 1.959553 g / cm^3
# Si number density = 19.640233 Si / 1000 Ang^3
#
#
#
# Elastic Constant Matrix: (Units=GPa)
#
#
# Indices 1 2 3 4 5 6 
#
# 1 93.5912 35.7460 51.0786 0.0000 0.0000 0.0000
# 2 35.7460 130.7290 43.9568 0.0000 0.0000 0.0000
# 3 51.0786 43.9568 134.2847 0.0000 0.0000 0.0000
# 4 0.0000 0.0000 0.0000 17.9587 0.0000 0.0000
# 5 0.0000 0.0000 0.0000 0.0000 36.7860 0.0000
# 6 0.0000 0.0000 0.0000 0.0000 0.0000 3.5485
#
#
#
# Elastic Compliance Matrix: (Units=1/GPa)
#
#
# Indices 1 2 3 4 5 6 
#
# 1 0.014074 -0.002302 -0.004600 0.000000 0.000000 0.000000
# 2 -0.002302 0.008972 -0.002061 0.000000 0.000000 0.000000
# 3 -0.004600 -0.002061 0.009871 0.000000 0.000000 0.000000
# 4 0.000000 0.000000 0.000000 0.055683 0.000000 0.000000
# 5 0.000000 0.000000 0.000000 0.000000 0.027184 0.000000
# 6 0.000000 0.000000 0.000000 0.000000 0.000000 0.281808
#
#
# Mechanical properties :
#
#
# Convention : Reuss Voigt Hill
#
# Bulk Modulus (GPa) = 66.70499 68.90752 67.80625
# Shear Modulus (GPa) = 11.89013 26.84689 19.36851
#
# Velocity S-wave (km/s) = 2.46315 3.70122 3.14373
# Velocity P-wave (km/s) = 6.49050 7.30934 6.91206
#
# Compressibility (1/GPa) = 0.01499138
#
# Stress axis : x y z
#
# Youngs Moduli (GPa) = 71.05074 111.45917 101.30269
#
# Poissons Ratio (x) = 0.25654 0.46601
# Poissons Ratio (y) = 0.16354 0.20882
# Poissons Ratio (z) = 0.32684 0.22976
#
# Static dielectric constant tensor:
#      x y z
#    x 1.723400 0.000000 0.000000 
#    y 0.000000 1.691560 0.000000 
#    z 0.000000 0.000000 1.732370 
# 
# From -- ./inp_files/8454.got.cif
#   From: 2010.05.17/outbox.cif.g08.bks.cpg/sg67_5_cif.got.tgz:8454.got - 2010.06.03 18:28:57.
