data_PCOD9503529
_publ_section_title
;
Structure prediction by ZEFSAII (Michael W. Deem and Ramdas Pophale) SiO2 
 PCOD9503529
Probable space group: C M M A
;
_chemical_formula_sum "Si O2"
_cell_formula_units_Z 72
_cell_length_a 10.977708
_cell_length_b 18.692902
_cell_length_c 18.418661
_cell_angle_alpha 90.000000
_cell_angle_beta 90.000000
_cell_angle_gamma 90.000000
_cell_volume 3779.605379
_symmetry_space_group_name_H-M "C M M A"
_symmetry_group_IT_number 67
_symmetry_cell_setting 'orthorhombic'
loop_
_space_group_symop_operation_xyz
x,y,z
-x,1/2-y,z
x,-y,-z
-x,1/2+y,-z
-x,-y,-z
x,1/2+y,-z
-x,y,z
x,1/2-y,z
1/2+x,1/2+y,z
1/2-x,-y,z
1/2+x,1/2-y,-z
1/2-x,y,-z
1/2-x,1/2-y,-z
1/2+x,y,-z
1/2-x,1/2+y,z
1/2+x,-y,z
loop_
_atom_site_type_symbol
_atom_site_label
_atom_site_fract_x
_atom_site_fract_y
_atom_site_fract_z
Si Si1 0.364250 0.596048 0.553244
Si Si2 0.250000 0.500000 0.329280
Si Si3 0.637738 0.922834 0.039820
Si Si4 0.360410 0.406230 0.795124
Si Si5 0.862944 0.750000 0.369410
Si Si6 0.361571 0.750000 0.258345
O O1 0.500000 0.587612 0.520699
O O2 0.250000 0.585851 0.500000
O O3 0.346391 0.538890 0.618077
O O4 0.356071 0.677041 0.584051
O O5 0.293858 0.560720 0.273785
O O6 0.500000 0.891621 0.037063
O O7 0.674081 0.929894 0.124128
O O8 0.750000 0.883933 0.000000
O O9 0.628667 0.000000 0.000000
O O10 0.500000 0.428564 0.786449
O O11 0.351492 0.321061 0.789226
O O12 0.748133 0.750000 0.315668
O O13 0.000000 0.750000 0.335169
O O14 0.500000 0.750000 0.291086
#
# Coordination Sequence:
#
# PCOD9503529 Si02
#       6
#    16   8  16  16   8   8
#     4  11  25  41  61  86 118 155 195 245 295 353
#     4  12  21  36  61  86 122 150 194 240 305 350
#     4   9  17  32  53  80 114 149 188 231 276 333
#     4  10  21  36  59  88 116 154 199 241 289 346
#     4  10  21  43  63  85 115 149 195 243 293 348
#     4  10  20  39  62  85 114 153 198 241 286 346
#
# _framework density 19.049607000000002
#
# number of rings (size 3 to 8) (size 9 to 14) (size 15 to 20)
#    0.000    1.778    2.222    2.667    0.000    3.556 
#    0.000    2.778    0.000    0.000    0.000    0.000 
#    0.000    0.000    0.000    0.000    0.000    0.000 
#
# Total GULP energy -200548.375873 kJ/mol
# GULP energy per Si atom -5570.788219 kJ/mol
# Density = 1.900625 g / cm^3
# Si number density = 19.049607 Si / 1000 Ang^3
#
#
#
# Elastic Constant Matrix: (Units=GPa)
#
#
# Indices 1 2 3 4 5 6 
#
# 1 155.2192 20.2668 70.6891 0.0000 0.0000 0.0000
# 2 20.2668 80.5616 23.8518 0.0000 0.0000 0.0000
# 3 70.6891 23.8518 100.2524 0.0000 0.0000 0.0000
# 4 0.0000 0.0000 0.0000 6.3059 0.0000 0.0000
# 5 0.0000 0.0000 0.0000 0.0000 35.4066 0.0000
# 6 0.0000 0.0000 0.0000 0.0000 0.0000 -25.7841
#
#
#
# Elastic Compliance Matrix: (Units=1/GPa)
#
#
# Indices 1 2 3 4 5 6 
#
# 1 0.009504 -0.000438 -0.006597 0.000000 0.000000 0.000000
# 2 -0.000438 0.013374 -0.002873 0.000000 0.000000 0.000000
# 3 -0.006597 -0.002873 0.015310 0.000000 0.000000 0.000000
# 4 0.000000 0.000000 0.000000 0.158582 0.000000 0.000000
# 5 0.000000 0.000000 0.000000 0.000000 0.028243 0.000000
# 6 0.000000 0.000000 0.000000 0.000000 0.000000 -0.038784
#
#
# Mechanical properties :
#
#
# Convention : Reuss Voigt Hill
#
# Bulk Modulus (GPa) = 54.43186 62.84982 58.64084
# Shear Modulus (GPa) = 23.56597 17.93404 20.75001
#
# Velocity S-wave (km/s) = 3.52104 3.07162 3.30398
# Velocity P-wave (km/s) = 6.72057 6.75604 6.73833
#
# Compressibility (1/GPa) = 0.01837159
#
# Stress axis : x y z
#
# Youngs Moduli (GPa) = 105.21671 74.77398 65.31551
#
# Poissons Ratio (x) = 0.03273 0.43091
# Poissons Ratio (y) = 0.04605 0.18766
# Poissons Ratio (z) = 0.69415 0.21484
#
# Static dielectric constant tensor:
#      x y z
#    x 1.710380 0.000000 0.000000 
#    y 0.000000 1.656880 0.000000 
#    z 0.000000 0.000000 1.668860 
# 
# From -- ./inp_files/32816.got.cif
#   From: 2010.05.17/outbox.cif.g08.bks.cpg/sg67_17_cif.got.tgz:32816.got - 2010.06.03 18:28:57.
