data_PCOD9503174
_publ_section_title
;
Structure prediction by ZEFSAII (Michael W. Deem and Ramdas Pophale) SiO2 
 PCOD9503174
Probable space group: C M M A
;
_chemical_formula_sum "Si O2"
_cell_formula_units_Z 112
_cell_length_a 14.078176
_cell_length_b 25.689595
_cell_length_c 13.874811
_cell_angle_alpha 90.000000
_cell_angle_beta 90.000000
_cell_angle_gamma 90.000000
_cell_volume 5018.000773
_symmetry_space_group_name_H-M "C M M A"
_symmetry_group_IT_number 67
_symmetry_cell_setting 'orthorhombic'
loop_
_space_group_symop_operation_xyz
x,y,z
-x,1/2-y,z
x,-y,-z
-x,1/2+y,-z
-x,-y,-z
x,1/2+y,-z
-x,y,z
x,1/2-y,z
1/2+x,1/2+y,z
1/2-x,-y,z
1/2+x,1/2-y,-z
1/2-x,y,-z
1/2-x,1/2-y,-z
1/2+x,y,-z
1/2-x,1/2+y,z
1/2+x,-y,z
loop_
_atom_site_type_symbol
_atom_site_label
_atom_site_fract_x
_atom_site_fract_y
_atom_site_fract_z
Si Si1 0.614097 0.428631 0.290513
Si Si2 0.233168 0.863728 0.604513
Si Si3 0.613762 0.412505 0.867196
Si Si4 0.605486 0.806039 0.885814
Si Si5 0.609716 0.075518 0.069790
Si Si6 0.306079 0.692510 0.210454
Si Si7 0.887578 0.957464 0.656902
O O1 0.500000 0.420812 0.288455
O O2 0.670960 0.383330 0.343141
O O3 0.646973 0.434134 0.178029
O O4 0.634460 0.481715 0.348360
O O5 0.250000 0.840925 0.500000
O O6 0.182871 0.825035 0.679172
O O7 0.169752 0.916073 0.594768
O O8 0.500000 0.410135 0.875463
O O9 0.652129 0.354342 0.852185
O O10 0.633983 0.442337 0.768218
O O11 0.649164 0.440018 0.965006
O O12 0.500000 0.806942 0.840139
O O13 0.611711 0.750000 0.940014
O O14 0.610987 0.861084 0.939354
O O15 0.694272 0.805575 0.814884
O O16 0.500000 0.056854 0.074417
O O17 0.345700 0.750000 0.192174
O O18 0.000000 0.950960 0.640741
#
# Coordination Sequence:
#
# PCOD9503174 Si02
#       7
#    16  16  16  16  16  16  16
#     4  10  20  36  59  83 110 143 183 227 273 328
#     4  11  23  39  59  81 108 141 182 235 287 332
#     4   9  19  35  54  79 114 150 184 221 263 318
#     4   9  17  31  51  75 106 140 177 224 270 312
#     4   9  17  31  53  81 111 144 180 221 267 318
#     4  10  21  37  57  81 108 144 184 225 275 330
#     4   9  20  38  56  80 113 147 182 223 272 328
#
# _framework density 22.319645999999999
#
# number of rings (size 3 to 8) (size 9 to 14) (size 15 to 20)
#    0.000    2.429    1.429    0.429    0.000    4.000 
#    0.000    7.143    0.000    1.714    0.000    4.000 
#    0.000    0.000    0.000    0.000    0.000    0.000 
#
# Total GULP energy -312462.348306 kJ/mol
# GULP energy per Si atom -5579.684791 kJ/mol
# Density = 2.226885 g / cm^3
# Si number density = 22.319646 Si / 1000 Ang^3
#
#
#
# Elastic Constant Matrix: (Units=GPa)
#
#
# Indices 1 2 3 4 5 6 
#
# 1 44.9160 3.2826 2.5286 0.0000 0.0000 0.0000
# 2 3.2826 67.2702 -18.2104 0.0000 0.0000 0.0000
# 3 2.5286 -18.2104 71.1988 0.0000 0.0000 0.0000
# 4 0.0000 0.0000 0.0000 -0.4794 0.0000 0.0000
# 5 0.0000 0.0000 0.0000 0.0000 17.8470 0.0000
# 6 0.0000 0.0000 0.0000 0.0000 0.0000 20.2483
#
#
#
# Elastic Compliance Matrix: (Units=1/GPa)
#
#
# Indices 1 2 3 4 5 6 
#
# 1 0.022432 -0.001408 -0.001157 0.000000 0.000000 0.000000
# 2 -0.001408 0.016060 0.004158 0.000000 0.000000 0.000000
# 3 -0.001157 0.004158 0.015150 0.000000 0.000000 0.000000
# 4 0.000000 0.000000 0.000000 -2.085752 0.000000 0.000000
# 5 0.000000 0.000000 0.000000 0.000000 0.056032 0.000000
# 6 0.000000 0.000000 0.000000 0.000000 0.000000 0.049387
#
#
# Mechanical properties :
#
#
# Convention : Reuss Voigt Hill
#
# Bulk Modulus (GPa) = 17.59721 17.62072 17.60897
# Shear Modulus (GPa) = -2.61652 20.57546 8.97947
#
# Velocity S-wave (km/s) = -1.08390 3.03950 2.00795
# Velocity P-wave (km/s) = 2.51691 4.49777 3.64450
#
# Compressibility (1/GPa) = 0.05682718
#
# Stress axis : x y z
#
# Youngs Moduli (GPa) = 44.57961 62.26815 66.00820
#
# Poissons Ratio (x) = 0.08766 0.07635
# Poissons Ratio (y) = 0.06276 -0.27443
# Poissons Ratio (z) = 0.05157 -0.25888
#
# Static dielectric constant tensor:
#      x y z
#    x 1.849910 0.000000 0.000000 
#    y 0.000000 1.853170 0.000000 
#    z 0.000000 0.000000 1.829760 
# 
# From -- ./inp_files/27710.got.cif
#   From: 2010.05.17/outbox.cif.g08.bks.cpg/sg67_14_cif.got.tgz:27710.got - 2010.06.03 18:28:57.
