data_PCOD9503863
_publ_section_title
;
Structure prediction by ZEFSAII (Michael W. Deem and Ramdas Pophale) SiO2 
 PCOD9503863
Probable space group: C M M A
;
_chemical_formula_sum "Si O2"
_cell_formula_units_Z 104
_cell_length_a 26.725470
_cell_length_b 8.721698
_cell_length_c 22.864350
_cell_angle_alpha 90.000000
_cell_angle_beta 90.000000
_cell_angle_gamma 90.000000
_cell_volume 5329.485141
_symmetry_space_group_name_H-M "C M M A"
_symmetry_group_IT_number 67
_symmetry_cell_setting 'orthorhombic'
loop_
_space_group_symop_operation_xyz
x,y,z
-x,1/2-y,z
x,-y,-z
-x,1/2+y,-z
-x,-y,-z
x,1/2+y,-z
-x,y,z
x,1/2-y,z
1/2+x,1/2+y,z
1/2-x,-y,z
1/2+x,1/2-y,-z
1/2-x,y,-z
1/2-x,1/2-y,-z
1/2+x,y,-z
1/2-x,1/2+y,z
1/2+x,-y,z
loop_
_atom_site_type_symbol
_atom_site_label
_atom_site_fract_x
_atom_site_fract_y
_atom_site_fract_z
Si Si1 0.199371 0.067749 0.817205
Si Si2 0.556098 0.066878 0.882273
Si Si3 0.593200 0.433807 0.237498
Si Si4 0.500000 0.566693 0.564569
Si Si5 0.845276 0.566301 0.062172
Si Si6 0.304342 0.934805 0.434462
Si Si7 0.405891 0.565856 0.366038
O O1 0.203826 0.250000 0.819777
O O2 0.150663 0.031909 0.779712
O O3 0.188520 0.011845 0.883347
O O4 0.250000 0.000000 0.793081
O O5 0.500000 0.032875 0.903032
O O6 0.563612 0.250000 0.882773
O O7 0.562094 0.005713 0.815894
O O8 0.598843 0.988070 0.920932
O O9 0.585854 0.250000 0.238176
O O10 0.585070 0.504923 0.300669
O O11 0.500000 0.750000 0.564593
O O12 0.500000 0.500000 0.500000
O O13 0.450106 0.505272 0.595661
O O14 0.844377 0.750000 0.060421
O O15 0.830004 0.500000 0.000000
O O16 0.301291 0.750000 0.437460
O O17 0.351165 0.976348 0.392616
O O18 0.313510 0.000000 0.500000
O O19 0.250000 0.000000 0.415466
O O20 0.409119 0.750000 0.366976
#
# Coordination Sequence:
#
# PCOD9503863 Si02
#       7
#    16  16  16   8  16  16  16
#     4   9  20  37  57  82 113 151 193 238 290 348
#     4  10  21  37  58  82 110 147 187 234 290 344
#     4  10  22  39  58  84 116 151 192 237 288 344
#     4  12  26  44  66  92 124 164 203 250 305 360
#     4  10  21  37  56  82 114 148 191 239 287 347
#     4  10  21  37  60  87 117 154 194 242 295 350
#     4  11  24  41  62  90 122 159 203 249 298 356
#
# _framework density 19.51408
#
# number of rings (size 3 to 8) (size 9 to 14) (size 15 to 20)
#    0.000    1.846    0.000    4.846    1.077    9.846 
#    0.000    4.615    0.000    0.000    0.000    0.000 
#    0.000    0.000    0.000    0.000    0.000    0.000 
#
# Total GULP energy -290513.709067 kJ/mol
# GULP energy per Si atom -5586.802097 kJ/mol
# Density = 1.946966 g / cm^3
# Si number density = 19.514080 Si / 1000 Ang^3
#
#
#
# Elastic Constant Matrix: (Units=GPa)
#
#
# Indices 1 2 3 4 5 6 
#
# 1 58.6634 14.9430 -10.7269 0.0000 0.0000 0.0000
# 2 14.9430 48.6667 10.4566 0.0000 0.0000 0.0000
# 3 -10.7269 10.4566 68.7463 0.0000 0.0000 0.0000
# 4 0.0000 0.0000 0.0000 30.4933 0.0000 0.0000
# 5 0.0000 0.0000 0.0000 0.0000 -2.8519 0.0000
# 6 0.0000 0.0000 0.0000 0.0000 0.0000 29.4695
#
#
#
# Elastic Compliance Matrix: (Units=1/GPa)
#
#
# Indices 1 2 3 4 5 6 
#
# 1 0.019549 -0.006883 0.004097 0.000000 0.000000 0.000000
# 2 -0.006883 0.023665 -0.004674 0.000000 0.000000 0.000000
# 3 0.004097 -0.004674 0.015896 0.000000 0.000000 0.000000
# 4 0.000000 0.000000 0.000000 0.032794 0.000000 0.000000
# 5 0.000000 0.000000 0.000000 0.000000 -0.350643 0.000000
# 6 0.000000 0.000000 0.000000 0.000000 0.000000 0.033933
#
#
# Mechanical properties :
#
#
# Convention : Reuss Voigt Hill
#
# Bulk Modulus (GPa) = 22.62830 22.82464 22.72647
# Shear Modulus (GPa) = -25.62052 22.18243 -1.71904
#
# Velocity S-wave (km/s) = -3.62736 3.37522 -0.93959
# Velocity P-wave (km/s) = 2.43364 5.18761 3.23950
#
# Compressibility (1/GPa) = 0.04419246
#
# Stress axis : x y z
#
# Youngs Moduli (GPa) = 51.15401 42.25572 62.90721
#
# Poissons Ratio (x) = 0.29084 -0.25774
# Poissons Ratio (y) = 0.35208 0.29400
# Poissons Ratio (z) = -0.20959 0.19749
#
# Static dielectric constant tensor:
#      x y z
#    x 1.641170 0.000000 0.000000 
#    y 0.000000 1.654360 0.000000 
#    z 0.000000 0.000000 1.656110 
# 
# From -- ./inp_files/39994.got.cif
#   From: 2010.05.17/outbox.cif.g08.bks.cpg/sg67_20_cif.got.tgz:39994.got - 2010.06.03 18:28:57.
