data_PCOD9503673
_publ_section_title
;
Structure prediction by ZEFSAII (Michael W. Deem and Ramdas Pophale) SiO2 
 PCOD9503673
Probable space group: C M M A
;
_chemical_formula_sum "Si O2"
_cell_formula_units_Z 104
_cell_length_a 23.569515
_cell_length_b 24.428217
_cell_length_c 8.685791
_cell_angle_alpha 90.000000
_cell_angle_beta 90.000000
_cell_angle_gamma 90.000000
_cell_volume 5000.941684
_symmetry_space_group_name_H-M "C M M A"
_symmetry_group_IT_number 67
_symmetry_cell_setting 'orthorhombic'
loop_
_space_group_symop_operation_xyz
x,y,z
-x,1/2-y,z
x,-y,-z
-x,1/2+y,-z
-x,-y,-z
x,1/2+y,-z
-x,y,z
x,1/2-y,z
1/2+x,1/2+y,z
1/2-x,-y,z
1/2+x,1/2-y,-z
1/2-x,y,-z
1/2-x,1/2-y,-z
1/2+x,y,-z
1/2-x,1/2+y,z
1/2+x,-y,z
loop_
_atom_site_type_symbol
_atom_site_label
_atom_site_fract_x
_atom_site_fract_y
_atom_site_fract_z
Si Si1 0.775456 0.938489 0.161252
Si Si2 0.568199 0.036144 0.702712
Si Si3 0.395370 0.915462 0.986989
Si Si4 0.932615 0.812019 0.836852
Si Si5 0.874770 0.642890 0.553161
Si Si6 0.938496 0.088571 0.676731
Si Si7 0.250000 0.615745 0.500000
O O1 0.764289 0.915610 0.335707
O O2 0.750000 0.000000 0.166469
O O3 0.750000 0.913010 0.000000
O O4 0.840969 0.933354 0.112847
O O5 0.500000 0.045217 0.697984
O O6 0.588933 0.043119 0.877802
O O7 0.604660 0.083095 0.618183
O O8 0.578055 0.974579 0.646440
O O9 0.395372 0.856129 0.069647
O O10 0.442447 0.909999 0.858623
O O11 0.927544 0.750000 0.893691
O O12 0.907711 0.816129 0.663729
O O13 0.000000 0.826922 0.837163
O O14 0.898179 0.636552 0.381526
O O15 0.807408 0.647611 0.545040
O O16 0.000000 0.097745 0.604720
#
# Coordination Sequence:
#
# PCOD9503673 Si02
#       7
#    16  16  16  16  16  16   8
#     4  11  25  38  61  93 136 187 232 271 325 397
#     4  10  21  35  55  85 127 176 217 260 331 418
#     4  11  21  37  59  91 127 169 219 273 330 400
#     4  10  22  44  73  99 126 170 227 294 369 424
#     4  11  22  38  61  86 128 168 222 274 335 401
#     4  11  21  33  55  90 128 166 208 263 339 412
#     4  12  25  42  61  94 134 182 229 278 331 394
#
# _framework density 20.796082999999999
#
# number of rings (size 3 to 8) (size 9 to 14) (size 15 to 20)
#    0.000    1.231    1.538    6.692    6.462    3.692 
#    0.000    1.154    0.000    6.923    0.000    0.000 
#    0.000    0.000    0.000    0.000    0.000    0.000 
#
# Total GULP energy -289561.184256 kJ/mol
# GULP energy per Si atom -5568.484313 kJ/mol
# Density = 2.074875 g / cm^3
# Si number density = 20.796083 Si / 1000 Ang^3
#
#
#
# Elastic Constant Matrix: (Units=GPa)
#
#
# Indices 1 2 3 4 5 6 
#
# 1 136.7031 20.1502 21.6034 0.0000 0.0000 0.0000
# 2 20.1502 59.0101 4.6872 0.0000 0.0000 0.0000
# 3 21.6034 4.6872 116.7630 0.0000 0.0000 0.0000
# 4 0.0000 0.0000 0.0000 17.0521 0.0000 0.0000
# 5 0.0000 0.0000 0.0000 0.0000 30.6673 0.0000
# 6 0.0000 0.0000 0.0000 0.0000 0.0000 14.2197
#
#
#
# Elastic Compliance Matrix: (Units=1/GPa)
#
#
# Indices 1 2 3 4 5 6 
#
# 1 0.007912 -0.002594 -0.001360 0.000000 0.000000 0.000000
# 2 -0.002594 0.017851 -0.000237 0.000000 0.000000 0.000000
# 3 -0.001360 -0.000237 0.008825 0.000000 0.000000 0.000000
# 4 0.000000 0.000000 0.000000 0.058644 0.000000 0.000000
# 5 0.000000 0.000000 0.000000 0.000000 0.032608 0.000000
# 6 0.000000 0.000000 0.000000 0.000000 0.000000 0.070325
#
#
# Mechanical properties :
#
#
# Convention : Reuss Voigt Hill
#
# Bulk Modulus (GPa) = 38.15637 45.03976 41.59807
# Shear Modulus (GPa) = 23.44314 30.12351 26.78332
#
# Velocity S-wave (km/s) = 3.36115 3.81007 3.59263
# Velocity P-wave (km/s) = 5.78367 6.40783 6.10373
#
# Compressibility (1/GPa) = 0.02620794
#
# Stress axis : x y z
#
# Youngs Moduli (GPa) = 126.38468 56.02005 113.30872
#
# Poissons Ratio (x) = 0.14531 0.15408
# Poissons Ratio (y) = 0.32782 0.02682
# Poissons Ratio (z) = 0.17186 0.01326
#
# Static dielectric constant tensor:
#      x y z
#    x 1.831360 0.000000 0.000000 
#    y 0.000000 1.728590 0.000000 
#    z 0.000000 0.000000 1.892900 
# 
# From -- ./inp_files/12831.got.cif
#   From: 2010.05.17/outbox.cif.g08.bks.cpg/sg67_7_cif.got.tgz:12831.got - 2010.06.03 18:28:57.
