data_PCOD9503840
_publ_section_title
;
Structure prediction by ZEFSAII (Michael W. Deem and Ramdas Pophale) SiO2 
 PCOD9503840
Probable space group: C M M A
;
_chemical_formula_sum "Si O2"
_cell_formula_units_Z 96
_cell_length_a 25.908516
_cell_length_b 16.381101
_cell_length_c 12.399698
_cell_angle_alpha 90.000000
_cell_angle_beta 90.000000
_cell_angle_gamma 90.000000
_cell_volume 5262.556043
_symmetry_space_group_name_H-M "C M M A"
_symmetry_group_IT_number 67
_symmetry_cell_setting 'orthorhombic'
loop_
_space_group_symop_operation_xyz
x,y,z
-x,1/2-y,z
x,-y,-z
-x,1/2+y,-z
-x,-y,-z
x,1/2+y,-z
-x,y,z
x,1/2-y,z
1/2+x,1/2+y,z
1/2-x,-y,z
1/2+x,1/2-y,-z
1/2-x,y,-z
1/2-x,1/2-y,-z
1/2+x,y,-z
1/2-x,1/2+y,z
1/2+x,-y,z
loop_
_atom_site_type_symbol
_atom_site_label
_atom_site_fract_x
_atom_site_fract_y
_atom_site_fract_z
Si Si1 0.437856 0.154614 0.266152
Si Si2 0.349157 0.345397 0.664659
Si Si3 0.237528 0.344371 0.627960
Si Si4 0.442197 0.154127 0.804233
Si Si5 0.562101 0.410957 0.034453
Si Si6 0.864844 0.085844 0.561850
O O1 0.500000 0.149768 0.269995
O O2 0.423485 0.250000 0.279048
O O3 0.419602 0.122920 0.148807
O O4 0.412805 0.102218 0.361211
O O5 0.345008 0.250000 0.693223
O O6 0.290738 0.377799 0.679016
O O7 0.395792 0.382711 0.733957
O O8 0.363630 0.351800 0.538784
O O9 0.227921 0.250000 0.661732
O O10 0.250000 0.341730 0.500000
O O11 0.186320 0.398184 0.633328
O O12 0.500000 0.118276 0.786535
O O13 0.445495 0.250000 0.777063
O O14 0.429576 0.145575 0.930506
O O15 0.500000 0.417464 0.046236
O O16 0.581887 0.500000 0.000000
O O17 0.863733 0.000000 0.500000
#
# Coordination Sequence:
#
# PCOD9503840 Si02
#       6
#    16  16  16  16  16  16
#     4  10  21  37  55  76 106 146 185 217 262 330
#     4   9  18  32  51  75 104 138 175 217 264 319
#     4   8  15  31  51  69  96 135 179 217 253 311
#     4   9  17  30  51  78 105 135 174 218 264 317
#     4   9  18  32  53  75 102 138 179 223 263 311
#     4  11  22  32  50  77 107 138 174 222 268 318
#
# _framework density 18.242086
#
# number of rings (size 3 to 8) (size 9 to 14) (size 15 to 20)
#    0.000    2.667    0.000    3.000    2.333    6.000 
#    0.000    1.667    0.000    1.000    0.000    5.833 
#    0.000    0.000    0.000    0.000    0.000    0.000 
#
# Total GULP energy -267222.966610 kJ/mol
# GULP energy per Si atom -5567.145138 kJ/mol
# Density = 1.820057 g / cm^3
# Si number density = 18.242086 Si / 1000 Ang^3
#
#
#
# Elastic Constant Matrix: (Units=GPa)
#
#
# Indices 1 2 3 4 5 6 
#
# 1 85.5107 35.9395 49.8391 0.0000 0.0000 0.0000
# 2 35.9395 50.9497 15.5183 0.0000 0.0000 0.0000
# 3 49.8391 15.5183 68.8410 0.0000 0.0000 0.0000
# 4 0.0000 0.0000 0.0000 14.2235 0.0000 0.0000
# 5 0.0000 0.0000 0.0000 0.0000 -8.9533 0.0000
# 6 0.0000 0.0000 0.0000 0.0000 0.0000 9.7252
#
#
#
# Elastic Compliance Matrix: (Units=1/GPa)
#
#
# Indices 1 2 3 4 5 6 
#
# 1 0.027347 -0.014238 -0.016589 0.000000 0.000000 0.000000
# 2 -0.014238 0.028487 0.003886 0.000000 0.000000 0.000000
# 3 -0.016589 0.003886 0.025660 0.000000 0.000000 0.000000
# 4 0.000000 0.000000 0.000000 0.070306 0.000000 0.000000
# 5 0.000000 0.000000 0.000000 0.000000 -0.111690 0.000000
# 6 0.000000 0.000000 0.000000 0.000000 0.000000 0.102826
#
#
# Mechanical properties :
#
#
# Convention : Reuss Voigt Hill
#
# Bulk Modulus (GPa) = 36.21503 45.32170 40.76837
# Shear Modulus (GPa) = 24.26925 9.93271 17.10098
#
# Velocity S-wave (km/s) = 3.65142 2.33597 3.06510
# Velocity P-wave (km/s) = 6.13781 5.67223 5.90961
#
# Compressibility (1/GPa) = 0.02761285
#
# Stress axis : x y z
#
# Youngs Moduli (GPa) = 36.56646 35.10397 38.97055
#
# Poissons Ratio (x) = 0.49981 0.64649
# Poissons Ratio (y) = 0.52063 -0.15145
# Poissons Ratio (z) = 0.60661 -0.13642
#
# Static dielectric constant tensor:
#      x y z
#    x 1.685530 0.000000 0.000000 
#    y 0.000000 1.696660 0.000000 
#    z 0.000000 0.000000 1.603260 
# 
# From -- ./inp_files/19817.got.cif
#   From: 2010.05.17/outbox.cif.g08.bks.cpg/sg67_10_cif.got.tgz:19817.got - 2010.06.03 18:28:57.
