data_PCOD9503524
_publ_section_title
;
Structure prediction by ZEFSAII (Michael W. Deem and Ramdas Pophale) SiO2 
 PCOD9503524
Probable space group: C M M A
;
_chemical_formula_sum "Si O2"
_cell_formula_units_Z 116
_cell_length_a 23.640754
_cell_length_b 24.750491
_cell_length_c 10.009105
_cell_angle_alpha 90.000000
_cell_angle_beta 90.000000
_cell_angle_gamma 90.000000
_cell_volume 5856.530211
_symmetry_space_group_name_H-M "C M M A"
_symmetry_group_IT_number 67
_symmetry_cell_setting 'orthorhombic'
loop_
_space_group_symop_operation_xyz
x,y,z
-x,1/2-y,z
x,-y,-z
-x,1/2+y,-z
-x,-y,-z
x,1/2+y,-z
-x,y,z
x,1/2-y,z
1/2+x,1/2+y,z
1/2-x,-y,z
1/2+x,1/2-y,-z
1/2-x,y,-z
1/2-x,1/2-y,-z
1/2+x,y,-z
1/2-x,1/2+y,z
1/2+x,-y,z
loop_
_atom_site_type_symbol
_atom_site_label
_atom_site_fract_x
_atom_site_fract_y
_atom_site_fract_z
Si Si1 0.315616 0.309314 0.198999
Si Si2 0.896224 0.047380 0.888152
Si Si3 0.000000 0.250000 0.072669
Si Si4 0.732414 0.078927 0.148193
Si Si5 0.564363 0.481959 0.649332
Si Si6 0.818160 0.689512 0.502539
Si Si7 0.656837 0.604313 0.271003
Si Si8 0.597732 0.340160 0.976890
O O1 0.288912 0.250000 0.200654
O O2 0.273122 0.356326 0.160358
O O3 0.336847 0.320167 0.349761
O O4 0.365458 0.312034 0.092602
O O5 0.831418 0.057549 0.837277
O O6 0.930533 0.029287 0.758468
O O7 0.919476 0.102218 0.955762
O O8 0.896020 0.000000 0.000000
O O9 0.950432 0.298507 0.067789
O O10 0.786027 0.069294 0.243497
O O11 0.750000 0.063001 0.000000
O O12 0.580167 0.500000 0.500000
O O13 0.500000 0.462140 0.644914
O O14 0.606300 0.436307 0.700226
O O15 0.836733 0.750000 0.542492
O O16 0.750000 0.689163 0.500000
O O17 0.836320 0.643955 0.604396
O O18 0.638872 0.640075 0.142854
#
# Coordination Sequence:
#
# PCOD9503524 Si02
#       8
#    16  16   4  16  16  16  16  16
#     4  10  20  39  61  95 134 178 223 265 337 405
#     4  11  23  45  71 103 137 179 223 275 345 407
#     4  12  28  48  70 108 132 168 256 284 342 380
#     4  11  21  37  63 103 141 170 215 276 342 412
#     4  11  28  49  67  93 128 180 236 283 334 399
#     4  10  22  37  61  94 138 183 221 271 333 427
#     4  12  24  42  66 101 138 180 221 279 356 398
#     4  11  25  43  70 100 135 177 219 300 328 402
#
# _framework density 19.806948999999999
#
# number of rings (size 3 to 8) (size 9 to 14) (size 15 to 20)
#    0.000    1.103    6.207    0.000    6.759    2.483 
#    0.000    0.690    0.000    0.828    0.000    0.000 
#    0.000    0.000    0.000    0.000    0.000    0.000 
#
# Total GULP energy -323231.079118 kJ/mol
# GULP energy per Si atom -5572.949640 kJ/mol
# Density = 1.976187 g / cm^3
# Si number density = 19.806949 Si / 1000 Ang^3
#
#
#
# Elastic Constant Matrix: (Units=GPa)
#
#
# Indices 1 2 3 4 5 6 
#
# 1 58.9211 9.8317 16.5203 0.0000 0.0000 0.0000
# 2 9.8317 107.3575 24.9258 0.0000 0.0000 0.0000
# 3 16.5203 24.9258 83.3690 0.0000 0.0000 0.0000
# 4 0.0000 0.0000 0.0000 8.0929 0.0000 0.0000
# 5 0.0000 0.0000 0.0000 0.0000 -0.6703 0.0000
# 6 0.0000 0.0000 0.0000 0.0000 0.0000 6.7319
#
#
#
# Elastic Compliance Matrix: (Units=1/GPa)
#
#
# Indices 1 2 3 4 5 6 
#
# 1 0.018048 -0.000884 -0.003312 0.000000 0.000000 0.000000
# 2 -0.000884 0.010053 -0.002830 0.000000 0.000000 0.000000
# 3 -0.003312 -0.002830 0.013497 0.000000 0.000000 0.000000
# 4 0.000000 0.000000 0.000000 0.123564 0.000000 0.000000
# 5 0.000000 0.000000 0.000000 0.000000 -1.491874 0.000000
# 6 0.000000 0.000000 0.000000 0.000000 0.000000 0.148546
#
#
# Mechanical properties :
#
#
# Convention : Reuss Voigt Hill
#
# Bulk Modulus (GPa) = 36.30370 39.13369 37.71870
# Shear Modulus (GPa) = -4.32927 16.05557 5.86315
#
# Velocity S-wave (km/s) = -1.48003 2.85020 1.72237
# Velocity P-wave (km/s) = 3.93039 5.53461 4.79999
#
# Compressibility (1/GPa) = 0.02754540
#
# Stress axis : x y z
#
# Youngs Moduli (GPa) = 55.40792 99.47501 74.08810
#
# Poissons Ratio (x) = 0.08792 0.24539
# Poissons Ratio (y) = 0.04897 0.20970
# Poissons Ratio (z) = 0.18352 0.28156
#
# Static dielectric constant tensor:
#      x y z
#    x 1.701120 0.000000 0.000000 
#    y 0.000000 1.732160 0.000000 
#    z 0.000000 0.000000 1.714740 
# 
# From -- ./inp_files/12914.got.cif
#   From: 2010.05.17/outbox.cif.g08.bks.cpg/sg67_7_cif.got.tgz:12914.got - 2010.06.03 18:28:57.
