data_PCOD9503600
_publ_section_title
;
Structure prediction by ZEFSAII (Michael W. Deem and Ramdas Pophale) SiO2 
 PCOD9503600
Probable space group: C M M A
;
_chemical_formula_sum "Si O2"
_cell_formula_units_Z 112
_cell_length_a 14.842777
_cell_length_b 23.122336
_cell_length_c 15.828146
_cell_angle_alpha 90.000000
_cell_angle_beta 90.000000
_cell_angle_gamma 90.000000
_cell_volume 5432.214594
_symmetry_space_group_name_H-M "C M M A"
_symmetry_group_IT_number 67
_symmetry_cell_setting 'orthorhombic'
loop_
_space_group_symop_operation_xyz
x,y,z
-x,1/2-y,z
x,-y,-z
-x,1/2+y,-z
-x,-y,-z
x,1/2+y,-z
-x,y,z
x,1/2-y,z
1/2+x,1/2+y,z
1/2-x,-y,z
1/2+x,1/2-y,-z
1/2-x,y,-z
1/2-x,1/2-y,-z
1/2+x,y,-z
1/2-x,1/2+y,z
1/2+x,-y,z
loop_
_atom_site_type_symbol
_atom_site_label
_atom_site_fract_x
_atom_site_fract_y
_atom_site_fract_z
Si Si1 0.756732 0.185180 0.760174
Si Si2 0.150113 0.440684 0.962041
Si Si3 0.894675 0.403727 0.289672
Si Si4 0.893411 0.530097 0.220737
Si Si5 0.601726 0.630818 0.648629
Si Si6 0.341889 0.685319 0.945495
Si Si7 0.856910 0.934038 0.516195
O O1 0.721198 0.250000 0.760453
O O2 0.674224 0.141870 0.748764
O O3 0.825191 0.175530 0.682221
O O4 0.812344 0.177947 0.847408
O O5 0.157376 0.451816 0.862695
O O6 0.110678 0.375394 0.972184
O O7 0.107425 0.500000 0.000000
O O8 0.250000 0.437655 0.000000
O O9 0.874441 0.465160 0.246912
O O10 0.878550 0.413735 0.389505
O O11 0.000000 0.389600 0.276077
O O12 0.875157 0.572854 0.298061
O O13 0.000000 0.535045 0.201799
O O14 0.500000 0.648937 0.670137
O O15 0.605772 0.611032 0.552133
O O16 0.384337 0.750000 0.954156
O O17 0.250000 0.687705 0.000000
O O18 0.750000 0.935154 0.500000
O O19 0.890280 0.000000 0.500000
#
# Coordination Sequence:
#
# PCOD9503600 Si02
#       7
#    16  16  16  16  16  16  16
#     4  11  24  42  66  89 122 167 217 265 301 367
#     4  10  21  33  57  90 117 160 202 253 311 369
#     4  11  24  40  63  92 128 166 207 259 316 377
#     4  10  22  38  59  92 129 161 200 257 318 380
#     4  11  22  39  64  94 129 161 202 256 315 379
#     4   9  19  37  59  87 120 161 208 255 311 371
#     4  11  21  37  62  97 127 166 203 254 320 383
#
# _framework density 20.617742
#
# number of rings (size 3 to 8) (size 9 to 14) (size 15 to 20)
#    0.000    1.571    4.286    0.429    6.000    2.000 
#    0.000    1.429    0.000    3.000    0.000    4.000 
#    0.000    0.000    0.000    0.000    0.000    0.000 
#
# Total GULP energy -312667.422765 kJ/mol
# GULP energy per Si atom -5583.346835 kJ/mol
# Density = 2.057082 g / cm^3
# Si number density = 20.617742 Si / 1000 Ang^3
#
#
#
# Elastic Constant Matrix: (Units=GPa)
#
#
# Indices 1 2 3 4 5 6 
#
# 1 46.3982 34.1944 6.1718 0.0000 0.0000 0.0000
# 2 34.1944 129.6558 24.9371 0.0000 0.0000 0.0000
# 3 6.1718 24.9371 64.7624 0.0000 0.0000 0.0000
# 4 0.0000 0.0000 0.0000 29.2983 0.0000 0.0000
# 5 0.0000 0.0000 0.0000 0.0000 73.9609 0.0000
# 6 0.0000 0.0000 0.0000 0.0000 0.0000 2.4909
#
#
#
# Elastic Compliance Matrix: (Units=1/GPa)
#
#
# Indices 1 2 3 4 5 6 
#
# 1 0.026754 -0.007091 0.000181 0.000000 0.000000 0.000000
# 2 -0.007091 0.010209 -0.003255 0.000000 0.000000 0.000000
# 3 0.000181 -0.003255 0.016677 0.000000 0.000000 0.000000
# 4 0.000000 0.000000 0.000000 0.034132 0.000000 0.000000
# 5 0.000000 0.000000 0.000000 0.000000 0.013521 0.000000
# 6 0.000000 0.000000 0.000000 0.000000 0.000000 0.401457
#
#
# Mechanical properties :
#
#
# Convention : Reuss Voigt Hill
#
# Bulk Modulus (GPa) = 30.02117 41.26923 35.64520
# Shear Modulus (GPa) = 9.36009 32.85091 21.10550
#
# Velocity S-wave (km/s) = 2.13300 3.99599 3.20294
# Velocity P-wave (km/s) = 4.54518 6.43043 5.56817
#
# Compressibility (1/GPa) = 0.03330982
#
# Stress axis : x y z
#
# Youngs Moduli (GPa) = 37.37725 97.95404 59.96180
#
# Poissons Ratio (x) = 0.69456 -0.01083
# Poissons Ratio (y) = 0.26503 0.19519
# Poissons Ratio (z) = -0.00675 0.31886
#
# Static dielectric constant tensor:
#      x y z
#    x 1.729400 0.000000 0.000000 
#    y 0.000000 1.772050 0.000000 
#    z 0.000000 0.000000 1.720550 
# 
# From -- ./inp_files/27589.got.cif
#   From: 2010.05.17/outbox.cif.g08.bks.cpg/sg67_14_cif.got.tgz:27589.got - 2010.06.03 18:28:57.
