data_PCOD9503466
_publ_section_title
;
Structure prediction by ZEFSAII (Michael W. Deem and Ramdas Pophale) SiO2 
 PCOD9503466
Probable space group: C M M A
;
_chemical_formula_sum "Si O2"
_cell_formula_units_Z 116
_cell_length_a 8.852770
_cell_length_b 30.620014
_cell_length_c 24.364934
_cell_angle_alpha 90.000000
_cell_angle_beta 90.000000
_cell_angle_gamma 90.000000
_cell_volume 6604.649960
_symmetry_space_group_name_H-M "C M M A"
_symmetry_group_IT_number 67
_symmetry_cell_setting 'orthorhombic'
loop_
_space_group_symop_operation_xyz
x,y,z
-x,1/2-y,z
x,-y,-z
-x,1/2+y,-z
-x,-y,-z
x,1/2+y,-z
-x,y,z
x,1/2-y,z
1/2+x,1/2+y,z
1/2-x,-y,z
1/2+x,1/2-y,-z
1/2-x,y,-z
1/2-x,1/2-y,-z
1/2+x,y,-z
1/2-x,1/2+y,z
1/2+x,-y,z
loop_
_atom_site_type_symbol
_atom_site_label
_atom_site_fract_x
_atom_site_fract_y
_atom_site_fract_z
Si Si1 0.500000 0.750000 0.923318
Si Si2 0.166952 0.160788 0.941921
Si Si3 0.818799 0.452873 0.643419
Si Si4 0.179603 0.801296 0.631371
Si Si5 0.179536 0.301564 0.751039
Si Si6 0.818449 0.047654 0.770138
Si Si7 0.679780 0.871298 0.166760
Si Si8 0.181805 0.376340 0.559977
O O1 0.629231 0.710945 0.925555
O O2 0.261915 0.138341 0.894242
O O3 0.000000 0.139784 0.946377
O O4 0.250000 0.159951 0.000000
O O5 0.750000 0.500000 0.630131
O O6 0.778051 0.441711 0.706437
O O7 0.772329 0.415494 0.601054
O O8 0.000000 0.456310 0.641370
O O9 0.203425 0.750000 0.619373
O O10 0.255245 0.810268 0.690471
O O11 0.254651 0.831988 0.586292
O O12 0.000000 0.809114 0.634532
O O13 0.201480 0.250000 0.763006
O O14 0.260603 0.331961 0.794843
O O15 0.000000 0.310251 0.752025
O O16 0.750763 0.084547 0.808948
O O17 0.000000 0.046636 0.774329
O O18 0.750000 0.000000 0.781835
O O19 0.500000 0.873376 0.168745
O O20 0.250000 0.383220 0.500000
O O21 0.000000 0.374752 0.557464
#
# Coordination Sequence:
#
# PCOD9503466 Si02
#       8
#     4  16  16  16  16  16  16  16
#     4   8  22  36  62  80 118 158 210 240 292 332
#     4  10  21  38  57  83 115 158 200 244 287 338
#     4   9  20  37  59  84 111 142 178 221 276 339
#     4  10  21  38  58  80 107 140 182 230 282 339
#     4  10  21  36  55  80 113 150 187 229 284 343
#     4  10  20  38  62  88 115 147 187 235 291 347
#     4  12  24  36  55  85 119 155 195 242 285 337
#     4  11  23  38  56  80 109 144 186 228 275 330
#
# _framework density 17.563383000000002
#
# number of rings (size 3 to 8) (size 9 to 14) (size 15 to 20)
#    0.414    1.379    0.000    4.345    0.966    4.966 
#    0.000    1.379    0.000    0.414    0.000    2.897 
#    0.000    0.000    0.000    0.000    0.000    0.000 
#
# Total GULP energy -323352.647097 kJ/mol
# GULP energy per Si atom -5575.045640 kJ/mol
# Density = 1.752341 g / cm^3
# Si number density = 17.563383 Si / 1000 Ang^3
#
#
#
# Elastic Constant Matrix: (Units=GPa)
#
#
# Indices 1 2 3 4 5 6 
#
# 1 106.0078 63.7886 58.2834 0.0000 0.0000 0.0000
# 2 63.7886 94.0325 83.4371 0.0000 0.0000 0.0000
# 3 58.2834 83.4371 98.1894 0.0000 0.0000 0.0000
# 4 0.0000 0.0000 0.0000 -12.7042 0.0000 0.0000
# 5 0.0000 0.0000 0.0000 0.0000 24.3014 0.0000
# 6 0.0000 0.0000 0.0000 0.0000 0.0000 32.0291
#
#
#
# Elastic Compliance Matrix: (Units=1/GPa)
#
#
# Indices 1 2 3 4 5 6 
#
# 1 0.015970 -0.009846 -0.001112 0.000000 0.000000 0.000000
# 2 -0.009846 0.049302 -0.036050 0.000000 0.000000 0.000000
# 3 -0.001112 -0.036050 0.041479 0.000000 0.000000 0.000000
# 4 0.000000 0.000000 0.000000 -0.078714 0.000000 0.000000
# 5 0.000000 0.000000 0.000000 0.000000 0.041150 0.000000
# 6 0.000000 0.000000 0.000000 0.000000 0.000000 0.031222
#
#
# Mechanical properties :
#
#
# Convention : Reuss Voigt Hill
#
# Bulk Modulus (GPa) = 78.53823 78.80531 78.67177
# Shear Modulus (GPa) = 25.16736 14.90666 20.03701
#
# Velocity S-wave (km/s) = 3.78953 2.91647 3.38130
# Velocity P-wave (km/s) = 7.99759 7.50383 7.75465
#
# Compressibility (1/GPa) = 0.01273265
#
# Stress axis : x y z
#
# Youngs Moduli (GPa) = 62.61857 20.28304 24.10875
#
# Poissons Ratio (x) = 0.19971 0.02682
# Poissons Ratio (y) = 0.61656 0.86913
# Poissons Ratio (z) = 0.06966 0.73121
#
# Static dielectric constant tensor:
#      x y z
#    x 1.588890 0.000000 0.000000 
#    y 0.000000 1.579260 0.000000 
#    z 0.000000 0.000000 1.582230 
# 
# From -- ./inp_files/41254.got.cif
#   From: 2010.05.17/outbox.cif.g08.bks.cpg/sg67_21_cif.got.tgz:41254.got - 2010.06.03 18:28:57.
