data_PCOD9503848
_publ_section_title
;
Structure prediction by ZEFSAII (Michael W. Deem and Ramdas Pophale) SiO2 
 PCOD9503848
Probable space group: C M M A
;
_chemical_formula_sum "Si O2"
_cell_formula_units_Z 52
_cell_length_a 33.107253
_cell_length_b 14.005270
_cell_length_c 6.694880
_cell_angle_alpha 90.000000
_cell_angle_beta 90.000000
_cell_angle_gamma 90.000000
_cell_volume 3104.255294
_symmetry_space_group_name_H-M "C M M A"
_symmetry_group_IT_number 67
_symmetry_cell_setting 'orthorhombic'
loop_
_space_group_symop_operation_xyz
x,y,z
-x,1/2-y,z
x,-y,-z
-x,1/2+y,-z
-x,-y,-z
x,1/2+y,-z
-x,y,z
x,1/2-y,z
1/2+x,1/2+y,z
1/2-x,-y,z
1/2+x,1/2-y,-z
1/2-x,y,-z
1/2-x,1/2-y,-z
1/2+x,y,-z
1/2-x,1/2+y,z
1/2+x,-y,z
loop_
_atom_site_type_symbol
_atom_site_label
_atom_site_fract_x
_atom_site_fract_y
_atom_site_fract_z
Si Si1 0.651769 0.750000 0.790306
Si Si2 0.000000 0.250000 0.138814
Si Si3 0.056079 0.750000 0.239860
Si Si4 0.705107 0.250000 0.595317
Si Si5 0.000000 0.114024 0.513410
Si Si6 0.203810 0.111433 0.048314
O O1 0.603906 0.750000 0.774024
O O2 0.672200 0.750000 0.575703
O O3 0.670587 0.661386 0.910813
O O4 0.000000 0.339267 0.291971
O O5 0.962714 0.250000 0.983296
O O6 0.037767 0.840507 0.362876
O O7 0.750000 0.250000 0.500000
O O8 0.698819 0.344274 0.731523
O O9 0.000000 0.000000 0.500000
O O10 0.250000 0.140604 0.000000
O O11 0.201405 0.000000 0.000000
#
# Coordination Sequence:
#
# PCOD9503848 Si02
#       6
#     8   4   8   8   8  16
#     4  11  21  39  55  86 120 146 194 248 282 340
#     4   8  18  40  64  76 120 154 170 226 292 342
#     4   9  21  37  58  90 114 148 189 232 291 341
#     4  11  19  37  61  75 112 162 187 239 298 323
#     4   9  19  39  62  88 114 149 191 223 280 366
#     4  10  21  37  55  81 114 155 202 235 281 351
#
# _framework density 16.751199
#
# number of rings (size 3 to 8) (size 9 to 14) (size 15 to 20)
#    0.000    2.462    3.077    0.923    0.000    8.615 
#   11.077    0.000    0.000    0.000    0.000    0.000 
#    0.000    0.000    0.000    0.000    0.000    0.000 
#
# Total GULP energy -144773.393891 kJ/mol
# GULP energy per Si atom -5568.207457 kJ/mol
# Density = 1.671307 g / cm^3
# Si number density = 16.751199 Si / 1000 Ang^3
#
#
#
# Elastic Constant Matrix: (Units=GPa)
#
#
# Indices 1 2 3 4 5 6 
#
# 1 190.8652 59.4417 79.6201 0.0000 0.0000 0.0000
# 2 59.4417 164.3192 64.4371 0.0000 0.0000 0.0000
# 3 79.6201 64.4371 161.5368 0.0000 0.0000 0.0000
# 4 0.0000 0.0000 0.0000 1.1800 0.0000 0.0000
# 5 0.0000 0.0000 0.0000 0.0000 15.5891 0.0000
# 6 0.0000 0.0000 0.0000 0.0000 0.0000 16.5059
#
#
#
# Elastic Compliance Matrix: (Units=1/GPa)
#
#
# Indices 1 2 3 4 5 6 
#
# 1 0.006845 -0.001367 -0.002829 0.000000 0.000000 0.000000
# 2 -0.001367 0.007487 -0.002313 0.000000 0.000000 0.000000
# 3 -0.002829 -0.002313 0.008507 0.000000 0.000000 0.000000
# 4 0.000000 0.000000 0.000000 0.847437 0.000000 0.000000
# 5 0.000000 0.000000 0.000000 0.000000 0.064147 0.000000
# 6 0.000000 0.000000 0.000000 0.000000 0.000000 0.060584
#
#
# Mechanical properties :
#
#
# Convention : Reuss Voigt Hill
#
# Bulk Modulus (GPa) = 101.80482 102.63544 102.22013
# Shear Modulus (GPa) = 4.94413 27.53649 16.24031
#
# Velocity S-wave (km/s) = 1.71986 4.05884 3.11706
# Velocity P-wave (km/s) = 8.05298 9.13067 8.60870
#
# Compressibility (1/GPa) = 0.00982272
#
# Stress axis : x y z
#
# Youngs Moduli (GPa) = 146.09324 133.56154 117.54577
#
# Poissons Ratio (x) = 0.18257 0.33248
# Poissons Ratio (y) = 0.19970 0.27187
# Poissons Ratio (z) = 0.41323 0.30891
#
# Static dielectric constant tensor:
#      x y z
#    x 1.559280 0.000000 0.000000 
#    y 0.000000 1.547620 0.000000 
#    z 0.000000 0.000000 1.565040 
# 
# From -- ./inp_files/1464.got.cif
#   From: 2010.05.17/outbox.cif.g08.bks.cpg/sg67_1_cif.got.tgz:1464.got - 2010.06.03 18:28:57.
