data_PCOD9503650
_publ_section_title
;
Structure prediction by ZEFSAII (Michael W. Deem and Ramdas Pophale) SiO2 
 PCOD9503650
Probable space group: C M M A
;
_chemical_formula_sum "Si O2"
_cell_formula_units_Z 88
_cell_length_a 22.383806
_cell_length_b 18.439869
_cell_length_c 11.855689
_cell_angle_alpha 90.000000
_cell_angle_beta 90.000000
_cell_angle_gamma 90.000000
_cell_volume 4893.488397
_symmetry_space_group_name_H-M "C M M A"
_symmetry_group_IT_number 67
_symmetry_cell_setting 'orthorhombic'
loop_
_space_group_symop_operation_xyz
x,y,z
-x,1/2-y,z
x,-y,-z
-x,1/2+y,-z
-x,-y,-z
x,1/2+y,-z
-x,y,z
x,1/2-y,z
1/2+x,1/2+y,z
1/2-x,-y,z
1/2+x,1/2-y,-z
1/2-x,y,-z
1/2-x,1/2-y,-z
1/2+x,y,-z
1/2-x,1/2+y,z
1/2+x,-y,z
loop_
_atom_site_type_symbol
_atom_site_label
_atom_site_fract_x
_atom_site_fract_y
_atom_site_fract_z
Si Si1 0.750000 0.401980 0.500000
Si Si2 0.431048 0.568391 0.664822
Si Si3 0.824471 0.664579 0.297391
Si Si4 0.566463 0.331777 0.553252
Si Si5 0.650220 0.574321 0.319954
Si Si6 0.263583 0.414656 0.871454
O O1 0.795732 0.357937 0.581110
O O2 0.705562 0.439643 0.592362
O O3 0.500000 0.561753 0.702123
O O4 0.387498 0.625354 0.725844
O O5 0.432671 0.605572 0.541222
O O6 0.395653 0.492608 0.669280
O O7 0.829665 0.750000 0.291773
O O8 0.779034 0.632977 0.206456
O O9 0.500000 0.333645 0.604227
O O10 0.574917 0.250000 0.506634
O O11 0.617403 0.353257 0.639338
O O12 0.673070 0.587439 0.193145
O O13 0.250000 0.500000 0.863549
O O14 0.250000 0.393430 0.000000
#
# Coordination Sequence:
#
# PCOD9503650 Si02
#       6
#     8  16  16  16  16  16
#     4  10  23  33  54  84 120 148 184 230 282 346
#     4  11  22  35  54  84 118 157 194 228 274 338
#     4  11  22  37  58  85 116 150 186 232 284 344
#     4  10  21  35  52  80 123 164 192 227 278 340
#     4  11  21  35  58  84 115 150 193 237 283 340
#     4  10  22  41  62  82 110 147 189 239 294 340
#
# _framework density 17.983080999999999
#
# number of rings (size 3 to 8) (size 9 to 14) (size 15 to 20)
#    0.000    1.455    3.636    1.909    0.000    6.545 
#    0.000    0.000    0.000    3.273    0.000    0.000 
#    0.000    0.000    0.000    0.000    0.000    0.000 
#
# Total GULP energy -245161.397023 kJ/mol
# GULP energy per Si atom -5571.849932 kJ/mol
# Density = 1.794215 g / cm^3
# Si number density = 17.983081 Si / 1000 Ang^3
#
#
#
# Elastic Constant Matrix: (Units=GPa)
#
#
# Indices 1 2 3 4 5 6 
#
# 1 123.4543 57.6770 25.2420 0.0000 0.0000 0.0000
# 2 57.6770 88.7720 32.2178 0.0000 0.0000 0.0000
# 3 25.2420 32.2178 82.9022 0.0000 0.0000 0.0000
# 4 0.0000 0.0000 0.0000 11.6557 0.0000 0.0000
# 5 0.0000 0.0000 0.0000 0.0000 14.1639 0.0000
# 6 0.0000 0.0000 0.0000 0.0000 0.0000 27.0393
#
#
#
# Elastic Compliance Matrix: (Units=1/GPa)
#
#
# Indices 1 2 3 4 5 6 
#
# 1 0.011666 -0.007323 -0.000706 0.000000 0.000000 0.000000
# 2 -0.007323 0.017712 -0.004653 0.000000 0.000000 0.000000
# 3 -0.000706 -0.004653 0.014086 0.000000 0.000000 0.000000
# 4 0.000000 0.000000 0.000000 0.085795 0.000000 0.000000
# 5 0.000000 0.000000 0.000000 0.000000 0.070602 0.000000
# 6 0.000000 0.000000 0.000000 0.000000 0.000000 0.036983
#
#
# Mechanical properties :
#
#
# Convention : Reuss Voigt Hill
#
# Bulk Modulus (GPa) = 55.25483 58.37801 56.81642
# Shear Modulus (GPa) = 18.63986 22.57121 20.60554
#
# Velocity S-wave (km/s) = 3.22300 3.54663 3.38868
# Velocity P-wave (km/s) = 6.68154 7.02173 6.85375
#
# Compressibility (1/GPa) = 0.01809797
#
# Stress axis : x y z
#
# Youngs Moduli (GPa) = 85.71959 56.45946 70.99345
#
# Poissons Ratio (x) = 0.41347 0.05012
# Poissons Ratio (y) = 0.62776 0.33036
# Poissons Ratio (z) = 0.06052 0.26273
#
# Static dielectric constant tensor:
#      x y z
#    x 1.660010 0.000000 0.000000 
#    y 0.000000 1.632900 0.000000 
#    z 0.000000 0.000000 1.632940 
# 
# From -- ./inp_files/20662.got.cif
#   From: 2010.05.17/outbox.cif.g08.bks.cpg/sg67_11_cif.got.tgz:20662.got - 2010.06.03 18:28:57.
