data_PCOD9503170
_publ_section_title
;
Structure prediction by ZEFSAII (Michael W. Deem and Ramdas Pophale) SiO2 
 PCOD9503170
Probable space group: C M M A
;
_chemical_formula_sum "Si O2"
_cell_formula_units_Z 80
_cell_length_a 15.056113
_cell_length_b 23.350311
_cell_length_c 11.761699
_cell_angle_alpha 90.000000
_cell_angle_beta 90.000000
_cell_angle_gamma 90.000000
_cell_volume 4135.000780
_symmetry_space_group_name_H-M "C M M A"
_symmetry_group_IT_number 67
_symmetry_cell_setting 'orthorhombic'
loop_
_space_group_symop_operation_xyz
x,y,z
-x,1/2-y,z
x,-y,-z
-x,1/2+y,-z
-x,-y,-z
x,1/2+y,-z
-x,y,z
x,1/2-y,z
1/2+x,1/2+y,z
1/2-x,-y,z
1/2+x,1/2-y,-z
1/2-x,y,-z
1/2-x,1/2-y,-z
1/2+x,y,-z
1/2-x,1/2+y,z
1/2+x,-y,z
loop_
_atom_site_type_symbol
_atom_site_label
_atom_site_fract_x
_atom_site_fract_y
_atom_site_fract_z
Si Si1 0.601834 0.871085 0.231100
Si Si2 0.746209 0.932842 0.635970
Si Si3 0.897069 0.637034 0.219536
Si Si4 0.100503 0.750000 0.847066
Si Si5 0.335913 0.750000 0.912333
Si Si6 0.356173 0.567395 0.999939
O O1 0.500000 0.868377 0.270587
O O2 0.665780 0.903182 0.316239
O O3 0.639968 0.808177 0.201679
O O4 0.604686 0.904182 0.111825
O O5 0.750000 0.931498 0.500000
O O6 0.663477 0.896468 0.687652
O O7 0.750000 0.000000 0.673108
O O8 0.851760 0.694722 0.167384
O O9 0.000000 0.647898 0.254528
O O10 0.896740 0.595024 0.111507
O O11 0.000000 0.750000 0.805127
O O12 0.095040 0.750000 0.983354
O O13 0.250000 0.750000 0.000000
O O14 0.370131 0.500000 0.000000
O O15 0.250000 0.578626 0.000000
#
# Coordination Sequence:
#
# PCOD9503170 Si02
#       6
#    16  16  16   8   8  16
#     4  11  22  39  64  93 125 163 210 258 315 387
#     4  11  26  47  66  87 121 168 222 275 327 384
#     4  12  24  40  64  97 132 167 214 267 324 388
#     4  10  20  36  58  91 129 163 196 238 302 381
#     4  12  22  38  64  95 137 177 204 248 314 389
#     4  11  21  35  57  90 133 169 202 253 320 392
#
# _framework density 19.347033
#
# number of rings (size 3 to 8) (size 9 to 14) (size 15 to 20)
#    0.000    0.800    4.000    4.500    0.000    4.800 
#    0.000    4.000    0.000    2.400    0.000    0.000 
#    0.000    0.000    0.000    0.000    0.000    0.000 
#
# Total GULP energy -223291.994607 kJ/mol
# GULP energy per Si atom -5582.299865 kJ/mol
# Density = 1.930300 g / cm^3
# Si number density = 19.347033 Si / 1000 Ang^3
#
#
#
# Elastic Constant Matrix: (Units=GPa)
#
#
# Indices 1 2 3 4 5 6 
#
# 1 140.1419 71.2832 39.1850 0.0000 0.0000 0.0000
# 2 71.2832 145.8509 50.9646 0.0000 0.0000 0.0000
# 3 39.1850 50.9646 84.0719 0.0000 0.0000 0.0000
# 4 0.0000 0.0000 0.0000 43.1496 0.0000 0.0000
# 5 0.0000 0.0000 0.0000 0.0000 -35.7097 0.0000
# 6 0.0000 0.0000 0.0000 0.0000 0.0000 23.9675
#
#
#
# Elastic Compliance Matrix: (Units=1/GPa)
#
#
# Indices 1 2 3 4 5 6 
#
# 1 0.009782 -0.004044 -0.002108 0.000000 0.000000 0.000000
# 2 -0.004044 0.010371 -0.004402 0.000000 0.000000 0.000000
# 3 -0.002108 -0.004402 0.015545 0.000000 0.000000 0.000000
# 4 0.000000 0.000000 0.000000 0.023175 0.000000 0.000000
# 5 0.000000 0.000000 0.000000 0.000000 -0.028004 0.000000
# 6 0.000000 0.000000 0.000000 0.000000 0.000000 0.041723
#
#
# Mechanical properties :
#
#
# Convention : Reuss Voigt Hill
#
# Bulk Modulus (GPa) = 68.53683 76.99224 72.76454
# Shear Modulus (GPa) = 50.72788 20.19027 35.45907
#
# Velocity S-wave (km/s) = 5.12610 3.23396 4.28576
# Velocity P-wave (km/s) = 8.39868 7.33665 7.88556
#
# Compressibility (1/GPa) = 0.01459070
#
# Stress axis : x y z
#
# Youngs Moduli (GPa) = 102.22698 96.42097 64.32780
#
# Poissons Ratio (x) = 0.38997 0.13558
# Poissons Ratio (y) = 0.41346 0.28317
# Poissons Ratio (z) = 0.21545 0.42444
#
# Static dielectric constant tensor:
#      x y z
#    x 1.810570 0.000000 0.000000 
#    y 0.000000 1.704430 0.000000 
#    z 0.000000 0.000000 1.623390 
# 
# From -- ./inp_files/18011.got.cif
#   From: 2010.05.17/outbox.cif.g08.bks.cpg/sg67_10_cif.got.tgz:18011.got - 2010.06.03 18:28:57.
