data_PCOD9503522
_publ_section_title
;
Structure prediction by ZEFSAII (Michael W. Deem and Ramdas Pophale) SiO2 
 PCOD9503522
Probable space group: C M M A
;
_chemical_formula_sum "Si O2"
_cell_formula_units_Z 96
_cell_length_a 14.517914
_cell_length_b 19.807962
_cell_length_c 15.177904
_cell_angle_alpha 90.000000
_cell_angle_beta 90.000000
_cell_angle_gamma 90.000000
_cell_volume 4364.714237
_symmetry_space_group_name_H-M "C M M A"
_symmetry_group_IT_number 67
_symmetry_cell_setting 'orthorhombic'
loop_
_space_group_symop_operation_xyz
x,y,z
-x,1/2-y,z
x,-y,-z
-x,1/2+y,-z
-x,-y,-z
x,1/2+y,-z
-x,y,z
x,1/2-y,z
1/2+x,1/2+y,z
1/2-x,-y,z
1/2+x,1/2-y,-z
1/2-x,y,-z
1/2-x,1/2-y,-z
1/2+x,y,-z
1/2-x,1/2+y,z
1/2+x,-y,z
loop_
_atom_site_type_symbol
_atom_site_label
_atom_site_fract_x
_atom_site_fract_y
_atom_site_fract_z
Si Si1 0.107336 0.369553 0.313671
Si Si2 0.212460 0.750000 0.597100
Si Si3 0.892451 0.515080 0.400870
Si Si4 0.613305 0.670619 0.928589
Si Si5 0.396403 0.397785 0.238749
Si Si6 0.093908 0.750000 0.313747
Si Si7 0.389219 0.329439 0.873410
O O1 0.156581 0.316007 0.375788
O O2 0.111800 0.443573 0.352898
O O3 0.145372 0.366545 0.213996
O O4 0.000000 0.349486 0.309406
O O5 0.250000 0.750000 0.500000
O O6 0.306836 0.750000 0.648040
O O7 0.855823 0.500000 0.500000
O O8 0.853457 0.567124 0.326407
O O9 0.000000 0.536819 0.414476
O O10 0.500000 0.670276 0.926192
O O11 0.640153 0.750000 0.912125
O O12 0.645202 0.613556 0.858643
O O13 0.643301 0.654066 0.028443
O O14 0.500000 0.429094 0.229594
O O15 0.409073 0.319241 0.261473
O O16 0.000000 0.750000 0.371919
O O17 0.500000 0.338652 0.876661
O O18 0.371562 0.250000 0.858205
#
# Coordination Sequence:
#
# PCOD9503522 Si02
#       7
#    16   8  16  16  16   8  16
#     4  10  20  39  61  83 117 159 197 245 300 354
#     4  12  27  39  57  90 116 145 202 257 295 355
#     4   9  19  33  54  81 112 156 204 240 292 363
#     4   8  12  21  44  81 116 145 190 243 288 344
#     4   9  16  31  54  82 113 154 197 241 294 345
#     4  10  22  39  61  84 117 151 187 246 308 348
#     4   8  13  24  48  80 112 151 189 229 290 353
#
# _framework density 21.994567
#
# number of rings (size 3 to 8) (size 9 to 14) (size 15 to 20)
#    0.000    2.833    1.667    1.250    2.333    0.667 
#    0.000    1.667    0.000    7.000    0.000    0.000 
#    0.000    2.667    0.000    1.000    0.000    1.000 
#
# Total GULP energy -267299.122624 kJ/mol
# GULP energy per Si atom -5568.731721 kJ/mol
# Density = 2.194451 g / cm^3
# Si number density = 21.994567 Si / 1000 Ang^3
#
#
#
# Elastic Constant Matrix: (Units=GPa)
#
#
# Indices 1 2 3 4 5 6 
#
# 1 49.8642 6.9561 14.0285 0.0000 0.0000 0.0000
# 2 6.9561 59.9820 58.3140 0.0000 0.0000 0.0000
# 3 14.0285 58.3140 212.0998 0.0000 0.0000 0.0000
# 4 0.0000 0.0000 0.0000 42.7996 0.0000 0.0000
# 5 0.0000 0.0000 0.0000 0.0000 11.8097 0.0000
# 6 0.0000 0.0000 0.0000 0.0000 0.0000 -10.1480
#
#
#
# Elastic Compliance Matrix: (Units=1/GPa)
#
#
# Indices 1 2 3 4 5 6 
#
# 1 0.020526 -0.001447 -0.000960 0.000000 0.000000 0.000000
# 2 -0.001447 0.022856 -0.006188 0.000000 0.000000 0.000000
# 3 -0.000960 -0.006188 0.006480 0.000000 0.000000 0.000000
# 4 0.000000 0.000000 0.000000 0.023365 0.000000 0.000000
# 5 0.000000 0.000000 0.000000 0.000000 0.084676 0.000000
# 6 0.000000 0.000000 0.000000 0.000000 0.000000 -0.098542
#
#
# Mechanical properties :
#
#
# Convention : Reuss Voigt Hill
#
# Bulk Modulus (GPa) = 30.60813 53.39369 42.00091
# Shear Modulus (GPa) = 57.18133 25.06876 41.12505
#
# Velocity S-wave (km/s) = 5.10435 3.37971 4.32879
# Velocity P-wave (km/s) = 6.97751 6.28955 6.64244
#
# Compressibility (1/GPa) = 0.03267105
#
# Stress axis : x y z
#
# Youngs Moduli (GPa) = 48.71781 43.75309 154.33122
#
# Poissons Ratio (x) = 0.06333 0.14811
# Poissons Ratio (y) = 0.07052 0.95502
# Poissons Ratio (z) = 0.04675 0.27075
#
# Static dielectric constant tensor:
#      x y z
#    x 1.855800 0.000000 0.000000 
#    y 0.000000 1.743390 0.000000 
#    z 0.000000 0.000000 1.841950 
# 
# From -- ./inp_files/27293.got.cif
#   From: 2010.05.17/outbox.cif.g08.bks.cpg/sg67_14_cif.got.tgz:27293.got - 2010.06.03 18:28:57.
