data_PCOD9503942
_publ_section_title
;
Structure prediction by ZEFSAII (Michael W. Deem and Ramdas Pophale) SiO2 
 PCOD9503942
Probable space group: C M M A
;
_chemical_formula_sum "Si O2"
_cell_formula_units_Z 112
_cell_length_a 16.377804
_cell_length_b 15.895948
_cell_length_c 18.631125
_cell_angle_alpha 90.000000
_cell_angle_beta 90.000000
_cell_angle_gamma 90.000000
_cell_volume 4850.440511
_symmetry_space_group_name_H-M "C M M A"
_symmetry_group_IT_number 67
_symmetry_cell_setting 'orthorhombic'
loop_
_space_group_symop_operation_xyz
x,y,z
-x,1/2-y,z
x,-y,-z
-x,1/2+y,-z
-x,-y,-z
x,1/2+y,-z
-x,y,z
x,1/2-y,z
1/2+x,1/2+y,z
1/2-x,-y,z
1/2+x,1/2-y,-z
1/2-x,y,-z
1/2-x,1/2-y,-z
1/2+x,y,-z
1/2-x,1/2+y,z
1/2+x,-y,z
loop_
_atom_site_type_symbol
_atom_site_label
_atom_site_fract_x
_atom_site_fract_y
_atom_site_fract_z
Si Si1 0.591563 0.420202 0.347727
Si Si2 0.908466 0.879586 0.652134
Si Si3 0.091861 0.343239 0.097133
Si Si4 0.254118 0.098537 0.101518
Si Si5 0.255197 0.845842 0.738794
Si Si6 0.912283 0.031080 0.917164
Si Si7 0.154904 0.151253 0.506686
O O1 0.500000 0.389070 0.328518
O O2 0.591855 0.520151 0.338867
O O3 0.668652 0.384186 0.304251
O O4 0.609820 0.398468 0.430670
O O5 0.830007 0.847763 0.695664
O O6 0.889972 0.858866 0.569081
O O7 0.000000 0.849591 0.672451
O O8 0.093562 0.250000 0.134683
O O9 0.183254 0.348459 0.063656
O O10 0.094737 0.441072 0.126123
O O11 0.000000 0.342991 0.063299
O O12 0.242104 0.108559 0.186161
O O13 0.349988 0.107315 0.091263
O O14 0.250000 0.000000 0.080138
O O15 0.275615 0.750000 0.755043
O O16 0.000000 0.064440 0.898080
O O17 0.910747 0.000000 0.000000
O O18 0.156153 0.250000 0.526794
O O19 0.250000 0.123974 0.500000
#
# Coordination Sequence:
#
# PCOD9503942 Si02
#       7
#    16  16  16  16  16  16  16
#     4  11  24  41  62  86 115 157 206 259 322 387
#     4  11  24  41  63  89 117 157 211 268 324 383
#     4   9  18  34  57  86 119 155 197 247 298 347
#     4  10  21  37  60  88 120 158 198 244 298 363
#     4  12  25  41  60  86 122 163 206 254 312 374
#     4   9  19  38  64  92 123 160 202 246 295 356
#     4  11  22  37  60  90 120 155 199 261 333 393
#
# _framework density 23.090686000000002
#
# number of rings (size 3 to 8) (size 9 to 14) (size 15 to 20)
#    0.000    1.571    1.429    3.429    0.000    8.286 
#    0.000    5.000    0.000    3.000    0.000    0.000 
#    0.000    0.000    0.000    0.000    0.000    0.000 
#
# Total GULP energy -311886.536959 kJ/mol
# GULP energy per Si atom -5569.402446 kJ/mol
# Density = 2.303813 g / cm^3
# Si number density = 23.090686 Si / 1000 Ang^3
#
#
#
# Elastic Constant Matrix: (Units=GPa)
#
#
# Indices 1 2 3 4 5 6 
#
# 1 231.6948 52.0871 34.5190 0.0000 0.0000 0.0000
# 2 52.0871 72.5487 13.7570 0.0000 0.0000 0.0000
# 3 34.5190 13.7570 84.7023 0.0000 0.0000 0.0000
# 4 0.0000 0.0000 0.0000 66.7044 0.0000 0.0000
# 5 0.0000 0.0000 0.0000 0.0000 -7.5664 0.0000
# 6 0.0000 0.0000 0.0000 0.0000 0.0000 0.2925
#
#
#
# Elastic Compliance Matrix: (Units=1/GPa)
#
#
# Indices 1 2 3 4 5 6 
#
# 1 0.005350 -0.003537 -0.001606 0.000000 0.000000 0.000000
# 2 -0.003537 0.016560 -0.001248 0.000000 0.000000 0.000000
# 3 -0.001606 -0.001248 0.012663 0.000000 0.000000 0.000000
# 4 0.000000 0.000000 0.000000 0.014992 0.000000 0.000000
# 5 0.000000 0.000000 0.000000 0.000000 -0.132163 0.000000
# 6 0.000000 0.000000 0.000000 0.000000 0.000000 3.418844
#
#
# Mechanical properties :
#
#
# Convention : Reuss Voigt Hill
#
# Bulk Modulus (GPa) = 45.88966 65.51913 55.70439
# Shear Modulus (GPa) = 1.48974 31.12493 16.30734
#
# Velocity S-wave (km/s) = 0.80410 3.67542 2.66038
# Velocity P-wave (km/s) = 4.55839 6.81527 5.79771
#
# Compressibility (1/GPa) = 0.02179140
#
# Stress axis : x y z
#
# Youngs Moduli (GPa) = 186.90145 60.38699 78.96842
#
# Poissons Ratio (x) = 0.21358 0.12683
# Poissons Ratio (y) = 0.66104 0.09857
# Poissons Ratio (z) = 0.30017 0.07538
#
# Static dielectric constant tensor:
#      x y z
#    x 2.186120 0.000000 0.000000 
#    y 0.000000 1.907610 0.000000 
#    z 0.000000 0.000000 1.878370 
# 
# From -- ./inp_files/41982.got.cif
#   From: 2010.05.17/outbox.cif.g08.bks.cpg/sg67_21_cif.got.tgz:41982.got - 2010.06.03 18:28:57.
