data_PCOD9503462
_publ_section_title
;
Structure prediction by ZEFSAII (Michael W. Deem and Ramdas Pophale) SiO2 
 PCOD9503462
Probable space group: C M M A
;
_chemical_formula_sum "Si O2"
_cell_formula_units_Z 96
_cell_length_a 14.598900
_cell_length_b 20.007389
_cell_length_c 15.916254
_cell_angle_alpha 90.000000
_cell_angle_beta 90.000000
_cell_angle_gamma 90.000000
_cell_volume 4648.912917
_symmetry_space_group_name_H-M "C M M A"
_symmetry_group_IT_number 67
_symmetry_cell_setting 'orthorhombic'
loop_
_space_group_symop_operation_xyz
x,y,z
-x,1/2-y,z
x,-y,-z
-x,1/2+y,-z
-x,-y,-z
x,1/2+y,-z
-x,y,z
x,1/2-y,z
1/2+x,1/2+y,z
1/2-x,-y,z
1/2+x,1/2-y,-z
1/2-x,y,-z
1/2-x,1/2-y,-z
1/2+x,y,-z
1/2-x,1/2+y,z
1/2+x,-y,z
loop_
_atom_site_type_symbol
_atom_site_label
_atom_site_fract_x
_atom_site_fract_y
_atom_site_fract_z
Si Si1 0.350627 0.324323 0.037248
Si Si2 0.726437 0.096681 0.598005
Si Si3 0.107863 0.172910 0.284348
Si Si4 0.104628 0.595566 0.878430
Si Si5 0.106554 0.453993 0.867757
Si Si6 0.607350 0.970902 0.667522
O O1 0.382071 0.250000 0.063950
O O2 0.350565 0.383474 0.105754
O O3 0.250000 0.317992 0.000000
O O4 0.400165 0.353848 0.955378
O O5 0.750000 0.095668 0.500000
O O6 0.670092 0.158513 0.635094
O O7 0.826097 0.088866 0.639901
O O8 0.659528 0.035024 0.627005
O O9 0.112059 0.250000 0.259098
O O10 0.143514 0.128914 0.205771
O O11 0.000000 0.157227 0.300863
O O12 0.144995 0.523866 0.904595
O O13 0.000000 0.579769 0.854819
O O14 0.110821 0.468840 0.768402
O O15 0.000000 0.445937 0.894207
O O16 0.500000 0.968437 0.642646
#
# Coordination Sequence:
#
# PCOD9503462 Si02
#       6
#    16  16  16  16  16  16
#     4  11  25  38  53  86 127 167 208 256 313 372
#     4  11  23  37  62  96 127 161 206 269 329 385
#     4  10  21  39  65  93 126 170 216 270 329 385
#     4  10  20  38  62  87 115 158 215 270 317 365
#     4  10  21  38  61  86 118 160 210 265 314 370
#     4  10  21  39  61  90 126 166 212 262 324 388
#
# _framework density 20.649989000000001
#
# number of rings (size 3 to 8) (size 9 to 14) (size 15 to 20)
#    0.000    1.667    1.667    3.000    2.333    7.000 
#    0.000    0.000    0.000    1.500    0.000    0.000 
#    0.000    0.000    0.000    0.000    0.000    0.000 
#
# Total GULP energy -267600.605477 kJ/mol
# GULP energy per Si atom -5575.012614 kJ/mol
# Density = 2.060299 g / cm^3
# Si number density = 20.649989 Si / 1000 Ang^3
#
#
#
# Elastic Constant Matrix: (Units=GPa)
#
#
# Indices 1 2 3 4 5 6 
#
# 1 106.3754 39.2962 32.9991 0.0000 0.0000 0.0000
# 2 39.2962 141.1160 50.4120 0.0000 0.0000 0.0000
# 3 32.9991 50.4120 100.1111 0.0000 0.0000 0.0000
# 4 0.0000 0.0000 0.0000 16.5093 0.0000 0.0000
# 5 0.0000 0.0000 0.0000 0.0000 24.6457 0.0000
# 6 0.0000 0.0000 0.0000 0.0000 0.0000 23.1334
#
#
#
# Elastic Compliance Matrix: (Units=1/GPa)
#
#
# Indices 1 2 3 4 5 6 
#
# 1 0.010983 -0.002152 -0.002536 0.000000 0.000000 0.000000
# 2 -0.002152 0.009063 -0.003854 0.000000 0.000000 0.000000
# 3 -0.002536 -0.003854 0.012766 0.000000 0.000000 0.000000
# 4 0.000000 0.000000 0.000000 0.060572 0.000000 0.000000
# 5 0.000000 0.000000 0.000000 0.000000 0.040575 0.000000
# 6 0.000000 0.000000 0.000000 0.000000 0.000000 0.043227
#
#
# Mechanical properties :
#
#
# Convention : Reuss Voigt Hill
#
# Bulk Modulus (GPa) = 63.59114 65.89078 64.74096
# Shear Modulus (GPa) = 25.06111 27.85070 26.45591
#
# Velocity S-wave (km/s) = 3.48748 3.67645 3.58321
# Velocity P-wave (km/s) = 6.86136 7.07103 6.96698
#
# Compressibility (1/GPa) = 0.01572546
#
# Stress axis : x y z
#
# Youngs Moduli (GPa) = 91.05375 110.34457 78.33472
#
# Poissons Ratio (x) = 0.23748 0.19868
# Poissons Ratio (y) = 0.19597 0.30191
# Poissons Ratio (z) = 0.23094 0.42528
#
# Static dielectric constant tensor:
#      x y z
#    x 1.494340 0.000000 0.000000 
#    y 0.000000 1.839730 0.000000 
#    z 0.000000 0.000000 1.738080 
# 
# From -- ./inp_files/27252.got.cif
#   From: 2010.05.17/outbox.cif.g08.bks.cpg/sg67_14_cif.got.tgz:27252.got - 2010.06.03 18:28:57.
