data_PCOD9503213
_publ_section_title
;
Structure prediction by ZEFSAII (Michael W. Deem and Ramdas Pophale) SiO2 
 PCOD9503213
Probable space group: C M M A
;
_chemical_formula_sum "Si O2"
_cell_formula_units_Z 72
_cell_length_a 14.077599
_cell_length_b 25.069227
_cell_length_c 10.795043
_cell_angle_alpha 90.000000
_cell_angle_beta 90.000000
_cell_angle_gamma 90.000000
_cell_volume 3809.727472
_symmetry_space_group_name_H-M "C M M A"
_symmetry_group_IT_number 67
_symmetry_cell_setting 'orthorhombic'
loop_
_space_group_symop_operation_xyz
x,y,z
-x,1/2-y,z
x,-y,-z
-x,1/2+y,-z
-x,-y,-z
x,1/2+y,-z
-x,y,z
x,1/2-y,z
1/2+x,1/2+y,z
1/2-x,-y,z
1/2+x,1/2-y,-z
1/2-x,y,-z
1/2-x,1/2-y,-z
1/2+x,y,-z
1/2-x,1/2+y,z
1/2+x,-y,z
loop_
_atom_site_type_symbol
_atom_site_label
_atom_site_fract_x
_atom_site_fract_y
_atom_site_fract_z
Si Si1 0.500000 0.012186 0.641930
Si Si2 0.313941 0.583117 0.373379
Si Si3 0.500000 0.310374 0.296230
Si Si4 0.789872 0.439658 0.875059
Si Si5 0.138707 0.308152 0.476977
Si Si6 0.500000 0.420335 0.168305
O O1 0.600819 0.042352 0.661991
O O2 0.500000 0.000000 0.500000
O O3 0.500000 0.955412 0.707724
O O4 0.250000 0.571522 0.500000
O O5 0.243050 0.585510 0.255840
O O6 0.369509 0.638738 0.396579
O O7 0.500000 0.250000 0.245641
O O8 0.412276 0.315902 0.391439
O O9 0.500000 0.357790 0.198964
O O10 0.750000 0.500000 0.869888
O O11 0.902434 0.437540 0.893665
O O12 0.750000 0.413353 0.000000
O O13 0.107634 0.250000 0.427366
O O14 0.250000 0.305014 0.500000
#
# Coordination Sequence:
#
# PCOD9503213 Si02
#       6
#     8  16   8  16  16   8
#     4  12  22  31  54  86 120 152 188 244 312 347
#     4  11  22  36  56  87 121 154 201 253 300 361
#     4  10  20  36  59  92 125 160 203 245 296 363
#     4  11  25  42  60  86 123 161 204 245 300 371
#     4   9  17  31  52  80 117 156 195 241 291 343
#     4  12  22  40  63  85 116 163 199 246 296 362
#
# _framework density 18.898990999999999
#
# number of rings (size 3 to 8) (size 9 to 14) (size 15 to 20)
#    0.000    1.333    2.222    6.000    0.000    2.667 
#    0.000    0.000    0.000    2.667    0.000    0.000 
#    0.000    0.000    0.000    0.000    0.000    0.000 
#
# Total GULP energy -200562.122742 kJ/mol
# GULP energy per Si atom -5571.170076 kJ/mol
# Density = 1.885598 g / cm^3
# Si number density = 18.898991 Si / 1000 Ang^3
#
#
#
# Elastic Constant Matrix: (Units=GPa)
#
#
# Indices 1 2 3 4 5 6 
#
# 1 143.6929 6.1129 24.1398 0.0000 0.0000 0.0000
# 2 6.1129 95.7009 -1.5210 0.0000 0.0000 0.0000
# 3 24.1398 -1.5210 80.1060 0.0000 0.0000 0.0000
# 4 0.0000 0.0000 0.0000 4.6689 0.0000 0.0000
# 5 0.0000 0.0000 0.0000 0.0000 13.5580 0.0000
# 6 0.0000 0.0000 0.0000 0.0000 0.0000 23.4855
#
#
#
# Elastic Compliance Matrix: (Units=1/GPa)
#
#
# Indices 1 2 3 4 5 6 
#
# 1 0.007355 -0.000505 -0.002226 0.000000 0.000000 0.000000
# 2 -0.000505 0.010487 0.000351 0.000000 0.000000 0.000000
# 3 -0.002226 0.000351 0.013161 0.000000 0.000000 0.000000
# 4 0.000000 0.000000 0.000000 0.214185 0.000000 0.000000
# 5 0.000000 0.000000 0.000000 0.000000 0.073757 0.000000
# 6 0.000000 0.000000 0.000000 0.000000 0.000000 0.042579
#
#
# Mechanical properties :
#
#
# Convention : Reuss Voigt Hill
#
# Bulk Modulus (GPa) = 38.10505 41.88478 39.99492
# Shear Modulus (GPa) = 13.33220 27.72700 20.52960
#
# Velocity S-wave (km/s) = 2.65890 3.83445 3.29945
# Velocity P-wave (km/s) = 5.44358 6.46642 5.97692
#
# Compressibility (1/GPa) = 0.02624324
#
# Stress axis : x y z
#
# Youngs Moduli (GPa) = 135.96706 95.35544 75.98261
#
# Poissons Ratio (x) = 0.04817 0.16913
# Poissons Ratio (y) = 0.06868 -0.02670
# Poissons Ratio (z) = 0.30265 -0.03350
#
# Static dielectric constant tensor:
#      x y z
#    x 1.749470 0.000000 0.000000 
#    y 0.000000 1.730660 0.000000 
#    z 0.000000 0.000000 1.645490 
# 
# From -- ./inp_files/8374.got.cif
#   From: 2010.05.17/outbox.cif.g08.bks.cpg/sg67_5_cif.got.tgz:8374.got - 2010.06.03 18:28:57.
