data_PCOD9503560
_publ_section_title
;
Structure prediction by ZEFSAII (Michael W. Deem and Ramdas Pophale) SiO2 
 PCOD9503560
Probable space group: C M M A
;
_chemical_formula_sum "Si O2"
_cell_formula_units_Z 64
_cell_length_a 22.745255
_cell_length_b 15.979401
_cell_length_c 9.171924
_cell_angle_alpha 90.000000
_cell_angle_beta 90.000000
_cell_angle_gamma 90.000000
_cell_volume 3333.586686
_symmetry_space_group_name_H-M "C M M A"
_symmetry_group_IT_number 67
_symmetry_cell_setting 'orthorhombic'
loop_
_space_group_symop_operation_xyz
x,y,z
-x,1/2-y,z
x,-y,-z
-x,1/2+y,-z
-x,-y,-z
x,1/2+y,-z
-x,y,z
x,1/2-y,z
1/2+x,1/2+y,z
1/2-x,-y,z
1/2+x,1/2-y,-z
1/2-x,y,-z
1/2-x,1/2-y,-z
1/2+x,y,-z
1/2-x,1/2+y,z
1/2+x,-y,z
loop_
_atom_site_type_symbol
_atom_site_label
_atom_site_fract_x
_atom_site_fract_y
_atom_site_fract_z
Si Si1 0.864872 0.750000 0.181682
Si Si2 0.750000 0.612084 0.500000
Si Si3 0.106099 0.750000 0.857986
Si Si4 0.269608 0.750000 0.263810
Si Si5 0.430772 0.914687 0.320768
Si Si6 0.126927 0.582781 0.364420
O O1 0.793033 0.750000 0.183776
O O2 0.878664 0.834511 0.269078
O O3 0.900758 0.750000 0.031409
O O4 0.724336 0.671493 0.373195
O O5 0.805427 0.571180 0.417723
O O6 0.176323 0.750000 0.842301
O O7 0.083036 0.833268 0.776542
O O8 0.500000 0.931068 0.314935
O O9 0.410702 0.902091 0.488612
O O10 0.395516 0.999762 0.282665
#
# Coordination Sequence:
#
# PCOD9503560 Si02
#       6
#     8   8   8   8  16  16
#     4  10  23  38  64  91 125 156 196 243 315 379
#     4   9  16  33  64  97 113 150 192 258 310 361
#     4  12  22  41  59  87 124 170 201 243 304 366
#     4   9  17  35  59  90 123 151 189 244 307 365
#     4  11  24  41  62  87 121 163 212 257 298 352
#     4  10  20  40  64  93 123 151 205 258 311 359
#
# _framework density 19.198540000000001
#
# number of rings (size 3 to 8) (size 9 to 14) (size 15 to 20)
#    0.000    1.750    2.500    3.750    0.000    3.000 
#    0.000    8.125    0.000    3.000    0.000    0.000 
#    0.000    0.000    0.000    0.000    0.000    0.000 
#
# Total GULP energy -178432.429786 kJ/mol
# GULP energy per Si atom -5576.013431 kJ/mol
# Density = 1.915484 g / cm^3
# Si number density = 19.198540 Si / 1000 Ang^3
#
#
#
# Elastic Constant Matrix: (Units=GPa)
#
#
# Indices 1 2 3 4 5 6 
#
# 1 109.3535 64.1490 18.2931 0.0000 0.0000 0.0000
# 2 64.1490 179.4174 62.2654 0.0000 0.0000 0.0000
# 3 18.2931 62.2654 72.9446 0.0000 0.0000 0.0000
# 4 0.0000 0.0000 0.0000 14.0029 0.0000 0.0000
# 5 0.0000 0.0000 0.0000 0.0000 11.3171 0.0000
# 6 0.0000 0.0000 0.0000 0.0000 0.0000 148.5157
#
#
#
# Elastic Compliance Matrix: (Units=1/GPa)
#
#
# Indices 1 2 3 4 5 6 
#
# 1 0.011613 -0.004464 0.000898 0.000000 0.000000 0.000000
# 2 -0.004464 0.009635 -0.007105 0.000000 0.000000 0.000000
# 3 0.000898 -0.007105 0.019549 0.000000 0.000000 0.000000
# 4 0.000000 0.000000 0.000000 0.071414 0.000000 0.000000
# 5 0.000000 0.000000 0.000000 0.000000 0.088362 0.000000
# 6 0.000000 0.000000 0.000000 0.000000 0.000000 0.006733
#
#
# Mechanical properties :
#
#
# Convention : Reuss Voigt Hill
#
# Bulk Modulus (GPa) = 51.40057 72.34780 61.87419
# Shear Modulus (GPa) = 21.26453 49.23435 35.24944
#
# Velocity S-wave (km/s) = 3.33169 5.06957 4.28956
# Velocity P-wave (km/s) = 6.45225 8.48724 7.53872
#
# Compressibility (1/GPa) = 0.01945504
#
# Stress axis : x y z
#
# Youngs Moduli (GPa) = 86.11073 103.78382 51.15357
#
# Poissons Ratio (x) = 0.46326 -0.04593
# Poissons Ratio (y) = 0.38437 0.36346
# Poissons Ratio (z) = -0.07732 0.73742
#
# Static dielectric constant tensor:
#      x y z
#    x 1.678640 0.000000 0.000000 
#    y 0.000000 1.723330 0.000000 
#    z 0.000000 0.000000 1.656400 
# 
# From -- ./inp_files/10752.got.cif
#   From: 2010.05.17/outbox.cif.g08.bks.cpg/sg67_6_cif.got.tgz:10752.got - 2010.06.03 18:28:57.
