data_PCOD9503556
_publ_section_title
;
Structure prediction by ZEFSAII (Michael W. Deem and Ramdas Pophale) SiO2 
 PCOD9503556
Probable space group: C M M A
;
_chemical_formula_sum "Si O2"
_cell_formula_units_Z 84
_cell_length_a 14.218976
_cell_length_b 25.293326
_cell_length_c 11.984035
_cell_angle_alpha 90.000000
_cell_angle_beta 90.000000
_cell_angle_gamma 90.000000
_cell_volume 4310.000609
_symmetry_space_group_name_H-M "C M M A"
_symmetry_group_IT_number 67
_symmetry_cell_setting 'orthorhombic'
loop_
_space_group_symop_operation_xyz
x,y,z
-x,1/2-y,z
x,-y,-z
-x,1/2+y,-z
-x,-y,-z
x,1/2+y,-z
-x,y,z
x,1/2-y,z
1/2+x,1/2+y,z
1/2-x,-y,z
1/2+x,1/2-y,-z
1/2-x,y,-z
1/2-x,1/2-y,-z
1/2+x,y,-z
1/2-x,1/2+y,z
1/2+x,-y,z
loop_
_atom_site_type_symbol
_atom_site_label
_atom_site_fract_x
_atom_site_fract_y
_atom_site_fract_z
Si Si1 0.176781 0.952387 0.246758
Si Si2 0.000000 0.845857 0.628173
Si Si3 0.287695 0.250000 0.372875
Si Si4 0.500000 0.750000 0.547262
Si Si5 0.500000 0.098304 0.825716
Si Si6 0.360726 0.561802 0.990026
Si Si7 0.000000 0.502868 0.636625
Si Si8 0.786517 0.862407 0.625256
O O1 0.122558 0.927794 0.140289
O O2 0.239664 0.907951 0.303366
O O3 0.096726 0.974199 0.328221
O O4 0.250000 0.000000 0.214679
O O5 0.000000 0.798641 0.539440
O O6 0.897545 0.870585 0.611580
O O7 0.000000 0.845123 0.763740
O O8 0.250000 0.250000 0.500000
O O9 0.401965 0.250000 0.382765
O O10 0.243846 0.304660 0.326904
O O11 0.500000 0.053608 0.725878
O O12 0.586814 0.090543 0.909764
O O13 0.385414 0.500000 0.000000
O O14 0.250000 0.569631 0.000000
O O15 0.000000 0.500000 0.500000
O O16 0.750000 0.864941 0.500000
#
# Coordination Sequence:
#
# PCOD9503556 Si02
#       8
#    16   8   8   4   8  16   8  16
#     4  12  25  40  60  93 126 174 214 263 326 382
#     4  12  22  38  63  93 120 157 214 262 321 372
#     4  10  20  40  62  93 120 176 216 249 315 381
#     4  12  20  40  70  90 126 162 218 278 300 392
#     4  12  24  40  63  92 119 177 220 268 322 374
#     4  11  19  39  62  81 119 161 222 265 296 371
#     4  12  27  37  54  83 131 167 206 254 321 392
#     4  11  24  39  63  92 134 167 209 258 321 394
#
# _framework density 19.489557000000001
#
# number of rings (size 3 to 8) (size 9 to 14) (size 15 to 20)
#    0.000    0.571    7.619    3.143    5.333    0.762 
#    0.000    0.000    0.000    1.143    0.000    4.000 
#    0.000    0.000    0.000    0.000    0.000    0.000 
#
# Total GULP energy -233937.877952 kJ/mol
# GULP energy per Si atom -5569.949475 kJ/mol
# Density = 1.944520 g / cm^3
# Si number density = 19.489557 Si / 1000 Ang^3
#
#
#
# Elastic Constant Matrix: (Units=GPa)
#
#
# Indices 1 2 3 4 5 6 
#
# 1 160.0744 29.7518 43.7358 0.0000 0.0000 0.0000
# 2 29.7518 78.6540 23.8641 0.0000 0.0000 0.0000
# 3 43.7358 23.8641 118.8726 0.0000 0.0000 0.0000
# 4 0.0000 0.0000 0.0000 -12.5087 0.0000 0.0000
# 5 0.0000 0.0000 0.0000 0.0000 30.1580 0.0000
# 6 0.0000 0.0000 0.0000 0.0000 0.0000 9.2798
#
#
#
# Elastic Compliance Matrix: (Units=1/GPa)
#
#
# Indices 1 2 3 4 5 6 
#
# 1 0.007245 -0.002057 -0.002253 0.000000 0.000000 0.000000
# 2 -0.002057 0.014123 -0.002078 0.000000 0.000000 0.000000
# 3 -0.002253 -0.002078 0.009658 0.000000 0.000000 0.000000
# 4 0.000000 0.000000 0.000000 -0.079944 0.000000 0.000000
# 5 0.000000 0.000000 0.000000 0.000000 0.033159 0.000000
# 6 0.000000 0.000000 0.000000 0.000000 0.000000 0.107762
#
#
# Mechanical properties :
#
#
# Convention : Reuss Voigt Hill
#
# Bulk Modulus (GPa) = 54.79469 61.36716 58.08092
# Shear Modulus (GPa) = 45.10148 22.73575 33.91862
#
# Velocity S-wave (km/s) = 4.81577 3.41920 4.17627
# Velocity P-wave (km/s) = 7.68753 6.86611 7.28840
#
# Compressibility (1/GPa) = 0.01824994
#
# Stress axis : x y z
#
# Youngs Moduli (GPa) = 138.02865 70.80861 103.53708
#
# Poissons Ratio (x) = 0.14565 0.23323
# Poissons Ratio (y) = 0.28393 0.21519
# Poissons Ratio (z) = 0.31092 0.14716
#
# Static dielectric constant tensor:
#      x y z
#    x 1.741550 0.000000 0.000000 
#    y 0.000000 1.788730 0.000000 
#    z 0.000000 0.000000 1.729120 
# 
# From -- ./inp_files/18181.got.cif
#   From: 2010.05.17/outbox.cif.g08.bks.cpg/sg67_10_cif.got.tgz:18181.got - 2010.06.03 18:28:57.
