data_PCOD9503633
_publ_section_title
;
Structure prediction by ZEFSAII (Michael W. Deem and Ramdas Pophale) SiO2 
 PCOD9503633
Probable space group: C M M A
;
_chemical_formula_sum "Si O2"
_cell_formula_units_Z 96
_cell_length_a 19.263619
_cell_length_b 8.138681
_cell_length_c 32.534030
_cell_angle_alpha 90.000000
_cell_angle_beta 90.000000
_cell_angle_gamma 90.000000
_cell_volume 5100.699862
_symmetry_space_group_name_H-M "C M M A"
_symmetry_group_IT_number 67
_symmetry_cell_setting 'orthorhombic'
loop_
_space_group_symop_operation_xyz
x,y,z
-x,1/2-y,z
x,-y,-z
-x,1/2+y,-z
-x,-y,-z
x,1/2+y,-z
-x,y,z
x,1/2-y,z
1/2+x,1/2+y,z
1/2-x,-y,z
1/2+x,1/2-y,-z
1/2-x,y,-z
1/2-x,1/2-y,-z
1/2+x,y,-z
1/2-x,1/2+y,z
1/2+x,-y,z
loop_
_atom_site_type_symbol
_atom_site_label
_atom_site_fract_x
_atom_site_fract_y
_atom_site_fract_z
Si Si1 0.330190 0.948851 0.367011
Si Si2 0.579712 0.948198 0.954341
Si Si3 0.079917 0.448086 0.800110
Si Si4 0.579792 0.448405 0.709717
Si Si5 0.169301 0.945565 0.543419
Si Si6 0.329721 0.948733 0.877341
O O1 0.332784 0.750000 0.366823
O O2 0.374169 0.008969 0.328228
O O3 0.357492 0.004583 0.412069
O O4 0.250000 0.000000 0.363276
O O5 0.500000 0.005282 0.948018
O O6 0.578666 0.750000 0.952971
O O7 0.629970 0.006853 0.918182
O O8 0.601746 0.000000 0.000000
O O9 0.078358 0.250000 0.801722
O O10 0.104670 0.498750 0.754811
O O11 0.128878 0.506835 0.836888
O O12 0.000000 0.506276 0.805173
O O13 0.500000 0.504875 0.705539
O O14 0.579749 0.250000 0.708646
O O15 0.167556 0.750000 0.543504
O O16 0.137268 0.000000 0.500000
O O17 0.250000 0.000000 0.542923
O O18 0.332424 0.750000 0.877338
O O19 0.250000 0.000000 0.876997
#
# Coordination Sequence:
#
# PCOD9503633 Si02
#       6
#    16  16  16  16  16  16
#     4   9  18  30  45  67  93 121 152 188 232 278
#     4   9  18  34  55  76  98 128 166 203 237 276
#     4   9  18  34  54  72  91 121 161 198 232 275
#     4   9  18  33  51  70  93 122 156 193 233 278
#     4   9  15  24  39  60  86 115 148 185 225 269
#     4  10  21  35  51  73 102 132 159 193 239 286
#
# _framework density 18.820945999999999
#
# number of rings (size 3 to 8) (size 9 to 14) (size 15 to 20)
#    0.000    2.833    0.000    1.500    0.000    5.667 
#    0.000    5.000    0.000    5.500    0.000    0.000 
#    0.000    0.000    0.000    0.000    0.000    4.500 
#
# Total GULP energy -267506.999910 kJ/mol
# GULP energy per Si atom -5573.062498 kJ/mol
# Density = 1.877811 g / cm^3
# Si number density = 18.820946 Si / 1000 Ang^3
#
#
#
# Elastic Constant Matrix: (Units=GPa)
#
#
# Indices 1 2 3 4 5 6 
#
# 1 75.7306 7.4637 106.3729 0.0000 0.0000 0.0000
# 2 7.4637 9.5148 18.0706 0.0000 0.0000 0.0000
# 3 106.3729 18.0706 241.5210 0.0000 0.0000 0.0000
# 4 0.0000 0.0000 0.0000 29.4307 0.0000 0.0000
# 5 0.0000 0.0000 0.0000 0.0000 40.5171 0.0000
# 6 0.0000 0.0000 0.0000 0.0000 0.0000 18.5868
#
#
#
# Elastic Compliance Matrix: (Units=1/GPa)
#
#
# Indices 1 2 3 4 5 6 
#
# 1 0.034661 0.002102 -0.015423 0.000000 0.000000 0.000000
# 2 0.002102 0.122636 -0.010102 0.000000 0.000000 0.000000
# 3 -0.015423 -0.010102 0.011689 0.000000 0.000000 0.000000
# 4 0.000000 0.000000 0.000000 0.033978 0.000000 0.000000
# 5 0.000000 0.000000 0.000000 0.000000 0.024681 0.000000
# 6 0.000000 0.000000 0.000000 0.000000 0.000000 0.053802
#
#
# Mechanical properties :
#
#
# Convention : Reuss Voigt Hill
#
# Bulk Modulus (GPa) = 8.18722 65.62009 36.90366
# Shear Modulus (GPa) = 13.54995 30.69752 22.12373
#
# Velocity S-wave (km/s) = 2.68608 4.04298 3.43225
# Velocity P-wave (km/s) = 3.73892 7.53229 5.94622
#
# Compressibility (1/GPa) = 0.12214157
#
# Stress axis : x y z
#
# Youngs Moduli (GPa) = 28.85078 8.15422 85.55050
#
# Poissons Ratio (x) = -0.01714 1.31945
# Poissons Ratio (y) = -0.06066 0.86420
# Poissons Ratio (z) = 0.44497 0.08237
#
# Static dielectric constant tensor:
#      x y z
#    x 1.623270 0.000000 0.000000 
#    y 0.000000 1.669040 0.000000 
#    z 0.000000 0.000000 1.685220 
# 
# From -- ./inp_files/44572.got.cif
#   From: 2010.05.17/outbox.cif.g08.bks.cpg/sg67_23_cif.got.tgz:44572.got - 2010.06.03 18:28:57.
