data_PCOD9504056
_publ_section_title
;
Structure prediction by ZEFSAII (Michael W. Deem and Ramdas Pophale) SiO2 
 PCOD9504056
Probable space group: C M M A
;
_chemical_formula_sum "Si O2"
_cell_formula_units_Z 100
_cell_length_a 25.600608
_cell_length_b 9.739296
_cell_length_c 21.455460
_cell_angle_alpha 90.000000
_cell_angle_beta 90.000000
_cell_angle_gamma 90.000000
_cell_volume 5349.530588
_symmetry_space_group_name_H-M "C M M A"
_symmetry_group_IT_number 67
_symmetry_cell_setting 'orthorhombic'
loop_
_space_group_symop_operation_xyz
x,y,z
-x,1/2-y,z
x,-y,-z
-x,1/2+y,-z
-x,-y,-z
x,1/2+y,-z
-x,y,z
x,1/2-y,z
1/2+x,1/2+y,z
1/2-x,-y,z
1/2+x,1/2-y,-z
1/2-x,y,-z
1/2-x,1/2-y,-z
1/2+x,y,-z
1/2-x,1/2+y,z
1/2+x,-y,z
loop_
_atom_site_type_symbol
_atom_site_label
_atom_site_fract_x
_atom_site_fract_y
_atom_site_fract_z
Si Si1 0.441115 0.908845 0.555559
Si Si2 0.197988 0.912830 0.238904
Si Si3 0.559045 0.415533 0.935621
Si Si4 0.325859 0.750000 0.434220
Si Si5 0.701978 0.250000 0.426302
Si Si6 0.339771 0.092180 0.097210
Si Si7 0.355495 0.015840 0.357690
Si Si8 0.750000 0.500000 0.000000
O O1 0.500000 0.958849 0.564594
O O2 0.442646 0.750000 0.537087
O O3 0.410269 0.924947 0.619386
O O4 0.417450 0.000000 0.500000
O O5 0.204428 0.750000 0.252771
O O6 0.183473 0.923167 0.166425
O O7 0.154343 0.977387 0.284474
O O8 0.250000 0.000000 0.251147
O O9 0.500000 0.432539 0.906490
O O10 0.566502 0.250000 0.943101
O O11 0.611627 0.485456 0.907482
O O12 0.555855 0.500000 0.000000
O O13 0.331509 0.750000 0.509430
O O14 0.263326 0.750000 0.433102
O O15 0.347420 0.623410 0.395057
O O16 0.686793 0.382624 0.387608
O O17 0.358784 0.250000 0.089389
O O18 0.292258 0.071187 0.047285
#
# Coordination Sequence:
#
# PCOD9504056 Si02
#       8
#    16  16  16   8   8  16  16   4
#     4  10  21  38  61  87 115 151 199 254 308 359
#     4  11  24  42  61  88 124 168 210 245 300 380
#     4  10  21  38  63  95 130 166 207 258 316 373
#     4  11  24  34  57  87 117 155 198 239 295 351
#     4  11  20  38  57  83 119 153 196 245 289 353
#     4  11  24  40  64  95 130 167 213 262 318 378
#     4  12  23  38  58  86 120 159 196 246 304 360
#     4  12  22  40  62  98 130 168 204 278 322 364
#
# _framework density 18.693228000000001
#
# number of rings (size 3 to 8) (size 9 to 14) (size 15 to 20)
#    0.000    1.120    3.200    3.600    2.240    3.520 
#    0.000    0.800    0.000    0.960    0.000    0.000 
#    0.000    0.000    0.000    0.000    0.000    0.000 
#
# Total GULP energy -278548.448371 kJ/mol
# GULP energy per Si atom -5570.968967 kJ/mol
# Density = 1.865068 g / cm^3
# Si number density = 18.693228 Si / 1000 Ang^3
#
#
#
# Elastic Constant Matrix: (Units=GPa)
#
#
# Indices 1 2 3 4 5 6 
#
# 1 98.3574 21.3577 23.0095 0.0000 0.0000 0.0000
# 2 21.3577 105.3610 26.7714 0.0000 0.0000 0.0000
# 3 23.0095 26.7714 111.1445 0.0000 0.0000 0.0000
# 4 0.0000 0.0000 0.0000 19.1820 0.0000 0.0000
# 5 0.0000 0.0000 0.0000 0.0000 -22.0283 0.0000
# 6 0.0000 0.0000 0.0000 0.0000 0.0000 27.8917
#
#
#
# Elastic Compliance Matrix: (Units=1/GPa)
#
#
# Indices 1 2 3 4 5 6 
#
# 1 0.010981 -0.001756 -0.001850 0.000000 0.000000 0.000000
# 2 -0.001756 0.010391 -0.002139 0.000000 0.000000 0.000000
# 3 -0.001850 -0.002139 0.009896 0.000000 0.000000 0.000000
# 4 0.000000 0.000000 0.000000 0.052132 0.000000 0.000000
# 5 0.000000 0.000000 0.000000 0.000000 -0.045396 0.000000
# 6 0.000000 0.000000 0.000000 0.000000 0.000000 0.035853
#
#
# Mechanical properties :
#
#
# Convention : Reuss Voigt Hill
#
# Bulk Modulus (GPa) = 50.56529 50.79333 50.67931
# Shear Modulus (GPa) = 54.38352 21.25739 37.82045
#
# Velocity S-wave (km/s) = 5.39961 3.37585 4.50290
# Velocity P-wave (km/s) = 8.12300 6.51354 7.36238
#
# Compressibility (1/GPa) = 0.01977641
#
# Stress axis : x y z
#
# Youngs Moduli (GPa) = 91.06518 96.24012 101.05428
#
# Poissons Ratio (x) = 0.16898 0.18699
# Poissons Ratio (y) = 0.15989 0.21619
# Poissons Ratio (z) = 0.16851 0.20589
#
# Static dielectric constant tensor:
#      x y z
#    x 1.697770 0.000000 0.000000 
#    y 0.000000 1.719320 0.000000 
#    z 0.000000 0.000000 1.645270 
# 
# From -- ./inp_files/40018.got.cif
#   From: 2010.05.17/outbox.cif.g08.bks.cpg/sg67_21_cif.got.tgz:40018.got - 2010.06.03 18:28:57.
