data_PCOD9504955
_publ_section_title
;
Structure prediction by ZEFSAII (Michael W. Deem and Ramdas Pophale) SiO2 
 PCOD9504955
Probable space group: C M M A
;
_chemical_formula_sum "Si O2"
_cell_formula_units_Z 40
_cell_length_a 24.843525
_cell_length_b 14.809228
_cell_length_c 5.010194
_cell_angle_alpha 90.000000
_cell_angle_beta 90.000000
_cell_angle_gamma 90.000000
_cell_volume 1843.317640
_symmetry_space_group_name_H-M "C M M A"
_symmetry_group_IT_number 67
_symmetry_cell_setting 'orthorhombic'
loop_
_space_group_symop_operation_xyz
x,y,z
-x,1/2-y,z
x,-y,-z
-x,1/2+y,-z
-x,-y,-z
x,1/2+y,-z
-x,y,z
x,1/2-y,z
1/2+x,1/2+y,z
1/2-x,-y,z
1/2+x,1/2-y,-z
1/2-x,y,-z
1/2-x,1/2-y,-z
1/2+x,y,-z
1/2-x,1/2+y,z
1/2+x,-y,z
loop_
_atom_site_type_symbol
_atom_site_label
_atom_site_fract_x
_atom_site_fract_y
_atom_site_fract_z
Si Si1 0.289170 0.750000 0.247987
Si Si2 0.561664 0.855372 0.576516
Si Si3 0.628485 0.403784 0.903754
O O1 0.250000 0.750000 0.500000
O O2 0.327180 0.837400 0.219673
O O3 0.250000 0.750000 0.000000
O O4 0.500000 0.878251 0.641854
O O5 0.562959 0.750000 0.489209
O O6 0.584260 0.912706 0.329555
O O7 0.599137 0.863673 0.835881
O O8 0.650641 0.500000 0.000000
#
# Coordination Sequence:
#
# PCOD9504955 Si02
#       3
#     8  16  16
#     4  12  26  48  73  94 133 180 228 296 358 402
#     4  11  22  41  69 102 145 189 224 269 339 417
#     4  12  25  44  70 103 138 178 234 285 342 413
#
# _framework density 21.700002999999999
#
# number of rings (size 3 to 8) (size 9 to 14) (size 15 to 20)
#    0.000    0.400    4.000    4.800    0.000    8.800 
#    0.000    2.000    0.000    0.000    0.000    0.000 
#    0.000    0.000    0.000    0.000    0.000    0.000 
#
# Total GULP energy -111947.530968 kJ/mol
# GULP energy per Si atom -5597.376548 kJ/mol
# Density = 2.165061 g / cm^3
# Si number density = 21.700003 Si / 1000 Ang^3
#
#
#
# Elastic Constant Matrix: (Units=GPa)
#
#
# Indices 1 2 3 4 5 6 
#
# 1 118.4589 54.7327 40.4811 0.0000 0.0000 0.0000
# 2 54.7327 136.2920 29.3723 0.0000 0.0000 0.0000
# 3 40.4811 29.3723 140.6331 0.0000 0.0000 0.0000
# 4 0.0000 0.0000 0.0000 32.2655 0.0000 0.0000
# 5 0.0000 0.0000 0.0000 0.0000 45.2697 0.0000
# 6 0.0000 0.0000 0.0000 0.0000 0.0000 7.2847
#
#
#
# Elastic Compliance Matrix: (Units=1/GPa)
#
#
# Indices 1 2 3 4 5 6 
#
# 1 0.011068 -0.003935 -0.002364 0.000000 0.000000 0.000000
# 2 -0.003935 0.009082 -0.000764 0.000000 0.000000 0.000000
# 3 -0.002364 -0.000764 0.007951 0.000000 0.000000 0.000000
# 4 0.000000 0.000000 0.000000 0.030993 0.000000 0.000000
# 5 0.000000 0.000000 0.000000 0.000000 0.022090 0.000000
# 6 0.000000 0.000000 0.000000 0.000000 0.000000 0.137274
#
#
# Mechanical properties :
#
#
# Convention : Reuss Voigt Hill
#
# Bulk Modulus (GPa) = 71.56068 71.61734 71.58901
# Shear Modulus (GPa) = 21.07553 35.01718 28.04636
#
# Velocity S-wave (km/s) = 3.11983 4.02144 3.59898
# Velocity P-wave (km/s) = 6.78429 7.39173 7.09451
#
# Compressibility (1/GPa) = 0.01397415
#
# Stress axis : x y z
#
# Youngs Moduli (GPa) = 90.35219 110.10571 125.77416
#
# Poissons Ratio (x) = 0.43329 0.29732
# Poissons Ratio (y) = 0.35555 0.09611
# Poissons Ratio (z) = 0.21359 0.08414
#
# Static dielectric constant tensor:
#      x y z
#    x 1.765340 0.000000 0.000000 
#    y 0.000000 1.631350 0.000000 
#    z 0.000000 0.000000 1.740350 
# 
# From -- ./inp_files/1067.got.cif
#   From: 2010.05.17/outbox.cif.g08.bks.cpg/sg67_1_cif.got.tgz:1067.got - 2010.06.03 18:28:57.
