data_PCOD9504993
_publ_section_title
;
Structure prediction by ZEFSAII (Michael W. Deem and Ramdas Pophale) SiO2 
 PCOD9504993
Probable space group: C M M A
;
_chemical_formula_sum "Si O2"
_cell_formula_units_Z 52
_cell_length_a 10.017057
_cell_length_b 16.658281
_cell_length_c 17.288014
_cell_angle_alpha 90.000000
_cell_angle_beta 90.000000
_cell_angle_gamma 90.000000
_cell_volume 2884.798173
_symmetry_space_group_name_H-M "C M M A"
_symmetry_group_IT_number 67
_symmetry_cell_setting 'orthorhombic'
loop_
_space_group_symop_operation_xyz
x,y,z
-x,1/2-y,z
x,-y,-z
-x,1/2+y,-z
-x,-y,-z
x,1/2+y,-z
-x,y,z
x,1/2-y,z
1/2+x,1/2+y,z
1/2-x,-y,z
1/2+x,1/2-y,-z
1/2-x,y,-z
1/2-x,1/2-y,-z
1/2+x,y,-z
1/2-x,1/2+y,z
1/2+x,-y,z
loop_
_atom_site_type_symbol
_atom_site_label
_atom_site_fract_x
_atom_site_fract_y
_atom_site_fract_z
Si Si1 0.500000 0.871437 0.322937
Si Si2 0.225369 0.750000 0.090981
Si Si3 0.227042 0.657716 0.411077
Si Si4 0.000000 0.335631 0.828059
Si Si5 0.000000 0.750000 0.815202
Si Si6 0.000000 0.937186 0.321459
O O1 0.631705 0.844553 0.368188
O O2 0.500000 0.827498 0.240492
O O3 0.500000 0.967373 0.319926
O O4 0.131668 0.824666 0.119120
O O5 0.365730 0.750000 0.134447
O O6 0.250000 0.750000 0.000000
O O7 0.176605 0.750000 0.410668
O O8 0.250000 0.633511 0.500000
O O9 0.126870 0.599325 0.366434
O O10 0.000000 0.250000 0.781317
O O11 0.000000 0.405040 0.766497
#
# Coordination Sequence:
#
# PCOD9504993 Si02
#       6
#     8   8  16   8   4   8
#     4  12  25  37  59  87 119 150 201 248 294 331
#     4   9  19  35  63  89 108 148 190 223 273 353
#     4  11  23  40  59  81 117 159 201 247 293 338
#     4   8  19  35  59  84 114 149 187 228 273 356
#     4  12  20  38  60  82 120 144 188 244 286 344
#     4  12  23  38  59  86 118 159 195 242 291 349
#
# _framework density 18.025524999999998
#
# number of rings (size 3 to 8) (size 9 to 14) (size 15 to 20)
#    0.923    0.308    1.538    6.000    0.000    6.154 
#    0.000    0.000    0.000    5.538    0.000    0.000 
#    0.000    0.000    0.000    0.000    0.000    0.000 
#
# Total GULP energy -145080.644027 kJ/mol
# GULP energy per Si atom -5580.024770 kJ/mol
# Density = 1.798450 g / cm^3
# Si number density = 18.025525 Si / 1000 Ang^3
#
#
#
# Elastic Constant Matrix: (Units=GPa)
#
#
# Indices 1 2 3 4 5 6 
#
# 1 160.7585 29.7393 84.2756 0.0000 0.0000 0.0000
# 2 29.7393 106.2386 52.2202 0.0000 0.0000 0.0000
# 3 84.2756 52.2202 169.1329 0.0000 0.0000 0.0000
# 4 0.0000 0.0000 0.0000 -6.2537 0.0000 0.0000
# 5 0.0000 0.0000 0.0000 0.0000 32.2714 0.0000
# 6 0.0000 0.0000 0.0000 0.0000 0.0000 20.5492
#
#
#
# Elastic Compliance Matrix: (Units=1/GPa)
#
#
# Indices 1 2 3 4 5 6 
#
# 1 0.008431 -0.000348 -0.004093 0.000000 0.000000 0.000000
# 2 -0.000348 0.011111 -0.003257 0.000000 0.000000 0.000000
# 3 -0.004093 -0.003257 0.008958 0.000000 0.000000 0.000000
# 4 0.000000 0.000000 0.000000 -0.159906 0.000000 0.000000
# 5 0.000000 0.000000 0.000000 0.000000 0.030987 0.000000
# 6 0.000000 0.000000 0.000000 0.000000 0.000000 0.048664
#
#
# Mechanical properties :
#
#
# Convention : Reuss Voigt Hill
#
# Bulk Modulus (GPa) = 76.32065 85.40000 80.86033
# Shear Modulus (GPa) = -156.29777 27.30636 -64.49570
#
# Velocity S-wave (km/s) = -9.32188 3.89636 -5.98815
# Velocity P-wave (km/s) = 8.56918 8.22935 1.68948
#
# Compressibility (1/GPa) = 0.01310261
#
# Stress axis : x y z
#
# Youngs Moduli (GPa) = 118.61215 89.99903 111.63329
#
# Poissons Ratio (x) = 0.03131 0.45697
# Poissons Ratio (y) = 0.04127 0.36362
# Poissons Ratio (z) = 0.48554 0.29315
#
# Static dielectric constant tensor:
#      x y z
#    x 1.621790 0.000000 0.000000 
#    y 0.000000 1.608700 0.000000 
#    z 0.000000 0.000000 1.585850 
# 
# From -- ./inp_files/25623.got.cif
#   From: 2010.05.17/outbox.cif.g08.bks.cpg/sg67_13_cif.got.tgz:25623.got - 2010.06.03 18:28:57.
