data_PCOD9504064
_publ_section_title
;
Structure prediction by ZEFSAII (Michael W. Deem and Ramdas Pophale) SiO2 
 PCOD9504064
Probable space group: C M M A
;
_chemical_formula_sum "Si O2"
_cell_formula_units_Z 68
_cell_length_a 9.584997
_cell_length_b 15.047179
_cell_length_c 22.531666
_cell_angle_alpha 90.000000
_cell_angle_beta 90.000000
_cell_angle_gamma 90.000000
_cell_volume 3249.678323
_symmetry_space_group_name_H-M "C M M A"
_symmetry_group_IT_number 67
_symmetry_cell_setting 'orthorhombic'
loop_
_space_group_symop_operation_xyz
x,y,z
-x,1/2-y,z
x,-y,-z
-x,1/2+y,-z
-x,-y,-z
x,1/2+y,-z
-x,y,z
x,1/2-y,z
1/2+x,1/2+y,z
1/2-x,-y,z
1/2+x,1/2-y,-z
1/2-x,y,-z
1/2-x,1/2-y,-z
1/2+x,y,-z
1/2-x,1/2+y,z
1/2+x,-y,z
loop_
_atom_site_type_symbol
_atom_site_label
_atom_site_fract_x
_atom_site_fract_y
_atom_site_fract_z
Si Si1 0.659784 0.146631 0.592780
Si Si2 0.157726 0.147361 0.052515
Si Si3 0.750000 0.500000 0.500000
Si Si4 0.830932 0.908284 0.161203
Si Si5 0.344329 0.143322 0.295714
O O1 0.500000 0.152165 0.611001
O O2 0.701215 0.250000 0.575342
O O3 0.672199 0.071072 0.542516
O O4 0.748590 0.116910 0.649602
O O5 0.137273 0.250000 0.035838
O O6 0.252782 0.148151 0.111308
O O7 0.000000 0.109332 0.060516
O O8 0.250000 0.104763 0.000000
O O9 0.801411 0.880137 0.229019
O O10 0.000000 0.909970 0.153696
O O11 0.750000 0.000000 0.153047
O O12 0.500000 0.106947 0.305029
O O13 0.349765 0.250000 0.297930
#
# Coordination Sequence:
#
# PCOD9504064 Si02
#       5
#    16  16   4  16  16
#     4  10  23  42  64  92 125 163 210 261 312 373
#     4  10  21  38  61  88 118 156 202 251 303 362
#     4  12  24  40  64  96 126 168 208 254 318 374
#     4  11  23  38  58  87 122 159 200 248 304 364
#     4   9  20  40  64  88 118 157 199 248 304 361
#
# _framework density 20.925146999999999
#
# number of rings (size 3 to 8) (size 9 to 14) (size 15 to 20)
#    0.000    1.882    0.000    2.824    1.647    6.588 
#    0.000    7.059    0.000    0.000    0.000    0.000 
#    0.000    0.000    0.000    0.000    0.000    0.000 
#
# Total GULP energy -189426.368553 kJ/mol
# GULP energy per Si atom -5571.363781 kJ/mol
# Density = 2.087752 g / cm^3
# Si number density = 20.925147 Si / 1000 Ang^3
#
#
#
# Elastic Constant Matrix: (Units=GPa)
#
#
# Indices 1 2 3 4 5 6 
#
# 1 128.6734 30.7584 85.3282 0.0000 0.0000 0.0000
# 2 30.7584 73.6196 35.1971 0.0000 0.0000 0.0000
# 3 85.3282 35.1971 124.3555 0.0000 0.0000 0.0000
# 4 0.0000 0.0000 0.0000 64.9464 0.0000 0.0000
# 5 0.0000 0.0000 0.0000 0.0000 13.8393 0.0000
# 6 0.0000 0.0000 0.0000 0.0000 0.0000 18.5801
#
#
#
# Elastic Compliance Matrix: (Units=1/GPa)
#
#
# Indices 1 2 3 4 5 6 
#
# 1 0.014401 -0.001495 -0.009459 0.000000 0.000000 0.000000
# 2 -0.001495 0.015864 -0.003464 0.000000 0.000000 0.000000
# 3 -0.009459 -0.003464 0.015512 0.000000 0.000000 0.000000
# 4 0.000000 0.000000 0.000000 0.015397 0.000000 0.000000
# 5 0.000000 0.000000 0.000000 0.000000 0.072258 0.000000
# 6 0.000000 0.000000 0.000000 0.000000 0.000000 0.053821
#
#
# Mechanical properties :
#
#
# Convention : Reuss Voigt Hill
#
# Bulk Modulus (GPa) = 59.02494 69.91288 64.46891
# Shear Modulus (GPa) = 22.54928 31.16415 26.85671
#
# Velocity S-wave (km/s) = 3.28627 3.86335 3.58644
# Velocity P-wave (km/s) = 6.53210 7.30644 6.93009
#
# Compressibility (1/GPa) = 0.01694199
#
# Stress axis : x y z
#
# Youngs Moduli (GPa) = 69.43847 63.03498 64.46568
#
# Poissons Ratio (x) = 0.09422 0.60975
# Poissons Ratio (y) = 0.10380 0.22334
# Poissons Ratio (z) = 0.65679 0.21838
#
# Static dielectric constant tensor:
#      x y z
#    x 1.773700 0.000000 0.000000 
#    y 0.000000 1.851210 0.000000 
#    z 0.000000 0.000000 1.795220 
# 
# From -- ./inp_files/36640.got.cif
#   From: 2010.05.17/outbox.cif.g08.bks.cpg/sg67_19_cif.got.tgz:36640.got - 2010.06.03 18:28:57.
