data_PCOD9504796
_publ_section_title
;
Structure prediction by ZEFSAII (Michael W. Deem and Ramdas Pophale) SiO2 
 PCOD9504796
Probable space group: C M M A
;
_chemical_formula_sum "Si O2"
_cell_formula_units_Z 88
_cell_length_a 28.092493
_cell_length_b 21.736778
_cell_length_c 8.135414
_cell_angle_alpha 90.000000
_cell_angle_beta 90.000000
_cell_angle_gamma 90.000000
_cell_volume 4967.811514
_symmetry_space_group_name_H-M "C M M A"
_symmetry_group_IT_number 67
_symmetry_cell_setting 'orthorhombic'
loop_
_space_group_symop_operation_xyz
x,y,z
-x,1/2-y,z
x,-y,-z
-x,1/2+y,-z
-x,-y,-z
x,1/2+y,-z
-x,y,z
x,1/2-y,z
1/2+x,1/2+y,z
1/2-x,-y,z
1/2+x,1/2-y,-z
1/2-x,y,-z
1/2-x,1/2-y,-z
1/2+x,y,-z
1/2-x,1/2+y,z
1/2+x,-y,z
loop_
_atom_site_type_symbol
_atom_site_label
_atom_site_fract_x
_atom_site_fract_y
_atom_site_fract_z
Si Si1 0.898634 0.676328 0.539729
Si Si2 0.056972 0.321171 0.806081
Si Si3 0.442787 0.392025 0.856015
Si Si4 0.195948 0.994065 0.240670
Si Si5 0.302919 0.106087 0.530960
Si Si6 0.383957 0.500000 0.000000
O O1 0.904948 0.750000 0.555982
O O2 0.921154 0.655670 0.365066
O O3 0.923076 0.642445 0.694753
O O4 0.843652 0.656661 0.529847
O O5 0.071362 0.250000 0.823366
O O6 0.000000 0.323837 0.788532
O O7 0.068713 0.355293 0.975315
O O8 0.500000 0.398023 0.843221
O O9 0.417039 0.456766 0.889252
O O10 0.195180 0.945420 0.388370
O O11 0.250000 0.000000 0.177189
O O12 0.187738 0.063390 0.308374
O O13 0.154656 0.970041 0.122156
O O14 0.250000 0.132370 0.500000
#
# Coordination Sequence:
#
# PCOD9504796 Si02
#       6
#    16  16  16  16  16   8
#     4  11  21  36  59  83 111 150 192 235 284 339
#     4   9  19  36  56  77 104 144 192 233 271 324
#     4  11  23  37  54  82 116 150 189 237 285 337
#     4   9  18  33  57  81 107 144 187 234 282 334
#     4   9  18  35  54  80 111 142 184 231 282 340
#     4  12  20  34  54  80 114 144 184 238 290 340
#
# _framework density 17.714037000000001
#
# number of rings (size 3 to 8) (size 9 to 14) (size 15 to 20)
#    0.000    2.000    1.818    3.818    0.000    2.182 
#    0.000    0.000    0.000    4.364    0.000    6.364 
#    0.000    0.000    0.000    0.000    0.000    0.000 
#
# Total GULP energy -244936.181512 kJ/mol
# GULP energy per Si atom -5566.731398 kJ/mol
# Density = 1.767372 g / cm^3
# Si number density = 17.714037 Si / 1000 Ang^3
#
#
#
# Elastic Constant Matrix: (Units=GPa)
#
#
# Indices 1 2 3 4 5 6 
#
# 1 99.0195 23.8240 43.7708 0.0000 0.0000 0.0000
# 2 23.8240 26.7801 11.3578 0.0000 0.0000 0.0000
# 3 43.7708 11.3578 91.0313 0.0000 0.0000 0.0000
# 4 0.0000 0.0000 0.0000 19.2868 0.0000 0.0000
# 5 0.0000 0.0000 0.0000 0.0000 35.8678 0.0000
# 6 0.0000 0.0000 0.0000 0.0000 0.0000 62.9680
#
#
#
# Elastic Compliance Matrix: (Units=1/GPa)
#
#
# Indices 1 2 3 4 5 6 
#
# 1 0.015461 -0.011194 -0.006038 0.000000 0.000000 0.000000
# 2 -0.011194 0.047532 -0.000548 0.000000 0.000000 0.000000
# 3 -0.006038 -0.000548 0.013957 0.000000 0.000000 0.000000
# 4 0.000000 0.000000 0.000000 0.051849 0.000000 0.000000
# 5 0.000000 0.000000 0.000000 0.000000 0.027880 0.000000
# 6 0.000000 0.000000 0.000000 0.000000 0.000000 0.015881
#
#
# Mechanical properties :
#
#
# Convention : Reuss Voigt Hill
#
# Bulk Modulus (GPa) = 24.16010 41.63734 32.89872
# Shear Modulus (GPa) = 22.53111 32.81641 27.67376
#
# Velocity S-wave (km/s) = 3.57029 4.30881 3.95682
# Velocity P-wave (km/s) = 5.53756 6.95060 6.28392
#
# Compressibility (1/GPa) = 0.04139056
#
# Stress axis : x y z
#
# Youngs Moduli (GPa) = 64.67851 21.03859 71.65027
#
# Poissons Ratio (x) = 0.23550 0.43259
# Poissons Ratio (y) = 0.72400 0.03927
# Poissons Ratio (z) = 0.39050 0.01153
#
# Static dielectric constant tensor:
#      x y z
#    x 1.603010 0.000000 0.000000 
#    y 0.000000 1.602900 0.000000 
#    z 0.000000 0.000000 1.700480 
# 
# From -- ./inp_files/12455.got.cif
#   From: 2010.05.17/outbox.cif.g08.bks.cpg/sg67_7_cif.got.tgz:12455.got - 2010.06.03 18:28:57.
