data_PCOD9504301
_publ_section_title
;
Structure prediction by ZEFSAII (Michael W. Deem and Ramdas Pophale) SiO2 
 PCOD9504301
Probable space group: C M M A
;
_chemical_formula_sum "Si O2"
_cell_formula_units_Z 56
_cell_length_a 8.208009
_cell_length_b 19.234490
_cell_length_c 15.001739
_cell_angle_alpha 90.000000
_cell_angle_beta 90.000000
_cell_angle_gamma 90.000000
_cell_volume 2368.427553
_symmetry_space_group_name_H-M "C M M A"
_symmetry_group_IT_number 67
_symmetry_cell_setting 'orthorhombic'
loop_
_space_group_symop_operation_xyz
x,y,z
-x,1/2-y,z
x,-y,-z
-x,1/2+y,-z
-x,-y,-z
x,1/2+y,-z
-x,y,z
x,1/2-y,z
1/2+x,1/2+y,z
1/2-x,-y,z
1/2+x,1/2-y,-z
1/2-x,y,-z
1/2-x,1/2-y,-z
1/2+x,y,-z
1/2-x,1/2+y,z
1/2+x,-y,z
loop_
_atom_site_type_symbol
_atom_site_label
_atom_site_fract_x
_atom_site_fract_y
_atom_site_fract_z
Si Si1 0.298546 0.250000 0.837510
Si Si2 0.250000 0.500000 0.749864
Si Si3 0.691938 0.750000 0.635097
Si Si4 0.817393 0.395280 0.091302
Si Si5 0.306638 0.097129 0.597797
O O1 0.500000 0.250000 0.828614
O O2 0.222063 0.250000 0.740277
O O3 0.240743 0.178975 0.883924
O O4 0.179139 0.553675 0.823778
O O5 0.202915 0.441722 0.675017
O O6 0.500000 0.750000 0.612791
O O7 0.775278 0.679365 0.602228
O O8 0.000000 0.377363 0.068646
O O9 0.750000 0.425537 0.000000
O O10 0.500000 0.082934 0.613427
O O11 0.250000 0.074820 0.500000
#
# Coordination Sequence:
#
# PCOD9504301 Si02
#       5
#     8   8   8  16  16
#     4  10  21  46  74 101 138 187 236 293 360 417
#     4  12  26  44  72 102 138 194 236 288 348 422
#     4  12  25  44  75 109 140 183 237 293 352 421
#     4  11  25  45  72 104 142 186 236 292 353 422
#     4  12  27  49  75 105 144 187 235 294 355 422
#
# _framework density 23.644380000000002
#
# number of rings (size 3 to 8) (size 9 to 14) (size 15 to 20)
#    0.000    0.571    2.857    4.714    0.000   10.286 
#    0.000    0.000    0.000    0.000    0.000    0.000 
#    0.000    0.000    0.000    0.000    0.000    0.000 
#
# Total GULP energy -155988.969441 kJ/mol
# GULP energy per Si atom -5571.034623 kJ/mol
# Density = 2.359056 g / cm^3
# Si number density = 23.644380 Si / 1000 Ang^3
#
#
#
# Elastic Constant Matrix: (Units=GPa)
#
#
# Indices 1 2 3 4 5 6 
#
# 1 66.4463 24.9494 24.3461 0.0000 0.0000 0.0000
# 2 24.9494 181.1372 46.3441 0.0000 0.0000 0.0000
# 3 24.3461 46.3441 199.5141 0.0000 0.0000 0.0000
# 4 0.0000 0.0000 0.0000 -30.7947 0.0000 0.0000
# 5 0.0000 0.0000 0.0000 0.0000 18.9140 0.0000
# 6 0.0000 0.0000 0.0000 0.0000 0.0000 17.6810
#
#
#
# Elastic Compliance Matrix: (Units=1/GPa)
#
#
# Indices 1 2 3 4 5 6 
#
# 1 0.016316 -0.001848 -0.001562 0.000000 0.000000 0.000000
# 2 -0.001848 0.006079 -0.001187 0.000000 0.000000 0.000000
# 3 -0.001562 -0.001187 0.005478 0.000000 0.000000 0.000000
# 4 0.000000 0.000000 0.000000 -0.032473 0.000000 0.000000
# 5 0.000000 0.000000 0.000000 0.000000 0.052871 0.000000
# 6 0.000000 0.000000 0.000000 0.000000 0.000000 0.056558
#
#
# Mechanical properties :
#
#
# Convention : Reuss Voigt Hill
#
# Bulk Modulus (GPa) = 53.53072 70.93076 62.23074
# Shear Modulus (GPa) = 41.58087 24.59058 33.08572
#
# Velocity S-wave (km/s) = 4.19811 3.22843 3.74479
# Velocity P-wave (km/s) = 6.79617 6.63032 6.71376
#
# Compressibility (1/GPa) = 0.01868086
#
# Stress axis : x y z
#
# Youngs Moduli (GPa) = 61.29036 164.50740 182.53608
#
# Poissons Ratio (x) = 0.30396 0.28508
# Poissons Ratio (y) = 0.11325 0.21658
# Poissons Ratio (z) = 0.09572 0.19519
#
# Static dielectric constant tensor:
#      x y z
#    x 1.892860 0.000000 0.000000 
#    y 0.000000 1.926250 0.000000 
#    z 0.000000 0.000000 1.915900 
# 
# From -- ./inp_files/24651.got.cif
#   From: 2010.05.17/outbox.cif.g08.bks.cpg/sg67_13_cif.got.tgz:24651.got - 2010.06.03 18:28:57.
