data_PCOD9504053
_publ_section_title
;
Structure prediction by ZEFSAII (Michael W. Deem and Ramdas Pophale) SiO2 
 PCOD9504053
Probable space group: C M M A
;
_chemical_formula_sum "Si O2"
_cell_formula_units_Z 68
_cell_length_a 29.703214
_cell_length_b 18.769422
_cell_length_c 6.286266
_cell_angle_alpha 90.000000
_cell_angle_beta 90.000000
_cell_angle_gamma 90.000000
_cell_volume 3504.669725
_symmetry_space_group_name_H-M "C M M A"
_symmetry_group_IT_number 67
_symmetry_cell_setting 'orthorhombic'
loop_
_space_group_symop_operation_xyz
x,y,z
-x,1/2-y,z
x,-y,-z
-x,1/2+y,-z
-x,-y,-z
x,1/2+y,-z
-x,y,z
x,1/2-y,z
1/2+x,1/2+y,z
1/2-x,-y,z
1/2+x,1/2-y,-z
1/2-x,y,-z
1/2-x,1/2-y,-z
1/2+x,y,-z
1/2-x,1/2+y,z
1/2+x,-y,z
loop_
_atom_site_type_symbol
_atom_site_label
_atom_site_fract_x
_atom_site_fract_y
_atom_site_fract_z
Si Si1 0.450367 0.166178 0.855767
Si Si2 0.398025 0.577091 0.458306
Si Si3 0.750000 0.500000 0.500000
Si Si4 0.137548 0.834473 0.146964
Si Si5 0.185769 0.065665 0.156930
O O1 0.500000 0.142157 0.927664
O O2 0.452170 0.250000 0.815726
O O3 0.435143 0.128430 0.639985
O O4 0.410031 0.156374 0.023270
O O5 0.418768 0.500000 0.500000
O O6 0.370370 0.617023 0.644800
O O7 0.361323 0.559694 0.278303
O O8 0.777987 0.447382 0.343441
O O9 0.143930 0.750000 0.191335
O O10 0.177543 0.865463 0.995368
O O11 0.192509 0.000000 0.000000
#
# Coordination Sequence:
#
# PCOD9504053 Si02
#       5
#    16  16   4  16  16
#     4   9  20  36  54  81 119 161 203 246 293 346
#     4  11  20  35  59  87 115 156 202 246 291 350
#     4  12  22  36  66  94 114 152 194 246 284 358
#     4  10  21  38  61  86 121 161 198 243 296 350
#     4  11  21  39  61  90 119 153 195 242 292 354
#
# _framework density 19.402684000000001
#
# number of rings (size 3 to 8) (size 9 to 14) (size 15 to 20)
#    0.000    1.647    3.529    1.059    0.000    2.353 
#    0.000    4.118    0.000    7.059    0.000    0.000 
#    0.000    0.000    0.000    0.000    0.000    0.000 
#
# Total GULP energy -189304.214296 kJ/mol
# GULP energy per Si atom -5567.771009 kJ/mol
# Density = 1.935852 g / cm^3
# Si number density = 19.402684 Si / 1000 Ang^3
#
#
#
# Elastic Constant Matrix: (Units=GPa)
#
#
# Indices 1 2 3 4 5 6 
#
# 1 62.0371 20.8732 18.3874 0.0000 0.0000 0.0000
# 2 20.8732 77.7763 48.0392 0.0000 0.0000 0.0000
# 3 18.3874 48.0392 85.7309 0.0000 0.0000 0.0000
# 4 0.0000 0.0000 0.0000 19.8005 0.0000 0.0000
# 5 0.0000 0.0000 0.0000 0.0000 -2.0449 0.0000
# 6 0.0000 0.0000 0.0000 0.0000 0.0000 17.2064
#
#
#
# Elastic Compliance Matrix: (Units=1/GPa)
#
#
# Indices 1 2 3 4 5 6 
#
# 1 0.017890 -0.003718 -0.001754 0.000000 0.000000 0.000000
# 2 -0.003718 0.020435 -0.010654 0.000000 0.000000 0.000000
# 3 -0.001754 -0.010654 0.018010 0.000000 0.000000 0.000000
# 4 0.000000 0.000000 0.000000 0.050504 0.000000 0.000000
# 5 0.000000 0.000000 0.000000 0.000000 -0.489022 0.000000
# 6 0.000000 0.000000 0.000000 0.000000 0.000000 0.058118
#
#
# Mechanical properties :
#
#
# Convention : Reuss Voigt Hill
#
# Bulk Modulus (GPa) = 41.51910 44.46045 42.98977
# Shear Modulus (GPa) = -17.61894 16.20871 -0.70512
#
# Velocity S-wave (km/s) = -3.01668 2.89344 -0.60349
# Velocity P-wave (km/s) = 3.05143 5.84183 4.66038
#
# Compressibility (1/GPa) = 0.02408530
#
# Stress axis : x y z
#
# Youngs Moduli (GPa) = 55.89667 48.93446 55.52407
#
# Poissons Ratio (x) = 0.18195 0.09737
# Poissons Ratio (y) = 0.20783 0.59153
# Poissons Ratio (z) = 0.09802 0.52133
#
# Static dielectric constant tensor:
#      x y z
#    x 1.705600 0.000000 0.000000 
#    y 0.000000 1.692140 0.000000 
#    z 0.000000 0.000000 1.724230 
# 
# From -- ./inp_files/3004.got.cif
#   From: 2010.05.17/outbox.cif.g08.bks.cpg/sg67_2_cif.got.tgz:3004.got - 2010.06.03 18:28:57.
