data_PCOD9504927
_publ_section_title
;
Structure prediction by ZEFSAII (Michael W. Deem and Ramdas Pophale) SiO2 
 PCOD9504927
Probable space group: C M M A
;
_chemical_formula_sum "Si O2"
_cell_formula_units_Z 104
_cell_length_a 26.857845
_cell_length_b 8.560026
_cell_length_c 22.832073
_cell_angle_alpha 90.000000
_cell_angle_beta 90.000000
_cell_angle_gamma 90.000000
_cell_volume 5249.181521
_symmetry_space_group_name_H-M "C M M A"
_symmetry_group_IT_number 67
_symmetry_cell_setting 'orthorhombic'
loop_
_space_group_symop_operation_xyz
x,y,z
-x,1/2-y,z
x,-y,-z
-x,1/2+y,-z
-x,-y,-z
x,1/2+y,-z
-x,y,z
x,1/2-y,z
1/2+x,1/2+y,z
1/2-x,-y,z
1/2+x,1/2-y,-z
1/2-x,y,-z
1/2-x,1/2-y,-z
1/2+x,y,-z
1/2-x,1/2+y,z
1/2+x,-y,z
loop_
_atom_site_type_symbol
_atom_site_label
_atom_site_fract_x
_atom_site_fract_y
_atom_site_fract_z
Si Si1 0.094701 0.438195 0.241335
Si Si2 0.500000 0.436402 0.565200
Si Si3 0.304970 0.937394 0.433623
Si Si4 0.054114 0.559929 0.884305
Si Si5 0.097109 0.435265 0.630455
Si Si6 0.158168 0.938643 0.937376
Si Si7 0.300827 0.063586 0.815045
O O1 0.090073 0.250000 0.248838
O O2 0.062623 0.481995 0.184017
O O3 0.085658 0.521158 0.302257
O O4 0.151017 0.476735 0.222286
O O5 0.500000 0.250000 0.566818
O O6 0.500000 0.500000 0.500000
O O7 0.449668 0.497975 0.595013
O O8 0.303518 0.750000 0.434770
O O9 0.313703 0.000000 0.500000
O O10 0.250000 0.000000 0.415596
O O11 0.350691 0.992380 0.392683
O O12 0.054860 0.750000 0.885651
O O13 0.101513 0.509114 0.922244
O O14 0.000000 0.505449 0.904593
O O15 0.100138 0.250000 0.623067
O O16 0.158824 0.750000 0.938175
O O17 0.190235 0.993089 0.881682
O O18 0.174445 0.000000 0.000000
O O19 0.298704 0.250000 0.817437
O O20 0.250000 0.000000 0.790222
#
# Coordination Sequence:
#
# PCOD9504927 Si02
#       7
#    16   8  16  16  16  16  16
#     4   9  19  36  56  81 108 141 187 235 282 339
#     4  12  26  46  68  92 124 164 205 250 301 356
#     4  11  22  40  64  91 121 157 198 243 295 351
#     4   8  15  30  53  76 100 136 179 223 275 338
#     4  12  25  41  61  91 126 160 199 247 298 355
#     4   9  18  32  49  74 106 137 177 227 275 334
#     4   9  19  35  54  76 107 144 186 233 283 341
#
# _framework density 19.812612999999999
#
# number of rings (size 3 to 8) (size 9 to 14) (size 15 to 20)
#    0.000    2.154    0.000    6.231    1.077    2.462 
#    0.000    5.385    0.000    0.923    0.000    0.000 
#    0.000    0.000    0.000    0.000    0.000    0.000 
#
# Total GULP energy -290302.728733 kJ/mol
# GULP energy per Si atom -5582.744783 kJ/mol
# Density = 1.976752 g / cm^3
# Si number density = 19.812613 Si / 1000 Ang^3
#
#
#
# Elastic Constant Matrix: (Units=GPa)
#
#
# Indices 1 2 3 4 5 6 
#
# 1 66.5350 15.4560 -7.4148 0.0000 0.0000 0.0000
# 2 15.4560 80.2259 21.0975 0.0000 0.0000 0.0000
# 3 -7.4148 21.0975 66.5118 0.0000 0.0000 0.0000
# 4 0.0000 0.0000 0.0000 29.0306 0.0000 0.0000
# 5 0.0000 0.0000 0.0000 0.0000 5.7473 0.0000
# 6 0.0000 0.0000 0.0000 0.0000 0.0000 23.7076
#
#
#
# Elastic Compliance Matrix: (Units=1/GPa)
#
#
# Indices 1 2 3 4 5 6 
#
# 1 0.016288 -0.003944 0.003067 0.000000 0.000000 0.000000
# 2 -0.003944 0.014554 -0.005056 0.000000 0.000000 0.000000
# 3 0.003067 -0.005056 0.016981 0.000000 0.000000 0.000000
# 4 0.000000 0.000000 0.000000 0.034446 0.000000 0.000000
# 5 0.000000 0.000000 0.000000 0.000000 0.173994 0.000000
# 6 0.000000 0.000000 0.000000 0.000000 0.000000 0.042181
#
#
# Mechanical properties :
#
#
# Convention : Reuss Voigt Hill
#
# Bulk Modulus (GPa) = 27.81246 30.17223 28.99235
# Shear Modulus (GPa) = 15.51364 23.97271 19.74318
#
# Velocity S-wave (km/s) = 2.80128 3.48224 3.16016
# Velocity P-wave (km/s) = 4.95289 5.60623 5.28966
#
# Compressibility (1/GPa) = 0.03595511
#
# Stress axis : x y z
#
# Youngs Moduli (GPa) = 61.39582 68.70763 58.89032
#
# Poissons Ratio (x) = 0.27101 -0.18061
# Poissons Ratio (y) = 0.24217 0.29777
# Poissons Ratio (z) = -0.18830 0.34741
#
# Static dielectric constant tensor:
#      x y z
#    x 1.671180 0.000000 0.000000 
#    y 0.000000 1.668160 0.000000 
#    z 0.000000 0.000000 1.675780 
# 
# From -- ./inp_files/39987.got.cif
#   From: 2010.05.17/outbox.cif.g08.bks.cpg/sg67_20_cif.got.tgz:39987.got - 2010.06.03 18:28:57.
