data_PCOD9504737
_publ_section_title
;
Structure prediction by ZEFSAII (Michael W. Deem and Ramdas Pophale) SiO2 
 PCOD9504737
Probable space group: C M M A
;
_chemical_formula_sum "Si O2"
_cell_formula_units_Z 96
_cell_length_a 9.991934
_cell_length_b 23.418105
_cell_length_c 23.931746
_cell_angle_alpha 90.000000
_cell_angle_beta 90.000000
_cell_angle_gamma 90.000000
_cell_volume 5599.840929
_symmetry_space_group_name_H-M "C M M A"
_symmetry_group_IT_number 67
_symmetry_cell_setting 'orthorhombic'
loop_
_space_group_symop_operation_xyz
x,y,z
-x,1/2-y,z
x,-y,-z
-x,1/2+y,-z
-x,-y,-z
x,1/2+y,-z
-x,y,z
x,1/2-y,z
1/2+x,1/2+y,z
1/2-x,-y,z
1/2+x,1/2-y,-z
1/2-x,y,-z
1/2-x,1/2-y,-z
1/2+x,y,-z
1/2-x,1/2+y,z
1/2+x,-y,z
loop_
_atom_site_type_symbol
_atom_site_label
_atom_site_fract_x
_atom_site_fract_y
_atom_site_fract_z
Si Si1 0.341712 0.682634 0.446096
Si Si2 0.659290 0.445174 0.769460
Si Si3 0.734909 0.123528 0.878430
Si Si4 0.660546 0.750000 0.138869
Si Si5 0.000000 0.937146 0.078938
Si Si6 0.659350 0.750000 0.271931
Si Si7 0.000000 0.568248 0.944916
Si Si8 0.837521 0.364999 0.329310
O O1 0.500000 0.674172 0.458077
O O2 0.327868 0.750000 0.429561
O O3 0.250000 0.673195 0.500000
O O4 0.301376 0.642501 0.394136
O O5 0.500000 0.458024 0.769371
O O6 0.750000 0.500000 0.781783
O O7 0.685843 0.397961 0.817451
O O8 0.699675 0.418437 0.709336
O O9 0.729499 0.191857 0.881291
O O10 0.872942 0.093120 0.893608
O O11 0.629295 0.100254 0.922879
O O12 0.500000 0.750000 0.125758
O O13 0.672961 0.750000 0.205854
O O14 0.000000 0.005766 0.084192
O O15 0.000000 0.931836 0.011679
O O16 0.500000 0.750000 0.284048
O O17 0.713639 0.692185 0.298714
O O18 0.000000 0.364092 0.327894
#
# Coordination Sequence:
#
# PCOD9504737 Si02
#       8
#    16  16  16   8   8   8   8  16
#     4   9  16  27  47  75 108 142 178 223 270 323
#     4  11  22  36  57  84 112 143 187 239 289 337
#     4  12  23  39  63  89 115 152 192 237 288 346
#     4  11  20  37  60  86 118 155 193 230 281 353
#     4  11  26  41  63  87 121 148 190 245 286 340
#     4   9  14  26  48  77 106 136 179 224 261 317
#     4  11  22  45  65  87 111 154 196 235 288 336
#     4   9  16  29  51  79 106 139 184 225 269 326
#
# _framework density 17.143345
#
# number of rings (size 3 to 8) (size 9 to 14) (size 15 to 20)
#    0.000    1.667    4.167    2.000    1.167    1.667 
#    0.000    3.333    0.000    0.500    0.000    3.500 
#    0.000    0.000    0.000    0.000    0.000    0.000 
#
# Total GULP energy -267657.992583 kJ/mol
# GULP energy per Si atom -5576.208179 kJ/mol
# Density = 1.710433 g / cm^3
# Si number density = 17.143345 Si / 1000 Ang^3
#
#
#
# Elastic Constant Matrix: (Units=GPa)
#
#
# Indices 1 2 3 4 5 6 
#
# 1 66.9969 27.3966 15.8938 0.0000 0.0000 0.0000
# 2 27.3966 110.5091 22.0668 0.0000 0.0000 0.0000
# 3 15.8938 22.0668 58.7527 0.0000 0.0000 0.0000
# 4 0.0000 0.0000 0.0000 28.9674 0.0000 0.0000
# 5 0.0000 0.0000 0.0000 0.0000 24.0272 0.0000
# 6 0.0000 0.0000 0.0000 0.0000 0.0000 10.6757
#
#
#
# Elastic Compliance Matrix: (Units=1/GPa)
#
#
# Indices 1 2 3 4 5 6 
#
# 1 0.017180 -0.003601 -0.003295 0.000000 0.000000 0.000000
# 2 -0.003601 0.010538 -0.002984 0.000000 0.000000 0.000000
# 3 -0.003295 -0.002984 0.019032 0.000000 0.000000 0.000000
# 4 0.000000 0.000000 0.000000 0.034522 0.000000 0.000000
# 5 0.000000 0.000000 0.000000 0.000000 0.041619 0.000000
# 6 0.000000 0.000000 0.000000 0.000000 0.000000 0.093670
#
#
# Mechanical properties :
#
#
# Convention : Reuss Voigt Hill
#
# Bulk Modulus (GPa) = 37.04984 40.77477 38.91231
# Shear Modulus (GPa) = 20.38166 24.12750 22.25458
#
# Velocity S-wave (km/s) = 3.45178 3.75560 3.60689
# Velocity P-wave (km/s) = 6.12740 6.53011 6.33196
#
# Compressibility (1/GPa) = 0.02699067
#
# Stress axis : x y z
#
# Youngs Moduli (GPa) = 58.20591 94.89827 52.54185
#
# Poissons Ratio (x) = 0.34175 0.17313
# Poissons Ratio (y) = 0.20961 0.15676
# Poissons Ratio (z) = 0.19179 0.28314
#
# Static dielectric constant tensor:
#      x y z
#    x 1.544550 0.000000 0.000000 
#    y 0.000000 1.589270 0.000000 
#    z 0.000000 0.000000 1.590470 
# 
# From -- ./inp_files/40865.got.cif
#   From: 2010.05.17/outbox.cif.g08.bks.cpg/sg67_21_cif.got.tgz:40865.got - 2010.06.03 18:28:57.
