data_PCOD9504116
_publ_section_title
;
Structure prediction by ZEFSAII (Michael W. Deem and Ramdas Pophale) SiO2 
 PCOD9504116
Probable space group: C M M A
;
_chemical_formula_sum "Si O2"
_cell_formula_units_Z 88
_cell_length_a 28.783964
_cell_length_b 10.109883
_cell_length_c 16.248815
_cell_angle_alpha 90.000000
_cell_angle_beta 90.000000
_cell_angle_gamma 90.000000
_cell_volume 4728.445922
_symmetry_space_group_name_H-M "C M M A"
_symmetry_group_IT_number 67
_symmetry_cell_setting 'orthorhombic'
loop_
_space_group_symop_operation_xyz
x,y,z
-x,1/2-y,z
x,-y,-z
-x,1/2+y,-z
-x,-y,-z
x,1/2+y,-z
-x,y,z
x,1/2-y,z
1/2+x,1/2+y,z
1/2-x,-y,z
1/2+x,1/2-y,-z
1/2-x,y,-z
1/2-x,1/2-y,-z
1/2+x,y,-z
1/2-x,1/2+y,z
1/2+x,-y,z
loop_
_atom_site_type_symbol
_atom_site_label
_atom_site_fract_x
_atom_site_fract_y
_atom_site_fract_z
Si Si1 0.396191 0.594283 0.579849
Si Si2 0.500000 0.099431 0.424593
Si Si3 0.196499 0.250000 0.195809
Si Si4 0.153362 0.250000 0.017313
Si Si5 0.913530 0.500000 0.000000
Si Si6 0.305180 0.250000 0.163748
Si Si7 0.552626 0.591229 0.827091
Si Si8 0.644841 0.490877 0.254186
O O1 0.392958 0.500000 0.500000
O O2 0.389330 0.750000 0.559970
O O3 0.449328 0.583126 0.615464
O O4 0.361135 0.549328 0.650803
O O5 0.500000 0.250000 0.456076
O O6 0.500000 0.000000 0.500000
O O7 0.252044 0.250000 0.192822
O O8 0.173391 0.123347 0.238879
O O9 0.182788 0.250000 0.099898
O O10 0.120295 0.377583 0.019129
O O11 0.184318 0.250000 0.934178
O O12 0.943207 0.546748 0.077997
O O13 0.329743 0.377420 0.202383
O O14 0.500000 0.569943 0.797790
O O15 0.562480 0.750000 0.820059
O O16 0.592531 0.508589 0.781801
#
# Coordination Sequence:
#
# PCOD9504116 Si02
#       8
#    16   8   8   8   8   8  16  16
#     4  10  21  38  65  93 127 167 206 255 313 373
#     4   8  16  32  56  92 124 159 203 244 296 365
#     4  12  27  40  67  94 126 164 207 273 333 362
#     4  12  21  40  65  88 126 162 209 262 321 370
#     4  12  19  38  57  86 130 164 207 262 305 368
#     4  12  23  46  67  90 122 168 211 267 321 382
#     4  11  22  37  61  88 124 177 216 250 306 378
#     4  12  23  43  63  96 128 161 216 265 312 382
#
# _framework density 18.610766000000002
#
# number of rings (size 3 to 8) (size 9 to 14) (size 15 to 20)
#    0.000    0.909    6.364    1.091    2.545    0.000 
#    0.000    4.091    0.000    3.273    0.000    0.000 
#    0.000    0.000    0.000    0.000    0.000    0.000 
#
# Total GULP energy -245629.637318 kJ/mol
# GULP energy per Si atom -5582.491757 kJ/mol
# Density = 1.856841 g / cm^3
# Si number density = 18.610766 Si / 1000 Ang^3
#
#
#
# Elastic Constant Matrix: (Units=GPa)
#
#
# Indices 1 2 3 4 5 6 
#
# 1 111.4188 40.7972 27.1748 0.0000 0.0000 0.0000
# 2 40.7972 104.9116 28.0631 0.0000 0.0000 0.0000
# 3 27.1748 28.0631 91.6931 0.0000 0.0000 0.0000
# 4 0.0000 0.0000 0.0000 209.4498 0.0000 0.0000
# 5 0.0000 0.0000 0.0000 0.0000 10.2340 0.0000
# 6 0.0000 0.0000 0.0000 0.0000 0.0000 -0.0351
#
#
#
# Elastic Compliance Matrix: (Units=1/GPa)
#
#
# Indices 1 2 3 4 5 6 
#
# 1 0.010821 -0.003649 -0.002090 0.000000 0.000000 0.000000
# 2 -0.003649 0.011612 -0.002473 0.000000 0.000000 0.000000
# 3 -0.002090 -0.002473 0.012282 0.000000 0.000000 0.000000
# 4 0.000000 0.000000 0.000000 0.004774 0.000000 0.000000
# 5 0.000000 0.000000 0.000000 0.000000 0.097714 0.000000
# 6 0.000000 0.000000 0.000000 0.000000 0.000000-28.503826
#
#
# Mechanical properties :
#
#
# Convention : Reuss Voigt Hill
#
# Bulk Modulus (GPa) = 54.66864 55.56597 55.11731
# Shear Modulus (GPa) = -0.17640 58.06228 28.94294
#
# Velocity S-wave (km/s) = -0.30821 5.59160 3.94785
# Velocity P-wave (km/s) = 5.41404 8.46225 7.10357
#
# Compressibility (1/GPa) = 0.01829202
#
# Stress axis : x y z
#
# Youngs Moduli (GPa) = 92.41268 86.11647 81.41891
#
# Poissons Ratio (x) = 0.31423 0.17018
# Poissons Ratio (y) = 0.33720 0.20131
# Poissons Ratio (z) = 0.19316 0.21293
#
# Static dielectric constant tensor:
#      x y z
#    x 1.656650 0.000000 0.000000 
#    y 0.000000 1.603370 0.000000 
#    z 0.000000 0.000000 1.654740 
# 
# From -- ./inp_files/36235.got.cif
#   From: 2010.05.17/outbox.cif.g08.bks.cpg/sg67_19_cif.got.tgz:36235.got - 2010.06.03 18:28:57.
