data_PCOD9504891
_publ_section_title
;
Structure prediction by ZEFSAII (Michael W. Deem and Ramdas Pophale) SiO2 
 PCOD9504891
Probable space group: C M M A
;
_chemical_formula_sum "Si O2"
_cell_formula_units_Z 64
_cell_length_a 15.159841
_cell_length_b 8.535594
_cell_length_c 25.541266
_cell_angle_alpha 90.000000
_cell_angle_beta 90.000000
_cell_angle_gamma 90.000000
_cell_volume 3304.995069
_symmetry_space_group_name_H-M "C M M A"
_symmetry_group_IT_number 67
_symmetry_cell_setting 'orthorhombic'
loop_
_space_group_symop_operation_xyz
x,y,z
-x,1/2-y,z
x,-y,-z
-x,1/2+y,-z
-x,-y,-z
x,1/2+y,-z
-x,y,z
x,1/2-y,z
1/2+x,1/2+y,z
1/2-x,-y,z
1/2+x,1/2-y,-z
1/2-x,y,-z
1/2-x,1/2-y,-z
1/2+x,y,-z
1/2-x,1/2+y,z
1/2+x,-y,z
loop_
_atom_site_type_symbol
_atom_site_label
_atom_site_fract_x
_atom_site_fract_y
_atom_site_fract_z
Si Si1 0.151186 0.562727 0.442811
Si Si2 0.500000 0.561464 0.368227
Si Si3 0.350727 0.562672 0.053694
Si Si4 0.349522 0.560778 0.169000
Si Si5 0.000000 0.941334 0.752416
O O1 0.123000 0.500000 0.500000
O O2 0.151812 0.750000 0.443999
O O3 0.250000 0.500000 0.433741
O O4 0.084992 0.501260 0.398988
O O5 0.500000 0.750000 0.369748
O O6 0.500000 0.509329 0.307774
O O7 0.350050 0.750000 0.050683
O O8 0.250000 0.500000 0.054287
O O9 0.385528 0.516065 0.111051
O O10 0.392284 0.500000 0.000000
O O11 0.346607 0.750000 0.169813
O O12 0.250000 0.500000 0.174910
O O13 0.414219 0.507440 0.214918
O O14 0.000000 0.750000 0.752709
#
# Coordination Sequence:
#
# PCOD9504891 Si02
#       5
#    16   8  16  16   8
#     4  11  22  39  62  90 121 152 187 228 275 329
#     4  11  22  38  59  84 115 153 192 233 278 327
#     4   9  15  24  43  69  97 126 163 208 261 320
#     4   9  18  34  54  75 100 136 176 219 268 320
#     4   9  20  38  57  76 104 143 186 223 264 319
#
# _framework density 19.364629999999998
#
# number of rings (size 3 to 8) (size 9 to 14) (size 15 to 20)
#    0.000    2.250    0.000    5.250    0.000    2.000 
#    0.000    6.250    0.000    0.000    0.000    0.000 
#    0.000    0.000    0.000    0.000    0.000    0.000 
#
# Total GULP energy -178593.459482 kJ/mol
# GULP energy per Si atom -5581.045609 kJ/mol
# Density = 1.932055 g / cm^3
# Si number density = 19.364630 Si / 1000 Ang^3
#
#
#
# Elastic Constant Matrix: (Units=GPa)
#
#
# Indices 1 2 3 4 5 6 
#
# 1 99.9282 25.8453 103.1002 0.0000 0.0000 0.0000
# 2 25.8453 79.5891 56.3345 0.0000 0.0000 0.0000
# 3 103.1002 56.3345 234.1423 0.0000 0.0000 0.0000
# 4 0.0000 0.0000 0.0000 19.7139 0.0000 0.0000
# 5 0.0000 0.0000 0.0000 0.0000 160.2099 0.0000
# 6 0.0000 0.0000 0.0000 0.0000 0.0000 14.6267
#
#
#
# Elastic Compliance Matrix: (Units=1/GPa)
#
#
# Indices 1 2 3 4 5 6 
#
# 1 0.018344 -0.000289 -0.008008 0.000000 0.000000 0.000000
# 2 -0.000289 0.015148 -0.003517 0.000000 0.000000 0.000000
# 3 -0.008008 -0.003517 0.008643 0.000000 0.000000 0.000000
# 4 0.000000 0.000000 0.000000 0.050726 0.000000 0.000000
# 5 0.000000 0.000000 0.000000 0.000000 0.006242 0.000000
# 6 0.000000 0.000000 0.000000 0.000000 0.000000 0.068368
#
#
# Mechanical properties :
#
#
# Convention : Reuss Voigt Hill
#
# Bulk Modulus (GPa) = 54.03344 87.13548 70.58446
# Shear Modulus (GPa) = 25.34621 54.13542 39.74082
#
# Velocity S-wave (km/s) = 3.62179 5.29306 4.53508
# Velocity P-wave (km/s) = 6.74192 9.08021 7.99699
#
# Compressibility (1/GPa) = 0.01850706
#
# Stress axis : x y z
#
# Youngs Moduli (GPa) = 54.51362 66.01521 115.69566
#
# Poissons Ratio (x) = 0.01906 0.92649
# Poissons Ratio (y) = 0.01574 0.40695
# Poissons Ratio (z) = 0.43654 0.23221
#
# Static dielectric constant tensor:
#      x y z
#    x 1.667010 0.000000 0.000000 
#    y 0.000000 1.653700 0.000000 
#    z 0.000000 0.000000 1.696170 
# 
# From -- ./inp_files/40439.got.cif
#   From: 2010.05.17/outbox.cif.g08.bks.cpg/sg67_21_cif.got.tgz:40439.got - 2010.06.03 18:28:57.
