data_PCOD9504306
_publ_section_title
;
Structure prediction by ZEFSAII (Michael W. Deem and Ramdas Pophale) SiO2 
 PCOD9504306
Probable space group: C M M A
;
_chemical_formula_sum "Si O2"
_cell_formula_units_Z 104
_cell_length_a 9.057289
_cell_length_b 25.302234
_cell_length_c 31.164590
_cell_angle_alpha 90.000000
_cell_angle_beta 90.000000
_cell_angle_gamma 90.000000
_cell_volume 7141.978048
_symmetry_space_group_name_H-M "C M M A"
_symmetry_group_IT_number 67
_symmetry_cell_setting 'orthorhombic'
loop_
_space_group_symop_operation_xyz
x,y,z
-x,1/2-y,z
x,-y,-z
-x,1/2+y,-z
-x,-y,-z
x,1/2+y,-z
-x,y,z
x,1/2-y,z
1/2+x,1/2+y,z
1/2-x,-y,z
1/2+x,1/2-y,-z
1/2-x,y,-z
1/2-x,1/2-y,-z
1/2+x,y,-z
1/2-x,1/2+y,z
1/2+x,-y,z
loop_
_atom_site_type_symbol
_atom_site_label
_atom_site_fract_x
_atom_site_fract_y
_atom_site_fract_z
Si Si1 0.169772 0.314415 0.869570
Si Si2 0.175925 0.250000 0.546358
Si Si3 0.822718 0.686808 0.687134
Si Si4 0.321324 0.942238 0.454782
Si Si5 0.822685 0.146012 0.602269
Si Si6 0.828993 0.814225 0.783288
Si Si7 0.330136 0.685592 0.043503
O O1 0.176569 0.250000 0.869180
O O2 0.238574 0.332509 0.824529
O O3 0.255071 0.331870 0.912225
O O4 0.000000 0.329691 0.872615
O O5 0.250000 0.250000 0.500000
O O6 0.213539 0.302060 0.573774
O O7 0.000000 0.250000 0.540327
O O8 0.796601 0.750000 0.683274
O O9 0.733480 0.657728 0.650125
O O10 0.779633 0.669914 0.735519
O O11 0.000000 0.678962 0.682608
O O12 0.500000 0.944741 0.457519
O O13 0.250000 0.923538 0.500000
O O14 0.264789 0.902599 0.418471
O O15 0.250000 0.000000 0.447561
O O16 0.000000 0.137897 0.600972
O O17 0.824527 0.750000 0.783095
O O18 0.000000 0.829243 0.788540
O O19 0.500000 0.669874 0.042633
O O20 0.324741 0.750000 0.043556
O O21 0.250000 0.668132 0.000000
#
# Coordination Sequence:
#
# PCOD9504306 Si02
#       7
#    16   8  16  16  16  16  16
#     4   9  15  21  29  42  58  78 108 144 185 232
#     4  10  22  34  46  66  92 120 146 172 205 246
#     4   9  17  29  44  62  84 112 142 171 207 250
#     4  11  22  38  57  76  94 117 145 178 213 251
#     4  11  21  34  49  70  95 121 148 177 212 253
#     4   8  14  24  36  49  67  92 123 156 191 234
#     4   9  15  21  28  37  51  72  99 136 183 232
#
# _framework density 14.561790999999999
#
# number of rings (size 3 to 8) (size 9 to 14) (size 15 to 20)
#    0.000    2.462    0.769    4.615    0.000    6.769 
#    0.000    1.538    0.000    0.000    0.000    0.000 
#    0.000    0.000    0.000    0.000    0.000    0.000 
#
# Total GULP energy -289726.685376 kJ/mol
# GULP energy per Si atom -5571.667026 kJ/mol
# Density = 1.452865 g / cm^3
# Si number density = 14.561791 Si / 1000 Ang^3
#
#
#
# Elastic Constant Matrix: (Units=GPa)
#
#
# Indices 1 2 3 4 5 6 
#
# 1 106.5732 23.8492 84.8173 0.0000 0.0000 0.0000
# 2 23.8492 21.2033 27.2847 0.0000 0.0000 0.0000
# 3 84.8173 27.2847 160.0266 0.0000 0.0000 0.0000
# 4 0.0000 0.0000 0.0000 6.2134 0.0000 0.0000
# 5 0.0000 0.0000 0.0000 0.0000 32.5553 0.0000
# 6 0.0000 0.0000 0.0000 0.0000 0.0000 11.4143
#
#
#
# Elastic Compliance Matrix: (Units=1/GPa)
#
#
# Indices 1 2 3 4 5 6 
#
# 1 0.017764 -0.010076 -0.007697 0.000000 0.000000 0.000000
# 2 -0.010076 0.066133 -0.005935 0.000000 0.000000 0.000000
# 3 -0.007697 -0.005935 0.011341 0.000000 0.000000 0.000000
# 4 0.000000 0.000000 0.000000 0.160944 0.000000 0.000000
# 5 0.000000 0.000000 0.000000 0.000000 0.030717 0.000000
# 6 0.000000 0.000000 0.000000 0.000000 0.000000 0.087609
#
#
# Mechanical properties :
#
#
# Convention : Reuss Voigt Hill
#
# Bulk Modulus (GPa) = 20.91132 62.18951 41.55042
# Shear Modulus (GPa) = 11.41904 20.16006 15.78955
#
# Velocity S-wave (km/s) = 2.80336 3.72486 3.29646
# Velocity P-wave (km/s) = 4.98698 7.82940 6.56389
#
# Compressibility (1/GPa) = 0.04782098
#
# Stress axis : x y z
#
# Youngs Moduli (GPa) = 56.29367 15.12098 88.17784
#
# Poissons Ratio (x) = 0.15235 0.67874
# Poissons Ratio (y) = 0.56720 0.52338
# Poissons Ratio (z) = 0.43331 0.08975
#
# Static dielectric constant tensor:
#      x y z
#    x 1.488400 0.000000 0.000000 
#    y 0.000000 1.453440 0.000000 
#    z 0.000000 0.000000 1.495360 
# 
# From -- ./inp_files/45400.got.cif
#   From: 2010.05.17/outbox.cif.g08.bks.cpg/sg67_23_cif.got.tgz:45400.got - 2010.06.03 18:28:57.
