data_PCOD9504995
_publ_section_title
;
Structure prediction by ZEFSAII (Michael W. Deem and Ramdas Pophale) SiO2 
 PCOD9504995
Probable space group: C M M A
;
_chemical_formula_sum "Si O2"
_cell_formula_units_Z 128
_cell_length_a 18.272758
_cell_length_b 18.262296
_cell_length_c 20.658395
_cell_angle_alpha 90.000000
_cell_angle_beta 90.000000
_cell_angle_gamma 90.000000
_cell_volume 6893.758374
_symmetry_space_group_name_H-M "C M M A"
_symmetry_group_IT_number 67
_symmetry_cell_setting 'orthorhombic'
loop_
_space_group_symop_operation_xyz
x,y,z
-x,1/2-y,z
x,-y,-z
-x,1/2+y,-z
-x,-y,-z
x,1/2+y,-z
-x,y,z
x,1/2-y,z
1/2+x,1/2+y,z
1/2-x,-y,z
1/2+x,1/2-y,-z
1/2-x,y,-z
1/2-x,1/2-y,-z
1/2+x,y,-z
1/2-x,1/2+y,z
1/2+x,-y,z
loop_
_atom_site_type_symbol
_atom_site_label
_atom_site_fract_x
_atom_site_fract_y
_atom_site_fract_z
Si Si1 0.162200 0.331677 0.498465
Si Si2 0.210121 0.835140 0.283051
Si Si3 0.315226 0.165018 0.137491
Si Si4 0.838243 0.916097 0.010987
Si Si5 0.676628 0.951345 0.603816
Si Si6 0.884214 0.335232 0.254161
Si Si7 0.639223 0.335303 0.884938
Si Si8 0.918602 0.907704 0.615261
O O1 0.134482 0.250000 0.515876
O O2 0.250000 0.327268 0.500000
O O3 0.148230 0.399089 0.546491
O O4 0.131998 0.355007 0.428589
O O5 0.193225 0.750000 0.301834
O O6 0.172612 0.851284 0.213375
O O7 0.192398 0.895749 0.336824
O O8 0.297082 0.837513 0.269314
O O9 0.334732 0.250000 0.125885
O O10 0.351446 0.114359 0.083000
O O11 0.227242 0.159661 0.126662
O O12 0.750000 0.909405 0.000000
O O13 0.876149 0.871757 0.953299
O O14 0.857233 0.000000 0.000000
O O15 0.750000 0.000000 0.588756
O O16 0.616250 0.012256 0.617354
O O17 0.905881 0.250000 0.255341
O O18 0.895700 0.364800 0.181468
O O19 0.920228 0.377908 0.312158
O O20 0.621094 0.250000 0.888762
O O21 0.000000 0.907984 0.587225
#
# Coordination Sequence:
#
# PCOD9504995 Si02
#       8
#    16  16  16  16  16  16  16  16
#     4  11  23  40  63  86 110 147 194 233 271 330
#     4   9  17  32  54  81 106 141 192 234 274 331
#     4   8  14  24  39  61  96 136 176 226 273 318
#     4   9  15  21  30  56  94 138 179 219 268 325
#     4  12  22  37  60  85 112 148 181 231 284 335
#     4   9  17  32  52  76 106 142 186 231 275 332
#     4   8  14  24  40  59  89 136 182 217 260 325
#     4  12  26  40  58  86 119 150 183 230 290 345
#
# _framework density 18.567519999999998
#
# number of rings (size 3 to 8) (size 9 to 14) (size 15 to 20)
#    0.000    2.250    2.500    3.000    0.000    6.500 
#    2.250    0.000    0.000    1.125    0.000    0.000 
#    0.000    4.500    0.000    7.125    0.000    3.000 
#
# Total GULP energy -356659.275179 kJ/mol
# GULP energy per Si atom -5572.801175 kJ/mol
# Density = 1.852526 g / cm^3
# Si number density = 18.567520 Si / 1000 Ang^3
#
#
#
# Elastic Constant Matrix: (Units=GPa)
#
#
# Indices 1 2 3 4 5 6 
#
# 1 36.7547 16.8591 16.7778 0.0000 0.0000 0.0000
# 2 16.8591 97.0051 60.4280 0.0000 0.0000 0.0000
# 3 16.7778 60.4280 111.5181 0.0000 0.0000 0.0000
# 4 0.0000 0.0000 0.0000 27.6069 0.0000 0.0000
# 5 0.0000 0.0000 0.0000 0.0000 -0.0511 0.0000
# 6 0.0000 0.0000 0.0000 0.0000 0.0000 -17.3453
#
#
#
# Elastic Compliance Matrix: (Units=1/GPa)
#
#
# Indices 1 2 3 4 5 6 
#
# 1 0.030038 -0.003631 -0.002552 0.000000 0.000000 0.000000
# 2 -0.003631 0.016000 -0.008124 0.000000 0.000000 0.000000
# 3 -0.002552 -0.008124 0.013753 0.000000 0.000000 0.000000
# 4 0.000000 0.000000 0.000000 0.036223 0.000000 0.000000
# 5 0.000000 0.000000 0.000000 0.000000-19.554249 0.000000
# 6 0.000000 0.000000 0.000000 0.000000 0.000000 -0.057652
#
#
# Mechanical properties :
#
#
# Convention : Reuss Voigt Hill
#
# Bulk Modulus (GPa) = 32.07357 48.15642 40.11499
# Shear Modulus (GPa) = -0.25671 12.12295 5.93312
#
# Velocity S-wave (km/s) = -0.37224 2.55799 1.78952
# Velocity P-wave (km/s) = 4.13845 5.89207 5.09133
#
# Compressibility (1/GPa) = 0.03117832
#
# Stress axis : x y z
#
# Youngs Moduli (GPa) = 33.29158 62.49844 72.71095
#
# Poissons Ratio (x) = 0.22692 0.18554
# Poissons Ratio (y) = 0.12088 0.59069
# Poissons Ratio (z) = 0.08495 0.50773
#
# Static dielectric constant tensor:
#      x y z
#    x 1.646710 0.000000 0.000000 
#    y 0.000000 1.636710 0.000000 
#    z 0.000000 0.000000 1.675950 
# 
# From -- ./inp_files/39424.got.cif
#   From: 2010.05.17/outbox.cif.g08.bks.cpg/sg67_20_cif.got.tgz:39424.got - 2010.06.03 18:28:57.
