data_PCOD9504059
_publ_section_title
;
Structure prediction by ZEFSAII (Michael W. Deem and Ramdas Pophale) SiO2 
 PCOD9504059
Probable space group: C M M A
;
_chemical_formula_sum "Si O2"
_cell_formula_units_Z 104
_cell_length_a 20.918361
_cell_length_b 7.989354
_cell_length_c 30.108083
_cell_angle_alpha 90.000000
_cell_angle_beta 90.000000
_cell_angle_gamma 90.000000
_cell_volume 5031.789018
_symmetry_space_group_name_H-M "C M M A"
_symmetry_group_IT_number 67
_symmetry_cell_setting 'orthorhombic'
loop_
_space_group_symop_operation_xyz
x,y,z
-x,1/2-y,z
x,-y,-z
-x,1/2+y,-z
-x,-y,-z
x,1/2+y,-z
-x,y,z
x,1/2-y,z
1/2+x,1/2+y,z
1/2-x,-y,z
1/2+x,1/2-y,-z
1/2-x,y,-z
1/2-x,1/2-y,-z
1/2+x,y,-z
1/2-x,1/2+y,z
1/2+x,-y,z
loop_
_atom_site_type_symbol
_atom_site_label
_atom_site_fract_x
_atom_site_fract_y
_atom_site_fract_z
Si Si1 0.500000 0.549659 0.051431
Si Si2 0.428868 0.047182 0.794076
Si Si3 0.816685 0.951368 0.857157
Si Si4 0.175611 0.053129 0.379070
Si Si5 0.427948 0.948816 0.691752
Si Si6 0.640523 0.048003 0.949026
Si Si7 0.928198 0.452292 0.448625
O O1 0.500000 0.750000 0.057517
O O2 0.430724 0.490084 0.065827
O O3 0.500000 0.500000 0.000000
O O4 0.500000 0.997176 0.808731
O O5 0.426851 0.250000 0.793304
O O6 0.375361 0.986402 0.827875
O O7 0.419340 0.986260 0.743885
O O8 0.821356 0.750000 0.859060
O O9 0.817977 0.015059 0.908031
O O10 0.750000 0.000000 0.835797
O O11 0.178878 0.250000 0.386237
O O12 0.130590 0.981921 0.418864
O O13 0.250000 0.000000 0.376238
O O14 0.131233 0.020329 0.336029
O O15 0.500000 0.013435 0.679601
O O16 0.428354 0.750000 0.684949
O O17 0.641040 0.250000 0.949610
O O18 0.654791 0.000000 0.000000
O O19 0.919906 0.500000 0.500000
O O20 0.928864 0.250000 0.445370
O O21 0.000000 0.510791 0.434746
#
# Coordination Sequence:
#
# PCOD9504059 Si02
#       7
#     8  16  16  16  16  16  16
#     4   8  14  26  46  70  96 122 156 204 250 292
#     4   9  19  37  61  84 106 139 183 227 272 325
#     4  10  22  37  54  78 107 141 177 216 265 321
#     4  11  23  38  57  84 119 157 198 241 289 343
#     4  10  21  38  61  88 116 146 184 232 285 340
#     4   9  18  32  51  75 102 134 172 214 260 310
#     4   9  19  36  58  83 112 151 198 246 293 342
#
# _framework density 20.668592
#
# number of rings (size 3 to 8) (size 9 to 14) (size 15 to 20)
#    0.000    2.462    0.000    1.385    1.077    5.231 
#    0.000    6.154    0.000    0.000    0.000    0.000 
#    0.000    0.000    0.000    0.000    0.000    0.000 
#
# Total GULP energy -289818.284131 kJ/mol
# GULP energy per Si atom -5573.428541 kJ/mol
# Density = 2.062155 g / cm^3
# Si number density = 20.668592 Si / 1000 Ang^3
#
#
#
# Elastic Constant Matrix: (Units=GPa)
#
#
# Indices 1 2 3 4 5 6 
#
# 1 207.8440 15.1890 93.6419 0.0000 0.0000 0.0000
# 2 15.1890 17.0284 1.8746 0.0000 0.0000 0.0000
# 3 93.6419 1.8746 98.0660 0.0000 0.0000 0.0000
# 4 0.0000 0.0000 0.0000 17.9675 0.0000 0.0000
# 5 0.0000 0.0000 0.0000 0.0000 -38.1466 0.0000
# 6 0.0000 0.0000 0.0000 0.0000 0.0000 16.4995
#
#
#
# Elastic Compliance Matrix: (Units=1/GPa)
#
#
# Indices 1 2 3 4 5 6 
#
# 1 0.009271 -0.007311 -0.008713 0.000000 0.000000 0.000000
# 2 -0.007311 0.064614 0.005746 0.000000 0.000000 0.000000
# 3 -0.008713 0.005746 0.018407 0.000000 0.000000 0.000000
# 4 0.000000 0.000000 0.000000 0.055656 0.000000 0.000000
# 5 0.000000 0.000000 0.000000 0.000000 -0.026215 0.000000
# 6 0.000000 0.000000 0.000000 0.000000 0.000000 0.060608
#
#
# Mechanical properties :
#
#
# Convention : Reuss Voigt Hill
#
# Bulk Modulus (GPa) = 13.93992 60.48326 37.21159
# Shear Modulus (GPa) = 22.04483 13.41292 17.72888
#
# Velocity S-wave (km/s) = 3.26941 2.55022 2.93195
# Velocity P-wave (km/s) = 4.58379 6.16428 5.43183
#
# Compressibility (1/GPa) = 0.07173641
#
# Stress axis : x y z
#
# Youngs Moduli (GPa) = 107.86123 15.47653 54.32580
#
# Poissons Ratio (x) = 0.11314 0.47335
# Poissons Ratio (y) = 0.78853 -0.31214
# Poissons Ratio (z) = 0.93981 -0.08892
#
# Static dielectric constant tensor:
#      x y z
#    x 1.800650 0.000000 0.000000 
#    y 0.000000 1.723860 0.000000 
#    z 0.000000 0.000000 1.722250 
# 
# From -- ./inp_files/45873.got.cif
#   From: 2010.05.17/outbox.cif.g08.bks.cpg/sg67_23_cif.got.tgz:45873.got - 2010.06.03 18:28:57.
