data_PCOD9504288
_publ_section_title
;
Structure prediction by ZEFSAII (Michael W. Deem and Ramdas Pophale) SiO2 
 PCOD9504288
Probable space group: C M M A
;
_chemical_formula_sum "Si O2"
_cell_formula_units_Z 72
_cell_length_a 25.261303
_cell_length_b 17.493262
_cell_length_c 7.651929
_cell_angle_alpha 90.000000
_cell_angle_beta 90.000000
_cell_angle_gamma 90.000000
_cell_volume 3381.407258
_symmetry_space_group_name_H-M "C M M A"
_symmetry_group_IT_number 67
_symmetry_cell_setting 'orthorhombic'
loop_
_space_group_symop_operation_xyz
x,y,z
-x,1/2-y,z
x,-y,-z
-x,1/2+y,-z
-x,-y,-z
x,1/2+y,-z
-x,y,z
x,1/2-y,z
1/2+x,1/2+y,z
1/2-x,-y,z
1/2+x,1/2-y,-z
1/2-x,y,-z
1/2-x,1/2-y,-z
1/2+x,y,-z
1/2-x,1/2+y,z
1/2+x,-y,z
loop_
_atom_site_type_symbol
_atom_site_label
_atom_site_fract_x
_atom_site_fract_y
_atom_site_fract_z
Si Si1 0.673282 0.052895 0.658272
Si Si2 0.372661 0.164187 0.406980
Si Si3 0.238607 0.163979 0.792673
Si Si4 0.937448 0.837716 0.074100
Si Si5 0.382586 0.000000 0.000000
O O1 0.629124 0.106655 0.567849
O O2 0.722437 0.104551 0.707400
O O3 0.688789 0.000000 0.500000
O O4 0.652576 0.007604 0.825755
O O5 0.369959 0.250000 0.476297
O O6 0.321151 0.154634 0.278499
O O7 0.422397 0.157130 0.279123
O O8 0.254170 0.250000 0.741817
O O9 0.250000 0.157372 0.000000
O O10 0.918056 0.750000 0.020741
O O11 0.000000 0.838600 0.044617
O O12 0.913320 0.917900 0.001533
#
# Coordination Sequence:
#
# PCOD9504288 Si02
#       5
#    16  16  16  16   8
#     4  12  25  42  61  99 135 179 221 270 336 405
#     4  10  21  42  67  94 130 175 227 281 341 401
#     4  10  22  41  66  94 130 179 227 277 336 403
#     4  10  22  44  73 102 135 177 228 287 345 404
#     4  12  25  46  69 102 140 178 228 280 340 408
#
# _framework density 21.292909999999999
#
# number of rings (size 3 to 8) (size 9 to 14) (size 15 to 20)
#    0.000    1.333    2.222    3.000    0.000    7.111 
#    0.000    3.333    0.000    2.667    0.000    0.000 
#    0.000    0.000    0.000    0.000    0.000    0.000 
#
# Total GULP energy -200968.496209 kJ/mol
# GULP energy per Si atom -5582.458228 kJ/mol
# Density = 2.124445 g / cm^3
# Si number density = 21.292910 Si / 1000 Ang^3
#
#
#
# Elastic Constant Matrix: (Units=GPa)
#
#
# Indices 1 2 3 4 5 6 
#
# 1 44.7317 42.4571 25.9404 0.0000 0.0000 0.0000
# 2 42.4571 191.7918 65.3573 0.0000 0.0000 0.0000
# 3 25.9404 65.3573 104.8887 0.0000 0.0000 0.0000
# 4 0.0000 0.0000 0.0000 48.5285 0.0000 0.0000
# 5 0.0000 0.0000 0.0000 0.0000 12.8401 0.0000
# 6 0.0000 0.0000 0.0000 0.0000 0.0000 51.5980
#
#
#
# Elastic Compliance Matrix: (Units=1/GPa)
#
#
# Indices 1 2 3 4 5 6 
#
# 1 0.029639 -0.005159 -0.004116 0.000000 0.000000 0.000000
# 2 -0.005159 0.007517 -0.003408 0.000000 0.000000 0.000000
# 3 -0.004116 -0.003408 0.012676 0.000000 0.000000 0.000000
# 4 0.000000 0.000000 0.000000 0.020606 0.000000 0.000000
# 5 0.000000 0.000000 0.000000 0.000000 0.077881 0.000000
# 6 0.000000 0.000000 0.000000 0.000000 0.000000 0.019381
#
#
# Mechanical properties :
#
#
# Convention : Reuss Voigt Hill
#
# Bulk Modulus (GPa) = 40.87261 67.65798 54.26529
# Shear Modulus (GPa) = 24.84836 36.43715 30.64275
#
# Velocity S-wave (km/s) = 3.41981 4.14119 3.79767
# Velocity P-wave (km/s) = 5.90174 7.39661 6.69105
#
# Compressibility (1/GPa) = 0.02446626
#
# Stress axis : x y z
#
# Youngs Moduli (GPa) = 33.73988 133.02386 78.89183
#
# Poissons Ratio (x) = 0.68622 0.32469
# Poissons Ratio (y) = 0.17405 0.26890
# Poissons Ratio (z) = 0.13886 0.45340
#
# Static dielectric constant tensor:
#      x y z
#    x 1.737010 0.000000 0.000000 
#    y 0.000000 1.868740 0.000000 
#    z 0.000000 0.000000 1.761360 
# 
# From -- ./inp_files/12243.got.cif
#   From: 2010.05.17/outbox.cif.g08.bks.cpg/sg67_7_cif.got.tgz:12243.got - 2010.06.03 18:28:57.
