data_PCOD9504520
_publ_section_title
;
Structure prediction by ZEFSAII (Michael W. Deem and Ramdas Pophale) SiO2 
 PCOD9504520
Probable space group: C M M A
;
_chemical_formula_sum "Si O2"
_cell_formula_units_Z 56
_cell_length_a 27.271441
_cell_length_b 16.572414
_cell_length_c 5.065527
_cell_angle_alpha 90.000000
_cell_angle_beta 90.000000
_cell_angle_gamma 90.000000
_cell_volume 2289.383217
_symmetry_space_group_name_H-M "C M M A"
_symmetry_group_IT_number 67
_symmetry_cell_setting 'orthorhombic'
loop_
_space_group_symop_operation_xyz
x,y,z
-x,1/2-y,z
x,-y,-z
-x,1/2+y,-z
-x,-y,-z
x,1/2+y,-z
-x,y,z
x,1/2-y,z
1/2+x,1/2+y,z
1/2-x,-y,z
1/2+x,1/2-y,-z
1/2-x,y,-z
1/2-x,1/2-y,-z
1/2+x,y,-z
1/2-x,1/2+y,z
1/2+x,-y,z
loop_
_atom_site_type_symbol
_atom_site_label
_atom_site_fract_x
_atom_site_fract_y
_atom_site_fract_z
Si Si1 0.942071 0.420620 0.841509
Si Si2 0.899291 0.157904 0.322483
Si Si3 0.808762 0.905915 0.493701
Si Si4 0.786212 0.750000 0.245116
O O1 0.918384 0.398658 0.561635
O O2 0.000000 0.430062 0.797563
O O3 0.923724 0.500000 0.000000
O O4 0.930304 0.353075 0.058319
O O5 0.902338 0.250000 0.408829
O O6 0.842649 0.132838 0.280543
O O7 0.750000 0.911280 0.500000
O O8 0.815540 0.834504 0.273942
O O9 0.823950 0.000000 0.500000
O O10 0.750000 0.750000 0.500000
O O11 0.750000 0.750000 0.000000
#
# Coordination Sequence:
#
# PCOD9504520 Si02
#       4
#    16  16  16   8
#     4  11  25  46  71 100 138 184 236 296 358 427
#     4  12  25  43  70 104 142 184 235 294 356 429
#     4  10  22  44  70 102 141 188 236 290 353 420
#     4  10  22  42  66  96 135 180 233 290 342 412
#
# _framework density 24.460739
#
# number of rings (size 3 to 8) (size 9 to 14) (size 15 to 20)
#    0.000    1.143    1.429    4.286    0.000   10.286 
#    0.000   20.000    0.000    0.000    0.000    0.000 
#    0.000    0.000    0.000    0.000    0.000    0.000 
#
# Total GULP energy -156146.753815 kJ/mol
# GULP energy per Si atom -5576.669779 kJ/mol
# Density = 2.440506 g / cm^3
# Si number density = 24.460739 Si / 1000 Ang^3
#
#
#
# Elastic Constant Matrix: (Units=GPa)
#
#
# Indices 1 2 3 4 5 6 
#
# 1 68.4389 5.5526 24.4770 0.0000 0.0000 0.0000
# 2 5.5526 182.9871 26.1451 0.0000 0.0000 0.0000
# 3 24.4770 26.1451 142.9525 0.0000 0.0000 0.0000
# 4 0.0000 0.0000 0.0000 15.8054 0.0000 0.0000
# 5 0.0000 0.0000 0.0000 0.0000 34.5049 0.0000
# 6 0.0000 0.0000 0.0000 0.0000 0.0000 7.3606
#
#
#
# Elastic Compliance Matrix: (Units=1/GPa)
#
#
# Indices 1 2 3 4 5 6 
#
# 1 0.015566 -0.000094 -0.002648 0.000000 0.000000 0.000000
# 2 -0.000094 0.005612 -0.001010 0.000000 0.000000 0.000000
# 3 -0.002648 -0.001010 0.007634 0.000000 0.000000 0.000000
# 4 0.000000 0.000000 0.000000 0.063270 0.000000 0.000000
# 5 0.000000 0.000000 0.000000 0.000000 0.028981 0.000000
# 6 0.000000 0.000000 0.000000 0.000000 0.000000 0.135858
#
#
# Mechanical properties :
#
#
# Convention : Reuss Voigt Hill
#
# Bulk Modulus (GPa) = 46.93288 56.30310 51.61799
# Shear Modulus (GPa) = 18.41429 34.08110 26.24769
#
# Velocity S-wave (km/s) = 2.74671 3.73674 3.27930
# Velocity P-wave (km/s) = 5.41183 6.45642 5.95707
#
# Compressibility (1/GPa) = 0.02130702
#
# Stress axis : x y z
#
# Youngs Moduli (GPa) = 64.24129 178.18732 131.00079
#
# Poissons Ratio (x) = 0.01675 0.34691
# Poissons Ratio (y) = 0.00604 0.13235
# Poissons Ratio (z) = 0.17012 0.18003
#
# Static dielectric constant tensor:
#      x y z
#    x 2.000580 0.000000 0.000000 
#    y 0.000000 2.035200 0.000000 
#    z 0.000000 0.000000 1.936980 
# 
# From -- ./inp_files/4461.got.cif
#   From: 2010.05.17/outbox.cif.g08.bks.cpg/sg67_3_cif.got.tgz:4461.got - 2010.06.03 18:28:57.
