data_PCOD9504094
_publ_section_title
;
Structure prediction by ZEFSAII (Michael W. Deem and Ramdas Pophale) SiO2 
 PCOD9504094
Probable space group: C M M A
;
_chemical_formula_sum "Si O2"
_cell_formula_units_Z 96
_cell_length_a 21.298455
_cell_length_b 24.575134
_cell_length_c 8.944415
_cell_angle_alpha 90.000000
_cell_angle_beta 90.000000
_cell_angle_gamma 90.000000
_cell_volume 4681.617593
_symmetry_space_group_name_H-M "C M M A"
_symmetry_group_IT_number 67
_symmetry_cell_setting 'orthorhombic'
loop_
_space_group_symop_operation_xyz
x,y,z
-x,1/2-y,z
x,-y,-z
-x,1/2+y,-z
-x,-y,-z
x,1/2+y,-z
-x,y,z
x,1/2-y,z
1/2+x,1/2+y,z
1/2-x,-y,z
1/2+x,1/2-y,-z
1/2-x,y,-z
1/2-x,1/2-y,-z
1/2+x,y,-z
1/2-x,1/2+y,z
1/2+x,-y,z
loop_
_atom_site_type_symbol
_atom_site_label
_atom_site_fract_x
_atom_site_fract_y
_atom_site_fract_z
Si Si1 0.568984 0.890396 0.870245
Si Si2 0.888007 0.515690 0.327821
Si Si3 0.268952 0.911444 0.674040
Si Si4 0.074413 0.186933 0.351949
Si Si5 0.137005 0.408339 0.165233
Si Si6 0.863388 0.187483 0.678622
O O1 0.500000 0.890926 0.940170
O O2 0.571813 0.934653 0.737171
O O3 0.585300 0.832516 0.798039
O O4 0.621891 0.905525 0.990641
O O5 0.898912 0.500000 0.500000
O O6 0.817145 0.538640 0.308617
O O7 0.896277 0.461812 0.231199
O O8 0.250000 0.912737 0.500000
O O9 0.209080 0.912535 0.781901
O O10 0.306874 0.855179 0.695837
O O11 0.082599 0.250000 0.305639
O O12 0.107205 0.144964 0.241058
O O13 0.106779 0.180814 0.514058
O O14 0.000000 0.176230 0.363602
O O15 0.844966 0.250000 0.698618
#
# Coordination Sequence:
#
# PCOD9504094 Si02
#       6
#    16  16  16  16  16  16
#     4  11  26  44  61  92 133 173 219 268 327 389
#     4  11  23  40  66  95 126 170 219 268 322 389
#     4  11  21  40  67  98 130 159 211 267 324 390
#     4  10  21  38  62  93 124 164 222 273 318 383
#     4  12  23  39  65  93 131 171 209 265 332 391
#     4  10  22  41  66  93 124 170 217 267 327 385
#
# _framework density 20.505731999999998
#
# number of rings (size 3 to 8) (size 9 to 14) (size 15 to 20)
#    0.000    1.167    3.333    3.000    0.000    7.667 
#    0.000    4.167    0.000    0.000    0.000    0.000 
#    0.000    0.000    0.000    0.000    0.000    0.000 
#
# Total GULP energy -268312.081390 kJ/mol
# GULP energy per Si atom -5589.835029 kJ/mol
# Density = 2.045906 g / cm^3
# Si number density = 20.505732 Si / 1000 Ang^3
#
#
#
# Elastic Constant Matrix: (Units=GPa)
#
#
# Indices 1 2 3 4 5 6 
#
# 1 55.0489 -7.0324 1.6498 0.0000 0.0000 0.0000
# 2 -7.0324 94.8619 24.5048 0.0000 0.0000 0.0000
# 3 1.6498 24.5048 79.1150 0.0000 0.0000 0.0000
# 4 0.0000 0.0000 0.0000 14.9645 0.0000 0.0000
# 5 0.0000 0.0000 0.0000 0.0000 23.8934 0.0000
# 6 0.0000 0.0000 0.0000 0.0000 0.0000 18.0619
#
#
#
# Elastic Compliance Matrix: (Units=1/GPa)
#
#
# Indices 1 2 3 4 5 6 
#
# 1 0.018395 0.001590 -0.000876 0.000000 0.000000 0.000000
# 2 0.001590 0.011596 -0.003625 0.000000 0.000000 0.000000
# 3 -0.000876 -0.003625 0.013781 0.000000 0.000000 0.000000
# 4 0.000000 0.000000 0.000000 0.066825 0.000000 0.000000
# 5 0.000000 0.000000 0.000000 0.000000 0.041852 0.000000
# 6 0.000000 0.000000 0.000000 0.000000 0.000000 0.055365
#
#
# Mechanical properties :
#
#
# Convention : Reuss Voigt Hill
#
# Bulk Modulus (GPa) = 26.35049 29.69668 28.02358
# Shear Modulus (GPa) = 22.09593 25.37754 23.73673
#
# Velocity S-wave (km/s) = 3.28617 3.52175 3.40599
# Velocity P-wave (km/s) = 5.22271 5.57230 5.40033
#
# Compressibility (1/GPa) = 0.03794996
#
# Stress axis : x y z
#
# Youngs Moduli (GPa) = 54.36246 86.23754 72.56452
#
# Poissons Ratio (x) = -0.13712 0.06357
# Poissons Ratio (y) = -0.08644 0.26303
# Poissons Ratio (z) = 0.04763 0.31260
#
# Static dielectric constant tensor:
#      x y z
#    x 1.761750 0.000000 0.000000 
#    y 0.000000 1.693220 0.000000 
#    z 0.000000 0.000000 1.717550 
# 
# From -- ./inp_files/11510.got.cif
#   From: 2010.05.17/outbox.cif.g08.bks.cpg/sg67_6_cif.got.tgz:11510.got - 2010.06.03 18:28:57.
