data_PCOD9504185
_publ_section_title
;
Structure prediction by ZEFSAII (Michael W. Deem and Ramdas Pophale) SiO2 
 PCOD9504185
Probable space group: C M M A
;
_chemical_formula_sum "Si O2"
_cell_formula_units_Z 68
_cell_length_a 17.818349
_cell_length_b 19.486068
_cell_length_c 9.827979
_cell_angle_alpha 90.000000
_cell_angle_beta 90.000000
_cell_angle_gamma 90.000000
_cell_volume 3412.368267
_symmetry_space_group_name_H-M "C M M A"
_symmetry_group_IT_number 67
_symmetry_cell_setting 'orthorhombic'
loop_
_space_group_symop_operation_xyz
x,y,z
-x,1/2-y,z
x,-y,-z
-x,1/2+y,-z
-x,-y,-z
x,1/2+y,-z
-x,y,z
x,1/2-y,z
1/2+x,1/2+y,z
1/2-x,-y,z
1/2+x,1/2-y,-z
1/2-x,y,-z
1/2-x,1/2-y,-z
1/2+x,y,-z
1/2-x,1/2+y,z
1/2+x,-y,z
loop_
_atom_site_type_symbol
_atom_site_label
_atom_site_fract_x
_atom_site_fract_y
_atom_site_fract_z
Si Si1 0.750000 0.000000 0.500000
Si Si2 0.824834 0.832855 0.185844
Si Si3 0.328388 0.609323 0.306009
Si Si4 0.916639 0.668967 0.450514
Si Si5 0.587868 0.079831 0.963757
O O1 0.701265 0.953133 0.398683
O O2 0.827444 0.750000 0.168395
O O3 0.741357 0.856024 0.227490
O O4 0.875084 0.855905 0.315214
O O5 0.859391 0.872093 0.056884
O O6 0.367205 0.657759 0.416460
O O7 0.387947 0.588596 0.192159
O O8 0.923423 0.750000 0.430924
O O9 0.000000 0.638836 0.465123
O O10 0.500000 0.097176 0.984703
O O11 0.599166 0.000000 0.000000
#
# Coordination Sequence:
#
# PCOD9504185 Si02
#       5
#     4  16  16  16  16
#     4  12  24  40  66  96 128 176 224 270 328 396
#     4  11  23  43  69  96 131 174 218 269 332 394
#     4  12  23  41  65  96 127 170 219 271 323 387
#     4  10  21  39  64  94 128 166 210 267 328 387
#     4  11  26  45  64  94 133 174 218 269 326 390
#
# _framework density 19.927509000000001
#
# number of rings (size 3 to 8) (size 9 to 14) (size 15 to 20)
#    0.000    0.941    2.353    4.235    0.000    7.059 
#    0.000    1.176    0.000    0.000    0.000    0.000 
#    0.000    0.000    0.000    0.000    0.000    0.000 
#
# Total GULP energy -189984.572007 kJ/mol
# GULP energy per Si atom -5587.781530 kJ/mol
# Density = 1.988215 g / cm^3
# Si number density = 19.927509 Si / 1000 Ang^3
#
#
#
# Elastic Constant Matrix: (Units=GPa)
#
#
# Indices 1 2 3 4 5 6 
#
# 1 90.9117 24.5572 23.0269 0.0000 0.0000 0.0000
# 2 24.5572 56.9415 23.8097 0.0000 0.0000 0.0000
# 3 23.0269 23.8097 121.2959 0.0000 0.0000 0.0000
# 4 0.0000 0.0000 0.0000 22.2001 0.0000 0.0000
# 5 0.0000 0.0000 0.0000 0.0000 314.0482 0.0000
# 6 0.0000 0.0000 0.0000 0.0000 0.0000 244.2181
#
#
#
# Elastic Compliance Matrix: (Units=1/GPa)
#
#
# Indices 1 2 3 4 5 6 
#
# 1 0.012681 -0.004861 -0.001453 0.000000 0.000000 0.000000
# 2 -0.004861 0.020996 -0.003198 0.000000 0.000000 0.000000
# 3 -0.001453 -0.003198 0.009148 0.000000 0.000000 0.000000
# 4 0.000000 0.000000 0.000000 0.045045 0.000000 0.000000
# 5 0.000000 0.000000 0.000000 0.000000 0.003184 0.000000
# 6 0.000000 0.000000 0.000000 0.000000 0.000000 0.004095
#
#
# Mechanical properties :
#
#
# Convention : Reuss Voigt Hill
#
# Bulk Modulus (GPa) = 42.01867 45.77076 43.89471
# Shear Modulus (GPa) = 40.94760 129.27697 85.11229
#
# Velocity S-wave (km/s) = 4.53794 8.06315 6.54245
# Velocity P-wave (km/s) = 6.97056 10.47399 8.89644
#
# Compressibility (1/GPa) = 0.02379894
#
# Stress axis : x y z
#
# Youngs Moduli (GPa) = 78.85893 47.62849 109.31344
#
# Poissons Ratio (x) = 0.23154 0.15884
# Poissons Ratio (y) = 0.38336 0.34964
# Poissons Ratio (z) = 0.11459 0.15234
#
# Static dielectric constant tensor:
#      x y z
#    x 1.727150 0.000000 0.000000 
#    y 0.000000 1.725560 0.000000 
#    z 0.000000 0.000000 1.673410 
# 
# From -- ./inp_files/9474.got.cif
#   From: 2010.05.17/outbox.cif.g08.bks.cpg/sg67_5_cif.got.tgz:9474.got - 2010.06.03 18:28:57.
