data_PCOD9504727
_publ_section_title
;
Structure prediction by ZEFSAII (Michael W. Deem and Ramdas Pophale) SiO2 
 PCOD9504727
Probable space group: C M M A
;
_chemical_formula_sum "Si O2"
_cell_formula_units_Z 48
_cell_length_a 19.363538
_cell_length_b 15.095852
_cell_length_c 9.682024
_cell_angle_alpha 90.000000
_cell_angle_beta 90.000000
_cell_angle_gamma 90.000000
_cell_volume 2830.143759
_symmetry_space_group_name_H-M "C M M A"
_symmetry_group_IT_number 67
_symmetry_cell_setting 'orthorhombic'
loop_
_space_group_symop_operation_xyz
x,y,z
-x,1/2-y,z
x,-y,-z
-x,1/2+y,-z
-x,-y,-z
x,1/2+y,-z
-x,y,z
x,1/2-y,z
1/2+x,1/2+y,z
1/2-x,-y,z
1/2+x,1/2-y,-z
1/2-x,y,-z
1/2-x,1/2-y,-z
1/2+x,y,-z
1/2-x,1/2+y,z
1/2+x,-y,z
loop_
_atom_site_type_symbol
_atom_site_label
_atom_site_fract_x
_atom_site_fract_y
_atom_site_fract_z
Si Si1 0.079538 0.250000 0.215358
Si Si2 0.577154 0.648196 0.943569
Si Si3 0.774287 0.750000 0.656823
Si Si4 0.220317 0.097067 0.852318
O O1 0.142619 0.250000 0.320673
O O2 0.000000 0.250000 0.266199
O O3 0.086874 0.166883 0.108035
O O4 0.500000 0.613891 0.920897
O O5 0.580861 0.750000 0.887904
O O6 0.638217 0.594250 0.875792
O O7 0.750000 0.750000 0.500000
O O8 0.743496 0.664967 0.736008
O O9 0.250000 0.000000 0.827664
O O10 0.250000 0.130096 0.000000
#
# Coordination Sequence:
#
# PCOD9504727 Si02
#       4
#     8  16   8  16
#     4   8  15  31  54  80 109 141 182 227 279 337
#     4   8  14  29  57  83 108 140 179 236 285 324
#     4  12  22  36  55  77 114 156 186 225 279 336
#     4  11  20  34  57  84 111 140 186 238 280 321
#
# _framework density 16.960267999999999
#
# number of rings (size 3 to 8) (size 9 to 14) (size 15 to 20)
#    1.000    1.333    5.000    0.500    0.000    0.667 
#    0.000    6.667    0.000    0.000    0.000    4.667 
#    0.000    0.000    0.000    0.000    0.000    0.000 
#
# Total GULP energy -133607.957023 kJ/mol
# GULP energy per Si atom -5566.998209 kJ/mol
# Density = 1.692167 g / cm^3
# Si number density = 16.960268 Si / 1000 Ang^3
#
#
#
# Elastic Constant Matrix: (Units=GPa)
#
#
# Indices 1 2 3 4 5 6 
#
# 1 202.3092 51.9583 64.0309 0.0000 0.0000 0.0000
# 2 51.9583 71.2355 56.6201 0.0000 0.0000 0.0000
# 3 64.0309 56.6201 106.6857 0.0000 0.0000 0.0000
# 4 0.0000 0.0000 0.0000 -6.4745 0.0000 0.0000
# 5 0.0000 0.0000 0.0000 0.0000 18.4504 0.0000
# 6 0.0000 0.0000 0.0000 0.0000 0.0000 23.3616
#
#
#
# Elastic Compliance Matrix: (Units=1/GPa)
#
#
# Indices 1 2 3 4 5 6 
#
# 1 0.006409 -0.002797 -0.002362 0.000000 0.000000 0.000000
# 2 -0.002797 0.025501 -0.011855 0.000000 0.000000 0.000000
# 3 -0.002362 -0.011855 0.017083 0.000000 0.000000 0.000000
# 4 0.000000 0.000000 0.000000 -0.154452 0.000000 0.000000
# 5 0.000000 0.000000 0.000000 0.000000 0.054199 0.000000
# 6 0.000000 0.000000 0.000000 0.000000 0.000000 0.042805
#
#
# Mechanical properties :
#
#
# Convention : Reuss Voigt Hill
#
# Bulk Modulus (GPa) = 66.82667 80.60544 73.71606
# Shear Modulus (GPa) = 163.60750 20.90890 92.25820
#
# Velocity S-wave (km/s) = 9.83232 3.51496 7.38341
# Velocity P-wave (km/s) = 12.97640 8.00640 10.78168
#
# Compressibility (1/GPa) = 0.01496408
#
# Stress axis : x y z
#
# Youngs Moduli (GPa) = 156.03329 39.21433 58.53909
#
# Poissons Ratio (x) = 0.10969 0.13827
# Poissons Ratio (y) = 0.43646 0.69398
# Poissons Ratio (z) = 0.36855 0.46488
#
# Static dielectric constant tensor:
#      x y z
#    x 1.615490 0.000000 0.000000 
#    y 0.000000 1.594210 0.000000 
#    z 0.000000 0.000000 1.541520 
# 
# From -- ./inp_files/8833.got.cif
#   From: 2010.05.17/outbox.cif.g08.bks.cpg/sg67_5_cif.got.tgz:8833.got - 2010.06.03 18:28:57.
