data_PCOD9504470
_publ_section_title
;
Structure prediction by ZEFSAII (Michael W. Deem and Ramdas Pophale) SiO2 
 PCOD9504470
Probable space group: C M M A
;
_chemical_formula_sum "Si O2"
_cell_formula_units_Z 52
_cell_length_a 20.520324
_cell_length_b 13.191996
_cell_length_c 9.097507
_cell_angle_alpha 90.000000
_cell_angle_beta 90.000000
_cell_angle_gamma 90.000000
_cell_volume 2462.731827
_symmetry_space_group_name_H-M "C M M A"
_symmetry_group_IT_number 67
_symmetry_cell_setting 'orthorhombic'
loop_
_space_group_symop_operation_xyz
x,y,z
-x,1/2-y,z
x,-y,-z
-x,1/2+y,-z
-x,-y,-z
x,1/2+y,-z
-x,y,z
x,1/2-y,z
1/2+x,1/2+y,z
1/2-x,-y,z
1/2+x,1/2-y,-z
1/2-x,y,-z
1/2-x,1/2-y,-z
1/2+x,y,-z
1/2-x,1/2+y,z
1/2+x,-y,z
loop_
_atom_site_type_symbol
_atom_site_label
_atom_site_fract_x
_atom_site_fract_y
_atom_site_fract_z
Si Si1 0.190653 0.750000 0.219234
Si Si2 0.610295 0.411787 0.397038
Si Si3 0.500000 0.250000 0.487311
Si Si4 0.839693 0.250000 0.127345
Si Si5 0.427023 0.559230 0.147391
O O1 0.163820 0.845264 0.311445
O O2 0.267745 0.750000 0.194437
O O3 0.162480 0.750000 0.051960
O O4 0.638546 0.500000 0.500000
O O5 0.557986 0.338535 0.475861
O O6 0.573174 0.475587 0.272639
O O7 0.878206 0.150386 0.176183
O O8 0.500000 0.601448 0.127662
O O9 0.407803 0.500000 0.000000
#
# Coordination Sequence:
#
# PCOD9504470 Si02
#       5
#     8  16   4   8  16
#     4  10  24  45  68  97 137 186 233 273 345 417
#     4  11  23  43  69 103 137 181 228 286 347 410
#     4  10  22  40  70  96 152 182 226 274 358 418
#     4  11  23  44  69  99 139 182 229 282 341 421
#     4  11  23  40  68 104 135 175 232 289 345 401
#
# _framework density 21.114761999999999
#
# number of rings (size 3 to 8) (size 9 to 14) (size 15 to 20)
#    0.000    1.231    4.615    0.923    0.000    3.692 
#    0.000    4.615    0.000    0.000    0.000    0.000 
#    0.000    0.000    0.000    0.000    0.000    0.000 
#
# Total GULP energy -144784.724071 kJ/mol
# GULP energy per Si atom -5568.643234 kJ/mol
# Density = 2.106670 g / cm^3
# Si number density = 21.114762 Si / 1000 Ang^3
#
#
#
# Elastic Constant Matrix: (Units=GPa)
#
#
# Indices 1 2 3 4 5 6 
#
# 1 95.9450 87.9811 21.7650 0.0000 0.0000 0.0000
# 2 87.9811 161.2072 48.8742 0.0000 0.0000 0.0000
# 3 21.7650 48.8742 69.3316 0.0000 0.0000 0.0000
# 4 0.0000 0.0000 0.0000 36.4571 0.0000 0.0000
# 5 0.0000 0.0000 0.0000 0.0000 -39.4793 0.0000
# 6 0.0000 0.0000 0.0000 0.0000 0.0000 29.0574
#
#
#
# Elastic Compliance Matrix: (Units=1/GPa)
#
#
# Indices 1 2 3 4 5 6 
#
# 1 0.021059 -0.012068 0.001896 0.000000 0.000000 0.000000
# 2 -0.012068 0.014805 -0.006648 0.000000 0.000000 0.000000
# 3 0.001896 -0.006648 0.018515 0.000000 0.000000 0.000000
# 4 0.000000 0.000000 0.000000 0.027430 0.000000 0.000000
# 5 0.000000 0.000000 0.000000 0.000000 -0.025330 0.000000
# 6 0.000000 0.000000 0.000000 0.000000 0.000000 0.034415
#
#
# Mechanical properties :
#
#
# Convention : Reuss Voigt Hill
#
# Bulk Modulus (GPa) = 48.21903 71.52494 59.87199
# Shear Modulus (GPa) = 38.03858 16.39794 27.21826
#
# Velocity S-wave (km/s) = 4.24903 2.78980 3.59425
# Velocity P-wave (km/s) = 6.85263 6.65772 6.75588
#
# Compressibility (1/GPa) = 0.02073870
#
# Stress axis : x y z
#
# Youngs Moduli (GPa) = 47.48613 67.54461 54.01133
#
# Poissons Ratio (x) = 0.81513 -0.10242
# Poissons Ratio (y) = 0.57306 0.35907
# Poissons Ratio (z) = -0.09005 0.44904
#
# Static dielectric constant tensor:
#      x y z
#    x 1.721060 0.000000 0.000000 
#    y 0.000000 1.750580 0.000000 
#    z 0.000000 0.000000 1.830670 
# 
# From -- ./inp_files/20267.got.cif
#   From: 2010.05.17/outbox.cif.g08.bks.cpg/sg67_11_cif.got.tgz:20267.got - 2010.06.03 18:28:57.
