data_PCOD9504223
_publ_section_title
;
Structure prediction by ZEFSAII (Michael W. Deem and Ramdas Pophale) SiO2 
 PCOD9504223
Probable space group: C M M A
;
_chemical_formula_sum "Si O2"
_cell_formula_units_Z 64
_cell_length_a 24.771472
_cell_length_b 15.267100
_cell_length_c 8.604270
_cell_angle_alpha 90.000000
_cell_angle_beta 90.000000
_cell_angle_gamma 90.000000
_cell_volume 3254.036311
_symmetry_space_group_name_H-M "C M M A"
_symmetry_group_IT_number 67
_symmetry_cell_setting 'orthorhombic'
loop_
_space_group_symop_operation_xyz
x,y,z
-x,1/2-y,z
x,-y,-z
-x,1/2+y,-z
-x,-y,-z
x,1/2+y,-z
-x,y,z
x,1/2-y,z
1/2+x,1/2+y,z
1/2-x,-y,z
1/2+x,1/2-y,-z
1/2-x,y,-z
1/2-x,1/2-y,-z
1/2+x,y,-z
1/2-x,1/2+y,z
1/2+x,-y,z
loop_
_atom_site_type_symbol
_atom_site_label
_atom_site_fract_x
_atom_site_fract_y
_atom_site_fract_z
Si Si1 0.500000 0.854567 0.417960
Si Si2 0.614378 0.595326 0.565854
Si Si3 0.811039 0.250000 0.437761
Si Si4 0.500000 0.099391 0.939260
Si Si5 0.386021 0.900473 0.937610
Si Si6 0.189870 0.250000 0.065546
O O1 0.500000 0.750000 0.398673
O O2 0.445990 0.882327 0.507260
O O3 0.500000 0.896505 0.246524
O O4 0.628351 0.500000 0.500000
O O5 0.655923 0.666308 0.499546
O O6 0.615179 0.596956 0.751826
O O7 0.750000 0.250000 0.500000
O O8 0.810693 0.250000 0.251616
O O9 0.443986 0.136191 0.004085
O O10 0.500000 0.000000 0.000000
O O11 0.340996 0.835813 0.003407
O O12 0.379809 0.000000 0.000000
O O13 0.250000 0.250000 0.000000
#
# Coordination Sequence:
#
# PCOD9504223 Si02
#       6
#     8  16   8   8  16   8
#     4  12  24  40  67 102 138 180 221 274 337 399
#     4  12  24  44  70  98 135 177 220 273 332 398
#     4  12  26  47  68  99 132 170 226 276 330 394
#     4  10  21  40  63  97 133 171 215 265 323 390
#     4  11  24  43  67  99 132 172 218 269 329 391
#     4  12  26  45  68  95 130 172 218 274 326 388
#
# _framework density 19.667883
#
# number of rings (size 3 to 8) (size 9 to 14) (size 15 to 20)
#    0.000    0.500    1.250    9.375    1.750    1.000 
#    0.000    5.000    0.000    0.000    0.000    0.000 
#    0.000    0.000    0.000    0.000    0.000    0.000 
#
# Total GULP energy -179175.616405 kJ/mol
# GULP energy per Si atom -5599.238013 kJ/mol
# Density = 1.962312 g / cm^3
# Si number density = 19.667883 Si / 1000 Ang^3
#
#
#
# Elastic Constant Matrix: (Units=GPa)
#
#
# Indices 1 2 3 4 5 6 
#
# 1 210.0457 96.8876 101.1521 0.0000 0.0000 0.0000
# 2 96.8876 162.8087 80.8827 0.0000 0.0000 0.0000
# 3 101.1521 80.8827 261.6839 0.0000 0.0000 0.0000
# 4 0.0000 0.0000 0.0000 35.1381 0.0000 0.0000
# 5 0.0000 0.0000 0.0000 0.0000 38.7653 0.0000
# 6 0.0000 0.0000 0.0000 0.0000 0.0000 13.5597
#
#
#
# Elastic Compliance Matrix: (Units=1/GPa)
#
#
# Indices 1 2 3 4 5 6 
#
# 1 0.007158 -0.003409 -0.001713 0.000000 0.000000 0.000000
# 2 -0.003409 0.008880 -0.001427 0.000000 0.000000 0.000000
# 3 -0.001713 -0.001427 0.004925 0.000000 0.000000 0.000000
# 4 0.000000 0.000000 0.000000 0.028459 0.000000 0.000000
# 5 0.000000 0.000000 0.000000 0.000000 0.025796 0.000000
# 6 0.000000 0.000000 0.000000 0.000000 0.000000 0.073748
#
#
# Mechanical properties :
#
#
# Convention : Reuss Voigt Hill
#
# Bulk Modulus (GPa) = 127.15283 132.48702 129.81992
# Shear Modulus (GPa) = 30.36089 41.20035 35.78062
#
# Velocity S-wave (km/s) = 3.93323 4.58187 4.26988
# Velocity P-wave (km/s) = 9.24215 9.77239 9.51097
#
# Compressibility (1/GPa) = 0.00786455
#
# Stress axis : x y z
#
# Youngs Moduli (GPa) = 139.69726 112.61761 203.05541
#
# Poissons Ratio (x) = 0.38388 0.34792
# Poissons Ratio (y) = 0.47619 0.28975
# Poissons Ratio (z) = 0.23936 0.16070
#
# Static dielectric constant tensor:
#      x y z
#    x 1.666200 0.000000 0.000000 
#    y 0.000000 1.681150 0.000000 
#    z 0.000000 0.000000 1.649520 
# 
# From -- ./inp_files/12122.got.cif
#   From: 2010.05.17/outbox.cif.g08.bks.cpg/sg67_7_cif.got.tgz:12122.got - 2010.06.03 18:28:57.
