data_PCOD9504776
_publ_section_title
;
Structure prediction by ZEFSAII (Michael W. Deem and Ramdas Pophale) SiO2 
 PCOD9504776
Probable space group: C M M A
;
_chemical_formula_sum "Si O2"
_cell_formula_units_Z 88
_cell_length_a 8.164067
_cell_length_b 25.877555
_cell_length_c 28.772903
_cell_angle_alpha 90.000000
_cell_angle_beta 90.000000
_cell_angle_gamma 90.000000
_cell_volume 6078.738796
_symmetry_space_group_name_H-M "C M M A"
_symmetry_group_IT_number 67
_symmetry_cell_setting 'orthorhombic'
loop_
_space_group_symop_operation_xyz
x,y,z
-x,1/2-y,z
x,-y,-z
-x,1/2+y,-z
-x,-y,-z
x,1/2+y,-z
-x,y,z
x,1/2-y,z
1/2+x,1/2+y,z
1/2-x,-y,z
1/2+x,1/2-y,-z
1/2-x,y,-z
1/2-x,1/2-y,-z
1/2+x,y,-z
1/2-x,1/2+y,z
1/2+x,-y,z
loop_
_atom_site_type_symbol
_atom_site_label
_atom_site_fract_x
_atom_site_fract_y
_atom_site_fract_z
Si Si1 0.000000 0.186965 0.613626
Si Si2 0.306925 0.687454 0.215319
Si Si3 0.306690 0.941322 0.948198
Si Si4 0.810947 0.812800 0.551725
Si Si5 0.500000 0.687344 0.720621
Si Si6 0.306958 0.750000 0.946974
Si Si7 0.305710 0.152461 0.886945
O O1 0.167400 0.170761 0.587291
O O2 0.000000 0.250000 0.612653
O O3 0.000000 0.170128 0.667152
O O4 0.500000 0.674494 0.225476
O O5 0.302455 0.750000 0.210297
O O6 0.168623 0.672477 0.252970
O O7 0.254082 0.662981 0.166050
O O8 0.500000 0.941095 0.948715
O O9 0.247800 0.901142 0.909752
O O10 0.250000 0.000000 0.940013
O O11 0.250000 0.925471 0.000000
O O12 0.814707 0.750000 0.553177
O O13 0.750000 0.827124 0.500000
O O14 0.000000 0.829794 0.560122
O O15 0.500000 0.750000 0.720326
O O16 0.500000 0.750000 0.947071
O O17 0.250009 0.800706 0.919633
O O18 0.250000 0.750000 0.000000
O O19 0.500000 0.153753 0.885993
#
# Coordination Sequence:
#
# PCOD9504776 Si02
#       7
#     8  16  16  16   8   8  16
#     4   9  16  24  32  50  70  98 129 171 218 258
#     4   9  18  31  47  64  84 111 143 182 224 267
#     4  11  22  37  54  72  94 120 145 174 216 271
#     4   9  14  20  31  45  65  92 127 167 213 262
#     4   9  18  28  42  56  82 105 141 181 218 270
#     4  12  24  34  48  70  96 118 144 180 220 269
#     4  11  21  35  52  70  92 117 148 182 222 271
#
# _framework density 14.476687
#
# number of rings (size 3 to 8) (size 9 to 14) (size 15 to 20)
#    0.000    2.000    1.818    4.091    2.545    0.727 
#    0.000    3.636    0.000    0.000    0.000    0.000 
#    0.000    0.000    0.000    0.000    0.000    0.000 
#
# Total GULP energy -245177.349643 kJ/mol
# GULP energy per Si atom -5572.212492 kJ/mol
# Density = 1.444374 g / cm^3
# Si number density = 14.476687 Si / 1000 Ang^3
#
#
#
# Elastic Constant Matrix: (Units=GPa)
#
#
# Indices 1 2 3 4 5 6 
#
# 1 110.3813 15.4504 81.5582 0.0000 0.0000 0.0000
# 2 15.4504 26.1357 29.7455 0.0000 0.0000 0.0000
# 3 81.5582 29.7455 140.6462 0.0000 0.0000 0.0000
# 4 0.0000 0.0000 0.0000 1.8563 0.0000 0.0000
# 5 0.0000 0.0000 0.0000 0.0000 28.0445 0.0000
# 6 0.0000 0.0000 0.0000 0.0000 0.0000 15.7449
#
#
#
# Elastic Compliance Matrix: (Units=1/GPa)
#
#
# Indices 1 2 3 4 5 6 
#
# 1 0.015892 0.001440 -0.009520 0.000000 0.000000 0.000000
# 2 0.001440 0.050522 -0.011520 0.000000 0.000000 0.000000
# 3 -0.009520 -0.011520 0.015067 0.000000 0.000000 0.000000
# 4 0.000000 0.000000 0.000000 0.538695 0.000000 0.000000
# 5 0.000000 0.000000 0.000000 0.000000 0.035658 0.000000
# 6 0.000000 0.000000 0.000000 0.000000 0.000000 0.063513
#
#
# Mechanical properties :
#
#
# Convention : Reuss Voigt Hill
#
# Bulk Modulus (GPa) = 23.65141 58.96348 41.30744
# Shear Modulus (GPa) = 6.47132 19.15642 12.81387
#
# Velocity S-wave (km/s) = 2.11657 3.64161 2.97836
# Velocity P-wave (km/s) = 4.72718 7.64854 6.35792
#
# Compressibility (1/GPa) = 0.04228078
#
# Stress axis : x y z
#
# Youngs Moduli (GPa) = 62.92421 19.79354 66.37021
#
# Poissons Ratio (x) = -0.02851 0.63186
# Poissons Ratio (y) = -0.09063 0.76459
# Poissons Ratio (z) = 0.59905 0.22802
#
# Static dielectric constant tensor:
#      x y z
#    x 1.526860 0.000000 0.000000 
#    y 0.000000 1.401190 0.000000 
#    z 0.000000 0.000000 1.419920 
# 
# From -- ./inp_files/40728.got.cif
#   From: 2010.05.17/outbox.cif.g08.bks.cpg/sg67_21_cif.got.tgz:40728.got - 2010.06.03 18:28:57.
