data_PCOD9504173
_publ_section_title
;
Structure prediction by ZEFSAII (Michael W. Deem and Ramdas Pophale) SiO2 
 PCOD9504173
Probable space group: C M M A
;
_chemical_formula_sum "Si O2"
_cell_formula_units_Z 72
_cell_length_a 8.713232
_cell_length_b 15.034420
_cell_length_c 29.296983
_cell_angle_alpha 90.000000
_cell_angle_beta 90.000000
_cell_angle_gamma 90.000000
_cell_volume 3837.857589
_symmetry_space_group_name_H-M "C M M A"
_symmetry_group_IT_number 67
_symmetry_cell_setting 'orthorhombic'
loop_
_space_group_symop_operation_xyz
x,y,z
-x,1/2-y,z
x,-y,-z
-x,1/2+y,-z
-x,-y,-z
x,1/2+y,-z
-x,y,z
x,1/2-y,z
1/2+x,1/2+y,z
1/2-x,-y,z
1/2+x,1/2-y,-z
1/2-x,y,-z
1/2-x,1/2-y,-z
1/2+x,y,-z
1/2-x,1/2+y,z
1/2+x,-y,z
loop_
_atom_site_type_symbol
_atom_site_label
_atom_site_fract_x
_atom_site_fract_y
_atom_site_fract_z
Si Si1 0.816553 0.750000 0.307814
Si Si2 0.684917 0.399271 0.382285
Si Si3 0.182221 0.750000 0.792692
Si Si4 0.684171 0.092138 0.147698
Si Si5 0.316805 0.355236 0.047292
Si Si6 0.315514 0.250000 0.550965
O O1 0.780026 0.661553 0.337563
O O2 0.732161 0.750000 0.259818
O O3 0.000000 0.750000 0.300276
O O4 0.500000 0.403014 0.386954
O O5 0.750000 0.500000 0.380700
O O6 0.754133 0.338116 0.422765
O O7 0.252119 0.667152 0.819618
O O8 0.000000 0.750000 0.796333
O O9 0.500000 0.094554 0.147471
O O10 0.738315 0.105319 0.095172
O O11 0.750000 0.000000 0.164574
O O12 0.500000 0.364423 0.045402
O O13 0.280136 0.250000 0.049315
O O14 0.250000 0.391265 0.000000
O O15 0.500000 0.250000 0.551209
O O16 0.250000 0.250000 0.500000
#
# Coordination Sequence:
#
# PCOD9504173 Si02
#       6
#     8  16   8  16  16   8
#     4   9  21  41  63  86 119 158 196 247 302 356
#     4  10  21  39  63  92 124 161 205 252 304 357
#     4  12  25  41  63  89 117 153 194 240 298 356
#     4  11  23  41  61  85 117 151 191 236 288 347
#     4   9  18  34  56  81 110 147 184 227 280 337
#     4  11  22  38  60  89 128 171 214 259 305 356
#
# _framework density 18.760466999999998
#
# number of rings (size 3 to 8) (size 9 to 14) (size 15 to 20)
#    0.000    1.778    1.111    4.000    0.000    6.222 
#    0.000    6.667    0.000    0.000    0.000    0.000 
#    0.000    0.000    0.000    0.000    0.000    0.000 
#
# Total GULP energy -201024.072998 kJ/mol
# GULP energy per Si atom -5584.002028 kJ/mol
# Density = 1.871777 g / cm^3
# Si number density = 18.760467 Si / 1000 Ang^3
#
#
#
# Elastic Constant Matrix: (Units=GPa)
#
#
# Indices 1 2 3 4 5 6 
#
# 1 90.6807 70.8926 72.5532 0.0000 0.0000 0.0000
# 2 70.8926 181.2709 87.5578 0.0000 0.0000 0.0000
# 3 72.5532 87.5578 150.2190 0.0000 0.0000 0.0000
# 4 0.0000 0.0000 0.0000 28.9566 0.0000 0.0000
# 5 0.0000 0.0000 0.0000 0.0000 32.3929 0.0000
# 6 0.0000 0.0000 0.0000 0.0000 0.0000 29.4885
#
#
#
# Elastic Compliance Matrix: (Units=1/GPa)
#
#
# Indices 1 2 3 4 5 6 
#
# 1 0.020261 -0.004450 -0.007192 0.000000 0.000000 0.000000
# 2 -0.004450 0.008656 -0.002896 0.000000 0.000000 0.000000
# 3 -0.007192 -0.002896 0.011818 0.000000 0.000000 0.000000
# 4 0.000000 0.000000 0.000000 0.034534 0.000000 0.000000
# 5 0.000000 0.000000 0.000000 0.000000 0.030871 0.000000
# 6 0.000000 0.000000 0.000000 0.000000 0.000000 0.033911
#
#
# Mechanical properties :
#
#
# Convention : Reuss Voigt Hill
#
# Bulk Modulus (GPa) = 85.76690 98.24197 92.00444
# Shear Modulus (GPa) = 28.89947 30.91207 29.90577
#
# Velocity S-wave (km/s) = 3.92911 4.06362 3.99693
# Velocity P-wave (km/s) = 8.14862 8.63119 8.39337
#
# Compressibility (1/GPa) = 0.01165951
#
# Stress axis : x y z
#
# Youngs Moduli (GPa) = 49.35658 115.53121 84.61351
#
# Poissons Ratio (x) = 0.51410 0.60853
# Poissons Ratio (y) = 0.21963 0.24503
# Poissons Ratio (z) = 0.35497 0.33457
#
# Static dielectric constant tensor:
#      x y z
#    x 1.631280 0.000000 0.000000 
#    y 0.000000 1.633740 0.000000 
#    z 0.000000 0.000000 1.640210 
# 
# From -- ./inp_files/43159.got.cif
#   From: 2010.05.17/outbox.cif.g08.bks.cpg/sg67_22_cif.got.tgz:43159.got - 2010.06.03 18:28:57.
