data_PCOD9504584
_publ_section_title
;
Structure prediction by ZEFSAII (Michael W. Deem and Ramdas Pophale) SiO2 
 PCOD9504584
Probable space group: C M M A
;
_chemical_formula_sum "Si O2"
_cell_formula_units_Z 104
_cell_length_a 25.253920
_cell_length_b 22.410911
_cell_length_c 8.807196
_cell_angle_alpha 90.000000
_cell_angle_beta 90.000000
_cell_angle_gamma 90.000000
_cell_volume 4984.550183
_symmetry_space_group_name_H-M "C M M A"
_symmetry_group_IT_number 67
_symmetry_cell_setting 'orthorhombic'
loop_
_space_group_symop_operation_xyz
x,y,z
-x,1/2-y,z
x,-y,-z
-x,1/2+y,-z
-x,-y,-z
x,1/2+y,-z
-x,y,z
x,1/2-y,z
1/2+x,1/2+y,z
1/2-x,-y,z
1/2+x,1/2-y,-z
1/2-x,y,-z
1/2-x,1/2-y,-z
1/2+x,y,-z
1/2-x,1/2+y,z
1/2+x,-y,z
loop_
_atom_site_type_symbol
_atom_site_label
_atom_site_fract_x
_atom_site_fract_y
_atom_site_fract_z
Si Si1 0.235131 0.637706 0.832009
Si Si2 0.560021 0.617344 0.906488
Si Si3 0.833711 0.750000 0.774874
Si Si4 0.095773 0.038298 0.632728
Si Si5 0.603476 0.250000 0.102138
Si Si6 0.194928 0.616857 0.418904
Si Si7 0.653240 0.250000 0.446154
Si Si8 0.643935 0.952276 0.116412
O O1 0.205762 0.694205 0.762581
O O2 0.289115 0.615628 0.757298
O O3 0.191272 0.587135 0.823570
O O4 0.250000 0.655016 0.000000
O O5 0.500000 0.605868 0.956670
O O6 0.567275 0.587331 0.739479
O O7 0.571651 0.687849 0.903317
O O8 0.601523 0.586898 0.022024
O O9 0.870644 0.750000 0.621820
O O10 0.860935 0.750000 0.944036
O O11 0.145474 0.073741 0.557508
O O12 0.067934 0.000000 0.500000
O O13 0.115911 0.989161 0.751974
O O14 0.627983 0.250000 0.274679
O O15 0.250000 0.599856 0.500000
O O16 0.182427 0.686219 0.447031
O O17 0.667218 0.000000 0.000000
#
# Coordination Sequence:
#
# PCOD9504584 Si02
#       8
#    16  16   8  16   8  16   8  16
#     4  12  22  36  59  90 131 174 226 277 326 395
#     4  11  24  47  74  98 129 170 221 290 357 412
#     4  12  24  40  67  98 132 182 228 277 342 411
#     4  11  25  42  66  96 136 178 230 276 331 406
#     4  12  23  45  78 101 135 177 223 287 365 403
#     4  12  23  39  62  95 136 187 222 279 340 394
#     4  12  24  44  67  97 143 181 227 286 339 413
#     4  10  23  41  60  92 127 172 223 272 331 405
#
# _framework density 20.864469
#
# number of rings (size 3 to 8) (size 9 to 14) (size 15 to 20)
#    0.000    0.615    4.615    4.846    0.000    6.769 
#    0.000    0.000    0.000    0.923    0.000    0.000 
#    0.000    0.000    0.000    0.000    0.000    0.000 
#
# Total GULP energy -290039.732398 kJ/mol
# GULP energy per Si atom -5577.687161 kJ/mol
# Density = 2.081698 g / cm^3
# Si number density = 20.864469 Si / 1000 Ang^3
#
#
#
# Elastic Constant Matrix: (Units=GPa)
#
#
# Indices 1 2 3 4 5 6 
#
# 1 30.3355 15.6422 4.3994 0.0000 0.0000 0.0000
# 2 15.6422 121.8615 11.1756 0.0000 0.0000 0.0000
# 3 4.3994 11.1756 100.6514 0.0000 0.0000 0.0000
# 4 0.0000 0.0000 0.0000 14.9946 0.0000 0.0000
# 5 0.0000 0.0000 0.0000 0.0000 16.4916 0.0000
# 6 0.0000 0.0000 0.0000 0.0000 0.0000 -42.8216
#
#
#
# Elastic Compliance Matrix: (Units=1/GPa)
#
#
# Indices 1 2 3 4 5 6 
#
# 1 0.035412 -0.004449 -0.001054 0.000000 0.000000 0.000000
# 2 -0.004449 0.008849 -0.000788 0.000000 0.000000 0.000000
# 3 -0.001054 -0.000788 0.010069 0.000000 0.000000 0.000000
# 4 0.000000 0.000000 0.000000 0.066691 0.000000 0.000000
# 5 0.000000 0.000000 0.000000 0.000000 0.060637 0.000000
# 6 0.000000 0.000000 0.000000 0.000000 0.000000 -0.023353
#
#
# Mechanical properties :
#
#
# Convention : Reuss Voigt Hill
#
# Bulk Modulus (GPa) = 23.95314 35.03143 29.49228
# Shear Modulus (GPa) = 27.05598 12.50833 19.78216
#
# Velocity S-wave (km/s) = 3.60495 2.45113 3.08251
# Velocity P-wave (km/s) = 5.36962 4.98369 5.18025
#
# Compressibility (1/GPa) = 0.04174818
#
# Stress axis : x y z
#
# Youngs Moduli (GPa) = 28.23941 113.00247 99.31616
#
# Poissons Ratio (x) = 0.50273 0.10466
# Poissons Ratio (y) = 0.12563 0.07827
# Poissons Ratio (z) = 0.02976 0.08906
#
# Static dielectric constant tensor:
#      x y z
#    x 1.736350 0.000000 0.000000 
#    y 0.000000 1.716090 0.000000 
#    z 0.000000 0.000000 1.862050 
# 
# From -- ./inp_files/13847.got.cif
#   From: 2010.05.17/outbox.cif.g08.bks.cpg/sg67_7_cif.got.tgz:13847.got - 2010.06.03 18:28:57.
