data_PCOD9504837
_publ_section_title
;
Structure prediction by ZEFSAII (Michael W. Deem and Ramdas Pophale) SiO2 
 PCOD9504837
Probable space group: C M M A
;
_chemical_formula_sum "Si O2"
_cell_formula_units_Z 80
_cell_length_a 9.844654
_cell_length_b 26.830096
_cell_length_c 19.790638
_cell_angle_alpha 90.000000
_cell_angle_beta 90.000000
_cell_angle_gamma 90.000000
_cell_volume 5227.360822
_symmetry_space_group_name_H-M "C M M A"
_symmetry_group_IT_number 67
_symmetry_cell_setting 'orthorhombic'
loop_
_space_group_symop_operation_xyz
x,y,z
-x,1/2-y,z
x,-y,-z
-x,1/2+y,-z
-x,-y,-z
x,1/2+y,-z
-x,y,z
x,1/2-y,z
1/2+x,1/2+y,z
1/2-x,-y,z
1/2+x,1/2-y,-z
1/2-x,y,-z
1/2-x,1/2-y,-z
1/2+x,y,-z
1/2-x,1/2+y,z
1/2+x,-y,z
loop_
_atom_site_type_symbol
_atom_site_label
_atom_site_fract_x
_atom_site_fract_y
_atom_site_fract_z
Si Si1 0.756218 0.855784 0.347654
Si Si2 0.500000 0.692450 0.577503
Si Si3 0.831805 0.551890 0.433087
Si Si4 0.664470 0.191334 0.785919
Si Si5 0.000000 0.188940 0.424343
Si Si6 0.844635 0.310557 0.060788
O O1 0.797436 0.911001 0.371660
O O2 0.732223 0.844138 0.269282
O O3 0.626055 0.834964 0.386472
O O4 0.873830 0.822463 0.378432
O O5 0.500000 0.750000 0.564497
O O6 0.500000 0.670646 0.502065
O O7 0.750000 0.500000 0.421592
O O8 0.750000 0.571839 0.500000
O O9 0.000000 0.547420 0.441219
O O10 0.500000 0.188128 0.780583
O O11 0.698886 0.250000 0.773771
O O12 0.701287 0.177601 0.862959
O O13 0.000000 0.250000 0.419186
O O14 0.846534 0.250000 0.058518
O O15 0.000000 0.327353 0.051957
O O16 0.750000 0.328255 0.000000
#
# Coordination Sequence:
#
# PCOD9504837 Si02
#       6
#    16   8  16  16   8  16
#     4  12  22  34  52  72  99 130 169 211 255 300
#     4  11  22  34  45  69 102 130 163 210 247 289
#     4  11  24  40  59  77  94 122 165 218 271 316
#     4   9  17  30  48  69  97 136 173 201 238 294
#     4  11  22  34  51  69  94 138 177 200 239 297
#     4   8  14  26  43  64  91 125 167 205 236 278
#
# _framework density 15.304088999999999
#
# number of rings (size 3 to 8) (size 9 to 14) (size 15 to 20)
#    0.000    1.800    2.000    6.000    2.800    1.600 
#    1.800    0.000    0.000    0.000    0.000    0.000 
#    0.000    0.800    0.000    6.200    0.000    1.800 
#
# Total GULP energy -222691.844498 kJ/mol
# GULP energy per Si atom -5567.296112 kJ/mol
# Density = 1.526926 g / cm^3
# Si number density = 15.304089 Si / 1000 Ang^3
#
#
#
# Elastic Constant Matrix: (Units=GPa)
#
#
# Indices 1 2 3 4 5 6 
#
# 1 118.3349 23.9414 58.0985 0.0000 0.0000 0.0000
# 2 23.9414 46.8747 33.4088 0.0000 0.0000 0.0000
# 3 58.0985 33.4088 148.7187 0.0000 0.0000 0.0000
# 4 0.0000 0.0000 0.0000 13.6536 0.0000 0.0000
# 5 0.0000 0.0000 0.0000 0.0000 21.2476 0.0000
# 6 0.0000 0.0000 0.0000 0.0000 0.0000 32.1144
#
#
#
# Elastic Compliance Matrix: (Units=1/GPa)
#
#
# Indices 1 2 3 4 5 6 
#
# 1 0.010796 -0.002986 -0.003547 0.000000 0.000000 0.000000
# 2 -0.002986 0.026226 -0.004725 0.000000 0.000000 0.000000
# 3 -0.003547 -0.004725 0.009171 0.000000 0.000000 0.000000
# 4 0.000000 0.000000 0.000000 0.073241 0.000000 0.000000
# 5 0.000000 0.000000 0.000000 0.000000 0.047064 0.000000
# 6 0.000000 0.000000 0.000000 0.000000 0.000000 0.031139
#
#
# Mechanical properties :
#
#
# Convention : Reuss Voigt Hill
#
# Bulk Modulus (GPa) = 42.23410 60.53619 51.38514
# Shear Modulus (GPa) = 21.92544 26.63510 24.28027
#
# Velocity S-wave (km/s) = 3.78915 4.17633 3.98744
# Velocity P-wave (km/s) = 6.84105 7.93076 7.40598
#
# Compressibility (1/GPa) = 0.02367755
#
# Stress axis : x y z
#
# Youngs Moduli (GPa) = 92.62590 38.12960 109.03789
#
# Poissons Ratio (x) = 0.11387 0.38673
# Poissons Ratio (y) = 0.27661 0.51520
# Poissons Ratio (z) = 0.32852 0.18016
#
# Static dielectric constant tensor:
#      x y z
#    x 1.499570 0.000000 0.000000 
#    y 0.000000 1.528620 0.000000 
#    z 0.000000 0.000000 1.520640 
# 
# From -- ./inp_files/37097.got.cif
#   From: 2010.05.17/outbox.cif.g08.bks.cpg/sg67_19_cif.got.tgz:37097.got - 2010.06.03 18:28:57.
