data_PCOD9505673
_publ_section_title
;
Structure prediction by ZEFSAII (Michael W. Deem and Ramdas Pophale) SiO2 
 PCOD9505673
Probable space group: C C C A
;
_chemical_formula_sum "Si O2"
_cell_formula_units_Z 80
_cell_length_a 14.130020
_cell_length_b 14.898336
_cell_length_c 23.585176
_cell_angle_alpha 90.000000
_cell_angle_beta 90.000000
_cell_angle_gamma 90.000000
_cell_volume 4965.004685
_symmetry_space_group_name_H-M "C C C A"
_symmetry_group_IT_number 68
_space_group.IT_coordinate_system_code '2'
_symmetry_cell_setting 'orthorhombic'
loop_
_space_group_symop_operation_xyz
x,y,z
-x,1/2-y,z
x,1/2-y,1/2-z
-x,y,1/2-z
-x,-y,-z
x,1/2+y,-z
-x,1/2+y,1/2+z
x,-y,1/2+z
1/2+x,1/2+y,z
1/2-x,-y,z
1/2+x,-y,1/2-z
1/2-x,1/2+y,1/2-z
1/2-x,1/2-y,-z
1/2+x,y,-z
1/2-x,y,1/2+z
1/2+x,1/2-y,1/2+z
loop_
_atom_site_type_symbol
_atom_site_label
_atom_site_fract_x
_atom_site_fract_y
_atom_site_fract_z
Si Si1 0.341416 0.750000 0.750000
Si Si2 0.036012 0.942261 0.127841
Si Si3 0.086622 0.678506 0.048314
Si Si4 0.705930 0.701174 0.628746
Si Si5 0.000000 0.595972 0.250000
Si Si6 0.165444 0.073201 0.060276
O O1 0.283528 0.759136 0.691661
O O2 0.410742 0.836208 0.756218
O O3 0.118344 0.867828 0.133515
O O4 0.007257 0.960877 0.192482
O O5 0.954647 0.893964 0.092290
O O6 0.080728 0.021233 0.091248
O O7 0.170507 0.729235 0.081358
O O8 0.000000 0.750000 0.036279
O O9 0.126628 0.626809 0.993877
O O10 0.791883 0.644439 0.604433
O O11 0.250000 0.000000 0.047284
#
# Coordination Sequence:
#
# PCOD9505673 Si02
#       6
#     8  16  16  16   8  16
#     4   9  14  26  50  72  91 114 168 210 223 266
#     4   9  17  29  49  74  94 126 160 198 240 274
#     4  10  18  32  52  74  92 126 169 193 224 284
#     4   9  17  29  49  74  94 126 160 198 240 274
#     4   9  14  26  50  72  91 114 168 210 223 266
#     4  10  20  32  48  70 106 128 147 195 250 286
#
# _framework density 16.112774000000002
#
# number of rings (size 3 to 8) (size 9 to 14) (size 15 to 20)
#    0.000    2.600    2.000    1.200    0.000    0.000 
#    0.000    0.000    8.800    0.000    0.000    0.000 
#    0.000    0.000    0.000    0.000    0.000    0.000 
#
# Total GULP energy -222678.362375 kJ/mol
# GULP energy per Si atom -5566.959059 kJ/mol
# Density = 1.607610 g / cm^3
# Si number density = 16.112774 Si / 1000 Ang^3
#
#
#
# Elastic Constant Matrix: (Units=GPa)
#
#
# Indices 1 2 3 4 5 6 
#
# 1 9.7258 18.7023 6.6542 0.0000 0.0000 0.0000
# 2 18.7023 68.7978 51.5601 0.0000 0.0000 0.0000
# 3 6.6542 51.5601 133.0971 0.0000 0.0000 0.0000
# 4 0.0000 0.0000 0.0000 -11.5963 0.0000 0.0000
# 5 0.0000 0.0000 0.0000 0.0000 0.5745 0.0000
# 6 0.0000 0.0000 0.0000 0.0000 0.0000 14.0744
#
#
#
# Elastic Compliance Matrix: (Units=1/GPa)
#
#
# Indices 1 2 3 4 5 6 
#
# 1 0.245830 -0.081188 0.019161 0.000000 0.000000 0.000000
# 2 -0.081188 0.047295 -0.014262 0.000000 0.000000 0.000000
# 3 0.019161 -0.014262 0.012080 0.000000 0.000000 0.000000
# 4 0.000000 0.000000 0.000000 -0.086235 0.000000 0.000000
# 5 0.000000 0.000000 0.000000 0.000000 1.740685 0.000000
# 6 0.000000 0.000000 0.000000 0.000000 0.000000 0.071051
#
#
# Mechanical properties :
#
#
# Convention : Reuss Voigt Hill
#
# Bulk Modulus (GPa) = 6.55192 40.60598 23.57895
# Shear Modulus (GPa) = 2.23798 9.59079 5.91438
#
# Velocity S-wave (km/s) = 1.17981 2.44238 1.91796
# Velocity P-wave (km/s) = 2.43538 5.76276 4.42383
#
# Compressibility (1/GPa) = 0.15262695
#
# Stress axis : x y z
#
# Youngs Moduli (GPa) = 4.06785 21.14407 82.77854
#
# Poissons Ratio (x) = 1.71664 -1.58610
# Poissons Ratio (y) = 0.33026 1.18062
# Poissons Ratio (z) = -0.07794 0.30156
#
# Static dielectric constant tensor:
#      x y z
#    x 1.549810 0.000000 0.000000 
#    y 0.000000 1.549760 0.000000 
#    z 0.000000 0.000000 1.553760 
# 
# From -- ./inp_files/30853.got.cif
#   From: 2010.05.17/outbox.cif.g08.bks.cpg/sg68_16_cif.got.tgz:30853.got - 2010.06.03 18:57:09.
