data_PCOD9505885
_publ_section_title
;
Structure prediction by ZEFSAII (Michael W. Deem and Ramdas Pophale) SiO2 
 PCOD9505885
Probable space group: C C C A
;
_chemical_formula_sum "Si O2"
_cell_formula_units_Z 104
_cell_length_a 8.542193
_cell_length_b 19.622650
_cell_length_c 24.416846
_cell_angle_alpha 90.000000
_cell_angle_beta 90.000000
_cell_angle_gamma 90.000000
_cell_volume 4092.763043
_symmetry_space_group_name_H-M "C C C A"
_symmetry_group_IT_number 68
_space_group.IT_coordinate_system_code '2'
_symmetry_cell_setting 'orthorhombic'
loop_
_space_group_symop_operation_xyz
x,y,z
-x,1/2-y,z
x,1/2-y,1/2-z
-x,y,1/2-z
-x,-y,-z
x,1/2+y,-z
-x,1/2+y,1/2+z
x,-y,1/2+z
1/2+x,1/2+y,z
1/2-x,-y,z
1/2+x,-y,1/2-z
1/2-x,1/2+y,1/2-z
1/2-x,1/2-y,-z
1/2+x,y,-z
1/2-x,y,1/2+z
1/2+x,1/2-y,1/2+z
loop_
_atom_site_type_symbol
_atom_site_label
_atom_site_fract_x
_atom_site_fract_y
_atom_site_fract_z
Si Si1 0.348400 0.896085 0.379278
Si Si2 0.336228 0.111826 0.279744
Si Si3 0.175363 0.428128 0.929615
Si Si4 0.143746 0.881228 0.476219
Si Si5 0.664609 0.894249 0.324118
Si Si6 0.738602 0.255874 0.838348
Si Si7 0.000000 0.250000 0.577641
O O1 0.205224 0.917725 0.339280
O O2 0.293036 0.906685 0.440668
O O3 0.509384 0.921846 0.353746
O O4 0.355135 0.813316 0.372316
O O5 0.500000 0.100927 0.250000
O O6 0.205104 0.085122 0.237428
O O7 0.314942 0.193272 0.293057
O O8 0.250000 0.500000 0.942783
O O9 0.195124 0.415324 0.865023
O O10 0.003670 0.424736 0.955266
O O11 0.294834 0.378320 0.962192
O O12 0.081884 0.807286 0.458051
O O13 0.653640 0.811681 0.318354
O O14 0.868219 0.226264 0.879799
#
# Coordination Sequence:
#
# PCOD9505885 Si02
#       7
#    16  16  16  16  16  16   8
#     4   9  22  36  61  96 134 170 212 275 345 414
#     4  10  20  34  61  96 138 178 213 268 344 425
#     4  12  27  45  70  94 129 184 236 290 335 407
#     4  11  23  46  67  97 137 171 236 285 351 418
#     4  12  20  39  60  93 135 175 225 275 331 411
#     4   9  19  32  58  92 135 167 208 257 345 406
#     4  10  18  40  63 104 134 174 211 284 356 424
#
# _framework density 25.410706999999999
#
# number of rings (size 3 to 8) (size 9 to 14) (size 15 to 20)
#    0.923    0.615    1.538    4.615    0.000    1.231 
#    5.538    0.000    0.000    6.462    0.000    0.000 
#    0.000    0.000    0.000    0.000    0.000    0.000 
#
# Total GULP energy -290226.146950 kJ/mol
# GULP energy per Si atom -5581.272057 kJ/mol
# Density = 2.535287 g / cm^3
# Si number density = 25.410707 Si / 1000 Ang^3
#
#
#
# Elastic Constant Matrix: (Units=GPa)
#
#
# Indices 1 2 3 4 5 6 
#
# 1 66.5921 13.6843 5.4037 0.0000 0.0000 0.0000
# 2 13.6843 38.6714 -5.6885 0.0000 0.0000 0.0000
# 3 5.4037 -5.6885 114.2168 0.0000 0.0000 0.0000
# 4 0.0000 0.0000 0.0000 7.2004 0.0000 0.0000
# 5 0.0000 0.0000 0.0000 0.0000 43.2398 0.0000
# 6 0.0000 0.0000 0.0000 0.0000 0.0000 24.0307
#
#
#
# Elastic Compliance Matrix: (Units=1/GPa)
#
#
# Indices 1 2 3 4 5 6 
#
# 1 0.016323 -0.005933 -0.001068 0.000000 0.000000 0.000000
# 2 -0.005933 0.028206 0.001685 0.000000 0.000000 0.000000
# 3 -0.001068 0.001685 0.008890 0.000000 0.000000 0.000000
# 4 0.000000 0.000000 0.000000 0.138881 0.000000 0.000000
# 5 0.000000 0.000000 0.000000 0.000000 0.023127 0.000000
# 6 0.000000 0.000000 0.000000 0.000000 0.000000 0.041613
#
#
# Mechanical properties :
#
#
# Convention : Reuss Voigt Hill
#
# Bulk Modulus (GPa) = 23.37093 27.36437 25.36765
# Shear Modulus (GPa) = 17.73468 28.63290 23.18379
#
# Velocity S-wave (km/s) = 2.64469 3.36043 3.02381
# Velocity P-wave (km/s) = 4.30617 5.08418 4.71126
#
# Compressibility (1/GPa) = 0.04278820
#
# Stress axis : x y z
#
# Youngs Moduli (GPa) = 61.26459 35.45302 112.48926
#
# Poissons Ratio (x) = 0.21034 0.12011
# Poissons Ratio (y) = 0.36348 -0.18960
# Poissons Ratio (z) = 0.06541 -0.05976
#
# Static dielectric constant tensor:
#      x y z
#    x 2.107700 0.000000 0.000000 
#    y 0.000000 2.068960 0.000000 
#    z 0.000000 0.000000 1.943350 
# 
# From -- ./inp_files/49598.got.cif
#   From: 2010.05.17/outbox.cif.g08.bks.cpg/sg68_25_cif.got.tgz:49598.got - 2010.06.03 18:57:09.
