data_PCOD9505634
_publ_section_title
;
Structure prediction by ZEFSAII (Michael W. Deem and Ramdas Pophale) SiO2 
 PCOD9505634
Probable space group: C C C A
;
_chemical_formula_sum "Si O2"
_cell_formula_units_Z 120
_cell_length_a 22.357798
_cell_length_b 20.071151
_cell_length_c 14.950335
_cell_angle_alpha 90.000000
_cell_angle_beta 90.000000
_cell_angle_gamma 90.000000
_cell_volume 6708.914088
_symmetry_space_group_name_H-M "C C C A"
_symmetry_group_IT_number 68
_space_group.IT_coordinate_system_code '2'
_symmetry_cell_setting 'orthorhombic'
loop_
_space_group_symop_operation_xyz
x,y,z
-x,1/2-y,z
x,1/2-y,1/2-z
-x,y,1/2-z
-x,-y,-z
x,1/2+y,-z
-x,1/2+y,1/2+z
x,-y,1/2+z
1/2+x,1/2+y,z
1/2-x,-y,z
1/2+x,-y,1/2-z
1/2-x,1/2+y,1/2-z
1/2-x,1/2-y,-z
1/2+x,y,-z
1/2-x,y,1/2+z
1/2+x,1/2-y,1/2+z
loop_
_atom_site_type_symbol
_atom_site_label
_atom_site_fract_x
_atom_site_fract_y
_atom_site_fract_z
Si Si1 0.285422 0.569853 0.360705
Si Si2 0.840039 0.117115 0.530756
Si Si3 0.388768 0.505928 0.255879
Si Si4 0.029271 0.564401 0.394644
Si Si5 0.541888 0.194871 0.081369
Si Si6 0.612739 0.750000 0.750000
Si Si7 0.909760 0.516340 0.939015
Si Si8 0.809349 0.874645 0.227529
O O1 0.250000 0.500000 0.380781
O O2 0.296950 0.616674 0.445668
O O3 0.350176 0.550116 0.322679
O O4 0.249247 0.607300 0.282726
O O5 0.902294 0.159826 0.529036
O O6 0.860512 0.039425 0.537813
O O7 0.805412 0.137654 0.621215
O O8 0.443837 0.474124 0.309843
O O9 0.398208 0.542920 0.161200
O O10 0.350094 0.440482 0.233388
O O11 0.077730 0.562844 0.475648
O O12 0.002797 0.637674 0.382270
O O13 0.971119 0.523801 0.424661
O O14 0.500000 0.250000 0.033728
O O15 0.572713 0.229753 0.166023
O O16 0.654819 0.686743 0.730323
#
# Coordination Sequence:
#
# PCOD9505634 Si02
#       8
#    16  16  16  16  16   8  16  16
#     4  10  20  34  54  79 106 145 181 225 274 324
#     4   9  18  35  53  77 112 138 171 229 267 317
#     4  10  18  31  51  78 109 140 176 216 271 331
#     4  10  18  31  49  80 112 137 171 213 271 331
#     4  10  20  32  55  80 109 142 175 220 277 325
#     4  10  19  36  56  76 108 138 177 238 270 310
#     4   9  18  29  49  77 109 139 168 213 270 331
#     4   9  20  34  52  78 102 139 185 223 271 313
#
# _framework density 17.886651000000001
#
# number of rings (size 3 to 8) (size 9 to 14) (size 15 to 20)
#    0.000    2.400    1.333    2.200    0.000    5.867 
#    0.000    2.667    2.933    0.000    0.000    0.933 
#    0.000    0.000    0.000    0.000    0.000    0.000 
#
# Total GULP energy -334036.840077 kJ/mol
# GULP energy per Si atom -5567.280668 kJ/mol
# Density = 1.784594 g / cm^3
# Si number density = 17.886651 Si / 1000 Ang^3
#
#
#
# Elastic Constant Matrix: (Units=GPa)
#
#
# Indices 1 2 3 4 5 6 
#
# 1 63.8802 25.8002 36.4681 0.0000 0.0000 0.0000
# 2 25.8002 46.1720 27.2080 0.0000 0.0000 0.0000
# 3 36.4681 27.2080 97.8597 0.0000 0.0000 0.0000
# 4 0.0000 0.0000 0.0000 -26.0146 0.0000 0.0000
# 5 0.0000 0.0000 0.0000 0.0000 -24.2251 0.0000
# 6 0.0000 0.0000 0.0000 0.0000 0.0000 14.1404
#
#
#
# Elastic Compliance Matrix: (Units=1/GPa)
#
#
# Indices 1 2 3 4 5 6 
#
# 1 0.022760 -0.009232 -0.005915 0.000000 0.000000 0.000000
# 2 -0.009232 0.029647 -0.004802 0.000000 0.000000 0.000000
# 3 -0.005915 -0.004802 0.013758 0.000000 0.000000 0.000000
# 4 0.000000 0.000000 0.000000 -0.038440 0.000000 0.000000
# 5 0.000000 0.000000 0.000000 0.000000 -0.041279 0.000000
# 6 0.000000 0.000000 0.000000 0.000000 0.000000 0.070720
#
#
# Mechanical properties :
#
#
# Convention : Reuss Voigt Hill
#
# Bulk Modulus (GPa) = 38.07199 42.98495 40.52847
# Shear Modulus (GPa) = 47.25062 0.67584 23.96323
#
# Velocity S-wave (km/s) = 5.14529 0.61536 3.66420
# Velocity P-wave (km/s) = 7.52530 4.95872 6.37256
#
# Compressibility (1/GPa) = 0.02626603
#
# Stress axis : x y z
#
# Youngs Moduli (GPa) = 43.93736 33.73029 72.68485
#
# Poissons Ratio (x) = 0.31141 0.42991
# Poissons Ratio (y) = 0.40565 0.34905
# Poissons Ratio (z) = 0.25987 0.16198
#
# Static dielectric constant tensor:
#      x y z
#    x 1.644180 0.000000 0.000000 
#    y 0.000000 1.696470 0.000000 
#    z 0.000000 0.000000 1.696930 
# 
# From -- ./inp_files/24845.got.cif
#   From: 2010.05.17/outbox.cif.g08.bks.cpg/sg68_13_cif.got.tgz:24845.got - 2010.06.03 18:57:09.
