data_PCOD9505930
_publ_section_title
;
Structure prediction by ZEFSAII (Michael W. Deem and Ramdas Pophale) SiO2 
 PCOD9505930
Probable space group: C C C A
;
_chemical_formula_sum "Si O2"
_cell_formula_units_Z 72
_cell_length_a 5.347371
_cell_length_b 23.848183
_cell_length_c 30.397226
_cell_angle_alpha 90.000000
_cell_angle_beta 90.000000
_cell_angle_gamma 90.000000
_cell_volume 3876.408744
_symmetry_space_group_name_H-M "C C C A"
_symmetry_group_IT_number 68
_space_group.IT_coordinate_system_code '2'
_symmetry_cell_setting 'orthorhombic'
loop_
_space_group_symop_operation_xyz
x,y,z
-x,1/2-y,z
x,1/2-y,1/2-z
-x,y,1/2-z
-x,-y,-z
x,1/2+y,-z
-x,1/2+y,1/2+z
x,-y,1/2+z
1/2+x,1/2+y,z
1/2-x,-y,z
1/2+x,-y,1/2-z
1/2-x,1/2+y,1/2-z
1/2-x,1/2-y,-z
1/2+x,y,-z
1/2-x,y,1/2+z
1/2+x,1/2-y,1/2+z
loop_
_atom_site_type_symbol
_atom_site_label
_atom_site_fract_x
_atom_site_fract_y
_atom_site_fract_z
Si Si1 0.700403 0.396862 0.664830
Si Si2 0.950422 0.563993 0.482969
Si Si3 0.288091 0.565810 0.618298
Si Si4 0.250000 0.000000 0.725609
Si Si5 0.247771 0.774165 0.699640
O O1 0.461707 0.400213 0.632037
O O2 0.654269 0.448291 0.697274
O O3 0.728709 0.340430 0.693312
O O4 0.964608 0.409692 0.641410
O O5 0.727362 0.589484 0.512328
O O6 0.848310 0.565538 0.433596
O O7 0.000000 0.500000 0.500000
O O8 0.250000 0.500000 0.630570
O O9 0.500000 0.979561 0.750000
O O10 0.500000 0.750000 0.679269
O O11 0.248083 0.750000 0.750000
O O12 0.000000 0.750000 0.677899
#
# Coordination Sequence:
#
# PCOD9505930 Si02
#       5
#    16  16  16   8  16
#     4  12  25  40  58  87 120 160 203 252 317 359
#     4  10  19  30  53  83 123 176 199 217 264 360
#     4  12  21  37  56  88 133 168 186 236 297 367
#     4  12  26  36  56  80 120 154 196 240 302 394
#     4  10  23  42  64  82 105 149 213 274 306 347
#
# _framework density 18.573893000000002
#
# number of rings (size 3 to 8) (size 9 to 14) (size 15 to 20)
#    0.000    0.889    4.444    4.000    9.333    0.000 
#    0.000    0.000    0.000    0.000    0.000    0.000 
#    0.000   62.222    0.000    0.000    0.000    0.000 
#
# Total GULP energy -200630.204009 kJ/mol
# GULP energy per Si atom -5573.061222 kJ/mol
# Density = 1.853162 g / cm^3
# Si number density = 18.573893 Si / 1000 Ang^3
#
#
#
# Elastic Constant Matrix: (Units=GPa)
#
#
# Indices 1 2 3 4 5 6 
#
# 1 184.7415 20.9428 35.7069 0.0000 0.0000 0.0000
# 2 20.9428 99.1319 32.2659 0.0000 0.0000 0.0000
# 3 35.7069 32.2659 80.5520 0.0000 0.0000 0.0000
# 4 0.0000 0.0000 0.0000 21.5894 0.0000 0.0000
# 5 0.0000 0.0000 0.0000 0.0000 14.0329 0.0000
# 6 0.0000 0.0000 0.0000 0.0000 0.0000 23.2036
#
#
#
# Elastic Compliance Matrix: (Units=1/GPa)
#
#
# Indices 1 2 3 4 5 6 
#
# 1 0.005938 -0.000457 -0.002449 0.000000 0.000000 0.000000
# 2 -0.000457 0.011635 -0.004458 0.000000 0.000000 0.000000
# 3 -0.002449 -0.004458 0.015286 0.000000 0.000000 0.000000
# 4 0.000000 0.000000 0.000000 0.046319 0.000000 0.000000
# 5 0.000000 0.000000 0.000000 0.000000 0.071261 0.000000
# 6 0.000000 0.000000 0.000000 0.000000 0.000000 0.043097
#
#
# Mechanical properties :
#
#
# Convention : Reuss Voigt Hill
#
# Bulk Modulus (GPa) = 55.15606 60.25075 57.70340
# Shear Modulus (GPa) = 23.33095 30.13250 26.73172
#
# Velocity S-wave (km/s) = 3.54802 4.03215 3.79781
# Velocity P-wave (km/s) = 6.82235 7.36115 7.09687
#
# Compressibility (1/GPa) = 0.01813038
#
# Stress axis : x y z
#
# Youngs Moduli (GPa) = 168.40200 85.94638 65.42112
#
# Poissons Ratio (x) = 0.03931 0.16022
# Poissons Ratio (y) = 0.07702 0.29164
# Poissons Ratio (z) = 0.41243 0.38314
#
# Static dielectric constant tensor:
#      x y z
#    x 1.658510 0.000000 0.000000 
#    y 0.000000 1.666200 0.000000 
#    z 0.000000 0.000000 1.670810 
# 
# From -- ./inp_files/48299.got.cif
#   From: 2010.05.17/outbox.cif.g08.bks.cpg/sg68_25_cif.got.tgz:48299.got - 2010.06.03 18:57:09.
