data_PCOD9505517
_publ_section_title
;
Structure prediction by ZEFSAII (Michael W. Deem and Ramdas Pophale) SiO2 
 PCOD9505517
Probable space group: C C C A
;
_chemical_formula_sum "Si O2"
_cell_formula_units_Z 104
_cell_length_a 14.872212
_cell_length_b 15.834083
_cell_length_c 22.614721
_cell_angle_alpha 90.000000
_cell_angle_beta 90.000000
_cell_angle_gamma 90.000000
_cell_volume 5325.491782
_symmetry_space_group_name_H-M "C C C A"
_symmetry_group_IT_number 68
_space_group.IT_coordinate_system_code '2'
_symmetry_cell_setting 'orthorhombic'
loop_
_space_group_symop_operation_xyz
x,y,z
-x,1/2-y,z
x,1/2-y,1/2-z
-x,y,1/2-z
-x,-y,-z
x,1/2+y,-z
-x,1/2+y,1/2+z
x,-y,1/2+z
1/2+x,1/2+y,z
1/2-x,-y,z
1/2+x,-y,1/2-z
1/2-x,1/2+y,1/2-z
1/2-x,1/2-y,-z
1/2+x,y,-z
1/2-x,y,1/2+z
1/2+x,1/2-y,1/2+z
loop_
_atom_site_type_symbol
_atom_site_label
_atom_site_fract_x
_atom_site_fract_y
_atom_site_fract_z
Si Si1 0.088246 0.368755 0.708827
Si Si2 0.000000 0.250000 0.878689
Si Si3 0.026358 0.081279 0.074678
Si Si4 0.225833 0.399687 0.409014
Si Si5 0.734488 0.101806 0.772528
Si Si6 0.914966 0.391516 0.540893
Si Si7 0.930347 0.938329 0.696106
O O1 0.175947 0.357098 0.747706
O O2 0.095406 0.463801 0.682254
O O3 0.000000 0.367593 0.750000
O O4 0.073789 0.295906 0.661676
O O5 0.960092 0.178185 0.919089
O O6 0.126163 0.120241 0.067150
O O7 0.981105 0.096196 0.138458
O O8 0.052276 0.981961 0.067318
O O9 0.955524 0.108116 0.024800
O O10 0.250000 0.500000 0.405118
O O11 0.222570 0.370359 0.340466
O O12 0.308726 0.373349 0.450718
O O13 0.653915 0.110812 0.725020
O O14 0.750000 0.000000 0.775157
O O15 0.000000 0.942603 0.750000
#
# Coordination Sequence:
#
# PCOD9505517 Si02
#       7
#    16   8  16  16  16  16  16
#     4  10  20  31  52  86 127 155 183 234 299 364
#     4  12  21  38  54  84 123 162 190 238 302 368
#     4  10  19  38  58  85 115 154 200 255 287 343
#     4   9  17  33  56  82 112 150 194 238 292 349
#     4   9  17  29  52  85 119 148 182 236 298 349
#     4  10  22  36  58  83 116 158 201 239 298 353
#     4  10  17  32  58  92 116 145 194 251 298 340
#
# _framework density 19.528713
#
# number of rings (size 3 to 8) (size 9 to 14) (size 15 to 20)
#    0.000    2.154    3.077    1.154    4.308    0.000 
#    2.769    3.077    0.000    0.000    0.000    0.538 
#    0.000    0.000    0.000    0.000    0.000    0.000 
#
# Total GULP energy -289734.580794 kJ/mol
# GULP energy per Si atom -5571.818861 kJ/mol
# Density = 1.948426 g / cm^3
# Si number density = 19.528713 Si / 1000 Ang^3
#
#
#
# Elastic Constant Matrix: (Units=GPa)
#
#
# Indices 1 2 3 4 5 6 
#
# 1 156.1690 23.8320 81.5491 0.0000 0.0000 0.0000
# 2 23.8320 31.1842 22.8413 0.0000 0.0000 0.0000
# 3 81.5491 22.8413 121.3055 0.0000 0.0000 0.0000
# 4 0.0000 0.0000 0.0000 52.6486 0.0000 0.0000
# 5 0.0000 0.0000 0.0000 0.0000 38.9825 0.0000
# 6 0.0000 0.0000 0.0000 0.0000 0.0000 94.3662
#
#
#
# Elastic Compliance Matrix: (Units=1/GPa)
#
#
# Indices 1 2 3 4 5 6 
#
# 1 0.010134 -0.003196 -0.006211 0.000000 0.000000 0.000000
# 2 -0.003196 0.038205 -0.005046 0.000000 0.000000 0.000000
# 3 -0.006211 -0.005046 0.013369 0.000000 0.000000 0.000000
# 4 0.000000 0.000000 0.000000 0.018994 0.000000 0.000000
# 5 0.000000 0.000000 0.000000 0.000000 0.025653 0.000000
# 6 0.000000 0.000000 0.000000 0.000000 0.000000 0.010597
#
#
# Mechanical properties :
#
#
# Convention : Reuss Voigt Hill
#
# Bulk Modulus (GPa) = 30.48388 62.78929 46.63658
# Shear Modulus (GPa) = 31.88931 49.22853 40.55892
#
# Velocity S-wave (km/s) = 4.04535 5.02623 4.56223
# Velocity P-wave (km/s) = 6.12075 8.11826 7.18922
#
# Compressibility (1/GPa) = 0.03280422
#
# Stress axis : x y z
#
# Youngs Moduli (GPa) = 98.67377 26.17427 74.79795
#
# Poissons Ratio (x) = 0.08364 0.46459
# Poissons Ratio (y) = 0.31531 0.37741
# Poissons Ratio (z) = 0.61289 0.13207
#
# Static dielectric constant tensor:
#      x y z
#    x 1.733620 0.000000 0.000000 
#    y 0.000000 1.703050 0.000000 
#    z 0.000000 0.000000 1.730840 
# 
# From -- ./inp_files/45648.got.cif
#   From: 2010.05.17/outbox.cif.g08.bks.cpg/sg68_23_cif.got.tgz:45648.got - 2010.06.03 18:57:09.
