data_PCOD9505884
_publ_section_title
;
Structure prediction by ZEFSAII (Michael W. Deem and Ramdas Pophale) SiO2 
 PCOD9505884
Probable space group: C C C A
;
_chemical_formula_sum "Si O2"
_cell_formula_units_Z 80
_cell_length_a 14.398276
_cell_length_b 14.062779
_cell_length_c 22.316808
_cell_angle_alpha 90.000000
_cell_angle_beta 90.000000
_cell_angle_gamma 90.000000
_cell_volume 4518.702226
_symmetry_space_group_name_H-M "C C C A"
_symmetry_group_IT_number 68
_space_group.IT_coordinate_system_code '2'
_symmetry_cell_setting 'orthorhombic'
loop_
_space_group_symop_operation_xyz
x,y,z
-x,1/2-y,z
x,1/2-y,1/2-z
-x,y,1/2-z
-x,-y,-z
x,1/2+y,-z
-x,1/2+y,1/2+z
x,-y,1/2+z
1/2+x,1/2+y,z
1/2-x,-y,z
1/2+x,-y,1/2-z
1/2-x,1/2+y,1/2-z
1/2-x,1/2-y,-z
1/2+x,y,-z
1/2-x,y,1/2+z
1/2+x,1/2-y,1/2+z
loop_
_atom_site_type_symbol
_atom_site_label
_atom_site_fract_x
_atom_site_fract_y
_atom_site_fract_z
Si Si1 0.726945 0.145600 0.724648
Si Si2 0.605411 0.971330 0.771793
Si Si3 0.177498 0.580013 0.398804
Si Si4 0.241638 0.279357 0.097122
Si Si5 0.606305 0.223753 0.487647
O O1 0.707140 0.250000 0.750000
O O2 0.829531 0.110690 0.743576
O O3 0.726318 0.152140 0.652601
O O4 0.654509 0.068974 0.750575
O O5 0.500000 0.966100 0.750000
O O6 0.617561 0.957891 0.843274
O O7 0.250000 0.500000 0.417589
O O8 0.237163 0.672788 0.378329
O O9 0.119688 0.622855 0.453828
O O10 0.332480 0.294670 0.054806
O O11 0.155855 0.277728 0.051692
O O12 0.500000 0.250000 0.490720
#
# Coordination Sequence:
#
# PCOD9505884 Si02
#       5
#    16  16  16  16  16
#     4  11  20  42  61  83 125 168 191 245 311 356
#     4  11  24  37  58  97 121 151 211 245 294 365
#     4  10  18  40  61  82 122 153 192 251 300 347
#     4   9  20  38  62  82 120 156 198 240 303 357
#     4   9  20  39  61  89 108 152 209 244 291 355
#
# _framework density 17.704198999999999
#
# number of rings (size 3 to 8) (size 9 to 14) (size 15 to 20)
#    1.200    0.800    4.000    0.000    2.800    0.800 
#   10.800    1.000    0.000    0.000    0.000    0.000 
#    0.000    0.000    0.000    0.000    0.000    0.000 
#
# Total GULP energy -222681.329532 kJ/mol
# GULP energy per Si atom -5567.033238 kJ/mol
# Density = 1.766390 g / cm^3
# Si number density = 17.704199 Si / 1000 Ang^3
#
#
#
# Elastic Constant Matrix: (Units=GPa)
#
#
# Indices 1 2 3 4 5 6 
#
# 1 153.2967 33.0890 59.5710 0.0000 0.0000 0.0000
# 2 33.0890 62.3061 25.5854 0.0000 0.0000 0.0000
# 3 59.5710 25.5854 99.1891 0.0000 0.0000 0.0000
# 4 0.0000 0.0000 0.0000 -80.5144 0.0000 0.0000
# 5 0.0000 0.0000 0.0000 0.0000 3.5257 0.0000
# 6 0.0000 0.0000 0.0000 0.0000 0.0000 8.3580
#
#
#
# Elastic Compliance Matrix: (Units=1/GPa)
#
#
# Indices 1 2 3 4 5 6 
#
# 1 0.008938 -0.002844 -0.004635 0.000000 0.000000 0.000000
# 2 -0.002844 0.018856 -0.003156 0.000000 0.000000 0.000000
# 3 -0.004635 -0.003156 0.013679 0.000000 0.000000 0.000000
# 4 0.000000 0.000000 0.000000 -0.012420 0.000000 0.000000
# 5 0.000000 0.000000 0.000000 0.000000 0.283634 0.000000
# 6 0.000000 0.000000 0.000000 0.000000 0.000000 0.119646
#
#
# Mechanical properties :
#
#
# Convention : Reuss Voigt Hill
#
# Bulk Modulus (GPa) = 49.49281 61.25364 55.37323
# Shear Modulus (GPa) = 10.86163 -0.62304 5.11929
#
# Velocity S-wave (km/s) = 2.47959 -0.59387 1.70231
# Velocity P-wave (km/s) = 6.01780 5.84835 5.93368
#
# Compressibility (1/GPa) = 0.02020496
#
# Stress axis : x y z
#
# Youngs Moduli (GPa) = 111.88097 53.03371 73.10357
#
# Poissons Ratio (x) = 0.15081 0.33880
# Poissons Ratio (y) = 0.31815 0.23071
# Poissons Ratio (z) = 0.51851 0.16737
#
# Static dielectric constant tensor:
#      x y z
#    x 1.570190 0.000000 0.000000 
#    y 0.000000 1.613660 0.000000 
#    z 0.000000 0.000000 1.620690 
# 
# From -- ./inp_files/45166.got.cif
#   From: 2010.05.17/outbox.cif.g08.bks.cpg/sg68_23_cif.got.tgz:45166.got - 2010.06.03 18:57:09.
