data_PCOD9505984
_publ_section_title
;
Structure prediction by ZEFSAII (Michael W. Deem and Ramdas Pophale) SiO2 
 PCOD9505984
Probable space group: C C C A
;
_chemical_formula_sum "Si O2"
_cell_formula_units_Z 48
_cell_length_a 15.371803
_cell_length_b 9.174688
_cell_length_c 17.624469
_cell_angle_alpha 90.000000
_cell_angle_beta 90.000000
_cell_angle_gamma 90.000000
_cell_volume 2485.605238
_symmetry_space_group_name_H-M "C C C A"
_symmetry_group_IT_number 68
_space_group.IT_coordinate_system_code '2'
_symmetry_cell_setting 'orthorhombic'
loop_
_space_group_symop_operation_xyz
x,y,z
-x,1/2-y,z
x,1/2-y,1/2-z
-x,y,1/2-z
-x,-y,-z
x,1/2+y,-z
-x,1/2+y,1/2+z
x,-y,1/2+z
1/2+x,1/2+y,z
1/2-x,-y,z
1/2+x,-y,1/2-z
1/2-x,1/2+y,1/2-z
1/2-x,1/2-y,-z
1/2+x,y,-z
1/2-x,y,1/2+z
1/2+x,1/2-y,1/2+z
loop_
_atom_site_type_symbol
_atom_site_label
_atom_site_fract_x
_atom_site_fract_y
_atom_site_fract_z
Si Si1 0.595101 0.736188 0.603163
Si Si2 0.729932 0.330074 0.678342
Si Si3 0.345814 0.559856 0.470415
O O1 0.500000 0.750000 0.638485
O O2 0.677494 0.743663 0.658780
O O3 0.608742 0.857105 0.538313
O O4 0.603720 0.579078 0.562150
O O5 0.689341 0.250000 0.750000
O O6 0.750000 0.500000 0.694856
O O7 0.674013 0.333437 0.601000
O O8 0.250000 0.500000 0.493733
#
# Coordination Sequence:
#
# PCOD9505984 Si02
#       3
#    16  16  16
#     4  10  19  32  52  77 102 126 159 206 250 289
#     4   9  19  33  50  72  98 130 168 201 238 292
#     4   9  18  33  51  74  98 129 168 199 237 295
#
# _framework density 19.311191999999998
#
# number of rings (size 3 to 8) (size 9 to 14) (size 15 to 20)
#    0.000    3.333    0.000    5.000    0.000    4.667 
#    0.000    0.000    0.000    9.000    0.000    0.000 
#    0.000    0.000    0.000    0.000    0.000    0.000 
#
# Total GULP energy -133818.894129 kJ/mol
# GULP energy per Si atom -5575.787255 kJ/mol
# Density = 1.926724 g / cm^3
# Si number density = 19.311192 Si / 1000 Ang^3
#
#
#
# Elastic Constant Matrix: (Units=GPa)
#
#
# Indices 1 2 3 4 5 6 
#
# 1 57.2378 0.5015 -13.9817 0.0000 0.0000 0.0000
# 2 0.5015 11.2549 3.1528 0.0000 0.0000 0.0000
# 3 -13.9817 3.1528 41.9141 0.0000 0.0000 0.0000
# 4 0.0000 0.0000 0.0000 20.3401 0.0000 0.0000
# 5 0.0000 0.0000 0.0000 0.0000 0.7737 0.0000
# 6 0.0000 0.0000 0.0000 0.0000 0.0000 11.4410
#
#
#
# Elastic Compliance Matrix: (Units=1/GPa)
#
#
# Indices 1 2 3 4 5 6 
#
# 1 0.019100 -0.002693 0.006574 0.000000 0.000000 0.000000
# 2 -0.002693 0.091142 -0.007754 0.000000 0.000000 0.000000
# 3 0.006574 -0.007754 0.026635 0.000000 0.000000 0.000000
# 4 0.000000 0.000000 0.000000 0.049164 0.000000 0.000000
# 5 0.000000 0.000000 0.000000 0.000000 1.292560 0.000000
# 6 0.000000 0.000000 0.000000 0.000000 0.000000 0.087405
#
#
# Mechanical properties :
#
#
# Convention : Reuss Voigt Hill
#
# Bulk Modulus (GPa) = 7.74399 9.97243 8.85821
# Shear Modulus (GPa) = 3.09254 14.55990 8.82622
#
# Velocity S-wave (km/s) = 1.26685 2.74882 2.14020
# Velocity P-wave (km/s) = 2.48167 3.90512 3.27174
#
# Compressibility (1/GPa) = 0.12913235
#
# Stress axis : x y z
#
# Youngs Moduli (GPa) = 52.35482 10.97185 37.54522
#
# Poissons Ratio (x) = 0.02954 -0.24682
# Poissons Ratio (y) = 0.14097 0.29112
# Poissons Ratio (z) = -0.34418 0.08507
#
# Static dielectric constant tensor:
#      x y z
#    x 1.694600 0.000000 0.000000 
#    y 0.000000 1.679000 0.000000 
#    z 0.000000 0.000000 1.667220 
# 
# From -- ./inp_files/19928.got.cif
#   From: 2010.05.17/outbox.cif.g08.bks.cpg/sg68_10_cif.got.tgz:19928.got - 2010.06.03 18:57:09.
