data_PCOD9505664
_publ_section_title
;
Structure prediction by ZEFSAII (Michael W. Deem and Ramdas Pophale) SiO2 
 PCOD9505664
Probable space group: C C C A
;
_chemical_formula_sum "Si O2"
_cell_formula_units_Z 72
_cell_length_a 11.361918
_cell_length_b 18.058642
_cell_length_c 19.765569
_cell_angle_alpha 90.000000
_cell_angle_beta 90.000000
_cell_angle_gamma 90.000000
_cell_volume 4055.515450
_symmetry_space_group_name_H-M "C C C A"
_symmetry_group_IT_number 68
_space_group.IT_coordinate_system_code '2'
_symmetry_cell_setting 'orthorhombic'
loop_
_space_group_symop_operation_xyz
x,y,z
-x,1/2-y,z
x,1/2-y,1/2-z
-x,y,1/2-z
-x,-y,-z
x,1/2+y,-z
-x,1/2+y,1/2+z
x,-y,1/2+z
1/2+x,1/2+y,z
1/2-x,-y,z
1/2+x,-y,1/2-z
1/2-x,1/2+y,1/2-z
1/2-x,1/2-y,-z
1/2+x,y,-z
1/2-x,y,1/2+z
1/2+x,1/2-y,1/2+z
loop_
_atom_site_type_symbol
_atom_site_label
_atom_site_fract_x
_atom_site_fract_y
_atom_site_fract_z
Si Si1 0.353402 0.852838 0.980657
Si Si2 0.732596 0.777072 0.395734
Si Si3 0.750000 0.500000 0.533681
Si Si4 0.291045 0.250000 0.250000
Si Si5 0.000000 0.369503 0.750000
Si Si6 0.928663 0.593707 0.105562
O O1 0.286774 0.794598 0.932634
O O2 0.473402 0.878304 0.946494
O O3 0.363789 0.812132 0.053706
O O4 0.278108 0.927238 0.990931
O O5 0.713150 0.759089 0.317269
O O6 0.833365 0.840224 0.392785
O O7 0.862116 0.478977 0.579522
O O8 0.383883 0.182064 0.259274
O O9 0.980990 0.413738 0.680664
#
# Coordination Sequence:
#
# PCOD9505664 Si02
#       6
#    16  16   8   8   8  16
#     4  10  18  32  49  77 104 138 171 218 264 314
#     4   9  18  29  54  80  99 128 180 224 269 303
#     4  10  22  32  48  74 108 140 178 208 260 320
#     4   9  14  28  48  80 101 116 168 229 270 312
#     4   9  16  26  52  72  98 128 165 222 276 299
#     4  10  18  33  51  77 102 138 176 222 260 317
#
# _framework density 17.753601
#
# number of rings (size 3 to 8) (size 9 to 14) (size 15 to 20)
#    0.000    2.444    2.222    1.333    0.000    0.000 
#    0.000    1.111    0.000    0.000    0.000    6.222 
#    0.000    0.000    0.000    0.000    0.000    0.000 
#
# Total GULP energy -200522.645486 kJ/mol
# GULP energy per Si atom -5570.073486 kJ/mol
# Density = 1.771319 g / cm^3
# Si number density = 17.753601 Si / 1000 Ang^3
#
#
#
# Elastic Constant Matrix: (Units=GPa)
#
#
# Indices 1 2 3 4 5 6 
#
# 1 35.2737 -5.4230 35.6798 0.0000 0.0000 0.0000
# 2 -5.4230 46.3905 14.1121 0.0000 0.0000 0.0000
# 3 35.6798 14.1121 151.5312 0.0000 0.0000 0.0000
# 4 0.0000 0.0000 0.0000 -1.0933 0.0000 0.0000
# 5 0.0000 0.0000 0.0000 0.0000 26.2456 0.0000
# 6 0.0000 0.0000 0.0000 0.0000 0.0000 18.7602
#
#
#
# Elastic Compliance Matrix: (Units=1/GPa)
#
#
# Indices 1 2 3 4 5 6 
#
# 1 0.039721 0.007707 -0.010071 0.000000 0.000000 0.000000
# 2 0.007707 0.023680 -0.004020 0.000000 0.000000 0.000000
# 3 -0.010071 -0.004020 0.009345 0.000000 0.000000 0.000000
# 4 0.000000 0.000000 0.000000 -0.914650 0.000000 0.000000
# 5 0.000000 0.000000 0.000000 0.000000 0.038102 0.000000
# 6 0.000000 0.000000 0.000000 0.000000 0.000000 0.053304
#
#
# Mechanical properties :
#
#
# Convention : Reuss Voigt Hill
#
# Bulk Modulus (GPa) = 16.67262 35.77037 26.22150
# Shear Modulus (GPa) = -6.96633 21.37092 7.20229
#
# Velocity S-wave (km/s) = -1.98303 3.47328 2.01634
# Velocity P-wave (km/s) = 2.04164 6.02303 4.49695
#
# Compressibility (1/GPa) = 0.05997856
#
# Stress axis : x y z
#
# Youngs Moduli (GPa) = 25.17554 42.22980 107.01012
#
# Poissons Ratio (x) = -0.32546 1.07765
# Poissons Ratio (y) = -0.19402 0.43018
# Poissons Ratio (z) = 0.25353 0.16976
#
# Static dielectric constant tensor:
#      x y z
#    x 1.625850 0.000000 0.000000 
#    y 0.000000 1.602940 0.000000 
#    z 0.000000 0.000000 1.647630 
# 
# From -- ./inp_files/29433.got.cif
#   From: 2010.05.17/outbox.cif.g08.bks.cpg/sg68_15_cif.got.tgz:29433.got - 2010.06.03 18:57:09.
