data_PCOD9505965
_publ_section_title
;
Structure prediction by ZEFSAII (Michael W. Deem and Ramdas Pophale) SiO2 
 PCOD9505965
Probable space group: C C C A
;
_chemical_formula_sum "Si O2"
_cell_formula_units_Z 92
_cell_length_a 9.623967
_cell_length_b 22.972974
_cell_length_c 21.113234
_cell_angle_alpha 90.000000
_cell_angle_beta 90.000000
_cell_angle_gamma 90.000000
_cell_volume 4667.949052
_symmetry_space_group_name_H-M "C C C A"
_symmetry_group_IT_number 68
_space_group.IT_coordinate_system_code '2'
_symmetry_cell_setting 'orthorhombic'
loop_
_space_group_symop_operation_xyz
x,y,z
-x,1/2-y,z
x,1/2-y,1/2-z
-x,y,1/2-z
-x,-y,-z
x,1/2+y,-z
-x,1/2+y,1/2+z
x,-y,1/2+z
1/2+x,1/2+y,z
1/2-x,-y,z
1/2+x,-y,1/2-z
1/2-x,1/2+y,1/2-z
1/2-x,1/2-y,-z
1/2+x,y,-z
1/2-x,y,1/2+z
1/2+x,1/2-y,1/2+z
loop_
_atom_site_type_symbol
_atom_site_label
_atom_site_fract_x
_atom_site_fract_y
_atom_site_fract_z
Si Si1 0.655770 0.446911 0.222610
Si Si2 0.849430 0.737533 0.091805
Si Si3 0.178184 0.655077 0.820805
Si Si4 0.208574 0.336798 0.026092
Si Si5 0.500000 0.250000 0.750000
Si Si6 0.937716 0.401109 0.057443
Si Si7 0.750000 0.500000 0.096412
O O1 0.500000 0.445836 0.250000
O O2 0.750000 0.500000 0.249660
O O3 0.742083 0.387164 0.227704
O O4 0.662855 0.459728 0.146254
O O5 0.785185 0.687698 0.134155
O O6 0.759222 0.796334 0.084134
O O7 0.000000 0.750000 0.117551
O O8 0.862323 0.709103 0.022019
O O9 0.083109 0.618265 0.869246
O O10 0.093005 0.706465 0.790043
O O11 0.096896 0.387067 0.040769
O O12 0.342309 0.362286 0.989546
O O13 0.862698 0.463868 0.056777
#
# Coordination Sequence:
#
# PCOD9505965 Si02
#       7
#    16  16  16  16   4  16   8
#     4   9  20  40  64  84 110 164 208 259 307 360
#     4  10  19  34  53  87 116 157 195 238 294 370
#     4  10  23  36  59  84 126 147 207 248 308 369
#     4  10  19  31  58  80 116 159 194 230 297 374
#     4  12  24  40  58  96 120 176 182 258 328 382
#     4  10  19  37  55  85 114 158 198 250 295 360
#     4   8  20  36  60  80 120 148 204 266 300 344
#
# _framework density 19.708870000000001
#
# number of rings (size 3 to 8) (size 9 to 14) (size 15 to 20)
#    0.522    1.739    1.739    1.043    1.217    2.087 
#    0.000    1.739    0.000    0.000    0.000    0.000 
#    0.000    0.000    0.000    0.000    0.000    0.000 
#
# Total GULP energy -256147.620837 kJ/mol
# GULP energy per Si atom -5568.426540 kJ/mol
# Density = 1.966401 g / cm^3
# Si number density = 19.708870 Si / 1000 Ang^3
#
#
#
# Elastic Constant Matrix: (Units=GPa)
#
#
# Indices 1 2 3 4 5 6 
#
# 1 109.2009 42.3851 23.4097 0.0000 0.0000 0.0000
# 2 42.3851 102.9437 14.4269 0.0000 0.0000 0.0000
# 3 23.4097 14.4269 19.8725 0.0000 0.0000 0.0000
# 4 0.0000 0.0000 0.0000 -8.1959 0.0000 0.0000
# 5 0.0000 0.0000 0.0000 0.0000 10.4321 0.0000
# 6 0.0000 0.0000 0.0000 0.0000 0.0000 -235.3007
#
#
#
# Elastic Compliance Matrix: (Units=1/GPa)
#
#
# Indices 1 2 3 4 5 6 
#
# 1 0.013395 -0.003678 -0.013109 0.000000 0.000000 0.000000
# 2 -0.003678 0.011824 -0.004251 0.000000 0.000000 0.000000
# 3 -0.013109 -0.004251 0.068850 0.000000 0.000000 0.000000
# 4 0.000000 0.000000 0.000000 -0.122012 0.000000 0.000000
# 5 0.000000 0.000000 0.000000 0.000000 0.095858 0.000000
# 6 0.000000 0.000000 0.000000 0.000000 0.000000 -0.004250
#
#
# Mechanical properties :
#
#
# Convention : Reuss Voigt Hill
#
# Bulk Modulus (GPa) = 19.23380 43.60671 31.42025
# Shear Modulus (GPa) = 40.62597 -36.49320 2.06639
#
# Velocity S-wave (km/s) = 4.54508 -4.30771 1.02505
# Velocity P-wave (km/s) = 6.10933 1.60260 4.16867
#
# Compressibility (1/GPa) = 0.05199181
#
# Stress axis : x y z
#
# Youngs Moduli (GPa) = 74.65286 84.57218 14.52435
#
# Poissons Ratio (x) = 0.31106 0.19041
# Poissons Ratio (y) = 0.27458 0.06175
# Poissons Ratio (z) = 0.97866 0.35954
#
# Static dielectric constant tensor:
#      x y z
#    x 1.680130 0.000000 0.000000 
#    y 0.000000 1.700350 0.000000 
#    z 0.000000 0.000000 1.647660 
# 
# From -- ./inp_files/49348.got.cif
#   From: 2010.05.17/outbox.cif.g08.bks.cpg/sg68_25_cif.got.tgz:49348.got - 2010.06.03 18:57:09.
