data_PCOD9505871
_publ_section_title
;
Structure prediction by ZEFSAII (Michael W. Deem and Ramdas Pophale) SiO2 
 PCOD9505871
Probable space group: C C C A
;
_chemical_formula_sum "Si O2"
_cell_formula_units_Z 120
_cell_length_a 10.484735
_cell_length_b 22.787759
_cell_length_c 23.069460
_cell_angle_alpha 90.000000
_cell_angle_beta 90.000000
_cell_angle_gamma 90.000000
_cell_volume 5511.838765
_symmetry_space_group_name_H-M "C C C A"
_symmetry_group_IT_number 68
_space_group.IT_coordinate_system_code '2'
_symmetry_cell_setting 'orthorhombic'
loop_
_space_group_symop_operation_xyz
x,y,z
-x,1/2-y,z
x,1/2-y,1/2-z
-x,y,1/2-z
-x,-y,-z
x,1/2+y,-z
-x,1/2+y,1/2+z
x,-y,1/2+z
1/2+x,1/2+y,z
1/2-x,-y,z
1/2+x,-y,1/2-z
1/2-x,1/2+y,1/2-z
1/2-x,1/2-y,-z
1/2+x,y,-z
1/2-x,y,1/2+z
1/2+x,1/2-y,1/2+z
loop_
_atom_site_type_symbol
_atom_site_label
_atom_site_fract_x
_atom_site_fract_y
_atom_site_fract_z
Si Si1 0.473946 0.355708 0.911793
Si Si2 0.258785 0.935499 0.303494
Si Si3 0.601588 0.433717 0.144831
Si Si4 0.783311 0.784374 0.440329
Si Si5 0.608699 0.061967 0.816042
Si Si6 0.500000 0.598267 0.750000
Si Si7 0.256341 0.668318 0.603942
Si Si8 0.006115 0.620897 0.037071
O O1 0.343262 0.319945 0.921158
O O2 0.470104 0.390362 0.851418
O O3 0.607749 0.321310 0.912009
O O4 0.487674 0.395212 0.969639
O O5 0.364717 0.931418 0.252534
O O6 0.130177 0.933493 0.265894
O O7 0.250162 0.879088 0.344431
O O8 0.250000 0.000000 0.332578
O O9 0.559759 0.497266 0.168538
O O10 0.752902 0.432407 0.152060
O O11 0.542045 0.381286 0.185217
O O12 0.549549 0.427057 0.080607
O O13 0.750000 0.750000 0.500000
O O14 0.809962 0.734395 0.391861
O O15 0.905546 0.825446 0.452543
O O16 0.351626 0.638583 0.557409
#
# Coordination Sequence:
#
# PCOD9505871 Si02
#       8
#    16  16  16  16  16   8  16  16
#     4  12  25  41  69 101 135 178 226 281 354 418
#     4  11  23  42  68  99 134 180 234 283 346 420
#     4  10  20  39  67  97 128 178 227 269 338 411
#     4  12  24  47  70  91 130 186 230 269 343 424
#     4  10  22  42  68  96 133 186 220 272 349 420
#     4  10  18  38  66  91 126 173 230 268 322 404
#     4  12  27  38  67 109 129 168 235 296 335 404
#     4  12  23  43  69 101 135 176 227 290 340 416
#
# _framework density 21.771318000000001
#
# number of rings (size 3 to 8) (size 9 to 14) (size 15 to 20)
#    0.000    0.800    8.000    0.800    1.867    1.067 
#    0.000    0.667    0.000    2.400    0.000    0.000 
#    0.000    0.000    0.000    0.000    0.000    0.000 
#
# Total GULP energy -334096.100212 kJ/mol
# GULP energy per Si atom -5568.268337 kJ/mol
# Density = 2.172177 g / cm^3
# Si number density = 21.771318 Si / 1000 Ang^3
#
#
#
# Elastic Constant Matrix: (Units=GPa)
#
#
# Indices 1 2 3 4 5 6 
#
# 1 105.0455 12.3200 3.7301 0.0000 0.0000 0.0000
# 2 12.3200 84.0216 61.0533 0.0000 0.0000 0.0000
# 3 3.7301 61.0533 115.9129 0.0000 0.0000 0.0000
# 4 0.0000 0.0000 0.0000 36.2377 0.0000 0.0000
# 5 0.0000 0.0000 0.0000 0.0000 28.3904 0.0000
# 6 0.0000 0.0000 0.0000 0.0000 0.0000 21.7617
#
#
#
# Elastic Compliance Matrix: (Units=1/GPa)
#
#
# Indices 1 2 3 4 5 6 
#
# 1 0.009722 -0.001941 0.000710 0.000000 0.000000 0.000000
# 2 -0.001941 0.019669 -0.010297 0.000000 0.000000 0.000000
# 3 0.000710 -0.010297 0.014028 0.000000 0.000000 0.000000
# 4 0.000000 0.000000 0.000000 0.027596 0.000000 0.000000
# 5 0.000000 0.000000 0.000000 0.000000 0.035223 0.000000
# 6 0.000000 0.000000 0.000000 0.000000 0.000000 0.045952
#
#
# Mechanical properties :
#
#
# Convention : Reuss Voigt Hill
#
# Bulk Modulus (GPa) = 49.11320 51.02074 50.06697
# Shear Modulus (GPa) = 27.46720 32.46973 29.96847
#
# Velocity S-wave (km/s) = 3.55579 3.86605 3.71416
# Velocity P-wave (km/s) = 6.28218 6.58895 6.43739
#
# Compressibility (1/GPa) = 0.02036113
#
# Stress axis : x y z
#
# Youngs Moduli (GPa) = 102.85785 50.84187 71.28519
#
# Poissons Ratio (x) = 0.09869 -0.05058
# Poissons Ratio (y) = 0.19966 0.73405
# Poissons Ratio (z) = -0.07299 0.52354
#
# Static dielectric constant tensor:
#      x y z
#    x 1.865710 0.000000 0.000000 
#    y 0.000000 1.841090 0.000000 
#    z 0.000000 0.000000 1.868220 
# 
# From -- ./inp_files/37899.got.cif
#   From: 2010.05.17/outbox.cif.g08.bks.cpg/sg68_19_cif.got.tgz:37899.got - 2010.06.03 18:57:09.
