data_PCOD9505815
_publ_section_title
;
Structure prediction by ZEFSAII (Michael W. Deem and Ramdas Pophale) SiO2 
 PCOD9505815
Probable space group: C C C A
;
_chemical_formula_sum "Si O2"
_cell_formula_units_Z 120
_cell_length_a 21.767974
_cell_length_b 27.929779
_cell_length_c 10.670283
_cell_angle_alpha 90.000000
_cell_angle_beta 90.000000
_cell_angle_gamma 90.000000
_cell_volume 6487.262139
_symmetry_space_group_name_H-M "C C C A"
_symmetry_group_IT_number 68
_space_group.IT_coordinate_system_code '2'
_symmetry_cell_setting 'orthorhombic'
loop_
_space_group_symop_operation_xyz
x,y,z
-x,1/2-y,z
x,1/2-y,1/2-z
-x,y,1/2-z
-x,-y,-z
x,1/2+y,-z
-x,1/2+y,1/2+z
x,-y,1/2+z
1/2+x,1/2+y,z
1/2-x,-y,z
1/2+x,-y,1/2-z
1/2-x,1/2+y,1/2-z
1/2-x,1/2-y,-z
1/2+x,y,-z
1/2-x,y,1/2+z
1/2+x,1/2-y,1/2+z
loop_
_atom_site_type_symbol
_atom_site_label
_atom_site_fract_x
_atom_site_fract_y
_atom_site_fract_z
Si Si1 0.024811 0.060923 0.377085
Si Si2 0.796444 0.805200 0.129886
Si Si3 0.500000 0.393462 0.250000
Si Si4 0.699660 0.588358 0.923430
Si Si5 0.894556 0.613989 0.078663
Si Si6 0.926426 0.964117 0.071259
Si Si7 0.808613 0.296650 0.578784
Si Si8 0.222530 0.554394 0.347151
O O1 0.064286 0.095650 0.463954
O O2 0.000000 0.083146 0.250000
O O3 0.964085 0.037805 0.441860
O O4 0.068821 0.015057 0.361714
O O5 0.822829 0.857317 0.097697
O O6 0.781853 0.805241 0.279325
O O7 0.834626 0.757439 0.094722
O O8 0.738373 0.798993 0.037309
O O9 0.555920 0.368515 0.181134
O O10 0.465292 0.427364 0.152954
O O11 0.733300 0.572169 0.795124
O O12 0.642362 0.553373 0.942195
O O13 0.741995 0.583600 0.045048
O O14 0.854142 0.660074 0.052616
O O15 0.849516 0.570123 0.126074
O O16 0.250000 0.500000 0.356739
#
# Coordination Sequence:
#
# PCOD9505815 Si02
#       8
#    16  16   8  16  16  16  16  16
#     4  10  22  37  56  85 113 159 210 253 300 363
#     4  10  19  37  61  89 122 161 198 246 314 377
#     4  10  18  36  62  77 110 160 214 247 296 346
#     4  12  22  39  59  87 126 163 201 252 312 376
#     4  11  21  39  60  86 122 160 204 261 307 364
#     4  10  20  35  58  79 111 159 206 247 295 363
#     4  10  20  37  62  90 125 154 204 256 307 382
#     4  12  25  38  55  92 130 168 197 251 314 377
#
# _framework density 18.497789000000001
#
# number of rings (size 3 to 8) (size 9 to 14) (size 15 to 20)
#    0.000    1.333    4.667    1.200    0.000    2.133 
#    2.400    0.000    0.000   12.000    0.000    0.933 
#    0.000    0.000    0.000    0.000    0.000    0.000 
#
# Total GULP energy -334029.664288 kJ/mol
# GULP energy per Si atom -5567.161071 kJ/mol
# Density = 1.845569 g / cm^3
# Si number density = 18.497789 Si / 1000 Ang^3
#
#
#
# Elastic Constant Matrix: (Units=GPa)
#
#
# Indices 1 2 3 4 5 6 
#
# 1 79.3683 27.3146 37.0207 0.0000 0.0000 0.0000
# 2 27.3146 107.2266 18.5403 0.0000 0.0000 0.0000
# 3 37.0207 18.5403 81.0771 0.0000 0.0000 0.0000
# 4 0.0000 0.0000 0.0000 29.9303 0.0000 0.0000
# 5 0.0000 0.0000 0.0000 0.0000 25.7688 0.0000
# 6 0.0000 0.0000 0.0000 0.0000 0.0000 -79.7333
#
#
#
# Elastic Compliance Matrix: (Units=1/GPa)
#
#
# Indices 1 2 3 4 5 6 
#
# 1 0.016945 -0.003101 -0.007028 0.000000 0.000000 0.000000
# 2 -0.003101 0.010278 -0.000934 0.000000 0.000000 0.000000
# 3 -0.007028 -0.000934 0.015757 0.000000 0.000000 0.000000
# 4 0.000000 0.000000 0.000000 0.033411 0.000000 0.000000
# 5 0.000000 0.000000 0.000000 0.000000 0.038807 0.000000
# 6 0.000000 0.000000 0.000000 0.000000 0.000000 -0.012542
#
#
# Mechanical properties :
#
#
# Convention : Reuss Voigt Hill
#
# Bulk Modulus (GPa) = 47.95662 48.15814 48.05738
# Shear Modulus (GPa) = 37.95563 7.51293 22.73428
#
# Velocity S-wave (km/s) = 4.53471 2.01751 3.50955
# Velocity P-wave (km/s) = 7.30753 5.61411 6.51606
#
# Compressibility (1/GPa) = 0.02085218
#
# Stress axis : x y z
#
# Youngs Moduli (GPa) = 59.01445 97.29918 63.46529
#
# Poissons Ratio (x) = 0.30176 0.44604
# Poissons Ratio (y) = 0.18302 0.05928
# Poissons Ratio (z) = 0.41476 0.09089
#
# Static dielectric constant tensor:
#      x y z
#    x 1.654470 0.000000 0.000000 
#    y 0.000000 1.669810 0.000000 
#    z 0.000000 0.000000 1.701160 
# 
# From -- ./inp_files/15894.got.cif
#   From: 2010.05.17/outbox.cif.g08.bks.cpg/sg68_8_cif.got.tgz:15894.got - 2010.06.03 18:57:09.
