data_PCOD9505382
_publ_section_title
;
Structure prediction by ZEFSAII (Michael W. Deem and Ramdas Pophale) SiO2 
 PCOD9505382
Probable space group: C C C A
;
_chemical_formula_sum "Si O2"
_cell_formula_units_Z 80
_cell_length_a 22.780513
_cell_length_b 9.269276
_cell_length_c 18.207355
_cell_angle_alpha 90.000000
_cell_angle_beta 90.000000
_cell_angle_gamma 90.000000
_cell_volume 3844.644369
_symmetry_space_group_name_H-M "C C C A"
_symmetry_group_IT_number 68
_space_group.IT_coordinate_system_code '2'
_symmetry_cell_setting 'orthorhombic'
loop_
_space_group_symop_operation_xyz
x,y,z
-x,1/2-y,z
x,1/2-y,1/2-z
-x,y,1/2-z
-x,-y,-z
x,1/2+y,-z
-x,1/2+y,1/2+z
x,-y,1/2+z
1/2+x,1/2+y,z
1/2-x,-y,z
1/2+x,-y,1/2-z
1/2-x,1/2+y,1/2-z
1/2-x,1/2-y,-z
1/2+x,y,-z
1/2-x,y,1/2+z
1/2+x,1/2-y,1/2+z
loop_
_atom_site_type_symbol
_atom_site_label
_atom_site_fract_x
_atom_site_fract_y
_atom_site_fract_z
Si Si1 0.000000 0.250000 0.874219
Si Si2 0.354542 0.423518 0.910395
Si Si3 0.052784 0.034528 0.207231
Si Si4 0.250000 0.000000 0.687819
Si Si5 0.650248 0.388089 0.289271
Si Si6 0.626253 0.235808 0.060232
O O1 0.977588 0.111745 0.827280
O O2 0.943037 0.287702 0.923190
O O3 0.411235 0.394182 0.859259
O O4 0.294627 0.410722 0.863556
O O5 0.359469 0.594489 0.930771
O O6 0.355894 0.326218 0.982078
O O7 0.103530 0.008935 0.268315
O O8 0.000000 0.105428 0.250000
O O9 0.208352 0.087616 0.742407
O O10 0.621316 0.250000 0.250000
O O11 0.657797 0.351595 0.373814
#
# Coordination Sequence:
#
# PCOD9505382 Si02
#       6
#     8  16  16   8  16  16
#     4  10  17  30  64  92 119 146 206 250 303 360
#     4  10  24  39  59  92 127 164 205 259 313 376
#     4  10  16  31  61  91 115 153 206 256 297 364
#     4  10  22  40  60  86 122 156 222 264 298 366
#     4  11  18  37  62  88 113 158 213 261 298 360
#     4  11  22  39  61  95 127 160 202 254 321 370
#
# _framework density 20.808166
#
# number of rings (size 3 to 8) (size 9 to 14) (size 15 to 20)
#    0.000    1.600    8.000    0.300    0.000    4.800 
#    3.600    0.000    0.000    0.000    5.200    0.000 
#    0.000    0.000    0.000    0.000    0.000    0.000 
#
# Total GULP energy -223061.267221 kJ/mol
# GULP energy per Si atom -5576.531681 kJ/mol
# Density = 2.076081 g / cm^3
# Si number density = 20.808166 Si / 1000 Ang^3
#
#
#
# Elastic Constant Matrix: (Units=GPa)
#
#
# Indices 1 2 3 4 5 6 
#
# 1 139.9965 24.9891 66.6860 0.0000 0.0000 0.0000
# 2 24.9891 40.3130 30.9382 0.0000 0.0000 0.0000
# 3 66.6860 30.9382 141.6915 0.0000 0.0000 0.0000
# 4 0.0000 0.0000 0.0000 -15.7029 0.0000 0.0000
# 5 0.0000 0.0000 0.0000 0.0000 14.4781 0.0000
# 6 0.0000 0.0000 0.0000 0.0000 0.0000 8.0905
#
#
#
# Elastic Compliance Matrix: (Units=1/GPa)
#
#
# Indices 1 2 3 4 5 6 
#
# 1 0.009490 -0.002949 -0.003823 0.000000 0.000000 0.000000
# 2 -0.002949 0.030716 -0.005319 0.000000 0.000000 0.000000
# 3 -0.003823 -0.005319 0.010018 0.000000 0.000000 0.000000
# 4 0.000000 0.000000 0.000000 -0.063683 0.000000 0.000000
# 5 0.000000 0.000000 0.000000 0.000000 0.069070 0.000000
# 6 0.000000 0.000000 0.000000 0.000000 0.000000 0.123602
#
#
# Mechanical properties :
#
#
# Convention : Reuss Voigt Hill
#
# Bulk Modulus (GPa) = 38.39783 63.02528 50.71155
# Shear Modulus (GPa) = 23.57650 14.66566 19.12108
#
# Velocity S-wave (km/s) = 3.36972 2.65769 3.03466
# Velocity P-wave (km/s) = 5.79942 6.30652 6.05828
#
# Compressibility (1/GPa) = 0.02604314
#
# Stress axis : x y z
#
# Youngs Moduli (GPa) = 105.37061 32.55639 99.82017
#
# Poissons Ratio (x) = 0.09601 0.38157
# Poissons Ratio (y) = 0.31076 0.53092
# Poissons Ratio (z) = 0.40279 0.17316
#
# Static dielectric constant tensor:
#      x y z
#    x 1.786830 0.000000 0.000000 
#    y 0.000000 1.943540 0.000000 
#    z 0.000000 0.000000 1.737190 
# 
# From -- ./inp_files/32727.got.cif
#   From: 2010.05.17/outbox.cif.g08.bks.cpg/sg68_17_cif.got.tgz:32727.got - 2010.06.03 18:57:09.
