data_PCOD9505263
_publ_section_title
;
Structure prediction by ZEFSAII (Michael W. Deem and Ramdas Pophale) SiO2 
 PCOD9505263
Probable space group: C M M A
;
_chemical_formula_sum "Si O2"
_cell_formula_units_Z 48
_cell_length_a 15.000000
_cell_length_b 21.000000
_cell_length_c 15.000000
_cell_angle_alpha 90.000000
_cell_angle_beta 90.000000
_cell_angle_gamma 90.000000
_cell_volume 4725.000000
_symmetry_space_group_name_H-M "C M M A"
_symmetry_group_IT_number 67
_symmetry_cell_setting 'orthorhombic'
loop_
_space_group_symop_operation_xyz
x,y,z
-x,1/2-y,z
x,-y,-z
-x,1/2+y,-z
-x,-y,-z
x,1/2+y,-z
-x,y,z
x,1/2-y,z
1/2+x,1/2+y,z
1/2-x,-y,z
1/2+x,1/2-y,-z
1/2-x,y,-z
1/2-x,1/2-y,-z
1/2+x,y,-z
1/2-x,1/2+y,z
1/2+x,-y,z
loop_
_atom_site_type_symbol
_atom_site_label
_atom_site_fract_x
_atom_site_fract_y
_atom_site_fract_z
Si Si1 0.172181 0.673344 0.116383
Si Si2 0.602842 0.929861 0.022006
Si Si3 0.842936 0.419345 0.551548
Si Si4 0.802613 0.068527 0.196035
Si Si5 0.897794 0.321495 0.693193
Si Si6 0.098479 0.056301 0.373354
O O1 0.187183 0.750000 0.098909
O O2 0.144653 0.630841 0.030227
O O3 0.249432 0.630120 0.160573
O O4 0.104161 0.669256 0.199893
O O5 0.500000 0.929983 0.995165
O O6 0.614909 0.929905 0.127931
O O7 0.642511 0.000000 0.000000
O O8 0.750000 0.427038 0.500000
O O9 0.844290 0.369364 0.631028
O O10 0.902073 0.403668 0.464765
O O11 0.875975 0.484984 0.595266
O O12 0.833478 0.075933 0.297128
O O13 0.750000 0.000000 0.189176
O O14 0.864618 0.250000 0.678252
O O15 0.000000 0.327212 0.664281
O O16 0.000000 0.055000 0.334444
#
# Coordination Sequence:
#
# PCOD9505263 Si02
#       6
#    16  16  16  16  16  16
#     4  11  24  42  66  94 126 165 209 259 317 377
#     4  11  24  41  63  93 125 162 208 257 312 370
#     4  11  21  36  58  88 122 160 204 258 314 372
#     4  12  23  40  63  90 125 164 207 263 313 374
#     4  10  21  38  60  87 119 157 203 255 310 370
#     4  11  22  37  59  87 121 161 207 256 311 370
#
# _framework density 10.15873
#
# number of rings (size 3 to 8) (size 9 to 14) (size 15 to 20)
#    0.000    1.000    1.667    7.500    0.000    2.667 
#    0.000    0.833    0.000    2.500    0.000    0.000 
#    0.000    0.000    0.000    0.000    0.000    0.000 
#
# Total GULP energy -267318.377948 kJ/mol
# GULP energy per Si atom -5569.132874 kJ/mol
# Density = 1.013561 g / cm^3
# Si number density = 10.158730 Si / 1000 Ang^3
#
#
#
# Elastic Constant Matrix: (Units=GPa)
#
#
# Indices 1 2 3 4 5 6 
#
# 1 80.5399 31.1823 21.9209 0.0000 0.0000 0.0000
# 2 31.1823 113.6828 44.0853 0.0000 0.0000 0.0000
# 3 21.9209 44.0853 133.9384 0.0000 0.0000 0.0000
# 4 0.0000 0.0000 0.0000 30.9340 0.0000 0.0000
# 5 0.0000 0.0000 0.0000 0.0000 34.5057 0.0000
# 6 0.0000 0.0000 0.0000 0.0000 0.0000 15.9736
#
#
#
# Elastic Compliance Matrix: (Units=1/GPa)
#
#
# Indices 1 2 3 4 5 6 
#
# 1 0.014053 -0.003396 -0.001182 0.000000 0.000000 0.000000
# 2 -0.003396 0.010904 -0.003033 0.000000 0.000000 0.000000
# 3 -0.001182 -0.003033 0.008658 0.000000 0.000000 0.000000
# 4 0.000000 0.000000 0.000000 0.032327 0.000000 0.000000
# 5 0.000000 0.000000 0.000000 0.000000 0.028981 0.000000
# 6 0.000000 0.000000 0.000000 0.000000 0.000000 0.062603
#
#
# Mechanical properties :
#
#
# Convention : Reuss Voigt Hill
#
# Bulk Modulus (GPa) = 54.37159 58.05980 56.21570
# Shear Modulus (GPa) = 27.95177 31.68083 29.81630
#
# Velocity S-wave (km/s) = 3.71314 3.95307 3.83498
# Velocity P-wave (km/s) = 6.72326 7.03378 6.88027
#
# Compressibility (1/GPa) = 0.01839196
#
# Stress axis : x y z
#
# Youngs Moduli (GPa) = 71.16008 91.70759 115.50046
#
# Poissons Ratio (x) = 0.31145 0.13653
# Poissons Ratio (y) = 0.24167 0.35034
# Poissons Ratio (z) = 0.08412 0.27817
#
# Static dielectric constant tensor:
#      x y z
#    x 1.879450 0.000000 0.000000 
#    y 0.000000 1.718700 0.000000 
#    z 0.000000 0.000000 1.744820 
# 
# From -- ./inp_files/27223.got.cif
#   From: 2010.05.17/outbox.ucp.g08.bks.cvg/sg67_14_cif.got.tgz:27223.got - 2010.06.11 16:47:20.
