data_PCOD9505808
_publ_section_title
;
Structure prediction by ZEFSAII (Michael W. Deem and Ramdas Pophale) SiO2 
 PCOD9505808
Probable space group: C C C A
;
_chemical_formula_sum "Si O2"
_cell_formula_units_Z 64
_cell_length_a 25.697842
_cell_length_b 5.475081
_cell_length_c 23.288511
_cell_angle_alpha 90.000000
_cell_angle_beta 90.000000
_cell_angle_gamma 90.000000
_cell_volume 3276.641482
_symmetry_space_group_name_H-M "C C C A"
_symmetry_group_IT_number 68
_space_group.IT_coordinate_system_code '2'
_symmetry_cell_setting 'orthorhombic'
loop_
_space_group_symop_operation_xyz
x,y,z
-x,1/2-y,z
x,1/2-y,1/2-z
-x,y,1/2-z
-x,-y,-z
x,1/2+y,-z
-x,1/2+y,1/2+z
x,-y,1/2+z
1/2+x,1/2+y,z
1/2-x,-y,z
1/2+x,-y,1/2-z
1/2-x,1/2+y,1/2-z
1/2-x,1/2-y,-z
1/2+x,y,-z
1/2-x,y,1/2+z
1/2+x,1/2-y,1/2+z
loop_
_atom_site_type_symbol
_atom_site_label
_atom_site_fract_x
_atom_site_fract_y
_atom_site_fract_z
Si Si1 0.750000 0.500000 0.788403
Si Si2 0.941342 0.053306 0.477596
Si Si3 0.951435 0.429624 0.645819
Si Si4 0.433979 0.750000 0.250000
Si Si5 0.360994 0.112955 0.311000
O O1 0.758229 0.750000 0.750000
O O2 0.697717 0.540526 0.825470
O O3 0.916848 0.287669 0.508638
O O4 0.945695 0.099065 0.409671
O O5 0.000000 0.000000 0.500000
O O6 0.961328 0.558658 0.707145
O O7 0.897100 0.283967 0.650646
O O8 0.000000 0.250000 0.635250
O O9 0.396680 0.615653 0.204710
O O10 0.355192 0.250000 0.250000
#
# Coordination Sequence:
#
# PCOD9505808 Si02
#       5
#     8  16  16   8  16
#     4  10  18  36  60  78 112 154 200 248 278 358
#     4  10  21  39  60  81 105 155 214 254 283 328
#     4  11  23  37  56  83 124 160 199 242 296 370
#     4  10  22  37  52  82 124 160 183 232 304 360
#     4   9  20  34  53  84 111 156 195 235 298 352
#
# _framework density 19.532194
#
# number of rings (size 3 to 8) (size 9 to 14) (size 15 to 20)
#    0.000    2.000    3.750    0.000    3.500    6.500 
#    0.000    0.000    0.000    0.000    0.000    1.750 
#    0.000    0.000    0.000    0.000    0.000    0.000 
#
# Total GULP energy -178302.272128 kJ/mol
# GULP energy per Si atom -5571.946004 kJ/mol
# Density = 1.948774 g / cm^3
# Si number density = 19.532194 Si / 1000 Ang^3
#
#
#
# Elastic Constant Matrix: (Units=GPa)
#
#
# Indices 1 2 3 4 5 6 
#
# 1 80.6184 5.1365 23.9659 0.0000 0.0000 0.0000
# 2 5.1365 93.7059 16.0996 0.0000 0.0000 0.0000
# 3 23.9659 16.0996 97.4788 0.0000 0.0000 0.0000
# 4 0.0000 0.0000 0.0000 28.0105 0.0000 0.0000
# 5 0.0000 0.0000 0.0000 0.0000 -3.7521 0.0000
# 6 0.0000 0.0000 0.0000 0.0000 0.0000 24.7434
#
#
#
# Elastic Compliance Matrix: (Units=1/GPa)
#
#
# Indices 1 2 3 4 5 6 
#
# 1 0.013385 -0.000173 -0.003262 0.000000 0.000000 0.000000
# 2 -0.000173 0.010986 -0.001772 0.000000 0.000000 0.000000
# 3 -0.003262 -0.001772 0.011353 0.000000 0.000000 0.000000
# 4 0.000000 0.000000 0.000000 0.035701 0.000000 0.000000
# 5 0.000000 0.000000 0.000000 0.000000 -0.266518 0.000000
# 6 0.000000 0.000000 0.000000 0.000000 0.000000 0.040415
#
#
# Mechanical properties :
#
#
# Convention : Reuss Voigt Hill
#
# Bulk Modulus (GPa) = 39.51098 40.24525 39.87812
# Shear Modulus (GPa) = -36.81144 24.90711 -5.95217
#
# Velocity S-wave (km/s) = -4.34597 3.57484 -1.74756
# Velocity P-wave (km/s) = 2.21602 6.13911 4.04833
#
# Compressibility (1/GPa) = 0.02530942
#
# Stress axis : x y z
#
# Youngs Moduli (GPa) = 74.71098 91.02828 88.08009
#
# Poissons Ratio (x) = 0.01577 0.28733
# Poissons Ratio (y) = 0.01294 0.15606
# Poissons Ratio (z) = 0.24372 0.16128
#
# Static dielectric constant tensor:
#      x y z
#    x 1.743010 0.000000 0.000000 
#    y 0.000000 2.487380 0.000000 
#    z 0.000000 0.000000 1.649480 
# 
# From -- ./inp_files/41074.got.cif
#   From: 2010.05.17/outbox.cif.g08.bks.cpg/sg68_21_cif.got.tgz:41074.got - 2010.06.03 18:57:09.
