data_PCOD9505821
_publ_section_title
;
Structure prediction by ZEFSAII (Michael W. Deem and Ramdas Pophale) SiO2 
 PCOD9505821
Probable space group: C C C A
;
_chemical_formula_sum "Si O2"
_cell_formula_units_Z 96
_cell_length_a 15.790919
_cell_length_b 11.920024
_cell_length_c 20.106342
_cell_angle_alpha 90.000000
_cell_angle_beta 90.000000
_cell_angle_gamma 90.000000
_cell_volume 3784.579225
_symmetry_space_group_name_H-M "C C C A"
_symmetry_group_IT_number 68
_space_group.IT_coordinate_system_code '2'
_symmetry_cell_setting 'orthorhombic'
loop_
_space_group_symop_operation_xyz
x,y,z
-x,1/2-y,z
x,1/2-y,1/2-z
-x,y,1/2-z
-x,-y,-z
x,1/2+y,-z
-x,1/2+y,1/2+z
x,-y,1/2+z
1/2+x,1/2+y,z
1/2-x,-y,z
1/2+x,-y,1/2-z
1/2-x,1/2+y,1/2-z
1/2-x,1/2-y,-z
1/2+x,y,-z
1/2-x,y,1/2+z
1/2+x,1/2-y,1/2+z
loop_
_atom_site_type_symbol
_atom_site_label
_atom_site_fract_x
_atom_site_fract_y
_atom_site_fract_z
Si Si1 0.687207 0.796719 0.942829
Si Si2 0.212019 0.295869 0.178800
Si Si3 0.250000 0.000000 0.489418
Si Si4 0.457321 0.861657 0.391801
Si Si5 0.000000 0.443018 0.250000
Si Si6 0.085094 0.098168 0.926485
Si Si7 0.118714 0.627305 0.220620
O O1 0.729563 0.782567 0.869724
O O2 0.598859 0.728837 0.950005
O O3 0.750000 0.750000 0.000000
O O4 0.689465 0.926251 0.962882
O O5 0.176827 0.250000 0.250000
O O6 0.140211 0.339645 0.129186
O O7 0.282436 0.381736 0.205211
O O8 0.182295 0.937664 0.443109
O O9 0.500000 0.750000 0.420764
O O10 0.496725 0.877519 0.318631
O O11 0.463522 0.977353 0.433928
O O12 0.081298 0.523543 0.259354
O O13 0.070321 0.118066 0.848917
O O14 0.104323 0.750000 0.250000
#
# Coordination Sequence:
#
# PCOD9505821 Si02
#       7
#    16  16   8  16   8  16  16
#     4   9  18  34  59  89 117 158 211 268 336 404
#     4  10  20  36  57  89 126 160 207 273 337 400
#     4  10  18  36  66  92 124 160 218 290 348 416
#     4  11  21  36  56  84 128 179 223 269 339 420
#     4  10  20  32  52  82 120 170 220 270 334 412
#     4   9  18  33  56  85 116 162 212 265 330 401
#     4   9  18  33  55  85 123 161 208 267 336 409
#
# _framework density 25.366095999999999
#
# number of rings (size 3 to 8) (size 9 to 14) (size 15 to 20)
#    0.000    2.333    0.000    4.500    0.000    3.333 
#    0.000   16.667    0.000    9.000    0.000   72.333 
#    0.000    0.000    0.000    0.000    0.000    0.000 
#
# Total GULP energy -267213.504487 kJ/mol
# GULP energy per Si atom -5566.948010 kJ/mol
# Density = 2.530836 g / cm^3
# Si number density = 25.366096 Si / 1000 Ang^3
#
#
#
# Elastic Constant Matrix: (Units=GPa)
#
#
# Indices 1 2 3 4 5 6 
#
# 1 75.2556 27.0582 28.0092 0.0000 0.0000 0.0000
# 2 27.0582 147.4456 41.2671 0.0000 0.0000 0.0000
# 3 28.0092 41.2671 122.9848 0.0000 0.0000 0.0000
# 4 0.0000 0.0000 0.0000 19.0730 0.0000 0.0000
# 5 0.0000 0.0000 0.0000 0.0000 36.2545 0.0000
# 6 0.0000 0.0000 0.0000 0.0000 0.0000 9.4861
#
#
#
# Elastic Compliance Matrix: (Units=1/GPa)
#
#
# Indices 1 2 3 4 5 6 
#
# 1 0.015028 -0.001986 -0.002756 0.000000 0.000000 0.000000
# 2 -0.001986 0.007748 -0.002147 0.000000 0.000000 0.000000
# 3 -0.002756 -0.002147 0.009479 0.000000 0.000000 0.000000
# 4 0.000000 0.000000 0.000000 0.052430 0.000000 0.000000
# 5 0.000000 0.000000 0.000000 0.000000 0.027583 0.000000
# 6 0.000000 0.000000 0.000000 0.000000 0.000000 0.105418
#
#
# Mechanical properties :
#
#
# Convention : Reuss Voigt Hill
#
# Bulk Modulus (GPa) = 54.12595 59.81722 56.97158
# Shear Modulus (GPa) = 21.04164 29.58614 25.31389
#
# Velocity S-wave (km/s) = 2.88326 3.41891 3.16245
# Velocity P-wave (km/s) = 5.69811 6.26243 5.98693
#
# Compressibility (1/GPa) = 0.01847543
#
# Stress axis : x y z
#
# Youngs Moduli (GPa) = 66.54222 129.07056 105.49336
#
# Poissons Ratio (x) = 0.25640 0.29074
# Poissons Ratio (y) = 0.13219 0.22653
# Poissons Ratio (z) = 0.18339 0.27715
#
# Static dielectric constant tensor:
#      x y z
#    x 2.055900 0.000000 0.000000 
#    y 0.000000 2.274260 0.000000 
#    z 0.000000 0.000000 1.967630 
# 
# From -- ./inp_files/46641.got.cif
#   From: 2010.05.17/outbox.cif.g08.bks.cpg/sg68_24_cif.got.tgz:46641.got - 2010.06.03 18:57:09.
