data_PCOD9505910
_publ_section_title
;
Structure prediction by ZEFSAII (Michael W. Deem and Ramdas Pophale) SiO2 
 PCOD9505910
Probable space group: C C C A
;
_chemical_formula_sum "Si O2"
_cell_formula_units_Z 92
_cell_length_a 17.520522
_cell_length_b 10.286785
_cell_length_c 23.198333
_cell_angle_alpha 90.000000
_cell_angle_beta 90.000000
_cell_angle_gamma 90.000000
_cell_volume 4181.031912
_symmetry_space_group_name_H-M "C C C A"
_symmetry_group_IT_number 68
_space_group.IT_coordinate_system_code '2'
_symmetry_cell_setting 'orthorhombic'
loop_
_space_group_symop_operation_xyz
x,y,z
-x,1/2-y,z
x,1/2-y,1/2-z
-x,y,1/2-z
-x,-y,-z
x,1/2+y,-z
-x,1/2+y,1/2+z
x,-y,1/2+z
1/2+x,1/2+y,z
1/2-x,-y,z
1/2+x,-y,1/2-z
1/2-x,1/2+y,1/2-z
1/2-x,1/2-y,-z
1/2+x,y,-z
1/2-x,y,1/2+z
1/2+x,1/2-y,1/2+z
loop_
_atom_site_type_symbol
_atom_site_label
_atom_site_fract_x
_atom_site_fract_y
_atom_site_fract_z
Si Si1 0.500000 0.250000 0.750000
Si Si2 0.940320 0.447830 0.161488
Si Si3 0.936018 0.851138 0.171353
Si Si4 0.581087 0.024383 0.969651
Si Si5 0.136756 0.267404 0.554941
Si Si6 0.208304 0.621764 0.356300
Si Si7 0.303300 0.750000 0.750000
O O1 0.556005 0.166979 0.792447
O O2 0.933210 0.414805 0.093756
O O3 0.874463 0.561599 0.163944
O O4 0.022581 0.512532 0.173219
O O5 0.920454 0.817978 0.104586
O O6 0.860159 0.834308 0.209148
O O7 0.000000 0.750000 0.190982
O O8 0.615068 0.878401 0.964829
O O9 0.632839 0.124948 0.005937
O O10 0.500000 0.000000 0.000000
O O11 0.208410 0.235307 0.596375
O O12 0.250000 0.500000 0.382682
O O13 0.243729 0.668260 0.296281
#
# Coordination Sequence:
#
# PCOD9505910 Si02
#       7
#     4  16  16  16  16  16   8
#     4  12  28  38  50  94 136 164 180 262 352 388
#     4  11  23  36  56  85 125 159 193 249 325 381
#     4  11  16  33  57  89 114 137 194 255 317 376
#     4  11  19  33  59  91 123 154 200 259 316 386
#     4  10  21  34  57  91 121 155 202 261 318 372
#     4  10  22  40  57  82 116 166 217 257 300 375
#     4  10  19  29  64  83 104 149 198 256 310 367
#
# _framework density 22.004137
#
# number of rings (size 3 to 8) (size 9 to 14) (size 15 to 20)
#    0.000    1.391    6.957    1.826    2.435    0.696 
#    0.000    3.478    0.000    0.000    0.000    2.435 
#    0.000    0.000    0.000    0.000    0.000    0.000 
#
# Total GULP energy -256145.341015 kJ/mol
# GULP energy per Si atom -5568.376979 kJ/mol
# Density = 2.195405 g / cm^3
# Si number density = 22.004137 Si / 1000 Ang^3
#
#
#
# Elastic Constant Matrix: (Units=GPa)
#
#
# Indices 1 2 3 4 5 6 
#
# 1 14.5066 4.8678 -5.0393 0.0000 0.0000 0.0000
# 2 4.8678 104.3743 64.8310 0.0000 0.0000 0.0000
# 3 -5.0393 64.8310 157.3452 0.0000 0.0000 0.0000
# 4 0.0000 0.0000 0.0000 58.5172 0.0000 0.0000
# 5 0.0000 0.0000 0.0000 0.0000 1.4323 0.0000
# 6 0.0000 0.0000 0.0000 0.0000 0.0000 25.3382
#
#
#
# Elastic Compliance Matrix: (Units=1/GPa)
#
#
# Indices 1 2 3 4 5 6 
#
# 1 0.072863 -0.006515 0.005018 0.000000 0.000000 0.000000
# 2 -0.006515 0.013459 -0.005754 0.000000 0.000000 0.000000
# 3 0.005018 -0.005754 0.008887 0.000000 0.000000 0.000000
# 4 0.000000 0.000000 0.000000 0.017089 0.000000 0.000000
# 5 0.000000 0.000000 0.000000 0.000000 0.698158 0.000000
# 6 0.000000 0.000000 0.000000 0.000000 0.000000 0.039466
#
#
# Mechanical properties :
#
#
# Convention : Reuss Voigt Hill
#
# Bulk Modulus (GPa) = 12.39050 45.06056 28.72553
# Shear Modulus (GPa) = 5.60961 31.16197 18.38579
#
# Velocity S-wave (km/s) = 1.59840 3.76731 2.89374
# Velocity P-wave (km/s) = 3.00827 6.28062 4.92422
#
# Compressibility (1/GPa) = 0.08070701
#
# Stress axis : x y z
#
# Youngs Moduli (GPa) = 13.72429 74.30046 112.52339
#
# Poissons Ratio (x) = 0.48408 -0.56465
# Poissons Ratio (y) = 0.08942 0.64747
# Poissons Ratio (z) = -0.06887 0.42753
#
# Static dielectric constant tensor:
#      x y z
#    x 1.893840 0.000000 0.000000 
#    y 0.000000 1.870630 0.000000 
#    z 0.000000 0.000000 1.869150 
# 
# From -- ./inp_files/46533.got.cif
#   From: 2010.05.17/outbox.cif.g08.bks.cpg/sg68_24_cif.got.tgz:46533.got - 2010.06.03 18:57:09.
