data_PCOD9505333
_publ_section_title
;
Structure prediction by ZEFSAII (Michael W. Deem and Ramdas Pophale) SiO2 
 PCOD9505333
Probable space group: C C C A
;
_chemical_formula_sum "Si O2"
_cell_formula_units_Z 56
_cell_length_a 34.150036
_cell_length_b 5.042079
_cell_length_c 14.291822
_cell_angle_alpha 90.000000
_cell_angle_beta 90.000000
_cell_angle_gamma 90.000000
_cell_volume 2460.868518
_symmetry_space_group_name_H-M "C C C A"
_symmetry_group_IT_number 68
_space_group.IT_coordinate_system_code '2'
_symmetry_cell_setting 'orthorhombic'
loop_
_space_group_symop_operation_xyz
x,y,z
-x,1/2-y,z
x,1/2-y,1/2-z
-x,y,1/2-z
-x,-y,-z
x,1/2+y,-z
-x,1/2+y,1/2+z
x,-y,1/2+z
1/2+x,1/2+y,z
1/2-x,-y,z
1/2+x,-y,1/2-z
1/2-x,1/2+y,1/2-z
1/2-x,1/2-y,-z
1/2+x,y,-z
1/2-x,y,1/2+z
1/2+x,1/2-y,1/2+z
loop_
_atom_site_type_symbol
_atom_site_label
_atom_site_fract_x
_atom_site_fract_y
_atom_site_fract_z
Si Si1 0.250000 0.000000 0.182418
Si Si2 0.542088 0.706801 0.061526
Si Si3 0.873404 0.249630 0.361851
Si Si4 0.327567 0.245403 0.135907
O O1 0.263009 0.750000 0.250000
O O2 0.215327 0.876148 0.120162
O O3 0.500000 0.750000 0.110075
O O4 0.581459 0.788431 0.113828
O O5 0.542403 0.402722 0.028278
O O6 0.870519 0.250000 0.250000
O O7 0.842094 0.468262 0.395567
O O8 0.859811 0.963597 0.396306
O O9 0.328058 0.250000 0.250000
#
# Coordination Sequence:
#
# PCOD9505333 Si02
#       4
#     8  16  16  16
#     4  10  16  26  44  70 106 142 170 204 256 306
#     4  10  21  37  55  75 100 133 173 211 252 311
#     4  10  19  32  51  77 105 131 166 213 259 300
#     4   9  17  28  45  73 105 134 165 207 254 299
#
# _framework density 22.756191999999999
#
# number of rings (size 3 to 8) (size 9 to 14) (size 15 to 20)
#    0.000    2.286    0.000    6.000    0.000    0.571 
#    0.000    0.000    0.000   10.286    0.000   20.000 
#    0.000    0.000    0.000    0.000    0.000    0.000 
#
# Total GULP energy -156228.708346 kJ/mol
# GULP energy per Si atom -5579.596727 kJ/mol
# Density = 2.270440 g / cm^3
# Si number density = 22.756192 Si / 1000 Ang^3
#
#
#
# Elastic Constant Matrix: (Units=GPa)
#
#
# Indices 1 2 3 4 5 6 
#
# 1 189.6665 33.9363 6.2527 0.0000 0.0000 0.0000
# 2 33.9363 107.1603 -11.3670 0.0000 0.0000 0.0000
# 3 6.2527 -11.3670 40.3892 0.0000 0.0000 0.0000
# 4 0.0000 0.0000 0.0000 -2.3801 0.0000 0.0000
# 5 0.0000 0.0000 0.0000 0.0000 129.0815 0.0000
# 6 0.0000 0.0000 0.0000 0.0000 0.0000 38.6568
#
#
#
# Elastic Compliance Matrix: (Units=1/GPa)
#
#
# Indices 1 2 3 4 5 6 
#
# 1 0.005668 -0.001946 -0.001425 0.000000 0.000000 0.000000
# 2 -0.001946 0.010287 0.003196 0.000000 0.000000 0.000000
# 3 -0.001425 0.003196 0.025879 0.000000 0.000000 0.000000
# 4 0.000000 0.000000 0.000000 -0.420149 0.000000 0.000000
# 5 0.000000 0.000000 0.000000 0.000000 0.007747 0.000000
# 6 0.000000 0.000000 0.000000 0.000000 0.000000 0.025869
#
#
# Mechanical properties :
#
#
# Convention : Reuss Voigt Hill
#
# Bulk Modulus (GPa) = 24.10523 43.87333 33.98928
# Shear Modulus (GPa) = -15.12759 53.63124 19.25182
#
# Velocity S-wave (km/s) = -2.58111 4.85993 2.91177
# Velocity P-wave (km/s) = 1.31643 7.12836 5.12574
#
# Compressibility (1/GPa) = 0.04148478
#
# Stress axis : x y z
#
# Youngs Moduli (GPa) = 176.44196 97.20858 38.64086
#
# Poissons Ratio (x) = 0.18917 0.05507
# Poissons Ratio (y) = 0.34336 -0.12351
# Poissons Ratio (z) = 0.25144 -0.31072
#
# Static dielectric constant tensor:
#      x y z
#    x 1.890750 0.000000 0.000000 
#    y 0.000000 1.840940 0.000000 
#    z 0.000000 0.000000 1.877400 
# 
# From -- ./inp_files/27085.got.cif
#   From: 2010.05.17/outbox.cif.g08.bks.cpg/sg68_14_cif.got.tgz:27085.got - 2010.06.03 18:57:09.
