data_PCOD9505215
_publ_section_title
;
Structure prediction by ZEFSAII (Michael W. Deem and Ramdas Pophale) SiO2 
 PCOD9505215
Probable space group: C M M A
;
_chemical_formula_sum "Si O2"
_cell_formula_units_Z 40
_cell_length_a 24.000000
_cell_length_b 15.000000
_cell_length_c 12.000000
_cell_angle_alpha 90.000000
_cell_angle_beta 90.000000
_cell_angle_gamma 90.000000
_cell_volume 4320.000000
_symmetry_space_group_name_H-M "C M M A"
_symmetry_group_IT_number 67
_symmetry_cell_setting 'orthorhombic'
loop_
_space_group_symop_operation_xyz
x,y,z
-x,1/2-y,z
x,-y,-z
-x,1/2+y,-z
-x,-y,-z
x,1/2+y,-z
-x,y,z
x,1/2-y,z
1/2+x,1/2+y,z
1/2-x,-y,z
1/2+x,1/2-y,-z
1/2-x,y,-z
1/2-x,1/2-y,-z
1/2+x,y,-z
1/2-x,1/2+y,z
1/2+x,-y,z
loop_
_atom_site_type_symbol
_atom_site_label
_atom_site_fract_x
_atom_site_fract_y
_atom_site_fract_z
Si Si1 0.933492 0.557776 0.394854
Si Si2 0.156524 0.250000 0.848676
Si Si3 0.566255 0.905187 0.232083
Si Si4 0.212530 0.750000 0.857905
Si Si5 0.639525 0.603319 0.020515
Si Si6 0.378716 0.250000 0.401715
Si Si7 0.637130 0.250000 0.653808
O O1 0.912124 0.500000 0.500000
O O2 0.919976 0.502092 0.283428
O O3 0.912889 0.658140 0.399003
O O4 0.000000 0.559899 0.403305
O O5 0.222185 0.250000 0.872782
O O6 0.152458 0.250000 0.716061
O O7 0.130876 0.162343 0.909088
O O8 0.500000 0.890379 0.240757
O O9 0.587230 0.896438 0.105405
O O10 0.599517 0.834059 0.307479
O O11 0.185624 0.838246 0.913418
O O12 0.191862 0.750000 0.730428
O O13 0.654556 0.500000 0.000000
O O14 0.349915 0.250000 0.523088
#
# Coordination Sequence:
#
# PCOD9505215 Si02
#       7
#    16   8  16   8  16   8   8
#     4  10  20  34  55  84 116 148 185 224 273 336
#     4  11  24  39  56  85 113 146 189 243 293 329
#     4  10  20  35  57  85 116 150 188 228 273 337
#     4   9  22  40  58  83 107 140 197 239 286 341
#     4  10  20  38  61  82 111 148 190 230 281 338
#     4  12  22  36  58  83 118 148 185 239 283 329
#     4  10  20  35  58  83 108 150 188 233 284 335
#
# _framework density 9.2592590000000001
#
# number of rings (size 3 to 8) (size 9 to 14) (size 15 to 20)
#    0.000    1.800    2.000    3.600    0.000    3.200 
#    0.000    2.000    0.000    0.000    0.000    0.000 
#    0.000    0.000    0.000    0.000    0.000    0.000 
#
# Total GULP energy -223023.216762 kJ/mol
# GULP energy per Si atom -5575.580419 kJ/mol
# Density = 0.923818 g / cm^3
# Si number density = 9.259259 Si / 1000 Ang^3
#
#
#
# Elastic Constant Matrix: (Units=GPa)
#
#
# Indices 1 2 3 4 5 6 
#
# 1 30.4986 14.5519 29.0670 0.0000 0.0000 0.0000
# 2 14.5519 142.9088 33.2272 0.0000 0.0000 0.0000
# 3 29.0670 33.2272 136.3285 0.0000 0.0000 0.0000
# 4 0.0000 0.0000 0.0000 27.9646 0.0000 0.0000
# 5 0.0000 0.0000 0.0000 0.0000 20.4168 0.0000
# 6 0.0000 0.0000 0.0000 0.0000 0.0000 7.0032
#
#
#
# Elastic Compliance Matrix: (Units=1/GPa)
#
#
# Indices 1 2 3 4 5 6 
#
# 1 0.041863 -0.002319 -0.008361 0.000000 0.000000 0.000000
# 2 -0.002319 0.007546 -0.001345 0.000000 0.000000 0.000000
# 3 -0.008361 -0.001345 0.009446 0.000000 0.000000 0.000000
# 4 0.000000 0.000000 0.000000 0.035760 0.000000 0.000000
# 5 0.000000 0.000000 0.000000 0.000000 0.048979 0.000000
# 6 0.000000 0.000000 0.000000 0.000000 0.000000 0.142793
#
#
# Mechanical properties :
#
#
# Convention : Reuss Voigt Hill
#
# Bulk Modulus (GPa) = 28.73048 51.49200 40.11124
# Shear Modulus (GPa) = 15.52618 26.60289 21.06454
#
# Velocity S-wave (km/s) = 2.89868 3.79430 3.37632
# Velocity P-wave (km/s) = 5.17216 6.86015 6.07507
#
# Compressibility (1/GPa) = 0.03480623
#
# Stress axis : x y z
#
# Youngs Moduli (GPa) = 23.88753 132.51580 105.86968
#
# Poissons Ratio (x) = 0.30729 0.88513
# Poissons Ratio (y) = 0.05539 0.14238
# Poissons Ratio (z) = 0.19971 0.17821
#
# Static dielectric constant tensor:
#      x y z
#    x 1.600710 0.000000 0.000000 
#    y 0.000000 1.635080 0.000000 
#    z 0.000000 0.000000 1.703310 
# 
# From -- ./inp_files/21707.got.cif
#   From: 2010.05.17/outbox.ucp.g08.bks.cvg/sg67_11_cif.got.tgz:21707.got - 2010.06.11 16:47:20.
