data_PCOD9505083
_publ_section_title
;
Structure prediction by ZEFSAII (Michael W. Deem and Ramdas Pophale) SiO2 
 PCOD9505083
Probable space group: C M M A
;
_chemical_formula_sum "Si O2"
_cell_formula_units_Z 88
_cell_length_a 19.240398
_cell_length_b 18.306574
_cell_length_c 12.457070
_cell_angle_alpha 90.000000
_cell_angle_beta 90.000000
_cell_angle_gamma 90.000000
_cell_volume 4387.701070
_symmetry_space_group_name_H-M "C M M A"
_symmetry_group_IT_number 67
_symmetry_cell_setting 'orthorhombic'
loop_
_space_group_symop_operation_xyz
x,y,z
-x,1/2-y,z
x,-y,-z
-x,1/2+y,-z
-x,-y,-z
x,1/2+y,-z
-x,y,z
x,1/2-y,z
1/2+x,1/2+y,z
1/2-x,-y,z
1/2+x,1/2-y,-z
1/2-x,y,-z
1/2-x,1/2-y,-z
1/2+x,y,-z
1/2-x,1/2+y,z
1/2+x,-y,z
loop_
_atom_site_type_symbol
_atom_site_label
_atom_site_fract_x
_atom_site_fract_y
_atom_site_fract_z
Si Si1 0.500000 0.443124 0.400565
Si Si2 0.854892 0.883485 0.671569
Si Si3 0.343370 0.167050 0.906410
Si Si4 0.500000 0.663520 0.430224
Si Si5 0.321618 0.664634 0.861400
Si Si6 0.250000 0.125645 0.500000
Si Si7 0.846057 0.949380 0.329460
O O1 0.500000 0.500000 0.500000
O O2 0.500000 0.360933 0.446367
O O3 0.429026 0.453751 0.338903
O O4 0.869563 0.864765 0.795317
O O5 0.796254 0.840757 0.599169
O O6 0.929061 0.870834 0.615879
O O7 0.825157 0.965905 0.678046
O O8 0.368086 0.250000 0.911749
O O9 0.260364 0.167314 0.886845
O O10 0.356124 0.137510 0.026409
O O11 0.500000 0.750000 0.413456
O O12 0.341967 0.750000 0.837744
O O13 0.330991 0.606723 0.766681
O O14 0.189949 0.081971 0.563420
#
# Coordination Sequence:
#
# PCOD9505083 Si02
#       7
#     8  16  16   8  16   8  16
#     4  12  22  44  61  81 130 177 198 246 324 373
#     4  12  22  39  62  91 124 159 205 257 308 374
#     4   9  19  38  60  85 125 164 199 258 319 363
#     4  12  26  42  61  87 121 169 214 243 299 382
#     4   9  20  38  59  88 123 161 205 255 317 374
#     4  12  23  36  61  96 125 156 201 254 317 370
#     4  12  22  38  64  90 124 164 205 256 313 378
#
# _framework density 20.056062000000001
#
# number of rings (size 3 to 8) (size 9 to 14) (size 15 to 20)
#    0.000    1.091    5.455    3.273    0.000    1.455 
#    0.000    5.000    0.000    4.364    0.000    0.000 
#    0.000    0.000    0.000    0.000    0.000    0.000 
#
# Total GULP energy -244987.049889 kJ/mol
# GULP energy per Si atom -5567.887497 kJ/mol
# Density = 2.001041 g / cm^3
# Si number density = 20.056062 Si / 1000 Ang^3
#
#
#
# Elastic Constant Matrix: (Units=GPa)
#
#
# Indices 1 2 3 4 5 6 
#
# 1 65.1135 6.0216 -1.6214 0.0000 0.0000 0.0000
# 2 6.0216 81.2971 43.4818 0.0000 0.0000 0.0000
# 3 -1.6214 43.4818 113.5395 0.0000 0.0000 0.0000
# 4 0.0000 0.0000 0.0000 23.3411 0.0000 0.0000
# 5 0.0000 0.0000 0.0000 0.0000 10.8668 0.0000
# 6 0.0000 0.0000 0.0000 0.0000 0.0000 12.4645
#
#
#
# Elastic Compliance Matrix: (Units=1/GPa)
#
#
# Indices 1 2 3 4 5 6 
#
# 1 0.015526 -0.001595 0.000833 0.000000 0.000000 0.000000
# 2 -0.001595 0.015633 -0.006010 0.000000 0.000000 0.000000
# 3 0.000833 -0.006010 0.011121 0.000000 0.000000 0.000000
# 4 0.000000 0.000000 0.000000 0.042843 0.000000 0.000000
# 5 0.000000 0.000000 0.000000 0.000000 0.092023 0.000000
# 6 0.000000 0.000000 0.000000 0.000000 0.000000 0.080228
#
#
# Mechanical properties :
#
#
# Convention : Reuss Voigt Hill
#
# Bulk Modulus (GPa) = 34.80043 39.52376 37.16210
# Shear Modulus (GPa) = 17.82549 23.47236 20.64893
#
# Velocity S-wave (km/s) = 2.98448 3.42473 3.21216
# Velocity P-wave (km/s) = 5.40975 5.94876 5.68565
#
# Compressibility (1/GPa) = 0.02873527
#
# Stress axis : x y z
#
# Youngs Moduli (GPa) = 64.40779 63.96716 89.92074
#
# Poissons Ratio (x) = 0.10205 -0.07488
# Poissons Ratio (y) = 0.10275 0.54040
# Poissons Ratio (z) = -0.05363 0.38442
#
# Static dielectric constant tensor:
#      x y z
#    x 1.735900 0.000000 0.000000 
#    y 0.000000 1.765470 0.000000 
#    z 0.000000 0.000000 1.817250 
# 
# From -- ./inp_files/20708.got.cif
#   From: 2010.05.17/outbox.cif.g08.bks.cpg/sg67_11_cif.got.tgz:20708.got - 2010.06.03 18:28:57.
