data_PCOD9505289
_publ_section_title
;
Structure prediction by ZEFSAII (Michael W. Deem and Ramdas Pophale) SiO2 
 PCOD9505289
Probable space group: C M M A
;
_chemical_formula_sum "Si O2"
_cell_formula_units_Z 44
_cell_length_a 15.000000
_cell_length_b 24.000000
_cell_length_c 12.000000
_cell_angle_alpha 90.000000
_cell_angle_beta 90.000000
_cell_angle_gamma 90.000000
_cell_volume 4320.000000
_symmetry_space_group_name_H-M "C M M A"
_symmetry_group_IT_number 67
_symmetry_cell_setting 'orthorhombic'
loop_
_space_group_symop_operation_xyz
x,y,z
-x,1/2-y,z
x,-y,-z
-x,1/2+y,-z
-x,-y,-z
x,1/2+y,-z
-x,y,z
x,1/2-y,z
1/2+x,1/2+y,z
1/2-x,-y,z
1/2+x,1/2-y,-z
1/2-x,y,-z
1/2-x,1/2-y,-z
1/2+x,y,-z
1/2-x,1/2+y,z
1/2+x,-y,z
loop_
_atom_site_type_symbol
_atom_site_label
_atom_site_fract_x
_atom_site_fract_y
_atom_site_fract_z
Si Si1 0.604164 0.643988 0.466891
Si Si2 0.000000 0.004713 0.207580
Si Si3 0.345691 0.684260 0.709952
Si Si4 0.152898 0.973763 0.614696
Si Si5 0.500000 0.380475 0.897208
Si Si6 0.000000 0.124386 0.845669
Si Si7 0.641208 0.311714 0.762312
O O1 0.500000 0.629556 0.486969
O O2 0.646011 0.664532 0.581821
O O3 0.654954 0.591148 0.414921
O O4 0.608914 0.687228 0.365876
O O5 0.913990 0.014431 0.285708
O O6 0.000000 0.052984 0.115623
O O7 0.000000 0.942103 0.165568
O O8 0.367510 0.750000 0.713068
O O9 0.414864 0.649724 0.783032
O O10 0.246332 0.677012 0.756627
O O11 0.117236 0.000000 0.500000
O O12 0.250000 0.000000 0.635182
O O13 0.585044 0.355907 0.831799
O O14 0.500000 0.361618 0.024207
O O15 0.625841 0.250000 0.809308
#
# Coordination Sequence:
#
# PCOD9505289 Si02
#       7
#    16   8  16  16   8   8  16
#     4  12  22  40  67 103 142 175 222 270 336 410
#     4  12  24  46  65  96 131 176 231 277 338 406
#     4  11  26  45  68 102 140 180 225 273 336 409
#     4  11  24  36  62  99 139 181 217 264 330 403
#     4  12  26  48  70  97 131 175 233 295 338 394
#     4  12  28  44  71  95 132 182 231 288 344 387
#     4  11  24  43  70 100 135 179 223 275 338 404
#
# _framework density 10.185185000000001
#
# number of rings (size 3 to 8) (size 9 to 14) (size 15 to 20)
#    0.000    0.545    4.545    3.273    7.636    4.364 
#    0.000    1.818    0.000    3.273    0.000    0.000 
#    0.000    0.000    0.000    0.000    0.000    0.000 
#
# Total GULP energy -246145.342989 kJ/mol
# GULP energy per Si atom -5594.212341 kJ/mol
# Density = 1.016200 g / cm^3
# Si number density = 10.185185 Si / 1000 Ang^3
#
#
#
# Elastic Constant Matrix: (Units=GPa)
#
#
# Indices 1 2 3 4 5 6 
#
# 1 105.2228 64.6267 32.6303 0.0000 0.0000 0.0000
# 2 64.6267 148.7437 38.9684 0.0000 0.0000 0.0000
# 3 32.6303 38.9684 118.9899 0.0000 0.0000 0.0000
# 4 0.0000 0.0000 0.0000 5.9082 0.0000 0.0000
# 5 0.0000 0.0000 0.0000 0.0000 -11.4849 0.0000
# 6 0.0000 0.0000 0.0000 0.0000 0.0000 48.0048
#
#
#
# Elastic Compliance Matrix: (Units=1/GPa)
#
#
# Indices 1 2 3 4 5 6 
#
# 1 0.013355 -0.005298 -0.001927 0.000000 0.000000 0.000000
# 2 -0.005298 0.009455 -0.001644 0.000000 0.000000 0.000000
# 3 -0.001927 -0.001644 0.009471 0.000000 0.000000 0.000000
# 4 0.000000 0.000000 0.000000 0.169257 0.000000 0.000000
# 5 0.000000 0.000000 0.000000 0.000000 -0.087071 0.000000
# 6 0.000000 0.000000 0.000000 0.000000 0.000000 0.020831
#
#
# Mechanical properties :
#
#
# Convention : Reuss Voigt Hill
#
# Bulk Modulus (GPa) = 68.75811 71.71192 70.23501
# Shear Modulus (GPa) = 31.66884 24.26769 27.96827
#
# Velocity S-wave (km/s) = 3.94719 3.45530 3.70940
# Velocity P-wave (km/s) = 7.38925 7.15536 7.27325
#
# Compressibility (1/GPa) = 0.01454374
#
# Stress axis : x y z
#
# Youngs Moduli (GPa) = 74.87783 105.76018 105.58597
#
# Poissons Ratio (x) = 0.56028 0.20351
# Poissons Ratio (y) = 0.39667 0.17356
# Poissons Ratio (z) = 0.14432 0.17385
#
# Static dielectric constant tensor:
#      x y z
#    x 1.720000 0.000000 0.000000 
#    y 0.000000 1.813070 0.000000 
#    z 0.000000 0.000000 1.685220 
# 
# From -- ./inp_files/18169.got.cif
#   From: 2010.05.17/outbox.ucp.g08.bks.cvg/sg67_10_cif.got.tgz:18169.got - 2010.06.11 16:47:20.
