data_PCOD9505995
_publ_section_title
;
Structure prediction by ZEFSAII (Michael W. Deem and Ramdas Pophale) SiO2 
 PCOD9505995
Probable space group: C C C A
;
_chemical_formula_sum "Si O2"
_cell_formula_units_Z 112
_cell_length_a 4.984797
_cell_length_b 32.815923
_cell_length_c 31.578512
_cell_angle_alpha 90.000000
_cell_angle_beta 90.000000
_cell_angle_gamma 90.000000
_cell_volume 5165.635557
_symmetry_space_group_name_H-M "C C C A"
_symmetry_group_IT_number 68
_space_group.IT_coordinate_system_code '2'
_symmetry_cell_setting 'orthorhombic'
loop_
_space_group_symop_operation_xyz
x,y,z
-x,1/2-y,z
x,1/2-y,1/2-z
-x,y,1/2-z
-x,-y,-z
x,1/2+y,-z
-x,1/2+y,1/2+z
x,-y,1/2+z
1/2+x,1/2+y,z
1/2-x,-y,z
1/2+x,-y,1/2-z
1/2-x,1/2+y,1/2-z
1/2-x,1/2-y,-z
1/2+x,y,-z
1/2-x,y,1/2+z
1/2+x,1/2-y,1/2+z
loop_
_atom_site_type_symbol
_atom_site_label
_atom_site_fract_x
_atom_site_fract_y
_atom_site_fract_z
Si Si1 0.748162 0.722615 0.101492
Si Si2 0.727284 0.663485 0.526118
Si Si3 0.172294 0.649589 0.841018
Si Si4 0.866968 0.937917 0.879006
Si Si5 0.812653 0.934077 0.472109
Si Si6 0.856117 0.541463 0.325560
Si Si7 0.326154 0.628820 0.709065
O O1 0.500000 0.750000 0.086415
O O2 0.846379 0.691679 0.065187
O O3 0.636928 0.693099 0.137960
O O4 0.000000 0.750000 0.114834
O O5 0.531257 0.672273 0.487007
O O6 0.692526 0.615246 0.533507
O O7 0.115587 0.611125 0.871870
O O8 0.482443 0.644217 0.828723
O O9 0.971399 0.644376 0.801194
O O10 0.771906 0.949392 0.925864
O O11 0.654658 0.954793 0.844362
O O12 0.158745 0.953425 0.866001
O O13 0.599294 0.945180 0.508601
O O14 0.750000 0.500000 0.304999
O O15 0.812191 0.579897 0.295063
O O16 0.500000 0.640010 0.750000
#
# Coordination Sequence:
#
# PCOD9505995 Si02
#       7
#    16  16  16  16  16  16  16
#     4  12  24  37  57  83 119 160 198 247 302 344
#     4  10  21  35  52  78 116 154 197 248 303 351
#     4  10  21  39  59  86 116 149 200 236 276 353
#     4  10  19  36  59  79 113 158 197 238 282 337
#     4  10  19  32  54  80 107 147 204 255 289 326
#     4  10  21  36  59  90 121 149 182 225 288 357
#     4  10  21  39  66  91 116 149 184 228 287 344
#
# _framework density 21.681744999999999
#
# number of rings (size 3 to 8) (size 9 to 14) (size 15 to 20)
#    0.000    1.714    1.429    3.429    0.000    1.714 
#    0.000    4.286    0.000   15.000    0.000    0.000 
#    0.000    0.000    0.000    0.000    0.000    0.000 
#
# Total GULP energy -312762.764266 kJ/mol
# GULP energy per Si atom -5585.049362 kJ/mol
# Density = 2.163240 g / cm^3
# Si number density = 21.681745 Si / 1000 Ang^3
#
#
#
# Elastic Constant Matrix: (Units=GPa)
#
#
# Indices 1 2 3 4 5 6 
#
# 1 83.1174 12.3108 -8.2472 0.0000 0.0000 0.0000
# 2 12.3108 54.2086 2.7471 0.0000 0.0000 0.0000
# 3 -8.2472 2.7471 31.7961 0.0000 0.0000 0.0000
# 4 0.0000 0.0000 0.0000 -5.8707 0.0000 0.0000
# 5 0.0000 0.0000 0.0000 0.0000 9.6906 0.0000
# 6 0.0000 0.0000 0.0000 0.0000 0.0000 17.6992
#
#
#
# Elastic Compliance Matrix: (Units=1/GPa)
#
#
# Indices 1 2 3 4 5 6 
#
# 1 0.012848 -0.003100 0.003600 0.000000 0.000000 0.000000
# 2 -0.003100 0.019276 -0.002470 0.000000 0.000000 0.000000
# 3 0.003600 -0.002470 0.032598 0.000000 0.000000 0.000000
# 4 0.000000 0.000000 0.000000 -0.170337 0.000000 0.000000
# 5 0.000000 0.000000 0.000000 0.000000 0.103193 0.000000
# 6 0.000000 0.000000 0.000000 0.000000 0.000000 0.056500
#
#
# Mechanical properties :
#
#
# Convention : Reuss Voigt Hill
#
# Bulk Modulus (GPa) = 16.45208 20.30486 18.37847
# Shear Modulus (GPa) = 63.87620 15.12458 39.50039
#
# Velocity S-wave (km/s) = 5.43367 2.64402 4.27292
# Velocity P-wave (km/s) = 6.85353 4.32509 5.73050
#
# Compressibility (1/GPa) = 0.06078259
#
# Stress axis : x y z
#
# Youngs Moduli (GPa) = 77.83575 51.87678 30.67716
#
# Poissons Ratio (x) = 0.16083 -0.11044
# Poissons Ratio (y) = 0.24130 0.07576
# Poissons Ratio (z) = -0.28022 0.12811
#
# Static dielectric constant tensor:
#      x y z
#    x 1.747080 0.000000 0.000000 
#    y 0.000000 1.822400 0.000000 
#    z 0.000000 0.000000 1.810590 
# 
# From -- ./inp_files/53507.got.cif
#   From: 2010.05.17/outbox.cif.g08.bks.cpg/sg68_27_cif.got.tgz:53507.got - 2010.06.03 18:57:09.
