data_PCOD9505846
_publ_section_title
;
Structure prediction by ZEFSAII (Michael W. Deem and Ramdas Pophale) SiO2 
 PCOD9505846
Probable space group: C C C A
;
_chemical_formula_sum "Si O2"
_cell_formula_units_Z 120
_cell_length_a 20.472548
_cell_length_b 29.709189
_cell_length_c 10.048707
_cell_angle_alpha 90.000000
_cell_angle_beta 90.000000
_cell_angle_gamma 90.000000
_cell_volume 6111.852686
_symmetry_space_group_name_H-M "C C C A"
_symmetry_group_IT_number 68
_space_group.IT_coordinate_system_code '2'
_symmetry_cell_setting 'orthorhombic'
loop_
_space_group_symop_operation_xyz
x,y,z
-x,1/2-y,z
x,1/2-y,1/2-z
-x,y,1/2-z
-x,-y,-z
x,1/2+y,-z
-x,1/2+y,1/2+z
x,-y,1/2+z
1/2+x,1/2+y,z
1/2-x,-y,z
1/2+x,-y,1/2-z
1/2-x,1/2+y,1/2-z
1/2-x,1/2-y,-z
1/2+x,y,-z
1/2-x,y,1/2+z
1/2+x,1/2-y,1/2+z
loop_
_atom_site_type_symbol
_atom_site_label
_atom_site_fract_x
_atom_site_fract_y
_atom_site_fract_z
Si Si1 0.075476 0.960874 0.402991
Si Si2 0.770647 0.603754 0.161687
Si Si3 0.784988 0.804155 0.847044
Si Si4 0.826581 0.719456 0.947603
Si Si5 0.035881 0.439875 0.119968
Si Si6 0.096100 0.638639 0.457975
Si Si7 0.500000 0.889274 0.750000
Si Si8 0.225085 0.548558 0.074582
O O1 0.020556 0.951696 0.513529
O O2 0.148133 0.954214 0.453875
O O3 0.057196 0.923864 0.293071
O O4 0.069160 0.011940 0.350513
O O5 0.717144 0.642507 0.131837
O O6 0.840697 0.626014 0.130898
O O7 0.764570 0.585110 0.309749
O O8 0.761714 0.563600 0.057930
O O9 0.839198 0.772079 0.915746
O O10 0.789344 0.796603 0.688087
O O11 0.720055 0.786000 0.923308
O O12 0.886012 0.685363 0.970652
O O13 0.000000 0.422192 0.250000
O O14 0.083707 0.402713 0.059108
O O15 0.031401 0.639743 0.367244
O O16 0.250000 0.500000 0.120283
#
# Coordination Sequence:
#
# PCOD9505846 Si02
#       8
#    16  16  16  16  16  16   8  16
#     4  10  21  36  54  76 110 165 210 253 304 354
#     4  11  22  38  55  86 125 166 201 244 315 379
#     4   9  18  34  57  86 128 155 194 246 308 389
#     4   9  18  34  58  91 124 151 197 256 318 371
#     4  10  21  35  56  81 111 154 221 263 293 363
#     4  10  20  35  60  84 119 159 205 264 308 368
#     4  10  18  38  58  78 111 166 216 255 298 358
#     4  12  25  37  55  85 130 169 200 252 311 368
#
# _framework density 19.633982
#
# number of rings (size 3 to 8) (size 9 to 14) (size 15 to 20)
#    0.000    1.867    2.000    2.800    0.000    4.267 
#    0.000    0.000    0.000    0.000    0.000   14.000 
#    0.000    0.000    0.000    0.000    0.000    0.000 
#
# Total GULP energy -334471.804687 kJ/mol
# GULP energy per Si atom -5574.530078 kJ/mol
# Density = 1.958929 g / cm^3
# Si number density = 19.633982 Si / 1000 Ang^3
#
#
#
# Elastic Constant Matrix: (Units=GPa)
#
#
# Indices 1 2 3 4 5 6 
#
# 1 45.1506 29.9272 0.4680 0.0000 0.0000 0.0000
# 2 29.9272 113.7972 18.6832 0.0000 0.0000 0.0000
# 3 0.4680 18.6832 64.2175 0.0000 0.0000 0.0000
# 4 0.0000 0.0000 0.0000 11.3657 0.0000 0.0000
# 5 0.0000 0.0000 0.0000 0.0000 12.0969 0.0000
# 6 0.0000 0.0000 0.0000 0.0000 0.0000 33.7983
#
#
#
# Elastic Compliance Matrix: (Units=1/GPa)
#
#
# Indices 1 2 3 4 5 6 
#
# 1 0.027059 -0.007439 0.001967 0.000000 0.000000 0.000000
# 2 -0.007439 0.011274 -0.003226 0.000000 0.000000 0.000000
# 3 0.001967 -0.003226 0.016496 0.000000 0.000000 0.000000
# 4 0.000000 0.000000 0.000000 0.087984 0.000000 0.000000
# 5 0.000000 0.000000 0.000000 0.000000 0.082666 0.000000
# 6 0.000000 0.000000 0.000000 0.000000 0.000000 0.029587
#
#
# Mechanical properties :
#
#
# Convention : Reuss Voigt Hill
#
# Bulk Modulus (GPa) = 26.71436 35.70247 31.20842
# Shear Modulus (GPa) = 17.54769 23.05798 20.30283
#
# Velocity S-wave (km/s) = 2.99279 3.43066 3.21918
# Velocity P-wave (km/s) = 5.05748 5.82375 5.45409
#
# Compressibility (1/GPa) = 0.03743305
#
# Stress axis : x y z
#
# Youngs Moduli (GPa) = 36.95693 88.70351 60.62002
#
# Poissons Ratio (x) = 0.65987 -0.11924
# Poissons Ratio (y) = 0.27492 0.19554
# Poissons Ratio (z) = -0.07270 0.28613
#
# Static dielectric constant tensor:
#      x y z
#    x 1.703030 0.000000 0.000000 
#    y 0.000000 1.733800 0.000000 
#    z 0.000000 0.000000 1.711070 
# 
# From -- ./inp_files/15892.got.cif
#   From: 2010.05.17/outbox.cif.g08.bks.cpg/sg68_8_cif.got.tgz:15892.got - 2010.06.03 18:57:09.
