data_PCOD9505175
_publ_section_title
;
Structure prediction by ZEFSAII (Michael W. Deem and Ramdas Pophale) SiO2 
 PCOD9505175
Probable space group: C M M A
;
_chemical_formula_sum "Si O2"
_cell_formula_units_Z 40
_cell_length_a 18.000000
_cell_length_b 9.000000
_cell_length_c 27.000000
_cell_angle_alpha 90.000000
_cell_angle_beta 90.000000
_cell_angle_gamma 90.000000
_cell_volume 4374.000000
_symmetry_space_group_name_H-M "C M M A"
_symmetry_group_IT_number 67
_symmetry_cell_setting 'orthorhombic'
loop_
_space_group_symop_operation_xyz
x,y,z
-x,1/2-y,z
x,-y,-z
-x,1/2+y,-z
-x,-y,-z
x,1/2+y,-z
-x,y,z
x,1/2-y,z
1/2+x,1/2+y,z
1/2-x,-y,z
1/2+x,1/2-y,-z
1/2-x,y,-z
1/2-x,1/2-y,-z
1/2+x,y,-z
1/2-x,1/2+y,z
1/2+x,-y,z
loop_
_atom_site_type_symbol
_atom_site_label
_atom_site_fract_x
_atom_site_fract_y
_atom_site_fract_z
Si Si1 0.588400 0.422865 0.859545
Si Si2 0.168400 0.072313 0.243839
Si Si3 0.331425 0.072787 0.050446
Si Si4 0.167350 0.572041 0.451255
Si Si5 0.167484 0.071984 0.657669
O O1 0.500000 0.434917 0.857594
O O2 0.607825 0.250000 0.870949
O O3 0.622668 0.457520 0.805899
O O4 0.621237 0.526451 0.902079
O O5 0.175215 0.250000 0.250225
O O6 0.250000 0.000000 0.237860
O O7 0.132974 0.000956 0.293385
O O8 0.325641 0.250000 0.045347
O O9 0.250000 0.000000 0.056775
O O10 0.362791 0.000000 0.000000
O O11 0.130920 0.500000 0.500000
O O12 0.173433 0.750000 0.457232
O O13 0.250000 0.500000 0.449274
O O14 0.133388 0.542536 0.396781
O O15 0.173138 0.250000 0.663441
O O16 0.250000 0.000000 0.656225
#
# Coordination Sequence:
#
# PCOD9505175 Si02
#       5
#    16  16  16  16  16
#     4  10  22  39  56  77 107 139 172 212 256 302
#     4  10  19  31  50  72  95 128 166 206 250 295
#     4  11  22  38  61  86 111 140 174 210 250 296
#     4   9  15  21  31  49  76 112 149 187 234 286
#     4   9  16  25  38  58  85 117 155 198 241 289
#
# _framework density 9.1449470000000002
#
# number of rings (size 3 to 8) (size 9 to 14) (size 15 to 20)
#    0.000    2.200    0.000    6.600    0.000    6.400 
#    0.000    0.000    0.000    0.000    0.000    0.000 
#    0.000    0.800    0.000    1.800    0.000    8.200 
#
# Total GULP energy -223001.395008 kJ/mol
# GULP energy per Si atom -5575.034875 kJ/mol
# Density = 0.912413 g / cm^3
# Si number density = 9.144947 Si / 1000 Ang^3
#
#
#
# Elastic Constant Matrix: (Units=GPa)
#
#
# Indices 1 2 3 4 5 6 
#
# 1 18.8644 24.2909 34.9360 0.0000 0.0000 0.0000
# 2 24.2909 135.4185 92.9567 0.0000 0.0000 0.0000
# 3 34.9360 92.9567 189.2847 0.0000 0.0000 0.0000
# 4 0.0000 0.0000 0.0000 39.6208 0.0000 0.0000
# 5 0.0000 0.0000 0.0000 0.0000 -7.4312 0.0000
# 6 0.0000 0.0000 0.0000 0.0000 0.0000 11.9260
#
#
#
# Elastic Compliance Matrix: (Units=1/GPa)
#
#
# Indices 1 2 3 4 5 6 
#
# 1 0.084392 -0.006707 -0.012282 0.000000 0.000000 0.000000
# 2 -0.006707 0.011673 -0.004495 0.000000 0.000000 0.000000
# 3 -0.012282 -0.004495 0.009757 0.000000 0.000000 0.000000
# 4 0.000000 0.000000 0.000000 0.025239 0.000000 0.000000
# 5 0.000000 0.000000 0.000000 0.000000 -0.134569 0.000000
# 6 0.000000 0.000000 0.000000 0.000000 0.000000 0.083850
#
#
# Mechanical properties :
#
#
# Convention : Reuss Voigt Hill
#
# Bulk Modulus (GPa) = 16.99099 71.99277 44.49188
# Shear Modulus (GPa) = 34.02984 21.58206 27.80595
#
# Velocity S-wave (km/s) = 4.31813 3.43884 3.90332
# Velocity P-wave (km/s) = 5.84565 7.43068 6.68530
#
# Compressibility (1/GPa) = 0.05885472
#
# Stress axis : x y z
#
# Youngs Moduli (GPa) = 11.84939 85.66895 102.48751
#
# Poissons Ratio (x) = 0.57457 1.25880
# Poissons Ratio (y) = 0.07947 0.46064
# Poissons Ratio (z) = 0.14554 0.38505
#
# Static dielectric constant tensor:
#      x y z
#    x 1.591690 0.000000 0.000000 
#    y 0.000000 1.615460 0.000000 
#    z 0.000000 0.000000 1.701800 
# 
# From -- ./inp_files/44427.got.cif
#   From: 2010.05.17/outbox.ucp.g08.bks.cvg/sg67_23_cif.got.tgz:44427.got - 2010.06.11 16:47:20.
