data_PCOD9505682
_publ_section_title
;
Structure prediction by ZEFSAII (Michael W. Deem and Ramdas Pophale) SiO2 
 PCOD9505682
Probable space group: C C C A
;
_chemical_formula_sum "Si O2"
_cell_formula_units_Z 128
_cell_length_a 26.127127
_cell_length_b 11.283323
_cell_length_c 22.718039
_cell_angle_alpha 90.000000
_cell_angle_beta 90.000000
_cell_angle_gamma 90.000000
_cell_volume 6697.296367
_symmetry_space_group_name_H-M "C C C A"
_symmetry_group_IT_number 68
_space_group.IT_coordinate_system_code '2'
_symmetry_cell_setting 'orthorhombic'
loop_
_space_group_symop_operation_xyz
x,y,z
-x,1/2-y,z
x,1/2-y,1/2-z
-x,y,1/2-z
-x,-y,-z
x,1/2+y,-z
-x,1/2+y,1/2+z
x,-y,1/2+z
1/2+x,1/2+y,z
1/2-x,-y,z
1/2+x,-y,1/2-z
1/2-x,1/2+y,1/2-z
1/2-x,1/2-y,-z
1/2+x,y,-z
1/2-x,y,1/2+z
1/2+x,1/2-y,1/2+z
loop_
_atom_site_type_symbol
_atom_site_label
_atom_site_fract_x
_atom_site_fract_y
_atom_site_fract_z
Si Si1 0.360330 0.792457 0.063113
Si Si2 0.191940 0.476725 0.883984
Si Si3 0.892536 0.405971 0.701657
Si Si4 0.010293 0.043957 0.186166
Si Si5 0.200636 0.583704 0.516627
Si Si6 0.399528 0.560522 0.544576
Si Si7 0.576797 0.855844 0.675115
Si Si8 0.460436 0.342164 0.572430
O O1 0.337624 0.901709 0.099334
O O2 0.311286 0.712657 0.043860
O O3 0.406312 0.716860 0.091780
O O4 0.390818 0.842784 0.005922
O O5 0.250000 0.500000 0.865534
O O6 0.159558 0.412488 0.834125
O O7 0.194585 0.406727 0.946000
O O8 0.930511 0.510479 0.682241
O O9 0.920979 0.283879 0.684935
O O10 0.887493 0.407351 0.772371
O O11 0.000000 0.100339 0.250000
O O12 0.990132 0.115299 0.130620
O O13 0.976711 0.922512 0.186083
O O14 0.250000 0.500000 0.527111
O O15 0.153576 0.509158 0.541793
O O16 0.407603 0.614916 0.608767
O O17 0.443268 0.459316 0.535916
O O18 0.500000 0.250000 0.542546
#
# Coordination Sequence:
#
# PCOD9505682 Si02
#       8
#    16  16  16  16  16  16  16  16
#     4  10  20  36  55  78 109 141 178 225 274 327
#     4  10  21  34  53  79 107 140 178 219 268 323
#     4  10  18  32  54  78 107 140 176 223 271 317
#     4   9  18  33  54  79 104 135 177 220 265 321
#     4   9  19  34  55  79 102 136 180 226 271 319
#     4   9  19  34  51  75 104 137 179 220 266 324
#     4   9  18  32  54  79 104 136 175 221 272 325
#     4  10  20  34  51  75 107 139 175 217 268 326
#
# _framework density 19.112189000000001
#
# number of rings (size 3 to 8) (size 9 to 14) (size 15 to 20)
#    0.000    2.500    0.000    1.875    0.000    7.750 
#    0.000    8.125    0.000    9.750    0.000    0.000 
#    0.000    0.000    0.000    0.000    0.000    0.000 
#
# Total GULP energy -356557.954450 kJ/mol
# GULP energy per Si atom -5571.218038 kJ/mol
# Density = 1.906869 g / cm^3
# Si number density = 19.112189 Si / 1000 Ang^3
#
#
#
# Elastic Constant Matrix: (Units=GPa)
#
#
# Indices 1 2 3 4 5 6 
#
# 1 83.9028 18.6005 33.3650 0.0000 0.0000 0.0000
# 2 18.6005 58.5102 18.3358 0.0000 0.0000 0.0000
# 3 33.3650 18.3358 48.6361 0.0000 0.0000 0.0000
# 4 0.0000 0.0000 0.0000 10.0364 0.0000 0.0000
# 5 0.0000 0.0000 0.0000 0.0000 27.6109 0.0000
# 6 0.0000 0.0000 0.0000 0.0000 0.0000 23.2842
#
#
#
# Elastic Compliance Matrix: (Units=1/GPa)
#
#
# Indices 1 2 3 4 5 6 
#
# 1 0.016581 -0.001935 -0.010645 0.000000 0.000000 0.000000
# 2 -0.001935 0.019607 -0.006064 0.000000 0.000000 0.000000
# 3 -0.010645 -0.006064 0.030150 0.000000 0.000000 0.000000
# 4 0.000000 0.000000 0.000000 0.099637 0.000000 0.000000
# 5 0.000000 0.000000 0.000000 0.000000 0.036218 0.000000
# 6 0.000000 0.000000 0.000000 0.000000 0.000000 0.042948
#
#
# Mechanical properties :
#
#
# Convention : Reuss Voigt Hill
#
# Bulk Modulus (GPa) = 34.42539 36.85020 35.63779
# Shear Modulus (GPa) = 17.11678 20.23614 18.67646
#
# Velocity S-wave (km/s) = 2.99590 3.25746 3.12941
# Velocity P-wave (km/s) = 5.47892 5.78541 5.63425
#
# Compressibility (1/GPa) = 0.02904833
#
# Stress axis : x y z
#
# Youngs Moduli (GPa) = 60.31108 51.00330 33.16780
#
# Poissons Ratio (x) = 0.09870 0.35307
# Poissons Ratio (y) = 0.11671 0.20114
# Poissons Ratio (z) = 0.64201 0.30929
#
# Static dielectric constant tensor:
#      x y z
#    x 1.654390 0.000000 0.000000 
#    y 0.000000 1.746570 0.000000 
#    z 0.000000 0.000000 1.686050 
# 
# From -- ./inp_files/47078.got.cif
#   From: 2010.05.17/outbox.cif.g08.bks.cpg/sg68_24_cif.got.tgz:47078.got - 2010.06.03 18:57:09.
