data_PCOD9505005
_publ_section_title
;
Structure prediction by ZEFSAII (Michael W. Deem and Ramdas Pophale) SiO2 
 PCOD9505005
Probable space group: C M M A
;
_chemical_formula_sum "Si O2"
_cell_formula_units_Z 60
_cell_length_a 9.806011
_cell_length_b 15.737944
_cell_length_c 17.813801
_cell_angle_alpha 90.000000
_cell_angle_beta 90.000000
_cell_angle_gamma 90.000000
_cell_volume 2749.140705
_symmetry_space_group_name_H-M "C M M A"
_symmetry_group_IT_number 67
_symmetry_cell_setting 'orthorhombic'
loop_
_space_group_symop_operation_xyz
x,y,z
-x,1/2-y,z
x,-y,-z
-x,1/2+y,-z
-x,-y,-z
x,1/2+y,-z
-x,y,z
x,1/2-y,z
1/2+x,1/2+y,z
1/2-x,-y,z
1/2+x,1/2-y,-z
1/2-x,y,-z
1/2-x,1/2-y,-z
1/2+x,y,-z
1/2-x,1/2+y,z
1/2+x,-y,z
loop_
_atom_site_type_symbol
_atom_site_label
_atom_site_fract_x
_atom_site_fract_y
_atom_site_fract_z
Si Si1 0.653331 0.147876 0.206305
Si Si2 0.650473 0.384975 0.370461
Si Si3 0.156328 0.146248 0.069353
Si Si4 0.750000 0.500000 0.500000
Si Si5 0.341507 0.750000 0.425763
O O1 0.500000 0.140363 0.173767
O O2 0.668884 0.250000 0.225299
O O3 0.657294 0.093073 0.282613
O O4 0.767284 0.123945 0.146524
O O5 0.500000 0.343260 0.377301
O O6 0.659125 0.447981 0.440793
O O7 0.786683 0.330428 0.381395
O O8 0.153789 0.250000 0.066887
O O9 0.000000 0.116857 0.065487
O O10 0.250000 0.117754 0.000000
O O11 0.500000 0.750000 0.440278
O O12 0.250000 0.750000 0.500000
#
# Coordination Sequence:
#
# PCOD9505005 Si02
#       5
#    16  16  16   4   8
#     4   9  17  31  52  76 107 147 187 231 281 336
#     4  11  23  41  60  84 116 152 195 243 295 348
#     4   9  16  26  43  72 110 146 181 222 272 332
#     4  12  26  38  64  86 116 154 198 244 298 354
#     4  12  24  38  62  86 109 142 191 242 294 354
#
# _framework density 21.825002000000001
#
# number of rings (size 3 to 8) (size 9 to 14) (size 15 to 20)
#    0.000    1.867    2.667    2.400    0.000    5.333 
#    0.000    0.000    0.000    0.000    0.000    0.933 
#    0.000    6.400    0.000    0.000    0.000    0.000 
#
# Total GULP energy -167148.501129 kJ/mol
# GULP energy per Si atom -5571.616704 kJ/mol
# Density = 2.177533 g / cm^3
# Si number density = 21.825002 Si / 1000 Ang^3
#
#
#
# Elastic Constant Matrix: (Units=GPa)
#
#
# Indices 1 2 3 4 5 6 
#
# 1 222.4993 23.3227 99.4526 0.0000 0.0000 0.0000
# 2 23.3227 22.1022 22.7111 0.0000 0.0000 0.0000
# 3 99.4526 22.7111 168.2683 0.0000 0.0000 0.0000
# 4 0.0000 0.0000 0.0000 -14.6407 0.0000 0.0000
# 5 0.0000 0.0000 0.0000 0.0000 32.5953 0.0000
# 6 0.0000 0.0000 0.0000 0.0000 0.0000 9.6782
#
#
#
# Elastic Compliance Matrix: (Units=1/GPa)
#
#
# Indices 1 2 3 4 5 6 
#
# 1 0.006306 -0.003279 -0.003285 0.000000 0.000000 0.000000
# 2 -0.003279 0.054235 -0.005382 0.000000 0.000000 0.000000
# 3 -0.003285 -0.005382 0.008611 0.000000 0.000000 0.000000
# 4 0.000000 0.000000 0.000000 -0.068303 0.000000 0.000000
# 5 0.000000 0.000000 0.000000 0.000000 0.030679 0.000000
# 6 0.000000 0.000000 0.000000 0.000000 0.000000 0.103325
#
#
# Mechanical properties :
#
#
# Convention : Reuss Voigt Hill
#
# Bulk Modulus (GPa) = 22.09446 78.20472 50.14959
# Shear Modulus (GPa) = 28.76343 23.35212 26.05777
#
# Velocity S-wave (km/s) = 3.63424 3.27459 3.45909
# Velocity P-wave (km/s) = 5.26837 7.08574 6.24353
#
# Compressibility (1/GPa) = 0.04526022
#
# Stress axis : x y z
#
# Youngs Moduli (GPa) = 158.57122 18.43826 116.13589
#
# Poissons Ratio (x) = 0.06047 0.38146
# Poissons Ratio (y) = 0.52002 0.62502
# Poissons Ratio (z) = 0.52085 0.09923
#
# Static dielectric constant tensor:
#      x y z
#    x 1.801640 0.000000 0.000000 
#    y 0.000000 1.313100 0.000000 
#    z 0.000000 0.000000 1.805000 
# 
# From -- ./inp_files/31655.got.cif
#   From: 2010.05.17/outbox.cif.g08.bks.cpg/sg67_16_cif.got.tgz:31655.got - 2010.06.03 18:28:57.
