data_PCOD9505071
_publ_section_title
;
Structure prediction by ZEFSAII (Michael W. Deem and Ramdas Pophale) SiO2 
 PCOD9505071
Probable space group: C M M A
;
_chemical_formula_sum "Si O2"
_cell_formula_units_Z 56
_cell_length_a 14.795423
_cell_length_b 31.105517
_cell_length_c 5.119802
_cell_angle_alpha 90.000000
_cell_angle_beta 90.000000
_cell_angle_gamma 90.000000
_cell_volume 2356.231599
_symmetry_space_group_name_H-M "C M M A"
_symmetry_group_IT_number 67
_symmetry_cell_setting 'orthorhombic'
loop_
_space_group_symop_operation_xyz
x,y,z
-x,1/2-y,z
x,-y,-z
-x,1/2+y,-z
-x,-y,-z
x,1/2+y,-z
-x,y,z
x,1/2-y,z
1/2+x,1/2+y,z
1/2-x,-y,z
1/2+x,1/2-y,-z
1/2-x,y,-z
1/2-x,1/2-y,-z
1/2+x,y,-z
1/2-x,1/2+y,z
1/2+x,-y,z
loop_
_atom_site_type_symbol
_atom_site_label
_atom_site_fract_x
_atom_site_fract_y
_atom_site_fract_z
Si Si1 0.250000 0.500000 0.000000
Si Si2 0.895561 0.701148 0.595332
Si Si3 0.152921 0.064900 0.627863
Si Si4 0.000000 0.000000 0.500000
Si Si5 0.652199 0.649598 0.893451
O O1 0.185626 0.530600 0.161885
O O2 0.868243 0.750000 0.658813
O O3 0.842052 0.682527 0.348055
O O4 0.000000 0.701549 0.507204
O O5 0.891110 0.672138 0.854930
O O6 0.250000 0.077805 0.500000
O O7 0.111272 0.106596 0.767417
O O8 0.079438 0.038026 0.465884
O O9 0.750000 0.636674 0.000000
#
# Coordination Sequence:
#
# PCOD9505071 Si02
#       5
#     4  16  16   4  16
#     4  12  22  50  72  90 156 192 226 326 374 428
#     4  11  26  48  74 111 153 193 248 314 374 451
#     4  12  26  49  70 110 153 191 254 320 378 441
#     4  12  26  46  76 106 140 208 250 302 376 468
#     4  12  26  46  76 108 150 199 245 312 378 451
#
# _framework density 23.766763999999998
#
# number of rings (size 3 to 8) (size 9 to 14) (size 15 to 20)
#    0.000    0.286    4.286    4.286    4.000    6.286 
#    0.000    0.000    0.000    0.000    0.000    0.000 
#    0.000    0.000    0.000    0.000    0.000    0.000 
#
# Total GULP energy -155984.576652 kJ/mol
# GULP energy per Si atom -5570.877738 kJ/mol
# Density = 2.371267 g / cm^3
# Si number density = 23.766764 Si / 1000 Ang^3
#
#
#
# Elastic Constant Matrix: (Units=GPa)
#
#
# Indices 1 2 3 4 5 6 
#
# 1 95.0576 15.3872 17.9804 0.0000 0.0000 0.0000
# 2 15.3872 133.8067 41.2697 0.0000 0.0000 0.0000
# 3 17.9804 41.2697 116.7456 0.0000 0.0000 0.0000
# 4 0.0000 0.0000 0.0000 55.7954 0.0000 0.0000
# 5 0.0000 0.0000 0.0000 0.0000 25.8326 0.0000
# 6 0.0000 0.0000 0.0000 0.0000 0.0000 12.8690
#
#
#
# Elastic Compliance Matrix: (Units=1/GPa)
#
#
# Indices 1 2 3 4 5 6 
#
# 1 0.010917 -0.000827 -0.001389 0.000000 0.000000 0.000000
# 2 -0.000827 0.008451 -0.002860 0.000000 0.000000 0.000000
# 3 -0.001389 -0.002860 0.009791 0.000000 0.000000 0.000000
# 4 0.000000 0.000000 0.000000 0.017923 0.000000 0.000000
# 5 0.000000 0.000000 0.000000 0.000000 0.038711 0.000000
# 6 0.000000 0.000000 0.000000 0.000000 0.000000 0.077706
#
#
# Mechanical properties :
#
#
# Convention : Reuss Voigt Hill
#
# Bulk Modulus (GPa) = 52.61503 54.98718 53.80110
# Shear Modulus (GPa) = 27.78021 36.96425 32.37223
#
# Velocity S-wave (km/s) = 3.42258 3.94800 3.69464
# Velocity P-wave (km/s) = 6.14857 6.63088 6.39428
#
# Compressibility (1/GPa) = 0.01900598
#
# Stress axis : x y z
#
# Youngs Moduli (GPa) = 91.60429 118.33406 102.13937
#
# Poissons Ratio (x) = 0.09786 0.14187
# Poissons Ratio (y) = 0.07575 0.29211
# Poissons Ratio (z) = 0.12723 0.33843
#
# Static dielectric constant tensor:
#      x y z
#    x 1.781780 0.000000 0.000000 
#    y 0.000000 1.893770 0.000000 
#    z 0.000000 0.000000 1.913330 
# 
# From -- ./inp_files/2071.got.cif
#   From: 2010.05.17/outbox.cif.g08.bks.cpg/sg67_2_cif.got.tgz:2071.got - 2010.06.03 18:28:57.
