data_PCOD9505689
_publ_section_title
;
Structure prediction by ZEFSAII (Michael W. Deem and Ramdas Pophale) SiO2 
 PCOD9505689
Probable space group: C C C A
;
_chemical_formula_sum "Si O2"
_cell_formula_units_Z 96
_cell_length_a 24.223658
_cell_length_b 8.017201
_cell_length_c 20.938144
_cell_angle_alpha 90.000000
_cell_angle_beta 90.000000
_cell_angle_gamma 90.000000
_cell_volume 4066.311836
_symmetry_space_group_name_H-M "C C C A"
_symmetry_group_IT_number 68
_space_group.IT_coordinate_system_code '2'
_symmetry_cell_setting 'orthorhombic'
loop_
_space_group_symop_operation_xyz
x,y,z
-x,1/2-y,z
x,1/2-y,1/2-z
-x,y,1/2-z
-x,-y,-z
x,1/2+y,-z
-x,1/2+y,1/2+z
x,-y,1/2+z
1/2+x,1/2+y,z
1/2-x,-y,z
1/2+x,-y,1/2-z
1/2-x,1/2+y,1/2-z
1/2-x,1/2-y,-z
1/2+x,y,-z
1/2-x,y,1/2+z
1/2+x,1/2-y,1/2+z
loop_
_atom_site_type_symbol
_atom_site_label
_atom_site_fract_x
_atom_site_fract_y
_atom_site_fract_z
Si Si1 0.089135 0.698202 0.138000
Si Si2 0.804230 0.407059 0.796533
Si Si3 0.870802 0.964741 0.816266
Si Si4 0.889142 0.258232 0.002513
Si Si5 0.558893 0.663361 0.365995
Si Si6 0.813770 0.528190 0.054349
O O1 0.153585 0.645032 0.148103
O O2 0.087977 0.873583 0.176156
O O3 0.077610 0.733321 0.063616
O O4 0.057652 0.528954 0.157061
O O5 0.790806 0.250000 0.750000
O O6 0.750000 0.500000 0.819642
O O7 0.839976 0.524792 0.750440
O O8 0.824213 0.998962 0.870450
O O9 0.900907 0.791465 0.829272
O O10 0.828126 0.198609 0.981286
O O11 0.918868 0.166700 0.060916
O O12 0.870299 0.436103 0.029950
O O13 0.500000 0.750000 0.363792
O O14 0.750000 0.500000 0.041339
#
# Coordination Sequence:
#
# PCOD9505689 Si02
#       6
#    16  16  16  16  16  16
#     4  10  22  42  59  92 131 159 212 267 313 383
#     4  10  22  40  67  96 129 173 209 251 318 381
#     4   9  22  41  60  92 130 158 210 267 309 387
#     4  10  20  38  54  88 124 155 209 259 306 384
#     4  11  24  42  67  92 119 170 219 270 331 369
#     4  10  18  32  55  82 121 160 190 246 315 371
#
# _framework density 23.608619000000001
#
# number of rings (size 3 to 8) (size 9 to 14) (size 15 to 20)
#    0.000    2.000    1.667    1.000    2.333    2.000 
#    6.000    1.667    0.000    3.000    0.000    0.000 
#    0.000    0.000    0.000    0.000    0.000    0.000 
#
# Total GULP energy -267491.090619 kJ/mol
# GULP energy per Si atom -5572.731055 kJ/mol
# Density = 2.355488 g / cm^3
# Si number density = 23.608619 Si / 1000 Ang^3
#
#
#
# Elastic Constant Matrix: (Units=GPa)
#
#
# Indices 1 2 3 4 5 6 
#
# 1 57.5151 15.5764 -7.8894 0.0000 0.0000 0.0000
# 2 15.5764 82.9987 -14.5663 0.0000 0.0000 0.0000
# 3 -7.8894 -14.5663 32.2804 0.0000 0.0000 0.0000
# 4 0.0000 0.0000 0.0000 13.2090 0.0000 0.0000
# 5 0.0000 0.0000 0.0000 0.0000 -18.6805 0.0000
# 6 0.0000 0.0000 0.0000 0.0000 0.0000 25.5230
#
#
#
# Elastic Compliance Matrix: (Units=1/GPa)
#
#
# Indices 1 2 3 4 5 6 
#
# 1 0.018623 -0.002928 0.003230 0.000000 0.000000 0.000000
# 2 -0.002928 0.013545 0.005396 0.000000 0.000000 0.000000
# 3 0.003230 0.005396 0.034203 0.000000 0.000000 0.000000
# 4 0.000000 0.000000 0.000000 0.075706 0.000000 0.000000
# 5 0.000000 0.000000 0.000000 0.000000 -0.053532 0.000000
# 6 0.000000 0.000000 0.000000 0.000000 0.000000 0.039180
#
#
# Mechanical properties :
#
#
# Convention : Reuss Voigt Hill
#
# Bulk Modulus (GPa) = 12.85873 17.67061 15.26467
# Shear Modulus (GPa) = 35.14916 15.98854 25.56885
#
# Velocity S-wave (km/s) = 3.86272 2.60519 3.29451
# Velocity P-wave (km/s) = 5.03513 4.06822 4.57728
#
# Compressibility (1/GPa) = 0.07776818
#
# Stress axis : x y z
#
# Youngs Moduli (GPa) = 53.69763 73.82816 29.23706
#
# Poissons Ratio (x) = 0.21617 -0.09444
# Poissons Ratio (y) = 0.15723 -0.15778
# Poissons Ratio (z) = -0.17345 -0.39841
#
# Static dielectric constant tensor:
#      x y z
#    x 1.852220 0.000000 0.000000 
#    y 0.000000 2.101110 0.000000 
#    z 0.000000 0.000000 1.973470 
# 
# From -- ./inp_files/46929.got.cif
#   From: 2010.05.17/outbox.cif.g08.bks.cpg/sg68_24_cif.got.tgz:46929.got - 2010.06.03 18:57:09.
