data_PCOD9505328
_publ_section_title
;
Structure prediction by ZEFSAII (Michael W. Deem and Ramdas Pophale) SiO2 
 PCOD9505328
Probable space group: C C C A
;
_chemical_formula_sum "Si O2"
_cell_formula_units_Z 80
_cell_length_a 33.662504
_cell_length_b 27.611931
_cell_length_c 5.394640
_cell_angle_alpha 90.000000
_cell_angle_beta 90.000000
_cell_angle_gamma 90.000000
_cell_volume 5014.246335
_symmetry_space_group_name_H-M "C C C A"
_symmetry_group_IT_number 68
_space_group.IT_coordinate_system_code '2'
_symmetry_cell_setting 'orthorhombic'
loop_
_space_group_symop_operation_xyz
x,y,z
-x,1/2-y,z
x,1/2-y,1/2-z
-x,y,1/2-z
-x,-y,-z
x,1/2+y,-z
-x,1/2+y,1/2+z
x,-y,1/2+z
1/2+x,1/2+y,z
1/2-x,-y,z
1/2+x,-y,1/2-z
1/2-x,1/2+y,1/2-z
1/2-x,1/2-y,-z
1/2+x,y,-z
1/2-x,y,1/2+z
1/2+x,1/2-y,1/2+z
loop_
_atom_site_type_symbol
_atom_site_label
_atom_site_fract_x
_atom_site_fract_y
_atom_site_fract_z
Si Si1 0.224777 0.882726 0.025652
Si Si2 0.454397 0.941694 0.180579
Si Si3 0.078283 0.949572 0.175546
Si Si4 0.704569 0.729285 0.502528
Si Si5 0.671618 0.028029 0.318715
O O1 0.256496 0.888215 0.251057
O O2 0.207797 0.828256 0.024199
O O3 0.192309 0.922649 0.095432
O O4 0.500000 0.933641 0.250000
O O5 0.428969 0.923866 0.414398
O O6 0.445924 0.999612 0.159357
O O7 0.438914 0.922907 0.916473
O O8 0.124213 0.963818 0.195599
O O9 0.685120 0.750000 0.750000
O O10 0.750000 0.750000 0.500000
O O11 0.686366 0.750000 0.250000
O O12 0.682404 0.990702 0.542427
#
# Coordination Sequence:
#
# PCOD9505328 Si02
#       5
#    16  16  16  16  16
#     4  12  23  35  52  73  84 116 169 200 233 287
#     4  10  16  25  46  65  78 104 160 202 217 252
#     4  10  16  29  41  58  86 116 149 185 232 262
#     4  10  16  32  56  71  90 102 128 203 267 283
#     4  12  23  37  47  59  95 138 158 192 229 267
#
# _framework density 15.95454
#
# number of rings (size 3 to 8) (size 9 to 14) (size 15 to 20)
#    0.000    1.200    8.000    4.200    0.000    2.400 
#    0.000    0.000    0.000    0.000    0.000    0.000 
#    0.000    0.000    0.000    0.000    0.000   24.000 
#
# Total GULP energy -222700.493888 kJ/mol
# GULP energy per Si atom -5567.512347 kJ/mol
# Density = 1.591823 g / cm^3
# Si number density = 15.954540 Si / 1000 Ang^3
#
#
#
# Elastic Constant Matrix: (Units=GPa)
#
#
# Indices 1 2 3 4 5 6 
#
# 1 15.0083 20.4136 3.4538 0.0000 0.0000 0.0000
# 2 20.4136 56.4149 1.0447 0.0000 0.0000 0.0000
# 3 3.4538 1.0447 115.8880 0.0000 0.0000 0.0000
# 4 0.0000 0.0000 0.0000 15.3653 0.0000 0.0000
# 5 0.0000 0.0000 0.0000 0.0000 17.1965 0.0000
# 6 0.0000 0.0000 0.0000 0.0000 0.0000 -2.1586
#
#
#
# Elastic Compliance Matrix: (Units=1/GPa)
#
#
# Indices 1 2 3 4 5 6 
#
# 1 0.132625 -0.047925 -0.003521 0.000000 0.000000 0.000000
# 2 -0.047925 0.035047 0.001112 0.000000 0.000000 0.000000
# 3 -0.003521 0.001112 0.008724 0.000000 0.000000 0.000000
# 4 0.000000 0.000000 0.000000 0.065082 0.000000 0.000000
# 5 0.000000 0.000000 0.000000 0.000000 0.058151 0.000000
# 6 0.000000 0.000000 0.000000 0.000000 0.000000 -0.463253
#
#
# Mechanical properties :
#
#
# Convention : Reuss Voigt Hill
#
# Bulk Modulus (GPa) = 13.20485 26.34836 19.77660
# Shear Modulus (GPa) = -132.57519 16.90725 -57.83397
#
# Velocity S-wave (km/s) = -9.12557 3.25886 -6.02726
# Velocity P-wave (km/s) = 10.13608 5.54172 6.00123
#
# Compressibility (1/GPa) = 0.07572977
#
# Stress axis : x y z
#
# Youngs Moduli (GPa) = 7.54003 28.53333 114.62743
#
# Poissons Ratio (x) = 1.36746 0.40355
# Poissons Ratio (y) = 0.36136 -0.12751
# Poissons Ratio (z) = 0.02655 -0.03174
#
# Static dielectric constant tensor:
#      x y z
#    x 1.513980 0.000000 0.000000 
#    y 0.000000 1.577300 0.000000 
#    z 0.000000 0.000000 1.836150 
# 
# From -- ./inp_files/2732.got.cif
#   From: 2010.05.17/outbox.cif.g08.bks.cpg/sg68_2_cif.got.tgz:2732.got - 2010.06.03 18:57:09.
