data_PCOD9505948
_publ_section_title
;
Structure prediction by ZEFSAII (Michael W. Deem and Ramdas Pophale) SiO2 
 PCOD9505948
Probable space group: C C C A
;
_chemical_formula_sum "Si O2"
_cell_formula_units_Z 96
_cell_length_a 20.909858
_cell_length_b 25.225665
_cell_length_c 7.819800
_cell_angle_alpha 90.000000
_cell_angle_beta 90.000000
_cell_angle_gamma 90.000000
_cell_volume 4124.671379
_symmetry_space_group_name_H-M "C C C A"
_symmetry_group_IT_number 68
_space_group.IT_coordinate_system_code '2'
_symmetry_cell_setting 'orthorhombic'
loop_
_space_group_symop_operation_xyz
x,y,z
-x,1/2-y,z
x,1/2-y,1/2-z
-x,y,1/2-z
-x,-y,-z
x,1/2+y,-z
-x,1/2+y,1/2+z
x,-y,1/2+z
1/2+x,1/2+y,z
1/2-x,-y,z
1/2+x,-y,1/2-z
1/2-x,1/2+y,1/2-z
1/2-x,1/2-y,-z
1/2+x,y,-z
1/2-x,y,1/2+z
1/2+x,1/2-y,1/2+z
loop_
_atom_site_type_symbol
_atom_site_label
_atom_site_fract_x
_atom_site_fract_y
_atom_site_fract_z
Si Si1 0.640695 0.061450 0.301851
Si Si2 0.065414 0.611113 0.979262
Si Si3 0.111502 0.250000 0.750000
Si Si4 0.829564 0.805452 0.953251
Si Si5 0.000000 0.664164 0.250000
Si Si6 0.245859 0.364099 0.224616
Si Si7 0.371048 0.054847 0.814215
O O1 0.599208 0.084890 0.145969
O O2 0.700707 0.100999 0.323577
O O3 0.609161 0.054715 0.487910
O O4 0.656732 0.002238 0.239427
O O5 0.103543 0.664268 0.921188
O O6 0.002040 0.631921 0.072176
O O7 0.073801 0.571918 0.820130
O O8 0.153725 0.242835 0.921261
O O9 0.063653 0.299830 0.758878
O O10 0.786832 0.846767 0.061992
O O11 0.786396 0.808593 0.786031
O O12 0.186257 0.403183 0.204805
#
# Coordination Sequence:
#
# PCOD9505948 Si02
#       7
#    16  16   8  16   8  16  16
#     4  11  20  32  52  80 118 152 188 219 252 315
#     4   9  20  35  54  80 106 143 190 229 276 320
#     4   9  18  34  62  84  96 134 182 235 280 334
#     4   9  18  31  50  82 108 141 179 214 270 329
#     4   9  18  40  62  78  98 136 186 236 292 339
#     4  10  19  31  48  78 118 154 176 207 261 322
#     4  11  20  32  52  80 118 152 188 219 252 315
#
# _framework density 23.274581999999999
#
# number of rings (size 3 to 8) (size 9 to 14) (size 15 to 20)
#    0.000    2.167    3.333    0.500    0.000    2.000 
#    0.000    1.667    0.000    0.000    4.333    7.000 
#    0.000    0.000    0.000    0.000    0.000    0.000 
#
# Total GULP energy -267355.640422 kJ/mol
# GULP energy per Si atom -5569.909175 kJ/mol
# Density = 2.322161 g / cm^3
# Si number density = 23.274582 Si / 1000 Ang^3
#
#
#
# Elastic Constant Matrix: (Units=GPa)
#
#
# Indices 1 2 3 4 5 6 
#
# 1 48.9564 22.2635 11.0753 0.0000 0.0000 0.0000
# 2 22.2635 79.2248 10.5142 0.0000 0.0000 0.0000
# 3 11.0753 10.5142 94.7860 0.0000 0.0000 0.0000
# 4 0.0000 0.0000 0.0000 27.2606 0.0000 0.0000
# 5 0.0000 0.0000 0.0000 0.0000 6.0070 0.0000
# 6 0.0000 0.0000 0.0000 0.0000 0.0000 15.5434
#
#
#
# Elastic Compliance Matrix: (Units=1/GPa)
#
#
# Indices 1 2 3 4 5 6 
#
# 1 0.023813 -0.006417 -0.002071 0.000000 0.000000 0.000000
# 2 -0.006417 0.014540 -0.000863 0.000000 0.000000 0.000000
# 3 -0.002071 -0.000863 0.010888 0.000000 0.000000 0.000000
# 4 0.000000 0.000000 0.000000 0.036683 0.000000 0.000000
# 5 0.000000 0.000000 0.000000 0.000000 0.166474 0.000000
# 6 0.000000 0.000000 0.000000 0.000000 0.000000 0.064336
#
#
# Mechanical properties :
#
#
# Convention : Reuss Voigt Hill
#
# Bulk Modulus (GPa) = 32.74457 34.51924 33.63190
# Shear Modulus (GPa) = 14.46697 21.70313 18.08505
#
# Velocity S-wave (km/s) = 2.49585 3.05697 2.79055
# Velocity P-wave (km/s) = 4.73340 5.22720 4.98641
#
# Compressibility (1/GPa) = 0.03053942
#
# Stress axis : x y z
#
# Youngs Moduli (GPa) = 41.99388 68.77503 91.84622
#
# Poissons Ratio (x) = 0.44133 0.19018
# Poissons Ratio (y) = 0.26948 0.07927
# Poissons Ratio (z) = 0.08695 0.05936
#
# Static dielectric constant tensor:
#      x y z
#    x 1.898420 0.000000 0.000000 
#    y 0.000000 1.885620 0.000000 
#    z 0.000000 0.000000 1.966600 
# 
# From -- ./inp_files/8273.got.cif
#   From: 2010.05.17/outbox.cif.g08.bks.cpg/sg68_5_cif.got.tgz:8273.got - 2010.06.03 18:57:09.
