data_PCOD9505648
_publ_section_title
;
Structure prediction by ZEFSAII (Michael W. Deem and Ramdas Pophale) SiO2 
 PCOD9505648
Probable space group: C C C A
;
_chemical_formula_sum "Si O2"
_cell_formula_units_Z 88
_cell_length_a 22.525120
_cell_length_b 21.151979
_cell_length_c 9.869676
_cell_angle_alpha 90.000000
_cell_angle_beta 90.000000
_cell_angle_gamma 90.000000
_cell_volume 4702.415670
_symmetry_space_group_name_H-M "C C C A"
_symmetry_group_IT_number 68
_space_group.IT_coordinate_system_code '2'
_symmetry_cell_setting 'orthorhombic'
loop_
_space_group_symop_operation_xyz
x,y,z
-x,1/2-y,z
x,1/2-y,1/2-z
-x,y,1/2-z
-x,-y,-z
x,1/2+y,-z
-x,1/2+y,1/2+z
x,-y,1/2+z
1/2+x,1/2+y,z
1/2-x,-y,z
1/2+x,-y,1/2-z
1/2-x,1/2+y,1/2-z
1/2-x,1/2-y,-z
1/2+x,y,-z
1/2-x,y,1/2+z
1/2+x,1/2-y,1/2+z
loop_
_atom_site_type_symbol
_atom_site_label
_atom_site_fract_x
_atom_site_fract_y
_atom_site_fract_z
Si Si1 0.070054 0.310960 0.001889
Si Si2 0.685048 0.531234 0.207942
Si Si3 0.500000 0.750000 0.750000
Si Si4 0.178132 0.743406 0.104565
Si Si5 0.500000 0.750000 0.250000
Si Si6 0.144939 0.933824 0.989003
Si Si7 0.236896 0.144799 0.050110
O O1 0.092965 0.382934 0.994873
O O2 0.036312 0.293402 0.141531
O O3 0.034863 0.293176 0.862832
O O4 0.130163 0.268399 0.001440
O O5 0.750000 0.500000 0.235751
O O6 0.646763 0.535700 0.342060
O O7 0.651075 0.488003 0.100302
O O8 0.699155 0.600676 0.148312
O O9 0.149095 0.750000 0.250000
O O10 0.197807 0.672773 0.071247
O O11 0.234206 0.791318 0.111283
O O12 0.207520 0.895872 0.000336
#
# Coordination Sequence:
#
# PCOD9505648 Si02
#       7
#    16  16   4  16   4  16  16
#     4  10  22  39  64  85 108 142 192 247 307 352
#     4  10  19  34  54  81 124 163 191 219 264 334
#     4  10  20  46  64  86 104 138 188 258 318 344
#     4  10  18  31  52  89 119 152 190 227 287 343
#     4  10  24  42  60  86 108 138 188 262 326 344
#     4  10  21  36  55  87 116 157 196 222 277 345
#     4   9  19  30  51  85 128 157 182 230 266 344
#
# _framework density 18.713787
#
# number of rings (size 3 to 8) (size 9 to 14) (size 15 to 20)
#    0.000    2.182    0.909    2.727    2.545    2.909 
#    3.273    0.000    0.000    3.273    0.000    0.000 
#    0.000    0.000    0.000    0.000    0.000    0.000 
#
# Total GULP energy -245112.968050 kJ/mol
# GULP energy per Si atom -5570.749274 kJ/mol
# Density = 1.867119 g / cm^3
# Si number density = 18.713787 Si / 1000 Ang^3
#
#
#
# Elastic Constant Matrix: (Units=GPa)
#
#
# Indices 1 2 3 4 5 6 
#
# 1 56.1397 33.5728 53.7740 0.0000 0.0000 0.0000
# 2 33.5728 97.1489 67.3488 0.0000 0.0000 0.0000
# 3 53.7740 67.3488 154.1899 0.0000 0.0000 0.0000
# 4 0.0000 0.0000 0.0000 20.9190 0.0000 0.0000
# 5 0.0000 0.0000 0.0000 0.0000 15.5507 0.0000
# 6 0.0000 0.0000 0.0000 0.0000 0.0000 55.7610
#
#
#
# Elastic Compliance Matrix: (Units=1/GPa)
#
#
# Indices 1 2 3 4 5 6 
#
# 1 0.027867 -0.004149 -0.007906 0.000000 0.000000 0.000000
# 2 -0.004149 0.015382 -0.005272 0.000000 0.000000 0.000000
# 3 -0.007906 -0.005272 0.011545 0.000000 0.000000 0.000000
# 4 0.000000 0.000000 0.000000 0.047803 0.000000 0.000000
# 5 0.000000 0.000000 0.000000 0.000000 0.064306 0.000000
# 6 0.000000 0.000000 0.000000 0.000000 0.000000 0.017934
#
#
# Mechanical properties :
#
#
# Convention : Reuss Voigt Hill
#
# Bulk Modulus (GPa) = 49.65213 68.54106 59.09660
# Shear Modulus (GPa) = 22.10380 28.63168 25.36774
#
# Velocity S-wave (km/s) = 3.44052 3.91574 3.68579
# Velocity P-wave (km/s) = 6.50944 7.55973 7.05416
#
# Compressibility (1/GPa) = 0.02014012
#
# Stress axis : x y z
#
# Youngs Moduli (GPa) = 35.88442 65.01121 86.61391
#
# Poissons Ratio (x) = 0.26975 0.68480
# Poissons Ratio (y) = 0.14889 0.45660
# Poissons Ratio (z) = 0.28372 0.34272
#
# Static dielectric constant tensor:
#      x y z
#    x 1.683870 0.000000 0.000000 
#    y 0.000000 1.637530 0.000000 
#    z 0.000000 0.000000 1.704490 
# 
# From -- ./inp_files/8041.got.cif
#   From: 2010.05.17/outbox.cif.g08.bks.cpg/sg68_5_cif.got.tgz:8041.got - 2010.06.03 18:57:09.
