data_PCOD9505303
_publ_section_title
;
Structure prediction by ZEFSAII (Michael W. Deem and Ramdas Pophale) SiO2 
 PCOD9505303
Probable space group: C C C A
;
_chemical_formula_sum "Si O2"
_cell_formula_units_Z 76
_cell_length_a 14.605803
_cell_length_b 15.865477
_cell_length_c 16.680202
_cell_angle_alpha 90.000000
_cell_angle_beta 90.000000
_cell_angle_gamma 90.000000
_cell_volume 3865.270376
_symmetry_space_group_name_H-M "C C C A"
_symmetry_group_IT_number 68
_space_group.IT_coordinate_system_code '2'
_symmetry_cell_setting 'orthorhombic'
loop_
_space_group_symop_operation_xyz
x,y,z
-x,1/2-y,z
x,1/2-y,1/2-z
-x,y,1/2-z
-x,-y,-z
x,1/2+y,-z
-x,1/2+y,1/2+z
x,-y,1/2+z
1/2+x,1/2+y,z
1/2-x,-y,z
1/2+x,-y,1/2-z
1/2-x,1/2+y,1/2-z
1/2-x,1/2-y,-z
1/2+x,y,-z
1/2-x,y,1/2+z
1/2+x,1/2-y,1/2+z
loop_
_atom_site_type_symbol
_atom_site_label
_atom_site_fract_x
_atom_site_fract_y
_atom_site_fract_z
Si Si1 0.375285 0.424477 0.492565
Si Si2 0.750000 0.500000 0.368536
Si Si3 0.759476 0.799371 0.915884
Si Si4 0.500000 0.750000 0.750000
Si Si5 0.650022 0.843806 0.650733
Si Si6 0.926257 0.386119 0.027137
O O1 0.314785 0.446778 0.570739
O O2 0.312477 0.375558 0.428970
O O3 0.409198 0.514310 0.458557
O O4 0.465079 0.372747 0.519985
O O5 0.693883 0.430880 0.319491
O O6 0.723575 0.731950 0.852440
O O7 0.750000 0.750000 0.000000
O O8 0.862679 0.833876 0.912027
O O9 0.563947 0.809561 0.697578
O O10 0.615411 0.865412 0.560607
#
# Coordination Sequence:
#
# PCOD9505303 Si02
#       6
#    16   8  16   4  16  16
#     4  10  15  28  48  80 117 147 167 216 289 343
#     4  10  18  36  54  76 110 154 174 230 292 344
#     4  10  16  29  48  82 109 139 173 224 279 339
#     4  12  24  40  60  80 102 158 208 250 264 324
#     4  10  21  36  56  77 110 147 192 231 282 335
#     4   9  18  28  52  83 114 145 173 223 287 352
#
# _framework density 19.662272999999999
#
# number of rings (size 3 to 8) (size 9 to 14) (size 15 to 20)
#    0.000    2.105    6.316    1.263    0.000    2.526 
#    0.000    0.000   18.526    0.000    0.000    0.000 
#    0.000    0.000    0.000    0.000    0.000    0.000 
#
# Total GULP energy -211858.623415 kJ/mol
# GULP energy per Si atom -5575.226932 kJ/mol
# Density = 1.961752 g / cm^3
# Si number density = 19.662273 Si / 1000 Ang^3
#
#
#
# Elastic Constant Matrix: (Units=GPa)
#
#
# Indices 1 2 3 4 5 6 
#
# 1 140.9496 51.7073 10.9556 0.0000 0.0000 0.0000
# 2 51.7073 104.7780 24.5609 0.0000 0.0000 0.0000
# 3 10.9556 24.5609 13.2338 0.0000 0.0000 0.0000
# 4 0.0000 0.0000 0.0000 -5.4407 0.0000 0.0000
# 5 0.0000 0.0000 0.0000 0.0000 -43.1291 0.0000
# 6 0.0000 0.0000 0.0000 0.0000 0.0000 28.2446
#
#
#
# Elastic Compliance Matrix: (Units=1/GPa)
#
#
# Indices 1 2 3 4 5 6 
#
# 1 0.008677 -0.004599 0.001352 0.000000 0.000000 0.000000
# 2 -0.004599 0.019331 -0.032069 0.000000 0.000000 0.000000
# 3 0.001352 -0.032069 0.133963 0.000000 0.000000 0.000000
# 4 0.000000 0.000000 0.000000 -0.183801 0.000000 0.000000
# 5 0.000000 0.000000 0.000000 0.000000 -0.023186 0.000000
# 6 0.000000 0.000000 0.000000 0.000000 0.000000 0.035405
#
#
# Mechanical properties :
#
#
# Convention : Reuss Voigt Hill
#
# Bulk Modulus (GPa) = 10.94831 48.15657 29.55244
# Shear Modulus (GPa) = 54.66429 7.38413 31.02421
#
# Velocity S-wave (km/s) = 5.27844 1.94001 3.97653
# Velocity P-wave (km/s) = 6.53679 5.43721 6.01219
#
# Compressibility (1/GPa) = 0.09133829
#
# Stress axis : x y z
#
# Youngs Moduli (GPa) = 115.25081 51.73073 7.46474
#
# Poissons Ratio (x) = 0.23790 -0.01009
# Poissons Ratio (y) = 0.53002 0.23939
# Poissons Ratio (z) = -0.15583 1.65898
#
# Static dielectric constant tensor:
#      x y z
#    x 1.741900 0.000000 0.000000 
#    y 0.000000 1.767030 0.000000 
#    z 0.000000 0.000000 1.662930 
# 
# From -- ./inp_files/30848.got.cif
#   From: 2010.05.17/outbox.cif.g08.bks.cpg/sg68_16_cif.got.tgz:30848.got - 2010.06.03 18:57:09.
