data_PCOD9505318
_publ_section_title
;
Structure prediction by ZEFSAII (Michael W. Deem and Ramdas Pophale) SiO2 
 PCOD9505318
Probable space group: C C C A
;
_chemical_formula_sum "Si O2"
_cell_formula_units_Z 60
_cell_length_a 13.847671
_cell_length_b 29.814571
_cell_length_c 5.346353
_cell_angle_alpha 90.000000
_cell_angle_beta 90.000000
_cell_angle_gamma 90.000000
_cell_volume 2207.307972
_symmetry_space_group_name_H-M "C C C A"
_symmetry_group_IT_number 68
_space_group.IT_coordinate_system_code '2'
_symmetry_cell_setting 'orthorhombic'
loop_
_space_group_symop_operation_xyz
x,y,z
-x,1/2-y,z
x,1/2-y,1/2-z
-x,y,1/2-z
-x,-y,-z
x,1/2+y,-z
-x,1/2+y,1/2+z
x,-y,1/2+z
1/2+x,1/2+y,z
1/2-x,-y,z
1/2+x,-y,1/2-z
1/2-x,1/2+y,1/2-z
1/2-x,1/2-y,-z
1/2+x,y,-z
1/2-x,y,1/2+z
1/2+x,1/2-y,1/2+z
loop_
_atom_site_type_symbol
_atom_site_label
_atom_site_fract_x
_atom_site_fract_y
_atom_site_fract_z
Si Si1 0.862160 0.983666 0.679840
Si Si2 0.869908 0.750000 0.250000
Si Si3 0.000000 0.750000 0.750000
Si Si4 0.133816 0.383371 0.372496
Si Si5 0.347787 0.347848 0.375038
O O1 0.876561 0.934665 0.794970
O O2 0.901928 0.984696 0.399377
O O3 0.750000 0.000000 0.647004
O O4 0.821046 0.796590 0.321144
O O5 0.923756 0.736930 0.517889
O O6 0.248784 0.375105 0.404290
O O7 0.096632 0.368481 0.640628
O O8 0.100199 0.353310 0.139650
#
# Coordination Sequence:
#
# PCOD9505318 Si02
#       5
#    16   8   4  16  16
#     4  10  16  25  40  59  96 150 173 178 213 252
#     4  11  22  38  57  70  89 128 156 209 254 296
#     4  10  24  42  54  70  86 110 172 214 260 296
#     4  10  19  29  44  75 109 135 161 196 215 280
#     4  10  19  31  48  70  99 130 162 191 241 280
#
# _framework density 27.182433
#
# number of rings (size 3 to 8) (size 9 to 14) (size 15 to 20)
#    0.000    1.867    0.000    9.600    0.000    4.267 
#    0.000    0.000    0.000    0.000    0.000    0.000 
#    0.000    0.000    0.000 1022.400    0.000    0.000 
#
# Total GULP energy -167246.294326 kJ/mol
# GULP energy per Si atom -5574.876478 kJ/mol
# Density = 2.712056 g / cm^3
# Si number density = 27.182433 Si / 1000 Ang^3
#
#
#
# Elastic Constant Matrix: (Units=GPa)
#
#
# Indices 1 2 3 4 5 6 
#
# 1 80.3425 -11.9787 42.8303 0.0000 0.0000 0.0000
# 2 -11.9787 121.9273 16.7486 0.0000 0.0000 0.0000
# 3 42.8303 16.7486 296.4564 0.0000 0.0000 0.0000
# 4 0.0000 0.0000 0.0000 50.1711 0.0000 0.0000
# 5 0.0000 0.0000 0.0000 0.0000 41.5412 0.0000
# 6 0.0000 0.0000 0.0000 0.0000 0.0000 -40.0622
#
#
#
# Elastic Compliance Matrix: (Units=1/GPa)
#
#
# Indices 1 2 3 4 5 6 
#
# 1 0.013804 0.001643 -0.002087 0.000000 0.000000 0.000000
# 2 0.001643 0.008461 -0.000715 0.000000 0.000000 0.000000
# 3 -0.002087 -0.000715 0.003715 0.000000 0.000000 0.000000
# 4 0.000000 0.000000 0.000000 0.019932 0.000000 0.000000
# 5 0.000000 0.000000 0.000000 0.000000 0.024072 0.000000
# 6 0.000000 0.000000 0.000000 0.000000 0.000000 -0.024961
#
#
# Mechanical properties :
#
#
# Convention : Reuss Voigt Hill
#
# Bulk Modulus (GPa) = 42.26285 65.99184 54.12735
# Shear Modulus (GPa) = 90.53000 40.40510 65.46755
#
# Velocity S-wave (km/s) = 5.77727 3.85962 4.91292
# Velocity P-wave (km/s) = 7.75140 6.64773 7.22068
#
# Compressibility (1/GPa) = 0.02366144
#
# Stress axis : x y z
#
# Youngs Moduli (GPa) = 72.44096 118.18532 269.16894
#
# Poissons Ratio (x) = -0.19417 0.56181
# Poissons Ratio (y) = -0.11901 0.19256
# Poissons Ratio (z) = 0.15120 0.08455
#
# Static dielectric constant tensor:
#      x y z
#    x 2.907640 0.000000 0.000000 
#    y 0.000000 2.078930 0.000000 
#    z 0.000000 0.000000 2.435360 
# 
# From -- ./inp_files/1013.got.cif
#   From: 2010.05.17/outbox.cif.g08.bks.cpg/sg68_1_cif.got.tgz:1013.got - 2010.06.03 18:57:09.
