data_PCOD9505022
_publ_section_title
;
Structure prediction by ZEFSAII (Michael W. Deem and Ramdas Pophale) SiO2 
 PCOD9505022
Probable space group: C M M A
;
_chemical_formula_sum "Si O2"
_cell_formula_units_Z 64
_cell_length_a 23.770785
_cell_length_b 16.000201
_cell_length_c 8.663644
_cell_angle_alpha 90.000000
_cell_angle_beta 90.000000
_cell_angle_gamma 90.000000
_cell_volume 3295.107296
_symmetry_space_group_name_H-M "C M M A"
_symmetry_group_IT_number 67
_symmetry_cell_setting 'orthorhombic'
loop_
_space_group_symop_operation_xyz
x,y,z
-x,1/2-y,z
x,-y,-z
-x,1/2+y,-z
-x,-y,-z
x,1/2+y,-z
-x,y,z
x,1/2-y,z
1/2+x,1/2+y,z
1/2-x,-y,z
1/2+x,1/2-y,-z
1/2-x,y,-z
1/2-x,1/2-y,-z
1/2+x,y,-z
1/2-x,1/2+y,z
1/2+x,-y,z
loop_
_atom_site_type_symbol
_atom_site_label
_atom_site_fract_x
_atom_site_fract_y
_atom_site_fract_z
Si Si1 0.319918 0.250000 0.328962
Si Si2 0.187865 0.250000 0.302506
Si Si3 0.000000 0.655506 0.701152
Si Si4 0.500000 0.417789 0.388638
Si Si5 0.381840 0.096403 0.829929
Si Si6 0.884891 0.589950 0.198206
O O1 0.254701 0.250000 0.280179
O O2 0.323420 0.250000 0.514334
O O3 0.349385 0.166214 0.266315
O O4 0.159055 0.168618 0.229052
O O5 0.000000 0.654584 0.516239
O O6 0.056518 0.611189 0.758211
O O7 0.000000 0.750000 0.761009
O O8 0.500000 0.500000 0.500000
O O9 0.554827 0.412029 0.282461
O O10 0.360905 0.004097 0.782080
O O11 0.389141 0.101386 0.014153
#
# Coordination Sequence:
#
# PCOD9505022 Si02
#       6
#     8   8   8   8  16  16
#     4  11  27  44  67  96 127 169 227 275 328 387
#     4  11  25  46  67  94 127 173 223 279 326 387
#     4  12  23  37  63  98 129 174 204 267 326 391
#     4  12  23  39  64  99 135 169 213 268 321 402
#     4  11  23  43  68  94 135 172 216 265 332 393
#     4  11  25  42  65  99 132 173 214 269 323 400
#
# _framework density 19.422736
#
# number of rings (size 3 to 8) (size 9 to 14) (size 15 to 20)
#    0.000    0.750    3.750    3.000    1.750    5.000 
#    0.000    5.000    0.000    0.000    0.000    0.000 
#    0.000    0.000    0.000    0.000    0.000    0.000 
#
# Total GULP energy -178893.418062 kJ/mol
# GULP energy per Si atom -5590.419314 kJ/mol
# Density = 1.937853 g / cm^3
# Si number density = 19.422736 Si / 1000 Ang^3
#
#
#
# Elastic Constant Matrix: (Units=GPa)
#
#
# Indices 1 2 3 4 5 6 
#
# 1 138.8805 104.2369 83.0572 0.0000 0.0000 0.0000
# 2 104.2369 203.5868 81.8341 0.0000 0.0000 0.0000
# 3 83.0572 81.8341 104.3553 0.0000 0.0000 0.0000
# 4 0.0000 0.0000 0.0000 37.8179 0.0000 0.0000
# 5 0.0000 0.0000 0.0000 0.0000 151.6070 0.0000
# 6 0.0000 0.0000 0.0000 0.0000 0.0000 -0.3356
#
#
#
# Elastic Compliance Matrix: (Units=1/GPa)
#
#
# Indices 1 2 3 4 5 6 
#
# 1 0.016180 -0.004538 -0.009319 0.000000 0.000000 0.000000
# 2 -0.004538 0.008446 -0.003011 0.000000 0.000000 0.000000
# 3 -0.009319 -0.003011 0.019361 0.000000 0.000000 0.000000
# 4 0.000000 0.000000 0.000000 0.026442 0.000000 0.000000
# 5 0.000000 0.000000 0.000000 0.000000 0.006596 0.000000
# 6 0.000000 0.000000 0.000000 0.000000 0.000000 -2.979782
#
#
# Mechanical properties :
#
#
# Convention : Reuss Voigt Hill
#
# Bulk Modulus (GPa) = 97.55933 109.45321 103.50627
# Shear Modulus (GPa) = -1.74483 49.66417 23.95967
#
# Velocity S-wave (km/s) = -0.94884 5.06218 3.51606
# Velocity P-wave (km/s) = 7.00986 9.52066 8.36006
#
# Compressibility (1/GPa) = 0.01025017
#
# Stress axis : x y z
#
# Youngs Moduli (GPa) = 61.80612 118.40130 51.65107
#
# Poissons Ratio (x) = 0.53734 0.48132
# Poissons Ratio (y) = 0.28049 0.15553
# Poissons Ratio (z) = 0.57595 0.35652
#
# Static dielectric constant tensor:
#      x y z
#    x 1.635220 0.000000 0.000000 
#    y 0.000000 1.712290 0.000000 
#    z 0.000000 0.000000 1.661950 
# 
# From -- ./inp_files/8084.got.cif
#   From: 2010.05.17/outbox.cif.g08.bks.cpg/sg67_5_cif.got.tgz:8084.got - 2010.06.03 18:28:57.
