data_PCOD9505545
_publ_section_title
;
Structure prediction by ZEFSAII (Michael W. Deem and Ramdas Pophale) SiO2 
 PCOD9505545
Probable space group: C C C A
;
_chemical_formula_sum "Si O2"
_cell_formula_units_Z 88
_cell_length_a 13.642569
_cell_length_b 14.598674
_cell_length_c 18.276417
_cell_angle_alpha 90.000000
_cell_angle_beta 90.000000
_cell_angle_gamma 90.000000
_cell_volume 3639.993667
_symmetry_space_group_name_H-M "C C C A"
_symmetry_group_IT_number 68
_space_group.IT_coordinate_system_code '2'
_symmetry_cell_setting 'orthorhombic'
loop_
_space_group_symop_operation_xyz
x,y,z
-x,1/2-y,z
x,1/2-y,1/2-z
-x,y,1/2-z
-x,-y,-z
x,1/2+y,-z
-x,1/2+y,1/2+z
x,-y,1/2+z
1/2+x,1/2+y,z
1/2-x,-y,z
1/2+x,-y,1/2-z
1/2-x,1/2+y,1/2-z
1/2-x,1/2-y,-z
1/2+x,y,-z
1/2-x,y,1/2+z
1/2+x,1/2-y,1/2+z
loop_
_atom_site_type_symbol
_atom_site_label
_atom_site_fract_x
_atom_site_fract_y
_atom_site_fract_z
Si Si1 0.774546 0.148136 0.525769
Si Si2 0.107340 0.976625 0.024972
Si Si3 0.053322 0.832571 0.829926
Si Si4 0.550155 0.009939 0.324837
Si Si5 0.750000 0.000000 0.768446
Si Si6 0.784393 0.678998 0.312650
O O1 0.750000 0.250000 0.500000
O O2 0.837758 0.076229 0.477412
O O3 0.823380 0.166494 0.605123
O O4 0.671660 0.091720 0.524581
O O5 0.089601 0.932183 0.106062
O O6 0.000000 0.000000 0.000000
O O7 0.166953 0.808516 0.823672
O O8 0.000000 0.750000 0.872021
O O9 0.000000 0.836004 0.750000
O O10 0.026954 0.934857 0.854140
O O11 0.500000 0.047251 0.250000
O O12 0.654505 0.959962 0.307681
O O13 0.795274 0.080153 0.722134
O O14 0.818793 0.750000 0.250000
#
# Coordination Sequence:
#
# PCOD9505545 Si02
#       6
#    16  16  16  16   8  16
#     4  11  28  47  70 105 146 192 244 293 378 443
#     4  11  26  50  71  99 151 194 238 297 372 448
#     4  10  17  35  58 102 132 156 225 300 356 397
#     4  11  23  38  70 103 132 181 238 292 352 429
#     4  12  22  38  70 100 140 172 224 290 366 404
#     4  12  24  40  71 101 139 181 237 301 352 435
#
# _framework density 24.175865999999999
#
# number of rings (size 3 to 8) (size 9 to 14) (size 15 to 20)
#    0.000    0.909    5.455    3.273   10.182    0.727 
#    0.000    0.000    0.000    0.545    0.000    0.000 
#    0.000    0.000    0.000    0.000    0.000    0.000 
#
# Total GULP energy -245002.830013 kJ/mol
# GULP energy per Si atom -5568.246137 kJ/mol
# Density = 2.412084 g / cm^3
# Si number density = 24.175866 Si / 1000 Ang^3
#
#
#
# Elastic Constant Matrix: (Units=GPa)
#
#
# Indices 1 2 3 4 5 6 
#
# 1 107.7903 -0.4463 -3.6645 0.0000 0.0000 0.0000
# 2 -0.4463 127.5611 26.2736 0.0000 0.0000 0.0000
# 3 -3.6645 26.2736 146.2314 0.0000 0.0000 0.0000
# 4 0.0000 0.0000 0.0000 27.9123 0.0000 0.0000
# 5 0.0000 0.0000 0.0000 0.0000 20.1821 0.0000
# 6 0.0000 0.0000 0.0000 0.0000 0.0000 15.9111
#
#
#
# Elastic Compliance Matrix: (Units=1/GPa)
#
#
# Indices 1 2 3 4 5 6 
#
# 1 0.009285 -0.000016 0.000236 0.000000 0.000000 0.000000
# 2 -0.000016 0.008141 -0.001463 0.000000 0.000000 0.000000
# 3 0.000236 -0.001463 0.007107 0.000000 0.000000 0.000000
# 4 0.000000 0.000000 0.000000 0.035827 0.000000 0.000000
# 5 0.000000 0.000000 0.000000 0.000000 0.049549 0.000000
# 6 0.000000 0.000000 0.000000 0.000000 0.000000 0.062849
#
#
# Mechanical properties :
#
#
# Convention : Reuss Voigt Hill
#
# Bulk Modulus (GPa) = 45.35950 47.32316 46.34133
# Shear Modulus (GPa) = 27.38323 36.76241 32.07282
#
# Velocity S-wave (km/s) = 3.36916 3.90375 3.64627
# Velocity P-wave (km/s) = 5.82564 6.31950 6.07759
#
# Compressibility (1/GPa) = 0.02204610
#
# Stress axis : x y z
#
# Youngs Moduli (GPa) = 107.69811 122.84002 140.70139
#
# Poissons Ratio (x) = 0.00197 -0.03314
# Poissons Ratio (y) = 0.00173 0.20585
# Poissons Ratio (z) = -0.02537 0.17972
#
# Static dielectric constant tensor:
#      x y z
#    x 1.981380 0.000000 0.000000 
#    y 0.000000 1.852490 0.000000 
#    z 0.000000 0.000000 2.568630 
# 
# From -- ./inp_files/38459.got.cif
#   From: 2010.05.17/outbox.cif.g08.bks.cpg/sg68_20_cif.got.tgz:38459.got - 2010.06.03 18:57:09.
