data_PCOD9505055
_publ_section_title
;
Structure prediction by ZEFSAII (Michael W. Deem and Ramdas Pophale) SiO2 
 PCOD9505055
Probable space group: C M M A
;
_chemical_formula_sum "Si O2"
_cell_formula_units_Z 44
_cell_length_a 30.316108
_cell_length_b 10.438227
_cell_length_c 6.852802
_cell_angle_alpha 90.000000
_cell_angle_beta 90.000000
_cell_angle_gamma 90.000000
_cell_volume 2168.544640
_symmetry_space_group_name_H-M "C M M A"
_symmetry_group_IT_number 67
_symmetry_cell_setting 'orthorhombic'
loop_
_space_group_symop_operation_xyz
x,y,z
-x,1/2-y,z
x,-y,-z
-x,1/2+y,-z
-x,-y,-z
x,1/2+y,-z
-x,y,z
x,1/2-y,z
1/2+x,1/2+y,z
1/2-x,-y,z
1/2+x,1/2-y,-z
1/2-x,y,-z
1/2-x,1/2-y,-z
1/2+x,y,-z
1/2-x,1/2+y,z
1/2+x,-y,z
loop_
_atom_site_type_symbol
_atom_site_label
_atom_site_fract_x
_atom_site_fract_y
_atom_site_fract_z
Si Si1 0.750000 0.000000 0.500000
Si Si2 0.000000 0.102055 0.675301
Si Si3 0.308458 0.605471 0.842108
Si Si4 0.095821 0.897026 0.327170
O O1 0.718541 0.918648 0.643048
O O2 0.952155 0.086591 0.775155
O O3 0.000000 0.250000 0.603112
O O4 0.000000 0.000000 0.500000
O O5 0.300641 0.750000 0.911806
O O6 0.360580 0.589735 0.800377
O O7 0.296324 0.500000 0.000000
O O8 0.097114 0.750000 0.403699
O O9 0.098263 0.000000 0.500000
#
# Coordination Sequence:
#
# PCOD9505055 Si02
#       4
#     4   8  16  16
#     4  12  24  44  68  86 114 152 206 250 306 348
#     4   8  14  26  51  82 114 149 191 235 281 341
#     4  11  25  42  63  91 122 156 197 246 299 357
#     4   9  17  33  56  85 117 154 194 238 290 344
#
# _framework density 20.290106999999999
#
# number of rings (size 3 to 8) (size 9 to 14) (size 15 to 20)
#    0.000    2.182    1.818    1.091    0.000    5.818 
#    0.000    0.909    0.000    0.000    0.000    0.000 
#    0.000    0.000    0.000    0.000    0.000    0.000 
#
# Total GULP energy -122586.040970 kJ/mol
# GULP energy per Si atom -5572.092771 kJ/mol
# Density = 2.024393 g / cm^3
# Si number density = 20.290107 Si / 1000 Ang^3
#
#
#
# Elastic Constant Matrix: (Units=GPa)
#
#
# Indices 1 2 3 4 5 6 
#
# 1 195.6201 52.6771 39.1983 0.0000 0.0000 0.0000
# 2 52.6771 145.5139 65.4348 0.0000 0.0000 0.0000
# 3 39.1983 65.4348 66.4223 0.0000 0.0000 0.0000
# 4 0.0000 0.0000 0.0000 23.8716 0.0000 0.0000
# 5 0.0000 0.0000 0.0000 0.0000 7.3749 0.0000
# 6 0.0000 0.0000 0.0000 0.0000 0.0000 56.6910
#
#
#
# Elastic Compliance Matrix: (Units=1/GPa)
#
#
# Indices 1 2 3 4 5 6 
#
# 1 0.005881 -0.001020 -0.002465 0.000000 0.000000 0.000000
# 2 -0.001020 0.012515 -0.011727 0.000000 0.000000 0.000000
# 3 -0.002465 -0.011727 0.028062 0.000000 0.000000 0.000000
# 4 0.000000 0.000000 0.000000 0.041891 0.000000 0.000000
# 5 0.000000 0.000000 0.000000 0.000000 0.135595 0.000000
# 6 0.000000 0.000000 0.000000 0.000000 0.000000 0.017639
#
#
# Mechanical properties :
#
#
# Convention : Reuss Voigt Hill
#
# Bulk Modulus (GPa) = 62.36980 80.24187 71.30583
# Shear Modulus (GPa) = 18.02763 34.27057 26.14910
#
# Velocity S-wave (km/s) = 2.98399 4.11424 3.59383
# Velocity P-wave (km/s) = 6.53284 7.88685 7.24156
#
# Compressibility (1/GPa) = 0.01603340
#
# Stress axis : x y z
#
# Youngs Moduli (GPa) = 170.04823 79.90551 35.63485
#
# Poissons Ratio (x) = 0.08152 0.08785
# Poissons Ratio (y) = 0.17349 0.41788
# Poissons Ratio (z) = 0.41923 0.93702
#
# Static dielectric constant tensor:
#      x y z
#    x 1.798100 0.000000 0.000000 
#    y 0.000000 1.702740 0.000000 
#    z 0.000000 0.000000 1.671340 
# 
# From -- ./inp_files/5603.got.cif
#   From: 2010.05.17/outbox.cif.g08.bks.cpg/sg67_3_cif.got.tgz:5603.got - 2010.06.03 18:28:57.
