data_PCOD9505442
_publ_section_title
;
Structure prediction by ZEFSAII (Michael W. Deem and Ramdas Pophale) SiO2 
 PCOD9505442
Probable space group: C C C A
;
_chemical_formula_sum "Si O2"
_cell_formula_units_Z 56
_cell_length_a 5.361662
_cell_length_b 14.497849
_cell_length_c 31.043437
_cell_angle_alpha 90.000000
_cell_angle_beta 90.000000
_cell_angle_gamma 90.000000
_cell_volume 2413.086017
_symmetry_space_group_name_H-M "C C C A"
_symmetry_group_IT_number 68
_space_group.IT_coordinate_system_code '2'
_symmetry_cell_setting 'orthorhombic'
loop_
_space_group_symop_operation_xyz
x,y,z
-x,1/2-y,z
x,1/2-y,1/2-z
-x,y,1/2-z
-x,-y,-z
x,1/2+y,-z
-x,1/2+y,1/2+z
x,-y,1/2+z
1/2+x,1/2+y,z
1/2-x,-y,z
1/2+x,-y,1/2-z
1/2-x,1/2+y,1/2-z
1/2-x,1/2-y,-z
1/2+x,y,-z
1/2-x,y,1/2+z
1/2+x,1/2-y,1/2+z
loop_
_atom_site_type_symbol
_atom_site_label
_atom_site_fract_x
_atom_site_fract_y
_atom_site_fract_z
Si Si1 0.988735 0.639624 0.156628
Si Si2 0.486913 0.359837 0.612664
Si Si3 0.500000 0.559431 0.750000
Si Si4 0.798264 0.643053 0.984435
O O1 0.754171 0.604989 0.128588
O O2 0.000000 0.750000 0.151201
O O3 0.253551 0.603548 0.139690
O O4 0.955605 0.616983 0.206613
O O5 0.500000 0.250000 0.620740
O O6 0.416772 0.367016 0.562591
O O7 0.750000 0.500000 0.756557
O O8 0.750000 0.750000 0.000000
O O9 0.517675 0.604093 0.985189
#
# Coordination Sequence:
#
# PCOD9505442 Si02
#       4
#    16  16   8  16
#     4  10  22  37  59  85 118 152 189 236 305 344
#     4  10  18  30  49  80 118 160 180 231 280 355
#     4  12  25  44  65  84 112 150 204 246 289 356
#     4  10  17  24  42  71 118 162 185 213 281 339
#
# _framework density 23.206800000000001
#
# number of rings (size 3 to 8) (size 9 to 14) (size 15 to 20)
#    0.000    1.714    2.857    3.857    8.000    0.000 
#    0.000    5.714    0.000    0.000    0.000    0.000 
#    0.000   80.000    0.000    0.000    0.000    0.000 
#
# Total GULP energy -156398.955690 kJ/mol
# GULP energy per Si atom -5585.676989 kJ/mol
# Density = 2.315398 g / cm^3
# Si number density = 23.206800 Si / 1000 Ang^3
#
#
#
# Elastic Constant Matrix: (Units=GPa)
#
#
# Indices 1 2 3 4 5 6 
#
# 1 231.3562 18.4115 71.8797 0.0000 0.0000 0.0000
# 2 18.4115 80.1293 6.3155 0.0000 0.0000 0.0000
# 3 71.8797 6.3155 152.2821 0.0000 0.0000 0.0000
# 4 0.0000 0.0000 0.0000 -33.9866 0.0000 0.0000
# 5 0.0000 0.0000 0.0000 0.0000 48.4660 0.0000
# 6 0.0000 0.0000 0.0000 0.0000 0.0000 -10.8831
#
#
#
# Elastic Compliance Matrix: (Units=1/GPa)
#
#
# Indices 1 2 3 4 5 6 
#
# 1 0.005143 -0.000994 -0.002386 0.000000 0.000000 0.000000
# 2 -0.000994 0.012713 -0.000058 0.000000 0.000000 0.000000
# 3 -0.002386 -0.000058 0.007696 0.000000 0.000000 0.000000
# 4 0.000000 0.000000 0.000000 -0.029423 0.000000 0.000000
# 5 0.000000 0.000000 0.000000 0.000000 0.020633 0.000000
# 6 0.000000 0.000000 0.000000 0.000000 0.000000 -0.091886
#
#
# Mechanical properties :
#
#
# Convention : Reuss Voigt Hill
#
# Bulk Modulus (GPa) = 53.54798 72.99790 63.27294
# Shear Modulus (GPa) = -80.61391 25.19667 -27.70862
#
# Velocity S-wave (km/s) = -5.90022 3.29864 -3.45916
# Velocity P-wave (km/s) = 4.82623 6.78467 3.37189
#
# Compressibility (1/GPa) = 0.01867484
#
# Stress axis : x y z
#
# Youngs Moduli (GPa) = 194.44660 78.66136 129.94544
#
# Poissons Ratio (x) = 0.07816 0.31009
# Poissons Ratio (y) = 0.19320 0.00757
# Poissons Ratio (z) = 0.46400 0.00458
#
# Static dielectric constant tensor:
#      x y z
#    x 6.495930 0.000000 0.000000 
#    y 0.000000 1.986760 0.000000 
#    z 0.000000 0.000000 1.856120 
# 
# From -- ./inp_files/48008.got.cif
#   From: 2010.05.17/outbox.cif.g08.bks.cpg/sg68_25_cif.got.tgz:48008.got - 2010.06.03 18:57:09.
