data_PCOD9505380
_publ_section_title
;
Structure prediction by ZEFSAII (Michael W. Deem and Ramdas Pophale) SiO2 
 PCOD9505380
Probable space group: C C C A
;
_chemical_formula_sum "Si O2"
_cell_formula_units_Z 128
_cell_length_a 17.420035
_cell_length_b 19.023895
_cell_length_c 23.856725
_cell_angle_alpha 90.000000
_cell_angle_beta 90.000000
_cell_angle_gamma 90.000000
_cell_volume 7906.045108
_symmetry_space_group_name_H-M "C C C A"
_symmetry_group_IT_number 68
_space_group.IT_coordinate_system_code '2'
_symmetry_cell_setting 'orthorhombic'
loop_
_space_group_symop_operation_xyz
x,y,z
-x,1/2-y,z
x,1/2-y,1/2-z
-x,y,1/2-z
-x,-y,-z
x,1/2+y,-z
-x,1/2+y,1/2+z
x,-y,1/2+z
1/2+x,1/2+y,z
1/2-x,-y,z
1/2+x,-y,1/2-z
1/2-x,1/2+y,1/2-z
1/2-x,1/2-y,-z
1/2+x,y,-z
1/2-x,y,1/2+z
1/2+x,1/2-y,1/2+z
loop_
_atom_site_type_symbol
_atom_site_label
_atom_site_fract_x
_atom_site_fract_y
_atom_site_fract_z
Si Si1 0.776904 0.895538 0.194597
Si Si2 0.713843 0.074525 0.530787
Si Si3 0.012727 0.472103 0.814721
Si Si4 0.861731 0.533102 0.853839
Si Si5 0.508032 0.828089 0.627211
Si Si6 0.341576 0.344126 0.423144
Si Si7 0.312756 0.060870 0.180845
Si Si8 0.677373 0.684705 0.907357
O O1 0.686583 0.914532 0.186844
O O2 0.804070 0.900680 0.258659
O O3 0.796731 0.827626 0.157540
O O4 0.822653 0.958235 0.162081
O O5 0.659354 0.055875 0.583471
O O6 0.673751 0.112282 0.479004
O O7 0.776841 0.128683 0.555462
O O8 0.750000 0.000000 0.513118
O O9 0.103356 0.474783 0.825723
O O10 0.000000 0.486068 0.750000
O O11 0.952281 0.522374 0.846112
O O12 0.990225 0.391633 0.829128
O O13 0.500000 0.750000 0.652893
O O14 0.432443 0.839156 0.589824
O O15 0.586370 0.829623 0.592268
O O16 0.305554 0.384494 0.369894
O O17 0.310202 0.264725 0.425932
O O18 0.250000 0.000000 0.179331
#
# Coordination Sequence:
#
# PCOD9505380 Si02
#       8
#    16  16  16  16  16  16  16  16
#     4  10  16  31  55  73  98 129 168 204 250 296
#     4  11  19  35  55  71  96 131 178 213 240 295
#     4  11  17  28  49  74  99 127 168 206 250 294
#     4  10  17  31  52  77  90 131 174 211 238 289
#     4   9  18  31  44  67 101 132 157 194 252 307
#     4  10  23  32  47  76 106 133 162 205 263 308
#     4  11  20  33  48  73 113 137 160 208 259 306
#     4  10  18  35  55  72  96 132 173 210 249 295
#
# _framework density 16.190144
#
# number of rings (size 3 to 8) (size 9 to 14) (size 15 to 20)
#    0.000    1.750    6.250    0.750    0.000    0.750 
#    0.000   10.625    0.000    0.000    0.000    2.625 
#    0.000    8.000    0.000    0.000    0.000    0.000 
#
# Total GULP energy -356525.488719 kJ/mol
# GULP energy per Si atom -5570.710761 kJ/mol
# Density = 1.615329 g / cm^3
# Si number density = 16.190144 Si / 1000 Ang^3
#
#
#
# Elastic Constant Matrix: (Units=GPa)
#
#
# Indices 1 2 3 4 5 6 
#
# 1 70.1156 35.9896 17.4402 0.0000 0.0000 0.0000
# 2 35.9896 77.0649 41.2226 0.0000 0.0000 0.0000
# 3 17.4402 41.2226 87.8009 0.0000 0.0000 0.0000
# 4 0.0000 0.0000 0.0000 13.6156 0.0000 0.0000
# 5 0.0000 0.0000 0.0000 0.0000 10.2840 0.0000
# 6 0.0000 0.0000 0.0000 0.0000 0.0000 21.0798
#
#
#
# Elastic Compliance Matrix: (Units=1/GPa)
#
#
# Indices 1 2 3 4 5 6 
#
# 1 0.018776 -0.009045 0.000517 0.000000 0.000000 0.000000
# 2 -0.009045 0.021685 -0.008385 0.000000 0.000000 0.000000
# 3 0.000517 -0.008385 0.015223 0.000000 0.000000 0.000000
# 4 0.000000 0.000000 0.000000 0.073445 0.000000 0.000000
# 5 0.000000 0.000000 0.000000 0.000000 0.097238 0.000000
# 6 0.000000 0.000000 0.000000 0.000000 0.000000 0.047439
#
#
# Mechanical properties :
#
#
# Convention : Reuss Voigt Hill
#
# Bulk Modulus (GPa) = 45.74667 47.14288 46.44477
# Shear Modulus (GPa) = 15.87713 18.35116 17.11414
#
# Velocity S-wave (km/s) = 3.13496 3.37037 3.25479
# Velocity P-wave (km/s) = 6.43593 6.65788 6.54784
#
# Compressibility (1/GPa) = 0.02185952
#
# Stress axis : x y z
#
# Youngs Moduli (GPa) = 53.25840 46.11439 65.68906
#
# Poissons Ratio (x) = 0.41712 -0.03397
# Poissons Ratio (y) = 0.48174 0.55077
# Poissons Ratio (z) = -0.02754 0.38665
#
# Static dielectric constant tensor:
#      x y z
#    x 1.581380 0.000000 0.000000 
#    y 0.000000 1.548070 0.000000 
#    z 0.000000 0.000000 1.537010 
# 
# From -- ./inp_files/46198.got.cif
#   From: 2010.05.17/outbox.cif.g08.bks.cpg/sg68_24_cif.got.tgz:46198.got - 2010.06.03 18:57:09.
