data_PCOD9505980
_publ_section_title
;
Structure prediction by ZEFSAII (Michael W. Deem and Ramdas Pophale) SiO2 
 PCOD9505980
Probable space group: C C C A
;
_chemical_formula_sum "Si O2"
_cell_formula_units_Z 64
_cell_length_a 10.069729
_cell_length_b 16.109927
_cell_length_c 20.156163
_cell_angle_alpha 90.000000
_cell_angle_beta 90.000000
_cell_angle_gamma 90.000000
_cell_volume 3269.785150
_symmetry_space_group_name_H-M "C C C A"
_symmetry_group_IT_number 68
_space_group.IT_coordinate_system_code '2'
_symmetry_cell_setting 'orthorhombic'
loop_
_space_group_symop_operation_xyz
x,y,z
-x,1/2-y,z
x,1/2-y,1/2-z
-x,y,1/2-z
-x,-y,-z
x,1/2+y,-z
-x,1/2+y,1/2+z
x,-y,1/2+z
1/2+x,1/2+y,z
1/2-x,-y,z
1/2+x,-y,1/2-z
1/2-x,1/2+y,1/2-z
1/2-x,1/2-y,-z
1/2+x,y,-z
1/2-x,y,1/2+z
1/2+x,1/2-y,1/2+z
loop_
_atom_site_type_symbol
_atom_site_label
_atom_site_fract_x
_atom_site_fract_y
_atom_site_fract_z
Si Si1 0.446628 0.084440 0.847293
Si Si2 0.624446 0.439550 0.989323
Si Si3 0.196453 0.344447 0.272095
Si Si4 0.128712 0.933156 0.133994
O O1 0.399163 0.108323 0.920898
O O2 0.335697 0.098668 0.791766
O O3 0.572807 0.137920 0.822025
O O4 0.499804 0.989420 0.851458
O O5 0.750000 0.500000 0.981052
O O6 0.500000 0.500000 0.000000
O O7 0.631517 0.393871 0.060303
O O8 0.195702 0.250000 0.250000
O O9 0.330569 0.370134 0.309059
O O10 0.250000 0.000000 0.133025
#
# Coordination Sequence:
#
# PCOD9505980 Si02
#       4
#    16  16  16  16
#     4   9  17  29  50  78 101 139 187 228 273 333
#     4   9  17  31  52  81 112 142 187 242 286 332
#     4  10  19  32  51  80 112 142 179 230 281 332
#     4   8  16  31  49  74 106 140 179 228 278 330
#
# _framework density 19.573150999999999
#
# number of rings (size 3 to 8) (size 9 to 14) (size 15 to 20)
#    0.000    3.000    0.000    3.000    0.000    5.000 
#    0.000    1.250    0.000    0.000    0.000  101.500 
#    0.000    0.000    0.000    0.000    0.000    0.000 
#
# Total GULP energy -178264.156978 kJ/mol
# GULP energy per Si atom -5570.754906 kJ/mol
# Density = 1.952860 g / cm^3
# Si number density = 19.573151 Si / 1000 Ang^3
#
#
#
# Elastic Constant Matrix: (Units=GPa)
#
#
# Indices 1 2 3 4 5 6 
#
# 1 54.9060 17.9087 39.4046 0.0000 0.0000 0.0000
# 2 17.9087 56.1559 67.0431 0.0000 0.0000 0.0000
# 3 39.4046 67.0431 191.0755 0.0000 0.0000 0.0000
# 4 0.0000 0.0000 0.0000 -0.4880 0.0000 0.0000
# 5 0.0000 0.0000 0.0000 0.0000 28.1966 0.0000
# 6 0.0000 0.0000 0.0000 0.0000 0.0000 14.0645
#
#
#
# Elastic Compliance Matrix: (Units=1/GPa)
#
#
# Indices 1 2 3 4 5 6 
#
# 1 0.021613 -0.002704 -0.003508 0.000000 0.000000 0.000000
# 2 -0.002704 0.030983 -0.010313 0.000000 0.000000 0.000000
# 3 -0.003508 -0.010313 0.009576 0.000000 0.000000 0.000000
# 4 0.000000 0.000000 0.000000 -2.049201 0.000000 0.000000
# 5 0.000000 0.000000 0.000000 0.000000 0.035465 0.000000
# 6 0.000000 0.000000 0.000000 0.000000 0.000000 0.071101
#
#
# Mechanical properties :
#
#
# Convention : Reuss Voigt Hill
#
# Bulk Modulus (GPa) = 34.34091 61.20557 47.77324
# Shear Modulus (GPa) = -2.72078 20.20668 8.74295
#
# Velocity S-wave (km/s) = -1.18029 3.21653 2.11577
# Velocity P-wave (km/s) = 3.96555 6.71810 5.51627
#
# Compressibility (1/GPa) = 0.02911978
#
# Stress axis : x y z
#
# Youngs Moduli (GPa) = 46.26896 32.27598 104.43093
#
# Poissons Ratio (x) = 0.08728 0.36638
# Poissons Ratio (y) = 0.12511 1.07703
# Poissons Ratio (z) = 0.16233 0.33287
#
# Static dielectric constant tensor:
#      x y z
#    x 1.722690 0.000000 0.000000 
#    y 0.000000 1.677140 0.000000 
#    z 0.000000 0.000000 1.779030 
# 
# From -- ./inp_files/29281.got.cif
#   From: 2010.05.17/outbox.cif.g08.bks.cpg/sg68_15_cif.got.tgz:29281.got - 2010.06.03 18:57:09.
