data_PCOD9505426
_publ_section_title
;
Structure prediction by ZEFSAII (Michael W. Deem and Ramdas Pophale) SiO2 
 PCOD9505426
Probable space group: C C C A
;
_chemical_formula_sum "Si O2"
_cell_formula_units_Z 64
_cell_length_a 17.213788
_cell_length_b 11.558295
_cell_length_c 13.890240
_cell_angle_alpha 90.000000
_cell_angle_beta 90.000000
_cell_angle_gamma 90.000000
_cell_volume 2763.630483
_symmetry_space_group_name_H-M "C C C A"
_symmetry_group_IT_number 68
_space_group.IT_coordinate_system_code '2'
_symmetry_cell_setting 'orthorhombic'
loop_
_space_group_symop_operation_xyz
x,y,z
-x,1/2-y,z
x,1/2-y,1/2-z
-x,y,1/2-z
-x,-y,-z
x,1/2+y,-z
-x,1/2+y,1/2+z
x,-y,1/2+z
1/2+x,1/2+y,z
1/2-x,-y,z
1/2+x,-y,1/2-z
1/2-x,1/2+y,1/2-z
1/2-x,1/2-y,-z
1/2+x,y,-z
1/2-x,y,1/2+z
1/2+x,1/2-y,1/2+z
loop_
_atom_site_type_symbol
_atom_site_label
_atom_site_fract_x
_atom_site_fract_y
_atom_site_fract_z
Si Si1 0.730614 0.243862 0.386058
Si Si2 0.250000 0.000000 0.053940
Si Si3 0.000000 0.250000 0.999881
Si Si4 0.608283 0.165393 0.666031
Si Si5 0.609473 0.423280 0.405636
O O1 0.750000 0.250000 0.500000
O O2 0.730933 0.106972 0.376182
O O3 0.800223 0.313107 0.338328
O O4 0.653510 0.312614 0.362056
O O5 0.173575 0.028044 0.985809
O O6 0.929231 0.211858 0.067811
O O7 0.968518 0.364676 0.946872
O O8 0.580341 0.250000 0.750000
O O9 0.592873 0.028978 0.665941
#
# Coordination Sequence:
#
# PCOD9505426 Si02
#       5
#    16   8   8  16  16
#     4  10  18  38  66  93 132 182 236 289 329 430
#     4  10  16  36  68  96 132 168 250 286 326 414
#     4  12  23  40  68 106 135 192 240 286 355 440
#     4  12  24  40  63 105 146 181 228 303 369 414
#     4  11  20  40  70  98 136 183 250 287 342 441
#
# _framework density 23.157944000000001
#
# number of rings (size 3 to 8) (size 9 to 14) (size 15 to 20)
#    0.000    1.000   10.000    1.125    0.000    0.000 
#    4.500    0.000    0.000    0.000    0.000    0.000 
#    0.000    0.000    0.000    0.000    0.000    0.000 
#
# Total GULP energy -178565.094261 kJ/mol
# GULP energy per Si atom -5580.159196 kJ/mol
# Density = 2.310524 g / cm^3
# Si number density = 23.157944 Si / 1000 Ang^3
#
#
#
# Elastic Constant Matrix: (Units=GPa)
#
#
# Indices 1 2 3 4 5 6 
#
# 1 60.2616 16.3418 31.2612 0.0000 0.0000 0.0000
# 2 16.3418 232.8246 55.7904 0.0000 0.0000 0.0000
# 3 31.2612 55.7904 61.4557 0.0000 0.0000 0.0000
# 4 0.0000 0.0000 0.0000 27.8371 0.0000 0.0000
# 5 0.0000 0.0000 0.0000 0.0000 17.1698 0.0000
# 6 0.0000 0.0000 0.0000 0.0000 0.0000 16.1079
#
#
#
# Elastic Compliance Matrix: (Units=1/GPa)
#
#
# Indices 1 2 3 4 5 6 
#
# 1 0.022955 0.001517 -0.013053 0.000000 0.000000 0.000000
# 2 0.001517 0.005589 -0.005846 0.000000 0.000000 0.000000
# 3 -0.013053 -0.005846 0.028219 0.000000 0.000000 0.000000
# 4 0.000000 0.000000 0.000000 0.035923 0.000000 0.000000
# 5 0.000000 0.000000 0.000000 0.000000 0.058242 0.000000
# 6 0.000000 0.000000 0.000000 0.000000 0.000000 0.062081
#
#
# Mechanical properties :
#
#
# Convention : Reuss Voigt Hill
#
# Bulk Modulus (GPa) = 45.45879 62.36986 53.91433
# Shear Modulus (GPa) = 19.59966 28.96618 24.28292
#
# Velocity S-wave (km/s) = 2.91236 3.54052 3.24169
# Velocity P-wave (km/s) = 5.56611 6.61094 6.11090
#
# Compressibility (1/GPa) = 0.02199794
#
# Stress axis : x y z
#
# Youngs Moduli (GPa) = 43.56432 178.91076 35.43759
#
# Poissons Ratio (x) = -0.27136 0.46258
# Poissons Ratio (y) = -0.06608 0.20716
# Poissons Ratio (z) = 0.56866 1.04585
#
# Static dielectric constant tensor:
#      x y z
#    x 1.869920 0.000000 0.000000 
#    y 0.000000 2.467460 0.000000 
#    z 0.000000 0.000000 2.057470 
# 
# From -- ./inp_files/23207.got.cif
#   From: 2010.05.17/outbox.cif.g08.bks.cpg/sg68_12_cif.got.tgz:23207.got - 2010.06.03 18:57:09.
