data_PCOD9506442
_publ_section_title
;
Structure prediction by ZEFSAII (Michael W. Deem and Ramdas Pophale) SiO2 
 PCOD9506442
Probable space group: C C C A
;
_chemical_formula_sum "Si O2"
_cell_formula_units_Z 116
_cell_length_a 18.322265
_cell_length_b 12.854833
_cell_length_c 23.367617
_cell_angle_alpha 90.000000
_cell_angle_beta 90.000000
_cell_angle_gamma 90.000000
_cell_volume 5503.766811
_symmetry_space_group_name_H-M "C C C A"
_symmetry_group_IT_number 68
_space_group.IT_coordinate_system_code '2'
_symmetry_cell_setting 'orthorhombic'
loop_
_space_group_symop_operation_xyz
x,y,z
-x,1/2-y,z
x,1/2-y,1/2-z
-x,y,1/2-z
-x,-y,-z
x,1/2+y,-z
-x,1/2+y,1/2+z
x,-y,1/2+z
1/2+x,1/2+y,z
1/2-x,-y,z
1/2+x,-y,1/2-z
1/2-x,1/2+y,1/2-z
1/2-x,1/2-y,-z
1/2+x,y,-z
1/2-x,y,1/2+z
1/2+x,1/2-y,1/2+z
loop_
_atom_site_type_symbol
_atom_site_label
_atom_site_fract_x
_atom_site_fract_y
_atom_site_fract_z
Si Si1 0.417262 0.574860 0.324273
Si Si2 0.392188 0.653690 0.793509
Si Si3 0.285061 0.098100 0.526504
Si Si4 0.232581 0.308005 0.584089
Si Si5 0.000000 0.750000 0.750000
Si Si6 0.276401 0.795130 0.189134
Si Si7 0.564993 0.991083 0.453945
Si Si8 0.422135 0.785311 0.581911
O O1 0.414015 0.468023 0.286354
O O2 0.457878 0.669004 0.291891
O O3 0.335331 0.621062 0.331902
O O4 0.449375 0.546287 0.387822
O O5 0.406427 0.750000 0.750000
O O6 0.304565 0.656360 0.804406
O O7 0.431514 0.684487 0.852043
O O8 0.264996 0.201842 0.558850
O O9 0.250297 0.107737 0.463287
O O10 0.371295 0.083099 0.523858
O O11 0.250000 0.000000 0.557281
O O12 0.264665 0.304619 0.647314
O O13 0.145146 0.293580 0.583083
O O14 0.300012 0.750000 0.250000
O O15 0.500000 0.000000 0.500000
O O16 0.597850 0.107533 0.449178
O O17 0.500000 0.750000 0.558433
#
# Coordination Sequence:
#
# PCOD9506442 Si02
#       8
#    16  16  16  16   4  16  16  16
#     4  11  23  44  68  93 142 180 228 278 340 429
#     4   9  21  37  67 103 123 170 224 285 340 385
#     4  11  21  39  62  91 126 166 220 273 335 398
#     4  10  21  37  63  92 125 167 217 273 332 400
#     4  12  28  48  62 104 136 200 222 260 360 432
#     4  10  19  40  69  98 128 170 227 278 337 408
#     4  11  23  41  64  96 128 177 227 277 339 400
#     4  10  20  36  59  88 129 165 210 271 330 400
#
# _framework density 21.076473
#
# number of rings (size 3 to 8) (size 9 to 14) (size 15 to 20)
#    0.000    1.655    3.448    1.241    0.000    2.483 
#    6.207    5.517    0.000    0.000    0.000    0.000 
#    0.000    0.000    0.000    0.000    0.000    0.000 
#
# Total GULP energy -323091.009678 kJ/mol
# GULP energy per Si atom -5570.534650 kJ/mol
# Density = 2.102850 g / cm^3
# Si number density = 21.076473 Si / 1000 Ang^3
#
#
#
# Elastic Constant Matrix: (Units=GPa)
#
#
# Indices 1 2 3 4 5 6 
#
# 1 83.1849 22.7139 19.8791 0.0000 0.0000 0.0000
# 2 22.7139 99.5480 29.3092 0.0000 0.0000 0.0000
# 3 19.8791 29.3092 107.7038 0.0000 0.0000 0.0000
# 4 0.0000 0.0000 0.0000 23.2606 0.0000 0.0000
# 5 0.0000 0.0000 0.0000 0.0000 29.3193 0.0000
# 6 0.0000 0.0000 0.0000 0.0000 0.0000 24.3994
#
#
#
# Elastic Compliance Matrix: (Units=1/GPa)
#
#
# Indices 1 2 3 4 5 6 
#
# 1 0.013115 -0.002478 -0.001746 0.000000 0.000000 0.000000
# 2 -0.002478 0.011389 -0.002642 0.000000 0.000000 0.000000
# 3 -0.001746 -0.002642 0.010326 0.000000 0.000000 0.000000
# 4 0.000000 0.000000 0.000000 0.042991 0.000000 0.000000
# 5 0.000000 0.000000 0.000000 0.000000 0.034107 0.000000
# 6 0.000000 0.000000 0.000000 0.000000 0.000000 0.040985
#
#
# Mechanical properties :
#
#
# Convention : Reuss Voigt Hill
#
# Bulk Modulus (GPa) = 47.39967 48.24902 47.82435
# Shear Modulus (GPa) = 28.78888 29.96485 29.37686
#
# Velocity S-wave (km/s) = 3.69985 3.77466 3.73744
# Velocity P-wave (km/s) = 6.38671 6.47607 6.43155
#
# Compressibility (1/GPa) = 0.02109719
#
# Stress axis : x y z
#
# Youngs Moduli (GPa) = 76.24587 87.80640 96.84353
#
# Poissons Ratio (x) = 0.21762 0.16912
# Poissons Ratio (y) = 0.18897 0.25584
# Poissons Ratio (z) = 0.13315 0.23196
#
# Static dielectric constant tensor:
#      x y z
#    x 1.791350 0.000000 0.000000 
#    y 0.000000 1.834130 0.000000 
#    z 0.000000 0.000000 1.816210 
# 
# From -- ./inp_files/51489.got.cif
#   From: 2010.05.17/outbox.cif.g08.bks.cpg/sg68_26_cif.got.tgz:51489.got - 2010.06.03 18:57:09.
