data_PCOD9506266
_publ_section_title
;
Structure prediction by ZEFSAII (Michael W. Deem and Ramdas Pophale) SiO2 
 PCOD9506266
Probable space group: C C C A
;
_chemical_formula_sum "Si O2"
_cell_formula_units_Z 72
_cell_length_a 13.770346
_cell_length_b 24.675280
_cell_length_c 9.342994
_cell_angle_alpha 90.000000
_cell_angle_beta 90.000000
_cell_angle_gamma 90.000000
_cell_volume 3174.629241
_symmetry_space_group_name_H-M "C C C A"
_symmetry_group_IT_number 68
_space_group.IT_coordinate_system_code '2'
_symmetry_cell_setting 'orthorhombic'
loop_
_space_group_symop_operation_xyz
x,y,z
-x,1/2-y,z
x,1/2-y,1/2-z
-x,y,1/2-z
-x,-y,-z
x,1/2+y,-z
-x,1/2+y,1/2+z
x,-y,1/2+z
1/2+x,1/2+y,z
1/2-x,-y,z
1/2+x,-y,1/2-z
1/2-x,1/2+y,1/2-z
1/2-x,1/2-y,-z
1/2+x,y,-z
1/2-x,y,1/2+z
1/2+x,1/2-y,1/2+z
loop_
_atom_site_type_symbol
_atom_site_label
_atom_site_fract_x
_atom_site_fract_y
_atom_site_fract_z
Si Si1 0.151871 0.688851 0.745036
Si Si2 0.664489 0.036262 0.045972
Si Si3 0.705416 0.138644 0.445827
Si Si4 0.549123 0.058060 0.435110
Si Si5 0.000000 0.399490 0.250000
O O1 0.116084 0.750000 0.750000
O O2 0.247929 0.680172 0.836786
O O3 0.174124 0.670946 0.585118
O O4 0.080163 0.642904 0.804840
O O5 0.750000 0.000000 0.118563
O O6 0.618797 0.994916 0.926525
O O7 0.720730 0.089656 0.991643
O O8 0.561358 0.051831 0.118911
O O9 0.611215 0.108636 0.383895
O O10 0.538240 0.068586 0.610402
#
# Coordination Sequence:
#
# PCOD9506266 Si02
#       5
#    16  16  16  16   8
#     4  11  22  39  62  85 115 159 208 259 305 351
#     4   9  17  35  55  85 122 158 190 239 298 366
#     4  10  21  38  59  87 121 154 200 252 302 360
#     4   9  18  34  56  87 119 158 196 241 299 366
#     4  10  19  36  60  86 114 158 213 250 294 370
#
# _framework density 22.679812999999999
#
# number of rings (size 3 to 8) (size 9 to 14) (size 15 to 20)
#    0.000    2.222    2.222    1.000    0.000    0.000 
#   12.000    0.000    0.000    1.333    0.000    0.000 
#    0.000    0.000    0.000    0.000    0.000    0.000 
#
# Total GULP energy -200745.221354 kJ/mol
# GULP energy per Si atom -5576.256149 kJ/mol
# Density = 2.262819 g / cm^3
# Si number density = 22.679813 Si / 1000 Ang^3
#
#
#
# Elastic Constant Matrix: (Units=GPa)
#
#
# Indices 1 2 3 4 5 6 
#
# 1 143.8008 29.1570 9.8876 0.0000 0.0000 0.0000
# 2 29.1570 109.2353 22.4741 0.0000 0.0000 0.0000
# 3 9.8876 22.4741 35.2509 0.0000 0.0000 0.0000
# 4 0.0000 0.0000 0.0000 12.2311 0.0000 0.0000
# 5 0.0000 0.0000 0.0000 0.0000 21.3801 0.0000
# 6 0.0000 0.0000 0.0000 0.0000 0.0000 8.1441
#
#
#
# Elastic Compliance Matrix: (Units=1/GPa)
#
#
# Indices 1 2 3 4 5 6 
#
# 1 0.007379 -0.001777 -0.000937 0.000000 0.000000 0.000000
# 2 -0.001777 0.010964 -0.006492 0.000000 0.000000 0.000000
# 3 -0.000937 -0.006492 0.032770 0.000000 0.000000 0.000000
# 4 0.000000 0.000000 0.000000 0.081759 0.000000 0.000000
# 5 0.000000 0.000000 0.000000 0.000000 0.046773 0.000000
# 6 0.000000 0.000000 0.000000 0.000000 0.000000 0.122788
#
#
# Mechanical properties :
#
#
# Convention : Reuss Voigt Hill
#
# Bulk Modulus (GPa) = 30.57947 45.70270 38.14109
# Shear Modulus (GPa) = 15.07183 23.46894 19.27039
#
# Velocity S-wave (km/s) = 2.58068 3.22031 2.91807
# Velocity P-wave (km/s) = 4.73205 5.83286 5.31105
#
# Compressibility (1/GPa) = 0.03270167
#
# Stress axis : x y z
#
# Youngs Moduli (GPa) = 135.52445 91.20373 30.51594
#
# Poissons Ratio (x) = 0.16205 0.02859
# Poissons Ratio (y) = 0.24080 0.19811
# Poissons Ratio (z) = 0.12697 0.59209
#
# Static dielectric constant tensor:
#      x y z
#    x 1.946140 0.000000 0.000000 
#    y 0.000000 1.816570 0.000000 
#    z 0.000000 0.000000 1.912010 
# 
# From -- ./inp_files/13110.got.cif
#   From: 2010.05.17/outbox.cif.g08.bks.cpg/sg68_7_cif.got.tgz:13110.got - 2010.06.03 18:57:09.
