data_PCOD9506792
_publ_section_title
;
Structure prediction by ZEFSAII (Michael W. Deem and Ramdas Pophale) SiO2 
 PCOD9506792
Probable space group: C C C A
;
_chemical_formula_sum "Si O2"
_cell_formula_units_Z 84
_cell_length_a 13.065361
_cell_length_b 14.840370
_cell_length_c 18.602257
_cell_angle_alpha 90.000000
_cell_angle_beta 90.000000
_cell_angle_gamma 90.000000
_cell_volume 3606.880741
_symmetry_space_group_name_H-M "C C C A"
_symmetry_group_IT_number 68
_space_group.IT_coordinate_system_code '2'
_symmetry_cell_setting 'orthorhombic'
loop_
_space_group_symop_operation_xyz
x,y,z
-x,1/2-y,z
x,1/2-y,1/2-z
-x,y,1/2-z
-x,-y,-z
x,1/2+y,-z
-x,1/2+y,1/2+z
x,-y,1/2+z
1/2+x,1/2+y,z
1/2-x,-y,z
1/2+x,-y,1/2-z
1/2-x,1/2+y,1/2-z
1/2-x,1/2-y,-z
1/2+x,y,-z
1/2-x,y,1/2+z
1/2+x,1/2-y,1/2+z
loop_
_atom_site_type_symbol
_atom_site_label
_atom_site_fract_x
_atom_site_fract_y
_atom_site_fract_z
Si Si1 0.822146 0.128956 0.808113
Si Si2 0.000000 0.750000 0.250000
Si Si3 0.876690 0.132151 0.124828
Si Si4 0.807430 0.837413 0.032203
Si Si5 0.500000 0.750000 0.010716
Si Si6 0.250000 0.500000 0.928750
Si Si7 0.847361 0.250000 0.250000
Si Si8 0.250000 0.000000 0.319120
O O1 0.723942 0.196193 0.807161
O O2 0.923965 0.186688 0.796486
O O3 0.820435 0.060526 0.875494
O O4 0.793943 0.073174 0.737114
O O5 0.757533 0.146759 0.102820
O O6 0.944808 0.176450 0.063012
O O7 0.905293 0.179872 0.199249
O O8 0.855788 0.027353 0.138893
O O9 0.750000 0.750000 0.000000
O O10 0.799924 0.924213 0.980127
O O11 0.922017 0.804986 0.037489
#
# Coordination Sequence:
#
# PCOD9506792 Si02
#       8
#    16   4  16  16   8   8   8   8
#     4   9  19  35  57  88 123 167 214 261 332 396
#     4  10  20  36  58  94 134 164 216 292 340 386
#     4  10  20  39  61  89 122 160 208 264 327 385
#     4  10  22  41  62  89 129 168 214 275 333 400
#     4  10  22  39  63  93 123 166 216 266 330 392
#     4  11  21  40  66  88 123 179 224 264 332 409
#     4   9  18  38  64  87 124 168 204 262 330 392
#     4   9  19  36  58  80 119 161 204 264 322 389
#
# _framework density 23.288820999999999
#
# number of rings (size 3 to 8) (size 9 to 14) (size 15 to 20)
#    0.000    2.286    0.000    2.857    0.000    1.905 
#    0.000   32.381    0.000    0.000    0.000    0.000 
#    0.000    0.000    0.000    0.000    0.000    0.000 
#
# Total GULP energy -233947.060948 kJ/mol
# GULP energy per Si atom -5570.168118 kJ/mol
# Density = 2.323581 g / cm^3
# Si number density = 23.288821 Si / 1000 Ang^3
#
#
#
# Elastic Constant Matrix: (Units=GPa)
#
#
# Indices 1 2 3 4 5 6 
#
# 1 89.8406 25.6406 24.2221 0.0000 0.0000 0.0000
# 2 25.6406 106.5981 17.7159 0.0000 0.0000 0.0000
# 3 24.2221 17.7159 80.0223 0.0000 0.0000 0.0000
# 4 0.0000 0.0000 0.0000 11.8334 0.0000 0.0000
# 5 0.0000 0.0000 0.0000 0.0000 -6.6201 0.0000
# 6 0.0000 0.0000 0.0000 0.0000 0.0000 41.2038
#
#
#
# Elastic Compliance Matrix: (Units=1/GPa)
#
#
# Indices 1 2 3 4 5 6 
#
# 1 0.012738 -0.002516 -0.003299 0.000000 0.000000 0.000000
# 2 -0.002516 0.010236 -0.001505 0.000000 0.000000 0.000000
# 3 -0.003299 -0.001505 0.013828 0.000000 0.000000 0.000000
# 4 0.000000 0.000000 0.000000 0.084507 0.000000 0.000000
# 5 0.000000 0.000000 0.000000 0.000000 -0.151056 0.000000
# 6 0.000000 0.000000 0.000000 0.000000 0.000000 0.024270
#
#
# Mechanical properties :
#
#
# Convention : Reuss Voigt Hill
#
# Bulk Modulus (GPa) = 45.11790 45.73535 45.42663
# Shear Modulus (GPa) = 302.13083 23.20893 162.66988
#
# Velocity S-wave (km/s) = 11.40236 3.16027 8.36663
# Velocity P-wave (km/s) = 13.88405 5.74434 10.62460
#
# Compressibility (1/GPa) = 0.02216415
#
# Stress axis : x y z
#
# Youngs Moduli (GPa) = 78.50390 97.69225 72.31625
#
# Poissons Ratio (x) = 0.24577 0.23856
# Poissons Ratio (y) = 0.19750 0.10881
# Poissons Ratio (z) = 0.25897 0.14699
#
# Static dielectric constant tensor:
#      x y z
#    x 1.952540 0.000000 0.000000 
#    y 0.000000 1.867200 0.000000 
#    z 0.000000 0.000000 1.884490 
# 
# From -- ./inp_files/38521.got.cif
#   From: 2010.05.17/outbox.cif.g08.bks.cpg/sg68_20_cif.got.tgz:38521.got - 2010.06.03 18:57:09.
