data_PCOD9506298
_publ_section_title
;
Structure prediction by ZEFSAII (Michael W. Deem and Ramdas Pophale) SiO2 
 PCOD9506298
Probable space group: C C C A
;
_chemical_formula_sum "Si O2"
_cell_formula_units_Z 96
_cell_length_a 13.422291
_cell_length_b 21.927163
_cell_length_c 18.246645
_cell_angle_alpha 90.000000
_cell_angle_beta 90.000000
_cell_angle_gamma 90.000000
_cell_volume 5370.220498
_symmetry_space_group_name_H-M "C C C A"
_symmetry_group_IT_number 68
_space_group.IT_coordinate_system_code '2'
_symmetry_cell_setting 'orthorhombic'
loop_
_space_group_symop_operation_xyz
x,y,z
-x,1/2-y,z
x,1/2-y,1/2-z
-x,y,1/2-z
-x,-y,-z
x,1/2+y,-z
-x,1/2+y,1/2+z
x,-y,1/2+z
1/2+x,1/2+y,z
1/2-x,-y,z
1/2+x,-y,1/2-z
1/2-x,1/2+y,1/2-z
1/2-x,1/2-y,-z
1/2+x,y,-z
1/2-x,y,1/2+z
1/2+x,1/2-y,1/2+z
loop_
_atom_site_type_symbol
_atom_site_label
_atom_site_fract_x
_atom_site_fract_y
_atom_site_fract_z
Si Si1 0.285371 0.810714 0.296345
Si Si2 0.497607 0.404148 0.039845
Si Si3 0.637932 0.019272 0.937075
Si Si4 0.042387 0.684483 0.590014
Si Si5 0.088474 0.103141 0.197797
Si Si6 0.449827 0.816192 0.826115
O O1 0.307581 0.750000 0.250000
O O2 0.352271 0.809666 0.369282
O O3 0.325242 0.867101 0.247279
O O4 0.168511 0.811327 0.313514
O O5 0.569456 0.459327 0.062042
O O6 0.470556 0.362647 0.108553
O O7 0.403322 0.435430 0.999796
O O8 0.546944 0.361416 0.977855
O O9 0.627314 0.053893 0.859702
O O10 0.750000 0.000000 0.951058
O O11 0.000000 0.750000 0.567136
O O12 0.966026 0.655898 0.649857
O O13 0.000000 0.078577 0.250000
O O14 0.500000 0.750000 0.841822
O O15 0.500000 0.837148 0.750000
#
# Coordination Sequence:
#
# PCOD9506298 Si02
#       6
#    16  16  16  16  16  16
#     4  11  20  36  63  95 124 157 190 244 309 367
#     4  10  24  43  60  86 124 158 207 253 296 356
#     4  10  23  42  64  84 117 165 208 255 294 347
#     4  10  19  36  65  94 120 151 194 253 303 354
#     4   9  20  37  61  92 121 150 203 250 301 356
#     4  11  24  41  59  89 130 161 195 246 312 372
#
# _framework density 17.876359999999998
#
# number of rings (size 3 to 8) (size 9 to 14) (size 15 to 20)
#    0.000    1.833    3.333    0.500    4.667    0.667 
#    0.000    1.667    0.000    0.000    0.000    0.000 
#    0.000    0.000    0.000    0.000    0.000    0.000 
#
# Total GULP energy -267965.447383 kJ/mol
# GULP energy per Si atom -5582.613487 kJ/mol
# Density = 1.783567 g / cm^3
# Si number density = 17.876360 Si / 1000 Ang^3
#
#
#
# Elastic Constant Matrix: (Units=GPa)
#
#
# Indices 1 2 3 4 5 6 
#
# 1 147.5442 68.9269 67.4743 0.0000 0.0000 0.0000
# 2 68.9269 105.6814 82.3213 0.0000 0.0000 0.0000
# 3 67.4743 82.3213 122.6854 0.0000 0.0000 0.0000
# 4 0.0000 0.0000 0.0000 18.6568 0.0000 0.0000
# 5 0.0000 0.0000 0.0000 0.0000 3.3463 0.0000
# 6 0.0000 0.0000 0.0000 0.0000 0.0000 17.9923
#
#
#
# Elastic Compliance Matrix: (Units=1/GPa)
#
#
# Indices 1 2 3 4 5 6 
#
# 1 0.010066 -0.004720 -0.002369 0.000000 0.000000 0.000000
# 2 -0.004720 0.022037 -0.012191 0.000000 0.000000 0.000000
# 3 -0.002369 -0.012191 0.017634 0.000000 0.000000 0.000000
# 4 0.000000 0.000000 0.000000 0.053600 0.000000 0.000000
# 5 0.000000 0.000000 0.000000 0.000000 0.298836 0.000000
# 6 0.000000 0.000000 0.000000 0.000000 0.000000 0.055579
#
#
# Mechanical properties :
#
#
# Convention : Reuss Voigt Hill
#
# Bulk Modulus (GPa) = 89.46739 90.37289 89.92014
# Shear Modulus (GPa) = 9.99927 18.47833 14.23880
#
# Velocity S-wave (km/s) = 2.36764 3.21857 2.82532
# Velocity P-wave (km/s) = 7.59150 8.02972 7.81368
#
# Compressibility (1/GPa) = 0.01117726
#
# Stress axis : x y z
#
# Youngs Moduli (GPa) = 99.34505 45.37855 56.70879
#
# Poissons Ratio (x) = 0.21417 0.13435
# Poissons Ratio (y) = 0.46888 0.69133
# Poissons Ratio (z) = 0.23536 0.55321
#
# Static dielectric constant tensor:
#      x y z
#    x 1.587230 0.000000 0.000000 
#    y 0.000000 1.597820 0.000000 
#    z 0.000000 0.000000 1.597540 
# 
# From -- ./inp_files/29820.got.cif
#   From: 2010.05.17/outbox.cif.g08.bks.cpg/sg68_15_cif.got.tgz:29820.got - 2010.06.03 18:57:09.
