data_PCOD9506865
_publ_section_title
;
Structure prediction by ZEFSAII (Michael W. Deem and Ramdas Pophale) SiO2 
 PCOD9506865
Probable space group: C C C A
;
_chemical_formula_sum "Si O2"
_cell_formula_units_Z 64
_cell_length_a 15.378047
_cell_length_b 21.065444
_cell_length_c 8.831743
_cell_angle_alpha 90.000000
_cell_angle_beta 90.000000
_cell_angle_gamma 90.000000
_cell_volume 2861.002412
_symmetry_space_group_name_H-M "C C C A"
_symmetry_group_IT_number 68
_space_group.IT_coordinate_system_code '2'
_symmetry_cell_setting 'orthorhombic'
loop_
_space_group_symop_operation_xyz
x,y,z
-x,1/2-y,z
x,1/2-y,1/2-z
-x,y,1/2-z
-x,-y,-z
x,1/2+y,-z
-x,1/2+y,1/2+z
x,-y,1/2+z
1/2+x,1/2+y,z
1/2-x,-y,z
1/2+x,-y,1/2-z
1/2-x,1/2+y,1/2-z
1/2-x,1/2-y,-z
1/2+x,y,-z
1/2-x,y,1/2+z
1/2+x,1/2-y,1/2+z
loop_
_atom_site_type_symbol
_atom_site_label
_atom_site_fract_x
_atom_site_fract_y
_atom_site_fract_z
Si Si1 0.834180 0.918771 0.007904
Si Si2 0.174235 0.333846 0.008135
Si Si3 0.513352 0.571607 0.431503
Si Si4 0.230040 0.250000 0.750000
Si Si5 0.750000 0.500000 0.732129
O O1 0.763023 0.868612 0.963647
O O2 0.800084 0.950652 0.161289
O O3 0.930879 0.893362 0.007036
O O4 0.822688 0.970908 0.876399
O O5 0.100296 0.387576 0.033253
O O6 0.204240 0.295985 0.157559
O O7 0.166608 0.284851 0.870094
O O8 0.500000 0.569561 0.250000
O O9 0.500000 0.500000 0.500000
#
# Coordination Sequence:
#
# PCOD9506865 Si02
#       5
#    16  16  16   8   8
#     4  11  21  39  62  94 131 170 217 269 337 405
#     4  11  24  45  70  95 132 179 234 291 341 404
#     4  12  25  41  67 103 141 178 222 283 357 426
#     4  10  24  48  70  94 134 188 240 284 334 404
#     4  10  20  36  64  96 138 176 204 266 346 418
#
# _framework density 22.369779999999999
#
# number of rings (size 3 to 8) (size 9 to 14) (size 15 to 20)
#    0.000    1.000    0.000    9.000    0.000    2.000 
#    0.000   13.125    0.000    0.000    0.000    0.000 
#    0.000    0.000    0.000    0.000    0.000    0.000 
#
# Total GULP energy -178663.780668 kJ/mol
# GULP energy per Si atom -5583.243146 kJ/mol
# Density = 2.231887 g / cm^3
# Si number density = 22.369780 Si / 1000 Ang^3
#
#
#
# Elastic Constant Matrix: (Units=GPa)
#
#
# Indices 1 2 3 4 5 6 
#
# 1 154.7328 50.2184 28.9426 0.0000 0.0000 0.0000
# 2 50.2184 86.8024 62.3514 0.0000 0.0000 0.0000
# 3 28.9426 62.3514 133.9944 0.0000 0.0000 0.0000
# 4 0.0000 0.0000 0.0000 151.5077 0.0000 0.0000
# 5 0.0000 0.0000 0.0000 0.0000 20.7789 0.0000
# 6 0.0000 0.0000 0.0000 0.0000 0.0000 8.4141
#
#
#
# Elastic Compliance Matrix: (Units=1/GPa)
#
#
# Indices 1 2 3 4 5 6 
#
# 1 0.007993 -0.005083 0.000639 0.000000 0.000000 0.000000
# 2 -0.005083 0.020537 -0.008459 0.000000 0.000000 0.000000
# 3 0.000639 -0.008459 0.011261 0.000000 0.000000 0.000000
# 4 0.000000 0.000000 0.000000 0.006600 0.000000 0.000000
# 5 0.000000 0.000000 0.000000 0.000000 0.048126 0.000000
# 6 0.000000 0.000000 0.000000 0.000000 0.000000 0.118848
#
#
# Mechanical properties :
#
#
# Convention : Reuss Voigt Hill
#
# Bulk Modulus (GPa) = 71.50295 73.17271 72.33783
# Shear Modulus (GPa) = 20.50587 51.74128 36.12358
#
# Velocity S-wave (km/s) = 3.03095 4.81458 4.02286
# Velocity P-wave (km/s) = 6.65450 7.98051 7.34748
#
# Compressibility (1/GPa) = 0.01398544
#
# Stress axis : x y z
#
# Youngs Moduli (GPa) = 125.10965 48.69235 88.80198
#
# Poissons Ratio (x) = 0.24751 -0.05673
# Poissons Ratio (y) = 0.63595 0.75114
# Poissons Ratio (z) = -0.07993 0.41187
#
# Static dielectric constant tensor:
#      x y z
#    x 1.879050 0.000000 0.000000 
#    y 0.000000 2.115330 0.000000 
#    z 0.000000 0.000000 2.634600 
# 
# From -- ./inp_files/5050.got.cif
#   From: 2010.05.17/outbox.cif.g08.bks.cpg/sg68_3_cif.got.tgz:5050.got - 2010.06.03 18:57:09.
