data_PCOD9506545
_publ_section_title
;
Structure prediction by ZEFSAII (Michael W. Deem and Ramdas Pophale) SiO2 
 PCOD9506545
Probable space group: C C C A
;
_chemical_formula_sum "Si O2"
_cell_formula_units_Z 104
_cell_length_a 27.397701
_cell_length_b 18.824451
_cell_length_c 8.296214
_cell_angle_alpha 90.000000
_cell_angle_beta 90.000000
_cell_angle_gamma 90.000000
_cell_volume 4278.744827
_symmetry_space_group_name_H-M "C C C A"
_symmetry_group_IT_number 68
_space_group.IT_coordinate_system_code '2'
_symmetry_cell_setting 'orthorhombic'
loop_
_space_group_symop_operation_xyz
x,y,z
-x,1/2-y,z
x,1/2-y,1/2-z
-x,y,1/2-z
-x,-y,-z
x,1/2+y,-z
-x,1/2+y,1/2+z
x,-y,1/2+z
1/2+x,1/2+y,z
1/2-x,-y,z
1/2+x,-y,1/2-z
1/2-x,1/2+y,1/2-z
1/2-x,1/2-y,-z
1/2+x,y,-z
1/2-x,y,1/2+z
1/2+x,1/2-y,1/2+z
loop_
_atom_site_type_symbol
_atom_site_label
_atom_site_fract_x
_atom_site_fract_y
_atom_site_fract_z
Si Si1 0.185561 0.323256 0.083986
Si Si2 0.723284 0.340833 0.581120
Si Si3 0.843736 0.604705 0.307444
Si Si4 0.043948 0.563515 0.640582
Si Si5 0.070798 0.709563 0.582891
Si Si6 0.096339 0.250000 0.750000
Si Si7 0.610018 0.513666 0.094983
O O1 0.200636 0.364616 0.248171
O O2 0.205808 0.241647 0.084792
O O3 0.127713 0.316422 0.076481
O O4 0.218185 0.350961 0.933443
O O5 0.703665 0.373648 0.414230
O O6 0.870717 0.678734 0.264043
O O7 0.853002 0.546626 0.163779
O O8 0.871134 0.563830 0.454541
O O9 0.034682 0.643551 0.587934
O O10 0.062749 0.523755 0.483717
O O11 0.090762 0.560409 0.758127
O O12 0.000000 0.536953 0.750000
O O13 0.065528 0.750000 0.750000
O O14 0.065789 0.749623 0.414543
#
# Coordination Sequence:
#
# PCOD9506545 Si02
#       7
#    16  16  16  16  16   8  16
#     4  10  20  33  56  97 135 174 220 285 348 392
#     4  10  20  33  58  94 136 174 227 286 333 416
#     4  11  22  42  67 102 133 183 236 285 360 420
#     4  11  23  41  67  94 125 174 228 285 345 425
#     4  12  23  41  64  98 141 177 226 288 363 415
#     4  12  22  38  72 103 136 184 234 292 355 436
#     4  10  23  42  69  95 133 177 230 288 349 433
#
# _framework density 24.306191999999999
#
# number of rings (size 3 to 8) (size 9 to 14) (size 15 to 20)
#    0.000    1.231    4.615    2.308    2.154    0.308 
#    0.000    0.000    0.000   16.615    0.000    0.000 
#    0.000    0.000    0.000    0.000    0.000    0.000 
#
# Total GULP energy -290047.976400 kJ/mol
# GULP energy per Si atom -5577.845700 kJ/mol
# Density = 2.425087 g / cm^3
# Si number density = 24.306192 Si / 1000 Ang^3
#
#
#
# Elastic Constant Matrix: (Units=GPa)
#
#
# Indices 1 2 3 4 5 6 
#
# 1 57.2221 13.4556 15.7928 0.0000 0.0000 0.0000
# 2 13.4556 78.2852 29.9391 0.0000 0.0000 0.0000
# 3 15.7928 29.9391 154.2965 0.0000 0.0000 0.0000
# 4 0.0000 0.0000 0.0000 12.6930 0.0000 0.0000
# 5 0.0000 0.0000 0.0000 0.0000 16.4961 0.0000
# 6 0.0000 0.0000 0.0000 0.0000 0.0000 -3.2604
#
#
#
# Elastic Compliance Matrix: (Units=1/GPa)
#
#
# Indices 1 2 3 4 5 6 
#
# 1 0.018479 -0.002649 -0.001377 0.000000 0.000000 0.000000
# 2 -0.002649 0.014178 -0.002480 0.000000 0.000000 0.000000
# 3 -0.001377 -0.002480 0.007103 0.000000 0.000000 0.000000
# 4 0.000000 0.000000 0.000000 0.078783 0.000000 0.000000
# 5 0.000000 0.000000 0.000000 0.000000 0.060620 0.000000
# 6 0.000000 0.000000 0.000000 0.000000 0.000000 -0.306714
#
#
# Mechanical properties :
#
#
# Convention : Reuss Voigt Hill
#
# Bulk Modulus (GPa) = 37.38792 45.35322 41.37057
# Shear Modulus (GPa) = -47.33838 20.56018 -13.38910
#
# Velocity S-wave (km/s) = -4.41793 2.91156 -2.34957
# Velocity P-wave (km/s) = 3.25710 5.47746 3.11399
#
# Compressibility (1/GPa) = 0.02674660
#
# Stress axis : x y z
#
# Youngs Moduli (GPa) = 54.11585 70.53409 140.78230
#
# Poissons Ratio (x) = 0.18687 0.19390
# Poissons Ratio (y) = 0.14338 0.34911
# Poissons Ratio (z) = 0.07453 0.17491
#
# Static dielectric constant tensor:
#      x y z
#    x 2.006510 0.000000 0.000000 
#    y 0.000000 1.946310 0.000000 
#    z 0.000000 0.000000 2.143830 
# 
# From -- ./inp_files/9584.got.cif
#   From: 2010.05.17/outbox.cif.g08.bks.cpg/sg68_5_cif.got.tgz:9584.got - 2010.06.03 18:57:09.
