data_PCOD9506364
_publ_section_title
;
Structure prediction by ZEFSAII (Michael W. Deem and Ramdas Pophale) SiO2 
 PCOD9506364
Probable space group: C C C A
;
_chemical_formula_sum "Si O2"
_cell_formula_units_Z 112
_cell_length_a 16.621601
_cell_length_b 14.318234
_cell_length_c 22.373808
_cell_angle_alpha 90.000000
_cell_angle_beta 90.000000
_cell_angle_gamma 90.000000
_cell_volume 5324.786700
_symmetry_space_group_name_H-M "C C C A"
_symmetry_group_IT_number 68
_space_group.IT_coordinate_system_code '2'
_symmetry_cell_setting 'orthorhombic'
loop_
_space_group_symop_operation_xyz
x,y,z
-x,1/2-y,z
x,1/2-y,1/2-z
-x,y,1/2-z
-x,-y,-z
x,1/2+y,-z
-x,1/2+y,1/2+z
x,-y,1/2+z
1/2+x,1/2+y,z
1/2-x,-y,z
1/2+x,-y,1/2-z
1/2-x,1/2+y,1/2-z
1/2-x,1/2-y,-z
1/2+x,y,-z
1/2-x,y,1/2+z
1/2+x,1/2-y,1/2+z
loop_
_atom_site_type_symbol
_atom_site_label
_atom_site_fract_x
_atom_site_fract_y
_atom_site_fract_z
Si Si1 0.463461 0.838796 0.316208
Si Si2 0.190537 0.123488 0.365870
Si Si3 0.841465 0.473764 0.596989
Si Si4 0.013789 0.455448 0.820830
Si Si5 0.861339 0.085453 0.619998
Si Si6 0.079834 0.120029 0.009306
Si Si7 0.607735 0.158631 0.507397
O O1 0.500000 0.750000 0.350245
O O2 0.500000 0.839661 0.250000
O O3 0.367958 0.826712 0.318933
O O4 0.489167 0.938960 0.340676
O O5 0.284053 0.148655 0.366140
O O6 0.155448 0.141474 0.431618
O O7 0.170319 0.014109 0.355847
O O8 0.750000 0.500000 0.612154
O O9 0.897234 0.444009 0.653068
O O10 0.881607 0.564023 0.564317
O O11 0.847600 0.390785 0.547954
O O12 0.000000 0.449289 0.750000
O O13 0.946519 0.389869 0.850792
O O14 0.879945 0.076681 0.550064
O O15 0.099632 0.229767 0.003779
O O16 0.982611 0.115177 0.009245
#
# Coordination Sequence:
#
# PCOD9506364 Si02
#       7
#    16  16  16  16  16  16  16
#     4   9  19  36  56  84 124 158 199 255 315 368
#     4  10  20  32  58  92 112 160 200 247 300 368
#     4  12  24  41  63  95 131 161 207 265 313 372
#     4  10  22  42  63  84 118 171 211 256 312 360
#     4  10  19  38  60  82 120 155 208 248 290 370
#     4  11  22  38  64  91 126 171 196 251 318 382
#     4  11  23  37  62  94 128 162 205 244 321 386
#
# _framework density 21.033707
#
# number of rings (size 3 to 8) (size 9 to 14) (size 15 to 20)
#    0.000    1.571    2.857    3.000    4.000    2.286 
#    7.714    0.000    0.000    1.714    0.000    0.000 
#    0.000    0.000    0.000    0.000    0.000    0.000 
#
# Total GULP energy -312328.477735 kJ/mol
# GULP energy per Si atom -5577.294245 kJ/mol
# Density = 2.098583 g / cm^3
# Si number density = 21.033707 Si / 1000 Ang^3
#
#
#
# Elastic Constant Matrix: (Units=GPa)
#
#
# Indices 1 2 3 4 5 6 
#
# 1 193.2477 13.1004 70.9222 0.0000 0.0000 0.0000
# 2 13.1004 41.4086 0.0739 0.0000 0.0000 0.0000
# 3 70.9222 0.0739 97.2452 0.0000 0.0000 0.0000
# 4 0.0000 0.0000 0.0000 29.7555 0.0000 0.0000
# 5 0.0000 0.0000 0.0000 0.0000 -14.0017 0.0000
# 6 0.0000 0.0000 0.0000 0.0000 0.0000 24.8221
#
#
#
# Elastic Compliance Matrix: (Units=1/GPa)
#
#
# Indices 1 2 3 4 5 6 
#
# 1 0.007277 -0.002293 -0.005306 0.000000 0.000000 0.000000
# 2 -0.002293 0.024872 0.001653 0.000000 0.000000 0.000000
# 3 -0.005306 0.001653 0.014152 0.000000 0.000000 0.000000
# 4 0.000000 0.000000 0.000000 0.033607 0.000000 0.000000
# 5 0.000000 0.000000 0.000000 0.000000 -0.071420 0.000000
# 6 0.000000 0.000000 0.000000 0.000000 0.000000 0.040287
#
#
# Mechanical properties :
#
#
# Convention : Reuss Voigt Hill
#
# Bulk Modulus (GPa) = 29.06099 55.56606 42.31353
# Shear Modulus (GPa) = 69.31384 24.63551 46.97467
#
# Velocity S-wave (km/s) = 5.74676 3.42605 4.73091
# Velocity P-wave (km/s) = 7.60789 6.49041 7.07126
#
# Compressibility (1/GPa) = 0.03441039
#
# Stress axis : x y z
#
# Youngs Moduli (GPa) = 137.41269 40.20578 70.66363
#
# Poissons Ratio (x) = 0.09219 0.37492
# Poissons Ratio (y) = 0.31507 -0.11683
# Poissons Ratio (z) = 0.72907 -0.06647
#
# Static dielectric constant tensor:
#      x y z
#    x 1.836220 0.000000 0.000000 
#    y 0.000000 1.851310 0.000000 
#    z 0.000000 0.000000 1.703640 
# 
# From -- ./inp_files/45510.got.cif
#   From: 2010.05.17/outbox.cif.g08.bks.cpg/sg68_23_cif.got.tgz:45510.got - 2010.06.03 18:57:09.
