data_PCOD9506216
_publ_section_title
;
Structure prediction by ZEFSAII (Michael W. Deem and Ramdas Pophale) SiO2 
 PCOD9506216
Probable space group: C C C A
;
_chemical_formula_sum "Si O2"
_cell_formula_units_Z 64
_cell_length_a 35.406962
_cell_length_b 14.081664
_cell_length_c 5.392093
_cell_angle_alpha 90.000000
_cell_angle_beta 90.000000
_cell_angle_gamma 90.000000
_cell_volume 2688.437945
_symmetry_space_group_name_H-M "C C C A"
_symmetry_group_IT_number 68
_space_group.IT_coordinate_system_code '2'
_symmetry_cell_setting 'orthorhombic'
loop_
_space_group_symop_operation_xyz
x,y,z
-x,1/2-y,z
x,1/2-y,1/2-z
-x,y,1/2-z
-x,-y,-z
x,1/2+y,-z
-x,1/2+y,1/2+z
x,-y,1/2+z
1/2+x,1/2+y,z
1/2-x,-y,z
1/2+x,-y,1/2-z
1/2-x,1/2+y,1/2-z
1/2-x,1/2-y,-z
1/2+x,y,-z
1/2-x,y,1/2+z
1/2+x,1/2-y,1/2+z
loop_
_atom_site_type_symbol
_atom_site_label
_atom_site_fract_x
_atom_site_fract_y
_atom_site_fract_z
Si Si1 0.844767 0.688724 0.991973
Si Si2 0.957939 0.598079 0.346651
Si Si3 0.233997 0.893094 0.969200
Si Si4 0.573470 0.114043 0.641023
O O1 0.849989 0.750000 0.250000
O O2 0.833950 0.750000 0.750000
O O3 0.810208 0.616047 0.030060
O O4 0.882730 0.637763 0.891481
O O5 0.948738 0.644804 0.610908
O O6 0.934836 0.499056 0.366212
O O7 0.000000 0.572577 0.250000
O O8 0.943457 0.655073 0.111337
O O9 0.243958 0.850522 0.702240
O O10 0.250000 0.000000 0.947565
#
# Coordination Sequence:
#
# PCOD9506216 Si02
#       4
#    16  16  16  16
#     4  12  26  42  61  89 130 175 213 259 328 404
#     4  10  19  35  64  96 120 153 206 276 326 360
#     4  10  23  42  67  94 122 159 216 276 325 380
#     4  10  20  35  59  89 125 159 203 256 321 383
#
# _framework density 23.805644999999998
#
# number of rings (size 3 to 8) (size 9 to 14) (size 15 to 20)
#    0.000    1.500    0.000    6.750    0.000   11.000 
#    0.000    0.000    0.000   18.000    0.000    0.000 
#    0.000    0.000    0.000    0.000    0.000    0.000 
#
# Total GULP energy -178359.493316 kJ/mol
# GULP energy per Si atom -5573.734166 kJ/mol
# Density = 2.375146 g / cm^3
# Si number density = 23.805645 Si / 1000 Ang^3
#
#
#
# Elastic Constant Matrix: (Units=GPa)
#
#
# Indices 1 2 3 4 5 6 
#
# 1 194.4150 68.2031 61.4546 0.0000 0.0000 0.0000
# 2 68.2031 169.3076 83.1444 0.0000 0.0000 0.0000
# 3 61.4546 83.1444 305.3354 0.0000 0.0000 0.0000
# 4 0.0000 0.0000 0.0000 12.2909 0.0000 0.0000
# 5 0.0000 0.0000 0.0000 0.0000 38.6740 0.0000
# 6 0.0000 0.0000 0.0000 0.0000 0.0000 120.2577
#
#
#
# Elastic Compliance Matrix: (Units=1/GPa)
#
#
# Indices 1 2 3 4 5 6 
#
# 1 0.006098 -0.002140 -0.000645 0.000000 0.000000 0.000000
# 2 -0.002140 0.007569 -0.001630 0.000000 0.000000 0.000000
# 3 -0.000645 -0.001630 0.003849 0.000000 0.000000 0.000000
# 4 0.000000 0.000000 0.000000 0.081361 0.000000 0.000000
# 5 0.000000 0.000000 0.000000 0.000000 0.025857 0.000000
# 6 0.000000 0.000000 0.000000 0.000000 0.000000 0.008315
#
#
# Mechanical properties :
#
#
# Convention : Reuss Voigt Hill
#
# Bulk Modulus (GPa) = 115.12730 121.62913 118.37821
# Shear Modulus (GPa) = 34.53634 64.66159 49.59896
#
# Velocity S-wave (km/s) = 3.81302 5.21740 4.56948
# Velocity P-wave (km/s) = 8.23722 9.35406 8.81335
#
# Compressibility (1/GPa) = 0.00868604
#
# Stress axis : x y z
#
# Youngs Moduli (GPa) = 163.98456 132.11554 259.82121
#
# Poissons Ratio (x) = 0.28272 0.16749
# Poissons Ratio (y) = 0.35092 0.42361
# Poissons Ratio (z) = 0.10571 0.21540
#
# Static dielectric constant tensor:
#      x y z
#    x 2.001090 0.000000 0.000000 
#    y 0.000000 1.878220 0.000000 
#    z 0.000000 0.000000 1.996720 
# 
# From -- ./inp_files/2612.got.cif
#   From: 2010.05.17/outbox.cif.g08.bks.cpg/sg68_2_cif.got.tgz:2612.got - 2010.06.03 18:57:09.
