data_PCOD9506042
_publ_section_title
;
Structure prediction by ZEFSAII (Michael W. Deem and Ramdas Pophale) SiO2 
 PCOD9506042
Probable space group: C C C A
;
_chemical_formula_sum "Si O2"
_cell_formula_units_Z 104
_cell_length_a 16.256155
_cell_length_b 11.633928
_cell_length_c 27.151601
_cell_angle_alpha 90.000000
_cell_angle_beta 90.000000
_cell_angle_gamma 90.000000
_cell_volume 5134.990521
_symmetry_space_group_name_H-M "C C C A"
_symmetry_group_IT_number 68
_space_group.IT_coordinate_system_code '2'
_symmetry_cell_setting 'orthorhombic'
loop_
_space_group_symop_operation_xyz
x,y,z
-x,1/2-y,z
x,1/2-y,1/2-z
-x,y,1/2-z
-x,-y,-z
x,1/2+y,-z
-x,1/2+y,1/2+z
x,-y,1/2+z
1/2+x,1/2+y,z
1/2-x,-y,z
1/2+x,-y,1/2-z
1/2-x,1/2+y,1/2-z
1/2-x,1/2-y,-z
1/2+x,y,-z
1/2-x,y,1/2+z
1/2+x,1/2-y,1/2+z
loop_
_atom_site_type_symbol
_atom_site_label
_atom_site_fract_x
_atom_site_fract_y
_atom_site_fract_z
Si Si1 0.118789 0.063412 0.139451
Si Si2 0.169874 0.061997 0.847821
Si Si3 0.500000 0.250000 0.875844
Si Si4 0.842611 0.048124 0.957601
Si Si5 0.262469 0.782353 0.610889
Si Si6 0.631958 0.107828 0.566808
Si Si7 0.004490 0.615982 0.308838
O O1 0.062286 0.171062 0.154230
O O2 0.211010 0.117622 0.138898
O O3 0.110572 0.034035 0.080792
O O4 0.082974 0.954498 0.169394
O O5 0.195121 0.194158 0.852501
O O6 0.080177 0.053357 0.824638
O O7 0.250000 0.000000 0.824496
O O8 0.158596 0.002469 0.901273
O O9 0.552264 0.336144 0.909161
O O10 0.827951 0.161751 0.925441
O O11 0.750000 0.000000 0.966300
O O12 0.879359 0.074515 0.010367
O O13 0.200903 0.705570 0.577351
O O14 0.000000 0.750000 0.325665
O O15 0.000000 0.616433 0.250000
#
# Coordination Sequence:
#
# PCOD9506042 Si02
#       7
#    16  16   8  16  16  16  16
#     4  10  21  39  60  85 122 157 200 251 302 358
#     4  10  20  39  64  90 121 161 204 249 303 366
#     4  10  20  36  53  82 122 160 197 250 290 348
#     4  10  19  33  53  85 120 163 209 242 296 351
#     4   9  19  34  60  87 119 159 203 252 295 356
#     4  10  19  33  56  82 126 165 205 245 291 352
#     4  11  24  45  67  90 119 157 198 256 320 378
#
# _framework density 20.253202000000002
#
# number of rings (size 3 to 8) (size 9 to 14) (size 15 to 20)
#    0.000    2.000    1.538    2.769    0.000    3.077 
#    4.154    5.769    0.000    0.000    0.000    0.000 
#    0.000    0.000    0.000    0.000    0.000    0.000 
#
# Total GULP energy -289737.284829 kJ/mol
# GULP energy per Si atom -5571.870862 kJ/mol
# Density = 2.020711 g / cm^3
# Si number density = 20.253202 Si / 1000 Ang^3
#
#
#
# Elastic Constant Matrix: (Units=GPa)
#
#
# Indices 1 2 3 4 5 6 
#
# 1 55.9621 27.8520 15.5726 0.0000 0.0000 0.0000
# 2 27.8520 107.0899 23.2633 0.0000 0.0000 0.0000
# 3 15.5726 23.2633 47.4737 0.0000 0.0000 0.0000
# 4 0.0000 0.0000 0.0000 8.3363 0.0000 0.0000
# 5 0.0000 0.0000 0.0000 0.0000 88.1590 0.0000
# 6 0.0000 0.0000 0.0000 0.0000 0.0000 38.4523
#
#
#
# Elastic Compliance Matrix: (Units=1/GPa)
#
#
# Indices 1 2 3 4 5 6 
#
# 1 0.021468 -0.004537 -0.004819 0.000000 0.000000 0.000000
# 2 -0.004537 0.011409 -0.004103 0.000000 0.000000 0.000000
# 3 -0.004819 -0.004103 0.024655 0.000000 0.000000 0.000000
# 4 0.000000 0.000000 0.000000 0.119957 0.000000 0.000000
# 5 0.000000 0.000000 0.000000 0.000000 0.011343 0.000000
# 6 0.000000 0.000000 0.000000 0.000000 0.000000 0.026006
#
#
# Mechanical properties :
#
#
# Convention : Reuss Voigt Hill
#
# Bulk Modulus (GPa) = 32.66254 38.21126 35.43690
# Shear Modulus (GPa) = 19.84439 36.57872 28.21155
#
# Velocity S-wave (km/s) = 3.13360 4.25440 3.73626
# Velocity P-wave (km/s) = 5.40876 6.56056 6.01231
#
# Compressibility (1/GPa) = 0.03061611
#
# Stress axis : x y z
#
# Youngs Moduli (GPa) = 46.58077 87.64986 40.55897
#
# Poissons Ratio (x) = 0.39763 0.19546
# Poissons Ratio (y) = 0.21132 0.16640
# Poissons Ratio (z) = 0.22448 0.35959
#
# Static dielectric constant tensor:
#      x y z
#    x 1.772380 0.000000 0.000000 
#    y 0.000000 1.779520 0.000000 
#    z 0.000000 0.000000 1.679420 
# 
# From -- ./inp_files/51451.got.cif
#   From: 2010.05.17/outbox.cif.g08.bks.cpg/sg68_26_cif.got.tgz:51451.got - 2010.06.03 18:57:09.
