data_PCOD9506616
_publ_section_title
;
Structure prediction by ZEFSAII (Michael W. Deem and Ramdas Pophale) SiO2 
 PCOD9506616
Probable space group: C C C A
;
_chemical_formula_sum "Si O2"
_cell_formula_units_Z 88
_cell_length_a 12.828694
_cell_length_b 15.741249
_cell_length_c 20.965845
_cell_angle_alpha 90.000000
_cell_angle_beta 90.000000
_cell_angle_gamma 90.000000
_cell_volume 4233.835749
_symmetry_space_group_name_H-M "C C C A"
_symmetry_group_IT_number 68
_space_group.IT_coordinate_system_code '2'
_symmetry_cell_setting 'orthorhombic'
loop_
_space_group_symop_operation_xyz
x,y,z
-x,1/2-y,z
x,1/2-y,1/2-z
-x,y,1/2-z
-x,-y,-z
x,1/2+y,-z
-x,1/2+y,1/2+z
x,-y,1/2+z
1/2+x,1/2+y,z
1/2-x,-y,z
1/2+x,-y,1/2-z
1/2-x,1/2+y,1/2-z
1/2-x,1/2-y,-z
1/2+x,y,-z
1/2-x,y,1/2+z
1/2+x,1/2-y,1/2+z
loop_
_atom_site_type_symbol
_atom_site_label
_atom_site_fract_x
_atom_site_fract_y
_atom_site_fract_z
Si Si1 0.236307 0.848116 0.112213
Si Si2 0.028148 0.426281 0.912219
Si Si3 0.424195 0.964069 0.302752
Si Si4 0.617335 0.779901 0.176236
Si Si5 0.658682 0.942557 0.501341
Si Si6 0.750000 0.500000 0.211352
O O1 0.111271 0.854108 0.106122
O O2 0.292445 0.764414 0.135931
O O3 0.286295 0.876051 0.045196
O O4 0.266292 0.920454 0.164728
O O5 0.094540 0.492420 0.955622
O O6 0.987096 0.478590 0.851519
O O7 0.925018 0.402251 0.951313
O O8 0.500000 0.923485 0.250000
O O9 0.373637 0.880976 0.333226
O O10 0.344467 0.016324 0.259576
O O11 0.500000 0.750000 0.156834
O O12 0.630772 0.750000 0.250000
O O13 0.750000 0.000000 0.532815
#
# Coordination Sequence:
#
# PCOD9506616 Si02
#       6
#    16  16  16  16  16   8
#     4  11  19  37  59  87 126 164 203 264 330 377
#     4  10  20  34  58  87 117 160 211 262 313 370
#     4  12  21  35  57  95 128 156 211 266 316 392
#     4  11  20  32  57  91 127 156 198 256 322 383
#     4   9  18  34  58  85 113 156 216 259 303 367
#     4  12  20  32  56  92 120 160 204 256 318 384
#
# _framework density 20.784934
#
# number of rings (size 3 to 8) (size 9 to 14) (size 15 to 20)
#    0.000    1.273    8.182    1.091    1.273    0.000 
#    0.000    0.000    0.000   22.909    0.000    0.000 
#    0.000    0.000    0.000    0.000    0.000    0.000 
#
# Total GULP energy -245634.211915 kJ/mol
# GULP energy per Si atom -5582.595725 kJ/mol
# Density = 2.073763 g / cm^3
# Si number density = 20.784934 Si / 1000 Ang^3
#
#
#
# Elastic Constant Matrix: (Units=GPa)
#
#
# Indices 1 2 3 4 5 6 
#
# 1 142.2493 39.1717 70.9859 0.0000 0.0000 0.0000
# 2 39.1717 53.6986 33.7001 0.0000 0.0000 0.0000
# 3 70.9859 33.7001 66.8247 0.0000 0.0000 0.0000
# 4 0.0000 0.0000 0.0000 12.6904 0.0000 0.0000
# 5 0.0000 0.0000 0.0000 0.0000 34.3274 0.0000
# 6 0.0000 0.0000 0.0000 0.0000 0.0000 30.1142
#
#
#
# Elastic Compliance Matrix: (Units=1/GPa)
#
#
# Indices 1 2 3 4 5 6 
#
# 1 0.015030 -0.001381 -0.015269 0.000000 0.000000 0.000000
# 2 -0.001381 0.027372 -0.012337 0.000000 0.000000 0.000000
# 3 -0.015269 -0.012337 0.037406 0.000000 0.000000 0.000000
# 4 0.000000 0.000000 0.000000 0.078800 0.000000 0.000000
# 5 0.000000 0.000000 0.000000 0.000000 0.029131 0.000000
# 6 0.000000 0.000000 0.000000 0.000000 0.000000 0.033207
#
#
# Mechanical properties :
#
#
# Convention : Reuss Voigt Hill
#
# Bulk Modulus (GPa) = 45.80049 61.16533 53.48291
# Shear Modulus (GPa) = 17.47032 23.35405 20.41218
#
# Velocity S-wave (km/s) = 2.90233 3.35566 3.13719
# Velocity P-wave (km/s) = 5.77188 6.67125 6.23779
#
# Compressibility (1/GPa) = 0.02183383
#
# Stress axis : x y z
#
# Youngs Moduli (GPa) = 66.53308 36.53321 26.73346
#
# Poissons Ratio (x) = 0.05046 0.40821
# Poissons Ratio (y) = 0.09190 0.32980
# Poissons Ratio (z) = 1.01592 0.45070
#
# Static dielectric constant tensor:
#      x y z
#    x 1.826840 0.000000 0.000000 
#    y 0.000000 1.731130 0.000000 
#    z 0.000000 0.000000 1.741870 
# 
# From -- ./inp_files/37472.got.cif
#   From: 2010.05.17/outbox.cif.g08.bks.cpg/sg68_19_cif.got.tgz:37472.got - 2010.06.03 18:57:09.
