data_PCOD9506534
_publ_section_title
;
Structure prediction by ZEFSAII (Michael W. Deem and Ramdas Pophale) SiO2 
 PCOD9506534
Probable space group: C C C A
;
_chemical_formula_sum "Si O2"
_cell_formula_units_Z 80
_cell_length_a 18.338194
_cell_length_b 7.199731
_cell_length_c 26.419636
_cell_angle_alpha 90.000000
_cell_angle_beta 90.000000
_cell_angle_gamma 90.000000
_cell_volume 3488.186227
_symmetry_space_group_name_H-M "C C C A"
_symmetry_group_IT_number 68
_space_group.IT_coordinate_system_code '2'
_symmetry_cell_setting 'orthorhombic'
loop_
_space_group_symop_operation_xyz
x,y,z
-x,1/2-y,z
x,1/2-y,1/2-z
-x,y,1/2-z
-x,-y,-z
x,1/2+y,-z
-x,1/2+y,1/2+z
x,-y,1/2+z
1/2+x,1/2+y,z
1/2-x,-y,z
1/2+x,-y,1/2-z
1/2-x,1/2+y,1/2-z
1/2-x,1/2-y,-z
1/2+x,y,-z
1/2-x,y,1/2+z
1/2+x,1/2-y,1/2+z
loop_
_atom_site_type_symbol
_atom_site_label
_atom_site_fract_x
_atom_site_fract_y
_atom_site_fract_z
Si Si1 0.416776 0.471570 0.762086
Si Si2 0.417705 0.332656 0.866200
Si Si3 0.167358 0.533615 0.167647
Si Si4 0.669792 0.595400 0.940444
Si Si5 0.916007 0.245360 0.025692
O O1 0.404798 0.250000 0.750000
O O2 0.500000 0.511223 0.750000
O O3 0.405100 0.483847 0.822306
O O4 0.373085 0.580224 0.719193
O O5 0.500000 0.250000 0.860056
O O6 0.409705 0.382177 0.925488
O O7 0.363951 0.162932 0.852952
O O8 0.250000 0.500000 0.181649
O O9 0.164694 0.661377 0.117601
O O10 0.750000 0.500000 0.945322
O O11 0.602718 0.452754 0.949864
O O12 0.648308 0.734712 0.984839
O O13 0.000000 0.250000 0.007579
#
# Coordination Sequence:
#
# PCOD9506534 Si02
#       5
#    16  16  16  16  16
#     4   9  13  25  47  70  90 119 163 212 253 285
#     4   9  15  28  49  75  97 125 170 219 250 292
#     4   9  17  27  45  74 102 127 164 208 260 307
#     4  10  20  35  52  75 108 144 173 210 263 315
#     4  10  20  33  53  80 107 133 180 219 255 304
#
# _framework density 22.934555
#
# number of rings (size 3 to 8) (size 9 to 14) (size 15 to 20)
#    0.000    2.600    4.000    1.200    0.000    0.000 
#    0.000    1.000    0.000    4.800    0.000    0.000 
#    0.000    0.000    0.000    0.000    0.000    0.000 
#
# Total GULP energy -222787.795108 kJ/mol
# GULP energy per Si atom -5569.694878 kJ/mol
# Density = 2.288235 g / cm^3
# Si number density = 22.934555 Si / 1000 Ang^3
#
#
#
# Elastic Constant Matrix: (Units=GPa)
#
#
# Indices 1 2 3 4 5 6 
#
# 1 119.7921 11.4143 45.2567 0.0000 0.0000 0.0000
# 2 11.4143 19.1708 18.4027 0.0000 0.0000 0.0000
# 3 45.2567 18.4027 192.3761 0.0000 0.0000 0.0000
# 4 0.0000 0.0000 0.0000 21.5072 0.0000 0.0000
# 5 0.0000 0.0000 0.0000 0.0000 -98.6035 0.0000
# 6 0.0000 0.0000 0.0000 0.0000 0.0000 10.9460
#
#
#
# Elastic Compliance Matrix: (Units=1/GPa)
#
#
# Indices 1 2 3 4 5 6 
#
# 1 0.009411 -0.003830 -0.001848 0.000000 0.000000 0.000000
# 2 -0.003830 0.058995 -0.004743 0.000000 0.000000 0.000000
# 3 -0.001848 -0.004743 0.006086 0.000000 0.000000 0.000000
# 4 0.000000 0.000000 0.000000 0.046496 0.000000 0.000000
# 5 0.000000 0.000000 0.000000 0.000000 -0.010142 0.000000
# 6 0.000000 0.000000 0.000000 0.000000 0.000000 0.091358
#
#
# Mechanical properties :
#
#
# Convention : Reuss Voigt Hill
#
# Bulk Modulus (GPa) = 18.63828 53.49849 36.06838
# Shear Modulus (GPa) = 20.75307 3.85430 12.30368
#
# Velocity S-wave (km/s) = 3.01139 1.29777 2.31869
# Velocity P-wave (km/s) = 4.49841 5.06190 4.78845
#
# Compressibility (1/GPa) = 0.05365303
#
# Stress axis : x y z
#
# Youngs Moduli (GPa) = 106.26216 16.95049 164.29911
#
# Poissons Ratio (x) = 0.06491 0.30355
# Poissons Ratio (y) = 0.40694 0.77920
# Poissons Ratio (z) = 0.19632 0.08039
#
# Static dielectric constant tensor:
#      x y z
#    x 1.841380 0.000000 0.000000 
#    y 0.000000 1.984280 0.000000 
#    z 0.000000 0.000000 2.101300 
# 
# From -- ./inp_files/55536.got.cif
#   From: 2010.05.17/outbox.cif.g08.bks.cpg/sg68_28_cif.got.tgz:55536.got - 2010.06.03 18:57:09.
