data_PCOD9506506
_publ_section_title
;
Structure prediction by ZEFSAII (Michael W. Deem and Ramdas Pophale) SiO2 
 PCOD9506506
Probable space group: C C C A
;
_chemical_formula_sum "Si O2"
_cell_formula_units_Z 112
_cell_length_a 23.307463
_cell_length_b 22.670566
_cell_length_c 11.464862
_cell_angle_alpha 90.000000
_cell_angle_beta 90.000000
_cell_angle_gamma 90.000000
_cell_volume 6057.957163
_symmetry_space_group_name_H-M "C C C A"
_symmetry_group_IT_number 68
_space_group.IT_coordinate_system_code '2'
_symmetry_cell_setting 'orthorhombic'
loop_
_space_group_symop_operation_xyz
x,y,z
-x,1/2-y,z
x,1/2-y,1/2-z
-x,y,1/2-z
-x,-y,-z
x,1/2+y,-z
-x,1/2+y,1/2+z
x,-y,1/2+z
1/2+x,1/2+y,z
1/2-x,-y,z
1/2+x,-y,1/2-z
1/2-x,1/2+y,1/2-z
1/2-x,1/2-y,-z
1/2+x,y,-z
1/2-x,y,1/2+z
1/2+x,1/2-y,1/2+z
loop_
_atom_site_type_symbol
_atom_site_label
_atom_site_fract_x
_atom_site_fract_y
_atom_site_fract_z
Si Si1 0.631307 0.993414 0.890384
Si Si2 0.174867 0.608728 0.243551
Si Si3 0.894532 0.403328 0.402068
Si Si4 0.827886 0.810081 0.468107
Si Si5 0.304973 0.091450 0.693677
Si Si6 0.195610 0.673390 0.014890
Si Si7 0.490570 0.532631 0.376620
O O1 0.636692 0.946778 0.783693
O O2 0.686363 0.034727 0.888623
O O3 0.577874 0.038178 0.880578
O O4 0.623696 0.952563 0.002710
O O5 0.167766 0.660917 0.339545
O O6 0.241292 0.590782 0.256475
O O7 0.167461 0.632761 0.113865
O O8 0.878292 0.340346 0.457687
O O9 0.851823 0.411514 0.294619
O O10 0.961600 0.415637 0.375062
O O11 0.826364 0.739716 0.467443
O O12 0.765541 0.827485 0.523163
O O13 0.315045 0.148691 0.613997
O O14 0.500000 0.501269 0.250000
O O15 0.500000 0.500000 0.500000
#
# Coordination Sequence:
#
# PCOD9506506 Si02
#       7
#    16  16  16  16  16  16  16
#     4  10  22  36  54  80 114 153 190 240 292 352
#     4  10  20  35  52  81 117 155 193 235 288 348
#     4  10  20  37  56  79 115 145 195 243 294 342
#     4   9  19  36  53  80 113 153 194 241 281 350
#     4  11  21  33  52  83 113 154 186 235 296 350
#     4  10  20  32  56  81 112 154 198 228 291 356
#     4  10  20  36  59  81 109 151 194 245 291 347
#
# _framework density 18.488081999999999
#
# number of rings (size 3 to 8) (size 9 to 14) (size 15 to 20)
#    0.000    2.000    2.857    0.857    2.000    0.571 
#    0.000    0.000    0.000    0.857    0.000    0.000 
#    0.000    5.714    0.000    0.000    0.000    0.000 
#
# Total GULP energy -311818.699107 kJ/mol
# GULP energy per Si atom -5568.191055 kJ/mol
# Density = 1.844600 g / cm^3
# Si number density = 18.488082 Si / 1000 Ang^3
#
#
#
# Elastic Constant Matrix: (Units=GPa)
#
#
# Indices 1 2 3 4 5 6 
#
# 1 88.1751 34.6643 36.0982 0.0000 0.0000 0.0000
# 2 34.6643 57.2015 6.1514 0.0000 0.0000 0.0000
# 3 36.0982 6.1514 71.1344 0.0000 0.0000 0.0000
# 4 0.0000 0.0000 0.0000 13.6559 0.0000 0.0000
# 5 0.0000 0.0000 0.0000 0.0000 23.1928 0.0000
# 6 0.0000 0.0000 0.0000 0.0000 0.0000 24.7563
#
#
#
# Elastic Compliance Matrix: (Units=1/GPa)
#
#
# Indices 1 2 3 4 5 6 
#
# 1 0.019121 -0.010643 -0.008783 0.000000 0.000000 0.000000
# 2 -0.010643 0.023570 0.003363 0.000000 0.000000 0.000000
# 3 -0.008783 0.003363 0.018224 0.000000 0.000000 0.000000
# 4 0.000000 0.000000 0.000000 0.073229 0.000000 0.000000
# 5 0.000000 0.000000 0.000000 0.000000 0.043117 0.000000
# 6 0.000000 0.000000 0.000000 0.000000 0.000000 0.040394
#
#
# Mechanical properties :
#
#
# Convention : Reuss Voigt Hill
#
# Bulk Modulus (GPa) = 34.73554 41.14873 37.94213
# Shear Modulus (GPa) = 19.27706 21.62747 20.45227
#
# Velocity S-wave (km/s) = 3.23255 3.42395 3.32963
# Velocity P-wave (km/s) = 5.72375 6.15926 5.94550
#
# Compressibility (1/GPa) = 0.02878896
#
# Stress axis : x y z
#
# Youngs Moduli (GPa) = 52.29973 42.42695 54.87267
#
# Poissons Ratio (x) = 0.45153 0.48193
# Poissons Ratio (y) = 0.55661 -0.18451
# Poissons Ratio (z) = 0.45933 -0.14266
#
# Static dielectric constant tensor:
#      x y z
#    x 1.697920 0.000000 0.000000 
#    y 0.000000 1.643910 0.000000 
#    z 0.000000 0.000000 1.668540 
# 
# From -- ./inp_files/15729.got.cif
#   From: 2010.05.17/outbox.cif.g08.bks.cpg/sg68_8_cif.got.tgz:15729.got - 2010.06.03 18:57:09.
