data_PCOD9506719
_publ_section_title
;
Structure prediction by ZEFSAII (Michael W. Deem and Ramdas Pophale) SiO2 
 PCOD9506719
Probable space group: C C C A
;
_chemical_formula_sum "Si O2"
_cell_formula_units_Z 96
_cell_length_a 23.153767
_cell_length_b 9.493072
_cell_length_c 23.653863
_cell_angle_alpha 90.000000
_cell_angle_beta 90.000000
_cell_angle_gamma 90.000000
_cell_volume 5199.128010
_symmetry_space_group_name_H-M "C C C A"
_symmetry_group_IT_number 68
_space_group.IT_coordinate_system_code '2'
_symmetry_cell_setting 'orthorhombic'
loop_
_space_group_symop_operation_xyz
x,y,z
-x,1/2-y,z
x,1/2-y,1/2-z
-x,y,1/2-z
-x,-y,-z
x,1/2+y,-z
-x,1/2+y,1/2+z
x,-y,1/2+z
1/2+x,1/2+y,z
1/2-x,-y,z
1/2+x,-y,1/2-z
1/2-x,1/2+y,1/2-z
1/2-x,1/2-y,-z
1/2+x,y,-z
1/2-x,y,1/2+z
1/2+x,1/2-y,1/2+z
loop_
_atom_site_type_symbol
_atom_site_label
_atom_site_fract_x
_atom_site_fract_y
_atom_site_fract_z
Si Si1 0.621011 0.825858 0.625147
Si Si2 0.763025 0.165520 0.556784
Si Si3 0.379650 0.575760 0.206501
Si Si4 0.198107 0.313715 0.340741
Si Si5 0.000000 0.015390 0.750000
Si Si6 0.680274 0.596930 0.695862
Si Si7 0.000000 0.750000 0.152337
O O1 0.671011 0.814777 0.578680
O O2 0.640208 0.724341 0.677136
O O3 0.555996 0.777330 0.614179
O O4 0.618155 0.983301 0.649452
O O5 0.750000 0.250000 0.500000
O O6 0.722239 0.230384 0.605682
O O7 0.750000 0.000000 0.550640
O O8 0.350599 0.722716 0.189975
O O9 0.442685 0.572983 0.235280
O O10 0.339003 0.485179 0.248509
O O11 0.255215 0.342310 0.302912
O O12 0.177476 0.473503 0.351802
O O13 0.991202 0.118168 0.804365
#
# Coordination Sequence:
#
# PCOD9506719 Si02
#       7
#    16  16  16  16   8  16   8
#     4  10  20  35  61  86 116 151 203 238 284 360
#     4  11  24  41  61  86 109 148 196 260 316 352
#     4  11  19  36  55  88 124 159 201 231 282 359
#     4  10  23  37  53  82 118 151 195 239 300 352
#     4   9  18  30  57  86 122 169 197 228 274 353
#     4  10  21  33  52  84 121 159 184 229 286 359
#     4   9  16  34  58  88 118 158 200 232 281 360
#
# _framework density 18.464635000000001
#
# number of rings (size 3 to 8) (size 9 to 14) (size 15 to 20)
#    0.000    1.833    3.333    1.000    4.667    9.333 
#    0.000    1.667    0.000    1.000    4.333    0.000 
#    0.000    0.000    0.000    0.000    0.000    0.000 
#
# Total GULP energy -267773.685548 kJ/mol
# GULP energy per Si atom -5578.618449 kJ/mol
# Density = 1.842261 g / cm^3
# Si number density = 18.464635 Si / 1000 Ang^3
#
#
#
# Elastic Constant Matrix: (Units=GPa)
#
#
# Indices 1 2 3 4 5 6 
#
# 1 140.9345 46.9039 47.4702 0.0000 0.0000 0.0000
# 2 46.9039 125.9465 32.4156 0.0000 0.0000 0.0000
# 3 47.4702 32.4156 79.1676 0.0000 0.0000 0.0000
# 4 0.0000 0.0000 0.0000 25.3936 0.0000 0.0000
# 5 0.0000 0.0000 0.0000 0.0000 21.5259 0.0000
# 6 0.0000 0.0000 0.0000 0.0000 0.0000 31.0271
#
#
#
# Elastic Compliance Matrix: (Units=1/GPa)
#
#
# Indices 1 2 3 4 5 6 
#
# 1 0.009454 -0.002305 -0.004725 0.000000 0.000000 0.000000
# 2 -0.002305 0.009437 -0.002482 0.000000 0.000000 0.000000
# 3 -0.004725 -0.002482 0.016481 0.000000 0.000000 0.000000
# 4 0.000000 0.000000 0.000000 0.039380 0.000000 0.000000
# 5 0.000000 0.000000 0.000000 0.000000 0.046456 0.000000
# 6 0.000000 0.000000 0.000000 0.000000 0.000000 0.032230
#
#
# Mechanical properties :
#
#
# Convention : Reuss Voigt Hill
#
# Bulk Modulus (GPa) = 61.16876 66.62534 63.89705
# Shear Modulus (GPa) = 28.10398 30.20659 29.15529
#
# Velocity S-wave (km/s) = 3.90557 4.04903 3.97795
# Velocity P-wave (km/s) = 7.31693 7.61712 7.46853
#
# Compressibility (1/GPa) = 0.01634821
#
# Stress axis : x y z
#
# Youngs Moduli (GPa) = 105.77487 105.96594 60.67587
#
# Poissons Ratio (x) = 0.24421 0.28670
# Poissons Ratio (y) = 0.24377 0.15061
# Poissons Ratio (z) = 0.49980 0.26302
#
# Static dielectric constant tensor:
#      x y z
#    x 1.684880 0.000000 0.000000 
#    y 0.000000 1.677050 0.000000 
#    z 0.000000 0.000000 1.638620 
# 
# From -- ./inp_files/46982.got.cif
#   From: 2010.05.17/outbox.cif.g08.bks.cpg/sg68_24_cif.got.tgz:46982.got - 2010.06.03 18:57:09.
