data_PCOD9506444
_publ_section_title
;
Structure prediction by ZEFSAII (Michael W. Deem and Ramdas Pophale) SiO2 
 PCOD9506444
Probable space group: C C C A
;
_chemical_formula_sum "Si O2"
_cell_formula_units_Z 88
_cell_length_a 28.237624
_cell_length_b 14.963264
_cell_length_c 9.758149
_cell_angle_alpha 90.000000
_cell_angle_beta 90.000000
_cell_angle_gamma 90.000000
_cell_volume 4123.081643
_symmetry_space_group_name_H-M "C C C A"
_symmetry_group_IT_number 68
_space_group.IT_coordinate_system_code '2'
_symmetry_cell_setting 'orthorhombic'
loop_
_space_group_symop_operation_xyz
x,y,z
-x,1/2-y,z
x,1/2-y,1/2-z
-x,y,1/2-z
-x,-y,-z
x,1/2+y,-z
-x,1/2+y,1/2+z
x,-y,1/2+z
1/2+x,1/2+y,z
1/2-x,-y,z
1/2+x,-y,1/2-z
1/2-x,1/2+y,1/2-z
1/2-x,1/2-y,-z
1/2+x,y,-z
1/2-x,y,1/2+z
1/2+x,1/2-y,1/2+z
loop_
_atom_site_type_symbol
_atom_site_label
_atom_site_fract_x
_atom_site_fract_y
_atom_site_fract_z
Si Si1 0.551014 0.945360 0.802751
Si Si2 0.659278 0.338032 0.428665
Si Si3 0.307786 0.837155 0.434768
Si Si4 0.887969 0.014374 0.054340
Si Si5 0.079214 0.250000 0.750000
Si Si6 0.261258 0.895474 0.712517
O O1 0.500000 0.976803 0.750000
O O2 0.591019 0.983806 0.699993
O O3 0.551570 0.837340 0.798641
O O4 0.568062 0.973336 0.952563
O O5 0.681954 0.264419 0.525677
O O6 0.644257 0.431296 0.496194
O O7 0.613320 0.288201 0.368134
O O8 0.693011 0.364341 0.301068
O O9 0.273207 0.873164 0.555849
O O10 0.281799 0.849019 0.291305
O O11 0.354894 0.898517 0.439473
O O12 0.250000 0.000000 0.724912
#
# Coordination Sequence:
#
# PCOD9506444 Si02
#       6
#    16  16  16  16   8  16
#     4  11  23  43  73 104 130 168 221 284 345 407
#     4  11  21  41  65  92 132 179 224 266 330 391
#     4  12  24  43  62  93 134 179 228 272 324 385
#     4  11  24  43  70  96 135 177 217 276 342 403
#     4  10  19  40  72  96 130 172 224 270 327 414
#     4  12  24  39  64  94 130 174 228 278 316 383
#
# _framework density 21.343257999999999
#
# number of rings (size 3 to 8) (size 9 to 14) (size 15 to 20)
#    0.000    0.727    5.455    3.000    0.000    0.000 
#    0.000    2.727    0.000    1.091    0.000    0.000 
#    0.000    0.000    0.000    0.000    0.000    0.000 
#
# Total GULP energy -246233.926923 kJ/mol
# GULP energy per Si atom -5596.225612 kJ/mol
# Density = 2.129468 g / cm^3
# Si number density = 21.343258 Si / 1000 Ang^3
#
#
#
# Elastic Constant Matrix: (Units=GPa)
#
#
# Indices 1 2 3 4 5 6 
#
# 1 72.2450 23.0723 9.6362 0.0000 0.0000 0.0000
# 2 23.0723 113.5306 20.5416 0.0000 0.0000 0.0000
# 3 9.6362 20.5416 72.5219 0.0000 0.0000 0.0000
# 4 0.0000 0.0000 0.0000 22.2613 0.0000 0.0000
# 5 0.0000 0.0000 0.0000 0.0000 11.2237 0.0000
# 6 0.0000 0.0000 0.0000 0.0000 0.0000 24.7652
#
#
#
# Elastic Compliance Matrix: (Units=1/GPa)
#
#
# Indices 1 2 3 4 5 6 
#
# 1 0.014898 -0.002814 -0.001183 0.000000 0.000000 0.000000
# 2 -0.002814 0.009815 -0.002406 0.000000 0.000000 0.000000
# 3 -0.001183 -0.002406 0.014628 0.000000 0.000000 0.000000
# 4 0.000000 0.000000 0.000000 0.044921 0.000000 0.000000
# 5 0.000000 0.000000 0.000000 0.000000 0.089097 0.000000
# 6 0.000000 0.000000 0.000000 0.000000 0.000000 0.040379
#
#
# Mechanical properties :
#
#
# Convention : Reuss Voigt Hill
#
# Bulk Modulus (GPa) = 37.68473 40.53309 39.10891
# Shear Modulus (GPa) = 21.24143 25.31986 23.28064
#
# Velocity S-wave (km/s) = 3.15815 3.44803 3.30627
# Velocity P-wave (km/s) = 5.56717 5.90628 5.73923
#
# Compressibility (1/GPa) = 0.02653595
#
# Stress axis : x y z
#
# Youngs Moduli (GPa) = 67.12260 101.88067 68.36368
#
# Poissons Ratio (x) = 0.28666 0.08085
# Poissons Ratio (y) = 0.18886 0.16450
# Poissons Ratio (z) = 0.07938 0.24516
#
# Static dielectric constant tensor:
#      x y z
#    x 1.794880 0.000000 0.000000 
#    y 0.000000 1.773830 0.000000 
#    z 0.000000 0.000000 1.763860 
# 
# From -- ./inp_files/17071.got.cif
#   From: 2010.05.17/outbox.cif.g08.bks.cpg/sg68_9_cif.got.tgz:17071.got - 2010.06.03 18:57:09.
