data_PCOD9506381
_publ_section_title
;
Structure prediction by ZEFSAII (Michael W. Deem and Ramdas Pophale) SiO2 
 PCOD9506381
Probable space group: C C C A
;
_chemical_formula_sum "Si O2"
_cell_formula_units_Z 112
_cell_length_a 16.786587
_cell_length_b 11.407570
_cell_length_c 31.455813
_cell_angle_alpha 90.000000
_cell_angle_beta 90.000000
_cell_angle_gamma 90.000000
_cell_volume 6023.604685
_symmetry_space_group_name_H-M "C C C A"
_symmetry_group_IT_number 68
_space_group.IT_coordinate_system_code '2'
_symmetry_cell_setting 'orthorhombic'
loop_
_space_group_symop_operation_xyz
x,y,z
-x,1/2-y,z
x,1/2-y,1/2-z
-x,y,1/2-z
-x,-y,-z
x,1/2+y,-z
-x,1/2+y,1/2+z
x,-y,1/2+z
1/2+x,1/2+y,z
1/2-x,-y,z
1/2+x,-y,1/2-z
1/2-x,1/2+y,1/2-z
1/2-x,1/2-y,-z
1/2+x,y,-z
1/2-x,y,1/2+z
1/2+x,1/2-y,1/2+z
loop_
_atom_site_type_symbol
_atom_site_label
_atom_site_fract_x
_atom_site_fract_y
_atom_site_fract_z
Si Si1 0.413350 0.488003 0.625568
Si Si2 0.874034 0.787824 0.075831
Si Si3 0.689247 0.276164 0.905878
Si Si4 0.078948 0.330932 0.480757
Si Si5 0.328626 0.564931 0.346174
Si Si6 0.573107 0.529510 0.579330
Si Si7 0.992312 0.610983 0.699636
O O1 0.393731 0.621124 0.613355
O O2 0.345680 0.402572 0.607296
O O3 0.496459 0.469127 0.600635
O O4 0.438728 0.456630 0.673487
O O5 0.779849 0.769055 0.079334
O O6 0.925065 0.668737 0.078056
O O7 0.890693 0.835359 0.028792
O O8 0.636028 0.226681 0.944770
O O9 0.683985 0.196010 0.863569
O O10 0.075145 0.466171 0.465692
O O11 0.000000 0.250000 0.479736
O O12 0.250000 0.500000 0.329116
O O13 0.353475 0.499340 0.389755
O O14 0.405560 0.566290 0.315817
O O15 0.000000 0.750000 0.689163
O O16 0.000000 0.597087 0.750000
#
# Coordination Sequence:
#
# PCOD9506381 Si02
#       7
#    16  16  16  16  16  16  16
#     4  11  22  40  63  86 122 162 202 256 317 379
#     4  12  25  38  56  87 128 168 209 262 319 375
#     4  11  22  40  57  89 120 167 209 266 311 362
#     4  11  23  38  61  81 120 170 226 273 305 356
#     4  10  19  38  66  89 122 161 202 250 310 367
#     4  10  22  38  60  85 114 166 220 254 305 369
#     4  10  21  40  72 102 121 153 208 260 306 383
#
# _framework density 18.593516999999999
#
# number of rings (size 3 to 8) (size 9 to 14) (size 15 to 20)
#    0.000    1.286    4.286    2.143    2.000    1.143 
#    2.571    1.429    0.000    6.857    0.000    0.000 
#    0.000    0.000    0.000    0.000    0.000    0.000 
#
# Total GULP energy -312327.280552 kJ/mol
# GULP energy per Si atom -5577.272867 kJ/mol
# Density = 1.855120 g / cm^3
# Si number density = 18.593517 Si / 1000 Ang^3
#
#
#
# Elastic Constant Matrix: (Units=GPa)
#
#
# Indices 1 2 3 4 5 6 
#
# 1 91.6257 17.8329 28.8369 0.0000 0.0000 0.0000
# 2 17.8329 113.9949 39.2657 0.0000 0.0000 0.0000
# 3 28.8369 39.2657 87.1765 0.0000 0.0000 0.0000
# 4 0.0000 0.0000 0.0000 14.5662 0.0000 0.0000
# 5 0.0000 0.0000 0.0000 0.0000 20.3320 0.0000
# 6 0.0000 0.0000 0.0000 0.0000 0.0000 27.5924
#
#
#
# Elastic Compliance Matrix: (Units=1/GPa)
#
#
# Indices 1 2 3 4 5 6 
#
# 1 0.012218 -0.000615 -0.003765 0.000000 0.000000 0.000000
# 2 -0.000615 0.010414 -0.004487 0.000000 0.000000 0.000000
# 3 -0.003765 -0.004487 0.014738 0.000000 0.000000 0.000000
# 4 0.000000 0.000000 0.000000 0.068652 0.000000 0.000000
# 5 0.000000 0.000000 0.000000 0.000000 0.049184 0.000000
# 6 0.000000 0.000000 0.000000 0.000000 0.000000 0.036242
#
#
# Mechanical properties :
#
#
# Convention : Reuss Voigt Hill
#
# Bulk Modulus (GPa) = 50.92576 51.62977 51.27777
# Shear Modulus (GPa) = 23.17745 26.28889 24.73317
#
# Velocity S-wave (km/s) = 3.53446 3.76423 3.65115
# Velocity P-wave (km/s) = 6.64116 6.83524 6.73890
#
# Compressibility (1/GPa) = 0.01963643
#
# Stress axis : x y z
#
# Youngs Moduli (GPa) = 81.84313 96.02309 67.85386
#
# Poissons Ratio (x) = 0.05901 0.25546
# Poissons Ratio (y) = 0.05030 0.30449
# Poissons Ratio (z) = 0.30813 0.43089
#
# Static dielectric constant tensor:
#      x y z
#    x 1.673910 0.000000 0.000000 
#    y 0.000000 1.694210 0.000000 
#    z 0.000000 0.000000 1.611850 
# 
# From -- ./inp_files/55281.got.cif
#   From: 2010.05.17/outbox.cif.g08.bks.cpg/sg68_28_cif.got.tgz:55281.got - 2010.06.03 18:57:09.
