data_PCOD9506941
_publ_section_title
;
Structure prediction by ZEFSAII (Michael W. Deem and Ramdas Pophale) SiO2 
 PCOD9506941
Probable space group: C C C A
;
_chemical_formula_sum "Si O2"
_cell_formula_units_Z 80
_cell_length_a 8.363145
_cell_length_b 14.743787
_cell_length_c 24.583874
_cell_angle_alpha 90.000000
_cell_angle_beta 90.000000
_cell_angle_gamma 90.000000
_cell_volume 3031.300535
_symmetry_space_group_name_H-M "C C C A"
_symmetry_group_IT_number 68
_space_group.IT_coordinate_system_code '2'
_symmetry_cell_setting 'orthorhombic'
loop_
_space_group_symop_operation_xyz
x,y,z
-x,1/2-y,z
x,1/2-y,1/2-z
-x,y,1/2-z
-x,-y,-z
x,1/2+y,-z
-x,1/2+y,1/2+z
x,-y,1/2+z
1/2+x,1/2+y,z
1/2-x,-y,z
1/2+x,-y,1/2-z
1/2-x,1/2+y,1/2-z
1/2-x,1/2-y,-z
1/2+x,y,-z
1/2-x,y,1/2+z
1/2+x,1/2-y,1/2+z
loop_
_atom_site_type_symbol
_atom_site_label
_atom_site_fract_x
_atom_site_fract_y
_atom_site_fract_z
Si Si1 0.707325 0.108472 0.579616
Si Si2 0.820358 0.397731 0.226096
Si Si3 0.822004 0.596694 0.118518
Si Si4 0.501972 0.890623 0.989937
Si Si5 0.110284 0.662479 0.177570
O O1 0.544404 0.137109 0.550866
O O2 0.745724 0.156469 0.635216
O O3 0.833822 0.137886 0.533640
O O4 0.750000 0.000000 0.586222
O O5 0.750000 0.500000 0.227457
O O6 0.800206 0.364568 0.163823
O O7 0.691197 0.348362 0.264540
O O8 0.000000 0.392203 0.250000
O O9 0.750000 0.500000 0.103599
O O10 0.881094 0.635243 0.060745
O O11 0.986307 0.586424 0.154598
O O12 0.500000 0.000000 0.000000
O O13 0.000000 0.750000 0.171507
#
# Coordination Sequence:
#
# PCOD9506941 Si02
#       5
#    16  16  16  16  16
#     4   9  18  33  59  89 122 168 218 265 318 381
#     4  11  23  40  67  97 123 162 217 273 325 390
#     4  10  20  37  61  88 121 163 209 259 316 378
#     4   9  17  31  56  91 122 157 210 266 314 372
#     4  11  24  42  62  91 131 172 212 266 331 388
#
# _framework density 26.391314000000001
#
# number of rings (size 3 to 8) (size 9 to 14) (size 15 to 20)
#    0.000    2.000    0.000    5.400    0.000    9.600 
#    0.000    6.000    0.000    0.000    0.000    0.000 
#    0.000    0.000    0.000    0.000    0.000    0.200 
#
# Total GULP energy -223362.040853 kJ/mol
# GULP energy per Si atom -5584.051021 kJ/mol
# Density = 2.633125 g / cm^3
# Si number density = 26.391314 Si / 1000 Ang^3
#
#
#
# Elastic Constant Matrix: (Units=GPa)
#
#
# Indices 1 2 3 4 5 6 
#
# 1 72.0976 20.7200 25.3059 0.0000 0.0000 0.0000
# 2 20.7200 75.9746 28.1026 0.0000 0.0000 0.0000
# 3 25.3059 28.1026 171.1333 0.0000 0.0000 0.0000
# 4 0.0000 0.0000 0.0000 -14.5809 0.0000 0.0000
# 5 0.0000 0.0000 0.0000 0.0000 63.6510 0.0000
# 6 0.0000 0.0000 0.0000 0.0000 0.0000 16.8521
#
#
#
# Elastic Compliance Matrix: (Units=1/GPa)
#
#
# Indices 1 2 3 4 5 6 
#
# 1 0.015501 -0.003598 -0.001701 0.000000 0.000000 0.000000
# 2 -0.003598 0.014849 -0.001906 0.000000 0.000000 0.000000
# 3 -0.001701 -0.001906 0.006408 0.000000 0.000000 0.000000
# 4 0.000000 0.000000 0.000000 -0.068583 0.000000 0.000000
# 5 0.000000 0.000000 0.000000 0.000000 0.015711 0.000000
# 6 0.000000 0.000000 0.000000 0.000000 0.000000 0.059340
#
#
# Mechanical properties :
#
#
# Convention : Reuss Voigt Hill
#
# Bulk Modulus (GPa) = 44.75008 51.94029 48.34519
# Shear Modulus (GPa) = 76.82126 29.52291 53.17209
#
# Velocity S-wave (km/s) = 5.40109 3.34827 4.49347
# Velocity P-wave (km/s) = 7.47588 5.88824 6.72905
#
# Compressibility (1/GPa) = 0.02234633
#
# Stress axis : x y z
#
# Youngs Moduli (GPa) = 64.51048 67.34576 156.05437
#
# Poissons Ratio (x) = 0.24233 0.26550
# Poissons Ratio (y) = 0.23213 0.29749
# Poissons Ratio (z) = 0.10975 0.12838
#
# Static dielectric constant tensor:
#      x y z
#    x 2.184280 0.000000 0.000000 
#    y 0.000000 2.190210 0.000000 
#    z 0.000000 0.000000 2.052010 
# 
# From -- ./inp_files/49092.got.cif
#   From: 2010.05.17/outbox.cif.g08.bks.cpg/sg68_25_cif.got.tgz:49092.got - 2010.06.03 18:57:09.
