data_PCOD9506384
_publ_section_title
;
Structure prediction by ZEFSAII (Michael W. Deem and Ramdas Pophale) SiO2 
 PCOD9506384
Probable space group: C C C A
;
_chemical_formula_sum "Si O2"
_cell_formula_units_Z 80
_cell_length_a 15.840459
_cell_length_b 24.534008
_cell_length_c 9.093662
_cell_angle_alpha 90.000000
_cell_angle_beta 90.000000
_cell_angle_gamma 90.000000
_cell_volume 3534.069389
_symmetry_space_group_name_H-M "C C C A"
_symmetry_group_IT_number 68
_space_group.IT_coordinate_system_code '2'
_symmetry_cell_setting 'orthorhombic'
loop_
_space_group_symop_operation_xyz
x,y,z
-x,1/2-y,z
x,1/2-y,1/2-z
-x,y,1/2-z
-x,-y,-z
x,1/2+y,-z
-x,1/2+y,1/2+z
x,-y,1/2+z
1/2+x,1/2+y,z
1/2-x,-y,z
1/2+x,-y,1/2-z
1/2-x,1/2+y,1/2-z
1/2-x,1/2-y,-z
1/2+x,y,-z
1/2-x,y,1/2+z
1/2+x,1/2-y,1/2+z
loop_
_atom_site_type_symbol
_atom_site_label
_atom_site_fract_x
_atom_site_fract_y
_atom_site_fract_z
Si Si1 0.722191 0.250000 0.250000
Si Si2 0.874167 0.827298 0.735847
Si Si3 0.086633 0.234822 0.999160
Si Si4 0.750000 0.500000 0.235831
Si Si5 0.963935 0.931879 0.598254
Si Si6 0.366997 0.964377 0.986912
O O1 0.778914 0.305094 0.235387
O O2 0.664132 0.239121 0.109820
O O3 0.903982 0.781896 0.620457
O O4 0.907393 0.882020 0.658929
O O5 0.914759 0.818417 0.897011
O O6 0.000000 0.250000 0.920712
O O7 0.691205 0.463017 0.341871
O O8 0.693310 0.537745 0.129110
O O9 0.000000 0.957921 0.750000
O O10 0.049321 0.927437 0.500286
O O11 0.903734 0.974133 0.517112
#
# Coordination Sequence:
#
# PCOD9506384 Si02
#       6
#     8  16  16   8  16  16
#     4  10  21  40  63  98 144 170 216 286 353 401
#     4  10  20  38  64  93 124 180 229 267 333 420
#     4  10  19  38  66  93 133 185 215 270 350 418
#     4  10  20  44  64  96 124 176 232 284 382 422
#     4  11  21  39  65  97 128 175 237 283 345 430
#     4  10  22  40  69  91 131 177 221 299 356 432
#
# _framework density 22.636793999999998
#
# number of rings (size 3 to 8) (size 9 to 14) (size 15 to 20)
#    0.000    2.000    2.000    5.100    0.000    0.000 
#    7.200    2.000    8.800    0.000    0.000    0.000 
#    0.000    0.000    0.000    0.000    0.000    0.000 
#
# Total GULP energy -222885.466875 kJ/mol
# GULP energy per Si atom -5572.136672 kJ/mol
# Density = 2.258527 g / cm^3
# Si number density = 22.636794 Si / 1000 Ang^3
#
#
#
# Elastic Constant Matrix: (Units=GPa)
#
#
# Indices 1 2 3 4 5 6 
#
# 1 140.8118 39.7036 48.9681 0.0000 0.0000 0.0000
# 2 39.7036 119.6709 36.9854 0.0000 0.0000 0.0000
# 3 48.9681 36.9854 109.1936 0.0000 0.0000 0.0000
# 4 0.0000 0.0000 0.0000 31.4453 0.0000 0.0000
# 5 0.0000 0.0000 0.0000 0.0000 47.6640 0.0000
# 6 0.0000 0.0000 0.0000 0.0000 0.0000 14.8804
#
#
#
# Elastic Compliance Matrix: (Units=1/GPa)
#
#
# Indices 1 2 3 4 5 6 
#
# 1 0.008782 -0.001895 -0.003297 0.000000 0.000000 0.000000
# 2 -0.001895 0.009742 -0.002450 0.000000 0.000000 0.000000
# 3 -0.003297 -0.002450 0.011466 0.000000 0.000000 0.000000
# 4 0.000000 0.000000 0.000000 0.031801 0.000000 0.000000
# 5 0.000000 0.000000 0.000000 0.000000 0.020980 0.000000
# 6 0.000000 0.000000 0.000000 0.000000 0.000000 0.067202
#
#
# Mechanical properties :
#
#
# Convention : Reuss Voigt Hill
#
# Bulk Modulus (GPa) = 67.99178 68.99895 68.49537
# Shear Modulus (GPa) = 29.38403 35.06589 32.22496
#
# Velocity S-wave (km/s) = 3.60678 3.94009 3.77711
# Velocity P-wave (km/s) = 6.88813 7.15864 7.02468
#
# Compressibility (1/GPa) = 0.01470766
#
# Stress axis : x y z
#
# Youngs Moduli (GPa) = 113.86407 102.64692 87.21213
#
# Poissons Ratio (x) = 0.19451 0.28751
# Poissons Ratio (y) = 0.21576 0.21367
# Poissons Ratio (z) = 0.37537 0.25149
#
# Static dielectric constant tensor:
#      x y z
#    x 1.971540 0.000000 0.000000 
#    y 0.000000 1.883450 0.000000 
#    z 0.000000 0.000000 1.836510 
# 
# From -- ./inp_files/6285.got.cif
#   From: 2010.05.17/outbox.cif.g08.bks.cpg/sg68_4_cif.got.tgz:6285.got - 2010.06.03 18:57:09.
