data_PCOD9506598
_publ_section_title
;
Structure prediction by ZEFSAII (Michael W. Deem and Ramdas Pophale) SiO2 
 PCOD9506598
Probable space group: C C C A
;
_chemical_formula_sum "Si O2"
_cell_formula_units_Z 112
_cell_length_a 14.571408
_cell_length_b 29.949142
_cell_length_c 12.669829
_cell_angle_alpha 90.000000
_cell_angle_beta 90.000000
_cell_angle_gamma 90.000000
_cell_volume 5529.128165
_symmetry_space_group_name_H-M "C C C A"
_symmetry_group_IT_number 68
_space_group.IT_coordinate_system_code '2'
_symmetry_cell_setting 'orthorhombic'
loop_
_space_group_symop_operation_xyz
x,y,z
-x,1/2-y,z
x,1/2-y,1/2-z
-x,y,1/2-z
-x,-y,-z
x,1/2+y,-z
-x,1/2+y,1/2+z
x,-y,1/2+z
1/2+x,1/2+y,z
1/2-x,-y,z
1/2+x,-y,1/2-z
1/2-x,1/2+y,1/2-z
1/2-x,1/2-y,-z
1/2+x,y,-z
1/2-x,y,1/2+z
1/2+x,1/2-y,1/2+z
loop_
_atom_site_type_symbol
_atom_site_label
_atom_site_fract_x
_atom_site_fract_y
_atom_site_fract_z
Si Si1 0.673501 0.561139 0.587789
Si Si2 0.375578 0.040083 0.644803
Si Si3 0.927238 0.574230 0.873464
Si Si4 0.440489 0.354575 0.356375
Si Si5 0.127213 0.261462 0.412258
Si Si6 0.514961 0.670383 0.408188
Si Si7 0.838149 0.765178 0.361916
O O1 0.643101 0.511961 0.624569
O O2 0.782885 0.564893 0.606440
O O3 0.645967 0.567135 0.465637
O O4 0.611726 0.598267 0.645339
O O5 0.392331 0.050635 0.767825
O O6 0.472427 0.055019 0.593681
O O7 0.944673 0.626748 0.853290
O O8 0.500000 0.349031 0.250000
O O9 0.491984 0.346297 0.468881
O O10 0.362993 0.316788 0.367464
O O11 0.079238 0.213908 0.390384
O O12 0.121016 0.261861 0.539962
O O13 0.230000 0.258974 0.372920
O O14 0.080147 0.306902 0.373335
O O15 0.874508 0.750000 0.250000
#
# Coordination Sequence:
#
# PCOD9506598 Si02
#       7
#    16  16  16  16  16  16  16
#     4  10  23  42  63  96 123 159 218 255 323 379
#     4  10  23  42  65  91 125 168 203 268 315 388
#     4  10  22  42  66  91 126 171 204 260 321 378
#     4  10  21  36  58  89 119 157 205 259 304 374
#     4   9  19  36  57  81 119 155 198 251 292 373
#     4   9  19  38  57  83 118 159 201 245 310 358
#     4  10  20  34  56  85 117 155 196 244 311 352
#
# _framework density 20.256359
#
# number of rings (size 3 to 8) (size 9 to 14) (size 15 to 20)
#    0.000    2.286    0.000    1.286    4.000    4.857 
#    7.714    0.714    0.000    0.000    0.000    0.000 
#    0.000    0.000    0.000    0.000    0.000    0.000 
#
# Total GULP energy -312265.563476 kJ/mol
# GULP energy per Si atom -5576.170776 kJ/mol
# Density = 2.021026 g / cm^3
# Si number density = 20.256359 Si / 1000 Ang^3
#
#
#
# Elastic Constant Matrix: (Units=GPa)
#
#
# Indices 1 2 3 4 5 6 
#
# 1 101.8799 23.3311 15.3348 0.0000 0.0000 0.0000
# 2 23.3311 105.2769 15.4029 0.0000 0.0000 0.0000
# 3 15.3348 15.4029 86.6685 0.0000 0.0000 0.0000
# 4 0.0000 0.0000 0.0000 147.1965 0.0000 0.0000
# 5 0.0000 0.0000 0.0000 0.0000 12.7144 0.0000
# 6 0.0000 0.0000 0.0000 0.0000 0.0000 13.4291
#
#
#
# Elastic Compliance Matrix: (Units=1/GPa)
#
#
# Indices 1 2 3 4 5 6 
#
# 1 0.010523 -0.002115 -0.001486 0.000000 0.000000 0.000000
# 2 -0.002115 0.010177 -0.001435 0.000000 0.000000 0.000000
# 3 -0.001486 -0.001435 0.012056 0.000000 0.000000 0.000000
# 4 0.000000 0.000000 0.000000 0.006794 0.000000 0.000000
# 5 0.000000 0.000000 0.000000 0.000000 0.078651 0.000000
# 6 0.000000 0.000000 0.000000 0.000000 0.000000 0.074465
#
#
# Mechanical properties :
#
#
# Convention : Reuss Voigt Hill
#
# Bulk Modulus (GPa) = 44.08003 44.66254 44.37129
# Shear Modulus (GPa) = 23.77565 50.65178 37.21371
#
# Velocity S-wave (km/s) = 3.42970 5.00596 4.29083
# Velocity P-wave (km/s) = 6.12308 7.45046 6.81915
#
# Compressibility (1/GPa) = 0.02268601
#
# Stress axis : x y z
#
# Youngs Moduli (GPa) = 95.02583 98.25784 82.94544
#
# Poissons Ratio (x) = 0.20779 0.12327
# Poissons Ratio (y) = 0.20095 0.11899
# Poissons Ratio (z) = 0.14122 0.14096
#
# Static dielectric constant tensor:
#      x y z
#    x 1.725890 0.000000 0.000000 
#    y 0.000000 1.720090 0.000000 
#    z 0.000000 0.000000 1.772240 
# 
# From -- ./inp_files/13576.got.cif
#   From: 2010.05.17/outbox.cif.g08.bks.cpg/sg68_7_cif.got.tgz:13576.got - 2010.06.03 18:57:09.
