data_PCOD9506463
_publ_section_title
;
Structure prediction by ZEFSAII (Michael W. Deem and Ramdas Pophale) SiO2 
 PCOD9506463
Probable space group: C C C A
;
_chemical_formula_sum "Si O2"
_cell_formula_units_Z 88
_cell_length_a 10.918829
_cell_length_b 20.325912
_cell_length_c 16.643895
_cell_angle_alpha 90.000000
_cell_angle_beta 90.000000
_cell_angle_gamma 90.000000
_cell_volume 3693.865457
_symmetry_space_group_name_H-M "C C C A"
_symmetry_group_IT_number 68
_space_group.IT_coordinate_system_code '2'
_symmetry_cell_setting 'orthorhombic'
loop_
_space_group_symop_operation_xyz
x,y,z
-x,1/2-y,z
x,1/2-y,1/2-z
-x,y,1/2-z
-x,-y,-z
x,1/2+y,-z
-x,1/2+y,1/2+z
x,-y,1/2+z
1/2+x,1/2+y,z
1/2-x,-y,z
1/2+x,-y,1/2-z
1/2-x,1/2+y,1/2-z
1/2-x,1/2-y,-z
1/2+x,y,-z
1/2-x,y,1/2+z
1/2+x,1/2-y,1/2+z
loop_
_atom_site_type_symbol
_atom_site_label
_atom_site_fract_x
_atom_site_fract_y
_atom_site_fract_z
Si Si1 0.813731 0.187154 0.429755
Si Si2 0.000000 0.250000 0.968585
Si Si3 0.889321 0.973325 0.384295
Si Si4 0.698125 0.572774 0.460882
Si Si5 0.423327 0.667085 0.830148
Si Si6 0.480902 0.392835 0.657714
O O1 0.773111 0.126442 0.487662
O O2 0.708909 0.196881 0.360803
O O3 0.934215 0.158279 0.387638
O O4 0.874793 0.246956 0.480256
O O5 0.996902 0.311264 0.907379
O O6 0.908453 0.945407 0.474330
O O7 0.901634 0.910690 0.327694
O O8 0.750000 0.000000 0.382433
O O9 0.973521 0.033119 0.360053
O O10 0.750000 0.500000 0.442123
O O11 0.653322 0.607246 0.380087
O O12 0.500000 0.684114 0.750000
O O13 0.500000 0.379913 0.750000
#
# Coordination Sequence:
#
# PCOD9506463 Si02
#       6
#    16   8  16  16  16  16
#     4  11  24  48  70 102 143 190 250 292 365 443
#     4  12  27  46  77 100 138 206 254 300 345 446
#     4  10  19  42  71 101 147 185 231 292 368 455
#     4  10  21  39  69  99 144 191 236 291 361 444
#     4  11  24  44  73 109 148 188 243 311 363 427
#     4  12  24  39  65 105 144 183 233 308 380 430
#
# _framework density 23.823283
#
# number of rings (size 3 to 8) (size 9 to 14) (size 15 to 20)
#    0.000    1.091    5.455    4.091    2.545    2.182 
#    0.000    2.273    0.000    0.000    0.000    0.000 
#    0.000    0.000    0.000    0.000    0.000    0.000 
#
# Total GULP energy -245545.173577 kJ/mol
# GULP energy per Si atom -5580.572127 kJ/mol
# Density = 2.376906 g / cm^3
# Si number density = 23.823283 Si / 1000 Ang^3
#
#
#
# Elastic Constant Matrix: (Units=GPa)
#
#
# Indices 1 2 3 4 5 6 
#
# 1 88.4814 18.5516 56.1240 0.0000 0.0000 0.0000
# 2 18.5516 79.7748 32.9340 0.0000 0.0000 0.0000
# 3 56.1240 32.9340 142.8596 0.0000 0.0000 0.0000
# 4 0.0000 0.0000 0.0000 6.7738 0.0000 0.0000
# 5 0.0000 0.0000 0.0000 0.0000 34.5701 0.0000
# 6 0.0000 0.0000 0.0000 0.0000 0.0000 13.1347
#
#
#
# Elastic Compliance Matrix: (Units=1/GPa)
#
#
# Indices 1 2 3 4 5 6 
#
# 1 0.015152 -0.001178 -0.005681 0.000000 0.000000 0.000000
# 2 -0.001178 0.013945 -0.002752 0.000000 0.000000 0.000000
# 3 -0.005681 -0.002752 0.009866 0.000000 0.000000 0.000000
# 4 0.000000 0.000000 0.000000 0.147628 0.000000 0.000000
# 5 0.000000 0.000000 0.000000 0.000000 0.028927 0.000000
# 6 0.000000 0.000000 0.000000 0.000000 0.000000 0.076134
#
#
# Mechanical properties :
#
#
# Convention : Reuss Voigt Hill
#
# Bulk Modulus (GPa) = 50.65554 58.48167 54.56861
# Shear Modulus (GPa) = 15.75019 24.46279 20.10649
#
# Velocity S-wave (km/s) = 2.57403 3.20792 2.90829
# Velocity P-wave (km/s) = 5.49030 6.19051 5.85089
#
# Compressibility (1/GPa) = 0.01974118
#
# Stress axis : x y z
#
# Youngs Moduli (GPa) = 65.99595 71.70809 101.35599
#
# Poissons Ratio (x) = 0.08449 0.57582
# Poissons Ratio (y) = 0.07776 0.27893
# Poissons Ratio (z) = 0.37493 0.19734
#
# Static dielectric constant tensor:
#      x y z
#    x 2.008610 0.000000 0.000000 
#    y 0.000000 1.926580 0.000000 
#    z 0.000000 0.000000 1.965000 
# 
# From -- ./inp_files/20969.got.cif
#   From: 2010.05.17/outbox.cif.g08.bks.cpg/sg68_11_cif.got.tgz:20969.got - 2010.06.03 18:57:09.
