data_PCOD9506209
_publ_section_title
;
Structure prediction by ZEFSAII (Michael W. Deem and Ramdas Pophale) SiO2 
 PCOD9506209
Probable space group: C C C A
;
_chemical_formula_sum "Si O2"
_cell_formula_units_Z 84
_cell_length_a 12.164715
_cell_length_b 19.676018
_cell_length_c 18.048633
_cell_angle_alpha 90.000000
_cell_angle_beta 90.000000
_cell_angle_gamma 90.000000
_cell_volume 4319.997185
_symmetry_space_group_name_H-M "C C C A"
_symmetry_group_IT_number 68
_space_group.IT_coordinate_system_code '2'
_symmetry_cell_setting 'orthorhombic'
loop_
_space_group_symop_operation_xyz
x,y,z
-x,1/2-y,z
x,1/2-y,1/2-z
-x,y,1/2-z
-x,-y,-z
x,1/2+y,-z
-x,1/2+y,1/2+z
x,-y,1/2+z
1/2+x,1/2+y,z
1/2-x,-y,z
1/2+x,-y,1/2-z
1/2-x,1/2+y,1/2-z
1/2-x,1/2-y,-z
1/2+x,y,-z
1/2-x,y,1/2+z
1/2+x,1/2-y,1/2+z
loop_
_atom_site_type_symbol
_atom_site_label
_atom_site_fract_x
_atom_site_fract_y
_atom_site_fract_z
Si Si1 0.251710 0.917967 0.708188
Si Si2 0.913235 0.575853 0.584450
Si Si3 0.500000 0.250000 0.750000
Si Si4 0.870026 0.143789 0.150794
Si Si5 0.687139 0.574031 0.922460
Si Si6 0.522505 0.448644 0.171679
O O1 0.180674 0.895009 0.638047
O O2 0.188299 0.895798 0.781342
O O3 0.378959 0.898153 0.694685
O O4 0.250000 0.000000 0.710137
O O5 0.874302 0.579913 0.500751
O O6 0.929683 0.497457 0.608411
O O7 0.027064 0.609589 0.609155
O O8 0.578462 0.292406 0.805804
O O9 0.772321 0.135780 0.090721
O O10 0.750000 0.500000 0.918932
O O11 0.592531 0.576429 0.860006
O O12 0.500000 0.487015 0.250000
#
# Coordination Sequence:
#
# PCOD9506209 Si02
#       6
#    16  16   4  16  16  16
#     4  10  19  35  61  97 127 168 211 267 329 397
#     4  11  22  35  61  96 139 171 205 262 339 409
#     4  12  28  48  72  94 112 188 258 274 306 384
#     4  12  23  43  66  91 127 174 231 283 310 393
#     4  12  24  37  61 106 145 170 205 272 358 418
#     4  11  20  33  59  97 142 173 204 250 332 421
#
# _framework density 19.444457
#
# number of rings (size 3 to 8) (size 9 to 14) (size 15 to 20)
#    0.000    0.762    5.714    5.143    2.667    0.000 
#    0.000    0.952    0.000    2.286    0.000    0.000 
#    0.000    0.000    0.000    0.000    0.000    0.000 
#
# Total GULP energy -233952.090247 kJ/mol
# GULP energy per Si atom -5570.287863 kJ/mol
# Density = 1.940020 g / cm^3
# Si number density = 19.444457 Si / 1000 Ang^3
#
#
#
# Elastic Constant Matrix: (Units=GPa)
#
#
# Indices 1 2 3 4 5 6 
#
# 1 180.5592 36.6946 77.3030 0.0000 0.0000 0.0000
# 2 36.6946 32.2426 23.4465 0.0000 0.0000 0.0000
# 3 77.3030 23.4465 157.8094 0.0000 0.0000 0.0000
# 4 0.0000 0.0000 0.0000 4.1554 0.0000 0.0000
# 5 0.0000 0.0000 0.0000 0.0000 35.4867 0.0000
# 6 0.0000 0.0000 0.0000 0.0000 0.0000 17.0969
#
#
#
# Elastic Compliance Matrix: (Units=1/GPa)
#
#
# Indices 1 2 3 4 5 6 
#
# 1 0.008292 -0.007269 -0.002982 0.000000 0.000000 0.000000
# 2 -0.007269 0.041143 -0.002552 0.000000 0.000000 0.000000
# 3 -0.002982 -0.002552 0.008177 0.000000 0.000000 0.000000
# 4 0.000000 0.000000 0.000000 0.240652 0.000000 0.000000
# 5 0.000000 0.000000 0.000000 0.000000 0.028180 0.000000
# 6 0.000000 0.000000 0.000000 0.000000 0.000000 0.058490
#
#
# Mechanical properties :
#
#
# Convention : Reuss Voigt Hill
#
# Bulk Modulus (GPa) = 31.24400 71.72216 51.48308
# Shear Modulus (GPa) = 11.87060 26.89227 19.38143
#
# Velocity S-wave (km/s) = 2.47348 3.72295 3.16057
# Velocity P-wave (km/s) = 4.92552 7.44622 6.31296
#
# Compressibility (1/GPa) = 0.03200615
#
# Stress axis : x y z
#
# Youngs Moduli (GPa) = 120.59462 24.30538 122.29876
#
# Poissons Ratio (x) = 0.17667 0.36470
# Poissons Ratio (y) = 0.87657 0.31214
# Poissons Ratio (z) = 0.35961 0.06203
#
# Static dielectric constant tensor:
#      x y z
#    x 1.796150 0.000000 0.000000 
#    y 0.000000 1.687650 0.000000 
#    z 0.000000 0.000000 1.754980 
# 
# From -- ./inp_files/29590.got.cif
#   From: 2010.05.17/outbox.cif.g08.bks.cpg/sg68_15_cif.got.tgz:29590.got - 2010.06.03 18:57:09.
