data_PCOD9506202
_publ_section_title
;
Structure prediction by ZEFSAII (Michael W. Deem and Ramdas Pophale) SiO2 
 PCOD9506202
Probable space group: C C C A
;
_chemical_formula_sum "Si O2"
_cell_formula_units_Z 108
_cell_length_a 5.475322
_cell_length_b 27.396217
_cell_length_c 32.072377
_cell_angle_alpha 90.000000
_cell_angle_beta 90.000000
_cell_angle_gamma 90.000000
_cell_volume 4810.956284
_symmetry_space_group_name_H-M "C C C A"
_symmetry_group_IT_number 68
_space_group.IT_coordinate_system_code '2'
_symmetry_cell_setting 'orthorhombic'
loop_
_space_group_symop_operation_xyz
x,y,z
-x,1/2-y,z
x,1/2-y,1/2-z
-x,y,1/2-z
-x,-y,-z
x,1/2+y,-z
-x,1/2+y,1/2+z
x,-y,1/2+z
1/2+x,1/2+y,z
1/2-x,-y,z
1/2+x,-y,1/2-z
1/2-x,1/2+y,1/2-z
1/2-x,1/2-y,-z
1/2+x,y,-z
1/2-x,y,1/2+z
1/2+x,1/2-y,1/2+z
loop_
_atom_site_type_symbol
_atom_site_label
_atom_site_fract_x
_atom_site_fract_y
_atom_site_fract_z
Si Si1 0.628401 0.067198 0.022517
Si Si2 0.303965 0.292216 0.824236
Si Si3 0.000000 0.250000 0.750000
Si Si4 0.498743 0.072931 0.388222
Si Si5 0.501604 0.508112 0.185665
Si Si6 0.642228 0.185540 0.024619
Si Si7 0.500000 0.250000 0.399631
Si Si8 0.997228 0.610098 0.640716
O O1 0.560135 0.048173 0.068013
O O2 0.632957 0.126564 0.027582
O O3 0.899093 0.054058 0.006993
O O4 0.500000 0.250000 0.820153
O O5 0.143439 0.285304 0.782510
O O6 0.437578 0.343122 0.831669
O O7 0.161146 0.281196 0.867324
O O8 0.505476 0.030773 0.353037
O O9 0.761267 0.100426 0.389236
O O10 0.268406 0.108753 0.378849
O O11 0.250000 0.500000 0.207548
O O12 0.502111 0.562587 0.169131
O O13 0.750000 0.500000 0.208728
O O14 0.639986 0.213331 0.068921
O O15 0.388726 0.198267 0.000715
#
# Coordination Sequence:
#
# PCOD9506202 Si02
#       8
#    16  16   4  16  16  16   8  16
#     4  10  20  32  48  75 110 165 216 258 318 390
#     4  11  26  42  68  96 131 170 213 269 318 395
#     4  10  26  52  64  94 144 168 210 256 334 402
#     4  10  19  35  60  89 128 160 208 276 326 370
#     4   8  16  32  55  86 121 152 192 251 322 365
#     4  10  22  36  53  78 122 170 215 274 333 374
#     4  11  24  37  58  88 120 160 230 275 324 379
#     4  10  21  36  63  91 121 157 203 256 320 371
#
# _framework density 22.44876
#
# number of rings (size 3 to 8) (size 9 to 14) (size 15 to 20)
#    0.000    2.074    0.000    2.444    8.296    1.185 
#    0.000    0.000    0.000   24.000    0.000    0.000 
#   40.000    0.000    0.000    0.000    0.000    0.000 
#
# Total GULP energy -301524.643886 kJ/mol
# GULP energy per Si atom -5583.789702 kJ/mol
# Density = 2.239767 g / cm^3
# Si number density = 22.448760 Si / 1000 Ang^3
#
#
#
# Elastic Constant Matrix: (Units=GPa)
#
#
# Indices 1 2 3 4 5 6 
#
# 1 164.1630 56.6017 50.2834 0.0000 0.0000 0.0000
# 2 56.6017 75.6721 31.9555 0.0000 0.0000 0.0000
# 3 50.2834 31.9555 146.2047 0.0000 0.0000 0.0000
# 4 0.0000 0.0000 0.0000 -1.1097 0.0000 0.0000
# 5 0.0000 0.0000 0.0000 0.0000 20.8384 0.0000
# 6 0.0000 0.0000 0.0000 0.0000 0.0000 26.1897
#
#
#
# Elastic Compliance Matrix: (Units=1/GPa)
#
#
# Indices 1 2 3 4 5 6 
#
# 1 0.008578 -0.005696 -0.001705 0.000000 0.000000 0.000000
# 2 -0.005696 0.018341 -0.002050 0.000000 0.000000 0.000000
# 3 -0.001705 -0.002050 0.007874 0.000000 0.000000 0.000000
# 4 0.000000 0.000000 0.000000 -0.901122 0.000000 0.000000
# 5 0.000000 0.000000 0.000000 0.000000 0.047988 0.000000
# 6 0.000000 0.000000 0.000000 0.000000 0.000000 0.038183
#
#
# Mechanical properties :
#
#
# Convention : Reuss Voigt Hill
#
# Bulk Modulus (GPa) = 62.92795 73.74678 68.33736
# Shear Modulus (GPa) = -6.61411 25.66361 9.52475
#
# Velocity S-wave (km/s) = -1.71835 3.38480 2.06206
# Velocity P-wave (km/s) = 4.91485 6.94250 6.01473
#
# Compressibility (1/GPa) = 0.01589119
#
# Stress axis : x y z
#
# Youngs Moduli (GPa) = 116.58150 54.52271 126.99747
#
# Poissons Ratio (x) = 0.31056 0.21655
# Poissons Ratio (y) = 0.66404 0.26031
# Poissons Ratio (z) = 0.19879 0.11176
#
# Static dielectric constant tensor:
#      x y z
#    x 1.916430 0.000000 0.000000 
#    y 0.000000 1.831750 0.000000 
#    z 0.000000 0.000000 1.814180 
# 
# From -- ./inp_files/53541.got.cif
#   From: 2010.05.17/outbox.cif.g08.bks.cpg/sg68_27_cif.got.tgz:53541.got - 2010.06.03 18:57:09.
