data_PCOD9507915
_publ_section_title
;
Structure prediction by ZEFSAII (Michael W. Deem and Ramdas Pophale) SiO2 
 PCOD9507915
Probable space group: C C C A
;
_chemical_formula_sum "Si O2"
_cell_formula_units_Z 44
_cell_length_a 7.508458
_cell_length_b 7.290148
_cell_length_c 33.639985
_cell_angle_alpha 90.000000
_cell_angle_beta 90.000000
_cell_angle_gamma 90.000000
_cell_volume 1841.377764
_symmetry_space_group_name_H-M "C C C A"
_symmetry_group_IT_number 68
_space_group.IT_coordinate_system_code '2'
_symmetry_cell_setting 'orthorhombic'
loop_
_space_group_symop_operation_xyz
x,y,z
-x,1/2-y,z
x,1/2-y,1/2-z
-x,y,1/2-z
-x,-y,-z
x,1/2+y,-z
-x,1/2+y,1/2+z
x,-y,1/2+z
1/2+x,1/2+y,z
1/2-x,-y,z
1/2+x,-y,1/2-z
1/2-x,1/2+y,1/2-z
1/2-x,1/2-y,-z
1/2+x,y,-z
1/2-x,y,1/2+z
1/2+x,1/2-y,1/2+z
loop_
_atom_site_type_symbol
_atom_site_label
_atom_site_fract_x
_atom_site_fract_y
_atom_site_fract_z
Si Si1 0.706156 0.789742 0.545733
Si Si2 0.283618 0.781875 0.868886
Si Si3 0.750000 0.000000 0.805001
Si Si4 0.500000 0.750000 0.750000
O O1 0.500000 0.750000 0.548358
O O2 0.750000 0.750000 0.500000
O O3 0.781920 0.712614 0.587241
O O4 0.750000 0.000000 0.549649
O O5 0.500000 0.750000 0.865921
O O6 0.189539 0.659576 0.835484
O O7 0.250000 0.000000 0.864134
O O8 0.614868 0.888211 0.777160
#
# Coordination Sequence:
#
# PCOD9507915 Si02
#       4
#    16  16   8   4
#     4  10  21  39  63 101 144 188 244 293 351 424
#     4  10  24  46  73 106 147 198 243 299 370 440
#     4  12  28  56  76 114 148 192 246 310 384 440
#     4  12  32  48  84 108 146 190 248 314 376 458
#
# _framework density 23.895152
#
# number of rings (size 3 to 8) (size 9 to 14) (size 15 to 20)
#    0.000    1.455    1.818    1.091    5.091    5.091 
#    0.000    0.000    0.000    0.000    0.000    0.000 
#    0.000    0.000    0.000    0.000    0.000    0.000 
#
# Total GULP energy -122718.550875 kJ/mol
# GULP energy per Si atom -5578.115949 kJ/mol
# Density = 2.384077 g / cm^3
# Si number density = 23.895152 Si / 1000 Ang^3
#
#
#
# Elastic Constant Matrix: (Units=GPa)
#
#
# Indices 1 2 3 4 5 6 
#
# 1 108.3983 60.4317 54.9195 0.0000 0.0000 0.0000
# 2 60.4317 199.1394 99.0018 0.0000 0.0000 0.0000
# 3 54.9195 99.0018 283.2083 0.0000 0.0000 0.0000
# 4 0.0000 0.0000 0.0000 66.2082 0.0000 0.0000
# 5 0.0000 0.0000 0.0000 0.0000 -5.5627 0.0000
# 6 0.0000 0.0000 0.0000 0.0000 0.0000 53.6559
#
#
#
# Elastic Compliance Matrix: (Units=1/GPa)
#
#
# Indices 1 2 3 4 5 6 
#
# 1 0.011440 -0.002867 -0.001216 0.000000 0.000000 0.000000
# 2 -0.002867 0.006796 -0.001820 0.000000 0.000000 0.000000
# 3 -0.001216 -0.001820 0.004403 0.000000 0.000000 0.000000
# 4 0.000000 0.000000 0.000000 0.015104 0.000000 0.000000
# 5 0.000000 0.000000 0.000000 0.000000 -0.179770 0.000000
# 6 0.000000 0.000000 0.000000 0.000000 0.000000 0.018637
#
#
# Mechanical properties :
#
#
# Convention : Reuss Voigt Hill
#
# Bulk Modulus (GPa) = 92.30957 113.27245 102.79101
# Shear Modulus (GPa) = -46.30783 47.95316 0.82267
#
# Velocity S-wave (km/s) = -4.40700 4.48461 0.58739
# Velocity P-wave (km/s) = 3.58042 8.62105 6.60083
#
# Compressibility (1/GPa) = 0.01083311
#
# Stress axis : x y z
#
# Youngs Moduli (GPa) = 87.41479 147.13753 227.11858
#
# Poissons Ratio (x) = 0.42183 0.27622
# Poissons Ratio (y) = 0.25061 0.41333
# Poissons Ratio (z) = 0.10631 0.26777
#
# Static dielectric constant tensor:
#      x y z
#    x 1.944880 0.000000 0.000000 
#    y 0.000000 1.868370 0.000000 
#    z 0.000000 0.000000 2.079900 
# 
# From -- ./inp_files/53626.got.cif
#   From: 2010.05.17/outbox.cif.g08.bks.cpg/sg68_27_cif.got.tgz:53626.got - 2010.06.03 18:57:09.
