data_PCOD9507407
_publ_section_title
;
Structure prediction by ZEFSAII (Michael W. Deem and Ramdas Pophale) SiO2 
 PCOD9507407
Probable space group: C C C A
;
_chemical_formula_sum "Si O2"
_cell_formula_units_Z 100
_cell_length_a 21.247225
_cell_length_b 27.600283
_cell_length_c 9.320185
_cell_angle_alpha 90.000000
_cell_angle_beta 90.000000
_cell_angle_gamma 90.000000
_cell_volume 5465.630711
_symmetry_space_group_name_H-M "C C C A"
_symmetry_group_IT_number 68
_space_group.IT_coordinate_system_code '2'
_symmetry_cell_setting 'orthorhombic'
loop_
_space_group_symop_operation_xyz
x,y,z
-x,1/2-y,z
x,1/2-y,1/2-z
-x,y,1/2-z
-x,-y,-z
x,1/2+y,-z
-x,1/2+y,1/2+z
x,-y,1/2+z
1/2+x,1/2+y,z
1/2-x,-y,z
1/2+x,-y,1/2-z
1/2-x,1/2+y,1/2-z
1/2-x,1/2-y,-z
1/2+x,y,-z
1/2-x,y,1/2+z
1/2+x,1/2-y,1/2+z
loop_
_atom_site_type_symbol
_atom_site_label
_atom_site_fract_x
_atom_site_fract_y
_atom_site_fract_z
Si Si1 0.384166 0.536867 0.766098
Si Si2 0.000000 0.250000 0.750000
Si Si3 0.215176 0.549133 0.511925
Si Si4 0.000000 0.903003 0.250000
Si Si5 0.562022 0.674062 0.960746
Si Si6 0.104757 0.070626 0.287075
Si Si7 0.161240 0.602165 0.006033
Si Si8 0.500000 0.145537 0.750000
O O1 0.330593 0.530688 0.885380
O O2 0.445472 0.564794 0.820313
O O3 0.408744 0.486429 0.701372
O O4 0.353352 0.571113 0.646925
O O5 0.955964 0.281231 0.858092
O O6 0.250000 0.500000 0.566094
O O7 0.169389 0.574707 0.625230
O O8 0.267263 0.588552 0.467198
O O9 0.029701 0.870069 0.373594
O O10 0.635040 0.656742 0.972841
O O11 0.532433 0.675706 0.120936
O O12 0.051173 0.109290 0.322601
O O13 0.118855 0.081060 0.121152
#
# Coordination Sequence:
#
# PCOD9507407 Si02
#       8
#    16   4  16   8  16  16  16   8
#     4  11  19  31  48  71 107 159 201 237 259 321
#     4  10  20  42  70  84 108 138 190 242 320 384
#     4  12  21  31  47  73 110 161 212 232 263 316
#     4   9  19  33  50  76 108 144 194 231 291 329
#     4   9  20  37  57  85 107 139 180 244 301 363
#     4  11  20  32  48  74 112 159 192 239 267 325
#     4  10  21  32  48  75 112 142 198 240 275 327
#     4  10  21  35  53  84 118 138 183 235 307 342
#
# _framework density 18.296150999999998
#
# number of rings (size 3 to 8) (size 9 to 14) (size 15 to 20)
#    0.000    1.600    3.200    2.400    0.000    0.320 
#    0.000    6.400    0.000    0.000    0.000   40.320 
#    0.000    0.000    0.000    0.000    0.000    0.000 
#
# Total GULP energy -278565.556754 kJ/mol
# GULP energy per Si atom -5571.311135 kJ/mol
# Density = 1.825451 g / cm^3
# Si number density = 18.296151 Si / 1000 Ang^3
#
#
#
# Elastic Constant Matrix: (Units=GPa)
#
#
# Indices 1 2 3 4 5 6 
#
# 1 77.3745 30.4818 8.6769 0.0000 0.0000 0.0000
# 2 30.4818 70.0400 17.1536 0.0000 0.0000 0.0000
# 3 8.6769 17.1536 62.6169 0.0000 0.0000 0.0000
# 4 0.0000 0.0000 0.0000 12.1633 0.0000 0.0000
# 5 0.0000 0.0000 0.0000 0.0000 27.0242 0.0000
# 6 0.0000 0.0000 0.0000 0.0000 0.0000 15.5303
#
#
#
# Elastic Compliance Matrix: (Units=1/GPa)
#
#
# Indices 1 2 3 4 5 6 
#
# 1 0.015605 -0.006712 -0.000324 0.000000 0.000000 0.000000
# 2 -0.006712 0.018191 -0.004053 0.000000 0.000000 0.000000
# 3 -0.000324 -0.004053 0.017125 0.000000 0.000000 0.000000
# 4 0.000000 0.000000 0.000000 0.082215 0.000000 0.000000
# 5 0.000000 0.000000 0.000000 0.000000 0.037004 0.000000
# 6 0.000000 0.000000 0.000000 0.000000 0.000000 0.064390
#
#
# Mechanical properties :
#
#
# Convention : Reuss Voigt Hill
#
# Bulk Modulus (GPa) = 34.79053 35.85067 35.32060
# Shear Modulus (GPa) = 18.77657 21.19149 19.98403
#
# Velocity S-wave (km/s) = 3.20700 3.40700 3.30851
# Velocity P-wave (km/s) = 5.72448 5.92571 5.82596
#
# Compressibility (1/GPa) = 0.02874345
#
# Stress axis : x y z
#
# Youngs Moduli (GPa) = 64.08353 54.97120 58.39287
#
# Poissons Ratio (x) = 0.36896 0.01890
# Poissons Ratio (y) = 0.43013 0.23669
# Poissons Ratio (z) = 0.02074 0.22282
#
# Static dielectric constant tensor:
#      x y z
#    x 1.694320 0.000000 0.000000 
#    y 0.000000 1.641740 0.000000 
#    z 0.000000 0.000000 1.664480 
# 
# From -- ./inp_files/7423.got.cif
#   From: 2010.05.17/outbox.cif.g08.bks.cpg/sg68_4_cif.got.tgz:7423.got - 2010.06.03 18:57:09.
