data_PCOD9507540
_publ_section_title
;
Structure prediction by ZEFSAII (Michael W. Deem and Ramdas Pophale) SiO2 
 PCOD9507540
Probable space group: C C C A
;
_chemical_formula_sum "Si O2"
_cell_formula_units_Z 88
_cell_length_a 29.102416
_cell_length_b 12.924219
_cell_length_c 8.995817
_cell_angle_alpha 90.000000
_cell_angle_beta 90.000000
_cell_angle_gamma 90.000000
_cell_volume 3383.560645
_symmetry_space_group_name_H-M "C C C A"
_symmetry_group_IT_number 68
_space_group.IT_coordinate_system_code '2'
_symmetry_cell_setting 'orthorhombic'
loop_
_space_group_symop_operation_xyz
x,y,z
-x,1/2-y,z
x,1/2-y,1/2-z
-x,y,1/2-z
-x,-y,-z
x,1/2+y,-z
-x,1/2+y,1/2+z
x,-y,1/2+z
1/2+x,1/2+y,z
1/2-x,-y,z
1/2+x,-y,1/2-z
1/2-x,1/2+y,1/2-z
1/2-x,1/2-y,-z
1/2+x,y,-z
1/2-x,y,1/2+z
1/2+x,1/2-y,1/2+z
loop_
_atom_site_type_symbol
_atom_site_label
_atom_site_fract_x
_atom_site_fract_y
_atom_site_fract_z
Si Si1 0.025744 0.155334 0.526941
Si Si2 0.203424 0.289351 0.080010
Si Si3 0.565689 0.052454 0.911408
Si Si4 0.697301 0.984505 0.263366
Si Si5 0.077886 0.750000 0.750000
Si Si6 0.850351 0.119345 0.549226
O O1 0.054100 0.215162 0.401714
O O2 0.000000 0.250000 0.605965
O O3 0.985852 0.093439 0.437876
O O4 0.056791 0.069866 0.610116
O O5 0.204667 0.250000 0.250000
O O6 0.197419 0.409181 0.117890
O O7 0.160511 0.238466 0.993316
O O8 0.250000 0.250000 0.000000
O O9 0.591561 0.131246 0.797288
O O10 0.598076 0.075387 0.053051
O O11 0.673464 0.937468 0.407686
O O12 0.750000 0.000000 0.302795
O O13 0.674637 0.088655 0.201382
#
# Coordination Sequence:
#
# PCOD9507540 Si02
#       6
#    16  16  16  16   8  16
#     4   9  19  39  66  93 129 176 222 277 343 429
#     4  10  22  39  62  85 121 171 217 273 333 403
#     4  10  21  35  63  99 128 168 228 276 345 418
#     4  11  23  41  62  87 125 170 221 270 339 397
#     4  10  21  40  68  92 130 184 222 272 342 428
#     4  11  25  38  62  98 125 170 219 286 328 409
#
# _framework density 26.008105
#
# number of rings (size 3 to 8) (size 9 to 14) (size 15 to 20)
#    0.000    1.818    1.818    3.000    8.909    1.455 
#    0.000    0.000    0.000   18.545    0.000    0.000 
#    0.000    0.000    0.000    0.000    0.000    0.000 
#
# Total GULP energy -245177.525348 kJ/mol
# GULP energy per Si atom -5572.216485 kJ/mol
# Density = 2.594891 g / cm^3
# Si number density = 26.008105 Si / 1000 Ang^3
#
#
#
# Elastic Constant Matrix: (Units=GPa)
#
#
# Indices 1 2 3 4 5 6 
#
# 1 60.2667 15.6851 2.5660 0.0000 0.0000 0.0000
# 2 15.6851 157.1273 35.8552 0.0000 0.0000 0.0000
# 3 2.5660 35.8552 81.5167 0.0000 0.0000 0.0000
# 4 0.0000 0.0000 0.0000 43.5270 0.0000 0.0000
# 5 0.0000 0.0000 0.0000 0.0000 -7.8970 0.0000
# 6 0.0000 0.0000 0.0000 0.0000 0.0000 25.9467
#
#
#
# Elastic Compliance Matrix: (Units=1/GPa)
#
#
# Indices 1 2 3 4 5 6 
#
# 1 0.017040 -0.001755 0.000235 0.000000 0.000000 0.000000
# 2 -0.001755 0.007255 -0.003136 0.000000 0.000000 0.000000
# 3 0.000235 -0.003136 0.013639 0.000000 0.000000 0.000000
# 4 0.000000 0.000000 0.000000 0.022974 0.000000 0.000000
# 5 0.000000 0.000000 0.000000 0.000000 -0.126631 0.000000
# 6 0.000000 0.000000 0.000000 0.000000 0.000000 0.038541
#
#
# Mechanical properties :
#
#
# Convention : Reuss Voigt Hill
#
# Bulk Modulus (GPa) = 34.93619 45.23592 40.08606
# Shear Modulus (GPa) = -600.20274 28.63565 -285.78355
#
# Velocity S-wave (km/s) = -15.20777 3.32177 -10.49386
# Velocity P-wave (km/s) = 17.17284 5.66948 11.46219
#
# Compressibility (1/GPa) = 0.02862361
#
# Stress axis : x y z
#
# Youngs Moduli (GPa) = 58.68699 137.83584 73.31738
#
# Poissons Ratio (x) = 0.24186 -0.01726
# Poissons Ratio (y) = 0.10298 0.22991
# Poissons Ratio (z) = -0.01382 0.43224
#
# Static dielectric constant tensor:
#      x y z
#    x 2.142010 0.000000 0.000000 
#    y 0.000000 2.254560 0.000000 
#    z 0.000000 0.000000 2.057790 
# 
# From -- ./inp_files/17619.got.cif
#   From: 2010.05.17/outbox.cif.g08.bks.cpg/sg68_9_cif.got.tgz:17619.got - 2010.06.03 18:57:09.
