data_PCOD9507609
_publ_section_title
;
Structure prediction by ZEFSAII (Michael W. Deem and Ramdas Pophale) SiO2 
 PCOD9507609
Probable space group: C C C A
;
_chemical_formula_sum "Si O2"
_cell_formula_units_Z 64
_cell_length_a 14.318168
_cell_length_b 19.517464
_cell_length_c 12.040109
_cell_angle_alpha 90.000000
_cell_angle_beta 90.000000
_cell_angle_gamma 90.000000
_cell_volume 3364.660575
_symmetry_space_group_name_H-M "C C C A"
_symmetry_group_IT_number 68
_space_group.IT_coordinate_system_code '2'
_symmetry_cell_setting 'orthorhombic'
loop_
_space_group_symop_operation_xyz
x,y,z
-x,1/2-y,z
x,1/2-y,1/2-z
-x,y,1/2-z
-x,-y,-z
x,1/2+y,-z
-x,1/2+y,1/2+z
x,-y,1/2+z
1/2+x,1/2+y,z
1/2-x,-y,z
1/2+x,-y,1/2-z
1/2-x,1/2+y,1/2-z
1/2-x,1/2-y,-z
1/2+x,y,-z
1/2-x,y,1/2+z
1/2+x,1/2-y,1/2+z
loop_
_atom_site_type_symbol
_atom_site_label
_atom_site_fract_x
_atom_site_fract_y
_atom_site_fract_z
Si Si1 0.395324 0.828832 0.217517
Si Si2 0.566409 0.044872 0.356128
Si Si3 0.597386 0.592343 0.005594
Si Si4 0.273800 0.080087 0.295008
O O1 0.383181 0.750000 0.250000
O O2 0.500000 0.850550 0.250000
O O3 0.317112 0.874679 0.276329
O O4 0.390693 0.843920 0.086694
O O5 0.500000 0.026636 0.250000
O O6 0.501864 0.085909 0.442648
O O7 0.651758 0.087707 0.305315
O O8 0.602036 0.976460 0.418244
O O9 0.675046 0.594043 0.910751
O O10 0.250000 0.000000 0.294753
#
# Coordination Sequence:
#
# PCOD9507609 Si02
#       4
#    16  16  16  16
#     4  11  26  45  61  86 132 179 219 263 321 401
#     4   9  19  37  61  98 128 156 207 270 325 383
#     4  10  21  36  65  93 126 169 202 268 334 376
#     4  11  23  36  64 101 127 163 218 278 322 383
#
# _framework density 19.021235000000001
#
# number of rings (size 3 to 8) (size 9 to 14) (size 15 to 20)
#    0.000    1.750    2.500    0.750   10.500    1.000 
#    0.000    2.500    0.000    5.250    0.000    0.000 
#    0.000    0.000    0.000    0.000    0.000    0.000 
#
# Total GULP energy -178760.943074 kJ/mol
# GULP energy per Si atom -5586.279471 kJ/mol
# Density = 1.897794 g / cm^3
# Si number density = 19.021235 Si / 1000 Ang^3
#
#
#
# Elastic Constant Matrix: (Units=GPa)
#
#
# Indices 1 2 3 4 5 6 
#
# 1 153.2170 73.0940 66.0966 0.0000 0.0000 0.0000
# 2 73.0940 101.4070 58.5213 0.0000 0.0000 0.0000
# 3 66.0966 58.5213 132.2830 0.0000 0.0000 0.0000
# 4 0.0000 0.0000 0.0000 14.1205 0.0000 0.0000
# 5 0.0000 0.0000 0.0000 0.0000 22.0603 0.0000
# 6 0.0000 0.0000 0.0000 0.0000 0.0000 29.1928
#
#
#
# Elastic Compliance Matrix: (Units=1/GPa)
#
#
# Indices 1 2 3 4 5 6 
#
# 1 0.010557 -0.006130 -0.002563 0.000000 0.000000 0.000000
# 2 -0.006130 0.016802 -0.004370 0.000000 0.000000 0.000000
# 3 -0.002563 -0.004370 0.010773 0.000000 0.000000 0.000000
# 4 0.000000 0.000000 0.000000 0.070819 0.000000 0.000000
# 5 0.000000 0.000000 0.000000 0.000000 0.045330 0.000000
# 6 0.000000 0.000000 0.000000 0.000000 0.000000 0.034255
#
#
# Mechanical properties :
#
#
# Convention : Reuss Voigt Hill
#
# Bulk Modulus (GPa) = 83.29310 86.92564 85.10937
# Shear Modulus (GPa) = 22.86609 25.68773 24.27691
#
# Velocity S-wave (km/s) = 3.47094 3.67887 3.57642
# Velocity P-wave (km/s) = 7.74260 7.99024 7.86739
#
# Compressibility (1/GPa) = 0.01200580
#
# Stress axis : x y z
#
# Youngs Moduli (GPa) = 94.72543 59.51710 92.82190
#
# Poissons Ratio (x) = 0.36486 0.23788
# Poissons Ratio (y) = 0.58070 0.40563
# Poissons Ratio (z) = 0.24276 0.26009
#
# Static dielectric constant tensor:
#      x y z
#    x 1.715080 0.000000 0.000000 
#    y 0.000000 1.637900 0.000000 
#    z 0.000000 0.000000 1.686290 
# 
# From -- ./inp_files/11534.got.cif
#   From: 2010.05.17/outbox.cif.g08.bks.cpg/sg68_6_cif.got.tgz:11534.got - 2010.06.03 18:57:09.
