data_PCOD9507956
_publ_section_title
;
Structure prediction by ZEFSAII (Michael W. Deem and Ramdas Pophale) SiO2 
 PCOD9507956
Probable space group: C C C A
;
_chemical_formula_sum "Si O2"
_cell_formula_units_Z 44
_cell_length_a 11.146378
_cell_length_b 8.848838
_cell_length_c 21.447489
_cell_angle_alpha 90.000000
_cell_angle_beta 90.000000
_cell_angle_gamma 90.000000
_cell_volume 2115.419313
_symmetry_space_group_name_H-M "C C C A"
_symmetry_group_IT_number 68
_space_group.IT_coordinate_system_code '2'
_symmetry_cell_setting 'orthorhombic'
loop_
_space_group_symop_operation_xyz
x,y,z
-x,1/2-y,z
x,1/2-y,1/2-z
-x,y,1/2-z
-x,-y,-z
x,1/2+y,-z
-x,1/2+y,1/2+z
x,-y,1/2+z
1/2+x,1/2+y,z
1/2-x,-y,z
1/2+x,-y,1/2-z
1/2-x,1/2+y,1/2-z
1/2-x,1/2-y,-z
1/2+x,y,-z
1/2-x,y,1/2+z
1/2+x,1/2-y,1/2+z
loop_
_atom_site_type_symbol
_atom_site_label
_atom_site_fract_x
_atom_site_fract_y
_atom_site_fract_z
Si Si1 0.384902 0.049517 0.144994
Si Si2 0.500000 0.750000 0.094767
Si Si3 0.000000 0.250000 0.750000
Si Si4 0.625863 0.408611 0.007101
O O1 0.426397 0.145309 0.203147
O O2 0.250000 0.000000 0.155989
O O3 0.465555 0.899057 0.133428
O O4 0.381398 0.140801 0.079214
O O5 0.389192 0.713026 0.047834
O O6 0.750000 0.500000 0.998723
O O7 0.500000 0.500000 0.000000
#
# Coordination Sequence:
#
# PCOD9507956 Si02
#       4
#    16   8   4  16
#     4  10  24  41  62  89 121 162 206 252 305 363
#     4  10  21  39  66  95 123 156 198 252 320 378
#     4  12  26  42  56  82 122 166 216 254 288 352
#     4   9  19  36  62  96 125 151 192 252 317 374
#
# _framework density 20.799659999999999
#
# number of rings (size 3 to 8) (size 9 to 14) (size 15 to 20)
#    0.000    2.182    0.000    1.091    0.000   22.545 
#    0.000    1.818    0.000    2.182    0.000    0.000 
#    0.000    0.000    0.000    0.000    0.000    0.000 
#
# Total GULP energy -122761.398249 kJ/mol
# GULP energy per Si atom -5580.063557 kJ/mol
# Density = 2.075232 g / cm^3
# Si number density = 20.799660 Si / 1000 Ang^3
#
#
#
# Elastic Constant Matrix: (Units=GPa)
#
#
# Indices 1 2 3 4 5 6 
#
# 1 132.5007 49.5715 71.4566 0.0000 0.0000 0.0000
# 2 49.5715 99.0152 72.4322 0.0000 0.0000 0.0000
# 3 71.4566 72.4322 176.9806 0.0000 0.0000 0.0000
# 4 0.0000 0.0000 0.0000 55.1795 0.0000 0.0000
# 5 0.0000 0.0000 0.0000 0.0000 19.7602 0.0000
# 6 0.0000 0.0000 0.0000 0.0000 0.0000 31.8890
#
#
#
# Elastic Compliance Matrix: (Units=1/GPa)
#
#
# Indices 1 2 3 4 5 6 
#
# 1 0.010236 -0.002999 -0.002905 0.000000 0.000000 0.000000
# 2 -0.002999 0.015294 -0.005048 0.000000 0.000000 0.000000
# 3 -0.002905 -0.005048 0.008889 0.000000 0.000000 0.000000
# 4 0.000000 0.000000 0.000000 0.018123 0.000000 0.000000
# 5 0.000000 0.000000 0.000000 0.000000 0.050607 0.000000
# 6 0.000000 0.000000 0.000000 0.000000 0.000000 0.031359
#
#
# Mechanical properties :
#
#
# Convention : Reuss Voigt Hill
#
# Bulk Modulus (GPa) = 79.91299 88.37969 84.14634
# Shear Modulus (GPa) = 31.13615 35.70150 33.41883
#
# Velocity S-wave (km/s) = 3.87325 4.14750 4.01272
# Velocity P-wave (km/s) = 7.64895 8.09437 7.87481
#
# Compressibility (1/GPa) = 0.01251361
#
# Stress axis : x y z
#
# Youngs Moduli (GPa) = 97.69385 65.38490 112.49235
#
# Poissons Ratio (x) = 0.19611 0.32683
# Poissons Ratio (y) = 0.29301 0.56790
# Poissons Ratio (z) = 0.28383 0.33009
#
# Static dielectric constant tensor:
#      x y z
#    x 1.737630 0.000000 0.000000 
#    y 0.000000 1.927620 0.000000 
#    z 0.000000 0.000000 1.747530 
# 
# From -- ./inp_files/28810.got.cif
#   From: 2010.05.17/outbox.cif.g08.bks.cpg/sg68_15_cif.got.tgz:28810.got - 2010.06.03 18:57:09.
