data_PCOD9507917
_publ_section_title
;
Structure prediction by ZEFSAII (Michael W. Deem and Ramdas Pophale) SiO2 
 PCOD9507917
Probable space group: C C C A
;
_chemical_formula_sum "Si O2"
_cell_formula_units_Z 96
_cell_length_a 16.982419
_cell_length_b 27.238639
_cell_length_c 9.829320
_cell_angle_alpha 90.000000
_cell_angle_beta 90.000000
_cell_angle_gamma 90.000000
_cell_volume 4546.826995
_symmetry_space_group_name_H-M "C C C A"
_symmetry_group_IT_number 68
_space_group.IT_coordinate_system_code '2'
_symmetry_cell_setting 'orthorhombic'
loop_
_space_group_symop_operation_xyz
x,y,z
-x,1/2-y,z
x,1/2-y,1/2-z
-x,y,1/2-z
-x,-y,-z
x,1/2+y,-z
-x,1/2+y,1/2+z
x,-y,1/2+z
1/2+x,1/2+y,z
1/2-x,-y,z
1/2+x,-y,1/2-z
1/2-x,1/2+y,1/2-z
1/2-x,1/2-y,-z
1/2+x,y,-z
1/2-x,y,1/2+z
1/2+x,1/2-y,1/2+z
loop_
_atom_site_type_symbol
_atom_site_label
_atom_site_fract_x
_atom_site_fract_y
_atom_site_fract_z
Si Si1 0.548778 0.457262 0.575344
Si Si2 0.993225 0.192703 0.414736
Si Si3 0.822866 0.527055 0.131894
Si Si4 0.902611 0.893355 0.564173
Si Si5 0.347814 0.131532 0.482260
Si Si6 0.245059 0.887063 0.745961
O O1 0.500000 0.500000 0.500000
O O2 0.610228 0.487540 0.668695
O O3 0.478949 0.421662 0.619985
O O4 0.605116 0.420684 0.488521
O O5 0.910680 0.171267 0.467800
O O6 0.000000 0.250000 0.445730
O O7 0.000000 0.187029 0.250000
O O8 0.061894 0.158962 0.480361
O O9 0.750000 0.500000 0.056891
O O10 0.777210 0.557165 0.246744
O O11 0.865555 0.570203 0.047348
O O12 0.837566 0.884754 0.677322
O O13 0.309703 0.141127 0.335355
O O14 0.276962 0.128134 0.592635
#
# Coordination Sequence:
#
# PCOD9507917 Si02
#       6
#    16  16  16  16  16  16
#     4   9  20  39  56  90 125 174 223 260 315 388
#     4  10  21  42  73  97 124 169 229 278 346 414
#     4  11  21  38  59  90 132 179 215 263 325 394
#     4  10  21  39  63  88 130 167 216 278 318 392
#     4  11  23  42  64  96 128 176 213 281 332 393
#     4  12  22  39  63  89 135 167 218 266 336 387
#
# _framework density 21.113624000000002
#
# number of rings (size 3 to 8) (size 9 to 14) (size 15 to 20)
#    0.000    1.500    5.000    0.000    0.000    3.333 
#    3.000    7.500    3.667    1.000    0.000    0.000 
#    0.000    0.000    0.000    0.000    0.000    0.000 
#
# Total GULP energy -267631.130783 kJ/mol
# GULP energy per Si atom -5575.648558 kJ/mol
# Density = 2.106557 g / cm^3
# Si number density = 21.113624 Si / 1000 Ang^3
#
#
#
# Elastic Constant Matrix: (Units=GPa)
#
#
# Indices 1 2 3 4 5 6 
#
# 1 146.8299 60.5403 32.1484 0.0000 0.0000 0.0000
# 2 60.5403 144.5007 22.6955 0.0000 0.0000 0.0000
# 3 32.1484 22.6955 36.8339 0.0000 0.0000 0.0000
# 4 0.0000 0.0000 0.0000 16.2247 0.0000 0.0000
# 5 0.0000 0.0000 0.0000 0.0000 15.5350 0.0000
# 6 0.0000 0.0000 0.0000 0.0000 0.0000 27.2076
#
#
#
# Elastic Compliance Matrix: (Units=1/GPa)
#
#
# Indices 1 2 3 4 5 6 
#
# 1 0.009429 -0.002943 -0.006416 0.000000 0.000000 0.000000
# 2 -0.002943 0.008580 -0.002719 0.000000 0.000000 0.000000
# 3 -0.006416 -0.002719 0.034424 0.000000 0.000000 0.000000
# 4 0.000000 0.000000 0.000000 0.061634 0.000000 0.000000
# 5 0.000000 0.000000 0.000000 0.000000 0.064371 0.000000
# 6 0.000000 0.000000 0.000000 0.000000 0.000000 0.036754
#
#
# Mechanical properties :
#
#
# Convention : Reuss Voigt Hill
#
# Bulk Modulus (GPa) = 35.36283 62.10365 48.73324
# Shear Modulus (GPa) = 20.09864 25.97882 23.03873
#
# Velocity S-wave (km/s) = 3.08868 3.51155 3.30688
# Velocity P-wave (km/s) = 5.43186 6.77637 6.14102
#
# Compressibility (1/GPa) = 0.02827828
#
# Stress axis : x y z
#
# Youngs Moduli (GPa) = 106.05932 116.54796 29.04948
#
# Poissons Ratio (x) = 0.34294 0.18639
# Poissons Ratio (y) = 0.31208 0.07897
# Poissons Ratio (z) = 0.68050 0.31684
#
# Static dielectric constant tensor:
#      x y z
#    x 1.803950 0.000000 0.000000 
#    y 0.000000 1.771960 0.000000 
#    z 0.000000 0.000000 1.868100 
# 
# From -- ./inp_files/14736.got.cif
#   From: 2010.05.17/outbox.cif.g08.bks.cpg/sg68_8_cif.got.tgz:14736.got - 2010.06.03 18:57:09.
