data_PCOD9507276
_publ_section_title
;
Structure prediction by ZEFSAII (Michael W. Deem and Ramdas Pophale) SiO2 
 PCOD9507276
Probable space group: C C C A
;
_chemical_formula_sum "Si O2"
_cell_formula_units_Z 104
_cell_length_a 19.145386
_cell_length_b 15.722826
_cell_length_c 18.037501
_cell_angle_alpha 90.000000
_cell_angle_beta 90.000000
_cell_angle_gamma 90.000000
_cell_volume 5429.640845
_symmetry_space_group_name_H-M "C C C A"
_symmetry_group_IT_number 68
_space_group.IT_coordinate_system_code '2'
_symmetry_cell_setting 'orthorhombic'
loop_
_space_group_symop_operation_xyz
x,y,z
-x,1/2-y,z
x,1/2-y,1/2-z
-x,y,1/2-z
-x,-y,-z
x,1/2+y,-z
-x,1/2+y,1/2+z
x,-y,1/2+z
1/2+x,1/2+y,z
1/2-x,-y,z
1/2+x,-y,1/2-z
1/2-x,1/2+y,1/2-z
1/2-x,1/2-y,-z
1/2+x,y,-z
1/2-x,y,1/2+z
1/2+x,1/2-y,1/2+z
loop_
_atom_site_type_symbol
_atom_site_label
_atom_site_fract_x
_atom_site_fract_y
_atom_site_fract_z
Si Si1 0.572444 0.097880 0.577139
Si Si2 0.170539 0.970091 0.356480
Si Si3 0.073932 0.592103 0.872359
Si Si4 0.830511 0.849158 0.008090
Si Si5 0.827403 0.348517 0.545765
Si Si6 0.675016 0.547168 0.690936
Si Si7 0.000000 0.750000 0.645872
O O1 0.614560 0.099214 0.500518
O O2 0.554833 0.195510 0.597589
O O3 0.621853 0.052793 0.636829
O O4 0.504395 0.942196 0.413995
O O5 0.149650 0.908942 0.423423
O O6 0.165961 0.927058 0.276221
O O7 0.250000 0.000000 0.366642
O O8 0.115301 0.521178 0.828452
O O9 0.045606 0.671708 0.821899
O O10 0.124185 0.628503 0.936171
O O11 0.838692 0.751557 0.033020
O O12 0.749423 0.866305 0.987723
O O13 0.828056 0.378563 0.630455
O O14 0.750000 0.500000 0.683992
#
# Coordination Sequence:
#
# PCOD9507276 Si02
#       7
#    16  16  16  16  16  16   8
#     4  10  20  40  64  92 121 158 209 261 306 355
#     4  11  24  39  57  89 130 167 203 249 313 380
#     4  10  20  40  64  92 121 158 209 261 306 355
#     4  11  21  37  64  90 119 162 212 257 308 367
#     4  11  21  37  64  90 119 162 212 257 308 367
#     4  11  24  39  57  89 130 167 203 249 313 380
#     4   8  20  40  65  96 127 150 222 266 308 348
#
# _framework density 19.154122000000001
#
# number of rings (size 3 to 8) (size 9 to 14) (size 15 to 20)
#    0.923    0.615    4.615    0.923    0.000    3.692 
#    0.000    1.538    0.000    0.000    0.000    5.385 
#    0.000    0.000    0.000    0.000    0.000    0.000 
#
# Total GULP energy -289745.233382 kJ/mol
# GULP energy per Si atom -5572.023719 kJ/mol
# Density = 1.911053 g / cm^3
# Si number density = 19.154122 Si / 1000 Ang^3
#
#
#
# Elastic Constant Matrix: (Units=GPa)
#
#
# Indices 1 2 3 4 5 6 
#
# 1 103.8368 24.3546 0.0993 0.0000 0.0000 0.0000
# 2 24.3546 46.8625 28.1209 0.0000 0.0000 0.0000
# 3 0.0993 28.1209 64.4095 0.0000 0.0000 0.0000
# 4 0.0000 0.0000 0.0000 -12.7618 0.0000 0.0000
# 5 0.0000 0.0000 0.0000 0.0000 9.6075 0.0000
# 6 0.0000 0.0000 0.0000 0.0000 0.0000 31.2650
#
#
#
# Elastic Compliance Matrix: (Units=1/GPa)
#
#
# Indices 1 2 3 4 5 6 
#
# 1 0.011528 -0.008103 0.003520 0.000000 0.000000 0.000000
# 2 -0.008103 0.034610 -0.015098 0.000000 0.000000 0.000000
# 3 0.003520 -0.015098 0.022112 0.000000 0.000000 0.000000
# 4 0.000000 0.000000 0.000000 -0.078359 0.000000 0.000000
# 5 0.000000 0.000000 0.000000 0.000000 0.104086 0.000000
# 6 0.000000 0.000000 0.000000 0.000000 0.000000 0.031985
#
#
# Mechanical properties :
#
#
# Convention : Reuss Voigt Hill
#
# Bulk Modulus (GPa) = 34.61736 35.58428 35.10082
# Shear Modulus (GPa) = 28.57902 16.45775 22.51839
#
# Velocity S-wave (km/s) = 3.86690 2.93444 3.43248
# Velocity P-wave (km/s) = 6.16843 5.48630 5.83734
#
# Compressibility (1/GPa) = 0.02888724
#
# Stress axis : x y z
#
# Youngs Moduli (GPa) = 86.74719 28.89304 45.22418
#
# Poissons Ratio (x) = 0.23413 -0.15919
# Poissons Ratio (y) = 0.70294 0.68281
# Poissons Ratio (z) = -0.30536 0.43623
#
# Static dielectric constant tensor:
#      x y z
#    x 1.667930 0.000000 0.000000 
#    y 0.000000 1.677170 0.000000 
#    z 0.000000 0.000000 1.659580 
# 
# From -- ./inp_files/31125.got.cif
#   From: 2010.05.17/outbox.cif.g08.bks.cpg/sg68_16_cif.got.tgz:31125.got - 2010.06.03 18:57:09.
