data_PCOD9507844
_publ_section_title
;
Structure prediction by ZEFSAII (Michael W. Deem and Ramdas Pophale) SiO2 
 PCOD9507844
Probable space group: C C C A
;
_chemical_formula_sum "Si O2"
_cell_formula_units_Z 64
_cell_length_a 11.404233
_cell_length_b 21.828590
_cell_length_c 11.526927
_cell_angle_alpha 90.000000
_cell_angle_beta 90.000000
_cell_angle_gamma 90.000000
_cell_volume 2869.493916
_symmetry_space_group_name_H-M "C C C A"
_symmetry_group_IT_number 68
_space_group.IT_coordinate_system_code '2'
_symmetry_cell_setting 'orthorhombic'
loop_
_space_group_symop_operation_xyz
x,y,z
-x,1/2-y,z
x,1/2-y,1/2-z
-x,y,1/2-z
-x,-y,-z
x,1/2+y,-z
-x,1/2+y,1/2+z
x,-y,1/2+z
1/2+x,1/2+y,z
1/2-x,-y,z
1/2+x,-y,1/2-z
1/2-x,1/2+y,1/2-z
1/2-x,1/2-y,-z
1/2+x,y,-z
1/2-x,y,1/2+z
1/2+x,1/2-y,1/2+z
loop_
_atom_site_type_symbol
_atom_site_label
_atom_site_fract_x
_atom_site_fract_y
_atom_site_fract_z
Si Si1 0.900600 0.792780 0.086752
Si Si2 0.022239 0.597804 0.529202
Si Si3 0.111021 0.492410 0.839664
Si Si4 0.147970 0.710534 0.641527
O O1 0.784749 0.801489 0.158899
O O2 0.000000 0.750000 0.137077
O O3 0.869291 0.755471 0.968490
O O4 0.949531 0.858469 0.054933
O O5 0.104787 0.556903 0.445545
O O6 0.088462 0.645861 0.612816
O O7 0.935272 0.555222 0.602237
O O8 0.250000 0.500000 0.800294
O O9 0.000000 0.477988 0.750000
O O10 0.110706 0.750000 0.750000
#
# Coordination Sequence:
#
# PCOD9507844 Si02
#       4
#    16  16  16  16
#     4   9  20  39  59  96 140 177 225 294 357 436
#     4  10  23  45  68  98 148 182 242 310 359 441
#     4  11  26  46  73 106 141 196 252 304 376 435
#     4  10  21  38  68 100 135 185 233 292 365 430
#
# _framework density 22.303585000000002
#
# number of rings (size 3 to 8) (size 9 to 14) (size 15 to 20)
#    0.000    2.000    0.000    1.500    3.500   10.000 
#   13.500    0.000    0.000    0.000    0.000    0.000 
#    0.000    0.000    0.000    0.000    0.000    0.000 
#
# Total GULP energy -178439.336533 kJ/mol
# GULP energy per Si atom -5576.229267 kJ/mol
# Density = 2.225282 g / cm^3
# Si number density = 22.303585 Si / 1000 Ang^3
#
#
#
# Elastic Constant Matrix: (Units=GPa)
#
#
# Indices 1 2 3 4 5 6 
#
# 1 197.0688 54.8319 50.8220 0.0000 0.0000 0.0000
# 2 54.8319 151.2554 42.2006 0.0000 0.0000 0.0000
# 3 50.8220 42.2006 96.5284 0.0000 0.0000 0.0000
# 4 0.0000 0.0000 0.0000 101.8937 0.0000 0.0000
# 5 0.0000 0.0000 0.0000 0.0000 10.3842 0.0000
# 6 0.0000 0.0000 0.0000 0.0000 0.0000 21.8342
#
#
#
# Elastic Compliance Matrix: (Units=1/GPa)
#
#
# Indices 1 2 3 4 5 6 
#
# 1 0.006161 -0.001513 -0.002582 0.000000 0.000000 0.000000
# 2 -0.001513 0.007901 -0.002658 0.000000 0.000000 0.000000
# 3 -0.002582 -0.002658 0.012881 0.000000 0.000000 0.000000
# 4 0.000000 0.000000 0.000000 0.009814 0.000000 0.000000
# 5 0.000000 0.000000 0.000000 0.000000 0.096300 0.000000
# 6 0.000000 0.000000 0.000000 0.000000 0.000000 0.045800
#
#
# Mechanical properties :
#
#
# Convention : Reuss Voigt Hill
#
# Bulk Modulus (GPa) = 74.41887 82.28463 78.35175
# Shear Modulus (GPa) = 25.40088 46.62229 36.01158
#
# Velocity S-wave (km/s) = 3.37838 4.57699 4.02258
# Velocity P-wave (km/s) = 6.97543 8.05636 7.53530
#
# Compressibility (1/GPa) = 0.01343745
#
# Stress axis : x y z
#
# Youngs Moduli (GPa) = 162.30230 126.56075 77.63248
#
# Poissons Ratio (x) = 0.19149 0.20048
# Poissons Ratio (y) = 0.24557 0.20633
# Poissons Ratio (z) = 0.41914 0.33636
#
# Static dielectric constant tensor:
#      x y z
#    x 1.897390 0.000000 0.000000 
#    y 0.000000 1.765090 0.000000 
#    z 0.000000 0.000000 1.799360 
# 
# From -- ./inp_files/11685.got.cif
#   From: 2010.05.17/outbox.cif.g08.bks.cpg/sg68_6_cif.got.tgz:11685.got - 2010.06.03 18:57:09.
