data_PCOD9507222
_publ_section_title
;
Structure prediction by ZEFSAII (Michael W. Deem and Ramdas Pophale) SiO2 
 PCOD9507222
Probable space group: C C C A
;
_chemical_formula_sum "Si O2"
_cell_formula_units_Z 112
_cell_length_a 11.810438
_cell_length_b 15.722386
_cell_length_c 27.151153
_cell_angle_alpha 90.000000
_cell_angle_beta 90.000000
_cell_angle_gamma 90.000000
_cell_volume 5041.650495
_symmetry_space_group_name_H-M "C C C A"
_symmetry_group_IT_number 68
_space_group.IT_coordinate_system_code '2'
_symmetry_cell_setting 'orthorhombic'
loop_
_space_group_symop_operation_xyz
x,y,z
-x,1/2-y,z
x,1/2-y,1/2-z
-x,y,1/2-z
-x,-y,-z
x,1/2+y,-z
-x,1/2+y,1/2+z
x,-y,1/2+z
1/2+x,1/2+y,z
1/2-x,-y,z
1/2+x,-y,1/2-z
1/2-x,1/2+y,1/2-z
1/2-x,1/2-y,-z
1/2+x,y,-z
1/2-x,y,1/2+z
1/2+x,1/2-y,1/2+z
loop_
_atom_site_type_symbol
_atom_site_label
_atom_site_fract_x
_atom_site_fract_y
_atom_site_fract_z
Si Si1 0.917843 0.639616 0.088161
Si Si2 0.528568 0.553741 0.084764
Si Si3 0.334805 0.694041 0.202564
Si Si4 0.615573 0.483953 0.819242
Si Si5 0.429009 0.668740 0.677692
Si Si6 0.904404 0.680640 0.975642
Si Si7 0.811539 0.713245 0.605752
O O1 0.915259 0.538334 0.079805
O O2 0.813183 0.677794 0.118865
O O3 0.031616 0.659077 0.119793
O O4 0.897956 0.678646 0.034231
O O5 0.446347 0.544613 0.131183
O O6 0.448565 0.588484 0.041206
O O7 0.620682 0.627624 0.092203
O O8 0.354438 0.750000 0.250000
O O9 0.385755 0.601111 0.212733
O O10 0.200833 0.683856 0.191379
O O11 0.370286 0.740214 0.151857
O O12 0.750000 0.500000 0.828407
O O13 0.555380 0.571538 0.803131
O O14 0.500000 0.750000 0.695662
O O15 0.807908 0.717904 0.939350
O O16 0.000000 0.750000 0.963923
#
# Coordination Sequence:
#
# PCOD9507222 Si02
#       7
#    16  16  16  16  16  16  16
#     4  11  21  38  60  93 132 175 216 263 336 404
#     4  10  21  39  60  91 132 166 216 271 320 402
#     4  11  23  42  69  95 125 176 228 280 343 405
#     4   9  20  40  66  92 130 172 218 275 340 406
#     4  10  20  39  67  97 130 171 219 277 331 399
#     4  10  21  36  61  89 127 173 220 263 325 403
#     4  11  22  39  61  90 133 170 215 282 333 393
#
# _framework density 22.214949000000001
#
# number of rings (size 3 to 8) (size 9 to 14) (size 15 to 20)
#    0.000    1.714    2.857    1.714    0.000    0.286 
#    0.000    7.143    6.286    0.000    0.000    0.000 
#    0.000    0.000    0.000    0.000    0.000    0.000 
#
# Total GULP energy -312061.066822 kJ/mol
# GULP energy per Si atom -5572.519050 kJ/mol
# Density = 2.216439 g / cm^3
# Si number density = 22.214949 Si / 1000 Ang^3
#
#
#
# Elastic Constant Matrix: (Units=GPa)
#
#
# Indices 1 2 3 4 5 6 
#
# 1 62.3548 34.6985 17.2150 0.0000 0.0000 0.0000
# 2 34.6985 190.7655 45.8989 0.0000 0.0000 0.0000
# 3 17.2150 45.8989 93.8315 0.0000 0.0000 0.0000
# 4 0.0000 0.0000 0.0000 16.5698 0.0000 0.0000
# 5 0.0000 0.0000 0.0000 0.0000 13.3777 0.0000
# 6 0.0000 0.0000 0.0000 0.0000 0.0000 35.0209
#
#
#
# Elastic Compliance Matrix: (Units=1/GPa)
#
#
# Indices 1 2 3 4 5 6 
#
# 1 0.018151 -0.002834 -0.001944 0.000000 0.000000 0.000000
# 2 -0.002834 0.006384 -0.002603 0.000000 0.000000 0.000000
# 3 -0.001944 -0.002603 0.012287 0.000000 0.000000 0.000000
# 4 0.000000 0.000000 0.000000 0.060351 0.000000 0.000000
# 5 0.000000 0.000000 0.000000 0.000000 0.074751 0.000000
# 6 0.000000 0.000000 0.000000 0.000000 0.000000 0.028554
#
#
# Mechanical properties :
#
#
# Convention : Reuss Voigt Hill
#
# Bulk Modulus (GPa) = 45.32910 60.28628 52.80769
# Shear Modulus (GPa) = 22.46255 29.60297 26.03276
#
# Velocity S-wave (km/s) = 3.18330 3.65440 3.42695
# Velocity P-wave (km/s) = 5.82755 6.70841 6.28343
#
# Compressibility (1/GPa) = 0.02206088
#
# Stress axis : x y z
#
# Youngs Moduli (GPa) = 55.09387 156.64870 81.38529
#
# Poissons Ratio (x) = 0.44390 0.15821
# Poissons Ratio (y) = 0.15612 0.21183
# Poissons Ratio (z) = 0.10710 0.40772
#
# Static dielectric constant tensor:
#      x y z
#    x 1.853680 0.000000 0.000000 
#    y 0.000000 1.836100 0.000000 
#    z 0.000000 0.000000 1.840590 
# 
# From -- ./inp_files/54826.got.cif
#   From: 2010.05.17/outbox.cif.g08.bks.cpg/sg68_28_cif.got.tgz:54826.got - 2010.06.03 18:57:09.
