data_PCOD9507261
_publ_section_title
;
Structure prediction by ZEFSAII (Michael W. Deem and Ramdas Pophale) SiO2 
 PCOD9507261
Probable space group: C C C A
;
_chemical_formula_sum "Si O2"
_cell_formula_units_Z 120
_cell_length_a 21.722760
_cell_length_b 11.608064
_cell_length_c 22.975584
_cell_angle_alpha 90.000000
_cell_angle_beta 90.000000
_cell_angle_gamma 90.000000
_cell_volume 5793.504613
_symmetry_space_group_name_H-M "C C C A"
_symmetry_group_IT_number 68
_space_group.IT_coordinate_system_code '2'
_symmetry_cell_setting 'orthorhombic'
loop_
_space_group_symop_operation_xyz
x,y,z
-x,1/2-y,z
x,1/2-y,1/2-z
-x,y,1/2-z
-x,-y,-z
x,1/2+y,-z
-x,1/2+y,1/2+z
x,-y,1/2+z
1/2+x,1/2+y,z
1/2-x,-y,z
1/2+x,-y,1/2-z
1/2-x,1/2+y,1/2-z
1/2-x,1/2-y,-z
1/2+x,y,-z
1/2-x,y,1/2+z
1/2+x,1/2-y,1/2+z
loop_
_atom_site_type_symbol
_atom_site_label
_atom_site_fract_x
_atom_site_fract_y
_atom_site_fract_z
Si Si1 0.899180 0.030074 0.619414
Si Si2 0.069635 0.707372 0.019872
Si Si3 0.823047 0.214567 0.683774
Si Si4 0.750000 0.250000 0.000000
Si Si5 0.619123 0.871899 0.396234
Si Si6 0.668302 0.618247 0.577239
Si Si7 0.006257 0.611685 0.817851
Si Si8 0.206676 0.342125 0.119032
O O1 0.917531 0.095041 0.559724
O O2 0.877553 0.129692 0.663698
O O3 0.840815 0.946362 0.613678
O O4 0.955064 0.955194 0.644904
O O5 0.117416 0.805201 0.041813
O O6 0.000000 0.750000 0.027166
O O7 0.084147 0.680987 0.952571
O O8 0.827840 0.250000 0.750000
O O9 0.826447 0.324489 0.640813
O O10 0.757472 0.154309 0.669484
O O11 0.729168 0.357043 0.041231
O O12 0.756471 0.170633 0.058988
O O13 0.572299 0.910840 0.346210
O O14 0.665113 0.773067 0.374514
O O15 0.651273 0.986730 0.418412
O O16 0.000000 0.750000 0.822506
O O17 0.000000 0.580437 0.750000
#
# Coordination Sequence:
#
# PCOD9507261 Si02
#       8
#    16  16  16   8  16  16  16  16
#     4  11  24  47  71  98 139 182 226 289 350 411
#     4  11  24  41  68 100 138 177 230 281 344 421
#     4  10  25  46  68  98 134 182 239 278 340 415
#     4  10  20  40  62  96 142 170 228 268 348 412
#     4  12  24  41  70 101 140 177 228 288 350 415
#     4  10  23  42  63 101 135 178 225 284 346 413
#     4  11  25  43  67 100 134 177 229 284 347 409
#     4  11  23  43  67 103 135 182 221 284 347 415
#
# _framework density 20.71285
#
# number of rings (size 3 to 8) (size 9 to 14) (size 15 to 20)
#    0.000    1.200    2.667    2.400    1.867    4.267 
#    9.600    0.000    0.000    0.000    0.000    0.000 
#    0.000    0.000    0.000    0.000    0.000    0.000 
#
# Total GULP energy -334470.791000 kJ/mol
# GULP energy per Si atom -5574.513183 kJ/mol
# Density = 2.066571 g / cm^3
# Si number density = 20.712850 Si / 1000 Ang^3
#
#
#
# Elastic Constant Matrix: (Units=GPa)
#
#
# Indices 1 2 3 4 5 6 
#
# 1 60.4335 26.1127 20.4292 0.0000 0.0000 0.0000
# 2 26.1127 79.3526 10.3030 0.0000 0.0000 0.0000
# 3 20.4292 10.3030 108.6462 0.0000 0.0000 0.0000
# 4 0.0000 0.0000 0.0000 14.5801 0.0000 0.0000
# 5 0.0000 0.0000 0.0000 0.0000 28.7791 0.0000
# 6 0.0000 0.0000 0.0000 0.0000 0.0000 38.0057
#
#
#
# Elastic Compliance Matrix: (Units=1/GPa)
#
#
# Indices 1 2 3 4 5 6 
#
# 1 0.020352 -0.006278 -0.003232 0.000000 0.000000 0.000000
# 2 -0.006278 0.014695 -0.000213 0.000000 0.000000 0.000000
# 3 -0.003232 -0.000213 0.009832 0.000000 0.000000 0.000000
# 4 0.000000 0.000000 0.000000 0.068587 0.000000 0.000000
# 5 0.000000 0.000000 0.000000 0.000000 0.034747 0.000000
# 6 0.000000 0.000000 0.000000 0.000000 0.000000 0.026312
#
#
# Mechanical properties :
#
#
# Convention : Reuss Voigt Hill
#
# Bulk Modulus (GPa) = 39.31635 40.23579 39.77607
# Shear Modulus (GPa) = 24.69760 29.04546 26.87153
#
# Velocity S-wave (km/s) = 3.45683 3.74878 3.60576
# Velocity P-wave (km/s) = 5.91234 6.18106 6.04819
#
# Compressibility (1/GPa) = 0.02543471
#
# Stress axis : x y z
#
# Youngs Moduli (GPa) = 49.13512 68.04809 101.70826
#
# Poissons Ratio (x) = 0.42719 0.32868
# Poissons Ratio (y) = 0.30846 0.02168
# Poissons Ratio (z) = 0.15878 0.01451
#
# Static dielectric constant tensor:
#      x y z
#    x 1.798210 0.000000 0.000000 
#    y 0.000000 1.751220 0.000000 
#    z 0.000000 0.000000 1.669780 
# 
# From -- ./inp_files/46698.got.cif
#   From: 2010.05.17/outbox.cif.g08.bks.cpg/sg68_24_cif.got.tgz:46698.got - 2010.06.03 18:57:09.
