data_PCOD9507437
_publ_section_title
;
Structure prediction by ZEFSAII (Michael W. Deem and Ramdas Pophale) SiO2 
 PCOD9507437
Probable space group: C C C A
;
_chemical_formula_sum "Si O2"
_cell_formula_units_Z 92
_cell_length_a 17.900175
_cell_length_b 9.306963
_cell_length_c 22.495233
_cell_angle_alpha 90.000000
_cell_angle_beta 90.000000
_cell_angle_gamma 90.000000
_cell_volume 3747.621830
_symmetry_space_group_name_H-M "C C C A"
_symmetry_group_IT_number 68
_space_group.IT_coordinate_system_code '2'
_symmetry_cell_setting 'orthorhombic'
loop_
_space_group_symop_operation_xyz
x,y,z
-x,1/2-y,z
x,1/2-y,1/2-z
-x,y,1/2-z
-x,-y,-z
x,1/2+y,-z
-x,1/2+y,1/2+z
x,-y,1/2+z
1/2+x,1/2+y,z
1/2-x,-y,z
1/2+x,-y,1/2-z
1/2-x,1/2+y,1/2-z
1/2-x,1/2-y,-z
1/2+x,y,-z
1/2-x,y,1/2+z
1/2+x,1/2-y,1/2+z
loop_
_atom_site_type_symbol
_atom_site_label
_atom_site_fract_x
_atom_site_fract_y
_atom_site_fract_z
Si Si1 0.732544 0.236264 0.380954
Si Si2 0.883528 0.687413 0.934778
Si Si3 0.375137 0.118960 0.294974
Si Si4 0.379385 0.531232 0.943412
Si Si5 0.006315 0.953766 0.652125
Si Si6 0.750000 0.500000 0.217478
Si Si7 0.000000 0.250000 0.250000
O O1 0.800295 0.328233 0.407699
O O2 0.667448 0.334690 0.354857
O O3 0.694583 0.120924 0.425473
O O4 0.758444 0.138032 0.325240
O O5 0.947485 0.635854 0.889088
O O6 0.879533 0.858146 0.949138
O O7 0.901165 0.600188 0.994267
O O8 0.381987 0.250000 0.250000
O O9 0.320928 0.011190 0.260097
O O10 0.454174 0.059639 0.312029
O O11 0.436162 0.541648 0.888025
O O12 0.042579 0.851649 0.702766
#
# Coordination Sequence:
#
# PCOD9507437 Si02
#       7
#    16  16  16  16  16   8   4
#     4  11  24  46  77 109 152 198 263 317 395 461
#     4  12  26  51  79 106 151 203 265 320 393 461
#     4  10  25  44  73 115 150 205 243 320 387 465
#     4  12  27  51  75 112 150 207 261 330 385 467
#     4  12  28  49  77 110 155 198 262 316 399 469
#     4  10  20  44  70 108 158 188 258 306 382 468
#     4  12  28  48  78 104 152 204 252 310 396 472
#
# _framework density 24.548901999999998
#
# number of rings (size 3 to 8) (size 9 to 14) (size 15 to 20)
#    0.000    0.696    3.478    2.087    9.739    0.696 
#    0.000    0.000    0.000    0.000    0.000    0.000 
#    0.000    0.000    0.000    0.000    0.000    0.000 
#
# Total GULP energy -257456.097957 kJ/mol
# GULP energy per Si atom -5596.871695 kJ/mol
# Density = 2.449303 g / cm^3
# Si number density = 24.548902 Si / 1000 Ang^3
#
#
#
# Elastic Constant Matrix: (Units=GPa)
#
#
# Indices 1 2 3 4 5 6 
#
# 1 97.8320 27.9925 39.0943 0.0000 0.0000 0.0000
# 2 27.9925 52.8198 24.3172 0.0000 0.0000 0.0000
# 3 39.0943 24.3172 125.5763 0.0000 0.0000 0.0000
# 4 0.0000 0.0000 0.0000 46.1124 0.0000 0.0000
# 5 0.0000 0.0000 0.0000 0.0000 27.7792 0.0000
# 6 0.0000 0.0000 0.0000 0.0000 0.0000 38.5901
#
#
#
# Elastic Compliance Matrix: (Units=1/GPa)
#
#
# Indices 1 2 3 4 5 6 
#
# 1 0.012988 -0.005513 -0.002976 0.000000 0.000000 0.000000
# 2 -0.005513 0.023126 -0.002762 0.000000 0.000000 0.000000
# 3 -0.002976 -0.002762 0.009425 0.000000 0.000000 0.000000
# 4 0.000000 0.000000 0.000000 0.021686 0.000000 0.000000
# 5 0.000000 0.000000 0.000000 0.000000 0.035998 0.000000
# 6 0.000000 0.000000 0.000000 0.000000 0.000000 0.025913
#
#
# Mechanical properties :
#
#
# Convention : Reuss Voigt Hill
#
# Bulk Modulus (GPa) = 43.40925 51.00403 47.20664
# Shear Modulus (GPa) = 31.38402 34.81795 33.10098
#
# Velocity S-wave (km/s) = 3.57939 3.77013 3.67600
# Velocity P-wave (km/s) = 5.89948 6.30662 6.10644
#
# Compressibility (1/GPa) = 0.02303656
#
# Stress axis : x y z
#
# Youngs Moduli (GPa) = 76.99244 43.24215 106.10603
#
# Poissons Ratio (x) = 0.23841 0.31576
# Poissons Ratio (y) = 0.42448 0.29304
# Poissons Ratio (z) = 0.22912 0.11942
#
# Static dielectric constant tensor:
#      x y z
#    x 1.940850 0.000000 0.000000 
#    y 0.000000 2.029420 0.000000 
#    z 0.000000 0.000000 1.919440 
# 
# From -- ./inp_files/46526.got.cif
#   From: 2010.05.17/outbox.cif.g08.bks.cpg/sg68_24_cif.got.tgz:46526.got - 2010.06.03 18:57:09.
