data_PCOD9507558
_publ_section_title
;
Structure prediction by ZEFSAII (Michael W. Deem and Ramdas Pophale) SiO2 
 PCOD9507558
Probable space group: C C C A
;
_chemical_formula_sum "Si O2"
_cell_formula_units_Z 104
_cell_length_a 19.262493
_cell_length_b 9.494942
_cell_length_c 28.252185
_cell_angle_alpha 90.000000
_cell_angle_beta 90.000000
_cell_angle_gamma 90.000000
_cell_volume 5167.218798
_symmetry_space_group_name_H-M "C C C A"
_symmetry_group_IT_number 68
_space_group.IT_coordinate_system_code '2'
_symmetry_cell_setting 'orthorhombic'
loop_
_space_group_symop_operation_xyz
x,y,z
-x,1/2-y,z
x,1/2-y,1/2-z
-x,y,1/2-z
-x,-y,-z
x,1/2+y,-z
-x,1/2+y,1/2+z
x,-y,1/2+z
1/2+x,1/2+y,z
1/2-x,-y,z
1/2+x,-y,1/2-z
1/2-x,1/2+y,1/2-z
1/2-x,1/2-y,-z
1/2+x,y,-z
1/2-x,y,1/2+z
1/2+x,1/2-y,1/2+z
loop_
_atom_site_type_symbol
_atom_site_label
_atom_site_fract_x
_atom_site_fract_y
_atom_site_fract_z
Si Si1 0.576565 0.592280 0.451509
Si Si2 0.119572 0.011140 0.642005
Si Si3 0.250000 0.500000 0.693775
Si Si4 0.127818 0.708346 0.200417
Si Si5 0.908076 0.087966 0.460929
Si Si6 0.350976 0.734267 0.193722
Si Si7 0.955603 0.465387 0.345290
O O1 0.492653 0.590675 0.459038
O O2 0.608513 0.746932 0.458546
O O3 0.608951 0.486394 0.489586
O O4 0.578542 0.553770 0.396805
O O5 0.122339 0.993808 0.584880
O O6 0.157701 0.882040 0.667835
O O7 0.141959 0.157777 0.666465
O O8 0.037995 0.980727 0.652307
O O9 0.193018 0.392381 0.715646
O O10 0.299754 0.382708 0.671199
O O11 0.095483 0.750000 0.250000
O O12 0.074384 0.609141 0.174224
O O13 0.338314 0.750000 0.250000
O O14 0.426565 0.664817 0.185357
#
# Coordination Sequence:
#
# PCOD9507558 Si02
#       7
#    16  16   8  16  16  16  16
#     4   9  17  32  50  79 119 159 189 224 275 327
#     4  11  21  35  57  90 122 151 194 225 285 364
#     4  10  24  44  58  78 108 148 200 266 286 310
#     4  11  24  39  58  84 114 156 196 239 290 337
#     4   9  18  30  52  81 116 156 193 225 269 342
#     4  11  22  37  60  82 111 154 192 237 289 338
#     4  10  21  36  54  86 131 155 177 234 286 353
#
# _framework density 20.126881000000001
#
# number of rings (size 3 to 8) (size 9 to 14) (size 15 to 20)
#    0.000    1.846    1.538    3.231    2.154    4.308 
#    0.000    0.000    0.000    0.000    0.000   17.231 
#    0.000    0.000    0.000    0.000    0.000    0.000 
#
# Total GULP energy -289608.152675 kJ/mol
# GULP energy per Si atom -5569.387551 kJ/mol
# Density = 2.008107 g / cm^3
# Si number density = 20.126881 Si / 1000 Ang^3
#
#
#
# Elastic Constant Matrix: (Units=GPa)
#
#
# Indices 1 2 3 4 5 6 
#
# 1 33.9810 8.7508 13.0044 0.0000 0.0000 0.0000
# 2 8.7508 145.5428 64.0635 0.0000 0.0000 0.0000
# 3 13.0044 64.0635 103.5020 0.0000 0.0000 0.0000
# 4 0.0000 0.0000 0.0000 36.5110 0.0000 0.0000
# 5 0.0000 0.0000 0.0000 0.0000 -1.1865 0.0000
# 6 0.0000 0.0000 0.0000 0.0000 0.0000 31.8388
#
#
#
# Elastic Compliance Matrix: (Units=1/GPa)
#
#
# Indices 1 2 3 4 5 6 
#
# 1 0.030919 -0.000205 -0.003758 0.000000 0.000000 0.000000
# 2 -0.000205 0.009445 -0.005820 0.000000 0.000000 0.000000
# 3 -0.003758 -0.005820 0.013736 0.000000 0.000000 0.000000
# 4 0.000000 0.000000 0.000000 0.027389 0.000000 0.000000
# 5 0.000000 0.000000 0.000000 0.000000 -0.842848 0.000000
# 6 0.000000 0.000000 0.000000 0.000000 0.000000 0.031408
#
#
# Mechanical properties :
#
#
# Convention : Reuss Voigt Hill
#
# Bulk Modulus (GPa) = 28.95690 50.51817 39.73754
# Shear Modulus (GPa) = -7.15438 26.57982 9.71272
#
# Velocity S-wave (km/s) = -1.88742 3.63797 2.19914
# Velocity P-wave (km/s) = 3.10944 6.54223 5.12198
#
# Compressibility (1/GPa) = 0.03453408
#
# Stress axis : x y z
#
# Youngs Moduli (GPa) = 32.34246 105.87487 72.79925
#
# Poissons Ratio (x) = 0.02169 0.27358
# Poissons Ratio (y) = 0.00663 0.42372
# Poissons Ratio (z) = 0.12154 0.61623
#
# Static dielectric constant tensor:
#      x y z
#    x 1.765510 0.000000 0.000000 
#    y 0.000000 1.715300 0.000000 
#    z 0.000000 0.000000 1.704580 
# 
# From -- ./inp_files/51830.got.cif
#   From: 2010.05.17/outbox.cif.g08.bks.cpg/sg68_26_cif.got.tgz:51830.got - 2010.06.03 18:57:09.
