data_PCOD9507509
_publ_section_title
;
Structure prediction by ZEFSAII (Michael W. Deem and Ramdas Pophale) SiO2 
 PCOD9507509
Probable space group: C C C A
;
_chemical_formula_sum "Si O2"
_cell_formula_units_Z 72
_cell_length_a 20.016176
_cell_length_b 17.911098
_cell_length_c 9.832414
_cell_angle_alpha 90.000000
_cell_angle_beta 90.000000
_cell_angle_gamma 90.000000
_cell_volume 3525.035359
_symmetry_space_group_name_H-M "C C C A"
_symmetry_group_IT_number 68
_space_group.IT_coordinate_system_code '2'
_symmetry_cell_setting 'orthorhombic'
loop_
_space_group_symop_operation_xyz
x,y,z
-x,1/2-y,z
x,1/2-y,1/2-z
-x,y,1/2-z
-x,-y,-z
x,1/2+y,-z
-x,1/2+y,1/2+z
x,-y,1/2+z
1/2+x,1/2+y,z
1/2-x,-y,z
1/2+x,-y,1/2-z
1/2-x,1/2+y,1/2-z
1/2-x,1/2-y,-z
1/2+x,y,-z
1/2-x,y,1/2+z
1/2+x,1/2-y,1/2+z
loop_
_atom_site_type_symbol
_atom_site_label
_atom_site_fract_x
_atom_site_fract_y
_atom_site_fract_z
Si Si1 0.611747 0.812555 0.365108
Si Si2 0.000000 0.922387 0.750000
Si Si3 0.682837 0.455009 0.646911
Si Si4 0.428211 0.316286 0.168189
Si Si5 0.605021 0.485329 0.389796
O O1 0.621285 0.750000 0.250000
O O2 0.556140 0.869104 0.309117
O O3 0.677502 0.865739 0.379063
O O4 0.580146 0.789175 0.510669
O O5 0.964314 0.973985 0.639423
O O6 0.750000 0.500000 0.617951
O O7 0.627028 0.487554 0.544902
O O8 0.660551 0.473119 0.799604
O O9 0.392170 0.250000 0.250000
O O10 0.500000 0.323441 0.250000
O O11 0.399518 0.399769 0.160883
#
# Coordination Sequence:
#
# PCOD9507509 Si02
#       5
#    16   8  16  16  16
#     4  10  23  38  60  91 127 168 202 250 318 376
#     4  10  21  34  61  90 124 164 202 254 315 382
#     4  10  22  40  63  88 120 166 215 261 303 363
#     4  10  22  34  54  86 127 160 194 254 309 373
#     4  10  21  37  61  87 122 158 213 260 316 364
#
# _framework density 20.425325999999998
#
# number of rings (size 3 to 8) (size 9 to 14) (size 15 to 20)
#    0.000    2.000    1.111    1.000    9.333    4.444 
#    0.000    1.111    0.000   10.667    0.000    1.556 
#    0.000    0.000    0.000    0.000    0.000    0.000 
#
# Total GULP energy -200447.461865 kJ/mol
# GULP energy per Si atom -5567.985052 kJ/mol
# Density = 2.037884 g / cm^3
# Si number density = 20.425326 Si / 1000 Ang^3
#
#
#
# Elastic Constant Matrix: (Units=GPa)
#
#
# Indices 1 2 3 4 5 6 
#
# 1 71.1001 31.5946 10.5156 0.0000 0.0000 0.0000
# 2 31.5946 95.8471 38.2128 0.0000 0.0000 0.0000
# 3 10.5156 38.2128 120.6677 0.0000 0.0000 0.0000
# 4 0.0000 0.0000 0.0000 31.0123 0.0000 0.0000
# 5 0.0000 0.0000 0.0000 0.0000 17.2007 0.0000
# 6 0.0000 0.0000 0.0000 0.0000 0.0000 -2.7417
#
#
#
# Elastic Compliance Matrix: (Units=1/GPa)
#
#
# Indices 1 2 3 4 5 6 
#
# 1 0.016490 -0.005565 0.000325 0.000000 0.000000 0.000000
# 2 -0.005565 0.013819 -0.003891 0.000000 0.000000 0.000000
# 3 0.000325 -0.003891 0.009491 0.000000 0.000000 0.000000
# 4 0.000000 0.000000 0.000000 0.032245 0.000000 0.000000
# 5 0.000000 0.000000 0.000000 0.000000 0.058137 0.000000
# 6 0.000000 0.000000 0.000000 0.000000 0.000000 -0.364741
#
#
# Mechanical properties :
#
#
# Convention : Reuss Voigt Hill
#
# Bulk Modulus (GPa) = 46.43029 49.80678 48.11853
# Shear Modulus (GPa) = -23.91005 22.91373 -0.49816
#
# Velocity S-wave (km/s) = -3.42513 3.35301 -0.49439
# Velocity P-wave (km/s) = 2.67191 6.27917 4.82530
#
# Compressibility (1/GPa) = 0.02153767
#
# Stress axis : x y z
#
# Youngs Moduli (GPa) = 60.64430 72.36317 105.36150
#
# Poissons Ratio (x) = 0.40272 -0.03429
# Poissons Ratio (y) = 0.33750 0.40999
# Poissons Ratio (z) = -0.01973 0.28158
#
# Static dielectric constant tensor:
#      x y z
#    x 1.788280 0.000000 0.000000 
#    y 0.000000 1.760890 0.000000 
#    z 0.000000 0.000000 1.752090 
# 
# From -- ./inp_files/7858.got.cif
#   From: 2010.05.17/outbox.cif.g08.bks.cpg/sg68_4_cif.got.tgz:7858.got - 2010.06.03 18:57:09.
