data_PCOD9507031
_publ_section_title
;
Structure prediction by ZEFSAII (Michael W. Deem and Ramdas Pophale) SiO2 
 PCOD9507031
Probable space group: C C C A
;
_chemical_formula_sum "Si O2"
_cell_formula_units_Z 88
_cell_length_a 9.173121
_cell_length_b 21.932873
_cell_length_c 19.756180
_cell_angle_alpha 90.000000
_cell_angle_beta 90.000000
_cell_angle_gamma 90.000000
_cell_volume 3974.803106
_symmetry_space_group_name_H-M "C C C A"
_symmetry_group_IT_number 68
_space_group.IT_coordinate_system_code '2'
_symmetry_cell_setting 'orthorhombic'
loop_
_space_group_symop_operation_xyz
x,y,z
-x,1/2-y,z
x,1/2-y,1/2-z
-x,y,1/2-z
-x,-y,-z
x,1/2+y,-z
-x,1/2+y,1/2+z
x,-y,1/2+z
1/2+x,1/2+y,z
1/2-x,-y,z
1/2+x,-y,1/2-z
1/2-x,1/2+y,1/2-z
1/2-x,1/2-y,-z
1/2+x,y,-z
1/2-x,y,1/2+z
1/2+x,1/2-y,1/2+z
loop_
_atom_site_type_symbol
_atom_site_label
_atom_site_fract_x
_atom_site_fract_y
_atom_site_fract_z
Si Si1 0.500000 0.840834 0.250000
Si Si2 0.110110 0.826928 0.135552
Si Si3 0.000379 0.412928 0.969878
Si Si4 0.096513 0.600861 0.877441
Si Si5 0.750000 0.500000 0.987477
Si Si6 0.767805 0.250000 0.750000
Si Si7 0.750000 0.000000 0.289565
Si Si8 0.000000 0.917248 0.250000
O O1 0.510794 0.875969 0.180108
O O2 0.347632 0.804843 0.251953
O O3 0.021136 0.847729 0.067613
O O4 0.271271 0.851062 0.117369
O O5 0.142427 0.765562 0.180757
O O6 0.034349 0.872992 0.188117
O O7 0.862649 0.455433 0.947813
O O8 0.146145 0.455043 0.968184
O O9 0.973346 0.405388 0.049781
O O10 0.157632 0.541511 0.840276
O O11 0.641629 0.040491 0.245076
#
# Coordination Sequence:
#
# PCOD9507031 Si02
#       8
#     8  16  16  16   8   8   8   8
#     4   9  19  40  69  90 119 180 231 287 352 398
#     4  10  22  41  63  91 123 172 225 288 331 390
#     4  11  21  40  60  98 138 185 221 264 326 415
#     4  10  20  38  60  94 134 171 217 265 326 416
#     4  10  23  35  62  94 149 195 210 256 339 411
#     4   9  20  43  68  86 116 166 236 300 354 378
#     4  10  21  39  56  94 137 179 204 270 327 419
#     4  10  23  37  61  90 133 171 225 262 340 410
#
# _framework density 22.139461000000001
#
# number of rings (size 3 to 8) (size 9 to 14) (size 15 to 20)
#    0.000    2.000    1.818    1.091    7.636    1.091 
#    9.818    0.909    0.000    6.545    0.000    3.818 
#    0.000    0.000    0.000    0.000    0.000    0.000 
#
# Total GULP energy -244985.752527 kJ/mol
# GULP energy per Si atom -5567.858012 kJ/mol
# Density = 2.208907 g / cm^3
# Si number density = 22.139461 Si / 1000 Ang^3
#
#
#
# Elastic Constant Matrix: (Units=GPa)
#
#
# Indices 1 2 3 4 5 6 
#
# 1 106.3703 30.7304 46.4937 0.0000 0.0000 0.0000
# 2 30.7304 49.7652 21.3333 0.0000 0.0000 0.0000
# 3 46.4937 21.3333 89.1501 0.0000 0.0000 0.0000
# 4 0.0000 0.0000 0.0000 36.2510 0.0000 0.0000
# 5 0.0000 0.0000 0.0000 0.0000 27.8241 0.0000
# 6 0.0000 0.0000 0.0000 0.0000 0.0000 25.5723
#
#
#
# Elastic Compliance Matrix: (Units=1/GPa)
#
#
# Indices 1 2 3 4 5 6 
#
# 1 0.013602 -0.005971 -0.005665 0.000000 0.000000 0.000000
# 2 -0.005971 0.025012 -0.002871 0.000000 0.000000 0.000000
# 3 -0.005665 -0.002871 0.014859 0.000000 0.000000 0.000000
# 4 0.000000 0.000000 0.000000 0.027585 0.000000 0.000000
# 5 0.000000 0.000000 0.000000 0.000000 0.035940 0.000000
# 6 0.000000 0.000000 0.000000 0.000000 0.000000 0.039105
#
#
# Mechanical properties :
#
#
# Convention : Reuss Voigt Hill
#
# Bulk Modulus (GPa) = 40.88570 49.15561 45.02065
# Shear Modulus (GPa) = 25.87038 27.71138 26.79088
#
# Velocity S-wave (km/s) = 3.42207 3.54174 3.48242
# Velocity P-wave (km/s) = 5.84136 6.24309 6.04556
#
# Compressibility (1/GPa) = 0.02445843
#
# Stress axis : x y z
#
# Youngs Moduli (GPa) = 73.51689 39.98012 67.30115
#
# Poissons Ratio (x) = 0.23872 0.38126
# Poissons Ratio (y) = 0.43897 0.19324
# Poissons Ratio (z) = 0.41648 0.11480
#
# Static dielectric constant tensor:
#      x y z
#    x 1.780220 0.000000 0.000000 
#    y 0.000000 1.922120 0.000000 
#    z 0.000000 0.000000 1.865080 
# 
# From -- ./inp_files/36360.got.cif
#   From: 2010.05.17/outbox.cif.g08.bks.cpg/sg68_19_cif.got.tgz:36360.got - 2010.06.03 18:57:09.
