data_PCOD9507057
_publ_section_title
;
Structure prediction by ZEFSAII (Michael W. Deem and Ramdas Pophale) SiO2 
 PCOD9507057
Probable space group: C C C A
;
_chemical_formula_sum "Si O2"
_cell_formula_units_Z 56
_cell_length_a 21.300065
_cell_length_b 8.439361
_cell_length_c 13.969321
_cell_angle_alpha 90.000000
_cell_angle_beta 90.000000
_cell_angle_gamma 90.000000
_cell_volume 2511.110306
_symmetry_space_group_name_H-M "C C C A"
_symmetry_group_IT_number 68
_space_group.IT_coordinate_system_code '2'
_symmetry_cell_setting 'orthorhombic'
loop_
_space_group_symop_operation_xyz
x,y,z
-x,1/2-y,z
x,1/2-y,1/2-z
-x,y,1/2-z
-x,-y,-z
x,1/2+y,-z
-x,1/2+y,1/2+z
x,-y,1/2+z
1/2+x,1/2+y,z
1/2-x,-y,z
1/2+x,-y,1/2-z
1/2-x,1/2+y,1/2-z
1/2-x,1/2-y,-z
1/2+x,y,-z
1/2-x,y,1/2+z
1/2+x,1/2-y,1/2+z
loop_
_atom_site_type_symbol
_atom_site_label
_atom_site_fract_x
_atom_site_fract_y
_atom_site_fract_z
Si Si1 0.082427 0.750000 0.750000
Si Si2 0.053668 0.935097 0.572400
Si Si3 0.142411 0.290872 0.959730
Si Si4 0.682838 0.028136 0.638942
O O1 0.043730 0.859150 0.675640
O O2 0.129917 0.624956 0.696478
O O3 0.086162 0.792895 0.516401
O O4 0.107905 0.064315 0.590491
O O5 0.000000 0.000000 0.500000
O O6 0.164970 0.150240 0.892151
O O7 0.188428 0.368840 0.039379
O O8 0.750000 0.000000 0.688483
#
# Coordination Sequence:
#
# PCOD9507057 Si02
#       4
#     8  16  16  16
#     4  10  24  38  59  98 128 164 229 268 316 406
#     4  10  20  40  63  86 124 169 212 272 329 380
#     4   9  20  37  61  89 119 165 217 254 320 399
#     4  10  20  38  62  92 130 169 211 270 323 381
#
# _framework density 22.300892000000001
#
# number of rings (size 3 to 8) (size 9 to 14) (size 15 to 20)
#    0.000    2.286    0.000    1.714    0.000    3.429 
#    0.000   28.571    0.000   17.143    0.000    0.000 
#    0.000    0.000    0.000    0.000    0.000    0.000 
#
# Total GULP energy -155875.601609 kJ/mol
# GULP energy per Si atom -5566.985772 kJ/mol
# Density = 2.225013 g / cm^3
# Si number density = 22.300892 Si / 1000 Ang^3
#
#
#
# Elastic Constant Matrix: (Units=GPa)
#
#
# Indices 1 2 3 4 5 6 
#
# 1 62.8730 10.5045 39.3340 0.0000 0.0000 0.0000
# 2 10.5045 113.3984 36.3556 0.0000 0.0000 0.0000
# 3 39.3340 36.3556 94.9030 0.0000 0.0000 0.0000
# 4 0.0000 0.0000 0.0000 20.1060 0.0000 0.0000
# 5 0.0000 0.0000 0.0000 0.0000 1.2353 0.0000
# 6 0.0000 0.0000 0.0000 0.0000 0.0000 31.6083
#
#
#
# Elastic Compliance Matrix: (Units=1/GPa)
#
#
# Indices 1 2 3 4 5 6 
#
# 1 0.021570 0.000990 -0.009319 0.000000 0.000000 0.000000
# 2 0.000990 0.010099 -0.004279 0.000000 0.000000 0.000000
# 3 -0.009319 -0.004279 0.016039 0.000000 0.000000 0.000000
# 4 0.000000 0.000000 0.000000 0.049736 0.000000 0.000000
# 5 0.000000 0.000000 0.000000 0.000000 0.809500 0.000000
# 6 0.000000 0.000000 0.000000 0.000000 0.000000 0.031637
#
#
# Mechanical properties :
#
#
# Convention : Reuss Voigt Hill
#
# Bulk Modulus (GPa) = 44.46291 49.28471 46.87381
# Shear Modulus (GPa) = 5.14777 22.92197 14.03487
#
# Velocity S-wave (km/s) = 1.52097 3.20949 2.51139
# Velocity P-wave (km/s) = 4.80265 5.99018 5.42898
#
# Compressibility (1/GPa) = 0.02249066
#
# Stress axis : x y z
#
# Youngs Moduli (GPa) = 46.36108 99.02409 62.34970
#
# Poissons Ratio (x) = -0.09799 0.58104
# Poissons Ratio (y) = -0.04588 0.26678
# Poissons Ratio (z) = 0.43204 0.42370
#
# Static dielectric constant tensor:
#      x y z
#    x 1.985920 0.000000 0.000000 
#    y 0.000000 1.657350 0.000000 
#    z 0.000000 0.000000 1.958030 
# 
# From -- ./inp_files/16853.got.cif
#   From: 2010.05.17/outbox.cif.g08.bks.cpg/sg68_9_cif.got.tgz:16853.got - 2010.06.03 18:57:09.
