data_PCOD9507964
_publ_section_title
;
Structure prediction by ZEFSAII (Michael W. Deem and Ramdas Pophale) SiO2 
 PCOD9507964
Probable space group: C C C A
;
_chemical_formula_sum "Si O2"
_cell_formula_units_Z 88
_cell_length_a 16.737887
_cell_length_b 13.847816
_cell_length_c 14.492629
_cell_angle_alpha 90.000000
_cell_angle_beta 90.000000
_cell_angle_gamma 90.000000
_cell_volume 3359.147628
_symmetry_space_group_name_H-M "C C C A"
_symmetry_group_IT_number 68
_space_group.IT_coordinate_system_code '2'
_symmetry_cell_setting 'orthorhombic'
loop_
_space_group_symop_operation_xyz
x,y,z
-x,1/2-y,z
x,1/2-y,1/2-z
-x,y,1/2-z
-x,-y,-z
x,1/2+y,-z
-x,1/2+y,1/2+z
x,-y,1/2+z
1/2+x,1/2+y,z
1/2-x,-y,z
1/2+x,-y,1/2-z
1/2-x,1/2+y,1/2-z
1/2-x,1/2-y,-z
1/2+x,y,-z
1/2-x,y,1/2+z
1/2+x,1/2-y,1/2+z
loop_
_atom_site_type_symbol
_atom_site_label
_atom_site_fract_x
_atom_site_fract_y
_atom_site_fract_z
Si Si1 0.056751 0.873633 0.392934
Si Si2 0.335177 0.697930 0.055923
Si Si3 0.000000 0.250000 0.436141
Si Si4 0.380966 0.421331 0.368290
Si Si5 0.293078 0.840355 0.799864
Si Si6 0.323684 0.425846 0.979853
O O1 0.118763 0.807092 0.337442
O O2 0.123750 0.949441 0.427597
O O3 0.032416 0.828602 0.490566
O O4 0.973740 0.898883 0.347127
O O5 0.420333 0.708097 0.109088
O O6 0.268734 0.641912 0.116978
O O7 0.190960 0.689071 0.962795
O O8 0.357141 0.644212 0.958677
O O9 0.320615 0.409275 0.282776
O O10 0.377548 0.532632 0.397353
O O11 0.253500 0.750000 0.750000
O O12 0.250000 0.500000 0.973922
#
# Coordination Sequence:
#
# PCOD9507964 Si02
#       6
#    16  16   8  16  16  16
#     4  10  21  39  67 104 141 184 233 294 368 434
#     4  10  23  45  69 100 140 189 238 294 363 431
#     4   8  18  38  68  96 134 188 236 282 354 438
#     4  11  24  44  71 104 143 186 239 299 361 437
#     4  12  23  39  69 102 134 176 233 295 356 426
#     4  11  22  40  67  99 143 191 232 285 356 435
#
# _framework density 26.197120999999999
#
# number of rings (size 3 to 8) (size 9 to 14) (size 15 to 20)
#    0.000    1.455    0.000    6.545    0.000    6.545 
#    0.000   14.091    0.000    8.727    0.000    0.000 
#    0.000    0.000    0.000    0.000    0.000    0.000 
#
# Total GULP energy -245084.456459 kJ/mol
# GULP energy per Si atom -5570.101283 kJ/mol
# Density = 2.613750 g / cm^3
# Si number density = 26.197121 Si / 1000 Ang^3
#
#
#
# Elastic Constant Matrix: (Units=GPa)
#
#
# Indices 1 2 3 4 5 6 
#
# 1 217.1178 41.5803 66.9212 0.0000 0.0000 0.0000
# 2 41.5803 107.4674 42.7012 0.0000 0.0000 0.0000
# 3 66.9212 42.7012 116.2362 0.0000 0.0000 0.0000
# 4 0.0000 0.0000 0.0000 29.4304 0.0000 0.0000
# 5 0.0000 0.0000 0.0000 0.0000 36.6943 0.0000
# 6 0.0000 0.0000 0.0000 0.0000 0.0000 29.1750
#
#
#
# Elastic Compliance Matrix: (Units=1/GPa)
#
#
# Indices 1 2 3 4 5 6 
#
# 1 0.005700 -0.001055 -0.002894 0.000000 0.000000 0.000000
# 2 -0.001055 0.011091 -0.003467 0.000000 0.000000 0.000000
# 3 -0.002894 -0.003467 0.011543 0.000000 0.000000 0.000000
# 4 0.000000 0.000000 0.000000 0.033979 0.000000 0.000000
# 5 0.000000 0.000000 0.000000 0.000000 0.027252 0.000000
# 6 0.000000 0.000000 0.000000 0.000000 0.000000 0.034276
#
#
# Mechanical properties :
#
#
# Convention : Reuss Voigt Hill
#
# Bulk Modulus (GPa) = 74.06598 82.58074 78.32336
# Shear Modulus (GPa) = 34.92273 38.36784 36.64529
#
# Velocity S-wave (km/s) = 3.65509 3.83114 3.74415
# Velocity P-wave (km/s) = 6.79315 7.15272 6.97525
#
# Compressibility (1/GPa) = 0.01350148
#
# Stress axis : x y z
#
# Youngs Moduli (GPa) = 175.44175 90.16302 86.63369
#
# Poissons Ratio (x) = 0.09517 0.25071
# Poissons Ratio (y) = 0.18518 0.30034
# Poissons Ratio (z) = 0.50771 0.31258
#
# Static dielectric constant tensor:
#      x y z
#    x 2.346190 0.000000 0.000000 
#    y 0.000000 2.276780 0.000000 
#    z 0.000000 0.000000 2.192290 
# 
# From -- ./inp_files/23603.got.cif
#   From: 2010.05.17/outbox.cif.g08.bks.cpg/sg68_12_cif.got.tgz:23603.got - 2010.06.03 18:57:09.
