data_PCOD9507619
_publ_section_title
;
Structure prediction by ZEFSAII (Michael W. Deem and Ramdas Pophale) SiO2 
 PCOD9507619
Probable space group: C C C A
;
_chemical_formula_sum "Si O2"
_cell_formula_units_Z 88
_cell_length_a 10.964452
_cell_length_b 14.567290
_cell_length_c 28.422769
_cell_angle_alpha 90.000000
_cell_angle_beta 90.000000
_cell_angle_gamma 90.000000
_cell_volume 4539.751514
_symmetry_space_group_name_H-M "C C C A"
_symmetry_group_IT_number 68
_space_group.IT_coordinate_system_code '2'
_symmetry_cell_setting 'orthorhombic'
loop_
_space_group_symop_operation_xyz
x,y,z
-x,1/2-y,z
x,1/2-y,1/2-z
-x,y,1/2-z
-x,-y,-z
x,1/2+y,-z
-x,1/2+y,1/2+z
x,-y,1/2+z
1/2+x,1/2+y,z
1/2-x,-y,z
1/2+x,-y,1/2-z
1/2-x,1/2+y,1/2-z
1/2-x,1/2-y,-z
1/2+x,y,-z
1/2-x,y,1/2+z
1/2+x,1/2-y,1/2+z
loop_
_atom_site_type_symbol
_atom_site_label
_atom_site_fract_x
_atom_site_fract_y
_atom_site_fract_z
Si Si1 0.055967 0.653277 0.308854
Si Si2 0.500000 0.994882 0.250000
Si Si3 0.610589 0.688000 0.583648
Si Si4 0.882518 0.314042 0.101892
Si Si5 0.332948 0.164064 0.714657
Si Si6 0.884038 0.994288 0.966344
O O1 0.979347 0.565638 0.292741
O O2 0.073260 0.660448 0.363918
O O3 0.189111 0.647631 0.286628
O O4 0.000000 0.750000 0.295887
O O5 0.606466 0.926320 0.264171
O O6 0.500000 0.750000 0.564242
O O7 0.749338 0.726987 0.586441
O O8 0.615317 0.591443 0.558947
O O9 0.874399 0.325223 0.159440
O O10 0.892128 0.409420 0.071468
O O11 0.000000 0.250000 0.091934
O O12 0.358814 0.250000 0.750000
O O13 0.750000 0.000000 0.990730
O O14 0.000000 0.000000 0.000000
#
# Coordination Sequence:
#
# PCOD9507619 Si02
#       6
#    16   8  16  16  16  16
#     4  10  21  37  55  78 112 153 194 236 288 352
#     4  12  20  30  52  80 108 146 192 236 280 336
#     4   9  20  39  61  83 114 154 194 240 297 357
#     4  10  21  39  60  86 120 157 196 246 304 358
#     4  11  22  36  55  83 118 154 195 243 294 354
#     4  10  22  40  62  88 118 153 196 248 304 364
#
# _framework density 19.384321
#
# number of rings (size 3 to 8) (size 9 to 14) (size 15 to 20)
#    0.000    1.818    0.000    4.364    0.000    5.091 
#    0.000    5.455    0.000    4.364    0.000    0.000 
#    0.000    0.000    0.000    0.000    0.000    0.000 
#
# Total GULP energy -245007.521396 kJ/mol
# GULP energy per Si atom -5568.352759 kJ/mol
# Density = 1.934020 g / cm^3
# Si number density = 19.384321 Si / 1000 Ang^3
#
#
#
# Elastic Constant Matrix: (Units=GPa)
#
#
# Indices 1 2 3 4 5 6 
#
# 1 149.1707 65.2865 47.8285 0.0000 0.0000 0.0000
# 2 65.2865 117.9989 21.1454 0.0000 0.0000 0.0000
# 3 47.8285 21.1454 59.9912 0.0000 0.0000 0.0000
# 4 0.0000 0.0000 0.0000 20.2934 0.0000 0.0000
# 5 0.0000 0.0000 0.0000 0.0000 34.5397 0.0000
# 6 0.0000 0.0000 0.0000 0.0000 0.0000 28.3858
#
#
#
# Elastic Compliance Matrix: (Units=1/GPa)
#
#
# Indices 1 2 3 4 5 6 
#
# 1 0.011133 -0.004877 -0.007157 0.000000 0.000000 0.000000
# 2 -0.004877 0.011183 -0.000053 0.000000 0.000000 0.000000
# 3 -0.007157 -0.000053 0.022394 0.000000 0.000000 0.000000
# 4 0.000000 0.000000 0.000000 0.049277 0.000000 0.000000
# 5 0.000000 0.000000 0.000000 0.000000 0.028952 0.000000
# 6 0.000000 0.000000 0.000000 0.000000 0.000000 0.035229
#
#
# Mechanical properties :
#
#
# Convention : Reuss Voigt Hill
#
# Bulk Modulus (GPa) = 48.69755 66.18686 57.44221
# Shear Modulus (GPa) = 26.42892 29.50380 27.96636
#
# Velocity S-wave (km/s) = 3.69645 3.90557 3.80245
# Velocity P-wave (km/s) = 6.58749 7.38625 6.99827
#
# Compressibility (1/GPa) = 0.02053491
#
# Stress axis : x y z
#
# Youngs Moduli (GPa) = 89.82356 89.42442 44.65551
#
# Poissons Ratio (x) = 0.43614 0.31959
# Poissons Ratio (y) = 0.43808 0.00238
# Poissons Ratio (z) = 0.64284 0.00476
#
# Static dielectric constant tensor:
#      x y z
#    x 1.761630 0.000000 0.000000 
#    y 0.000000 1.901160 0.000000 
#    z 0.000000 0.000000 0.769170 
# 
# From -- ./inp_files/54628.got.cif
#   From: 2010.05.17/outbox.cif.g08.bks.cpg/sg68_28_cif.got.tgz:54628.got - 2010.06.03 18:57:09.
