data_PCOD9507760
_publ_section_title
;
Structure prediction by ZEFSAII (Michael W. Deem and Ramdas Pophale) SiO2 
 PCOD9507760
Probable space group: C C C A
;
_chemical_formula_sum "Si O2"
_cell_formula_units_Z 72
_cell_length_a 14.340083
_cell_length_b 16.612989
_cell_length_c 14.096969
_cell_angle_alpha 90.000000
_cell_angle_beta 90.000000
_cell_angle_gamma 90.000000
_cell_volume 3358.344060
_symmetry_space_group_name_H-M "C C C A"
_symmetry_group_IT_number 68
_space_group.IT_coordinate_system_code '2'
_symmetry_cell_setting 'orthorhombic'
loop_
_space_group_symop_operation_xyz
x,y,z
-x,1/2-y,z
x,1/2-y,1/2-z
-x,y,1/2-z
-x,-y,-z
x,1/2+y,-z
-x,1/2+y,1/2+z
x,-y,1/2+z
1/2+x,1/2+y,z
1/2-x,-y,z
1/2+x,-y,1/2-z
1/2-x,1/2+y,1/2-z
1/2-x,1/2-y,-z
1/2+x,y,-z
1/2-x,y,1/2+z
1/2+x,1/2-y,1/2+z
loop_
_atom_site_type_symbol
_atom_site_label
_atom_site_fract_x
_atom_site_fract_y
_atom_site_fract_z
Si Si1 0.303807 0.749999 0.365441
Si Si2 0.000000 0.750000 0.524500
Si Si3 0.000000 0.879691 0.141106
Si Si4 0.791399 0.081961 0.861104
Si Si5 0.791398 0.581962 0.361106
O O1 0.311741 0.750000 0.250000
O O2 0.406243 0.749998 0.412349
O O3 0.246995 0.668943 0.394090
O O4 0.246998 0.831057 0.394091
O O5 0.000003 0.677491 0.449575
O O6 0.902649 0.925068 0.133437
O O7 0.000000 0.843970 0.250000
O O8 0.097350 0.925070 0.133440
O O9 0.765949 0.083261 0.749999
O O10 0.750000 0.000000 0.901301
O O11 0.750000 0.500000 0.401302
#
# Coordination Sequence:
#
# PCOD9507760 Si02
#       5
#    16   8  16  16  16
#     4  10  22  40  60  86 122 160 198 242 294 352
#     4  12  24  38  60  90 120 160 202 244 296 350
#     4  10  21  38  61  88 118 154 200 248 294 348
#     4   9  19  38  64  90 119 157 197 243 298 352
#     4   9  19  38  64  90 119 157 197 243 298 352
#
# _framework density 21.439136999999999
#
# number of rings (size 3 to 8) (size 9 to 14) (size 15 to 20)
#    0.000    2.222    0.000    2.000    0.000    8.889 
#    0.000   13.333    0.000    0.000    0.000    0.000 
#    0.000    0.000    0.000    0.000    0.000    0.000 
#
# Total GULP energy -200698.671764 kJ/mol
# GULP energy per Si atom -5574.963105 kJ/mol
# Density = 2.139034 g / cm^3
# Si number density = 21.439137 Si / 1000 Ang^3
#
#
#
# Elastic Constant Matrix: (Units=GPa)
#
#
# Indices 1 2 3 4 5 6 
#
# 1 166.9376 105.7922 43.5510 0.0000 0.0000 0.0000
# 2 105.7922 191.0009 33.8958 0.0000 0.0000 0.0000
# 3 43.5510 33.8958 135.4513 0.0000 0.0000 0.0000
# 4 0.0000 0.0000 0.0000 -38.1023 0.0000 0.0000
# 5 0.0000 0.0000 0.0000 0.0000 -22.8321 0.0000
# 6 0.0000 0.0000 0.0000 0.0000 0.0000 -21.4070
#
#
#
# Elastic Compliance Matrix: (Units=1/GPa)
#
#
# Indices 1 2 3 4 5 6 
#
# 1 0.009653 -0.005019 -0.001848 0.000000 0.000000 0.000000
# 2 -0.005019 0.008088 -0.000410 0.000000 0.000000 0.000000
# 3 -0.001848 -0.000410 0.008080 0.000000 0.000000 0.000000
# 4 0.000000 0.000000 0.000000 -0.026245 0.000000 0.000000
# 5 0.000000 0.000000 0.000000 0.000000 -0.043798 0.000000
# 6 0.000000 0.000000 0.000000 0.000000 0.000000 -0.046714
#
#
# Mechanical properties :
#
#
# Convention : Reuss Voigt Hill
#
# Bulk Modulus (GPa) = 88.75521 95.54086 92.14804
# Shear Modulus (GPa) = -68.84431 4.20846 -32.31793
#
# Velocity S-wave (km/s) = -5.67285 1.40258 -3.88677
# Velocity P-wave (km/s) = 1.19153 6.87630 4.78872
#
# Compressibility (1/GPa) = 0.01126694
#
# Stress axis : x y z
#
# Youngs Moduli (GPa) = 103.59834 123.63849 123.76985
#
# Poissons Ratio (x) = 0.62049 0.22869
# Poissons Ratio (y) = 0.51991 0.05080
# Poissons Ratio (z) = 0.19142 0.05074
#
# Static dielectric constant tensor:
#      x y z
#    x 1.736620 0.000000 0.000000 
#    y 0.000000 1.838240 0.000000 
#    z 0.000000 0.000000 1.786970 
# 
# From -- ./inp_files/21984.got.cif
#   From: 2010.05.17/outbox.cif.g08.bks.cpg/sg68_11_cif.got.tgz:21984.got - 2010.06.03 18:57:09.
