data_PCOD9507876
_publ_section_title
;
Structure prediction by ZEFSAII (Michael W. Deem and Ramdas Pophale) SiO2 
 PCOD9507876
Probable space group: C C C A
;
_chemical_formula_sum "Si O2"
_cell_formula_units_Z 60
_cell_length_a 5.008647
_cell_length_b 23.387309
_cell_length_c 24.691123
_cell_angle_alpha 90.000000
_cell_angle_beta 90.000000
_cell_angle_gamma 90.000000
_cell_volume 2892.287903
_symmetry_space_group_name_H-M "C C C A"
_symmetry_group_IT_number 68
_space_group.IT_coordinate_system_code '2'
_symmetry_cell_setting 'orthorhombic'
loop_
_space_group_symop_operation_xyz
x,y,z
-x,1/2-y,z
x,1/2-y,1/2-z
-x,y,1/2-z
-x,-y,-z
x,1/2+y,-z
-x,1/2+y,1/2+z
x,-y,1/2+z
1/2+x,1/2+y,z
1/2-x,-y,z
1/2+x,-y,1/2-z
1/2-x,1/2+y,1/2-z
1/2-x,1/2-y,-z
1/2+x,y,-z
1/2-x,y,1/2+z
1/2+x,1/2-y,1/2+z
loop_
_atom_site_type_symbol
_atom_site_label
_atom_site_fract_x
_atom_site_fract_y
_atom_site_fract_z
Si Si1 0.647972 0.845386 0.306201
Si Si2 0.472723 0.934354 0.976772
Si Si3 0.500000 0.250000 0.250000
Si Si4 0.250000 0.000000 0.286661
Si Si5 0.816880 0.396273 0.857984
O O1 0.500000 0.864416 0.250000
O O2 0.804072 0.788410 0.286964
O O3 0.401551 0.845922 0.348982
O O4 0.896220 0.881455 0.331074
O O5 0.364561 0.922174 0.917404
O O6 0.262471 0.907761 0.018003
O O7 0.500000 0.000000 0.000000
O O8 0.500000 0.015111 0.250000
O O9 0.318420 0.947605 0.325007
#
# Coordination Sequence:
#
# PCOD9507876 Si02
#       5
#    16  16   4   8  16
#     4  12  24  42  65  99 133 171 218 278 333 408
#     4  10  21  39  60  87 126 175 228 274 304 368
#     4  12  26  44  74  92 138 168 218 292 338 402
#     4  12  24  34  52  84 134 184 200 248 306 398
#     4  12  24  39  62  94 134 179 225 261 325 397
#
# _framework density 20.744821999999999
#
# number of rings (size 3 to 8) (size 9 to 14) (size 15 to 20)
#    0.000    0.533    2.667    7.600    0.000    4.267 
#    0.000    0.000    0.000    0.000    0.000   18.667 
#    0.000    0.000    0.000    0.000    0.000    0.000 
#
# Total GULP energy -167034.786244 kJ/mol
# GULP energy per Si atom -5567.826208 kJ/mol
# Density = 2.069761 g / cm^3
# Si number density = 20.744822 Si / 1000 Ang^3
#
#
#
# Elastic Constant Matrix: (Units=GPa)
#
#
# Indices 1 2 3 4 5 6 
#
# 1 160.4528 24.8594 41.8441 0.0000 0.0000 0.0000
# 2 24.8594 58.5438 48.8907 0.0000 0.0000 0.0000
# 3 41.8441 48.8907 127.8000 0.0000 0.0000 0.0000
# 4 0.0000 0.0000 0.0000 29.9495 0.0000 0.0000
# 5 0.0000 0.0000 0.0000 0.0000 22.0366 0.0000
# 6 0.0000 0.0000 0.0000 0.0000 0.0000 28.8385
#
#
#
# Elastic Compliance Matrix: (Units=1/GPa)
#
#
# Indices 1 2 3 4 5 6 
#
# 1 0.006907 -0.001535 -0.001674 0.000000 0.000000 0.000000
# 2 -0.001535 0.025441 -0.009230 0.000000 0.000000 0.000000
# 3 -0.001674 -0.009230 0.011904 0.000000 0.000000 0.000000
# 4 0.000000 0.000000 0.000000 0.033389 0.000000 0.000000
# 5 0.000000 0.000000 0.000000 0.000000 0.045379 0.000000
# 6 0.000000 0.000000 0.000000 0.000000 0.000000 0.034676
#
#
# Mechanical properties :
#
#
# Convention : Reuss Voigt Hill
#
# Bulk Modulus (GPa) = 51.61644 64.22055 57.91850
# Shear Modulus (GPa) = 26.45048 31.57842 29.01445
#
# Velocity S-wave (km/s) = 3.57464 3.90581 3.74389
# Velocity P-wave (km/s) = 6.47866 7.16694 6.83148
#
# Compressibility (1/GPa) = 0.01937367
#
# Stress axis : x y z
#
# Youngs Moduli (GPa) = 144.78567 39.30644 84.00518
#
# Poissons Ratio (x) = 0.06032 0.14065
# Poissons Ratio (y) = 0.22218 0.77539
# Poissons Ratio (z) = 0.24242 0.36281
#
# Static dielectric constant tensor:
#      x y z
#    x 1.810830 0.000000 0.000000 
#    y 0.000000 1.809810 0.000000 
#    z 0.000000 0.000000 1.777470 
# 
# From -- ./inp_files/34974.got.cif
#   From: 2010.05.17/outbox.cif.g08.bks.cpg/sg68_18_cif.got.tgz:34974.got - 2010.06.03 18:57:09.
