data_PCOD9507127
_publ_section_title
;
Structure prediction by ZEFSAII (Michael W. Deem and Ramdas Pophale) SiO2 
 PCOD9507127
Probable space group: C C C A
;
_chemical_formula_sum "Si O2"
_cell_formula_units_Z 96
_cell_length_a 22.120599
_cell_length_b 24.347486
_cell_length_c 10.000948
_cell_angle_alpha 90.000000
_cell_angle_beta 90.000000
_cell_angle_gamma 90.000000
_cell_volume 5386.320319
_symmetry_space_group_name_H-M "C C C A"
_symmetry_group_IT_number 68
_space_group.IT_coordinate_system_code '2'
_symmetry_cell_setting 'orthorhombic'
loop_
_space_group_symop_operation_xyz
x,y,z
-x,1/2-y,z
x,1/2-y,1/2-z
-x,y,1/2-z
-x,-y,-z
x,1/2+y,-z
-x,1/2+y,1/2+z
x,-y,1/2+z
1/2+x,1/2+y,z
1/2-x,-y,z
1/2+x,-y,1/2-z
1/2-x,1/2+y,1/2-z
1/2-x,1/2-y,-z
1/2+x,y,-z
1/2-x,y,1/2+z
1/2+x,1/2-y,1/2+z
loop_
_atom_site_type_symbol
_atom_site_label
_atom_site_fract_x
_atom_site_fract_y
_atom_site_fract_z
Si Si1 0.052070 0.453790 0.362362
Si Si2 0.069340 0.766415 0.600522
Si Si3 0.754655 0.791656 0.375100
Si Si4 0.872474 0.334411 0.509838
Si Si5 0.363337 0.638369 0.305210
Si Si6 0.970766 0.579145 0.110113
O O1 0.114994 0.423806 0.328200
O O2 0.059887 0.519392 0.369571
O O3 0.000000 0.442357 0.250000
O O4 0.022328 0.432812 0.500066
O O5 0.090307 0.750000 0.750000
O O6 0.104289 0.728673 0.497304
O O7 0.083816 0.829980 0.610278
O O8 0.000000 0.750000 0.589652
O O9 0.759168 0.750000 0.250000
O O10 0.750000 0.750000 0.500000
O O11 0.812301 0.830397 0.402650
O O12 0.697138 0.832086 0.358549
O O13 0.862500 0.351617 0.354773
O O14 0.923403 0.375168 0.563677
O O15 0.000000 0.596103 0.250000
#
# Coordination Sequence:
#
# PCOD9507127 Si02
#       6
#    16  16  16  16  16  16
#     4  10  20  38  68  91 120 161 202 249 310 374
#     4   9  17  28  53  87 112 143 197 249 293 363
#     4  12  23  41  60  87 123 167 209 252 303 362
#     4  11  21  39  61  84 124 164 203 251 309 368
#     4  11  20  36  64  88 114 163 213 245 303 377
#     4  10  22  39  61  96 126 156 198 256 317 364
#
# _framework density 17.822927
#
# number of rings (size 3 to 8) (size 9 to 14) (size 15 to 20)
#    0.000    1.500    5.000    1.500    2.333    1.333 
#    3.000    0.833    0.000    2.000    0.000    0.000 
#    0.000    0.000    0.000    0.000    0.000    0.000 
#
# Total GULP energy -267361.093417 kJ/mol
# GULP energy per Si atom -5570.022780 kJ/mol
# Density = 1.778236 g / cm^3
# Si number density = 17.822927 Si / 1000 Ang^3
#
#
#
# Elastic Constant Matrix: (Units=GPa)
#
#
# Indices 1 2 3 4 5 6 
#
# 1 74.0317 37.9168 35.4204 0.0000 0.0000 0.0000
# 2 37.9168 74.6382 23.7101 0.0000 0.0000 0.0000
# 3 35.4204 23.7101 94.5932 0.0000 0.0000 0.0000
# 4 0.0000 0.0000 0.0000 15.3876 0.0000 0.0000
# 5 0.0000 0.0000 0.0000 0.0000 26.8766 0.0000
# 6 0.0000 0.0000 0.0000 0.0000 0.0000 35.6593
#
#
#
# Elastic Compliance Matrix: (Units=1/GPa)
#
#
# Indices 1 2 3 4 5 6 
#
# 1 0.020621 -0.008717 -0.005537 0.000000 0.000000 0.000000
# 2 -0.008717 0.018242 -0.001308 0.000000 0.000000 0.000000
# 3 -0.005537 -0.001308 0.012973 0.000000 0.000000 0.000000
# 4 0.000000 0.000000 0.000000 0.064988 0.000000 0.000000
# 5 0.000000 0.000000 0.000000 0.000000 0.037207 0.000000
# 6 0.000000 0.000000 0.000000 0.000000 0.000000 0.028043
#
#
# Mechanical properties :
#
#
# Convention : Reuss Voigt Hill
#
# Bulk Modulus (GPa) = 48.28135 48.59531 48.43833
# Shear Modulus (GPa) = 22.71678 25.33242 24.02460
#
# Velocity S-wave (km/s) = 3.57400 3.77415 3.67544
# Velocity P-wave (km/s) = 6.64677 6.80567 6.72669
#
# Compressibility (1/GPa) = 0.02071193
#
# Stress axis : x y z
#
# Youngs Moduli (GPa) = 48.49349 54.81895 77.08472
#
# Poissons Ratio (x) = 0.47785 0.42680
# Poissons Ratio (y) = 0.42272 0.10085
# Poissons Ratio (z) = 0.26849 0.07172
#
# Static dielectric constant tensor:
#      x y z
#    x 1.667720 0.000000 0.000000 
#    y 0.000000 1.650290 0.000000 
#    z 0.000000 0.000000 1.616630 
# 
# From -- ./inp_files/7287.got.cif
#   From: 2010.05.17/outbox.cif.g08.bks.cpg/sg68_4_cif.got.tgz:7287.got - 2010.06.03 18:57:09.
