data_PCOD9507863
_publ_section_title
;
Structure prediction by ZEFSAII (Michael W. Deem and Ramdas Pophale) SiO2 
 PCOD9507863
Probable space group: C C C A
;
_chemical_formula_sum "Si O2"
_cell_formula_units_Z 128
_cell_length_a 24.951608
_cell_length_b 24.312582
_cell_length_c 11.574569
_cell_angle_alpha 90.000000
_cell_angle_beta 90.000000
_cell_angle_gamma 90.000000
_cell_volume 7021.573569
_symmetry_space_group_name_H-M "C C C A"
_symmetry_group_IT_number 68
_space_group.IT_coordinate_system_code '2'
_symmetry_cell_setting 'orthorhombic'
loop_
_space_group_symop_operation_xyz
x,y,z
-x,1/2-y,z
x,1/2-y,1/2-z
-x,y,1/2-z
-x,-y,-z
x,1/2+y,-z
-x,1/2+y,1/2+z
x,-y,1/2+z
1/2+x,1/2+y,z
1/2-x,-y,z
1/2+x,-y,1/2-z
1/2-x,1/2+y,1/2-z
1/2-x,1/2-y,-z
1/2+x,y,-z
1/2-x,y,1/2+z
1/2+x,1/2-y,1/2+z
loop_
_atom_site_type_symbol
_atom_site_label
_atom_site_fract_x
_atom_site_fract_y
_atom_site_fract_z
Si Si1 0.401421 0.122780 0.914758
Si Si2 0.587479 0.690876 0.189501
Si Si3 0.500527 0.687451 0.002917
Si Si4 0.683040 0.698922 0.013910
Si Si5 0.636660 0.809967 0.740827
Si Si6 0.446898 0.394001 0.175239
Si Si7 0.467615 0.987978 0.377608
Si Si8 0.301498 0.324403 0.474315
O O1 0.404262 0.145284 0.785348
O O2 0.441034 0.163562 0.986021
O O3 0.429833 0.063575 0.908715
O O4 0.341761 0.132423 0.964991
O O5 0.592658 0.750000 0.250000
O O6 0.530263 0.688663 0.126180
O O7 0.633965 0.683658 0.095368
O O8 0.500000 0.750000 0.958263
O O9 0.536081 0.646105 0.928257
O O10 0.738094 0.665831 0.030529
O O11 0.665303 0.690405 0.882392
O O12 0.692525 0.764365 0.034952
O O13 0.608652 0.750000 0.750000
O O14 0.597511 0.861419 0.745098
O O15 0.677936 0.815160 0.844702
O O16 0.500000 0.399243 0.250000
O O17 0.433865 0.455988 0.140199
O O18 0.500000 0.978921 0.250000
O O19 0.500000 0.000000 0.500000
#
# Coordination Sequence:
#
# PCOD9507863 Si02
#       8
#    16  16  16  16  16  16  16  16
#     4  12  24  39  62  91 125 163 216 253 316 376
#     4  12  22  35  57  91 130 165 200 256 319 377
#     4  12  22  34  56  93 129 160 198 257 320 388
#     4  10  21  39  58  91 128 161 206 251 321 376
#     4  10  22  37  58  90 123 157 202 252 314 379
#     4  11  24  38  60  88 126 165 202 252 314 380
#     4  11  25  45  64  90 127 175 220 259 312 383
#     4  10  22  37  62  89 123 167 206 258 307 386
#
# _framework density 18.229531999999999
#
# number of rings (size 3 to 8) (size 9 to 14) (size 15 to 20)
#    0.000    1.000    5.000    1.875    7.000    0.500 
#    0.000    0.000    0.000    0.750    0.000    0.000 
#    0.000    0.000    0.000    0.000    0.000    0.000 
#
# Total GULP energy -356986.497572 kJ/mol
# GULP energy per Si atom -5577.914025 kJ/mol
# Density = 1.818804 g / cm^3
# Si number density = 18.229532 Si / 1000 Ang^3
#
#
#
# Elastic Constant Matrix: (Units=GPa)
#
#
# Indices 1 2 3 4 5 6 
#
# 1 72.2226 29.0421 20.4744 0.0000 0.0000 0.0000
# 2 29.0421 122.8216 27.5069 0.0000 0.0000 0.0000
# 3 20.4744 27.5069 79.8634 0.0000 0.0000 0.0000
# 4 0.0000 0.0000 0.0000 12.1567 0.0000 0.0000
# 5 0.0000 0.0000 0.0000 0.0000 10.5923 0.0000
# 6 0.0000 0.0000 0.0000 0.0000 0.0000 30.4675
#
#
#
# Elastic Compliance Matrix: (Units=1/GPa)
#
#
# Indices 1 2 3 4 5 6 
#
# 1 0.015947 -0.003094 -0.003023 0.000000 0.000000 0.000000
# 2 -0.003094 0.009423 -0.002452 0.000000 0.000000 0.000000
# 3 -0.003023 -0.002452 0.014141 0.000000 0.000000 0.000000
# 4 0.000000 0.000000 0.000000 0.082259 0.000000 0.000000
# 5 0.000000 0.000000 0.000000 0.000000 0.094408 0.000000
# 6 0.000000 0.000000 0.000000 0.000000 0.000000 0.032822
#
#
# Mechanical properties :
#
#
# Convention : Reuss Voigt Hill
#
# Bulk Modulus (GPa) = 44.69660 47.66159 46.17909
# Shear Modulus (GPa) = 18.27516 23.83557 21.05537
#
# Velocity S-wave (km/s) = 3.16967 3.61989 3.40224
# Velocity P-wave (km/s) = 6.16180 6.60860 6.38910
#
# Compressibility (1/GPa) = 0.02237307
#
# Stress axis : x y z
#
# Youngs Moduli (GPa) = 62.70737 106.12725 70.71681
#
# Poissons Ratio (x) = 0.32834 0.21376
# Poissons Ratio (y) = 0.19401 0.17341
# Poissons Ratio (z) = 0.18955 0.26025
#
# Static dielectric constant tensor:
#      x y z
#    x 1.619250 0.000000 0.000000 
#    y 0.000000 1.652060 0.000000 
#    z 0.000000 0.000000 1.751350 
# 
# From -- ./inp_files/16692.got.cif
#   From: 2010.05.17/outbox.cif.g08.bks.cpg/sg68_9_cif.got.tgz:16692.got - 2010.06.03 18:57:09.
