data_PCOD9507023
_publ_section_title
;
Structure prediction by ZEFSAII (Michael W. Deem and Ramdas Pophale) SiO2 
 PCOD9507023
Probable space group: C C C A
;
_chemical_formula_sum "Si O2"
_cell_formula_units_Z 120
_cell_length_a 27.167913
_cell_length_b 27.362812
_cell_length_c 8.843583
_cell_angle_alpha 90.000000
_cell_angle_beta 90.000000
_cell_angle_gamma 90.000000
_cell_volume 6574.235551
_symmetry_space_group_name_H-M "C C C A"
_symmetry_group_IT_number 68
_space_group.IT_coordinate_system_code '2'
_symmetry_cell_setting 'orthorhombic'
loop_
_space_group_symop_operation_xyz
x,y,z
-x,1/2-y,z
x,1/2-y,1/2-z
-x,y,1/2-z
-x,-y,-z
x,1/2+y,-z
-x,1/2+y,1/2+z
x,-y,1/2+z
1/2+x,1/2+y,z
1/2-x,-y,z
1/2+x,-y,1/2-z
1/2-x,1/2+y,1/2-z
1/2-x,1/2-y,-z
1/2+x,y,-z
1/2-x,y,1/2+z
1/2+x,1/2-y,1/2+z
loop_
_atom_site_type_symbol
_atom_site_label
_atom_site_fract_x
_atom_site_fract_y
_atom_site_fract_z
Si Si1 0.654926 0.438775 0.341235
Si Si2 0.773274 0.750000 0.250000
Si Si3 0.797120 0.811895 0.528182
Si Si4 0.951526 0.457990 0.840932
Si Si5 0.813758 0.470340 0.523051
Si Si6 0.551190 0.935855 0.306338
Si Si7 0.648917 0.110238 0.695945
Si Si8 0.226276 0.400428 0.463664
O O1 0.598595 0.429124 0.304891
O O2 0.662324 0.478384 0.474720
O O3 0.679085 0.464986 0.200198
O O4 0.687594 0.394272 0.399210
O O5 0.804224 0.777770 0.380963
O O6 0.736704 0.715402 0.347731
O O7 0.842588 0.837368 0.616067
O O8 0.765223 0.857324 0.466155
O O9 0.942097 0.514032 0.789711
O O10 0.000000 0.442101 0.750000
O O11 0.956569 0.452449 0.020606
O O12 0.845857 0.430473 0.433519
O O13 0.757931 0.449751 0.503135
O O14 0.500000 0.912974 0.250000
O O15 0.598149 0.901158 0.282164
O O16 0.694739 0.101248 0.810572
#
# Coordination Sequence:
#
# PCOD9507023 Si02
#       8
#    16   8  16  16  16  16  16  16
#     4  12  22  35  51  73 107 154 200 236 282 322
#     4  10  20  38  60  84 113 149 174 212 276 356
#     4  10  21  37  59  84 117 145 179 220 278 350
#     4  11  22  36  53  72 102 148 210 250 278 316
#     4  11  23  33  50  71 108 154 192 230 270 334
#     4  11  22  37  55  74 105 149 198 249 289 321
#     4  11  21  37  55  80 111 145 187 237 286 333
#     4  11  22  37  50  79 114 148 184 231 278 332
#
# _framework density 18.253073000000001
#
# number of rings (size 3 to 8) (size 9 to 14) (size 15 to 20)
#    0.000    1.067    4.000    5.200    3.733    1.067 
#    0.000    0.000    0.000    0.000    0.000    0.467 
#    0.000    1.067    0.000    0.000    0.000    0.000 
#
# Total GULP energy -334652.612143 kJ/mol
# GULP energy per Si atom -5577.543536 kJ/mol
# Density = 1.821153 g / cm^3
# Si number density = 18.253073 Si / 1000 Ang^3
#
#
#
# Elastic Constant Matrix: (Units=GPa)
#
#
# Indices 1 2 3 4 5 6 
#
# 1 114.0151 15.4550 31.1824 0.0000 0.0000 0.0000
# 2 15.4550 48.7895 24.0137 0.0000 0.0000 0.0000
# 3 31.1824 24.0137 108.5907 0.0000 0.0000 0.0000
# 4 0.0000 0.0000 0.0000 27.4267 0.0000 0.0000
# 5 0.0000 0.0000 0.0000 0.0000 25.7301 0.0000
# 6 0.0000 0.0000 0.0000 0.0000 0.0000 16.4574
#
#
#
# Elastic Compliance Matrix: (Units=1/GPa)
#
#
# Indices 1 2 3 4 5 6 
#
# 1 0.009673 -0.001904 -0.002357 0.000000 0.000000 0.000000
# 2 -0.001904 0.023374 -0.004622 0.000000 0.000000 0.000000
# 3 -0.002357 -0.004622 0.010908 0.000000 0.000000 0.000000
# 4 0.000000 0.000000 0.000000 0.036461 0.000000 0.000000
# 5 0.000000 0.000000 0.000000 0.000000 0.038865 0.000000
# 6 0.000000 0.000000 0.000000 0.000000 0.000000 0.060763
#
#
# Mechanical properties :
#
#
# Convention : Reuss Voigt Hill
#
# Bulk Modulus (GPa) = 38.18350 45.85528 42.01939
# Shear Modulus (GPa) = 24.20832 27.30578 25.75705
#
# Velocity S-wave (km/s) = 3.64574 3.87195 3.76055
# Velocity P-wave (km/s) = 6.21982 6.72055 6.47503
#
# Compressibility (1/GPa) = 0.02618932
#
# Stress axis : x y z
#
# Youngs Moduli (GPa) = 103.37596 42.78178 91.67782
#
# Poissons Ratio (x) = 0.08147 0.21605
# Poissons Ratio (y) = 0.19686 0.42375
# Poissons Ratio (z) = 0.24362 0.19775
#
# Static dielectric constant tensor:
#      x y z
#    x 1.696020 0.000000 0.000000 
#    y 0.000000 1.668390 0.000000 
#    z 0.000000 0.000000 1.671860 
# 
# From -- ./inp_files/9214.got.cif
#   From: 2010.05.17/outbox.cif.g08.bks.cpg/sg68_5_cif.got.tgz:9214.got - 2010.06.03 18:57:09.
