data_PCOD9507349
_publ_section_title
;
Structure prediction by ZEFSAII (Michael W. Deem and Ramdas Pophale) SiO2 
 PCOD9507349
Probable space group: C C C A
;
_chemical_formula_sum "Si O2"
_cell_formula_units_Z 88
_cell_length_a 10.512400
_cell_length_b 25.947522
_cell_length_c 15.517423
_cell_angle_alpha 90.000000
_cell_angle_beta 90.000000
_cell_angle_gamma 90.000000
_cell_volume 4232.698804
_symmetry_space_group_name_H-M "C C C A"
_symmetry_group_IT_number 68
_space_group.IT_coordinate_system_code '2'
_symmetry_cell_setting 'orthorhombic'
loop_
_space_group_symop_operation_xyz
x,y,z
-x,1/2-y,z
x,1/2-y,1/2-z
-x,y,1/2-z
-x,-y,-z
x,1/2+y,-z
-x,1/2+y,1/2+z
x,-y,1/2+z
1/2+x,1/2+y,z
1/2-x,-y,z
1/2+x,-y,1/2-z
1/2-x,1/2+y,1/2-z
1/2-x,1/2-y,-z
1/2+x,y,-z
1/2-x,y,1/2+z
1/2+x,1/2-y,1/2+z
loop_
_atom_site_type_symbol
_atom_site_label
_atom_site_fract_x
_atom_site_fract_y
_atom_site_fract_z
Si Si1 0.064500 0.088631 0.341117
Si Si2 0.450648 0.057071 0.488439
Si Si3 0.750000 0.500000 0.391425
Si Si4 0.365887 0.780154 0.586469
Si Si5 0.257980 0.321396 0.594449
Si Si6 0.493377 0.127357 0.153276
O O1 0.147632 0.035083 0.340857
O O2 0.144209 0.140333 0.360502
O O3 0.000000 0.093193 0.250000
O O4 0.965250 0.084434 0.420504
O O5 0.313135 0.044931 0.449373
O O6 0.538017 0.084415 0.416779
O O7 0.500000 0.000000 0.500000
O O8 0.500000 0.750000 0.563653
O O9 0.305625 0.809201 0.503424
O O10 0.271215 0.737165 0.623726
O O11 0.399369 0.824329 0.654110
O O12 0.123685 0.350060 0.611710
O O13 0.500000 0.106670 0.250000
#
# Coordination Sequence:
#
# PCOD9507349 Si02
#       6
#    16  16   8  16  16  16
#     4  11  23  42  65  99 136 170 219 277 333 400
#     4  10  22  41  66  92 131 167 221 271 323 393
#     4  10  22  44  64  92 132 180 222 268 326 404
#     4   9  20  39  70  92 125 172 215 266 330 394
#     4  10  20  41  62  94 130 167 212 269 326 384
#     4  11  22  41  68  94 128 169 223 266 320 395
#
# _framework density 20.790517000000001
#
# number of rings (size 3 to 8) (size 9 to 14) (size 15 to 20)
#    0.000    1.818    3.636    0.000    0.000    6.909 
#    9.818    1.818    0.000    0.000    0.000    0.000 
#    0.000    0.000    0.000    0.000    0.000    0.000 
#
# Total GULP energy -244986.305178 kJ/mol
# GULP energy per Si atom -5567.870572 kJ/mol
# Density = 2.074320 g / cm^3
# Si number density = 20.790517 Si / 1000 Ang^3
#
#
#
# Elastic Constant Matrix: (Units=GPa)
#
#
# Indices 1 2 3 4 5 6 
#
# 1 39.4060 39.4707 17.3668 0.0000 0.0000 0.0000
# 2 39.4707 133.4928 66.2431 0.0000 0.0000 0.0000
# 3 17.3668 66.2431 110.1354 0.0000 0.0000 0.0000
# 4 0.0000 0.0000 0.0000 -5.7481 0.0000 0.0000
# 5 0.0000 0.0000 0.0000 0.0000 19.3427 0.0000
# 6 0.0000 0.0000 0.0000 0.0000 0.0000 27.3489
#
#
#
# Elastic Compliance Matrix: (Units=1/GPa)
#
#
# Indices 1 2 3 4 5 6 
#
# 1 0.036138 -0.011200 0.001038 0.000000 0.000000 0.000000
# 2 -0.011200 0.014149 -0.006744 0.000000 0.000000 0.000000
# 3 0.001038 -0.006744 0.012973 0.000000 0.000000 0.000000
# 4 0.000000 0.000000 0.000000 -0.173970 0.000000 0.000000
# 5 0.000000 0.000000 0.000000 0.000000 0.051699 0.000000
# 6 0.000000 0.000000 0.000000 0.000000 0.000000 0.036565
#
#
# Mechanical properties :
#
#
# Convention : Reuss Voigt Hill
#
# Bulk Modulus (GPa) = 33.95921 58.79949 46.37935
# Shear Modulus (GPa) = 236.04118 18.85226 127.44672
#
# Velocity S-wave (km/s) = 10.66675 3.01453 7.83795
# Velocity P-wave (km/s) = 12.96440 6.36080 10.21115
#
# Compressibility (1/GPa) = 0.02944709
#
# Stress axis : x y z
#
# Youngs Moduli (GPa) = 27.67168 70.67400 77.08593
#
# Poissons Ratio (x) = 0.79158 -0.08003
# Poissons Ratio (y) = 0.30993 0.51989
# Poissons Ratio (z) = -0.02873 0.47665
#
# Static dielectric constant tensor:
#      x y z
#    x 1.847540 0.000000 0.000000 
#    y 0.000000 1.786930 0.000000 
#    z 0.000000 0.000000 1.774740 
# 
# From -- ./inp_files/21126.got.cif
#   From: 2010.05.17/outbox.cif.g08.bks.cpg/sg68_11_cif.got.tgz:21126.got - 2010.06.03 18:57:09.
