data_PCOD9507492
_publ_section_title
;
Structure prediction by ZEFSAII (Michael W. Deem and Ramdas Pophale) SiO2 
 PCOD9507492
Probable space group: C C C A
;
_chemical_formula_sum "Si O2"
_cell_formula_units_Z 88
_cell_length_a 23.175461
_cell_length_b 14.575437
_cell_length_c 13.895847
_cell_angle_alpha 90.000000
_cell_angle_beta 90.000000
_cell_angle_gamma 90.000000
_cell_volume 4693.912505
_symmetry_space_group_name_H-M "C C C A"
_symmetry_group_IT_number 68
_space_group.IT_coordinate_system_code '2'
_symmetry_cell_setting 'orthorhombic'
loop_
_space_group_symop_operation_xyz
x,y,z
-x,1/2-y,z
x,1/2-y,1/2-z
-x,y,1/2-z
-x,-y,-z
x,1/2+y,-z
-x,1/2+y,1/2+z
x,-y,1/2+z
1/2+x,1/2+y,z
1/2-x,-y,z
1/2+x,-y,1/2-z
1/2-x,1/2+y,1/2-z
1/2-x,1/2-y,-z
1/2+x,y,-z
1/2-x,y,1/2+z
1/2+x,1/2-y,1/2+z
loop_
_atom_site_type_symbol
_atom_site_label
_atom_site_fract_x
_atom_site_fract_y
_atom_site_fract_z
Si Si1 0.316301 0.250144 0.462300
Si Si2 0.138608 0.919285 0.567405
Si Si3 0.248165 0.660439 0.196930
Si Si4 0.145601 0.083988 0.429977
Si Si5 0.931810 0.360062 0.252178
Si Si6 0.750000 0.000000 0.334269
O O1 0.250000 0.250000 0.500000
O O2 0.353221 0.182257 0.527191
O O3 0.305356 0.204659 0.359560
O O4 0.344914 0.348219 0.478698
O O5 0.097478 0.910284 0.660151
O O6 0.128938 0.987269 0.477538
O O7 0.200418 0.954166 0.604291
O O8 0.276194 0.750000 0.250000
O O9 0.294535 0.605761 0.129715
O O10 0.226939 0.583558 0.270121
O O11 0.097663 0.107812 0.351183
O O12 0.922675 0.250000 0.250000
O O13 0.000000 0.377252 0.250000
#
# Coordination Sequence:
#
# PCOD9507492 Si02
#       6
#    16  16  16  16  16   8
#     4  10  21  34  53  86 127 160 194 242 302 374
#     4  12  23  38  61  92 127 161 205 257 310 380
#     4  11  20  33  55  86 127 170 200 236 299 377
#     4  11  21  39  59  88 122 158 204 257 310 363
#     4  11  24  45  69  88 115 166 222 267 306 359
#     4  12  20  32  56  88 124 166 200 238 308 384
#
# _framework density 18.747686000000002
#
# number of rings (size 3 to 8) (size 9 to 14) (size 15 to 20)
#    0.000    0.909    3.636    7.091    0.000    0.727 
#    0.000    0.000    0.000    0.000    0.000    1.273 
#    0.000    0.000    0.000    0.000    0.000    0.000 
#
# Total GULP energy -245328.918412 kJ/mol
# GULP energy per Si atom -5575.657237 kJ/mol
# Density = 1.870502 g / cm^3
# Si number density = 18.747686 Si / 1000 Ang^3
#
#
#
# Elastic Constant Matrix: (Units=GPa)
#
#
# Indices 1 2 3 4 5 6 
#
# 1 63.2374 -2.6258 25.6637 0.0000 0.0000 0.0000
# 2 -2.6258 64.4731 10.1844 0.0000 0.0000 0.0000
# 3 25.6637 10.1844 81.6313 0.0000 0.0000 0.0000
# 4 0.0000 0.0000 0.0000 19.8501 0.0000 0.0000
# 5 0.0000 0.0000 0.0000 0.0000 2.4311 0.0000
# 6 0.0000 0.0000 0.0000 0.0000 0.0000 12.3142
#
#
#
# Elastic Compliance Matrix: (Units=1/GPa)
#
#
# Indices 1 2 3 4 5 6 
#
# 1 0.018304 0.001688 -0.005965 0.000000 0.000000 0.000000
# 2 0.001688 0.015978 -0.002524 0.000000 0.000000 0.000000
# 3 -0.005965 -0.002524 0.014440 0.000000 0.000000 0.000000
# 4 0.000000 0.000000 0.000000 0.050378 0.000000 0.000000
# 5 0.000000 0.000000 0.000000 0.000000 0.411331 0.000000
# 6 0.000000 0.000000 0.000000 0.000000 0.000000 0.081207
#
#
# Mechanical properties :
#
#
# Convention : Reuss Voigt Hill
#
# Bulk Modulus (GPa) = 28.47400 30.64292 29.55846
# Shear Modulus (GPa) = 8.10441 18.66038 13.38239
#
# Velocity S-wave (km/s) = 2.08141 3.15833 2.67463
# Velocity P-wave (km/s) = 4.58229 5.44798 5.03378
#
# Compressibility (1/GPa) = 0.03511976
#
# Stress axis : x y z
#
# Youngs Moduli (GPa) = 54.63174 62.58689 69.24978
#
# Poissons Ratio (x) = -0.10563 0.41309
# Poissons Ratio (y) = -0.09221 0.17479
# Poissons Ratio (z) = 0.32589 0.15797
#
# Static dielectric constant tensor:
#      x y z
#    x 1.617770 0.000000 0.000000 
#    y 0.000000 1.687680 0.000000 
#    z 0.000000 0.000000 1.780280 
# 
# From -- ./inp_files/24361.got.cif
#   From: 2010.05.17/outbox.cif.g08.bks.cpg/sg68_13_cif.got.tgz:24361.got - 2010.06.03 18:57:09.
