data_PCOD9507440
_publ_section_title
;
Structure prediction by ZEFSAII (Michael W. Deem and Ramdas Pophale) SiO2 
 PCOD9507440
Probable space group: C C C A
;
_chemical_formula_sum "Si O2"
_cell_formula_units_Z 44
_cell_length_a 13.046451
_cell_length_b 8.816834
_cell_length_c 13.209947
_cell_angle_alpha 90.000000
_cell_angle_beta 90.000000
_cell_angle_gamma 90.000000
_cell_volume 1519.518972
_symmetry_space_group_name_H-M "C C C A"
_symmetry_group_IT_number 68
_space_group.IT_coordinate_system_code '2'
_symmetry_cell_setting 'orthorhombic'
loop_
_space_group_symop_operation_xyz
x,y,z
-x,1/2-y,z
x,1/2-y,1/2-z
-x,y,1/2-z
-x,-y,-z
x,1/2+y,-z
-x,1/2+y,1/2+z
x,-y,1/2+z
1/2+x,1/2+y,z
1/2-x,-y,z
1/2+x,-y,1/2-z
1/2-x,1/2+y,1/2-z
1/2-x,1/2-y,-z
1/2+x,y,-z
1/2-x,y,1/2+z
1/2+x,1/2-y,1/2+z
loop_
_atom_site_type_symbol
_atom_site_label
_atom_site_fract_x
_atom_site_fract_y
_atom_site_fract_z
Si Si1 0.597067 0.533666 0.572467
Si Si2 0.361464 0.750000 0.750000
Si Si3 0.000000 0.250000 0.250000
Si Si4 0.824442 0.801415 0.615028
O O1 0.500000 0.500000 0.500000
O O2 0.582282 0.638281 0.671489
O O3 0.649543 0.377874 0.606298
O O4 0.667480 0.627752 0.494643
O O5 0.279843 0.666545 0.674699
O O6 0.923948 0.349105 0.318752
#
# Coordination Sequence:
#
# PCOD9507440 Si02
#       4
#    16   8   4  16
#     4  12  25  51  80 127 173 226 293 374 446 534
#     4  11  28  47  81 118 171 232 280 357 443 527
#     4  10  20  44  72 112 158 220 274 352 420 530
#     4  11  25  49  78 120 171 223 296 360 442 531
#
# _framework density 28.956531999999999
#
# number of rings (size 3 to 8) (size 9 to 14) (size 15 to 20)
#    0.000    0.727    3.636    2.182    0.000    8.727 
#    6.545    0.000    0.000    0.000    0.000    0.000 
#    0.000    0.000    0.000    0.000    0.000    0.000 
#
# Total GULP energy -123489.802073 kJ/mol
# GULP energy per Si atom -5613.172821 kJ/mol
# Density = 2.889063 g / cm^3
# Si number density = 28.956532 Si / 1000 Ang^3
#
#
#
# Elastic Constant Matrix: (Units=GPa)
#
#
# Indices 1 2 3 4 5 6 
#
# 1 156.4061 54.9701 80.9612 0.0000 0.0000 0.0000
# 2 54.9701 180.5385 104.9323 0.0000 0.0000 0.0000
# 3 80.9612 104.9323 286.1360 0.0000 0.0000 0.0000
# 4 0.0000 0.0000 0.0000 76.3543 0.0000 0.0000
# 5 0.0000 0.0000 0.0000 0.0000 75.8844 0.0000
# 6 0.0000 0.0000 0.0000 0.0000 0.0000 36.8123
#
#
#
# Elastic Compliance Matrix: (Units=1/GPa)
#
#
# Indices 1 2 3 4 5 6 
#
# 1 0.007752 -0.001380 -0.001687 0.000000 0.000000 0.000000
# 2 -0.001380 0.007285 -0.002281 0.000000 0.000000 0.000000
# 3 -0.001687 -0.002281 0.004809 0.000000 0.000000 0.000000
# 4 0.000000 0.000000 0.000000 0.013097 0.000000 0.000000
# 5 0.000000 0.000000 0.000000 0.000000 0.013178 0.000000
# 6 0.000000 0.000000 0.000000 0.000000 0.000000 0.027165
#
#
# Mechanical properties :
#
#
# Convention : Reuss Voigt Hill
#
# Bulk Modulus (GPa) = 109.29768 122.75643 116.02705
# Shear Modulus (GPa) = 57.45048 63.29135 60.37091
#
# Velocity S-wave (km/s) = 4.45907 4.68026 4.57100
# Velocity P-wave (km/s) = 8.02113 8.46710 8.24713
#
# Compressibility (1/GPa) = 0.00914933
#
# Stress axis : x y z
#
# Youngs Moduli (GPa) = 128.99968 137.27046 207.94870
#
# Poissons Ratio (x) = 0.18936 0.35091
# Poissons Ratio (y) = 0.17796 0.47437
# Poissons Ratio (z) = 0.21769 0.31314
#
# Static dielectric constant tensor:
#      x y z
#    x 2.423370 0.000000 0.000000 
#    y 0.000000 2.214170 0.000000 
#    z 0.000000 0.000000 2.206990 
# 
# From -- ./inp_files/21463.got.cif
#   From: 2010.05.17/outbox.cif.g08.bks.cpg/sg68_11_cif.got.tgz:21463.got - 2010.06.03 18:57:09.
