data_PCOD9507170
_publ_section_title
;
Structure prediction by ZEFSAII (Michael W. Deem and Ramdas Pophale) SiO2 
 PCOD9507170
Probable space group: C C C A
;
_chemical_formula_sum "Si O2"
_cell_formula_units_Z 64
_cell_length_a 19.437445
_cell_length_b 9.609076
_cell_length_c 14.791820
_cell_angle_alpha 90.000000
_cell_angle_beta 90.000000
_cell_angle_gamma 90.000000
_cell_volume 2762.755290
_symmetry_space_group_name_H-M "C C C A"
_symmetry_group_IT_number 68
_space_group.IT_coordinate_system_code '2'
_symmetry_cell_setting 'orthorhombic'
loop_
_space_group_symop_operation_xyz
x,y,z
-x,1/2-y,z
x,1/2-y,1/2-z
-x,y,1/2-z
-x,-y,-z
x,1/2+y,-z
-x,1/2+y,1/2+z
x,-y,1/2+z
1/2+x,1/2+y,z
1/2-x,-y,z
1/2+x,-y,1/2-z
1/2-x,1/2+y,1/2-z
1/2-x,1/2-y,-z
1/2+x,y,-z
1/2-x,y,1/2+z
1/2+x,1/2-y,1/2+z
loop_
_atom_site_type_symbol
_atom_site_label
_atom_site_fract_x
_atom_site_fract_y
_atom_site_fract_z
Si Si1 0.424473 0.394588 0.286013
Si Si2 0.811718 0.399001 0.203955
Si Si3 0.672263 0.533975 0.987409
Si Si4 0.923501 0.709376 0.016694
O O1 0.392294 0.250000 0.250000
O O2 0.500000 0.405627 0.250000
O O3 0.380628 0.527568 0.262125
O O4 0.435138 0.377917 0.392520
O O5 0.803014 0.250000 0.250000
O O6 0.750000 0.500000 0.230660
O O7 0.816883 0.417186 0.093820
O O8 0.750000 0.500000 0.955302
O O9 0.627638 0.395776 0.965779
O O10 0.623340 0.659072 0.955048
O O11 0.000000 0.750000 0.980684
#
# Coordination Sequence:
#
# PCOD9507170 Si02
#       4
#    16  16  16  16
#     4  10  20  39  63  87 123 164 211 258 315 373
#     4  10  22  41  63  92 125 164 211 263 317 381
#     4  10  23  41  62  96 130 163 214 264 318 384
#     4  11  21  40  65  90 128 172 209 261 320 381
#
# _framework density 23.165279000000002
#
# number of rings (size 3 to 8) (size 9 to 14) (size 15 to 20)
#    0.000    1.750    2.500    2.250    0.000    2.500 
#    9.000    2.500    0.000    0.000    0.000    0.000 
#    0.000    0.000    0.000    0.000    0.000    0.000 
#
# Total GULP energy -178482.103931 kJ/mol
# GULP energy per Si atom -5577.565748 kJ/mol
# Density = 2.311255 g / cm^3
# Si number density = 23.165279 Si / 1000 Ang^3
#
#
#
# Elastic Constant Matrix: (Units=GPa)
#
#
# Indices 1 2 3 4 5 6 
#
# 1 193.2731 92.8483 18.3325 0.0000 0.0000 0.0000
# 2 92.8483 161.1238 -3.9911 0.0000 0.0000 0.0000
# 3 18.3325 -3.9911 38.6184 0.0000 0.0000 0.0000
# 4 0.0000 0.0000 0.0000 -12.8519 0.0000 0.0000
# 5 0.0000 0.0000 0.0000 0.0000 -5.1395 0.0000
# 6 0.0000 0.0000 0.0000 0.0000 0.0000 45.1817
#
#
#
# Elastic Compliance Matrix: (Units=1/GPa)
#
#
# Indices 1 2 3 4 5 6 
#
# 1 0.007769 -0.004580 -0.004161 0.000000 0.000000 0.000000
# 2 -0.004580 0.008922 0.003096 0.000000 0.000000 0.000000
# 3 -0.004161 0.003096 0.028190 0.000000 0.000000 0.000000
# 4 0.000000 0.000000 0.000000 -0.077810 0.000000 0.000000
# 5 0.000000 0.000000 0.000000 0.000000 -0.194573 0.000000
# 6 0.000000 0.000000 0.000000 0.000000 0.000000 0.022133
#
#
# Mechanical properties :
#
#
# Convention : Reuss Voigt Hill
#
# Bulk Modulus (GPa) = 29.76984 67.48828 48.62906
# Shear Modulus (GPa) = -27.34015 24.49312 -1.42352
#
# Velocity S-wave (km/s) = -3.43916 3.25517 -0.78475
# Velocity P-wave (km/s) = 1.70044 6.58216 4.49630
#
# Compressibility (1/GPa) = 0.03359104
#
# Stress axis : x y z
#
# Youngs Moduli (GPa) = 128.71747 112.07833 35.47379
#
# Poissons Ratio (x) = 0.51332 0.14762
# Poissons Ratio (y) = 0.58952 -0.10984
# Poissons Ratio (z) = 0.53564 -0.34702
#
# Static dielectric constant tensor:
#      x y z
#    x 2.047310 0.000000 0.000000 
#    y 0.000000 1.922140 0.000000 
#    z 0.000000 0.000000 1.965440 
# 
# From -- ./inp_files/27866.got.cif
#   From: 2010.05.17/outbox.cif.g08.bks.cpg/sg68_14_cif.got.tgz:27866.got - 2010.06.03 18:57:09.
