data_PCOD9507831
_publ_section_title
;
Structure prediction by ZEFSAII (Michael W. Deem and Ramdas Pophale) SiO2 
 PCOD9507831
Probable space group: C C C A
;
_chemical_formula_sum "Si O2"
_cell_formula_units_Z 72
_cell_length_a 16.234148
_cell_length_b 9.862436
_cell_length_c 19.363480
_cell_angle_alpha 90.000000
_cell_angle_beta 90.000000
_cell_angle_gamma 90.000000
_cell_volume 3100.252813
_symmetry_space_group_name_H-M "C C C A"
_symmetry_group_IT_number 68
_space_group.IT_coordinate_system_code '2'
_symmetry_cell_setting 'orthorhombic'
loop_
_space_group_symop_operation_xyz
x,y,z
-x,1/2-y,z
x,1/2-y,1/2-z
-x,y,1/2-z
-x,-y,-z
x,1/2+y,-z
-x,1/2+y,1/2+z
x,-y,1/2+z
1/2+x,1/2+y,z
1/2-x,-y,z
1/2+x,-y,1/2-z
1/2-x,1/2+y,1/2-z
1/2-x,1/2-y,-z
1/2+x,y,-z
1/2-x,y,1/2+z
1/2+x,1/2-y,1/2+z
loop_
_atom_site_type_symbol
_atom_site_label
_atom_site_fract_x
_atom_site_fract_y
_atom_site_fract_z
Si Si1 0.925968 0.356140 0.444099
Si Si2 0.411700 0.968404 0.229153
Si Si3 0.034594 0.396322 0.903692
Si Si4 0.847631 0.750000 0.250000
Si Si5 0.287472 0.353819 0.663177
O O1 0.915147 0.364727 0.526445
O O2 0.849600 0.312978 0.397025
O O3 0.000000 0.250000 0.432357
O O4 0.957601 0.505598 0.422044
O O5 0.500000 0.910059 0.250000
O O6 0.413896 0.010388 0.149268
O O7 0.401519 0.118324 0.260248
O O8 0.340354 0.886916 0.267131
O O9 0.000000 0.250000 0.879018
O O10 0.785917 0.747059 0.315836
O O11 0.250000 0.500000 0.643406
#
# Coordination Sequence:
#
# PCOD9507831 Si02
#       5
#    16  16  16   8  16
#     4  10  22  41  64  92 125 160 207 262 305 364
#     4  11  20  37  64  89 110 168 214 247 293 375
#     4  10  21  38  66  93 118 156 221 255 294 360
#     4  10  23  36  55  86 134 148 206 258 317 360
#     4  10  23  39  57  91 128 164 194 261 323 365
#
# _framework density 23.223913
#
# number of rings (size 3 to 8) (size 9 to 14) (size 15 to 20)
#    0.000    1.778    2.222    1.667    6.222    0.000 
#    0.000    4.444    0.000    0.000    0.000    0.000 
#    0.000    0.000    0.000    0.000    0.000    0.000 
#
# Total GULP energy -200968.511945 kJ/mol
# GULP energy per Si atom -5582.458665 kJ/mol
# Density = 2.317105 g / cm^3
# Si number density = 23.223913 Si / 1000 Ang^3
#
#
#
# Elastic Constant Matrix: (Units=GPa)
#
#
# Indices 1 2 3 4 5 6 
#
# 1 67.8865 5.6679 34.4542 0.0000 0.0000 0.0000
# 2 5.6679 101.5078 11.0957 0.0000 0.0000 0.0000
# 3 34.4542 11.0957 131.0282 0.0000 0.0000 0.0000
# 4 0.0000 0.0000 0.0000 135.6121 0.0000 0.0000
# 5 0.0000 0.0000 0.0000 0.0000 14.4382 0.0000
# 6 0.0000 0.0000 0.0000 0.0000 0.0000 6.0180
#
#
#
# Elastic Compliance Matrix: (Units=1/GPa)
#
#
# Indices 1 2 3 4 5 6 
#
# 1 0.017021 -0.000465 -0.004436 0.000000 0.000000 0.000000
# 2 -0.000465 0.009956 -0.000721 0.000000 0.000000 0.000000
# 3 -0.004436 -0.000721 0.008860 0.000000 0.000000 0.000000
# 4 0.000000 0.000000 0.000000 0.007374 0.000000 0.000000
# 5 0.000000 0.000000 0.000000 0.000000 0.069261 0.000000
# 6 0.000000 0.000000 0.000000 0.000000 0.000000 0.166168
#
#
# Mechanical properties :
#
#
# Convention : Reuss Voigt Hill
#
# Bulk Modulus (GPa) = 40.66411 44.76199 42.71305
# Shear Modulus (GPa) = 16.77394 47.82730 32.30062
#
# Velocity S-wave (km/s) = 2.69042 4.54298 3.73344
# Velocity P-wave (km/s) = 5.21524 6.84355 6.08412
#
# Compressibility (1/GPa) = 0.02459171
#
# Stress axis : x y z
#
# Youngs Moduli (GPa) = 58.75142 100.43958 112.87312
#
# Poissons Ratio (x) = 0.04675 0.50074
# Poissons Ratio (y) = 0.02735 0.08135
# Poissons Ratio (z) = 0.26064 0.07239
#
# Static dielectric constant tensor:
#      x y z
#    x 1.845850 0.000000 0.000000 
#    y 0.000000 1.886180 0.000000 
#    z 0.000000 0.000000 1.958610 
# 
# From -- ./inp_files/37333.got.cif
#   From: 2010.05.17/outbox.cif.g08.bks.cpg/sg68_19_cif.got.tgz:37333.got - 2010.06.03 18:57:09.
