data_PCOD9507596
_publ_section_title
;
Structure prediction by ZEFSAII (Michael W. Deem and Ramdas Pophale) SiO2 
 PCOD9507596
Probable space group: C C C A
;
_chemical_formula_sum "Si O2"
_cell_formula_units_Z 96
_cell_length_a 24.226781
_cell_length_b 20.023459
_cell_length_c 9.908611
_cell_angle_alpha 90.000000
_cell_angle_beta 90.000000
_cell_angle_gamma 90.000000
_cell_volume 4806.706395
_symmetry_space_group_name_H-M "C C C A"
_symmetry_group_IT_number 68
_space_group.IT_coordinate_system_code '2'
_symmetry_cell_setting 'orthorhombic'
loop_
_space_group_symop_operation_xyz
x,y,z
-x,1/2-y,z
x,1/2-y,1/2-z
-x,y,1/2-z
-x,-y,-z
x,1/2+y,-z
-x,1/2+y,1/2+z
x,-y,1/2+z
1/2+x,1/2+y,z
1/2-x,-y,z
1/2+x,-y,1/2-z
1/2-x,1/2+y,1/2-z
1/2-x,1/2-y,-z
1/2+x,y,-z
1/2-x,y,1/2+z
1/2+x,1/2-y,1/2+z
loop_
_atom_site_type_symbol
_atom_site_label
_atom_site_fract_x
_atom_site_fract_y
_atom_site_fract_z
Si Si1 0.844506 0.427526 0.762747
Si Si2 0.125463 0.197344 0.449593
Si Si3 0.281160 0.312858 0.333907
Si Si4 0.561941 0.673174 0.707233
Si Si5 0.155337 0.834712 0.647235
Si Si6 0.184632 0.981256 0.533490
O O1 0.791491 0.378818 0.754402
O O2 0.895862 0.378043 0.777754
O O3 0.847683 0.465472 0.622014
O O4 0.833395 0.480435 0.878747
O O5 0.181420 0.181818 0.533729
O O6 0.076865 0.171641 0.547420
O O7 0.120723 0.277934 0.431399
O O8 0.132656 0.166338 0.300664
O O9 0.301814 0.250000 0.250000
O O10 0.217110 0.304524 0.358622
O O11 0.571591 0.750000 0.750000
O O12 0.500000 0.656392 0.750000
O O13 0.165847 0.907941 0.586516
O O14 0.250000 0.000000 0.545822
#
# Coordination Sequence:
#
# PCOD9507596 Si02
#       6
#    16  16  16  16  16  16
#     4  11  25  39  60  89 127 171 217 257 306 370
#     4  10  21  36  61  92 126 158 206 270 315 368
#     4  11  20  33  55  85 126 171 210 246 302 370
#     4  10  22  45  73  91 111 154 214 277 330 374
#     4  11  22  33  56  91 133 169 201 249 312 373
#     4  12  25  38  57  88 138 180 210 238 298 386
#
# _framework density 19.972096000000001
#
# number of rings (size 3 to 8) (size 9 to 14) (size 15 to 20)
#    0.000    1.167    3.333    5.000    7.000    0.000 
#    0.000    0.833    0.000   16.000    0.000    0.000 
#    0.000    0.000    0.000    0.000    0.000    0.000 
#
# Total GULP energy -267952.111951 kJ/mol
# GULP energy per Si atom -5582.335666 kJ/mol
# Density = 1.992664 g / cm^3
# Si number density = 19.972096 Si / 1000 Ang^3
#
#
#
# Elastic Constant Matrix: (Units=GPa)
#
#
# Indices 1 2 3 4 5 6 
#
# 1 84.5720 11.8061 25.0924 0.0000 0.0000 0.0000
# 2 11.8061 76.8003 17.5232 0.0000 0.0000 0.0000
# 3 25.0924 17.5232 103.6328 0.0000 0.0000 0.0000
# 4 0.0000 0.0000 0.0000 40.8262 0.0000 0.0000
# 5 0.0000 0.0000 0.0000 0.0000 15.2555 0.0000
# 6 0.0000 0.0000 0.0000 0.0000 0.0000 13.5790
#
#
#
# Elastic Compliance Matrix: (Units=1/GPa)
#
#
# Indices 1 2 3 4 5 6 
#
# 1 0.012866 -0.001318 -0.002892 0.000000 0.000000 0.000000
# 2 -0.001318 0.013678 -0.001994 0.000000 0.000000 0.000000
# 3 -0.002892 -0.001994 0.010687 0.000000 0.000000 0.000000
# 4 0.000000 0.000000 0.000000 0.024494 0.000000 0.000000
# 5 0.000000 0.000000 0.000000 0.000000 0.065550 0.000000
# 6 0.000000 0.000000 0.000000 0.000000 0.000000 0.073643
#
#
# Mechanical properties :
#
#
# Convention : Reuss Voigt Hill
#
# Bulk Modulus (GPa) = 40.28467 41.53874 40.91170
# Shear Modulus (GPa) = 22.56298 27.97101 25.26700
#
# Velocity S-wave (km/s) = 3.36479 3.74639 3.56070
# Velocity P-wave (km/s) = 5.94222 6.28947 6.11831
#
# Compressibility (1/GPa) = 0.02482334
#
# Stress axis : x y z
#
# Youngs Moduli (GPa) = 77.72170 73.10853 93.57229
#
# Poissons Ratio (x) = 0.09635 0.27066
# Poissons Ratio (y) = 0.10243 0.18656
# Poissons Ratio (z) = 0.22481 0.14576
#
# Static dielectric constant tensor:
#      x y z
#    x 1.696750 0.000000 0.000000 
#    y 0.000000 1.775300 0.000000 
#    z 0.000000 0.000000 1.774880 
# 
# From -- ./inp_files/8951.got.cif
#   From: 2010.05.17/outbox.cif.g08.bks.cpg/sg68_5_cif.got.tgz:8951.got - 2010.06.03 18:57:09.
