data_PCOD9507388
_publ_section_title
;
Structure prediction by ZEFSAII (Michael W. Deem and Ramdas Pophale) SiO2 
 PCOD9507388
Probable space group: C C C A
;
_chemical_formula_sum "Si O2"
_cell_formula_units_Z 80
_cell_length_a 17.709809
_cell_length_b 25.457029
_cell_length_c 9.278570
_cell_angle_alpha 90.000000
_cell_angle_beta 90.000000
_cell_angle_gamma 90.000000
_cell_volume 4183.142346
_symmetry_space_group_name_H-M "C C C A"
_symmetry_group_IT_number 68
_space_group.IT_coordinate_system_code '2'
_symmetry_cell_setting 'orthorhombic'
loop_
_space_group_symop_operation_xyz
x,y,z
-x,1/2-y,z
x,1/2-y,1/2-z
-x,y,1/2-z
-x,-y,-z
x,1/2+y,-z
-x,1/2+y,1/2+z
x,-y,1/2+z
1/2+x,1/2+y,z
1/2-x,-y,z
1/2+x,-y,1/2-z
1/2-x,1/2+y,1/2-z
1/2-x,1/2-y,-z
1/2+x,y,-z
1/2-x,y,1/2+z
1/2+x,1/2-y,1/2+z
loop_
_atom_site_type_symbol
_atom_site_label
_atom_site_fract_x
_atom_site_fract_y
_atom_site_fract_z
Si Si1 0.726909 0.677748 0.008511
Si Si2 0.149577 0.095867 0.579512
Si Si3 0.750000 0.500000 0.994430
Si Si4 0.630263 0.081783 0.101824
Si Si5 0.508804 0.944308 0.080036
Si Si6 0.775726 0.250000 0.250000
O O1 0.683941 0.628843 0.943403
O O2 0.732827 0.718694 0.876608
O O3 0.806970 0.651141 0.056926
O O4 0.688434 0.704577 0.148857
O O5 0.108454 0.090689 0.732851
O O6 0.087777 0.083289 0.458385
O O7 0.211154 0.048390 0.578270
O O8 0.680293 0.528360 0.912057
O O9 0.561343 0.085060 0.992048
O O10 0.500000 0.950821 0.250000
O O11 0.500000 0.000000 0.000000
#
# Coordination Sequence:
#
# PCOD9507388 Si02
#       6
#    16  16   8  16  16   8
#     4  10  22  38  70  94 124 154 210 258 320 360
#     4  11  22  39  60  93 126 166 203 249 305 366
#     4  10  22  32  64  88 130 152 210 242 298 364
#     4  11  22  39  60  93 126 166 203 249 305 366
#     4  12  26  40  60  85 130 175 206 245 296 368
#     4  10  20  42  64  98 120 154 202 274 316 368
#
# _framework density 19.124378
#
# number of rings (size 3 to 8) (size 9 to 14) (size 15 to 20)
#    0.000    1.200    4.000    2.400    2.800    1.600 
#    0.000    0.000    0.000    7.200    0.000    0.000 
#    0.000    0.000    0.000    0.000    0.000    0.000 
#
# Total GULP energy -222772.707158 kJ/mol
# GULP energy per Si atom -5569.317679 kJ/mol
# Density = 1.908085 g / cm^3
# Si number density = 19.124378 Si / 1000 Ang^3
#
#
#
# Elastic Constant Matrix: (Units=GPa)
#
#
# Indices 1 2 3 4 5 6 
#
# 1 52.6966 2.6917 17.6096 0.0000 0.0000 0.0000
# 2 2.6917 73.7335 22.1898 0.0000 0.0000 0.0000
# 3 17.6096 22.1898 156.8782 0.0000 0.0000 0.0000
# 4 0.0000 0.0000 0.0000 22.2784 0.0000 0.0000
# 5 0.0000 0.0000 0.0000 0.0000 22.7341 0.0000
# 6 0.0000 0.0000 0.0000 0.0000 0.0000 2.0037
#
#
#
# Elastic Compliance Matrix: (Units=1/GPa)
#
#
# Indices 1 2 3 4 5 6 
#
# 1 0.019716 -0.000056 -0.002205 0.000000 0.000000 0.000000
# 2 -0.000056 0.014165 -0.001997 0.000000 0.000000 0.000000
# 3 -0.002205 -0.001997 0.006904 0.000000 0.000000 0.000000
# 4 0.000000 0.000000 0.000000 0.044887 0.000000 0.000000
# 5 0.000000 0.000000 0.000000 0.000000 0.043987 0.000000
# 6 0.000000 0.000000 0.000000 0.000000 0.000000 0.499081
#
#
# Mechanical properties :
#
#
# Convention : Reuss Voigt Hill
#
# Bulk Modulus (GPa) = 30.98963 40.92119 35.95541
# Shear Modulus (GPa) = 7.71588 25.45771 16.58679
#
# Velocity S-wave (km/s) = 2.01080 3.65247 2.94821
# Velocity P-wave (km/s) = 4.65087 6.26349 5.51642
#
# Compressibility (1/GPa) = 0.03226886
#
# Stress axis : x y z
#
# Youngs Moduli (GPa) = 50.71938 70.59408 144.83466
#
# Poissons Ratio (x) = 0.00396 0.31939
# Poissons Ratio (y) = 0.00285 0.28929
# Poissons Ratio (z) = 0.11185 0.14100
#
# Static dielectric constant tensor:
#      x y z
#    x 1.763210 0.000000 0.000000 
#    y 0.000000 1.678450 0.000000 
#    z 0.000000 0.000000 1.682010 
# 
# From -- ./inp_files/6301.got.cif
#   From: 2010.05.17/outbox.cif.g08.bks.cpg/sg68_4_cif.got.tgz:6301.got - 2010.06.03 18:57:09.
