data_PCOD9508779
_publ_section_title
;
Structure prediction by ZEFSAII (Michael W. Deem and Ramdas Pophale) SiO2 
 PCOD9508779
Probable space group: C C C A
;
_chemical_formula_sum "Si O2"
_cell_formula_units_Z 40
_cell_length_a 9.843796
_cell_length_b 15.444832
_cell_length_c 10.615117
_cell_angle_alpha 90.000000
_cell_angle_beta 90.000000
_cell_angle_gamma 90.000000
_cell_volume 1613.877545
_symmetry_space_group_name_H-M "C C C A"
_symmetry_group_IT_number 68
_space_group.IT_coordinate_system_code '2'
_symmetry_cell_setting 'orthorhombic'
loop_
_space_group_symop_operation_xyz
x,y,z
-x,1/2-y,z
x,1/2-y,1/2-z
-x,y,1/2-z
-x,-y,-z
x,1/2+y,-z
-x,1/2+y,1/2+z
x,-y,1/2+z
1/2+x,1/2+y,z
1/2-x,-y,z
1/2+x,-y,1/2-z
1/2-x,1/2+y,1/2-z
1/2-x,1/2-y,-z
1/2+x,y,-z
1/2-x,y,1/2+z
1/2+x,1/2-y,1/2+z
loop_
_atom_site_type_symbol
_atom_site_label
_atom_site_fract_x
_atom_site_fract_y
_atom_site_fract_z
Si Si1 0.462311 0.884795 0.613382
Si Si2 0.737933 0.091742 0.598053
Si Si3 0.228899 0.750000 0.250000
O O1 0.500000 0.924540 0.750000
O O2 0.364630 0.929106 0.514191
O O3 0.612197 0.876872 0.554325
O O4 0.372346 0.801580 0.655269
O O5 0.690191 0.173699 0.680564
O O6 0.750000 0.000000 0.668901
#
# Coordination Sequence:
#
# PCOD9508779 Si02
#       3
#    16  16   8
#     4  10  22  42  64  94 137 182 231 289 347 415
#     4  11  22  41  69 101 140 185 234 291 353 419
#     4  10  23  44  69 100 143 184 231 296 357 422
#
# _framework density 24.785026999999999
#
# number of rings (size 3 to 8) (size 9 to 14) (size 15 to 20)
#    0.000    1.600    0.000    7.800    0.000    6.400 
#    0.000   10.000    0.000    0.000    0.000    0.000 
#    0.000    0.000    0.000    0.000    0.000    0.000 
#
# Total GULP energy -111404.795671 kJ/mol
# GULP energy per Si atom -5570.239784 kJ/mol
# Density = 2.472862 g / cm^3
# Si number density = 24.785027 Si / 1000 Ang^3
#
#
#
# Elastic Constant Matrix: (Units=GPa)
#
#
# Indices 1 2 3 4 5 6 
#
# 1 102.5500 1.1985 47.9424 0.0000 0.0000 0.0000
# 2 1.1985 147.8679 44.4038 0.0000 0.0000 0.0000
# 3 47.9424 44.4038 83.6441 0.0000 0.0000 0.0000
# 4 0.0000 0.0000 0.0000 9.8106 0.0000 0.0000
# 5 0.0000 0.0000 0.0000 0.0000 43.6391 0.0000
# 6 0.0000 0.0000 0.0000 0.0000 0.0000 31.1478
#
#
#
# Elastic Compliance Matrix: (Units=1/GPa)
#
#
# Indices 1 2 3 4 5 6 
#
# 1 0.014217 0.002774 -0.009621 0.000000 0.000000 0.000000
# 2 0.002774 0.008587 -0.006148 0.000000 0.000000 0.000000
# 3 -0.009621 -0.006148 0.020734 0.000000 0.000000 0.000000
# 4 0.000000 0.000000 0.000000 0.101930 0.000000 0.000000
# 5 0.000000 0.000000 0.000000 0.000000 0.022915 0.000000
# 6 0.000000 0.000000 0.000000 0.000000 0.000000 0.032105
#
#
# Mechanical properties :
#
#
# Convention : Reuss Voigt Hill
#
# Bulk Modulus (GPa) = 56.99230 57.90570 57.44900
# Shear Modulus (GPa) = 21.52125 32.95398 27.23762
#
# Velocity S-wave (km/s) = 2.94992 3.65031 3.31864
# Velocity P-wave (km/s) = 5.88619 6.41719 6.15742
#
# Compressibility (1/GPa) = 0.01754623
#
# Stress axis : x y z
#
# Youngs Moduli (GPa) = 70.33854 116.46026 48.22977
#
# Poissons Ratio (x) = -0.32306 0.46404
# Poissons Ratio (y) = -0.19512 0.29653
# Poissons Ratio (z) = 0.67675 0.71604
#
# Static dielectric constant tensor:
#      x y z
#    x 1.996810 0.000000 0.000000 
#    y 0.000000 2.092230 0.000000 
#    z 0.000000 0.000000 2.053330 
# 
# From -- ./inp_files/5380.got.cif
#   From: 2010.05.17/outbox.cif.g08.bks.cpg/sg68_3_cif.got.tgz:5380.got - 2010.06.03 18:57:09.
