data_PCOD9508596
_publ_section_title
;
Structure prediction by ZEFSAII (Michael W. Deem and Ramdas Pophale) SiO2 
 PCOD9508596
Probable space group: C C C A
;
_chemical_formula_sum "Si O2"
_cell_formula_units_Z 116
_cell_length_a 23.641778
_cell_length_b 9.150146
_cell_length_c 23.011717
_cell_angle_alpha 90.000000
_cell_angle_beta 90.000000
_cell_angle_gamma 90.000000
_cell_volume 4978.026258
_symmetry_space_group_name_H-M "C C C A"
_symmetry_group_IT_number 68
_space_group.IT_coordinate_system_code '2'
_symmetry_cell_setting 'orthorhombic'
loop_
_space_group_symop_operation_xyz
x,y,z
-x,1/2-y,z
x,1/2-y,1/2-z
-x,y,1/2-z
-x,-y,-z
x,1/2+y,-z
-x,1/2+y,1/2+z
x,-y,1/2+z
1/2+x,1/2+y,z
1/2-x,-y,z
1/2+x,-y,1/2-z
1/2-x,1/2+y,1/2-z
1/2-x,1/2-y,-z
1/2+x,y,-z
1/2-x,y,1/2+z
1/2+x,1/2-y,1/2+z
loop_
_atom_site_type_symbol
_atom_site_label
_atom_site_fract_x
_atom_site_fract_y
_atom_site_fract_z
Si Si1 0.338805 0.271956 0.379907
Si Si2 0.105180 0.937312 0.291014
Si Si3 0.550977 0.176998 0.928588
Si Si4 0.850416 0.700002 0.862523
Si Si5 0.000000 0.750000 0.250000
Si Si6 0.810796 0.511864 0.462251
Si Si7 0.808692 0.469985 0.195572
Si Si8 0.918330 0.106589 0.968112
O O1 0.353176 0.175372 0.323859
O O2 0.307490 0.417791 0.359109
O O3 0.397518 0.315786 0.410186
O O4 0.312829 0.168044 0.429785
O O5 0.044629 0.858628 0.282866
O O6 0.135615 0.984593 0.231359
O O7 0.109746 0.082846 0.330150
O O8 0.500000 0.250000 0.894306
O O9 0.608377 0.184177 0.893070
O O10 0.537811 0.014945 0.948378
O O11 0.561010 0.279630 0.984481
O O12 0.816568 0.609201 0.911017
O O13 0.812572 0.799970 0.821370
O O14 0.750000 0.500000 0.492221
O O15 0.864457 0.479456 0.503211
O O16 0.750000 0.500000 0.228903
#
# Coordination Sequence:
#
# PCOD9508596 Si02
#       8
#    16  16  16  16   4  16  16  16
#     4  11  22  42  65  94 133 177 227 269 341 420
#     4  11  26  45  69  97 133 181 231 284 353 412
#     4  11  23  42  65  95 131 172 221 277 338 399
#     4  10  24  43  66 102 132 172 227 281 346 413
#     4  12  24  52  74  96 140 184 246 290 348 436
#     4  10  22  40  64  93 136 178 216 272 336 402
#     4  12  24  43  72 103 140 175 230 292 355 425
#     4  11  22  41  62  94 133 168 226 269 323 415
#
# _framework density 23.302408
#
# number of rings (size 3 to 8) (size 9 to 14) (size 15 to 20)
#    0.000    1.103    4.138    1.655    0.000    7.724 
#    1.241    0.690    0.000    0.000    0.000    0.000 
#    0.000    0.000    0.000    0.000    0.000    0.000 
#
# Total GULP energy -324060.691929 kJ/mol
# GULP energy per Si atom -5587.253309 kJ/mol
# Density = 2.324937 g / cm^3
# Si number density = 23.302408 Si / 1000 Ang^3
#
#
#
# Elastic Constant Matrix: (Units=GPa)
#
#
# Indices 1 2 3 4 5 6 
#
# 1 73.1388 7.3896 -3.7134 0.0000 0.0000 0.0000
# 2 7.3896 94.4760 11.5336 0.0000 0.0000 0.0000
# 3 -3.7134 11.5336 44.2214 0.0000 0.0000 0.0000
# 4 0.0000 0.0000 0.0000 28.2938 0.0000 0.0000
# 5 0.0000 0.0000 0.0000 0.0000 12.1193 0.0000
# 6 0.0000 0.0000 0.0000 0.0000 0.0000 30.5094
#
#
#
# Elastic Compliance Matrix: (Units=1/GPa)
#
#
# Indices 1 2 3 4 5 6 
#
# 1 0.013877 -0.001268 0.001496 0.000000 0.000000 0.000000
# 2 -0.001268 0.011049 -0.002988 0.000000 0.000000 0.000000
# 3 0.001496 -0.002988 0.023518 0.000000 0.000000 0.000000
# 4 0.000000 0.000000 0.000000 0.035343 0.000000 0.000000
# 5 0.000000 0.000000 0.000000 0.000000 0.082513 0.000000
# 6 0.000000 0.000000 0.000000 0.000000 0.000000 0.032777
#
#
# Mechanical properties :
#
#
# Convention : Reuss Voigt Hill
#
# Bulk Modulus (GPa) = 23.29727 26.91731 25.10729
# Shear Modulus (GPa) = 22.84096 27.29295 25.06695
#
# Velocity S-wave (km/s) = 3.13421 3.42607 3.28338
# Velocity P-wave (km/s) = 4.80803 5.21794 5.01718
#
# Compressibility (1/GPa) = 0.04292348
#
# Stress axis : x y z
#
# Youngs Moduli (GPa) = 72.06328 90.50863 42.51977
#
# Poissons Ratio (x) = 0.11477 -0.06361
# Poissons Ratio (y) = 0.09138 0.12705
# Poissons Ratio (z) = -0.10780 0.27045
#
# Static dielectric constant tensor:
#      x y z
#    x 1.900040 0.000000 0.000000 
#    y 0.000000 1.887060 0.000000 
#    z 0.000000 0.000000 1.851470 
# 
# From -- ./inp_files/52208.got.cif
#   From: 2010.05.17/outbox.cif.g08.bks.cpg/sg68_27_cif.got.tgz:52208.got - 2010.06.03 18:57:09.
