data_PCOD9508317
_publ_section_title
;
Structure prediction by ZEFSAII (Michael W. Deem and Ramdas Pophale) SiO2 
 PCOD9508317
Probable space group: C C C A
;
_chemical_formula_sum "Si O2"
_cell_formula_units_Z 92
_cell_length_a 25.247722
_cell_length_b 9.701140
_cell_length_c 17.790247
_cell_angle_alpha 90.000000
_cell_angle_beta 90.000000
_cell_angle_gamma 90.000000
_cell_volume 4357.395189
_symmetry_space_group_name_H-M "C C C A"
_symmetry_group_IT_number 68
_space_group.IT_coordinate_system_code '2'
_symmetry_cell_setting 'orthorhombic'
loop_
_space_group_symop_operation_xyz
x,y,z
-x,1/2-y,z
x,1/2-y,1/2-z
-x,y,1/2-z
-x,-y,-z
x,1/2+y,-z
-x,1/2+y,1/2+z
x,-y,1/2+z
1/2+x,1/2+y,z
1/2-x,-y,z
1/2+x,-y,1/2-z
1/2-x,1/2+y,1/2-z
1/2-x,1/2-y,-z
1/2+x,y,-z
1/2-x,y,1/2+z
1/2+x,1/2-y,1/2+z
loop_
_atom_site_type_symbol
_atom_site_label
_atom_site_fract_x
_atom_site_fract_y
_atom_site_fract_z
Si Si1 0.500000 0.250000 0.250000
Si Si2 0.359300 0.054005 0.822568
Si Si3 0.589242 0.074997 0.324967
Si Si4 0.650891 0.294588 0.424592
Si Si5 0.744496 0.156828 0.905714
Si Si6 0.382604 0.692686 0.412463
Si Si7 0.727827 0.250000 0.750000
O O1 0.535705 0.153186 0.303086
O O2 0.394479 0.171858 0.863163
O O3 0.309013 0.130921 0.785768
O O4 0.387499 0.977361 0.754210
O O5 0.344896 0.943020 0.885820
O O6 0.626409 0.184880 0.367000
O O7 0.588751 0.940052 0.378054
O O8 0.710449 0.247146 0.445850
O O9 0.613349 0.295618 0.497915
O O10 0.681472 0.179642 0.903784
O O11 0.759785 0.182229 0.817725
O O12 0.750000 0.000000 0.930155
#
# Coordination Sequence:
#
# PCOD9508317 Si02
#       7
#     4  16  16  16  16  16   8
#     4  12  28  46  82 104 124 176 258 308 352 458
#     4  11  21  42  66  92 134 184 229 287 350 408
#     4  12  23  48  70  99 131 177 233 295 361 418
#     4  12  24  39  70  98 145 191 228 286 350 421
#     4  11  22  35  60  97 142 189 234 273 326 422
#     4  11  24  43  65 102 147 181 227 287 357 423
#     4  10  22  33  56  95 132 177 235 280 322 400
#
# _framework density 21.113530000000001
#
# number of rings (size 3 to 8) (size 9 to 14) (size 15 to 20)
#    0.000    0.696    6.957    1.565    4.870    2.087 
#    0.000    2.609    0.000    0.000    0.000    0.000 
#    0.000    0.000    0.000    0.000    0.000    0.000 
#
# Total GULP energy -256931.174244 kJ/mol
# GULP energy per Si atom -5585.460310 kJ/mol
# Density = 2.106547 g / cm^3
# Si number density = 21.113530 Si / 1000 Ang^3
#
#
#
# Elastic Constant Matrix: (Units=GPa)
#
#
# Indices 1 2 3 4 5 6 
#
# 1 73.5361 48.9398 36.0871 0.0000 0.0000 0.0000
# 2 48.9398 141.7467 48.5798 0.0000 0.0000 0.0000
# 3 36.0871 48.5798 114.2696 0.0000 0.0000 0.0000
# 4 0.0000 0.0000 0.0000 11.8026 0.0000 0.0000
# 5 0.0000 0.0000 0.0000 0.0000 -22.0545 0.0000
# 6 0.0000 0.0000 0.0000 0.0000 0.0000 7.1424
#
#
#
# Elastic Compliance Matrix: (Units=1/GPa)
#
#
# Indices 1 2 3 4 5 6 
#
# 1 0.018933 -0.005253 -0.003746 0.000000 0.000000 0.000000
# 2 -0.005253 0.009716 -0.002471 0.000000 0.000000 0.000000
# 3 -0.003746 -0.002471 0.010985 0.000000 0.000000 0.000000
# 4 0.000000 0.000000 0.000000 0.084727 0.000000 0.000000
# 5 0.000000 0.000000 0.000000 0.000000 -0.045342 0.000000
# 6 0.000000 0.000000 0.000000 0.000000 0.000000 0.140010
#
#
# Mechanical properties :
#
#
# Convention : Reuss Voigt Hill
#
# Bulk Modulus (GPa) = 59.90666 66.30733 63.10699
# Shear Modulus (GPa) = 20.19935 12.44115 16.32025
#
# Velocity S-wave (km/s) = 3.09642 2.43008 2.78326
# Velocity P-wave (km/s) = 6.42019 6.27272 6.34689
#
# Compressibility (1/GPa) = 0.01669264
#
# Stress axis : x y z
#
# Youngs Moduli (GPa) = 52.81758 102.92777 91.03388
#
# Poissons Ratio (x) = 0.54069 0.34101
# Poissons Ratio (y) = 0.27745 0.22499
# Poissons Ratio (z) = 0.19785 0.25438
#
# Static dielectric constant tensor:
#      x y z
#    x 1.737360 0.000000 0.000000 
#    y 0.000000 1.858120 0.000000 
#    z 0.000000 0.000000 1.873670 
# 
# From -- ./inp_files/40793.got.cif
#   From: 2010.05.17/outbox.cif.g08.bks.cpg/sg68_21_cif.got.tgz:40793.got - 2010.06.03 18:57:09.
