data_PCOD9508700
_publ_section_title
;
Structure prediction by ZEFSAII (Michael W. Deem and Ramdas Pophale) SiO2 
 PCOD9508700
Probable space group: C C C A
;
_chemical_formula_sum "Si O2"
_cell_formula_units_Z 72
_cell_length_a 9.352899
_cell_length_b 13.208407
_cell_length_c 24.441228
_cell_angle_alpha 90.000000
_cell_angle_beta 90.000000
_cell_angle_gamma 90.000000
_cell_volume 3019.393457
_symmetry_space_group_name_H-M "C C C A"
_symmetry_group_IT_number 68
_space_group.IT_coordinate_system_code '2'
_symmetry_cell_setting 'orthorhombic'
loop_
_space_group_symop_operation_xyz
x,y,z
-x,1/2-y,z
x,1/2-y,1/2-z
-x,y,1/2-z
-x,-y,-z
x,1/2+y,-z
-x,1/2+y,1/2+z
x,-y,1/2+z
1/2+x,1/2+y,z
1/2-x,-y,z
1/2+x,-y,1/2-z
1/2-x,1/2+y,1/2-z
1/2-x,1/2-y,-z
1/2+x,y,-z
1/2-x,y,1/2+z
1/2+x,1/2-y,1/2+z
loop_
_atom_site_type_symbol
_atom_site_label
_atom_site_fract_x
_atom_site_fract_y
_atom_site_fract_z
Si Si1 0.750000 0.500000 0.239558
Si Si2 0.705312 0.841061 0.666999
Si Si3 0.640098 0.866978 0.057940
Si Si4 0.878325 0.383381 0.650505
Si Si5 0.677339 0.375440 0.546457
O O1 0.746801 0.403532 0.279293
O O2 0.871841 0.526153 0.194871
O O3 0.809715 0.879049 0.619747
O O4 0.545574 0.863084 0.644611
O O5 0.697876 0.719157 0.674210
O O6 0.483838 0.915610 0.051703
O O7 0.647543 0.744957 0.050352
O O8 0.750682 0.898555 0.011235
O O9 0.791665 0.399221 0.594316
#
# Coordination Sequence:
#
# PCOD9508700 Si02
#       5
#     8  16  16  16  16
#     4  12  24  38  62  90 118 156 210 260 302 352
#     4  10  22  41  64  90 123 164 207 252 306 367
#     4   9  17  32  58  91 124 158 198 247 305 367
#     4  10  22  41  64  90 123 164 207 252 306 367
#     4   9  17  32  58  91 124 158 198 247 305 367
#
# _framework density 23.845849000000001
#
# number of rings (size 3 to 8) (size 9 to 14) (size 15 to 20)
#    0.000    2.222    0.000    2.667    0.000   10.667 
#    0.000    1.111    0.000   16.000    0.000    0.000 
#    0.000    0.000    0.000    0.000    0.000    0.000 
#
# Total GULP energy -200965.778581 kJ/mol
# GULP energy per Si atom -5582.382738 kJ/mol
# Density = 2.379158 g / cm^3
# Si number density = 23.845849 Si / 1000 Ang^3
#
#
#
# Elastic Constant Matrix: (Units=GPa)
#
#
# Indices 1 2 3 4 5 6 
#
# 1 136.7705 12.0679 64.6053 0.0000 0.0000 0.0000
# 2 12.0679 78.8473 -7.3224 0.0000 0.0000 0.0000
# 3 64.6053 -7.3224 130.9668 0.0000 0.0000 0.0000
# 4 0.0000 0.0000 0.0000 -24.4114 0.0000 0.0000
# 5 0.0000 0.0000 0.0000 0.0000 6.1164 0.0000
# 6 0.0000 0.0000 0.0000 0.0000 0.0000 22.1551
#
#
#
# Elastic Compliance Matrix: (Units=1/GPa)
#
#
# Indices 1 2 3 4 5 6 
#
# 1 0.009826 -0.001964 -0.004957 0.000000 0.000000 0.000000
# 2 -0.001964 0.013142 0.001704 0.000000 0.000000 0.000000
# 3 -0.004957 0.001704 0.010176 0.000000 0.000000 0.000000
# 4 0.000000 0.000000 0.000000 -0.040965 0.000000 0.000000
# 5 0.000000 0.000000 0.000000 0.000000 0.163495 0.000000
# 6 0.000000 0.000000 0.000000 0.000000 0.000000 0.045136
#
#
# Mechanical properties :
#
#
# Convention : Reuss Voigt Hill
#
# Bulk Modulus (GPa) = 44.03605 53.92070 48.97837
# Shear Modulus (GPa) = 22.85029 19.25429 21.05229
#
# Velocity S-wave (km/s) = 3.09892 2.84465 2.97450
# Velocity P-wave (km/s) = 5.59566 5.78365 5.69043
#
# Compressibility (1/GPa) = 0.02270867
#
# Stress axis : x y z
#
# Youngs Moduli (GPa) = 101.76653 76.09417 98.26930
#
# Poissons Ratio (x) = 0.14947 0.48714
# Poissons Ratio (y) = 0.19990 -0.16743
# Poissons Ratio (z) = 0.50447 -0.12965
#
# Static dielectric constant tensor:
#      x y z
#    x 1.946860 0.000000 0.000000 
#    y 0.000000 2.034810 0.000000 
#    z 0.000000 0.000000 1.841050 
# 
# From -- ./inp_files/48964.got.cif
#   From: 2010.05.17/outbox.cif.g08.bks.cpg/sg68_25_cif.got.tgz:48964.got - 2010.06.03 18:57:09.
