data_PCOD9508944
_publ_section_title
;
Structure prediction by ZEFSAII (Michael W. Deem and Ramdas Pophale) SiO2 
 PCOD9508944
Probable space group: C C C A
;
_chemical_formula_sum "Si O2"
_cell_formula_units_Z 96
_cell_length_a 18.214268
_cell_length_b 11.420794
_cell_length_c 19.491116
_cell_angle_alpha 90.000000
_cell_angle_beta 90.000000
_cell_angle_gamma 90.000000
_cell_volume 4054.569290
_symmetry_space_group_name_H-M "C C C A"
_symmetry_group_IT_number 68
_space_group.IT_coordinate_system_code '2'
_symmetry_cell_setting 'orthorhombic'
loop_
_space_group_symop_operation_xyz
x,y,z
-x,1/2-y,z
x,1/2-y,1/2-z
-x,y,1/2-z
-x,-y,-z
x,1/2+y,-z
-x,1/2+y,1/2+z
x,-y,1/2+z
1/2+x,1/2+y,z
1/2-x,-y,z
1/2+x,-y,1/2-z
1/2-x,1/2+y,1/2-z
1/2-x,1/2-y,-z
1/2+x,y,-z
1/2-x,y,1/2+z
1/2+x,1/2-y,1/2+z
loop_
_atom_site_type_symbol
_atom_site_label
_atom_site_fract_x
_atom_site_fract_y
_atom_site_fract_z
Si Si1 0.471325 0.965362 0.824715
Si Si2 0.511219 0.373444 0.037664
Si Si3 0.318429 0.926893 0.274904
Si Si4 0.884121 0.388654 0.133788
Si Si5 0.179196 0.104579 0.553731
Si Si6 0.294407 0.804867 0.411318
O O1 0.500000 0.920737 0.750000
O O2 0.390268 0.012214 0.808279
O O3 0.534383 0.059486 0.850931
O O4 0.466941 0.881370 0.890583
O O5 0.500000 0.250000 0.999819
O O6 0.595133 0.360462 0.058274
O O7 0.500000 0.500000 0.000000
O O8 0.351525 0.863966 0.208797
O O9 0.282593 0.860913 0.338128
O O10 0.250000 0.000000 0.246159
O O11 0.830497 0.482349 0.094640
O O12 0.870288 0.269699 0.092518
O O13 0.230255 0.210128 0.578434
O O14 0.198921 0.102379 0.472763
#
# Coordination Sequence:
#
# PCOD9508944 Si02
#       6
#    16  16  16  16  16  16
#     4   9  22  44  66  96 135 180 228 292 352 419
#     4  11  25  43  70 100 140 187 241 293 357 427
#     4  11  23  39  67  99 135 174 225 285 351 430
#     4  10  22  44  65  93 135 174 228 285 348 414
#     4  10  24  41  63  97 134 180 222 291 347 422
#     4  11  23  39  67  97 130 178 228 279 356 417
#
# _framework density 23.676991000000001
#
# number of rings (size 3 to 8) (size 9 to 14) (size 15 to 20)
#    0.000    1.667    0.000    3.000    7.000    3.667 
#    0.000    2.500    0.000    0.000    0.000    0.000 
#    0.000    0.000    0.000    0.000    0.000    0.000 
#
# Total GULP energy -267406.282905 kJ/mol
# GULP energy per Si atom -5570.964227 kJ/mol
# Density = 2.362310 g / cm^3
# Si number density = 23.676991 Si / 1000 Ang^3
#
#
#
# Elastic Constant Matrix: (Units=GPa)
#
#
# Indices 1 2 3 4 5 6 
#
# 1 104.1038 19.8823 17.5710 0.0000 0.0000 0.0000
# 2 19.8823 83.2949 45.7818 0.0000 0.0000 0.0000
# 3 17.5710 45.7818 145.4066 0.0000 0.0000 0.0000
# 4 0.0000 0.0000 0.0000 18.6559 0.0000 0.0000
# 5 0.0000 0.0000 0.0000 0.0000 47.4836 0.0000
# 6 0.0000 0.0000 0.0000 0.0000 0.0000 1.7530
#
#
#
# Elastic Compliance Matrix: (Units=1/GPa)
#
#
# Indices 1 2 3 4 5 6 
#
# 1 0.010102 -0.002105 -0.000558 0.000000 0.000000 0.000000
# 2 -0.002105 0.014956 -0.004455 0.000000 0.000000 0.000000
# 3 -0.000558 -0.004455 0.008347 0.000000 0.000000 0.000000
# 4 0.000000 0.000000 0.000000 0.053602 0.000000 0.000000
# 5 0.000000 0.000000 0.000000 0.000000 0.021060 0.000000
# 6 0.000000 0.000000 0.000000 0.000000 0.000000 0.570461
#
#
# Mechanical properties :
#
#
# Convention : Reuss Voigt Hill
#
# Bulk Modulus (GPa) = 52.16267 55.47506 53.81886
# Shear Modulus (GPa) = 7.15150 30.21650 18.68400
#
# Velocity S-wave (km/s) = 1.73983 3.57627 2.81218
# Velocity P-wave (km/s) = 5.11026 6.36661 5.77272
#
# Compressibility (1/GPa) = 0.01917080
#
# Stress axis : x y z
#
# Youngs Moduli (GPa) = 98.99097 66.86111 119.79925
#
# Poissons Ratio (x) = 0.14071 0.06686
# Poissons Ratio (y) = 0.20833 0.53368
# Poissons Ratio (z) = 0.05525 0.29785
#
# Static dielectric constant tensor:
#      x y z
#    x 2.054520 0.000000 0.000000 
#    y 0.000000 2.032030 0.000000 
#    z 0.000000 0.000000 1.939530 
# 
# From -- ./inp_files/40230.got.cif
#   From: 2010.05.17/outbox.cif.g08.bks.cpg/sg68_21_cif.got.tgz:40230.got - 2010.06.03 18:57:09.
