data_PCOD9508893
_publ_section_title
;
Structure prediction by ZEFSAII (Michael W. Deem and Ramdas Pophale) SiO2 
 PCOD9508893
Probable space group: C C C A
;
_chemical_formula_sum "Si O2"
_cell_formula_units_Z 96
_cell_length_a 14.676237
_cell_length_b 19.046142
_cell_length_c 13.352521
_cell_angle_alpha 90.000000
_cell_angle_beta 90.000000
_cell_angle_gamma 90.000000
_cell_volume 3732.372698
_symmetry_space_group_name_H-M "C C C A"
_symmetry_group_IT_number 68
_space_group.IT_coordinate_system_code '2'
_symmetry_cell_setting 'orthorhombic'
loop_
_space_group_symop_operation_xyz
x,y,z
-x,1/2-y,z
x,1/2-y,1/2-z
-x,y,1/2-z
-x,-y,-z
x,1/2+y,-z
-x,1/2+y,1/2+z
x,-y,1/2+z
1/2+x,1/2+y,z
1/2-x,-y,z
1/2+x,-y,1/2-z
1/2-x,1/2+y,1/2-z
1/2-x,1/2-y,-z
1/2+x,y,-z
1/2-x,y,1/2+z
1/2+x,1/2-y,1/2+z
loop_
_atom_site_type_symbol
_atom_site_label
_atom_site_fract_x
_atom_site_fract_y
_atom_site_fract_z
Si Si1 0.122800 0.750000 0.250000
Si Si2 0.250000 0.500000 0.133164
Si Si3 0.148021 0.800915 0.585715
Si Si4 0.363515 0.682606 0.952985
Si Si5 0.893187 0.077033 0.274797
Si Si6 0.553323 0.959349 0.915102
Si Si7 0.619466 0.120328 0.112207
O O1 0.086124 0.786168 0.146673
O O2 0.156236 0.677030 0.193888
O O3 0.177400 0.452238 0.194383
O O4 0.309705 0.440059 0.083224
O O5 0.257347 0.804855 0.573277
O O6 0.119345 0.721501 0.558806
O O7 0.126932 0.845130 0.683803
O O8 0.101554 0.839946 0.491544
O O9 0.385159 0.601745 0.959369
O O10 0.000000 0.076016 0.250000
O O11 0.887095 0.015759 0.357768
O O12 0.472246 0.919380 0.854945
O O13 0.500000 0.000000 0.000000
#
# Coordination Sequence:
#
# PCOD9508893 Si02
#       7
#     8   8  16  16  16  16  16
#     4  10  22  43  68 104 129 176 244 302 353 430
#     4  12  26  42  72 102 148 192 238 310 376 438
#     4  10  23  45  69 103 142 195 236 298 370 443
#     4  10  24  43  74 100 142 188 244 300 365 441
#     4  12  24  42  69 109 146 187 241 301 372 445
#     4  12  25  44  68 105 141 186 242 298 365 450
#     4  11  24  42  69 103 139 188 242 299 368 438
#
# _framework density 25.720905999999999
#
# number of rings (size 3 to 8) (size 9 to 14) (size 15 to 20)
#    0.000    1.000    3.333    3.000    2.333    4.000 
#    0.000    0.000    0.000    3.000    0.000    0.000 
#    0.000    0.000    0.000    0.000    0.000    0.000 
#
# Total GULP energy -268028.342849 kJ/mol
# GULP energy per Si atom -5583.923809 kJ/mol
# Density = 2.566236 g / cm^3
# Si number density = 25.720906 Si / 1000 Ang^3
#
#
#
# Elastic Constant Matrix: (Units=GPa)
#
#
# Indices 1 2 3 4 5 6 
#
# 1 75.2172 13.0596 9.0060 0.0000 0.0000 0.0000
# 2 13.0596 142.4629 21.7694 0.0000 0.0000 0.0000
# 3 9.0060 21.7694 57.3456 0.0000 0.0000 0.0000
# 4 0.0000 0.0000 0.0000 18.5042 0.0000 0.0000
# 5 0.0000 0.0000 0.0000 0.0000 26.0784 0.0000
# 6 0.0000 0.0000 0.0000 0.0000 0.0000 47.2107
#
#
#
# Elastic Compliance Matrix: (Units=1/GPa)
#
#
# Indices 1 2 3 4 5 6 
#
# 1 0.013678 -0.000983 -0.001775 0.000000 0.000000 0.000000
# 2 -0.000983 0.007522 -0.002701 0.000000 0.000000 0.000000
# 3 -0.001775 -0.002701 0.018742 0.000000 0.000000 0.000000
# 4 0.000000 0.000000 0.000000 0.054042 0.000000 0.000000
# 5 0.000000 0.000000 0.000000 0.000000 0.038346 0.000000
# 6 0.000000 0.000000 0.000000 0.000000 0.000000 0.021182
#
#
# Mechanical properties :
#
#
# Convention : Reuss Voigt Hill
#
# Bulk Modulus (GPa) = 34.45348 40.29952 37.37650
# Shear Modulus (GPa) = 28.71833 33.77137 31.24485
#
# Velocity S-wave (km/s) = 3.34509 3.62746 3.48913
# Velocity P-wave (km/s) = 5.32388 5.76599 5.54934
#
# Compressibility (1/GPa) = 0.02902465
#
# Stress axis : x y z
#
# Youngs Moduli (GPa) = 73.11027 132.93953 53.35511
#
# Poissons Ratio (x) = 0.13063 0.09471
# Poissons Ratio (y) = 0.07184 0.14413
# Poissons Ratio (z) = 0.12978 0.35910
#
# Static dielectric constant tensor:
#      x y z
#    x 1.969210 0.000000 0.000000 
#    y 0.000000 2.050220 0.000000 
#    z 0.000000 0.000000 2.052300 
# 
# From -- ./inp_files/22437.got.cif
#   From: 2010.05.17/outbox.cif.g08.bks.cpg/sg68_12_cif.got.tgz:22437.got - 2010.06.03 18:57:09.
