data_PCOD9508528
_publ_section_title
;
Structure prediction by ZEFSAII (Michael W. Deem and Ramdas Pophale) SiO2 
 PCOD9508528
Probable space group: C C C A
;
_chemical_formula_sum "Si O2"
_cell_formula_units_Z 88
_cell_length_a 19.249096
_cell_length_b 12.766495
_cell_length_c 17.860499
_cell_angle_alpha 90.000000
_cell_angle_beta 90.000000
_cell_angle_gamma 90.000000
_cell_volume 4389.101319
_symmetry_space_group_name_H-M "C C C A"
_symmetry_group_IT_number 68
_space_group.IT_coordinate_system_code '2'
_symmetry_cell_setting 'orthorhombic'
loop_
_space_group_symop_operation_xyz
x,y,z
-x,1/2-y,z
x,1/2-y,1/2-z
-x,y,1/2-z
-x,-y,-z
x,1/2+y,-z
-x,1/2+y,1/2+z
x,-y,1/2+z
1/2+x,1/2+y,z
1/2-x,-y,z
1/2+x,-y,1/2-z
1/2-x,1/2+y,1/2-z
1/2-x,1/2-y,-z
1/2+x,y,-z
1/2-x,y,1/2+z
1/2+x,1/2-y,1/2+z
loop_
_atom_site_type_symbol
_atom_site_label
_atom_site_fract_x
_atom_site_fract_y
_atom_site_fract_z
Si Si1 0.135015 0.484377 0.924873
Si Si2 0.202673 0.332343 0.047309
Si Si3 0.250000 0.500000 0.312875
Si Si4 0.576731 0.767424 0.868339
Si Si5 0.928581 0.301465 0.039930
Si Si6 0.785917 0.335472 0.802912
O O1 0.191595 0.538959 0.870668
O O2 0.096644 0.388514 0.883125
O O3 0.082410 0.575736 0.947037
O O4 0.175766 0.427282 0.994060
O O5 0.135022 0.266766 0.070962
O O6 0.245155 0.362714 0.121338
O O7 0.250000 0.250000 0.000000
O O8 0.208155 0.571583 0.255415
O O9 0.500000 0.750000 0.835903
O O10 0.640231 0.712531 0.826244
O O11 0.574647 0.715799 0.950657
O O12 0.000000 0.250000 0.066909
O O13 0.747706 0.250000 0.750000
#
# Coordination Sequence:
#
# PCOD9508528 Si02
#       6
#    16  16   8  16  16  16
#     4  11  22  43  66  93 133 174 221 277 337 394
#     4  11  21  39  67  97 128 173 219 275 331 398
#     4  12  26  38  66  98 128 178 220 282 336 398
#     4  10  23  41  64  95 132 174 214 275 329 404
#     4  10  22  39  66  97 127 170 220 277 328 390
#     4  12  23  42  61 100 132 169 224 275 337 393
#
# _framework density 20.049662999999999
#
# number of rings (size 3 to 8) (size 9 to 14) (size 15 to 20)
#    0.000    1.091    5.455    2.182    2.545    6.909 
#    0.000    0.000    0.000    3.818    0.000    0.000 
#    0.000    0.000    0.000    0.000    0.000    0.000 
#
# Total GULP energy -245439.041515 kJ/mol
# GULP energy per Si atom -5578.160034 kJ/mol
# Density = 2.000403 g / cm^3
# Si number density = 20.049663 Si / 1000 Ang^3
#
#
#
# Elastic Constant Matrix: (Units=GPa)
#
#
# Indices 1 2 3 4 5 6 
#
# 1 142.2265 67.1068 43.0463 0.0000 0.0000 0.0000
# 2 67.1068 111.4928 37.9857 0.0000 0.0000 0.0000
# 3 43.0463 37.9857 91.3693 0.0000 0.0000 0.0000
# 4 0.0000 0.0000 0.0000 33.3769 0.0000 0.0000
# 5 0.0000 0.0000 0.0000 0.0000 4.5919 0.0000
# 6 0.0000 0.0000 0.0000 0.0000 0.0000 29.7207
#
#
#
# Elastic Compliance Matrix: (Units=1/GPa)
#
#
# Indices 1 2 3 4 5 6 
#
# 1 0.010348 -0.005321 -0.002663 0.000000 0.000000 0.000000
# 2 -0.005321 0.013185 -0.002975 0.000000 0.000000 0.000000
# 3 -0.002663 -0.002975 0.013436 0.000000 0.000000 0.000000
# 4 0.000000 0.000000 0.000000 0.029961 0.000000 0.000000
# 5 0.000000 0.000000 0.000000 0.000000 0.217774 0.000000
# 6 0.000000 0.000000 0.000000 0.000000 0.000000 0.033647
#
#
# Mechanical properties :
#
#
# Convention : Reuss Voigt Hill
#
# Bulk Modulus (GPa) = 66.43836 71.26292 68.85064
# Shear Modulus (GPa) = 14.48080 26.66790 20.57435
#
# Velocity S-wave (km/s) = 2.69038 3.65100 3.20686
# Velocity P-wave (km/s) = 6.54673 7.30708 6.93733
#
# Compressibility (1/GPa) = 0.01505155
#
# Stress axis : x y z
#
# Youngs Moduli (GPa) = 96.64135 75.84195 74.42740
#
# Poissons Ratio (x) = 0.40354 0.19819
# Poissons Ratio (y) = 0.51422 0.22141
# Poissons Ratio (z) = 0.25735 0.22562
#
# Static dielectric constant tensor:
#      x y z
#    x 1.753390 0.000000 0.000000 
#    y 0.000000 2.184170 0.000000 
#    z 0.000000 0.000000 1.762120 
# 
# From -- ./inp_files/32794.got.cif
#   From: 2010.05.17/outbox.cif.g08.bks.cpg/sg68_17_cif.got.tgz:32794.got - 2010.06.03 18:57:09.
