data_PCOD9508462
_publ_section_title
;
Structure prediction by ZEFSAII (Michael W. Deem and Ramdas Pophale) SiO2 
 PCOD9508462
Probable space group: C C C A
;
_chemical_formula_sum "Si O2"
_cell_formula_units_Z 64
_cell_length_a 8.729474
_cell_length_b 19.583507
_cell_length_c 15.308579
_cell_angle_alpha 90.000000
_cell_angle_beta 90.000000
_cell_angle_gamma 90.000000
_cell_volume 2617.058454
_symmetry_space_group_name_H-M "C C C A"
_symmetry_group_IT_number 68
_space_group.IT_coordinate_system_code '2'
_symmetry_cell_setting 'orthorhombic'
loop_
_space_group_symop_operation_xyz
x,y,z
-x,1/2-y,z
x,1/2-y,1/2-z
-x,y,1/2-z
-x,-y,-z
x,1/2+y,-z
-x,1/2+y,1/2+z
x,-y,1/2+z
1/2+x,1/2+y,z
1/2-x,-y,z
1/2+x,-y,1/2-z
1/2-x,1/2+y,1/2-z
1/2-x,1/2-y,-z
1/2+x,y,-z
1/2-x,y,1/2+z
1/2+x,1/2-y,1/2+z
loop_
_atom_site_type_symbol
_atom_site_label
_atom_site_fract_x
_atom_site_fract_y
_atom_site_fract_z
Si Si1 0.834533 0.427857 0.640194
Si Si2 0.326379 0.775422 0.588614
Si Si3 0.598637 0.689995 0.337164
Si Si4 0.304571 0.573162 0.648210
O O1 0.750000 0.500000 0.614534
O O2 0.782313 0.355009 0.601403
O O3 0.808471 0.422650 0.745358
O O4 0.017440 0.423073 0.621685
O O5 0.500000 0.750000 0.586321
O O6 0.250000 0.750000 0.500000
O O7 0.257002 0.730847 0.667252
O O8 0.500000 0.750000 0.382080
O O9 0.500000 0.674275 0.250000
O O10 0.664457 0.622365 0.380722
O O11 0.250000 0.500000 0.619918
#
# Coordination Sequence:
#
# PCOD9508462 Si02
#       4
#    16  16  16  16
#     4  10  22  42  69 102 142 187 240 306 376 448
#     4  12  26  49  70 103 150 200 254 313 377 461
#     4  11  23  40  68 103 139 190 245 307 370 435
#     4  10  22  38  66 105 145 182 236 307 380 446
#
# _framework density 24.454937000000001
#
# number of rings (size 3 to 8) (size 9 to 14) (size 15 to 20)
#    0.000    1.250    2.500    3.750   10.500    0.000 
#    0.000    2.500    0.000    0.000    0.000    0.000 
#    0.000    0.000    0.000    0.000    0.000    0.000 
#
# Total GULP energy -178162.083792 kJ/mol
# GULP energy per Si atom -5567.565118 kJ/mol
# Density = 2.439928 g / cm^3
# Si number density = 24.454937 Si / 1000 Ang^3
#
#
#
# Elastic Constant Matrix: (Units=GPa)
#
#
# Indices 1 2 3 4 5 6 
#
# 1 125.7959 41.1789 -0.6781 0.0000 0.0000 0.0000
# 2 41.1789 241.7772 4.5079 0.0000 0.0000 0.0000
# 3 -0.6781 4.5079 38.1130 0.0000 0.0000 0.0000
# 4 0.0000 0.0000 0.0000 -0.5398 0.0000 0.0000
# 5 0.0000 0.0000 0.0000 0.0000 -23.1514 0.0000
# 6 0.0000 0.0000 0.0000 0.0000 0.0000 66.8556
#
#
#
# Elastic Compliance Matrix: (Units=1/GPa)
#
#
# Indices 1 2 3 4 5 6 
#
# 1 0.008423 -0.001440 0.000320 0.000000 0.000000 0.000000
# 2 -0.001440 0.004392 -0.000545 0.000000 0.000000 0.000000
# 3 0.000320 -0.000545 0.026308 0.000000 0.000000 0.000000
# 4 0.000000 0.000000 0.000000 -1.852631 0.000000 0.000000
# 5 0.000000 0.000000 0.000000 0.000000 -0.043194 0.000000
# 6 0.000000 0.000000 0.000000 0.000000 0.000000 0.014958
#
#
# Mechanical properties :
#
#
# Convention : Reuss Voigt Hill
#
# Bulk Modulus (GPa) = 27.93959 55.07816 41.50887
# Shear Modulus (GPa) = -2.73750 32.67805 14.97027
#
# Velocity S-wave (km/s) = -1.05917 3.65945 2.47687
# Velocity P-wave (km/s) = 3.15499 6.35819 5.01899
#
# Compressibility (1/GPa) = 0.03579151
#
# Stress axis : x y z
#
# Youngs Moduli (GPa) = 118.72743 227.71036 38.01137
#
# Poissons Ratio (x) = 0.32802 -0.01217
# Poissons Ratio (y) = 0.17103 0.02072
# Poissons Ratio (z) = -0.03802 0.12411
#
# Static dielectric constant tensor:
#      x y z
#    x 4.575950 0.000000 0.000000 
#    y 0.000000 1.775060 0.000000 
#    z 0.000000 0.000000 1.999400 
# 
# From -- ./inp_files/27849.got.cif
#   From: 2010.05.17/outbox.cif.g08.bks.cpg/sg68_14_cif.got.tgz:27849.got - 2010.06.03 18:57:09.
