data_PCOD9508610
_publ_section_title
;
Structure prediction by ZEFSAII (Michael W. Deem and Ramdas Pophale) SiO2 
 PCOD9508610
Probable space group: C C C A
;
_chemical_formula_sum "Si O2"
_cell_formula_units_Z 104
_cell_length_a 8.762244
_cell_length_b 30.990228
_cell_length_c 19.347828
_cell_angle_alpha 90.000000
_cell_angle_beta 90.000000
_cell_angle_gamma 90.000000
_cell_volume 5253.785433
_symmetry_space_group_name_H-M "C C C A"
_symmetry_group_IT_number 68
_space_group.IT_coordinate_system_code '2'
_symmetry_cell_setting 'orthorhombic'
loop_
_space_group_symop_operation_xyz
x,y,z
-x,1/2-y,z
x,1/2-y,1/2-z
-x,y,1/2-z
-x,-y,-z
x,1/2+y,-z
-x,1/2+y,1/2+z
x,-y,1/2+z
1/2+x,1/2+y,z
1/2-x,-y,z
1/2+x,-y,1/2-z
1/2-x,1/2+y,1/2-z
1/2-x,1/2-y,-z
1/2+x,y,-z
1/2-x,y,1/2+z
1/2+x,1/2-y,1/2+z
loop_
_atom_site_type_symbol
_atom_site_label
_atom_site_fract_x
_atom_site_fract_y
_atom_site_fract_z
Si Si1 0.000157 0.368742 0.027215
Si Si2 0.858671 0.077645 0.140417
Si Si3 0.488791 0.909673 0.878484
Si Si4 0.745865 0.154235 0.857525
Si Si5 0.930845 0.005474 0.824300
Si Si6 0.632345 0.217966 0.463938
Si Si7 0.500000 0.142812 0.750000
O O1 0.857025 0.365737 0.079633
O O2 0.110901 0.402456 0.064907
O O3 0.962930 0.386743 0.951827
O O4 0.074853 0.321385 0.013728
O O5 0.677302 0.078476 0.152054
O O6 0.921464 0.112138 0.194454
O O7 0.961941 0.034875 0.152395
O O8 0.613729 0.878392 0.841261
O O9 0.562072 0.956847 0.880963
O O10 0.808070 0.196471 0.894312
O O11 0.634983 0.164889 0.793614
O O12 0.000000 0.018971 0.750000
O O13 0.750000 0.000000 0.812679
O O14 0.500000 0.250000 0.444757
O O15 0.750000 0.250000 0.500000
#
# Coordination Sequence:
#
# PCOD9508610 Si02
#       7
#    16  16  16  16  16  16   8
#     4  10  22  42  63  99 131 166 211 266 342 389
#     4  11  23  40  66  90 130 168 219 272 317 392
#     4  11  23  37  64  95 127 165 218 271 323 384
#     4  10  22  40  65  97 131 172 215 269 326 405
#     4  12  25  41  60  89 126 177 225 267 319 386
#     4  11  21  38  69 104 129 164 213 272 331 401
#     4  10  22  42  60  91 124 180 212 256 325 384
#
# _framework density 19.795249999999999
#
# number of rings (size 3 to 8) (size 9 to 14) (size 15 to 20)
#    0.000    1.231    2.308    5.077    4.308    0.615 
#    0.000    1.538    0.000    7.385    8.000    0.000 
#    0.000    0.000    0.000    0.000    0.000    0.000 
#
# Total GULP energy -289716.650747 kJ/mol
# GULP energy per Si atom -5571.474053 kJ/mol
# Density = 1.975020 g / cm^3
# Si number density = 19.795250 Si / 1000 Ang^3
#
#
#
# Elastic Constant Matrix: (Units=GPa)
#
#
# Indices 1 2 3 4 5 6 
#
# 1 158.2947 56.9734 31.3164 0.0000 0.0000 0.0000
# 2 56.9734 113.2000 33.1720 0.0000 0.0000 0.0000
# 3 31.3164 33.1720 52.3203 0.0000 0.0000 0.0000
# 4 0.0000 0.0000 0.0000 23.1979 0.0000 0.0000
# 5 0.0000 0.0000 0.0000 0.0000 21.4865 0.0000
# 6 0.0000 0.0000 0.0000 0.0000 0.0000 39.1137
#
#
#
# Elastic Compliance Matrix: (Units=1/GPa)
#
#
# Indices 1 2 3 4 5 6 
#
# 1 0.008026 -0.003232 -0.002755 0.000000 0.000000 0.000000
# 2 -0.003232 0.012151 -0.005770 0.000000 0.000000 0.000000
# 3 -0.002755 -0.005770 0.024420 0.000000 0.000000 0.000000
# 4 0.000000 0.000000 0.000000 0.043107 0.000000 0.000000
# 5 0.000000 0.000000 0.000000 0.000000 0.046541 0.000000
# 6 0.000000 0.000000 0.000000 0.000000 0.000000 0.025566
#
#
# Mechanical properties :
#
#
# Convention : Reuss Voigt Hill
#
# Bulk Modulus (GPa) = 47.42869 62.97097 55.19983
# Shear Modulus (GPa) = 26.26714 30.24983 28.25848
#
# Velocity S-wave (km/s) = 3.64667 3.91338 3.78238
# Velocity P-wave (km/s) = 6.46085 7.23185 6.85719
#
# Compressibility (1/GPa) = 0.02108429
#
# Stress axis : x y z
#
# Youngs Moduli (GPa) = 124.60193 82.29552 40.95041
#
# Poissons Ratio (x) = 0.26598 0.11280
# Poissons Ratio (y) = 0.40272 0.23627
# Poissons Ratio (z) = 0.34322 0.47481
#
# Static dielectric constant tensor:
#      x y z
#    x 0.222910 0.000000 0.000000 
#    y 0.000000 1.706490 0.000000 
#    z 0.000000 0.000000 1.687410 
# 
# From -- ./inp_files/36717.got.cif
#   From: 2010.05.17/outbox.cif.g08.bks.cpg/sg68_19_cif.got.tgz:36717.got - 2010.06.03 18:57:09.
