data_PCOD9508208
_publ_section_title
;
Structure prediction by ZEFSAII (Michael W. Deem and Ramdas Pophale) SiO2 
 PCOD9508208
Probable space group: C C C A
;
_chemical_formula_sum "Si O2"
_cell_formula_units_Z 64
_cell_length_a 14.380892
_cell_length_b 18.537419
_cell_length_c 10.226455
_cell_angle_alpha 90.000000
_cell_angle_beta 90.000000
_cell_angle_gamma 90.000000
_cell_volume 2726.215626
_symmetry_space_group_name_H-M "C C C A"
_symmetry_group_IT_number 68
_space_group.IT_coordinate_system_code '2'
_symmetry_cell_setting 'orthorhombic'
loop_
_space_group_symop_operation_xyz
x,y,z
-x,1/2-y,z
x,1/2-y,1/2-z
-x,y,1/2-z
-x,-y,-z
x,1/2+y,-z
-x,1/2+y,1/2+z
x,-y,1/2+z
1/2+x,1/2+y,z
1/2-x,-y,z
1/2+x,-y,1/2-z
1/2-x,1/2+y,1/2-z
1/2-x,1/2-y,-z
1/2+x,y,-z
1/2-x,y,1/2+z
1/2+x,1/2-y,1/2+z
loop_
_atom_site_type_symbol
_atom_site_label
_atom_site_fract_x
_atom_site_fract_y
_atom_site_fract_z
Si Si1 0.880866 0.280379 0.604610
Si Si2 0.352917 0.034705 0.573743
Si Si3 0.330217 0.688261 0.358094
Si Si4 0.499938 0.407325 0.396312
O O1 0.901863 0.250000 0.750000
O O2 0.780905 0.317292 0.625119
O O3 0.865814 0.218321 0.497170
O O4 0.949798 0.338673 0.538559
O O5 0.359900 0.105458 0.667007
O O6 0.398626 0.066962 0.440974
O O7 0.250000 0.000000 0.566062
O O8 0.428073 0.973699 0.604670
O O9 0.350245 0.750000 0.250000
O O10 0.500000 0.381821 0.250000
#
# Coordination Sequence:
#
# PCOD9508208 Si02
#       4
#    16  16  16  16
#     4  10  21  42  68 103 137 175 235 289 351 424
#     4  11  24  45  66 100 143 187 233 296 358 426
#     4  10  22  41  71 101 136 184 230 292 354 419
#     4  11  25  43  68 102 136 186 241 288 353 432
#
# _framework density 23.475764999999999
#
# number of rings (size 3 to 8) (size 9 to 14) (size 15 to 20)
#    0.000    1.500    2.500    1.500    0.000    8.500 
#    4.500    1.250    0.000    0.000    0.000    0.000 
#    0.000    0.000    0.000    0.000    0.000    0.000 
#
# Total GULP energy -178402.921126 kJ/mol
# GULP energy per Si atom -5575.091285 kJ/mol
# Density = 2.342233 g / cm^3
# Si number density = 23.475765 Si / 1000 Ang^3
#
#
#
# Elastic Constant Matrix: (Units=GPa)
#
#
# Indices 1 2 3 4 5 6 
#
# 1 91.6405 61.3894 14.9744 0.0000 0.0000 0.0000
# 2 61.3894 142.0196 21.1369 0.0000 0.0000 0.0000
# 3 14.9744 21.1369 60.6671 0.0000 0.0000 0.0000
# 4 0.0000 0.0000 0.0000 350.5483 0.0000 0.0000
# 5 0.0000 0.0000 0.0000 0.0000 -18.4909 0.0000
# 6 0.0000 0.0000 0.0000 0.0000 0.0000 37.6144
#
#
#
# Elastic Compliance Matrix: (Units=1/GPa)
#
#
# Indices 1 2 3 4 5 6 
#
# 1 0.015501 -0.006466 -0.001573 0.000000 0.000000 0.000000
# 2 -0.006466 0.010124 -0.001931 0.000000 0.000000 0.000000
# 3 -0.001573 -0.001931 0.017545 0.000000 0.000000 0.000000
# 4 0.000000 0.000000 0.000000 0.002853 0.000000 0.000000
# 5 0.000000 0.000000 0.000000 0.000000 -0.054081 0.000000
# 6 0.000000 0.000000 0.000000 0.000000 0.000000 0.026586
#
#
# Mechanical properties :
#
#
# Convention : Reuss Voigt Hill
#
# Bulk Modulus (GPa) = 43.05135 54.36983 48.71059
# Shear Modulus (GPa) = 108.19946 87.05613 97.62779
#
# Velocity S-wave (km/s) = 6.79632 6.09622 6.45577
# Velocity P-wave (km/s) = 8.94231 8.53007 8.73863
#
# Compressibility (1/GPa) = 0.02322808
#
# Stress axis : x y z
#
# Youngs Moduli (GPa) = 64.51185 98.77686 56.99777
#
# Poissons Ratio (x) = 0.63872 0.08967
# Poissons Ratio (y) = 0.41715 0.11007
# Poissons Ratio (z) = 0.10149 0.19075
#
# Static dielectric constant tensor:
#      x y z
#    x 1.927770 0.000000 0.000000 
#    y 0.000000 1.967340 0.000000 
#    z 0.000000 0.000000 1.904460 
# 
# From -- ./inp_files/12818.got.cif
#   From: 2010.05.17/outbox.cif.g08.bks.cpg/sg68_7_cif.got.tgz:12818.got - 2010.06.03 18:57:09.
