data_PCOD9508077
_publ_section_title
;
Structure prediction by ZEFSAII (Michael W. Deem and Ramdas Pophale) SiO2 
 PCOD9508077
Probable space group: C C C A
;
_chemical_formula_sum "Si O2"
_cell_formula_units_Z 88
_cell_length_a 5.454849
_cell_length_b 23.880070
_cell_length_c 31.089614
_cell_angle_alpha 90.000000
_cell_angle_beta 90.000000
_cell_angle_gamma 90.000000
_cell_volume 4049.800769
_symmetry_space_group_name_H-M "C C C A"
_symmetry_group_IT_number 68
_space_group.IT_coordinate_system_code '2'
_symmetry_cell_setting 'orthorhombic'
loop_
_space_group_symop_operation_xyz
x,y,z
-x,1/2-y,z
x,1/2-y,1/2-z
-x,y,1/2-z
-x,-y,-z
x,1/2+y,-z
-x,1/2+y,1/2+z
x,-y,1/2+z
1/2+x,1/2+y,z
1/2-x,-y,z
1/2+x,-y,1/2-z
1/2-x,1/2+y,1/2-z
1/2-x,1/2-y,-z
1/2+x,y,-z
1/2-x,y,1/2+z
1/2+x,1/2-y,1/2+z
loop_
_atom_site_type_symbol
_atom_site_label
_atom_site_fract_x
_atom_site_fract_y
_atom_site_fract_z
Si Si1 0.981118 0.684563 0.527424
Si Si2 0.750000 0.500000 0.473022
Si Si3 0.744767 0.274270 0.201438
Si Si4 0.250000 0.500000 0.869587
Si Si5 0.500000 0.128549 0.250000
Si Si6 0.356021 0.562687 0.674102
Si Si7 0.604827 0.911995 0.089821
O O1 0.724321 0.675219 0.502197
O O2 0.000000 0.750000 0.540317
O O3 0.995079 0.642410 0.567614
O O4 0.500000 0.500000 0.500000
O O5 0.774349 0.556439 0.444588
O O6 0.500000 0.250000 0.179009
O O7 0.749853 0.250000 0.250000
O O8 0.667885 0.337163 0.215364
O O9 0.000000 0.250000 0.182466
O O10 0.368903 0.547358 0.839441
O O11 0.420932 0.462839 0.899660
O O12 0.330075 0.091926 0.280607
O O13 0.250000 0.500000 0.674498
O O14 0.239088 0.597752 0.635148
#
# Coordination Sequence:
#
# PCOD9508077 Si02
#       7
#    16   8  16   8   8  16  16
#     4  10  23  42  69 102 138 182 227 277 332 419
#     4  12  23  34  63  98 124 166 222 267 330 409
#     4   8  16  36  60  87 119 148 203 283 324 376
#     4  10  21  42  61  88 138 178 216 289 342 401
#     4  10  21  40  68  98 122 188 235 278 364 414
#     4  10  23  42  60  95 136 177 228 289 344 423
#     4  11  22  41  63  93 139 175 217 281 347 399
#
# _framework density 21.729465000000001
#
# number of rings (size 3 to 8) (size 9 to 14) (size 15 to 20)
#    0.000    2.182    2.727    1.636    3.818    0.000 
#   26.182    0.909    8.000    0.000    0.000    0.000 
#    0.000    0.000    0.000    0.000    0.000    0.000 
#
# Total GULP energy -244987.159381 kJ/mol
# GULP energy per Si atom -5567.889986 kJ/mol
# Density = 2.168001 g / cm^3
# Si number density = 21.729465 Si / 1000 Ang^3
#
#
#
# Elastic Constant Matrix: (Units=GPa)
#
#
# Indices 1 2 3 4 5 6 
#
# 1 122.3007 22.3649 29.4709 0.0000 0.0000 0.0000
# 2 22.3649 102.2042 52.3608 0.0000 0.0000 0.0000
# 3 29.4709 52.3608 90.3044 0.0000 0.0000 0.0000
# 4 0.0000 0.0000 0.0000 29.8019 0.0000 0.0000
# 5 0.0000 0.0000 0.0000 0.0000 12.9750 0.0000
# 6 0.0000 0.0000 0.0000 0.0000 0.0000 12.1727
#
#
#
# Elastic Compliance Matrix: (Units=1/GPa)
#
#
# Indices 1 2 3 4 5 6 
#
# 1 0.008905 -0.000654 -0.002527 0.000000 0.000000 0.000000
# 2 -0.000654 0.013967 -0.007885 0.000000 0.000000 0.000000
# 3 -0.002527 -0.007885 0.016470 0.000000 0.000000 0.000000
# 4 0.000000 0.000000 0.000000 0.033555 0.000000 0.000000
# 5 0.000000 0.000000 0.000000 0.000000 0.077072 0.000000
# 6 0.000000 0.000000 0.000000 0.000000 0.000000 0.082151
#
#
# Mechanical properties :
#
#
# Convention : Reuss Voigt Hill
#
# Bulk Modulus (GPa) = 58.10444 58.13361 58.11903
# Shear Modulus (GPa) = 19.23161 25.03078 22.13120
#
# Velocity S-wave (km/s) = 2.97820 3.39769 3.19484
# Velocity P-wave (km/s) = 6.21484 6.49645 6.35720
#
# Compressibility (1/GPa) = 0.01721039
#
# Stress axis : x y z
#
# Youngs Moduli (GPa) = 112.29533 71.59704 60.71559
#
# Poissons Ratio (x) = 0.04683 0.15342
# Poissons Ratio (y) = 0.07345 0.47874
# Poissons Ratio (z) = 0.28376 0.56454
#
# Static dielectric constant tensor:
#      x y z
#    x 2.083460 0.000000 0.000000 
#    y 0.000000 1.861340 0.000000 
#    z 0.000000 0.000000 1.792610 
# 
# From -- ./inp_files/53292.got.cif
#   From: 2010.05.17/outbox.cif.g08.bks.cpg/sg68_27_cif.got.tgz:53292.got - 2010.06.03 18:57:09.
