data_PCOD9508098
_publ_section_title
;
Structure prediction by ZEFSAII (Michael W. Deem and Ramdas Pophale) SiO2 
 PCOD9508098
Probable space group: C C C A
;
_chemical_formula_sum "Si O2"
_cell_formula_units_Z 112
_cell_length_a 14.212437
_cell_length_b 32.304136
_cell_length_c 10.800092
_cell_angle_alpha 90.000000
_cell_angle_beta 90.000000
_cell_angle_gamma 90.000000
_cell_volume 4958.543615
_symmetry_space_group_name_H-M "C C C A"
_symmetry_group_IT_number 68
_space_group.IT_coordinate_system_code '2'
_symmetry_cell_setting 'orthorhombic'
loop_
_space_group_symop_operation_xyz
x,y,z
-x,1/2-y,z
x,1/2-y,1/2-z
-x,y,1/2-z
-x,-y,-z
x,1/2+y,-z
-x,1/2+y,1/2+z
x,-y,1/2+z
1/2+x,1/2+y,z
1/2-x,-y,z
1/2+x,-y,1/2-z
1/2-x,1/2+y,1/2-z
1/2-x,1/2-y,-z
1/2+x,y,-z
1/2-x,y,1/2+z
1/2+x,1/2-y,1/2+z
loop_
_atom_site_type_symbol
_atom_site_label
_atom_site_fract_x
_atom_site_fract_y
_atom_site_fract_z
Si Si1 0.612997 0.532230 0.379357
Si Si2 0.897535 0.242897 0.046811
Si Si3 0.757248 0.602193 0.946687
Si Si4 0.724475 0.803752 0.616848
Si Si5 0.157563 0.413494 0.810030
Si Si6 0.909466 0.823374 0.331746
Si Si7 0.898848 0.497136 0.123920
O O1 0.853052 0.421727 0.409229
O O2 0.650620 0.522079 0.243223
O O3 0.500412 0.524961 0.382841
O O4 0.645158 0.500351 0.487450
O O5 0.814469 0.225189 0.129389
O O6 0.000000 0.250000 0.102610
O O7 0.851971 0.281445 0.971909
O O8 0.913547 0.205768 0.948871
O O9 0.753537 0.651711 0.938639
O O10 0.686456 0.588717 0.835079
O O11 0.753579 0.588980 0.092242
O O12 0.680111 0.811081 0.750121
O O13 0.099039 0.372589 0.846936
O O14 0.097700 0.454446 0.837810
O O15 0.000000 0.814271 0.250000
#
# Coordination Sequence:
#
# PCOD9508098 Si02
#       7
#    16  16  16  16  16  16  16
#     4   9  19  36  62  84 126 158 222 266 341 390
#     4  11  21  39  67 100 133 179 228 285 347 423
#     4  10  21  41  60  94 129 176 210 287 347 409
#     4  10  22  37  63  97 136 169 226 285 344 406
#     4  10  22  38  65  94 136 164 228 278 347 408
#     4  11  21  37  66 102 131 179 230 290 340 417
#     4   9  19  37  60  92 117 171 214 276 322 407
#
# _framework density 22.587278000000001
#
# number of rings (size 3 to 8) (size 9 to 14) (size 15 to 20)
#    0.000    2.000    2.857    0.429    2.000    1.714 
#    0.000    2.857    9.429    6.857    0.000    0.000 
#    0.000    0.000    0.000    0.000    0.000    0.000 
#
# Total GULP energy -312424.605767 kJ/mol
# GULP energy per Si atom -5579.010817 kJ/mol
# Density = 2.253587 g / cm^3
# Si number density = 22.587278 Si / 1000 Ang^3
#
#
#
# Elastic Constant Matrix: (Units=GPa)
#
#
# Indices 1 2 3 4 5 6 
#
# 1 99.6679 39.8875 14.6101 0.0000 0.0000 0.0000
# 2 39.8875 127.0716 19.7930 0.0000 0.0000 0.0000
# 3 14.6101 19.7930 104.5634 0.0000 0.0000 0.0000
# 4 0.0000 0.0000 0.0000 30.2078 0.0000 0.0000
# 5 0.0000 0.0000 0.0000 0.0000 22.1105 0.0000
# 6 0.0000 0.0000 0.0000 0.0000 0.0000 18.3960
#
#
#
# Elastic Compliance Matrix: (Units=1/GPa)
#
#
# Indices 1 2 3 4 5 6 
#
# 1 0.011567 -0.003482 -0.000957 0.000000 0.000000 0.000000
# 2 -0.003482 0.009157 -0.001247 0.000000 0.000000 0.000000
# 3 -0.000957 -0.001247 0.009933 0.000000 0.000000 0.000000
# 4 0.000000 0.000000 0.000000 0.033104 0.000000 0.000000
# 5 0.000000 0.000000 0.000000 0.000000 0.045227 0.000000
# 6 0.000000 0.000000 0.000000 0.000000 0.000000 0.054360
#
#
# Mechanical properties :
#
#
# Convention : Reuss Voigt Hill
#
# Bulk Modulus (GPa) = 51.85203 53.32045 52.58624
# Shear Modulus (GPa) = 27.60169 31.27699 29.43934
#
# Velocity S-wave (km/s) = 3.49951 3.72522 3.61412
# Velocity P-wave (km/s) = 6.27175 6.49312 6.38340
#
# Compressibility (1/GPa) = 0.01928565
#
# Stress axis : x y z
#
# Youngs Moduli (GPa) = 86.45250 109.20955 100.67131
#
# Poissons Ratio (x) = 0.38024 0.09636
# Poissons Ratio (y) = 0.30101 0.12552
# Poissons Ratio (z) = 0.08275 0.13616
#
# Static dielectric constant tensor:
#      x y z
#    x 1.881070 0.000000 0.000000 
#    y 0.000000 1.833220 0.000000 
#    z 0.000000 0.000000 1.923180 
# 
# From -- ./inp_files/13617.got.cif
#   From: 2010.05.17/outbox.cif.g08.bks.cpg/sg68_7_cif.got.tgz:13617.got - 2010.06.03 18:57:09.
