data_PCOD9508051
_publ_section_title
;
Structure prediction by ZEFSAII (Michael W. Deem and Ramdas Pophale) SiO2 
 PCOD9508051
Probable space group: C C C A
;
_chemical_formula_sum "Si O2"
_cell_formula_units_Z 112
_cell_length_a 14.108574
_cell_length_b 14.638521
_cell_length_c 26.972889
_cell_angle_alpha 90.000000
_cell_angle_beta 90.000000
_cell_angle_gamma 90.000000
_cell_volume 5570.674535
_symmetry_space_group_name_H-M "C C C A"
_symmetry_group_IT_number 68
_space_group.IT_coordinate_system_code '2'
_symmetry_cell_setting 'orthorhombic'
loop_
_space_group_symop_operation_xyz
x,y,z
-x,1/2-y,z
x,1/2-y,1/2-z
-x,y,1/2-z
-x,-y,-z
x,1/2+y,-z
-x,1/2+y,1/2+z
x,-y,1/2+z
1/2+x,1/2+y,z
1/2-x,-y,z
1/2+x,-y,1/2-z
1/2-x,1/2+y,1/2-z
1/2-x,1/2-y,-z
1/2+x,y,-z
1/2-x,y,1/2+z
1/2+x,1/2-y,1/2+z
loop_
_atom_site_type_symbol
_atom_site_label
_atom_site_fract_x
_atom_site_fract_y
_atom_site_fract_z
Si Si1 0.873472 0.411659 0.178341
Si Si2 0.356464 0.280290 0.990200
Si Si3 0.111375 0.234189 0.375420
Si Si4 0.750000 0.500000 0.763081
Si Si5 0.591984 0.469485 0.840114
Si Si6 0.085021 0.957188 0.446371
Si Si7 0.250000 0.000000 0.095139
Si Si8 0.617653 0.592526 0.523725
O O1 0.854356 0.305966 0.165428
O O2 0.806332 0.434000 0.224870
O O3 0.831969 0.464656 0.130773
O O4 0.985058 0.443510 0.180334
O O5 0.367009 0.270147 0.930992
O O6 0.250000 0.250000 0.000000
O O7 0.379075 0.372635 0.020023
O O8 0.412084 0.195702 0.014959
O O9 0.131059 0.129376 0.360241
O O10 0.000000 0.250000 0.373077
O O11 0.661455 0.516257 0.800261
O O12 0.594612 0.536572 0.887624
O O13 0.971742 0.961398 0.454317
O O14 0.134098 0.045757 0.470667
O O15 0.206085 0.923393 0.059352
#
# Coordination Sequence:
#
# PCOD9508051 Si02
#       8
#    16  16  16   8  16  16   8  16
#     4  10  22  44  67  97 124 171 228 281 345 398
#     4  12  24  35  59  96 139 181 223 259 321 401
#     4  10  21  40  66  93 129 170 224 275 324 391
#     4  11  26  41  70  94 126 161 222 291 354 400
#     4  11  23  43  69  98 134 172 221 288 341 393
#     4  11  23  37  61  91 138 178 216 271 323 393
#     4  11  20  37  64  92 134 185 218 265 312 406
#     4  11  21  37  59  93 135 180 221 256 320 396
#
# _framework density 20.105284999999999
#
# number of rings (size 3 to 8) (size 9 to 14) (size 15 to 20)
#    0.000    1.143    2.857    4.286    6.000    1.143 
#    0.000    2.143    0.000    0.000    0.000    4.000 
#    0.000    0.000    0.000    0.000    0.000    0.000 
#
# Total GULP energy -311824.972642 kJ/mol
# GULP energy per Si atom -5568.303083 kJ/mol
# Density = 2.005952 g / cm^3
# Si number density = 20.105285 Si / 1000 Ang^3
#
#
#
# Elastic Constant Matrix: (Units=GPa)
#
#
# Indices 1 2 3 4 5 6 
#
# 1 70.4287 26.3476 44.8496 0.0000 0.0000 0.0000
# 2 26.3476 89.0837 35.4348 0.0000 0.0000 0.0000
# 3 44.8496 35.4348 134.6698 0.0000 0.0000 0.0000
# 4 0.0000 0.0000 0.0000 9.8748 0.0000 0.0000
# 5 0.0000 0.0000 0.0000 0.0000 -22.7033 0.0000
# 6 0.0000 0.0000 0.0000 0.0000 0.0000 25.9060
#
#
#
# Elastic Compliance Matrix: (Units=1/GPa)
#
#
# Indices 1 2 3 4 5 6 
#
# 1 0.018925 -0.003452 -0.005395 0.000000 0.000000 0.000000
# 2 -0.003452 0.013167 -0.002315 0.000000 0.000000 0.000000
# 3 -0.005395 -0.002315 0.009831 0.000000 0.000000 0.000000
# 4 0.000000 0.000000 0.000000 0.101268 0.000000 0.000000
# 5 0.000000 0.000000 0.000000 0.000000 -0.044047 0.000000
# 6 0.000000 0.000000 0.000000 0.000000 0.000000 0.038601
#
#
# Mechanical properties :
#
#
# Convention : Reuss Voigt Hill
#
# Bulk Modulus (GPa) = 51.01722 56.38292 53.70007
# Shear Modulus (GPa) = 30.01162 15.11885 22.56524
#
# Velocity S-wave (km/s) = 3.86777 2.74521 3.35379
# Velocity P-wave (km/s) = 6.73619 6.17681 6.46255
#
# Compressibility (1/GPa) = 0.01960123
#
# Stress axis : x y z
#
# Youngs Moduli (GPa) = 52.83929 75.94672 101.71596
#
# Poissons Ratio (x) = 0.26214 0.54871
# Poissons Ratio (y) = 0.18238 0.23548
# Poissons Ratio (z) = 0.28505 0.17582
#
# Static dielectric constant tensor:
#      x y z
#    x 1.812250 0.000000 0.000000 
#    y 0.000000 1.882080 0.000000 
#    z 0.000000 0.000000 1.660170 
# 
# From -- ./inp_files/51020.got.cif
#   From: 2010.05.17/outbox.cif.g08.bks.cpg/sg68_26_cif.got.tgz:51020.got - 2010.06.03 18:57:09.
