data_PCOD9509178
_publ_section_title
;
Structure prediction by ZEFSAII (Michael W. Deem and Ramdas Pophale) SiO2 
 PCOD9509178
Probable space group: C C C A
;
_chemical_formula_sum "Si O2"
_cell_formula_units_Z 80
_cell_length_a 11.530845
_cell_length_b 22.787605
_cell_length_c 13.932911
_cell_angle_alpha 90.000000
_cell_angle_beta 90.000000
_cell_angle_gamma 90.000000
_cell_volume 3661.016448
_symmetry_space_group_name_H-M "C C C A"
_symmetry_group_IT_number 68
_space_group.IT_coordinate_system_code '2'
_symmetry_cell_setting 'orthorhombic'
loop_
_space_group_symop_operation_xyz
x,y,z
-x,1/2-y,z
x,1/2-y,1/2-z
-x,y,1/2-z
-x,-y,-z
x,1/2+y,-z
-x,1/2+y,1/2+z
x,-y,1/2+z
1/2+x,1/2+y,z
1/2-x,-y,z
1/2+x,-y,1/2-z
1/2-x,1/2+y,1/2-z
1/2-x,1/2-y,-z
1/2+x,y,-z
1/2-x,y,1/2+z
1/2+x,1/2-y,1/2+z
loop_
_atom_site_type_symbol
_atom_site_label
_atom_site_fract_x
_atom_site_fract_y
_atom_site_fract_z
Si Si1 0.124342 0.270424 0.956011
Si Si2 0.250000 0.500000 0.465023
Si Si3 0.313807 0.750000 0.750000
Si Si4 0.366944 0.654830 0.252341
Si Si5 0.053486 0.539699 0.850059
Si Si6 0.851338 0.606559 0.955394
O O1 0.119606 0.241024 0.849507
O O2 0.000000 0.250000 0.003337
O O3 0.250000 0.250000 0.000000
O O4 0.125399 0.341786 0.968146
O O5 0.137559 0.505500 0.399199
O O6 0.251526 0.560861 0.522212
O O7 0.226658 0.800225 0.713689
O O8 0.500000 0.676648 0.250000
O O9 0.373059 0.596314 0.315475
O O10 0.330529 0.639859 0.144352
O O11 0.000000 0.517563 0.750000
O O12 0.959212 0.564644 0.924344
#
# Coordination Sequence:
#
# PCOD9509178 Si02
#       6
#    16   8   8  16  16  16
#     4  12  28  45  70 103 144 183 234 284 358 419
#     4  12  22  40  68  94 134 182 232 292 356 410
#     4  12  22  40  66 104 135 184 221 300 345 412
#     4   9  20  36  64  96 137 177 236 276 346 427
#     4   9  22  40  60  95 131 176 236 281 343 423
#     4  10  23  41  65 101 131 180 234 289 338 427
#
# _framework density 21.851853999999999
#
# number of rings (size 3 to 8) (size 9 to 14) (size 15 to 20)
#    0.000    2.000    2.000    2.400    8.400    3.200 
#    0.000    4.000    0.000    0.000    0.000    0.000 
#    0.000    0.000    0.000    0.000    0.000    0.000 
#
# Total GULP energy -222755.991242 kJ/mol
# GULP energy per Si atom -5568.899781 kJ/mol
# Density = 2.180212 g / cm^3
# Si number density = 21.851854 Si / 1000 Ang^3
#
#
#
# Elastic Constant Matrix: (Units=GPa)
#
#
# Indices 1 2 3 4 5 6 
#
# 1 96.2437 15.0055 26.3080 0.0000 0.0000 0.0000
# 2 15.0055 31.4070 14.6315 0.0000 0.0000 0.0000
# 3 26.3080 14.6315 95.3464 0.0000 0.0000 0.0000
# 4 0.0000 0.0000 0.0000 9.5067 0.0000 0.0000
# 5 0.0000 0.0000 0.0000 0.0000 22.2397 0.0000
# 6 0.0000 0.0000 0.0000 0.0000 0.0000 35.9444
#
#
#
# Elastic Compliance Matrix: (Units=1/GPa)
#
#
# Indices 1 2 3 4 5 6 
#
# 1 0.011784 -0.004432 -0.002571 0.000000 0.000000 0.000000
# 2 -0.004432 0.035959 -0.004295 0.000000 0.000000 0.000000
# 3 -0.002571 -0.004295 0.011857 0.000000 0.000000 0.000000
# 4 0.000000 0.000000 0.000000 0.105188 0.000000 0.000000
# 5 0.000000 0.000000 0.000000 0.000000 0.044965 0.000000
# 6 0.000000 0.000000 0.000000 0.000000 0.000000 0.027821
#
#
# Mechanical properties :
#
#
# Convention : Reuss Voigt Hill
#
# Bulk Modulus (GPa) = 27.02556 37.20966 32.11761
# Shear Modulus (GPa) = 18.34830 24.67498 21.51164
#
# Velocity S-wave (km/s) = 2.90085 3.36399 3.14097
# Velocity P-wave (km/s) = 4.85946 5.67042 5.28053
#
# Compressibility (1/GPa) = 0.03700200
#
# Stress axis : x y z
#
# Youngs Moduli (GPa) = 84.85938 27.80977 84.34077
#
# Poissons Ratio (x) = 0.12326 0.21687
# Poissons Ratio (y) = 0.37612 0.36225
# Poissons Ratio (z) = 0.21820 0.11945
#
# Static dielectric constant tensor:
#      x y z
#    x 1.847820 0.000000 0.000000 
#    y 0.000000 1.856950 0.000000 
#    z 0.000000 0.000000 1.674110 
# 
# From -- ./inp_files/20902.got.cif
#   From: 2010.05.17/outbox.cif.g08.bks.cpg/sg68_11_cif.got.tgz:20902.got - 2010.06.03 18:57:09.
