data_PCOD9509095
_publ_section_title
;
Structure prediction by ZEFSAII (Michael W. Deem and Ramdas Pophale) SiO2 
 PCOD9509095
Probable space group: C C C A
;
_chemical_formula_sum "Si O2"
_cell_formula_units_Z 112
_cell_length_a 14.230996
_cell_length_b 15.550592
_cell_length_c 20.220082
_cell_angle_alpha 90.000000
_cell_angle_beta 90.000000
_cell_angle_gamma 90.000000
_cell_volume 4474.712488
_symmetry_space_group_name_H-M "C C C A"
_symmetry_group_IT_number 68
_space_group.IT_coordinate_system_code '2'
_symmetry_cell_setting 'orthorhombic'
loop_
_space_group_symop_operation_xyz
x,y,z
-x,1/2-y,z
x,1/2-y,1/2-z
-x,y,1/2-z
-x,-y,-z
x,1/2+y,-z
-x,1/2+y,1/2+z
x,-y,1/2+z
1/2+x,1/2+y,z
1/2-x,-y,z
1/2+x,-y,1/2-z
1/2-x,1/2+y,1/2-z
1/2-x,1/2-y,-z
1/2+x,y,-z
1/2-x,y,1/2+z
1/2+x,1/2-y,1/2+z
loop_
_atom_site_type_symbol
_atom_site_label
_atom_site_fract_x
_atom_site_fract_y
_atom_site_fract_z
Si Si1 0.942678 0.376605 0.638710
Si Si2 0.643283 0.302372 0.340946
Si Si3 0.097405 0.281334 0.407865
Si Si4 0.998200 0.562328 0.848190
Si Si5 0.399530 0.942156 0.493051
Si Si6 0.659749 0.832586 0.205568
Si Si7 0.690219 0.123211 0.016560
O O1 0.866236 0.302088 0.655535
O O2 0.939992 0.392535 0.557999
O O3 0.038936 0.338939 0.669689
O O4 0.944247 0.474869 0.664451
O O5 0.726705 0.339692 0.294414
O O6 0.662484 0.340389 0.413236
O O7 0.139104 0.205035 0.366534
O O8 0.171367 0.308086 0.460920
O O9 0.000000 0.250000 0.440075
O O10 0.068831 0.357887 0.358010
O O11 0.951865 0.555456 0.922228
O O12 0.913882 0.587790 0.796620
O O13 0.296750 0.904441 0.482799
O O14 0.375314 0.042726 0.505332
O O15 0.634070 0.750000 0.250000
#
# Coordination Sequence:
#
# PCOD9509095 Si02
#       7
#    16  16  16  16  16  16  16
#     4  11  23  38  65 102 144 181 218 286 349 431
#     4  11  24  40  67  97 141 180 232 278 360 412
#     4  10  23  37  64  98 131 173 224 278 349 415
#     4  11  21  40  66  96 136 177 229 277 343 412
#     4  11  21  35  60 101 146 185 225 267 345 426
#     4  11  26  48  71  90 129 181 242 297 340 409
#     4  11  21  35  61 101 146 181 218 281 346 432
#
# _framework density 25.029541999999999
#
# number of rings (size 3 to 8) (size 9 to 14) (size 15 to 20)
#    0.000    1.143    4.286    2.143    6.000    4.286 
#    0.000    1.429    9.429    0.000    0.000    0.000 
#    0.000    0.000    0.000    0.000    0.000    0.000 
#
# Total GULP energy -312778.440180 kJ/mol
# GULP energy per Si atom -5585.329289 kJ/mol
# Density = 2.497257 g / cm^3
# Si number density = 25.029542 Si / 1000 Ang^3
#
#
#
# Elastic Constant Matrix: (Units=GPa)
#
#
# Indices 1 2 3 4 5 6 
#
# 1 88.7696 18.5698 15.9752 0.0000 0.0000 0.0000
# 2 18.5698 123.0743 13.6548 0.0000 0.0000 0.0000
# 3 15.9752 13.6548 67.2247 0.0000 0.0000 0.0000
# 4 0.0000 0.0000 0.0000 33.9343 0.0000 0.0000
# 5 0.0000 0.0000 0.0000 0.0000 23.3491 0.0000
# 6 0.0000 0.0000 0.0000 0.0000 0.0000 49.2118
#
#
#
# Elastic Compliance Matrix: (Units=1/GPa)
#
#
# Indices 1 2 3 4 5 6 
#
# 1 0.012045 -0.001534 -0.002551 0.000000 0.000000 0.000000
# 2 -0.001534 0.008508 -0.001364 0.000000 0.000000 0.000000
# 3 -0.002551 -0.001364 0.015759 0.000000 0.000000 0.000000
# 4 0.000000 0.000000 0.000000 0.029469 0.000000 0.000000
# 5 0.000000 0.000000 0.000000 0.000000 0.042828 0.000000
# 6 0.000000 0.000000 0.000000 0.000000 0.000000 0.020320
#
#
# Mechanical properties :
#
#
# Convention : Reuss Voigt Hill
#
# Bulk Modulus (GPa) = 39.34774 41.71867 40.53321
# Shear Modulus (GPa) = 33.71595 36.69028 35.20312
#
# Velocity S-wave (km/s) = 3.67419 3.83283 3.75435
# Velocity P-wave (km/s) = 5.80984 6.02424 5.91801
#
# Compressibility (1/GPa) = 0.02541442
#
# Stress axis : x y z
#
# Youngs Moduli (GPa) = 83.02103 117.53692 63.45741
#
# Poissons Ratio (x) = 0.18035 0.16186
# Poissons Ratio (y) = 0.12739 0.08653
# Poissons Ratio (z) = 0.21176 0.16026
#
# Static dielectric constant tensor:
#      x y z
#    x 1.945620 0.000000 0.000000 
#    y 0.000000 1.663120 0.000000 
#    z 0.000000 0.000000 1.996560 
# 
# From -- ./inp_files/45542.got.cif
#   From: 2010.05.17/outbox.cif.g08.bks.cpg/sg68_23_cif.got.tgz:45542.got - 2010.06.03 18:57:09.
