data_PCOD9509892
_publ_section_title
;
Structure prediction by ZEFSAII (Michael W. Deem and Ramdas Pophale) SiO2 
 PCOD9509892
Probable space group: C C C A
;
_chemical_formula_sum "Si O2"
_cell_formula_units_Z 40
_cell_length_a 11.527079
_cell_length_b 14.709581
_cell_length_c 9.762628
_cell_angle_alpha 90.000000
_cell_angle_beta 90.000000
_cell_angle_gamma 90.000000
_cell_volume 1655.336582
_symmetry_space_group_name_H-M "C C C A"
_symmetry_group_IT_number 68
_space_group.IT_coordinate_system_code '2'
_symmetry_cell_setting 'orthorhombic'
loop_
_space_group_symop_operation_xyz
x,y,z
-x,1/2-y,z
x,1/2-y,1/2-z
-x,y,1/2-z
-x,-y,-z
x,1/2+y,-z
-x,1/2+y,1/2+z
x,-y,1/2+z
1/2+x,1/2+y,z
1/2-x,-y,z
1/2+x,-y,1/2-z
1/2-x,1/2+y,1/2-z
1/2-x,1/2-y,-z
1/2+x,y,-z
1/2-x,y,1/2+z
1/2+x,1/2-y,1/2+z
loop_
_atom_site_type_symbol
_atom_site_label
_atom_site_fract_x
_atom_site_fract_y
_atom_site_fract_z
Si Si1 0.874590 0.929356 0.283386
Si Si2 0.500000 0.111611 0.750000
Si Si3 0.299108 0.343352 0.561823
O O1 0.792371 0.894393 0.161042
O O2 0.828207 0.900654 0.428820
O O3 0.000000 0.886479 0.250000
O O4 0.905803 0.036435 0.301481
O O5 0.579235 0.166467 0.644159
O O6 0.250000 0.250000 0.500000
#
# Coordination Sequence:
#
# PCOD9509892 Si02
#       3
#    16   8  16
#     4  10  27  50  80 111 162 219 281 318 411 504
#     4  10  26  50  86 106 162 216 272 324 411 502
#     4  12  26  49  80 124 161 207 273 351 412 475
#
# _framework density 24.164272
#
# number of rings (size 3 to 8) (size 9 to 14) (size 15 to 20)
#    1.200    0.000    0.000    3.600    5.600    6.400 
#    7.200    0.000    0.000    0.000    0.000    0.000 
#    0.000    0.000    0.000    0.000    0.000    0.000 
#
# Total GULP energy -111688.090463 kJ/mol
# GULP energy per Si atom -5584.404523 kJ/mol
# Density = 2.410927 g / cm^3
# Si number density = 24.164272 Si / 1000 Ang^3
#
#
#
# Elastic Constant Matrix: (Units=GPa)
#
#
# Indices 1 2 3 4 5 6 
#
# 1 225.5812 94.1121 148.1054 0.0000 0.0000 0.0000
# 2 94.1121 110.0183 53.2203 0.0000 0.0000 0.0000
# 3 148.1054 53.2203 204.1650 0.0000 0.0000 0.0000
# 4 0.0000 0.0000 0.0000 35.2988 0.0000 0.0000
# 5 0.0000 0.0000 0.0000 0.0000 69.0944 0.0000
# 6 0.0000 0.0000 0.0000 0.0000 0.0000 42.2346
#
#
#
# Elastic Compliance Matrix: (Units=1/GPa)
#
#
# Indices 1 2 3 4 5 6 
#
# 1 0.011615 -0.006705 -0.006678 0.000000 0.000000 0.000000
# 2 -0.006705 0.014272 0.001144 0.000000 0.000000 0.000000
# 3 -0.006678 0.001144 0.009444 0.000000 0.000000 0.000000
# 4 0.000000 0.000000 0.000000 0.028330 0.000000 0.000000
# 5 0.000000 0.000000 0.000000 0.000000 0.014473 0.000000
# 6 0.000000 0.000000 0.000000 0.000000 0.000000 0.023677
#
#
# Mechanical properties :
#
#
# Convention : Reuss Voigt Hill
#
# Bulk Modulus (GPa) = 92.14575 125.62668 108.88621
# Shear Modulus (GPa) = 38.48958 45.61400 42.05179
#
# Velocity S-wave (km/s) = 3.99536 4.34944 4.17615
# Velocity P-wave (km/s) = 7.71360 8.79346 8.27117
#
# Compressibility (1/GPa) = 0.01085237
#
# Stress axis : x y z
#
# Youngs Moduli (GPa) = 86.09927 70.06818 105.88855
#
# Poissons Ratio (x) = 0.46981 0.70708
# Poissons Ratio (y) = 0.57730 -0.12111
# Poissons Ratio (z) = 0.57493 -0.08014
#
# Static dielectric constant tensor:
#      x y z
#    x 1.012830 0.000000 0.000000 
#    y 0.000000 2.033040 0.000000 
#    z 0.000000 0.000000 1.871380 
# 
# From -- ./inp_files/3554.got.cif
#   From: 2010.05.17/outbox.cif.g08.bks.cpg/sg68_2_cif.got.tgz:3554.got - 2010.06.03 18:57:09.
