data_PCOD9509263
_publ_section_title
;
Structure prediction by ZEFSAII (Michael W. Deem and Ramdas Pophale) SiO2 
 PCOD9509263
Probable space group: C C C A
;
_chemical_formula_sum "Si O2"
_cell_formula_units_Z 80
_cell_length_a 23.889028
_cell_length_b 9.948945
_cell_length_c 15.289066
_cell_angle_alpha 90.000000
_cell_angle_beta 90.000000
_cell_angle_gamma 90.000000
_cell_volume 3633.761882
_symmetry_space_group_name_H-M "C C C A"
_symmetry_group_IT_number 68
_space_group.IT_coordinate_system_code '2'
_symmetry_cell_setting 'orthorhombic'
loop_
_space_group_symop_operation_xyz
x,y,z
-x,1/2-y,z
x,1/2-y,1/2-z
-x,y,1/2-z
-x,-y,-z
x,1/2+y,-z
-x,1/2+y,1/2+z
x,-y,1/2+z
1/2+x,1/2+y,z
1/2-x,-y,z
1/2+x,-y,1/2-z
1/2-x,1/2+y,1/2-z
1/2-x,1/2-y,-z
1/2+x,y,-z
1/2-x,y,1/2+z
1/2+x,1/2-y,1/2+z
loop_
_atom_site_type_symbol
_atom_site_label
_atom_site_fract_x
_atom_site_fract_y
_atom_site_fract_z
Si Si1 0.335709 0.158938 0.139302
Si Si2 0.726574 0.646904 0.070681
Si Si3 0.377454 0.819462 0.446809
Si Si4 0.500000 0.028720 0.750000
Si Si5 0.000000 0.750000 0.895594
Si Si6 0.382014 0.053810 0.304974
O O1 0.268746 0.173739 0.150307
O O2 0.353400 0.048714 0.209991
O O3 0.362518 0.304129 0.157080
O O4 0.357664 0.127266 0.041570
O O5 0.750000 0.500000 0.043814
O O6 0.662349 0.691709 0.076521
O O7 0.750000 0.750000 0.000000
O O8 0.443420 0.783904 0.447762
O O9 0.369743 0.932943 0.371808
O O10 0.515252 0.127013 0.830625
O O11 0.552306 0.945388 0.716285
#
# Coordination Sequence:
#
# PCOD9509263 Si02
#       6
#    16  16  16   8   8  16
#     4  10  24  42  67 100 137 174 240 272 363 409
#     4  10  24  43  71 100 140 182 223 290 351 417
#     4  10  23  42  75  95 143 179 233 287 352 411
#     4   9  20  39  64  90 148 177 231 284 360 392
#     4   9  20  40  64 105 124 192 230 281 346 433
#     4  10  23  44  64 100 137 184 225 295 334 430
#
# _framework density 22.015751999999999
#
# number of rings (size 3 to 8) (size 9 to 14) (size 15 to 20)
#    0.000    2.200    0.000    0.000   14.000    3.200 
#    7.200    4.000    0.000    0.000    0.000    0.000 
#    0.000    0.000    0.000    0.000    0.000    0.000 
#
# Total GULP energy -222899.300964 kJ/mol
# GULP energy per Si atom -5572.482524 kJ/mol
# Density = 2.196564 g / cm^3
# Si number density = 22.015752 Si / 1000 Ang^3
#
#
#
# Elastic Constant Matrix: (Units=GPa)
#
#
# Indices 1 2 3 4 5 6 
#
# 1 124.7082 50.4879 51.2425 0.0000 0.0000 0.0000
# 2 50.4879 126.2184 36.5926 0.0000 0.0000 0.0000
# 3 51.2425 36.5926 127.6795 0.0000 0.0000 0.0000
# 4 0.0000 0.0000 0.0000 27.9220 0.0000 0.0000
# 5 0.0000 0.0000 0.0000 0.0000 14.8433 0.0000
# 6 0.0000 0.0000 0.0000 0.0000 0.0000 163.4419
#
#
#
# Elastic Compliance Matrix: (Units=1/GPa)
#
#
# Indices 1 2 3 4 5 6 
#
# 1 0.010745 -0.003324 -0.003360 0.000000 0.000000 0.000000
# 2 -0.003324 0.009669 -0.001437 0.000000 0.000000 0.000000
# 3 -0.003360 -0.001437 0.009592 0.000000 0.000000 0.000000
# 4 0.000000 0.000000 0.000000 0.035814 0.000000 0.000000
# 5 0.000000 0.000000 0.000000 0.000000 0.067371 0.000000
# 6 0.000000 0.000000 0.000000 0.000000 0.000000 0.006118
#
#
# Mechanical properties :
#
#
# Convention : Reuss Voigt Hill
#
# Bulk Modulus (GPa) = 72.64924 72.80581 72.72753
# Shear Modulus (GPa) = 31.22286 57.26031 44.24159
#
# Velocity S-wave (km/s) = 3.76999 5.10541 4.48766
# Velocity P-wave (km/s) = 7.21255 8.23986 7.74326
#
# Compressibility (1/GPa) = 0.01376477
#
# Stress axis : x y z
#
# Youngs Moduli (GPa) = 93.06720 103.42316 104.24986
#
# Poissons Ratio (x) = 0.34378 0.35025
# Poissons Ratio (y) = 0.30935 0.14981
# Poissons Ratio (z) = 0.31268 0.14863
#
# Static dielectric constant tensor:
#      x y z
#    x 1.803510 0.000000 0.000000 
#    y 0.000000 1.774200 0.000000 
#    z 0.000000 0.000000 1.858580 
# 
# From -- ./inp_files/46884.got.cif
#   From: 2010.05.17/outbox.cif.g08.bks.cpg/sg68_24_cif.got.tgz:46884.got - 2010.06.03 18:57:09.
