data_PCOD9509816
_publ_section_title
;
Structure prediction by ZEFSAII (Michael W. Deem and Ramdas Pophale) SiO2 
 PCOD9509816
Probable space group: C C C A
;
_chemical_formula_sum "Si O2"
_cell_formula_units_Z 108
_cell_length_a 12.664321
_cell_length_b 31.009776
_cell_length_c 13.530779
_cell_angle_alpha 90.000000
_cell_angle_beta 90.000000
_cell_angle_gamma 90.000000
_cell_volume 5313.777185
_symmetry_space_group_name_H-M "C C C A"
_symmetry_group_IT_number 68
_space_group.IT_coordinate_system_code '2'
_symmetry_cell_setting 'orthorhombic'
loop_
_space_group_symop_operation_xyz
x,y,z
-x,1/2-y,z
x,1/2-y,1/2-z
-x,y,1/2-z
-x,-y,-z
x,1/2+y,-z
-x,1/2+y,1/2+z
x,-y,1/2+z
1/2+x,1/2+y,z
1/2-x,-y,z
1/2+x,-y,1/2-z
1/2-x,1/2+y,1/2-z
1/2-x,1/2-y,-z
1/2+x,y,-z
1/2-x,y,1/2+z
1/2+x,1/2-y,1/2+z
loop_
_atom_site_type_symbol
_atom_site_label
_atom_site_fract_x
_atom_site_fract_y
_atom_site_fract_z
Si Si1 0.700545 0.116475 0.798339
Si Si2 0.575250 0.059764 0.667274
Si Si3 0.000000 0.250000 0.250000
Si Si4 0.750000 0.000000 0.086104
Si Si5 0.394602 0.070154 0.515852
Si Si6 0.902227 0.370481 0.822569
Si Si7 0.684251 0.211847 0.878393
Si Si8 0.884025 0.726973 0.395395
O O1 0.610674 0.105155 0.716878
O O2 0.676239 0.087466 0.893336
O O3 0.806253 0.109508 0.738230
O O4 0.708117 0.164009 0.842745
O O5 0.500000 0.038646 0.750000
O O6 0.679392 0.032369 0.649856
O O7 0.508435 0.063292 0.567137
O O8 0.080361 0.224188 0.182144
O O9 0.834505 0.971783 0.024596
O O10 0.407721 0.104678 0.427311
O O11 0.886852 0.319187 0.841121
O O12 0.000000 0.376116 0.750000
O O13 0.787689 0.241825 0.861721
O O14 0.648631 0.216090 0.991900
O O15 0.000000 0.750000 0.389145
#
# Coordination Sequence:
#
# PCOD9509816 Si02
#       8
#    16  16   4   8  16  16  16  16
#     4  11  24  47  69 105 140 191 234 289 354 429
#     4  10  25  46  74 107 140 184 232 290 356 438
#     4  12  24  40  66 112 126 196 244 282 344 432
#     4  12  24  50  76 102 144 184 228 296 372 428
#     4  11  26  47  72 106 140 184 233 294 359 432
#     4  12  26  43  74 106 143 188 238 299 358 420
#     4  11  24  41  72 100 145 191 241 294 350 423
#     4  11  24  48  67 104 145 195 242 300 357 413
#
# _framework density 20.324525999999999
#
# number of rings (size 3 to 8) (size 9 to 14) (size 15 to 20)
#    0.000    0.889    3.704    2.222    5.185    4.444 
#    5.333    0.000    0.000    0.000    0.000    0.000 
#    0.000    0.000    0.000    0.000    0.000    0.000 
#
# Total GULP energy -301467.037681 kJ/mol
# GULP energy per Si atom -5582.722920 kJ/mol
# Density = 2.027827 g / cm^3
# Si number density = 20.324526 Si / 1000 Ang^3
#
#
#
# Elastic Constant Matrix: (Units=GPa)
#
#
# Indices 1 2 3 4 5 6 
#
# 1 155.5814 51.6619 59.2381 0.0000 0.0000 0.0000
# 2 51.6619 105.2604 42.4506 0.0000 0.0000 0.0000
# 3 59.2381 42.4506 107.4514 0.0000 0.0000 0.0000
# 4 0.0000 0.0000 0.0000 7.9974 0.0000 0.0000
# 5 0.0000 0.0000 0.0000 0.0000 49.6045 0.0000
# 6 0.0000 0.0000 0.0000 0.0000 0.0000 31.3578
#
#
#
# Elastic Compliance Matrix: (Units=1/GPa)
#
#
# Indices 1 2 3 4 5 6 
#
# 1 0.008780 -0.002804 -0.003733 0.000000 0.000000 0.000000
# 2 -0.002804 0.012196 -0.003273 0.000000 0.000000 0.000000
# 3 -0.003733 -0.003273 0.012657 0.000000 0.000000 0.000000
# 4 0.000000 0.000000 0.000000 0.125041 0.000000 0.000000
# 5 0.000000 0.000000 0.000000 0.000000 0.020159 0.000000
# 6 0.000000 0.000000 0.000000 0.000000 0.000000 0.031890
#
#
# Mechanical properties :
#
#
# Convention : Reuss Voigt Hill
#
# Bulk Modulus (GPa) = 71.35118 74.99937 73.17528
# Shear Modulus (GPa) = 21.27541 32.12144 26.69843
#
# Velocity S-wave (km/s) = 3.23892 3.97977 3.62830
# Velocity P-wave (km/s) = 7.01210 7.62228 7.32355
#
# Compressibility (1/GPa) = 0.01401518
#
# Stress axis : x y z
#
# Youngs Moduli (GPa) = 113.89900 81.99310 79.00640
#
# Poissons Ratio (x) = 0.22989 0.29490
# Poissons Ratio (y) = 0.31935 0.25855
# Poissons Ratio (z) = 0.42514 0.26833
#
# Static dielectric constant tensor:
#      x y z
#    x 1.630230 0.000000 0.000000 
#    y 0.000000 1.897790 0.000000 
#    z 0.000000 0.000000 1.733070 
# 
# From -- ./inp_files/21306.got.cif
#   From: 2010.05.17/outbox.cif.g08.bks.cpg/sg68_11_cif.got.tgz:21306.got - 2010.06.03 18:57:09.
