data_PCOD9509703
_publ_section_title
;
Structure prediction by ZEFSAII (Michael W. Deem and Ramdas Pophale) SiO2 
 PCOD9509703
Probable space group: C C C A
;
_chemical_formula_sum "Si O2"
_cell_formula_units_Z 64
_cell_length_a 22.594823
_cell_length_b 9.994677
_cell_length_c 10.381422
_cell_angle_alpha 90.000000
_cell_angle_beta 90.000000
_cell_angle_gamma 90.000000
_cell_volume 2344.415329
_symmetry_space_group_name_H-M "C C C A"
_symmetry_group_IT_number 68
_space_group.IT_coordinate_system_code '2'
_symmetry_cell_setting 'orthorhombic'
loop_
_space_group_symop_operation_xyz
x,y,z
-x,1/2-y,z
x,1/2-y,1/2-z
-x,y,1/2-z
-x,-y,-z
x,1/2+y,-z
-x,1/2+y,1/2+z
x,-y,1/2+z
1/2+x,1/2+y,z
1/2-x,-y,z
1/2+x,-y,1/2-z
1/2-x,1/2+y,1/2-z
1/2-x,1/2-y,-z
1/2+x,y,-z
1/2-x,y,1/2+z
1/2+x,1/2-y,1/2+z
loop_
_atom_site_type_symbol
_atom_site_label
_atom_site_fract_x
_atom_site_fract_y
_atom_site_fract_z
Si Si1 0.160214 0.216542 0.969935
Si Si2 0.688443 0.482762 0.153618
Si Si3 0.966894 0.625455 0.387719
Si Si4 0.590426 0.877081 0.176770
O O1 0.190402 0.326868 0.882021
O O2 0.100404 0.175216 0.897669
O O3 0.189530 0.083730 0.029584
O O4 0.139583 0.307367 0.089656
O O5 0.750000 0.500000 0.229733
O O6 0.627651 0.529648 0.223187
O O7 0.954214 0.467148 0.408566
O O8 0.000000 0.750000 0.454515
O O9 0.000000 0.617452 0.250000
O O10 0.563227 0.750000 0.250000
#
# Coordination Sequence:
#
# PCOD9509703 Si02
#       4
#    16  16  16  16
#     4  11  23  47  69 105 147 182 246 303 354 441
#     4  11  23  43  72 103 142 193 236 294 368 435
#     4  11  23  44  71  99 135 191 242 293 372 424
#     4  10  24  47  67 104 151 181 240 309 356 433
#
# _framework density 27.298916999999999
#
# number of rings (size 3 to 8) (size 9 to 14) (size 15 to 20)
#    0.000    1.250    2.500    3.750    0.000    2.500 
#   22.500    0.000    0.000    0.000    0.000    0.000 
#    0.000    0.000    0.000    0.000    0.000    0.000 
#
# Total GULP energy -178553.858621 kJ/mol
# GULP energy per Si atom -5579.808082 kJ/mol
# Density = 2.723678 g / cm^3
# Si number density = 27.298917 Si / 1000 Ang^3
#
#
#
# Elastic Constant Matrix: (Units=GPa)
#
#
# Indices 1 2 3 4 5 6 
#
# 1 117.6916 51.7939 17.3039 0.0000 0.0000 0.0000
# 2 51.7939 233.7086 43.2477 0.0000 0.0000 0.0000
# 3 17.3039 43.2477 59.5747 0.0000 0.0000 0.0000
# 4 0.0000 0.0000 0.0000 37.7627 0.0000 0.0000
# 5 0.0000 0.0000 0.0000 0.0000 -7.8826 0.0000
# 6 0.0000 0.0000 0.0000 0.0000 0.0000 12.8574
#
#
#
# Elastic Compliance Matrix: (Units=1/GPa)
#
#
# Indices 1 2 3 4 5 6 
#
# 1 0.009519 -0.001846 -0.001425 0.000000 0.000000 0.000000
# 2 -0.001846 0.005301 -0.003312 0.000000 0.000000 0.000000
# 3 -0.001425 -0.003312 0.019604 0.000000 0.000000 0.000000
# 4 0.000000 0.000000 0.000000 0.026481 0.000000 0.000000
# 5 0.000000 0.000000 0.000000 0.000000 -0.126862 0.000000
# 6 0.000000 0.000000 0.000000 0.000000 0.000000 0.077776
#
#
# Mechanical properties :
#
#
# Convention : Reuss Voigt Hill
#
# Bulk Modulus (GPa) = 47.04098 70.62953 58.83526
# Shear Modulus (GPa) = 155.91085 28.45612 92.18348
#
# Velocity S-wave (km/s) = 7.56548 3.23211 5.81734
# Velocity P-wave (km/s) = 9.67391 6.31328 8.16829
#
# Compressibility (1/GPa) = 0.02125806
#
# Stress axis : x y z
#
# Youngs Moduli (GPa) = 105.05768 188.65189 51.01067
#
# Poissons Ratio (x) = 0.34822 0.07268
# Poissons Ratio (y) = 0.19392 0.16894
# Poissons Ratio (z) = 0.14968 0.62480
#
# Static dielectric constant tensor:
#      x y z
#    x 0.000000 0.000000 0.000000 
#    y 0.000000 0.000000 0.000000 
#    z 0.000000 0.000000 0.000000 
# 
# From -- ./inp_files/15128.got.cif
#   From: 2010.05.17/outbox.cif.g08.bks.cpg/sg68_8_cif.got.tgz:15128.got - 2010.06.03 18:57:09.
