data_PCOD9509778
_publ_section_title
;
Structure prediction by ZEFSAII (Michael W. Deem and Ramdas Pophale) SiO2 
 PCOD9509778
Probable space group: C C C A
;
_chemical_formula_sum "Si O2"
_cell_formula_units_Z 44
_cell_length_a 19.547757
_cell_length_b 11.042772
_cell_length_c 9.882600
_cell_angle_alpha 90.000000
_cell_angle_beta 90.000000
_cell_angle_gamma 90.000000
_cell_volume 2133.272105
_symmetry_space_group_name_H-M "C C C A"
_symmetry_group_IT_number 68
_space_group.IT_coordinate_system_code '2'
_symmetry_cell_setting 'orthorhombic'
loop_
_space_group_symop_operation_xyz
x,y,z
-x,1/2-y,z
x,1/2-y,1/2-z
-x,y,1/2-z
-x,-y,-z
x,1/2+y,-z
-x,1/2+y,1/2+z
x,-y,1/2+z
1/2+x,1/2+y,z
1/2-x,-y,z
1/2+x,-y,1/2-z
1/2-x,1/2+y,1/2-z
1/2-x,1/2-y,-z
1/2+x,y,-z
1/2-x,y,1/2+z
1/2+x,1/2-y,1/2+z
loop_
_atom_site_type_symbol
_atom_site_label
_atom_site_fract_x
_atom_site_fract_y
_atom_site_fract_z
Si Si1 0.885393 0.102704 0.097728
Si Si2 0.774868 0.750000 0.750000
Si Si3 0.000000 0.750000 0.750000
Si Si4 0.858645 0.880976 0.293321
O O1 0.823287 0.194340 0.135285
O O2 0.952554 0.166925 0.155792
O O3 0.872626 0.980461 0.180770
O O4 0.886474 0.080589 0.938494
O O5 0.722804 0.647262 0.697378
O O6 0.888165 0.750000 0.250000
#
# Coordination Sequence:
#
# PCOD9509778 Si02
#       4
#    16   8   4  16
#     4  11  23  46  65  99 138 175 226 267 334 397
#     4   9  22  39  72  99 138 169 218 274 338 385
#     4  10  28  44  72  88 136 186 222 276 324 398
#     4  10  25  40  69 103 130 174 219 279 335 386
#
# _framework density 20.625592000000001
#
# number of rings (size 3 to 8) (size 9 to 14) (size 15 to 20)
#    1.091    0.727    0.000    2.182   10.182    4.364 
#    0.000    0.000    0.000    0.000    0.000    0.000 
#    0.000    0.000    0.000    0.000    0.000    0.000 
#
# Total GULP energy -122894.450488 kJ/mol
# GULP energy per Si atom -5586.111386 kJ/mol
# Density = 2.057865 g / cm^3
# Si number density = 20.625592 Si / 1000 Ang^3
#
#
#
# Elastic Constant Matrix: (Units=GPa)
#
#
# Indices 1 2 3 4 5 6 
#
# 1 93.7163 47.7197 37.6771 0.0000 0.0000 0.0000
# 2 47.7197 142.8973 71.9270 0.0000 0.0000 0.0000
# 3 37.6771 71.9270 180.8922 0.0000 0.0000 0.0000
# 4 0.0000 0.0000 0.0000 35.3709 0.0000 0.0000
# 5 0.0000 0.0000 0.0000 0.0000 1.2101 0.0000
# 6 0.0000 0.0000 0.0000 0.0000 0.0000 0.3035
#
#
#
# Elastic Compliance Matrix: (Units=1/GPa)
#
#
# Indices 1 2 3 4 5 6 
#
# 1 0.013073 -0.003745 -0.001234 0.000000 0.000000 0.000000
# 2 -0.003745 0.009822 -0.003125 0.000000 0.000000 0.000000
# 3 -0.001234 -0.003125 0.007028 0.000000 0.000000 0.000000
# 4 0.000000 0.000000 0.000000 0.028272 0.000000 0.000000
# 5 0.000000 0.000000 0.000000 0.000000 0.826403 0.000000
# 6 0.000000 0.000000 0.000000 0.000000 0.000000 3.295167
#
#
# Mechanical properties :
#
#
# Convention : Reuss Voigt Hill
#
# Bulk Modulus (GPa) = 72.91354 81.35037 77.13196
# Shear Modulus (GPa) = 1.19032 24.72235 12.95634
#
# Velocity S-wave (km/s) = 0.76050 3.46587 2.50905
# Velocity P-wave (km/s) = 6.01655 7.45275 6.77283
#
# Compressibility (1/GPa) = 0.01371487
#
# Stress axis : x y z
#
# Youngs Moduli (GPa) = 76.49142 101.81557 142.28986
#
# Poissons Ratio (x) = 0.38126 0.17559
# Poissons Ratio (y) = 0.28643 0.44471
# Poissons Ratio (z) = 0.09439 0.31821
#
# Static dielectric constant tensor:
#      x y z
#    x 1.743790 0.000000 0.000000 
#    y 0.000000 1.730750 0.000000 
#    z 0.000000 0.000000 1.685240 
# 
# From -- ./inp_files/3664.got.cif
#   From: 2010.05.17/outbox.cif.g08.bks.cpg/sg68_2_cif.got.tgz:3664.got - 2010.06.03 18:57:09.
