data_PCOD9509336
_publ_section_title
;
Structure prediction by ZEFSAII (Michael W. Deem and Ramdas Pophale) SiO2 
 PCOD9509336
Probable space group: C C C A
;
_chemical_formula_sum "Si O2"
_cell_formula_units_Z 80
_cell_length_a 14.817848
_cell_length_b 20.112875
_cell_length_c 11.559649
_cell_angle_alpha 90.000000
_cell_angle_beta 90.000000
_cell_angle_gamma 90.000000
_cell_volume 3445.116696
_symmetry_space_group_name_H-M "C C C A"
_symmetry_group_IT_number 68
_space_group.IT_coordinate_system_code '2'
_symmetry_cell_setting 'orthorhombic'
loop_
_space_group_symop_operation_xyz
x,y,z
-x,1/2-y,z
x,1/2-y,1/2-z
-x,y,1/2-z
-x,-y,-z
x,1/2+y,-z
-x,1/2+y,1/2+z
x,-y,1/2+z
1/2+x,1/2+y,z
1/2-x,-y,z
1/2+x,-y,1/2-z
1/2-x,1/2+y,1/2-z
1/2-x,1/2-y,-z
1/2+x,y,-z
1/2-x,y,1/2+z
1/2+x,1/2-y,1/2+z
loop_
_atom_site_type_symbol
_atom_site_label
_atom_site_fract_x
_atom_site_fract_y
_atom_site_fract_z
Si Si1 0.322173 0.447217 0.493868
Si Si2 0.908429 0.284654 0.556784
Si Si3 0.164227 0.143592 0.965106
Si Si4 0.984711 0.382996 0.386194
Si Si5 0.897836 0.088355 0.775600
O O1 0.250000 0.500000 0.537932
O O2 0.260862 0.380567 0.491421
O O3 0.413573 0.438601 0.567823
O O4 0.350982 0.463309 0.362233
O O5 0.840958 0.223047 0.549157
O O6 0.933453 0.316473 0.432019
O O7 0.898741 0.344852 0.646214
O O8 0.000000 0.250000 0.598820
O O9 0.149075 0.108519 0.842096
O O10 0.080787 0.119777 0.046655
O O11 0.000000 0.385583 0.250000
O O12 0.000000 0.068057 0.750000
#
# Coordination Sequence:
#
# PCOD9509336 Si02
#       5
#    16  16  16  16  16
#     4  11  27  47  68 100 139 186 249 298 337 410
#     4   9  18  36  71 101 137 175 223 284 356 429
#     4  11  23  40  71 104 139 180 230 291 360 425
#     4  10  23  44  68 103 143 184 229 282 359 424
#     4  11  20  42  70 101 133 180 231 290 360 420
#
# _framework density 23.221274000000001
#
# number of rings (size 3 to 8) (size 9 to 14) (size 15 to 20)
#    0.000    1.600    6.000    0.600    2.800    8.400 
#    0.000    0.000    4.400    0.000    0.000    0.000 
#    0.000    0.000    0.000    0.000    0.000    0.000 
#
# Total GULP energy -223446.156925 kJ/mol
# GULP energy per Si atom -5586.153923 kJ/mol
# Density = 2.316842 g / cm^3
# Si number density = 23.221274 Si / 1000 Ang^3
#
#
#
# Elastic Constant Matrix: (Units=GPa)
#
#
# Indices 1 2 3 4 5 6 
#
# 1 122.2015 8.1697 42.2368 0.0000 0.0000 0.0000
# 2 8.1697 53.0730 4.7258 0.0000 0.0000 0.0000
# 3 42.2368 4.7258 161.6001 0.0000 0.0000 0.0000
# 4 0.0000 0.0000 0.0000 2.4663 0.0000 0.0000
# 5 0.0000 0.0000 0.0000 0.0000 36.4736 0.0000
# 6 0.0000 0.0000 0.0000 0.0000 0.0000 32.3352
#
#
#
# Elastic Compliance Matrix: (Units=1/GPa)
#
#
# Indices 1 2 3 4 5 6 
#
# 1 0.009070 -0.001188 -0.002336 0.000000 0.000000 0.000000
# 2 -0.001188 0.019047 -0.000246 0.000000 0.000000 0.000000
# 3 -0.002336 -0.000246 0.006806 0.000000 0.000000 0.000000
# 4 0.000000 0.000000 0.000000 0.405469 0.000000 0.000000
# 5 0.000000 0.000000 0.000000 0.000000 0.027417 0.000000
# 6 0.000000 0.000000 0.000000 0.000000 0.000000 0.030926
#
#
# Mechanical properties :
#
#
# Convention : Reuss Voigt Hill
#
# Bulk Modulus (GPa) = 36.52074 49.68215 43.10144
# Shear Modulus (GPa) = 9.70114 33.03784 21.36949
#
# Velocity S-wave (km/s) = 2.04616 3.77602 3.03686
# Velocity P-wave (km/s) = 4.61993 6.36024 5.55861
#
# Compressibility (1/GPa) = 0.02738170
#
# Stress axis : x y z
#
# Youngs Moduli (GPa) = 110.25380 52.50217 146.93281
#
# Poissons Ratio (x) = 0.06238 0.34321
# Poissons Ratio (y) = 0.13100 0.03621
# Poissons Ratio (z) = 0.25754 0.01294
#
# Static dielectric constant tensor:
#      x y z
#    x 1.886030 0.000000 0.000000 
#    y 0.000000 2.117510 0.000000 
#    z 0.000000 0.000000 1.848770 
# 
# From -- ./inp_files/13168.got.cif
#   From: 2010.05.17/outbox.cif.g08.bks.cpg/sg68_7_cif.got.tgz:13168.got - 2010.06.03 18:57:09.
