data_PCOD9509228
_publ_section_title
;
Structure prediction by ZEFSAII (Michael W. Deem and Ramdas Pophale) SiO2 
 PCOD9509228
Probable space group: C C C A
;
_chemical_formula_sum "Si O2"
_cell_formula_units_Z 112
_cell_length_a 11.971303
_cell_length_b 12.550579
_cell_length_c 34.251516
_cell_angle_alpha 90.000000
_cell_angle_beta 90.000000
_cell_angle_gamma 90.000000
_cell_volume 5146.180127
_symmetry_space_group_name_H-M "C C C A"
_symmetry_group_IT_number 68
_space_group.IT_coordinate_system_code '2'
_symmetry_cell_setting 'orthorhombic'
loop_
_space_group_symop_operation_xyz
x,y,z
-x,1/2-y,z
x,1/2-y,1/2-z
-x,y,1/2-z
-x,-y,-z
x,1/2+y,-z
-x,1/2+y,1/2+z
x,-y,1/2+z
1/2+x,1/2+y,z
1/2-x,-y,z
1/2+x,-y,1/2-z
1/2-x,1/2+y,1/2-z
1/2-x,1/2-y,-z
1/2+x,y,-z
1/2-x,y,1/2+z
1/2+x,1/2-y,1/2+z
loop_
_atom_site_type_symbol
_atom_site_label
_atom_site_fract_x
_atom_site_fract_y
_atom_site_fract_z
Si Si1 0.259929 0.180953 0.711174
Si Si2 0.431231 0.999527 0.710691
Si Si3 0.565864 0.638650 0.085324
Si Si4 0.732759 0.798744 0.874402
Si Si5 0.989406 0.061417 0.873567
Si Si6 0.814458 0.390836 0.918366
Si Si7 0.124766 0.191587 0.999779
O O1 0.251678 0.250000 0.750000
O O2 0.374865 0.115372 0.710508
O O3 0.244303 0.241321 0.670034
O O4 0.164215 0.090855 0.711212
O O5 0.500000 0.987180 0.750000
O O6 0.496611 0.979658 0.670525
O O7 0.500000 0.750000 0.090236
O O8 0.662393 0.623780 0.117706
O O9 0.494346 0.534566 0.095523
O O10 0.611907 0.633561 0.041302
O O11 0.622284 0.869761 0.879527
O O12 0.758999 0.712766 0.908288
O O13 0.093995 0.132962 0.885015
O O14 0.750000 0.500000 0.912952
O O15 0.864202 0.380745 0.961436
O O16 0.000000 0.250000 0.995848
O O17 0.250000 0.250000 0.000000
#
# Coordination Sequence:
#
# PCOD9509228 Si02
#       7
#    16  16  16  16  16  16  16
#     4  10  23  42  65  94 129 173 220 275 339 407
#     4  10  23  43  63  95 131 168 224 274 335 412
#     4  11  23  41  71 100 138 175 229 285 346 412
#     4  11  22  45  68  93 131 179 229 282 346 423
#     4  11  24  43  69  98 127 185 227 284 348 421
#     4  12  27  44  68 102 139 175 236 289 350 414
#     4  11  25  47  72 103 144 188 235 291 353 426
#
# _framework density 21.763715000000001
#
# number of rings (size 3 to 8) (size 9 to 14) (size 15 to 20)
#    0.000    1.143    2.857    2.571    4.000    4.571 
#    0.000    0.000    0.000    0.000    0.000    0.000 
#    0.000    0.000    0.000    0.000    0.000    0.000 
#
# Total GULP energy -312240.847149 kJ/mol
# GULP energy per Si atom -5575.729413 kJ/mol
# Density = 2.171418 g / cm^3
# Si number density = 21.763715 Si / 1000 Ang^3
#
#
#
# Elastic Constant Matrix: (Units=GPa)
#
#
# Indices 1 2 3 4 5 6 
#
# 1 95.9938 -5.7475 32.9042 0.0000 0.0000 0.0000
# 2 -5.7475 67.2863 38.4407 0.0000 0.0000 0.0000
# 3 32.9042 38.4407 178.7916 0.0000 0.0000 0.0000
# 4 0.0000 0.0000 0.0000 37.3379 0.0000 0.0000
# 5 0.0000 0.0000 0.0000 0.0000 32.1348 0.0000
# 6 0.0000 0.0000 0.0000 0.0000 0.0000 13.2244
#
#
#
# Elastic Compliance Matrix: (Units=1/GPa)
#
#
# Indices 1 2 3 4 5 6 
#
# 1 0.011474 0.002493 -0.002648 0.000000 0.000000 0.000000
# 2 0.002493 0.017485 -0.004218 0.000000 0.000000 0.000000
# 3 -0.002648 -0.004218 0.006987 0.000000 0.000000 0.000000
# 4 0.000000 0.000000 0.000000 0.026782 0.000000 0.000000
# 5 0.000000 0.000000 0.000000 0.000000 0.031119 0.000000
# 6 0.000000 0.000000 0.000000 0.000000 0.000000 0.075618
#
#
# Mechanical properties :
#
#
# Convention : Reuss Voigt Hill
#
# Bulk Modulus (GPa) = 36.76459 52.58518 44.67488
# Shear Modulus (GPa) = 26.69838 34.97105 30.83472
#
# Velocity S-wave (km/s) = 3.50628 4.01290 3.76812
# Velocity P-wave (km/s) = 5.77246 6.75911 6.28517
#
# Compressibility (1/GPa) = 0.02720009
#
# Stress axis : x y z
#
# Youngs Moduli (GPa) = 87.15273 57.19349 143.11811
#
# Poissons Ratio (x) = -0.14256 0.37892
# Poissons Ratio (y) = -0.21724 0.60367
# Poissons Ratio (z) = 0.23074 0.24124
#
# Static dielectric constant tensor:
#      x y z
#    x 1.806230 0.000000 0.000000 
#    y 0.000000 1.757640 0.000000 
#    z 0.000000 0.000000 1.739390 
# 
# From -- ./inp_files/54850.got.cif
#   From: 2010.05.17/outbox.cif.g08.bks.cpg/sg68_28_cif.got.tgz:54850.got - 2010.06.03 18:57:09.
