data_PCOD9509745
_publ_section_title
;
Structure prediction by ZEFSAII (Michael W. Deem and Ramdas Pophale) SiO2 
 PCOD9509745
Probable space group: C C C A
;
_chemical_formula_sum "Si O2"
_cell_formula_units_Z 92
_cell_length_a 24.530322
_cell_length_b 19.631522
_cell_length_c 8.594464
_cell_angle_alpha 90.000000
_cell_angle_beta 90.000000
_cell_angle_gamma 90.000000
_cell_volume 4138.815024
_symmetry_space_group_name_H-M "C C C A"
_symmetry_group_IT_number 68
_space_group.IT_coordinate_system_code '2'
_symmetry_cell_setting 'orthorhombic'
loop_
_space_group_symop_operation_xyz
x,y,z
-x,1/2-y,z
x,1/2-y,1/2-z
-x,y,1/2-z
-x,-y,-z
x,1/2+y,-z
-x,1/2+y,1/2+z
x,-y,1/2+z
1/2+x,1/2+y,z
1/2-x,-y,z
1/2+x,-y,1/2-z
1/2-x,1/2+y,1/2-z
1/2-x,1/2-y,-z
1/2+x,y,-z
1/2-x,y,1/2+z
1/2+x,1/2-y,1/2+z
loop_
_atom_site_type_symbol
_atom_site_label
_atom_site_fract_x
_atom_site_fract_y
_atom_site_fract_z
Si Si1 0.966059 0.356732 0.004004
Si Si2 0.305851 0.467782 0.623858
Si Si3 0.078822 0.874735 0.165411
Si Si4 0.692070 0.168826 0.457153
Si Si5 0.726849 0.750000 0.250000
Si Si6 0.614573 0.469709 0.613756
Si Si7 0.500000 0.250000 0.750000
O O1 0.936491 0.422713 0.075085
O O2 0.965219 0.297696 0.132981
O O3 0.937457 0.347344 0.835860
O O4 0.028838 0.367327 0.954297
O O5 0.250000 0.500000 0.685131
O O6 0.291129 0.406684 0.509400
O O7 0.346857 0.439394 0.753095
O O8 0.343882 0.520404 0.529754
O O9 0.131513 0.835436 0.107418
O O10 0.093876 0.955271 0.164802
O O11 0.694611 0.217274 0.607434
O O12 0.733576 0.194375 0.327267
#
# Coordination Sequence:
#
# PCOD9509745 Si02
#       7
#    16  16  16  16   8  16   4
#     4  11  26  49  72 105 149 188 251 299 369 446
#     4  11  25  42  72 111 146 183 242 313 371 430
#     4  10  24  48  76 106 145 191 242 312 374 433
#     4  10  25  45  71 109 143 198 248 297 375 429
#     4  10  24  49  72 101 153 204 249 300 350 470
#     4  11  23  45  73 109 140 190 237 304 378 435
#     4  12  32  44  76 108 140 194 242 310 348 438
#
# _framework density 22.228586
#
# number of rings (size 3 to 8) (size 9 to 14) (size 15 to 20)
#    0.000    1.391    1.739    1.043   12.174    4.870 
#    3.130    0.000    0.000    0.000    0.000    0.000 
#    0.000    0.000    0.000    0.000    0.000    0.000 
#
# Total GULP energy -257337.393973 kJ/mol
# GULP energy per Si atom -5594.291173 kJ/mol
# Density = 2.217799 g / cm^3
# Si number density = 22.228586 Si / 1000 Ang^3
#
#
#
# Elastic Constant Matrix: (Units=GPa)
#
#
# Indices 1 2 3 4 5 6 
#
# 1 117.3136 66.7145 60.6460 0.0000 0.0000 0.0000
# 2 66.7145 80.8511 53.0868 0.0000 0.0000 0.0000
# 3 60.6460 53.0868 119.0100 0.0000 0.0000 0.0000
# 4 0.0000 0.0000 0.0000 8.7189 0.0000 0.0000
# 5 0.0000 0.0000 0.0000 0.0000 18.0703 0.0000
# 6 0.0000 0.0000 0.0000 0.0000 0.0000 32.1621
#
#
#
# Elastic Compliance Matrix: (Units=1/GPa)
#
#
# Indices 1 2 3 4 5 6 
#
# 1 0.016980 -0.011780 -0.003398 0.000000 0.000000 0.000000
# 2 -0.011780 0.025664 -0.005445 0.000000 0.000000 0.000000
# 3 -0.003398 -0.005445 0.012563 0.000000 0.000000 0.000000
# 4 0.000000 0.000000 0.000000 0.114693 0.000000 0.000000
# 5 0.000000 0.000000 0.000000 0.000000 0.055339 0.000000
# 6 0.000000 0.000000 0.000000 0.000000 0.000000 0.031093
#
#
# Mechanical properties :
#
#
# Convention : Reuss Voigt Hill
#
# Bulk Modulus (GPa) = 71.62840 75.34104 73.48472
# Shear Modulus (GPa) = 16.54363 20.90541 18.72452
#
# Velocity S-wave (km/s) = 2.73105 3.07004 2.90550
# Velocity P-wave (km/s) = 6.49911 6.82160 6.66230
#
# Compressibility (1/GPa) = 0.01396094
#
# Stress axis : x y z
#
# Youngs Moduli (GPa) = 58.89350 38.96552 79.59800
#
# Poissons Ratio (x) = 0.45900 0.27048
# Poissons Ratio (y) = 0.69375 0.43341
# Poissons Ratio (z) = 0.20013 0.21217
#
# Static dielectric constant tensor:
#      x y z
#    x 1.781320 0.000000 0.000000 
#    y 0.000000 1.818790 0.000000 
#    z 0.000000 0.000000 1.852910 
# 
# From -- ./inp_files/8025.got.cif
#   From: 2010.05.17/outbox.cif.g08.bks.cpg/sg68_5_cif.got.tgz:8025.got - 2010.06.03 18:57:09.
