data_PCOD9509662
_publ_section_title
;
Structure prediction by ZEFSAII (Michael W. Deem and Ramdas Pophale) SiO2 
 PCOD9509662
Probable space group: C C C A
;
_chemical_formula_sum "Si O2"
_cell_formula_units_Z 96
_cell_length_a 21.497400
_cell_length_b 14.641006
_cell_length_c 14.260508
_cell_angle_alpha 90.000000
_cell_angle_beta 90.000000
_cell_angle_gamma 90.000000
_cell_volume 4488.403089
_symmetry_space_group_name_H-M "C C C A"
_symmetry_group_IT_number 68
_space_group.IT_coordinate_system_code '2'
_symmetry_cell_setting 'orthorhombic'
loop_
_space_group_symop_operation_xyz
x,y,z
-x,1/2-y,z
x,1/2-y,1/2-z
-x,y,1/2-z
-x,-y,-z
x,1/2+y,-z
-x,1/2+y,1/2+z
x,-y,1/2+z
1/2+x,1/2+y,z
1/2-x,-y,z
1/2+x,-y,1/2-z
1/2-x,1/2+y,1/2-z
1/2-x,1/2-y,-z
1/2+x,y,-z
1/2-x,y,1/2+z
1/2+x,1/2-y,1/2+z
loop_
_atom_site_type_symbol
_atom_site_label
_atom_site_fract_x
_atom_site_fract_y
_atom_site_fract_z
Si Si1 0.363143 0.465773 0.176584
Si Si2 0.119239 0.826240 0.822329
Si Si3 0.983187 0.091431 0.557358
Si Si4 0.750000 0.000000 0.037886
Si Si5 0.193577 0.182377 0.515351
Si Si6 0.500000 0.250000 0.584105
Si Si7 0.901111 0.827140 0.324574
O O1 0.373382 0.569941 0.210243
O O2 0.423638 0.433659 0.118713
O O3 0.304025 0.462785 0.107437
O O4 0.361841 0.400538 0.265537
O O5 0.141643 0.750000 0.750000
O O6 0.049247 0.801469 0.851316
O O7 0.155948 0.820205 0.918984
O O8 0.040494 0.126016 0.622587
O O9 0.970602 0.173349 0.484074
O O10 0.000000 0.000000 0.500000
O O11 0.778936 0.080325 0.975468
O O12 0.250000 0.250000 0.500000
O O13 0.146355 0.209920 0.597236
O O14 0.921124 0.750000 0.250000
#
# Coordination Sequence:
#
# PCOD9509662 Si02
#       7
#    16  16  16   8  16   8  16
#     4  11  25  45  69 105 145 183 241 299 356 427
#     4  11  26  45  68 103 138 183 238 294 354 436
#     4  12  24  44  72 104 142 191 238 295 362 439
#     4  10  24  46  70 100 138 186 246 292 346 432
#     4  11  25  47  69 100 138 189 239 294 365 433
#     4  12  23  42  73  98 140 174 237 280 367 416
#     4  12  26  46  71 108 144 187 240 305 373 433
#
# _framework density 21.388452999999998
#
# number of rings (size 3 to 8) (size 9 to 14) (size 15 to 20)
#    0.000    0.667    3.333    3.750    4.667    7.333 
#    0.000    0.000    0.000    0.000    0.000    0.000 
#    0.000    0.000    0.000    0.000    0.000    0.000 
#
# Total GULP energy -268664.633546 kJ/mol
# GULP energy per Si atom -5597.179866 kJ/mol
# Density = 2.133977 g / cm^3
# Si number density = 21.388453 Si / 1000 Ang^3
#
#
#
# Elastic Constant Matrix: (Units=GPa)
#
#
# Indices 1 2 3 4 5 6 
#
# 1 109.9083 15.3944 21.0193 0.0000 0.0000 0.0000
# 2 15.3944 107.6305 45.4197 0.0000 0.0000 0.0000
# 3 21.0193 45.4197 81.7645 0.0000 0.0000 0.0000
# 4 0.0000 0.0000 0.0000 45.5103 0.0000 0.0000
# 5 0.0000 0.0000 0.0000 0.0000 0.9894 0.0000
# 6 0.0000 0.0000 0.0000 0.0000 0.0000 33.3019
#
#
#
# Elastic Compliance Matrix: (Units=1/GPa)
#
#
# Indices 1 2 3 4 5 6 
#
# 1 0.009584 -0.000432 -0.002224 0.000000 0.000000 0.000000
# 2 -0.000432 0.012155 -0.006641 0.000000 0.000000 0.000000
# 3 -0.002224 -0.006641 0.016491 0.000000 0.000000 0.000000
# 4 0.000000 0.000000 0.000000 0.021973 0.000000 0.000000
# 5 0.000000 0.000000 0.000000 0.000000 1.010674 0.000000
# 6 0.000000 0.000000 0.000000 0.000000 0.000000 0.030028
#
#
# Mechanical properties :
#
#
# Convention : Reuss Voigt Hill
#
# Bulk Modulus (GPa) = 50.92600 51.44112 51.18356
# Shear Modulus (GPa) = 4.44032 30.45832 17.44932
#
# Velocity S-wave (km/s) = 1.44241 3.77776 2.85937
# Velocity P-wave (km/s) = 5.16099 6.56747 5.90625
#
# Compressibility (1/GPa) = 0.01963634
#
# Stress axis : x y z
#
# Youngs Moduli (GPa) = 104.33708 82.26780 60.63931
#
# Poissons Ratio (x) = 0.03558 0.13484
# Poissons Ratio (y) = 0.04512 0.40271
# Poissons Ratio (z) = 0.23200 0.54635
#
# Static dielectric constant tensor:
#      x y z
#    x 1.704360 0.000000 0.000000 
#    y 0.000000 1.811990 0.000000 
#    z 0.000000 0.000000 1.762510 
# 
# From -- ./inp_files/24484.got.cif
#   From: 2010.05.17/outbox.cif.g08.bks.cpg/sg68_13_cif.got.tgz:24484.got - 2010.06.03 18:57:09.
