data_PCOD9509354
_publ_section_title
;
Structure prediction by ZEFSAII (Michael W. Deem and Ramdas Pophale) SiO2 
 PCOD9509354
Probable space group: C C C A
;
_chemical_formula_sum "Si O2"
_cell_formula_units_Z 52
_cell_length_a 29.278066
_cell_length_b 14.307428
_cell_length_c 5.533911
_cell_angle_alpha 90.000000
_cell_angle_beta 90.000000
_cell_angle_gamma 90.000000
_cell_volume 2318.121125
_symmetry_space_group_name_H-M "C C C A"
_symmetry_group_IT_number 68
_space_group.IT_coordinate_system_code '2'
_symmetry_cell_setting 'orthorhombic'
loop_
_space_group_symop_operation_xyz
x,y,z
-x,1/2-y,z
x,1/2-y,1/2-z
-x,y,1/2-z
-x,-y,-z
x,1/2+y,-z
-x,1/2+y,1/2+z
x,-y,1/2+z
1/2+x,1/2+y,z
1/2-x,-y,z
1/2+x,-y,1/2-z
1/2-x,1/2+y,1/2-z
1/2-x,1/2-y,-z
1/2+x,y,-z
1/2-x,y,1/2+z
1/2+x,1/2-y,1/2+z
loop_
_atom_site_type_symbol
_atom_site_label
_atom_site_fract_x
_atom_site_fract_y
_atom_site_fract_z
Si Si1 0.047252 0.353845 0.138327
Si Si2 0.267520 0.644402 0.035527
Si Si3 0.000000 0.750000 0.250000
Si Si4 0.144174 0.446559 0.179494
O O1 0.054006 0.250000 0.250000
O O2 0.091824 0.414071 0.166502
O O3 0.000000 0.393138 0.250000
O O4 0.034389 0.323595 0.871076
O O5 0.240263 0.602929 0.266702
O O6 0.319908 0.635182 0.116241
O O7 0.250000 0.750000 0.000000
O O8 0.151860 0.483032 0.452626
#
# Coordination Sequence:
#
# PCOD9509354 Si02
#       4
#    16  16   4  16
#     4   9  22  42  69  98 135 184 234 273 331 410
#     4  10  23  44  70  97 127 182 225 274 334 413
#     4   8  18  40  68  94 124 184 244 272 306 412
#     4  12  28  43  67 106 141 174 224 288 353 410
#
# _framework density 22.431958999999999
#
# number of rings (size 3 to 8) (size 9 to 14) (size 15 to 20)
#    0.000    2.154    0.000    1.846   12.923    7.385 
#    0.000    0.000    0.000    0.000    0.000    0.000 
#    0.000    0.000    0.000    0.000    0.000    0.000 
#
# Total GULP energy -144842.291254 kJ/mol
# GULP energy per Si atom -5570.857356 kJ/mol
# Density = 2.238090 g / cm^3
# Si number density = 22.431959 Si / 1000 Ang^3
#
#
#
# Elastic Constant Matrix: (Units=GPa)
#
#
# Indices 1 2 3 4 5 6 
#
# 1 157.2984 35.6186 31.8367 0.0000 0.0000 0.0000
# 2 35.6186 64.2311 10.4784 0.0000 0.0000 0.0000
# 3 31.8367 10.4784 127.1818 0.0000 0.0000 0.0000
# 4 0.0000 0.0000 0.0000 50.0136 0.0000 0.0000
# 5 0.0000 0.0000 0.0000 0.0000 34.3001 0.0000
# 6 0.0000 0.0000 0.0000 0.0000 0.0000 37.4775
#
#
#
# Elastic Compliance Matrix: (Units=1/GPa)
#
#
# Indices 1 2 3 4 5 6 
#
# 1 0.007567 -0.003940 -0.001570 0.000000 0.000000 0.000000
# 2 -0.003940 0.017833 -0.000483 0.000000 0.000000 0.000000
# 3 -0.001570 -0.000483 0.008295 0.000000 0.000000 0.000000
# 4 0.000000 0.000000 0.000000 0.019995 0.000000 0.000000
# 5 0.000000 0.000000 0.000000 0.000000 0.029154 0.000000
# 6 0.000000 0.000000 0.000000 0.000000 0.000000 0.026683
#
#
# Mechanical properties :
#
#
# Convention : Reuss Voigt Hill
#
# Bulk Modulus (GPa) = 46.06224 56.06432 51.06328
# Shear Modulus (GPa) = 38.83520 42.41007 40.62264
#
# Velocity S-wave (km/s) = 4.16534 4.35283 4.26012
# Velocity P-wave (km/s) = 6.61152 7.09297 6.85647
#
# Compressibility (1/GPa) = 0.02170976
#
# Stress axis : x y z
#
# Youngs Moduli (GPa) = 132.14803 56.07708 120.54781
#
# Poissons Ratio (x) = 0.22096 0.18922
# Poissons Ratio (y) = 0.52070 0.05821
# Poissons Ratio (z) = 0.20742 0.02708
#
# Static dielectric constant tensor:
#      x y z
#    x 1.790710 0.000000 0.000000 
#    y 0.000000 1.724020 0.000000 
#    z 0.000000 0.000000 1.903830 
# 
# From -- ./inp_files/707.got.cif
#   From: 2010.05.17/outbox.cif.g08.bks.cpg/sg68_1_cif.got.tgz:707.got - 2010.06.03 18:57:09.
