data_PCOD9509680
_publ_section_title
;
Structure prediction by ZEFSAII (Michael W. Deem and Ramdas Pophale) SiO2 
 PCOD9509680
Probable space group: C C C A
;
_chemical_formula_sum "Si O2"
_cell_formula_units_Z 72
_cell_length_a 28.938294
_cell_length_b 9.380068
_cell_length_c 13.277458
_cell_angle_alpha 90.000000
_cell_angle_beta 90.000000
_cell_angle_gamma 90.000000
_cell_volume 3604.075230
_symmetry_space_group_name_H-M "C C C A"
_symmetry_group_IT_number 68
_space_group.IT_coordinate_system_code '2'
_symmetry_cell_setting 'orthorhombic'
loop_
_space_group_symop_operation_xyz
x,y,z
-x,1/2-y,z
x,1/2-y,1/2-z
-x,y,1/2-z
-x,-y,-z
x,1/2+y,-z
-x,1/2+y,1/2+z
x,-y,1/2+z
1/2+x,1/2+y,z
1/2-x,-y,z
1/2+x,-y,1/2-z
1/2-x,1/2+y,1/2-z
1/2-x,1/2-y,-z
1/2+x,y,-z
1/2-x,y,1/2+z
1/2+x,1/2-y,1/2+z
loop_
_atom_site_type_symbol
_atom_site_label
_atom_site_fract_x
_atom_site_fract_y
_atom_site_fract_z
Si Si1 0.636022 0.391473 0.183696
Si Si2 0.204272 0.407034 0.206747
Si Si3 0.214741 0.877739 0.021062
Si Si4 0.500000 0.250000 0.983923
Si Si5 0.468141 0.489667 0.353703
O O1 0.632729 0.250000 0.250000
O O2 0.662483 0.518778 0.238241
O O3 0.584938 0.449501 0.165521
O O4 0.671310 0.352999 0.092836
O O5 0.212347 0.250000 0.250000
O O6 0.250000 0.500000 0.220744
O O7 0.194742 0.412365 0.088259
O O8 0.250000 0.000000 0.057686
O O9 0.250000 0.750000 0.000000
O O10 0.471923 0.354185 0.906774
O O11 0.481595 0.130590 0.062952
O O12 0.500000 0.483223 0.250000
#
# Coordination Sequence:
#
# PCOD9509680 Si02
#       5
#    16  16  16   8  16
#     4  12  25  41  66  96 130 173 221 274 340 412
#     4  11  23  40  62  91 130 173 220 274 336 405
#     4  11  23  39  60  89 129 172 217 269 326 397
#     4  10  24  46  72  96 132 178 222 282 360 420
#     4  11  25  46  70 100 135 175 226 288 350 420
#
# _framework density 19.977385000000002
#
# number of rings (size 3 to 8) (size 9 to 14) (size 15 to 20)
#    0.000    0.889    0.000    8.667    0.000   10.667 
#    0.000    0.000    0.000    0.000    0.000    0.000 
#    0.000    0.000    0.000    0.000    0.000    0.000 
#
# Total GULP energy -200767.213295 kJ/mol
# GULP energy per Si atom -5576.867036 kJ/mol
# Density = 1.993192 g / cm^3
# Si number density = 19.977385 Si / 1000 Ang^3
#
#
#
# Elastic Constant Matrix: (Units=GPa)
#
#
# Indices 1 2 3 4 5 6 
#
# 1 176.5736 76.6027 92.5209 0.0000 0.0000 0.0000
# 2 76.6027 167.2060 55.4541 0.0000 0.0000 0.0000
# 3 92.5209 55.4541 158.2838 0.0000 0.0000 0.0000
# 4 0.0000 0.0000 0.0000 39.8452 0.0000 0.0000
# 5 0.0000 0.0000 0.0000 0.0000 46.6551 0.0000
# 6 0.0000 0.0000 0.0000 0.0000 0.0000 30.2411
#
#
#
# Elastic Compliance Matrix: (Units=1/GPa)
#
#
# Indices 1 2 3 4 5 6 
#
# 1 0.009151 -0.002736 -0.004390 0.000000 0.000000 0.000000
# 2 -0.002736 0.007585 -0.001058 0.000000 0.000000 0.000000
# 3 -0.004390 -0.001058 0.009255 0.000000 0.000000 0.000000
# 4 0.000000 0.000000 0.000000 0.025097 0.000000 0.000000
# 5 0.000000 0.000000 0.000000 0.000000 0.021434 0.000000
# 6 0.000000 0.000000 0.000000 0.000000 0.000000 0.033068
#
#
# Mechanical properties :
#
#
# Convention : Reuss Voigt Hill
#
# Bulk Modulus (GPa) = 103.93334 105.69098 104.81216
# Shear Modulus (GPa) = 39.94715 41.84734 40.89725
#
# Velocity S-wave (km/s) = 4.47656 4.58179 4.52948
# Velocity P-wave (km/s) = 8.88020 9.00059 8.94060
#
# Compressibility (1/GPa) = 0.00962155
#
# Stress axis : x y z
#
# Youngs Moduli (GPa) = 109.27959 131.83725 108.05387
#
# Poissons Ratio (x) = 0.36074 0.47438
# Poissons Ratio (y) = 0.29902 0.11432
# Poissons Ratio (z) = 0.47977 0.13948
#
# Static dielectric constant tensor:
#      x y z
#    x 1.729600 0.000000 0.000000 
#    y 0.000000 1.726810 0.000000 
#    z 0.000000 0.000000 1.745950 
# 
# From -- ./inp_files/25855.got.cif
#   From: 2010.05.17/outbox.cif.g08.bks.cpg/sg68_13_cif.got.tgz:25855.got - 2010.06.03 18:57:09.
