data_PCOD9509264
_publ_section_title
;
Structure prediction by ZEFSAII (Michael W. Deem and Ramdas Pophale) SiO2 
 PCOD9509264
Probable space group: C C C A
;
_chemical_formula_sum "Si O2"
_cell_formula_units_Z 116
_cell_length_a 26.275892
_cell_length_b 8.965949
_cell_length_c 23.180027
_cell_angle_alpha 90.000000
_cell_angle_beta 90.000000
_cell_angle_gamma 90.000000
_cell_volume 5460.943331
_symmetry_space_group_name_H-M "C C C A"
_symmetry_group_IT_number 68
_space_group.IT_coordinate_system_code '2'
_symmetry_cell_setting 'orthorhombic'
loop_
_space_group_symop_operation_xyz
x,y,z
-x,1/2-y,z
x,1/2-y,1/2-z
-x,y,1/2-z
-x,-y,-z
x,1/2+y,-z
-x,1/2+y,1/2+z
x,-y,1/2+z
1/2+x,1/2+y,z
1/2-x,-y,z
1/2+x,-y,1/2-z
1/2-x,1/2+y,1/2-z
1/2-x,1/2-y,-z
1/2+x,y,-z
1/2-x,y,1/2+z
1/2+x,1/2-y,1/2+z
loop_
_atom_site_type_symbol
_atom_site_label
_atom_site_fract_x
_atom_site_fract_y
_atom_site_fract_z
Si Si1 0.414032 0.785043 0.907524
Si Si2 0.463758 0.628547 0.475144
Si Si3 0.500000 0.750000 0.750000
Si Si4 0.804134 0.797561 0.928785
Si Si5 0.812835 0.651314 0.051100
Si Si6 0.450534 0.013782 0.821561
Si Si7 0.062016 0.016103 0.141708
Si Si8 0.364525 0.236801 0.688339
O O1 0.356196 0.733633 0.912390
O O2 0.426313 0.941466 0.878901
O O3 0.441972 0.659613 0.869324
O O4 0.435695 0.794404 0.971921
O O5 0.500000 0.750000 0.447361
O O6 0.500000 0.500000 0.500000
O O7 0.429044 0.573601 0.423549
O O8 0.461514 0.872956 0.779240
O O9 0.742580 0.793563 0.928322
O O10 0.829977 0.746164 0.868863
O O11 0.815602 0.972744 0.941458
O O12 0.819926 0.698137 0.984035
O O13 0.507754 0.068633 0.834503
O O14 0.411050 0.144227 0.807083
O O15 0.107625 0.077234 0.179683
O O16 0.336860 0.250000 0.750000
#
# Coordination Sequence:
#
# PCOD9509264 Si02
#       8
#    16  16   4  16  16  16  16  16
#     4  12  23  39  63  97 133 179 218 278 344 412
#     4  12  22  35  56  93 138 177 212 267 339 403
#     4  12  24  44  66  88 140 188 242 284 326 404
#     4  10  23  47  73 104 138 174 226 291 354 413
#     4  10  23  42  76 105 136 173 223 286 358 419
#     4  12  25  41  66  92 136 181 233 282 326 410
#     4  12  23  43  61  95 139 181 226 273 337 410
#     4  12  27  45  71  99 134 185 235 282 342 409
#
# _framework density 21.241751000000001
#
# number of rings (size 3 to 8) (size 9 to 14) (size 15 to 20)
#    0.000    0.552    5.517    2.897    1.931    0.552 
#    0.000    0.000    7.586    0.000    0.000    0.000 
#    0.000    0.000    0.000    0.000    0.000    0.000 
#
# Total GULP energy -323936.235006 kJ/mol
# GULP energy per Si atom -5585.107500 kJ/mol
# Density = 2.119340 g / cm^3
# Si number density = 21.241751 Si / 1000 Ang^3
#
#
#
# Elastic Constant Matrix: (Units=GPa)
#
#
# Indices 1 2 3 4 5 6 
#
# 1 94.3977 9.2028 27.8670 0.0000 0.0000 0.0000
# 2 9.2028 57.1326 23.7652 0.0000 0.0000 0.0000
# 3 27.8670 23.7652 111.3565 0.0000 0.0000 0.0000
# 4 0.0000 0.0000 0.0000 38.6267 0.0000 0.0000
# 5 0.0000 0.0000 0.0000 0.0000 29.8421 0.0000
# 6 0.0000 0.0000 0.0000 0.0000 0.0000 23.6681
#
#
#
# Elastic Compliance Matrix: (Units=1/GPa)
#
#
# Indices 1 2 3 4 5 6 
#
# 1 0.011465 -0.000717 -0.002716 0.000000 0.000000 0.000000
# 2 -0.000717 0.019253 -0.003929 0.000000 0.000000 0.000000
# 3 -0.002716 -0.003929 0.010498 0.000000 0.000000 0.000000
# 4 0.000000 0.000000 0.000000 0.025889 0.000000 0.000000
# 5 0.000000 0.000000 0.000000 0.000000 0.033510 0.000000
# 6 0.000000 0.000000 0.000000 0.000000 0.000000 0.042251
#
#
# Mechanical properties :
#
#
# Convention : Reuss Voigt Hill
#
# Bulk Modulus (GPa) = 37.74779 42.72854 40.23816
# Shear Modulus (GPa) = 30.04408 31.89751 30.97080
#
# Velocity S-wave (km/s) = 3.76492 3.87931 3.82254
# Velocity P-wave (km/s) = 6.05876 6.34227 6.20214
#
# Compressibility (1/GPa) = 0.02649162
#
# Stress axis : x y z
#
# Youngs Moduli (GPa) = 87.22046 51.93955 95.25173
#
# Poissons Ratio (x) = 0.03724 0.25872
# Poissons Ratio (y) = 0.06253 0.37429
# Poissons Ratio (z) = 0.23690 0.20410
#
# Static dielectric constant tensor:
#      x y z
#    x 1.777290 0.000000 0.000000 
#    y 0.000000 1.849170 0.000000 
#    z 0.000000 0.000000 1.821910 
# 
# From -- ./inp_files/47322.got.cif
#   From: 2010.05.17/outbox.cif.g08.bks.cpg/sg68_24_cif.got.tgz:47322.got - 2010.06.03 18:57:09.
