data_PCOD9509266
_publ_section_title
;
Structure prediction by ZEFSAII (Michael W. Deem and Ramdas Pophale) SiO2 
 PCOD9509266
Probable space group: C C C A
;
_chemical_formula_sum "Si O2"
_cell_formula_units_Z 80
_cell_length_a 21.987247
_cell_length_b 5.433631
_cell_length_c 31.465776
_cell_angle_alpha 90.000000
_cell_angle_beta 90.000000
_cell_angle_gamma 90.000000
_cell_volume 3759.234726
_symmetry_space_group_name_H-M "C C C A"
_symmetry_group_IT_number 68
_space_group.IT_coordinate_system_code '2'
_symmetry_cell_setting 'orthorhombic'
loop_
_space_group_symop_operation_xyz
x,y,z
-x,1/2-y,z
x,1/2-y,1/2-z
-x,y,1/2-z
-x,-y,-z
x,1/2+y,-z
-x,1/2+y,1/2+z
x,-y,1/2+z
1/2+x,1/2+y,z
1/2-x,-y,z
1/2+x,-y,1/2-z
1/2-x,1/2+y,1/2-z
1/2-x,1/2-y,-z
1/2+x,y,-z
1/2-x,y,1/2+z
1/2+x,1/2-y,1/2+z
loop_
_atom_site_type_symbol
_atom_site_label
_atom_site_fract_x
_atom_site_fract_y
_atom_site_fract_z
Si Si1 0.250000 0.500000 0.813983
Si Si2 0.656423 0.745352 0.629093
Si Si3 0.500000 0.250000 0.972696
Si Si4 0.607146 0.248378 0.596088
Si Si5 0.157226 0.250000 0.250000
Si Si6 0.070902 0.122501 0.794942
Si Si7 0.500000 0.250000 0.664107
O O1 0.281241 0.702543 0.844673
O O2 0.198956 0.592598 0.781505
O O3 0.644720 0.501821 0.600555
O O4 0.603924 0.750039 0.665437
O O5 0.646947 0.000321 0.603273
O O6 0.561702 0.255986 0.944222
O O7 0.500000 0.500000 0.000000
O O8 0.558618 0.251557 0.634542
O O9 0.115927 0.398437 0.217485
O O10 0.068915 0.250000 0.750000
O O11 0.007930 0.992997 0.808048
#
# Coordination Sequence:
#
# PCOD9509266 Si02
#       7
#     8  16   8  16   8  16   8
#     4  12  22  38  66  82 114 182 230 292 350 358
#     4  11  23  41  60  86 126 170 219 276 320 369
#     4  11  22  42  77 110 133 164 191 232 317 404
#     4  10  23  43  61  96 132 156 202 256 309 398
#     4  12  24  41  50  84 116 159 240 324 320 372
#     4  11  23  41  52  80 117 167 230 286 330 374
#     4   9  22  39  55  74 118 168 202 252 331 380
#
# _framework density 21.280927999999999
#
# number of rings (size 3 to 8) (size 9 to 14) (size 15 to 20)
#    0.000    1.200    2.000    4.800    0.000    9.200 
#    3.600    0.000    0.000    0.000    0.000   14.000 
#    0.000    0.000    0.000    0.000    0.000    0.000 
#
# Total GULP energy -223561.176436 kJ/mol
# GULP energy per Si atom -5589.029411 kJ/mol
# Density = 2.123249 g / cm^3
# Si number density = 21.280928 Si / 1000 Ang^3
#
#
#
# Elastic Constant Matrix: (Units=GPa)
#
#
# Indices 1 2 3 4 5 6 
#
# 1 48.5207 11.9053 15.7707 0.0000 0.0000 0.0000
# 2 11.9053 140.2532 54.3786 0.0000 0.0000 0.0000
# 3 15.7707 54.3786 105.2550 0.0000 0.0000 0.0000
# 4 0.0000 0.0000 0.0000 32.4896 0.0000 0.0000
# 5 0.0000 0.0000 0.0000 0.0000 140.9391 0.0000
# 6 0.0000 0.0000 0.0000 0.0000 0.0000 28.6486
#
#
#
# Elastic Compliance Matrix: (Units=1/GPa)
#
#
# Indices 1 2 3 4 5 6 
#
# 1 0.021724 -0.000728 -0.002879 0.000000 0.000000 0.000000
# 2 -0.000728 0.008940 -0.004510 0.000000 0.000000 0.000000
# 3 -0.002879 -0.004510 0.012262 0.000000 0.000000 0.000000
# 4 0.000000 0.000000 0.000000 0.030779 0.000000 0.000000
# 5 0.000000 0.000000 0.000000 0.000000 0.007095 0.000000
# 6 0.000000 0.000000 0.000000 0.000000 0.000000 0.034906
#
#
# Mechanical properties :
#
#
# Convention : Reuss Voigt Hill
#
# Bulk Modulus (GPa) = 37.46272 50.90422 44.18347
# Shear Modulus (GPa) = 35.50192 54.54708 45.02450
#
# Velocity S-wave (km/s) = 4.08885 5.06829 4.60469
# Velocity P-wave (km/s) = 6.31931 7.63034 7.00556
#
# Compressibility (1/GPa) = 0.02669321
#
# Stress axis : x y z
#
# Youngs Moduli (GPa) = 46.03182 111.85333 81.55251
#
# Poissons Ratio (x) = 0.08141 0.23479
# Poissons Ratio (y) = 0.03350 0.36779
# Poissons Ratio (z) = 0.13252 0.50444
#
# Static dielectric constant tensor:
#      x y z
#    x 1.792060 0.000000 0.000000 
#    y 0.000000 1.907080 0.000000 
#    z 0.000000 0.000000 1.727060 
# 
# From -- ./inp_files/55950.got.cif
#   From: 2010.05.17/outbox.cif.g08.bks.cpg/sg68_28_cif.got.tgz:55950.got - 2010.06.03 18:57:09.
