data_PCOD9509746
_publ_section_title
;
Structure prediction by ZEFSAII (Michael W. Deem and Ramdas Pophale) SiO2 
 PCOD9509746
Probable space group: C C C A
;
_chemical_formula_sum "Si O2"
_cell_formula_units_Z 80
_cell_length_a 9.330470
_cell_length_b 18.253484
_cell_length_c 24.139393
_cell_angle_alpha 90.000000
_cell_angle_beta 90.000000
_cell_angle_gamma 90.000000
_cell_volume 4111.266558
_symmetry_space_group_name_H-M "C C C A"
_symmetry_group_IT_number 68
_space_group.IT_coordinate_system_code '2'
_symmetry_cell_setting 'orthorhombic'
loop_
_space_group_symop_operation_xyz
x,y,z
-x,1/2-y,z
x,1/2-y,1/2-z
-x,y,1/2-z
-x,-y,-z
x,1/2+y,-z
-x,1/2+y,1/2+z
x,-y,1/2+z
1/2+x,1/2+y,z
1/2-x,-y,z
1/2+x,-y,1/2-z
1/2-x,1/2+y,1/2-z
1/2-x,1/2-y,-z
1/2+x,y,-z
1/2-x,y,1/2+z
1/2+x,1/2-y,1/2+z
loop_
_atom_site_type_symbol
_atom_site_label
_atom_site_fract_x
_atom_site_fract_y
_atom_site_fract_z
Si Si1 0.656683 0.241284 0.582523
Si Si2 0.250000 0.000000 0.854499
Si Si3 0.679828 0.358848 0.022675
Si Si4 0.248533 0.162778 0.813200
Si Si5 0.916590 0.551167 0.457133
Si Si6 0.000000 0.750000 0.750000
Si Si7 0.500000 0.250000 0.250000
O O1 0.500000 0.250000 0.607260
O O2 0.639158 0.199114 0.524700
O O3 0.724372 0.319086 0.568422
O O4 0.749834 0.193563 0.624084
O O5 0.258261 0.074609 0.819027
O O6 0.121536 0.012865 0.899179
O O7 0.534404 0.385835 0.050485
O O8 0.777318 0.417255 0.989095
O O9 0.388675 0.197215 0.783144
O O10 0.107506 0.196669 0.784221
O O11 0.000000 0.500000 0.500000
#
# Coordination Sequence:
#
# PCOD9509746 Si02
#       7
#    16   8  16  16  16   4   4
#     4  11  21  37  65  94 130 174 221 260 308 382
#     4  12  26  40  68  92 136 174 212 264 336 392
#     4  11  23  35  59  94 137 176 217 252 297 380
#     4  11  24  46  70  97 123 164 216 278 338 388
#     4  12  21  38  54  90 137 181 208 253 310 379
#     4  10  24  48  76  88 116 160 224 282 332 386
#     4  10  28  48  72  96 120 156 224 298 340 382
#
# _framework density 19.458724
#
# number of rings (size 3 to 8) (size 9 to 14) (size 15 to 20)
#    0.000    0.800    7.000    0.000    2.800    0.800 
#    0.000    0.000    0.000    0.000    0.000    0.000 
#    0.000    0.000    0.000    0.000    0.000    0.000 
#
# Total GULP energy -223128.848211 kJ/mol
# GULP energy per Si atom -5578.221205 kJ/mol
# Density = 1.941443 g / cm^3
# Si number density = 19.458724 Si / 1000 Ang^3
#
#
#
# Elastic Constant Matrix: (Units=GPa)
#
#
# Indices 1 2 3 4 5 6 
#
# 1 139.2052 55.5864 46.1022 0.0000 0.0000 0.0000
# 2 55.5864 135.1071 55.4694 0.0000 0.0000 0.0000
# 3 46.1022 55.4694 70.0567 0.0000 0.0000 0.0000
# 4 0.0000 0.0000 0.0000 38.1640 0.0000 0.0000
# 5 0.0000 0.0000 0.0000 0.0000 16.9156 0.0000
# 6 0.0000 0.0000 0.0000 0.0000 0.0000 34.7182
#
#
#
# Elastic Compliance Matrix: (Units=1/GPa)
#
#
# Indices 1 2 3 4 5 6 
#
# 1 0.009535 -0.001996 -0.004695 0.000000 0.000000 0.000000
# 2 -0.001996 0.011384 -0.007700 0.000000 0.000000 0.000000
# 3 -0.004695 -0.007700 0.023461 0.000000 0.000000 0.000000
# 4 0.000000 0.000000 0.000000 0.026203 0.000000 0.000000
# 5 0.000000 0.000000 0.000000 0.000000 0.059117 0.000000
# 6 0.000000 0.000000 0.000000 0.000000 0.000000 0.028803
#
#
# Mechanical properties :
#
#
# Convention : Reuss Voigt Hill
#
# Bulk Modulus (GPa) = 64.10913 73.18723 68.64818
# Shear Modulus (GPa) = 25.97615 30.44029 28.20822
#
# Velocity S-wave (km/s) = 3.65764 3.95948 3.81155
# Velocity P-wave (km/s) = 7.13131 7.65483 7.39770
#
# Compressibility (1/GPa) = 0.01559840
#
# Stress axis : x y z
#
# Youngs Moduli (GPa) = 104.87292 87.84236 42.62438
#
# Poissons Ratio (x) = 0.17529 0.20012
# Poissons Ratio (y) = 0.20928 0.32823
# Poissons Ratio (z) = 0.49237 0.67642
#
# Static dielectric constant tensor:
#      x y z
#    x 1.713070 0.000000 0.000000 
#    y 0.000000 1.749070 0.000000 
#    z 0.000000 0.000000 1.671800 
# 
# From -- ./inp_files/43075.got.cif
#   From: 2010.05.17/outbox.cif.g08.bks.cpg/sg68_22_cif.got.tgz:43075.got - 2010.06.03 18:57:09.
