data_PCOD9509875
_publ_section_title
;
Structure prediction by ZEFSAII (Michael W. Deem and Ramdas Pophale) SiO2 
 PCOD9509875
Probable space group: C C C A
;
_chemical_formula_sum "Si O2"
_cell_formula_units_Z 96
_cell_length_a 10.139191
_cell_length_b 21.433215
_cell_length_c 21.541004
_cell_angle_alpha 90.000000
_cell_angle_beta 90.000000
_cell_angle_gamma 90.000000
_cell_volume 4681.193207
_symmetry_space_group_name_H-M "C C C A"
_symmetry_group_IT_number 68
_space_group.IT_coordinate_system_code '2'
_symmetry_cell_setting 'orthorhombic'
loop_
_space_group_symop_operation_xyz
x,y,z
-x,1/2-y,z
x,1/2-y,1/2-z
-x,y,1/2-z
-x,-y,-z
x,1/2+y,-z
-x,1/2+y,1/2+z
x,-y,1/2+z
1/2+x,1/2+y,z
1/2-x,-y,z
1/2+x,-y,1/2-z
1/2-x,1/2+y,1/2-z
1/2-x,1/2-y,-z
1/2+x,y,-z
1/2-x,y,1/2+z
1/2+x,1/2-y,1/2+z
loop_
_atom_site_type_symbol
_atom_site_label
_atom_site_fract_x
_atom_site_fract_y
_atom_site_fract_z
Si Si1 0.361796 0.878548 0.425408
Si Si2 0.132753 0.323081 0.881157
Si Si3 0.750000 0.000000 0.125136
Si Si4 0.777343 0.789166 0.690157
Si Si5 0.345695 0.850260 0.034297
Si Si6 0.000000 0.250000 0.510137
Si Si7 0.416794 0.102364 0.304406
O O1 0.352105 0.830342 0.365084
O O2 0.506788 0.875444 0.455785
O O3 0.238877 0.864683 0.472458
O O4 0.341996 0.951294 0.410253
O O5 0.187993 0.262876 0.844580
O O6 0.061928 0.299384 0.943340
O O7 0.023086 0.362316 0.846494
O O8 0.256663 0.362612 0.905776
O O9 0.661709 0.048109 0.163026
O O10 0.837248 0.750000 0.750000
O O11 0.682842 0.843190 0.717871
O O12 0.382407 0.776857 0.030750
O O13 0.500000 0.073230 0.250000
#
# Coordination Sequence:
#
# PCOD9509875 Si02
#       7
#    16  16   8  16  16   8  16
#     4  11  25  46  67  99 138 187 225 290 344 412
#     4  12  21  36  66 104 131 168 218 274 342 424
#     4  10  26  48  64  92 132 180 242 286 336 402
#     4  11  21  39  70 102 134 171 224 281 345 419
#     4  12  24  40  66 102 140 179 223 275 356 410
#     4  12  18  36  61  98 143 168 198 272 334 430
#     4  11  22  42  70  93 128 179 233 283 341 408
#
# _framework density 20.507591000000001
#
# number of rings (size 3 to 8) (size 9 to 14) (size 15 to 20)
#    0.000    0.667    6.667    2.500    0.000    0.667 
#    3.000    1.667    0.000    0.000    0.000    0.000 
#    0.000    0.000    0.000    0.000    0.000    0.000 
#
# Total GULP energy -267276.024269 kJ/mol
# GULP energy per Si atom -5568.250506 kJ/mol
# Density = 2.046092 g / cm^3
# Si number density = 20.507591 Si / 1000 Ang^3
#
#
#
# Elastic Constant Matrix: (Units=GPa)
#
#
# Indices 1 2 3 4 5 6 
#
# 1 111.7534 37.6247 24.5219 0.0000 0.0000 0.0000
# 2 37.6247 106.5196 35.7709 0.0000 0.0000 0.0000
# 3 24.5219 35.7709 38.5736 0.0000 0.0000 0.0000
# 4 0.0000 0.0000 0.0000 12.8543 0.0000 0.0000
# 5 0.0000 0.0000 0.0000 0.0000 3.7729 0.0000
# 6 0.0000 0.0000 0.0000 0.0000 0.0000 11.0906
#
#
#
# Elastic Compliance Matrix: (Units=1/GPa)
#
#
# Indices 1 2 3 4 5 6 
#
# 1 0.010736 -0.002179 -0.004805 0.000000 0.000000 0.000000
# 2 -0.002179 0.014076 -0.011668 0.000000 0.000000 0.000000
# 3 -0.004805 -0.011668 0.039799 0.000000 0.000000 0.000000
# 4 0.000000 0.000000 0.000000 0.077795 0.000000 0.000000
# 5 0.000000 0.000000 0.000000 0.000000 0.265048 0.000000
# 6 0.000000 0.000000 0.000000 0.000000 0.000000 0.090167
#
#
# Mechanical properties :
#
#
# Convention : Reuss Voigt Hill
#
# Bulk Modulus (GPa) = 36.61909 50.29795 43.45852
# Shear Modulus (GPa) = 9.19073 16.13882 12.66478
#
# Velocity S-wave (km/s) = 2.11928 2.80834 2.48778
# Velocity P-wave (km/s) = 4.88708 5.92414 5.43042
#
# Compressibility (1/GPa) = 0.02730816
#
# Stress axis : x y z
#
# Youngs Moduli (GPa) = 93.14392 71.04389 25.12613
#
# Poissons Ratio (x) = 0.15478 0.12072
# Poissons Ratio (y) = 0.20293 0.29317
# Poissons Ratio (z) = 0.44753 0.82894
#
# Static dielectric constant tensor:
#      x y z
#    x 1.832190 0.000000 0.000000 
#    y 0.000000 1.760970 0.000000 
#    z 0.000000 0.000000 1.813480 
# 
# From -- ./inp_files/43346.got.cif
#   From: 2010.05.17/outbox.cif.g08.bks.cpg/sg68_22_cif.got.tgz:43346.got - 2010.06.03 18:57:09.
