data_PCOD9509320
_publ_section_title
;
Structure prediction by ZEFSAII (Michael W. Deem and Ramdas Pophale) SiO2 
 PCOD9509320
Probable space group: C C C A
;
_chemical_formula_sum "Si O2"
_cell_formula_units_Z 120
_cell_length_a 19.480843
_cell_length_b 24.421433
_cell_length_c 11.384039
_cell_angle_alpha 90.000000
_cell_angle_beta 90.000000
_cell_angle_gamma 90.000000
_cell_volume 5415.957717
_symmetry_space_group_name_H-M "C C C A"
_symmetry_group_IT_number 68
_space_group.IT_coordinate_system_code '2'
_symmetry_cell_setting 'orthorhombic'
loop_
_space_group_symop_operation_xyz
x,y,z
-x,1/2-y,z
x,1/2-y,1/2-z
-x,y,1/2-z
-x,-y,-z
x,1/2+y,-z
-x,1/2+y,1/2+z
x,-y,1/2+z
1/2+x,1/2+y,z
1/2-x,-y,z
1/2+x,-y,1/2-z
1/2-x,1/2+y,1/2-z
1/2-x,1/2-y,-z
1/2+x,y,-z
1/2-x,y,1/2+z
1/2+x,1/2-y,1/2+z
loop_
_atom_site_type_symbol
_atom_site_label
_atom_site_fract_x
_atom_site_fract_y
_atom_site_fract_z
Si Si1 0.123215 0.909019 0.576540
Si Si2 0.911930 0.141570 0.995095
Si Si3 0.582159 0.312746 0.751075
Si Si4 0.250000 0.000000 0.909343
Si Si5 0.759058 0.587067 0.218695
Si Si6 0.456370 0.133448 0.360906
Si Si7 0.126880 0.024319 0.578655
Si Si8 0.661759 0.810915 0.775588
O O1 0.101085 0.854246 0.646512
O O2 0.203868 0.910620 0.614252
O O3 0.093912 0.902092 0.444032
O O4 0.092380 0.967820 0.621088
O O5 0.897818 0.158549 0.126812
O O6 0.912733 0.075370 0.977920
O O7 0.857842 0.170826 0.908037
O O8 0.986564 0.158880 0.946609
O O9 0.608949 0.250000 0.750000
O O10 0.500000 0.309147 0.750000
O O11 0.235433 0.948289 0.827386
O O12 0.181824 0.000317 0.987041
O O13 0.779531 0.646854 0.259598
O O14 0.827059 0.554584 0.176237
O O15 0.500000 0.107673 0.250000
O O16 0.406720 0.176869 0.299293
O O17 0.683073 0.750000 0.750000
#
# Coordination Sequence:
#
# PCOD9509320 Si02
#       8
#    16  16  16   8  16  16  16  16
#     4  12  22  44  69  96 138 183 230 283 365 407
#     4  10  23  44  64 103 134 179 243 286 352 419
#     4  11  25  44  67  94 139 186 233 286 348 433
#     4  12  18  40  68  92 136 178 224 278 354 424
#     4  11  23  41  65 104 131 175 232 272 353 435
#     4  10  23  44  67  99 132 180 235 290 350 413
#     4  11  23  40  67  99 134 181 227 291 342 424
#     4  10  24  42  70 101 137 179 230 293 347 412
#
# _framework density 22.156745999999998
#
# number of rings (size 3 to 8) (size 9 to 14) (size 15 to 20)
#    0.000    1.200    4.000    1.600    1.867    3.467 
#    0.000    0.667    0.000    0.000    0.000    0.000 
#    0.000    0.000    0.000    0.000    0.000    0.000 
#
# Total GULP energy -334628.942661 kJ/mol
# GULP energy per Si atom -5577.149044 kJ/mol
# Density = 2.210632 g / cm^3
# Si number density = 22.156746 Si / 1000 Ang^3
#
#
#
# Elastic Constant Matrix: (Units=GPa)
#
#
# Indices 1 2 3 4 5 6 
#
# 1 32.2927 23.9064 14.8756 0.0000 0.0000 0.0000
# 2 23.9064 195.0148 39.9231 0.0000 0.0000 0.0000
# 3 14.8756 39.9231 74.9939 0.0000 0.0000 0.0000
# 4 0.0000 0.0000 0.0000 14.3639 0.0000 0.0000
# 5 0.0000 0.0000 0.0000 0.0000 19.6092 0.0000
# 6 0.0000 0.0000 0.0000 0.0000 0.0000 11.1259
#
#
#
# Elastic Compliance Matrix: (Units=1/GPa)
#
#
# Indices 1 2 3 4 5 6 
#
# 1 0.035880 -0.003301 -0.005360 0.000000 0.000000 0.000000
# 2 -0.003301 0.006059 -0.002571 0.000000 0.000000 0.000000
# 3 -0.005360 -0.002571 0.015766 0.000000 0.000000 0.000000
# 4 0.000000 0.000000 0.000000 0.069619 0.000000 0.000000
# 5 0.000000 0.000000 0.000000 0.000000 0.050997 0.000000
# 6 0.000000 0.000000 0.000000 0.000000 0.000000 0.089880
#
#
# Mechanical properties :
#
#
# Convention : Reuss Voigt Hill
#
# Bulk Modulus (GPa) = 28.37556 51.07907 39.72731
# Shear Modulus (GPa) = 16.53384 23.92621 20.23003
#
# Velocity S-wave (km/s) = 2.73467 3.28969 3.02494
# Velocity P-wave (km/s) = 4.77554 6.12641 5.49266
#
# Compressibility (1/GPa) = 0.03524160
#
# Stress axis : x y z
#
# Youngs Moduli (GPa) = 27.87105 165.05066 63.42774
#
# Poissons Ratio (x) = 0.54486 0.33994
# Poissons Ratio (y) = 0.09201 0.16305
# Poissons Ratio (z) = 0.14938 0.42427
#
# Static dielectric constant tensor:
#      x y z
#    x -4.648360 0.000000 0.000000 
#    y 0.000000 1.877240 0.000000 
#    z 0.000000 0.000000 1.832360 
# 
# From -- ./inp_files/16603.got.cif
#   From: 2010.05.17/outbox.cif.g08.bks.cpg/sg68_9_cif.got.tgz:16603.got - 2010.06.03 18:57:09.
