data_PCOD9509513
_publ_section_title
;
Structure prediction by ZEFSAII (Michael W. Deem and Ramdas Pophale) SiO2 
 PCOD9509513
Probable space group: C C C A
;
_chemical_formula_sum "Si O2"
_cell_formula_units_Z 56
_cell_length_a 19.662822
_cell_length_b 4.892769
_cell_length_c 23.157608
_cell_angle_alpha 90.000000
_cell_angle_beta 90.000000
_cell_angle_gamma 90.000000
_cell_volume 2227.892636
_symmetry_space_group_name_H-M "C C C A"
_symmetry_group_IT_number 68
_space_group.IT_coordinate_system_code '2'
_symmetry_cell_setting 'orthorhombic'
loop_
_space_group_symop_operation_xyz
x,y,z
-x,1/2-y,z
x,1/2-y,1/2-z
-x,y,1/2-z
-x,-y,-z
x,1/2+y,-z
-x,1/2+y,1/2+z
x,-y,1/2+z
1/2+x,1/2+y,z
1/2-x,-y,z
1/2+x,-y,1/2-z
1/2-x,1/2+y,1/2-z
1/2-x,1/2-y,-z
1/2+x,y,-z
1/2-x,y,1/2+z
1/2+x,1/2-y,1/2+z
loop_
_atom_site_type_symbol
_atom_site_label
_atom_site_fract_x
_atom_site_fract_y
_atom_site_fract_z
Si Si1 0.926295 0.661595 0.837309
Si Si2 0.661543 0.823713 0.811545
Si Si3 0.250000 0.000000 0.903314
Si Si4 0.380002 0.763010 0.462522
O O1 0.905277 0.365706 0.815731
O O2 0.924262 0.664304 0.906893
O O3 0.000000 0.750000 0.817148
O O4 0.866033 0.870396 0.818470
O O5 0.693928 0.750000 0.750000
O O6 0.709296 0.712796 0.862648
O O7 0.303685 0.164649 0.941935
O O8 0.391912 0.455231 0.482353
#
# Coordination Sequence:
#
# PCOD9509513 Si02
#       4
#    16  16   8  16
#     4  11  25  44  65  95 130 166 217 267 313 382
#     4  11  25  43  67  96 128 170 212 263 326 381
#     4  10  24  42  64  94 130 162 212 264 314 386
#     4  11  23  40  64  92 126 168 209 259 319 377
#
# _framework density 25.135860999999998
#
# number of rings (size 3 to 8) (size 9 to 14) (size 15 to 20)
#    0.000    1.143    0.000    6.000    0.000   18.286 
#    0.000    0.000    0.000    0.000    0.000    0.000 
#    0.000    0.000    0.000    0.000    0.000    0.000 
#
# Total GULP energy -157044.058676 kJ/mol
# GULP energy per Si atom -5608.716381 kJ/mol
# Density = 2.507865 g / cm^3
# Si number density = 25.135861 Si / 1000 Ang^3
#
#
#
# Elastic Constant Matrix: (Units=GPa)
#
#
# Indices 1 2 3 4 5 6 
#
# 1 68.9871 10.5020 -6.9364 0.0000 0.0000 0.0000
# 2 10.5020 62.0145 6.9022 0.0000 0.0000 0.0000
# 3 -6.9364 6.9022 109.5086 0.0000 0.0000 0.0000
# 4 0.0000 0.0000 0.0000 39.6308 0.0000 0.0000
# 5 0.0000 0.0000 0.0000 0.0000 -13.5656 0.0000
# 6 0.0000 0.0000 0.0000 0.0000 0.0000 33.7976
#
#
#
# Elastic Compliance Matrix: (Units=1/GPa)
#
#
# Indices 1 2 3 4 5 6 
#
# 1 0.015014 -0.002667 0.001119 0.000000 0.000000 0.000000
# 2 -0.002667 0.016713 -0.001222 0.000000 0.000000 0.000000
# 3 0.001119 -0.001222 0.009280 0.000000 0.000000 0.000000
# 4 0.000000 0.000000 0.000000 0.025233 0.000000 0.000000
# 5 0.000000 0.000000 0.000000 0.000000 -0.073716 0.000000
# 6 0.000000 0.000000 0.000000 0.000000 0.000000 0.029588
#
#
# Mechanical properties :
#
#
# Convention : Reuss Voigt Hill
#
# Bulk Modulus (GPa) = 28.19613 29.04955 28.62284
# Shear Modulus (GPa) = 126.66571 27.30873 76.98722
#
# Velocity S-wave (km/s) = 7.10646 3.29970 5.54030
# Velocity P-wave (km/s) = 8.86440 5.10877 7.23454
#
# Compressibility (1/GPa) = 0.03546586
#
# Stress axis : x y z
#
# Youngs Moduli (GPa) = 66.60449 59.83375 107.76290
#
# Poissons Ratio (x) = 0.15959 -0.12060
# Poissons Ratio (y) = 0.17764 0.13172
# Poissons Ratio (z) = -0.07454 0.07314
#
# Static dielectric constant tensor:
#      x y z
#    x 2.004850 0.000000 0.000000 
#    y 0.000000 1.888610 0.000000 
#    z 0.000000 0.000000 1.990360 
# 
# From -- ./inp_files/34901.got.cif
#   From: 2010.05.17/outbox.cif.g08.bks.cpg/sg68_18_cif.got.tgz:34901.got - 2010.06.03 18:57:09.
