data_PCOD9509389
_publ_section_title
;
Structure prediction by ZEFSAII (Michael W. Deem and Ramdas Pophale) SiO2 
 PCOD9509389
Probable space group: C C C A
;
_chemical_formula_sum "Si O2"
_cell_formula_units_Z 88
_cell_length_a 11.577805
_cell_length_b 10.429618
_cell_length_c 32.211001
_cell_angle_alpha 90.000000
_cell_angle_beta 90.000000
_cell_angle_gamma 90.000000
_cell_volume 3889.545480
_symmetry_space_group_name_H-M "C C C A"
_symmetry_group_IT_number 68
_space_group.IT_coordinate_system_code '2'
_symmetry_cell_setting 'orthorhombic'
loop_
_space_group_symop_operation_xyz
x,y,z
-x,1/2-y,z
x,1/2-y,1/2-z
-x,y,1/2-z
-x,-y,-z
x,1/2+y,-z
-x,1/2+y,1/2+z
x,-y,1/2+z
1/2+x,1/2+y,z
1/2-x,-y,z
1/2+x,-y,1/2-z
1/2-x,1/2+y,1/2-z
1/2-x,1/2-y,-z
1/2+x,y,-z
1/2-x,y,1/2+z
1/2+x,1/2-y,1/2+z
loop_
_atom_site_type_symbol
_atom_site_label
_atom_site_fract_x
_atom_site_fract_y
_atom_site_fract_z
Si Si1 0.428307 0.527370 0.786517
Si Si2 0.872610 0.320811 0.985269
Si Si3 0.750000 0.000000 0.958577
Si Si4 0.000000 0.750000 0.337161
Si Si5 0.366981 0.779692 0.169612
Si Si6 0.699390 0.259018 0.098153
Si Si7 0.267809 0.250000 0.250000
O O1 0.500000 0.458806 0.750000
O O2 0.514900 0.622181 0.810604
O O3 0.366938 0.430423 0.817822
O O4 0.342257 0.629211 0.765372
O O5 0.847933 0.340699 0.936245
O O6 0.000000 0.250000 0.990568
O O7 0.750000 0.250000 0.000000
O O8 0.855693 0.448530 0.012778
O O9 0.791783 0.112207 0.928554
O O10 0.107864 0.726053 0.365829
O O11 0.500000 0.750000 0.169116
O O12 0.314704 0.741512 0.125042
O O13 0.304636 0.714238 0.208958
#
# Coordination Sequence:
#
# PCOD9509389 Si02
#       7
#    16  16   8   8  16  16   8
#     4  12  22  42  71  99 140 193 241 300 357 427
#     4  10  23  45  73 108 145 185 245 303 374 461
#     4  10  24  46  78 104 140 200 228 316 382 444
#     4  12  21  42  64 104 134 186 244 292 350 431
#     4  12  27  45  67 105 148 188 242 303 366 434
#     4  11  23  44  70 103 142 185 242 294 360 445
#     4  12  22  42  68 102 138 191 247 288 360 430
#
# _framework density 22.624752000000001
#
# number of rings (size 3 to 8) (size 9 to 14) (size 15 to 20)
#    0.000    0.727    4.545    3.000    0.000    5.818 
#    3.273    0.000    0.000    0.000    0.000    0.000 
#    0.000    0.000    0.000    0.000    0.000    0.000 
#
# Total GULP energy -245373.687635 kJ/mol
# GULP energy per Si atom -5576.674719 kJ/mol
# Density = 2.257326 g / cm^3
# Si number density = 22.624752 Si / 1000 Ang^3
#
#
#
# Elastic Constant Matrix: (Units=GPa)
#
#
# Indices 1 2 3 4 5 6 
#
# 1 138.2712 23.6293 59.0602 0.0000 0.0000 0.0000
# 2 23.6293 49.0953 28.7590 0.0000 0.0000 0.0000
# 3 59.0602 28.7590 148.7575 0.0000 0.0000 0.0000
# 4 0.0000 0.0000 0.0000 61.0708 0.0000 0.0000
# 5 0.0000 0.0000 0.0000 0.0000 47.6944 0.0000
# 6 0.0000 0.0000 0.0000 0.0000 0.0000 32.3371
#
#
#
# Elastic Compliance Matrix: (Units=1/GPa)
#
#
# Indices 1 2 3 4 5 6 
#
# 1 0.008977 -0.002518 -0.003077 0.000000 0.000000 0.000000
# 2 -0.002518 0.023676 -0.003578 0.000000 0.000000 0.000000
# 3 -0.003077 -0.003578 0.008636 0.000000 0.000000 0.000000
# 4 0.000000 0.000000 0.000000 0.016374 0.000000 0.000000
# 5 0.000000 0.000000 0.000000 0.000000 0.020967 0.000000
# 6 0.000000 0.000000 0.000000 0.000000 0.000000 0.030924
#
#
# Mechanical properties :
#
#
# Convention : Reuss Voigt Hill
#
# Bulk Modulus (GPa) = 43.58593 62.11346 52.84969
# Shear Modulus (GPa) = 36.88748 43.19883 40.04316
#
# Velocity S-wave (km/s) = 4.04221 4.37436 4.21156
# Velocity P-wave (km/s) = 6.41034 7.28195 6.86000
#
# Compressibility (1/GPa) = 0.02294319
#
# Stress axis : x y z
#
# Youngs Moduli (GPa) = 111.39777 42.23673 115.79797
#
# Poissons Ratio (x) = 0.10635 0.35634
# Poissons Ratio (y) = 0.28049 0.41428
# Poissons Ratio (z) = 0.34280 0.15111
#
# Static dielectric constant tensor:
#      x y z
#    x 2.033380 0.000000 0.000000 
#    y 0.000000 2.007950 0.000000 
#    z 0.000000 0.000000 1.845400 
# 
# From -- ./inp_files/54680.got.cif
#   From: 2010.05.17/outbox.cif.g08.bks.cpg/sg68_28_cif.got.tgz:54680.got - 2010.06.03 18:57:09.
