data_PCOD9509579
_publ_section_title
;
Structure prediction by ZEFSAII (Michael W. Deem and Ramdas Pophale) SiO2 
 PCOD9509579
Probable space group: C C C A
;
_chemical_formula_sum "Si O2"
_cell_formula_units_Z 96
_cell_length_a 22.322855
_cell_length_b 22.888444
_cell_length_c 9.022927
_cell_angle_alpha 90.000000
_cell_angle_beta 90.000000
_cell_angle_gamma 90.000000
_cell_volume 4610.132966
_symmetry_space_group_name_H-M "C C C A"
_symmetry_group_IT_number 68
_space_group.IT_coordinate_system_code '2'
_symmetry_cell_setting 'orthorhombic'
loop_
_space_group_symop_operation_xyz
x,y,z
-x,1/2-y,z
x,1/2-y,1/2-z
-x,y,1/2-z
-x,-y,-z
x,1/2+y,-z
-x,1/2+y,1/2+z
x,-y,1/2+z
1/2+x,1/2+y,z
1/2-x,-y,z
1/2+x,-y,1/2-z
1/2-x,1/2+y,1/2-z
1/2-x,1/2-y,-z
1/2+x,y,-z
1/2-x,y,1/2+z
1/2+x,1/2-y,1/2+z
loop_
_atom_site_type_symbol
_atom_site_label
_atom_site_fract_x
_atom_site_fract_y
_atom_site_fract_z
Si Si1 0.449083 0.798154 0.000000
Si Si2 0.199237 0.918009 0.500000
Si Si3 0.940602 0.076694 0.500000
Si Si4 0.634115 0.750000 0.250000
Si Si5 0.789738 0.192512 1.000000
Si Si6 0.000000 0.000000 0.750000
Si Si7 0.250000 0.500000 0.250000
Si Si8 0.134115 0.750000 0.250000
O O1 0.500000 0.750000 0.000000
O O2 0.476180 0.862490 0.000000
O O3 0.407426 0.786856 0.141171
O O4 0.407426 0.786856 0.858829
O O5 0.128912 0.904643 0.500000
O O6 0.246308 0.863746 0.500000
O O7 0.212214 0.958025 0.643114
O O8 0.212214 0.958025 0.356886
O O9 0.958911 0.039364 0.643141
O O10 0.958911 0.039364 0.356859
O O11 0.671334 0.703738 0.350965
O O12 0.828666 0.203738 0.850965
O O13 0.750000 0.250000 0.000000
#
# Coordination Sequence:
#
# PCOD9509579 Si02
#       8
#    16  16  16   8  16   8   8   8
#     4  11  25  43  71 102 134 173 228 284 341 399
#     4  11  24  45  70  98 142 175 231 276 338 411
#     4  11  25  46  73  96 134 179 227 290 335 405
#     4  10  24  44  64 104 138 177 217 272 358 402
#     4  11  24  40  68 100 135 177 219 269 341 412
#     4  10  26  50  70  96 132 182 242 276 342 398
#     4  10  26  42  66 104 136 182 226 276 324 408
#     4  10  24  44  64 104 138 177 217 272 358 402
#
# _framework density 20.823695000000001
#
# number of rings (size 3 to 8) (size 9 to 14) (size 15 to 20)
#    0.000    1.333    0.000    4.000   14.000    0.000 
#    0.000    0.000    0.000    0.000    0.000    0.000 
#    0.000    0.000    0.000    0.000    0.000    0.000 
#
# Total GULP energy -268295.097072 kJ/mol
# GULP energy per Si atom -5589.481189 kJ/mol
# Density = 2.077630 g / cm^3
# Si number density = 20.823695 Si / 1000 Ang^3
#
#
#
# Elastic Constant Matrix: (Units=GPa)
#
#
# Indices 1 2 3 4 5 6 
#
# 1 109.1232 58.4380 61.7028 0.0000 0.0000 0.0000
# 2 58.4380 173.1547 71.0077 0.0000 0.0000 0.0000
# 3 61.7028 71.0077 165.2442 0.0000 0.0000 0.0000
# 4 0.0000 0.0000 0.0000 9.8762 0.0000 0.0000
# 5 0.0000 0.0000 0.0000 0.0000 12.1953 0.0000
# 6 0.0000 0.0000 0.0000 0.0000 0.0000 32.3357
#
#
#
# Elastic Compliance Matrix: (Units=1/GPa)
#
#
# Indices 1 2 3 4 5 6 
#
# 1 0.012668 -0.002835 -0.003512 0.000000 0.000000 0.000000
# 2 -0.002835 0.007645 -0.002227 0.000000 0.000000 0.000000
# 3 -0.003512 -0.002227 0.008320 0.000000 0.000000 0.000000
# 4 0.000000 0.000000 0.000000 0.101254 0.000000 0.000000
# 5 0.000000 0.000000 0.000000 0.000000 0.081999 0.000000
# 6 0.000000 0.000000 0.000000 0.000000 0.000000 0.030926
#
#
# Mechanical properties :
#
#
# Convention : Reuss Voigt Hill
#
# Bulk Modulus (GPa) = 87.06558 92.20212 89.63385
# Shear Modulus (GPa) = 18.95468 27.97301 23.46385
#
# Velocity S-wave (km/s) = 3.02030 3.66912 3.36040
# Velocity P-wave (km/s) = 7.35286 7.89453 7.62850
#
# Compressibility (1/GPa) = 0.01148560
#
# Stress axis : x y z
#
# Youngs Moduli (GPa) = 78.93859 130.80313 120.19486
#
# Poissons Ratio (x) = 0.37084 0.42213
# Poissons Ratio (y) = 0.22380 0.26762
# Poissons Ratio (z) = 0.27723 0.29124
#
# Static dielectric constant tensor:
#      x y z
#    x 1.813850 0.000000 0.000000 
#    y 0.000000 1.730670 0.000000 
#    z 0.000000 0.000000 1.551510 
# 
# From -- ./inp_files/8197.got.cif
#   From: 2010.05.17/outbox.cif.g08.bks.cpg/sg68_5_cif.got.tgz:8197.got - 2010.06.03 18:57:09.
