data_PCOD9509526
_publ_section_title
;
Structure prediction by ZEFSAII (Michael W. Deem and Ramdas Pophale) SiO2 
 PCOD9509526
Probable space group: C C C A
;
_chemical_formula_sum "Si O2"
_cell_formula_units_Z 64
_cell_length_a 9.819097
_cell_length_b 30.210704
_cell_length_c 9.165852
_cell_angle_alpha 90.000000
_cell_angle_beta 90.000000
_cell_angle_gamma 90.000000
_cell_volume 2718.975138
_symmetry_space_group_name_H-M "C C C A"
_symmetry_group_IT_number 68
_space_group.IT_coordinate_system_code '2'
_symmetry_cell_setting 'orthorhombic'
loop_
_space_group_symop_operation_xyz
x,y,z
-x,1/2-y,z
x,1/2-y,1/2-z
-x,y,1/2-z
-x,-y,-z
x,1/2+y,-z
-x,1/2+y,1/2+z
x,-y,1/2+z
1/2+x,1/2+y,z
1/2-x,-y,z
1/2+x,-y,1/2-z
1/2-x,1/2+y,1/2-z
1/2-x,1/2-y,-z
1/2+x,y,-z
1/2-x,y,1/2+z
1/2+x,1/2-y,1/2+z
loop_
_atom_site_type_symbol
_atom_site_label
_atom_site_fract_x
_atom_site_fract_y
_atom_site_fract_z
Si Si1 0.175858 0.689196 0.491818
Si Si2 0.500000 0.007074 0.250000
Si Si3 0.564179 0.634997 0.087776
Si Si4 0.229316 0.250000 0.750000
Si Si5 0.643895 0.040099 0.001965
O O1 0.326564 0.673103 0.445611
O O2 0.140140 0.722029 0.362029
O O3 0.184861 0.716701 0.643636
O O4 0.070356 0.648781 0.498202
O O5 0.531094 0.975519 0.384767
O O6 0.612482 0.037928 0.175054
O O7 0.500000 0.630593 0.250000
O O8 0.648043 0.591246 0.040110
O O9 0.750000 0.000000 0.978076
#
# Coordination Sequence:
#
# PCOD9509526 Si02
#       5
#    16   8  16   8  16
#     4  11  26  46  79 110 155 203 252 318 379 463
#     4  10  24  42  66 106 132 196 242 302 374 436
#     4  12  27  49  74 117 155 192 259 325 373 441
#     4  10  24  48  76 116 150 212 252 304 406 462
#     4  11  25  45  74 102 149 200 245 308 381 450
#
# _framework density 23.538281999999999
#
# number of rings (size 3 to 8) (size 9 to 14) (size 15 to 20)
#    0.000    1.000    3.750    0.750    7.000   11.000 
#    0.000    0.000    0.000    0.000    0.000    0.000 
#    0.000    0.000    0.000    0.000    0.000    0.000 
#
# Total GULP energy -178173.851175 kJ/mol
# GULP energy per Si atom -5567.932849 kJ/mol
# Density = 2.348471 g / cm^3
# Si number density = 23.538282 Si / 1000 Ang^3
#
#
#
# Elastic Constant Matrix: (Units=GPa)
#
#
# Indices 1 2 3 4 5 6 
#
# 1 77.6090 29.4486 13.0922 0.0000 0.0000 0.0000
# 2 29.4486 119.5713 55.1653 0.0000 0.0000 0.0000
# 3 13.0922 55.1653 125.6311 0.0000 0.0000 0.0000
# 4 0.0000 0.0000 0.0000 10.9001 0.0000 0.0000
# 5 0.0000 0.0000 0.0000 0.0000 12.3356 0.0000
# 6 0.0000 0.0000 0.0000 0.0000 0.0000 26.5656
#
#
#
# Elastic Compliance Matrix: (Units=1/GPa)
#
#
# Indices 1 2 3 4 5 6 
#
# 1 0.014214 -0.003533 0.000070 0.000000 0.000000 0.000000
# 2 -0.003533 0.011366 -0.004623 0.000000 0.000000 0.000000
# 3 0.000070 -0.004623 0.009982 0.000000 0.000000 0.000000
# 4 0.000000 0.000000 0.000000 0.091742 0.000000 0.000000
# 5 0.000000 0.000000 0.000000 0.000000 0.081066 0.000000
# 6 0.000000 0.000000 0.000000 0.000000 0.000000 0.037643
#
#
# Mechanical properties :
#
#
# Convention : Reuss Voigt Hill
#
# Bulk Modulus (GPa) = 51.57012 57.58041 54.57526
# Shear Modulus (GPa) = 18.61170 24.96729 21.78950
#
# Velocity S-wave (km/s) = 2.81499 3.26039 3.04584
# Velocity P-wave (km/s) = 5.70282 6.22005 5.96704
#
# Compressibility (1/GPa) = 0.01939107
#
# Stress axis : x y z
#
# Youngs Moduli (GPa) = 70.35387 87.98112 100.17662
#
# Poissons Ratio (x) = 0.31084 -0.00702
# Poissons Ratio (y) = 0.24856 0.46309
# Poissons Ratio (z) = -0.00493 0.40671
#
# Static dielectric constant tensor:
#      x y z
#    x 1.865410 0.000000 0.000000 
#    y 0.000000 2.050320 0.000000 
#    z 0.000000 0.000000 1.935180 
# 
# From -- ./inp_files/4102.got.cif
#   From: 2010.05.17/outbox.cif.g08.bks.cpg/sg68_3_cif.got.tgz:4102.got - 2010.06.03 18:57:09.
