data_PCOD9510190
_publ_section_title
;
Structure prediction by ZEFSAII (Michael W. Deem and Ramdas Pophale) SiO2 
 PCOD9510190
Probable space group: C C C A
;
_chemical_formula_sum "Si O2"
_cell_formula_units_Z 80
_cell_length_a 11.096477
_cell_length_b 23.848070
_cell_length_c 14.352410
_cell_angle_alpha 90.000000
_cell_angle_beta 90.000000
_cell_angle_gamma 90.000000
_cell_volume 3798.071947
_symmetry_space_group_name_H-M "C C C A"
_symmetry_group_IT_number 68
_space_group.IT_coordinate_system_code '2'
_symmetry_cell_setting 'orthorhombic'
loop_
_space_group_symop_operation_xyz
x,y,z
-x,1/2-y,z
x,1/2-y,1/2-z
-x,y,1/2-z
-x,-y,-z
x,1/2+y,-z
-x,1/2+y,1/2+z
x,-y,1/2+z
1/2+x,1/2+y,z
1/2-x,-y,z
1/2+x,-y,1/2-z
1/2-x,1/2+y,1/2-z
1/2-x,1/2-y,-z
1/2+x,y,-z
1/2-x,y,1/2+z
1/2+x,1/2-y,1/2+z
loop_
_atom_site_type_symbol
_atom_site_label
_atom_site_fract_x
_atom_site_fract_y
_atom_site_fract_z
Si Si1 0.000000 0.250000 0.750000
Si Si2 0.350541 0.908876 0.640917
Si Si3 0.325069 0.197412 0.607078
Si Si4 0.867385 0.578032 0.354009
Si Si5 0.000000 0.750000 0.750000
Si Si6 0.750000 0.500000 0.497033
Si Si7 0.663914 0.307171 0.401311
O O1 0.923624 0.210962 0.681757
O O2 0.271749 0.851867 0.628862
O O3 0.494708 0.901352 0.632487
O O4 0.339811 0.933630 0.745950
O O5 0.305737 0.952732 0.563882
O O6 0.419931 0.208643 0.687344
O O7 0.386241 0.188163 0.506304
O O8 0.258342 0.257024 0.599090
O O9 0.844111 0.528696 0.426284
O O10 0.785285 0.631619 0.379539
#
# Coordination Sequence:
#
# PCOD9510190 Si02
#       7
#     4  16  16  16   4   8  16
#     4  12  20  36  68 100 130 168 224 260 344 414
#     4  11  24  45  68  96 135 176 225 273 339 409
#     4  11  24  43  65 100 141 174 218 276 343 412
#     4  11  23  43  71  96 129 181 223 275 337 403
#     4  12  24  40  64 108 146 172 220 280 348 410
#     4  12  24  46  64 102 132 170 234 292 326 386
#     4  11  22  41  66  97 131 174 216 273 334 418
#
# _framework density 21.063319
#
# number of rings (size 3 to 8) (size 9 to 14) (size 15 to 20)
#    0.000    0.800    2.000    7.200    0.000    1.600 
#    3.600    2.000    0.000    0.000    0.000    0.000 
#    0.000    0.000    0.000    0.000    0.000    0.000 
#
# Total GULP energy -223386.213199 kJ/mol
# GULP energy per Si atom -5584.655330 kJ/mol
# Density = 2.101538 g / cm^3
# Si number density = 21.063319 Si / 1000 Ang^3
#
#
#
# Elastic Constant Matrix: (Units=GPa)
#
#
# Indices 1 2 3 4 5 6 
#
# 1 69.6237 36.2012 61.7770 0.0000 0.0000 0.0000
# 2 36.2012 105.8699 48.0519 0.0000 0.0000 0.0000
# 3 61.7770 48.0519 192.8543 0.0000 0.0000 0.0000
# 4 0.0000 0.0000 0.0000 15.7258 0.0000 0.0000
# 5 0.0000 0.0000 0.0000 0.0000 43.6542 0.0000
# 6 0.0000 0.0000 0.0000 0.0000 0.0000 24.5064
#
#
#
# Elastic Compliance Matrix: (Units=1/GPa)
#
#
# Indices 1 2 3 4 5 6 
#
# 1 0.022113 -0.004900 -0.005862 0.000000 0.000000 0.000000
# 2 -0.004900 0.011736 -0.001354 0.000000 0.000000 0.000000
# 3 -0.005862 -0.001354 0.007401 0.000000 0.000000 0.000000
# 4 0.000000 0.000000 0.000000 0.063590 0.000000 0.000000
# 5 0.000000 0.000000 0.000000 0.000000 0.022907 0.000000
# 6 0.000000 0.000000 0.000000 0.000000 0.000000 0.040806
#
#
# Mechanical properties :
#
#
# Convention : Reuss Voigt Hill
#
# Bulk Modulus (GPa) = 58.77224 73.37869 66.07546
# Shear Modulus (GPa) = 25.19429 31.59846 28.39637
#
# Velocity S-wave (km/s) = 3.46225 3.87740 3.67569
# Velocity P-wave (km/s) = 6.62919 7.41340 7.03223
#
# Compressibility (1/GPa) = 0.01701484
#
# Stress axis : x y z
#
# Youngs Moduli (GPa) = 45.22324 85.20843 135.12426
#
# Poissons Ratio (x) = 0.41756 0.79214
# Poissons Ratio (y) = 0.22161 0.18301
# Poissons Ratio (z) = 0.26511 0.11541
#
# Static dielectric constant tensor:
#      x y z
#    x 1.775460 0.000000 0.000000 
#    y 0.000000 1.799080 0.000000 
#    z 0.000000 0.000000 1.826590 
# 
# From -- ./inp_files/20939.got.cif
#   From: 2010.05.17/outbox.cif.g08.bks.cpg/sg68_11_cif.got.tgz:20939.got - 2010.06.03 18:57:09.
