data_PCOD9510187
_publ_section_title
;
Structure prediction by ZEFSAII (Michael W. Deem and Ramdas Pophale) SiO2 
 PCOD9510187
Probable space group: C C C A
;
_chemical_formula_sum "Si O2"
_cell_formula_units_Z 84
_cell_length_a 9.215009
_cell_length_b 25.409221
_cell_length_c 17.588829
_cell_angle_alpha 90.000000
_cell_angle_beta 90.000000
_cell_angle_gamma 90.000000
_cell_volume 4118.357476
_symmetry_space_group_name_H-M "C C C A"
_symmetry_group_IT_number 68
_space_group.IT_coordinate_system_code '2'
_symmetry_cell_setting 'orthorhombic'
loop_
_space_group_symop_operation_xyz
x,y,z
-x,1/2-y,z
x,1/2-y,1/2-z
-x,y,1/2-z
-x,-y,-z
x,1/2+y,-z
-x,1/2+y,1/2+z
x,-y,1/2+z
1/2+x,1/2+y,z
1/2-x,-y,z
1/2+x,-y,1/2-z
1/2-x,1/2+y,1/2-z
1/2-x,1/2-y,-z
1/2+x,y,-z
1/2-x,y,1/2+z
1/2+x,1/2-y,1/2+z
loop_
_atom_site_type_symbol
_atom_site_label
_atom_site_fract_x
_atom_site_fract_y
_atom_site_fract_z
Si Si1 0.750000 0.500000 0.562509
Si Si2 0.900021 0.332742 0.483249
Si Si3 0.500000 0.250000 0.250000
Si Si4 0.500000 0.250000 0.868790
Si Si5 0.278097 0.317040 0.348629
Si Si6 0.647896 0.903615 0.537585
Si Si7 0.070110 0.924762 0.169248
O O1 0.666208 0.457367 0.509842
O O2 0.858876 0.470248 0.618820
O O3 0.831460 0.314633 0.563354
O O4 0.807296 0.381269 0.452646
O O5 0.903077 0.286531 0.423150
O O6 0.058513 0.357872 0.494231
O O7 0.396163 0.285194 0.301180
O O8 0.380034 0.290269 0.832711
O O9 0.308804 0.378162 0.326219
O O10 0.563365 0.907087 0.616205
O O11 0.000000 0.938463 0.250000
#
# Coordination Sequence:
#
# PCOD9510187 Si02
#       7
#     8  16   4   8  16  16  16
#     4  12  22  46  72  98 128 176 234 286 334 406
#     4  11  22  41  65 104 130 170 225 289 321 396
#     4  12  26  42  68  84 134 194 208 266 360 406
#     4  12  23  37  66 101 129 170 228 276 324 385
#     4  11  24  41  65  94 135 174 225 266 333 407
#     4  11  23  41  71  98 135 174 231 281 336 398
#     4  11  25  45  68 101 138 179 219 282 348 410
#
# _framework density 20.39648
#
# number of rings (size 3 to 8) (size 9 to 14) (size 15 to 20)
#    0.000    0.762    6.667    1.714    5.333    1.143 
#    0.000    0.000    4.190    0.000    0.000    0.000 
#    0.000    0.000    0.000    0.000    0.000    0.000 
#
# Total GULP energy -234317.114331 kJ/mol
# GULP energy per Si atom -5578.978913 kJ/mol
# Density = 2.035006 g / cm^3
# Si number density = 20.396480 Si / 1000 Ang^3
#
#
#
# Elastic Constant Matrix: (Units=GPa)
#
#
# Indices 1 2 3 4 5 6 
#
# 1 86.0306 15.8852 33.6165 0.0000 0.0000 0.0000
# 2 15.8852 80.8769 27.1520 0.0000 0.0000 0.0000
# 3 33.6165 27.1520 69.0468 0.0000 0.0000 0.0000
# 4 0.0000 0.0000 0.0000 44.7709 0.0000 0.0000
# 5 0.0000 0.0000 0.0000 0.0000-2550.6675 0.0000
# 6 0.0000 0.0000 0.0000 0.0000 0.0000 20.9034
#
#
#
# Elastic Compliance Matrix: (Units=1/GPa)
#
#
# Indices 1 2 3 4 5 6 
#
# 1 0.014376 -0.000546 -0.006784 0.000000 0.000000 0.000000
# 2 -0.000546 0.014266 -0.005344 0.000000 0.000000 0.000000
# 3 -0.006784 -0.005344 0.019887 0.000000 0.000000 0.000000
# 4 0.000000 0.000000 0.000000 0.022336 0.000000 0.000000
# 5 0.000000 0.000000 0.000000 0.000000 -0.000392 0.000000
# 6 0.000000 0.000000 0.000000 0.000000 0.000000 0.047839
#
#
# Mechanical properties :
#
#
# Convention : Reuss Voigt Hill
#
# Bulk Modulus (GPa) = 43.14020 43.25129 43.19574
# Shear Modulus (GPa) = 33.02787 -486.37860 -226.67537
#
# Velocity S-wave (km/s) = 4.02841 -15.45897 -10.55347
# Velocity P-wave (km/s) = 6.54478 17.24495 11.28171
#
# Compressibility (1/GPa) = 0.02318024
#
# Stress axis : x y z
#
# Youngs Moduli (GPa) = 69.56263 70.09764 50.28286
#
# Poissons Ratio (x) = 0.03827 0.34113
# Poissons Ratio (y) = 0.03797 0.26872
# Poissons Ratio (z) = 0.47193 0.37461
#
# Static dielectric constant tensor:
#      x y z
#    x 1.732920 0.000000 0.000000 
#    y 0.000000 1.880790 0.000000 
#    z 0.000000 0.000000 1.741300 
# 
# From -- ./inp_files/36227.got.cif
#   From: 2010.05.17/outbox.cif.g08.bks.cpg/sg68_19_cif.got.tgz:36227.got - 2010.06.03 18:57:09.
