data_PCOD9510903
_publ_section_title
;
Structure prediction by ZEFSAII (Michael W. Deem and Ramdas Pophale) SiO2 
 PCOD9510903
Probable space group: C C C A
;
_chemical_formula_sum "Si O2"
_cell_formula_units_Z 64
_cell_length_a 11.587867
_cell_length_b 23.262039
_cell_length_c 8.947848
_cell_angle_alpha 90.000000
_cell_angle_beta 90.000000
_cell_angle_gamma 90.000000
_cell_volume 2411.958768
_symmetry_space_group_name_H-M "C C C A"
_symmetry_group_IT_number 68
_space_group.IT_coordinate_system_code '2'
_symmetry_cell_setting 'orthorhombic'
loop_
_space_group_symop_operation_xyz
x,y,z
-x,1/2-y,z
x,1/2-y,1/2-z
-x,y,1/2-z
-x,-y,-z
x,1/2+y,-z
-x,1/2+y,1/2+z
x,-y,1/2+z
1/2+x,1/2+y,z
1/2-x,-y,z
1/2+x,-y,1/2-z
1/2-x,1/2+y,1/2-z
1/2-x,1/2-y,-z
1/2+x,y,-z
1/2-x,y,1/2+z
1/2+x,1/2-y,1/2+z
loop_
_atom_site_type_symbol
_atom_site_label
_atom_site_fract_x
_atom_site_fract_y
_atom_site_fract_z
Si Si1 0.802842 0.750000 0.750000
Si Si2 0.520406 0.626465 0.497940
Si Si3 0.808241 0.874575 0.765466
Si Si4 0.000000 0.250000 0.501573
Si Si5 0.250000 0.500000 0.265189
Si Si6 0.000000 0.032705 0.750000
O O1 0.744578 0.812466 0.765624
O O2 0.888456 0.752440 0.607741
O O3 0.637330 0.622129 0.400818
O O4 0.415297 0.627505 0.379183
O O5 0.505727 0.688259 0.577037
O O6 0.505883 0.573236 0.605908
O O7 0.740022 0.932042 0.809033
O O8 0.385357 0.504689 0.219109
#
# Coordination Sequence:
#
# PCOD9510903 Si02
#       6
#     8  16  16   8   8   8
#     4   7  12  30  60  93 120 166 220 258 304 390
#     4   9  19  39  65  98 132 172 216 268 324 386
#     4   9  19  38  67  93 126 172 224 264 312 386
#     4   7  12  29  62  94 128 166 212 262 320 382
#     4  12  28  46  68  98 132 174 220 270 324 386
#     4  12  28  43  62  93 136 172 212 270 332 384
#
# _framework density 26.534451000000001
#
# number of rings (size 3 to 8) (size 9 to 14) (size 15 to 20)
#    0.000    2.750    0.000    4.500    0.000    8.500 
#    0.000    2.500    0.000    9.000    0.000    0.000 
#    0.000    0.000    0.000    0.000    0.000    0.000 
#
# Total GULP energy -178301.267105 kJ/mol
# GULP energy per Si atom -5571.914597 kJ/mol
# Density = 2.647406 g / cm^3
# Si number density = 26.534451 Si / 1000 Ang^3
#
#
#
# Elastic Constant Matrix: (Units=GPa)
#
#
# Indices 1 2 3 4 5 6 
#
# 1 122.1710 41.2613 27.0763 0.0000 0.0000 0.0000
# 2 41.2613 249.9180 27.5128 0.0000 0.0000 0.0000
# 3 27.0763 27.5128 97.1018 0.0000 0.0000 0.0000
# 4 0.0000 0.0000 0.0000 56.6548 0.0000 0.0000
# 5 0.0000 0.0000 0.0000 0.0000 55.4746 0.0000
# 6 0.0000 0.0000 0.0000 0.0000 0.0000 26.7920
#
#
#
# Elastic Compliance Matrix: (Units=1/GPa)
#
#
# Indices 1 2 3 4 5 6 
#
# 1 0.009094 -0.001262 -0.002178 0.000000 0.000000 0.000000
# 2 -0.001262 0.004305 -0.000868 0.000000 0.000000 0.000000
# 3 -0.002178 -0.000868 0.011152 0.000000 0.000000 0.000000
# 4 0.000000 0.000000 0.000000 0.017651 0.000000 0.000000
# 5 0.000000 0.000000 0.000000 0.000000 0.018026 0.000000
# 6 0.000000 0.000000 0.000000 0.000000 0.000000 0.037325
#
#
# Mechanical properties :
#
#
# Convention : Reuss Voigt Hill
#
# Bulk Modulus (GPa) = 62.75466 73.43242 68.09354
# Shear Modulus (GPa) = 44.85088 52.67363 48.76226
#
# Velocity S-wave (km/s) = 4.11577 4.46028 4.29149
# Velocity P-wave (km/s) = 6.80351 7.36614 7.09040
#
# Compressibility (1/GPa) = 0.01593507
#
# Stress axis : x y z
#
# Youngs Moduli (GPa) = 109.96107 232.27914 89.67125
#
# Poissons Ratio (x) = 0.29305 0.19534
# Poissons Ratio (y) = 0.13873 0.07784
# Poissons Ratio (z) = 0.23954 0.20162
#
# Static dielectric constant tensor:
#      x y z
#    x 2.098090 0.000000 0.000000 
#    y 0.000000 2.134380 0.000000 
#    z 0.000000 0.000000 2.086720 
# 
# From -- ./inp_files/11742.got.cif
#   From: 2010.05.17/outbox.cif.g08.bks.cpg/sg68_6_cif.got.tgz:11742.got - 2010.06.03 18:57:09.
