data_PCOD9510125
_publ_section_title
;
Structure prediction by ZEFSAII (Michael W. Deem and Ramdas Pophale) SiO2 
 PCOD9510125
Probable space group: C C C A
;
_chemical_formula_sum "Si O2"
_cell_formula_units_Z 88
_cell_length_a 11.441728
_cell_length_b 12.123020
_cell_length_c 27.903205
_cell_angle_alpha 90.000000
_cell_angle_beta 90.000000
_cell_angle_gamma 90.000000
_cell_volume 3870.406057
_symmetry_space_group_name_H-M "C C C A"
_symmetry_group_IT_number 68
_space_group.IT_coordinate_system_code '2'
_symmetry_cell_setting 'orthorhombic'
loop_
_space_group_symop_operation_xyz
x,y,z
-x,1/2-y,z
x,1/2-y,1/2-z
-x,y,1/2-z
-x,-y,-z
x,1/2+y,-z
-x,1/2+y,1/2+z
x,-y,1/2+z
1/2+x,1/2+y,z
1/2-x,-y,z
1/2+x,-y,1/2-z
1/2-x,1/2+y,1/2-z
1/2-x,1/2-y,-z
1/2+x,y,-z
1/2-x,y,1/2+z
1/2+x,1/2-y,1/2+z
loop_
_atom_site_type_symbol
_atom_site_label
_atom_site_fract_x
_atom_site_fract_y
_atom_site_fract_z
Si Si1 0.726282 0.631598 0.526932
Si Si2 0.501821 0.918567 0.634270
Si Si3 0.679304 0.602434 0.789761
Si Si4 0.771301 0.345796 0.681082
Si Si5 0.500000 0.750000 0.936647
Si Si6 0.576955 0.358803 0.609818
O O1 0.750000 0.500000 0.509730
O O2 0.750000 0.750000 0.500000
O O3 0.589000 0.662315 0.538552
O O4 0.821650 0.636644 0.569987
O O5 0.552478 0.911051 0.687681
O O6 0.367111 0.884604 0.642643
O O7 0.566932 0.831482 0.600088
O O8 0.506239 0.035659 0.609088
O O9 0.750000 0.500000 0.809388
O O10 0.694517 0.606830 0.732876
O O11 0.726342 0.715830 0.810586
O O12 0.644219 0.371450 0.660601
O O13 0.500000 0.250000 0.606155
#
# Coordination Sequence:
#
# PCOD9510125 Si02
#       6
#    16  16  16  16   8  16
#     4  12  28  51  80 114 152 195 257 326 399 486
#     4  12  21  41  71  98 140 194 249 297 371 456
#     4  11  22  36  60  98 140 186 252 304 353 437
#     4  11  22  40  61  95 141 192 248 300 368 445
#     4  12  24  46  81 104 144 196 250 301 398 460
#     4  12  25  45  72 105 149 202 248 320 397 457
#
# _framework density 22.736632
#
# number of rings (size 3 to 8) (size 9 to 14) (size 15 to 20)
#    0.000    0.364    5.455    3.273    1.273    3.636 
#    0.000    6.364    0.000    0.000    0.000    0.000 
#    0.000    0.000    0.000    0.000    0.000    0.000 
#
# Total GULP energy -244964.938462 kJ/mol
# GULP energy per Si atom -5567.384965 kJ/mol
# Density = 2.268488 g / cm^3
# Si number density = 22.736632 Si / 1000 Ang^3
#
#
#
# Elastic Constant Matrix: (Units=GPa)
#
#
# Indices 1 2 3 4 5 6 
#
# 1 49.4763 28.5418 -2.5651 0.0000 0.0000 0.0000
# 2 28.5418 216.4731 28.6803 0.0000 0.0000 0.0000
# 3 -2.5651 28.6803 42.9528 0.0000 0.0000 0.0000
# 4 0.0000 0.0000 0.0000 96.0729 0.0000 0.0000
# 5 0.0000 0.0000 0.0000 0.0000 85.9974 0.0000
# 6 0.0000 0.0000 0.0000 0.0000 0.0000 31.4598
#
#
#
# Elastic Compliance Matrix: (Units=1/GPa)
#
#
# Indices 1 2 3 4 5 6 
#
# 1 0.022379 -0.003431 0.003628 0.000000 0.000000 0.000000
# 2 -0.003431 0.005594 -0.003940 0.000000 0.000000 0.000000
# 3 0.003628 -0.003940 0.026129 0.000000 0.000000 0.000000
# 4 0.000000 0.000000 0.000000 0.010409 0.000000 0.000000
# 5 0.000000 0.000000 0.000000 0.000000 0.011628 0.000000
# 6 0.000000 0.000000 0.000000 0.000000 0.000000 0.031787
#
#
# Mechanical properties :
#
#
# Convention : Reuss Voigt Hill
#
# Bulk Modulus (GPa) = 21.45257 46.46848 33.96052
# Shear Modulus (GPa) = 38.18211 59.65569 48.91890
#
# Velocity S-wave (km/s) = 4.10240 5.12783 4.64351
# Velocity P-wave (km/s) = 5.64759 7.45263 6.61199
#
# Compressibility (1/GPa) = 0.04661446
#
# Stress axis : x y z
#
# Youngs Moduli (GPa) = 44.68432 178.76475 38.27182
#
# Poissons Ratio (x) = 0.61340 -0.13883
# Poissons Ratio (y) = 0.15333 0.15079
# Poissons Ratio (z) = -0.16210 0.70435
#
# Static dielectric constant tensor:
#      x y z
#    x 1.951470 0.000000 0.000000 
#    y 0.000000 1.847930 0.000000 
#    z 0.000000 0.000000 1.931250 
# 
# From -- ./inp_files/54647.got.cif
#   From: 2010.05.17/outbox.cif.g08.bks.cpg/sg68_28_cif.got.tgz:54647.got - 2010.06.03 18:57:09.
