data_PCOD9510362
_publ_section_title
;
Structure prediction by ZEFSAII (Michael W. Deem and Ramdas Pophale) SiO2 
 PCOD9510362
Probable space group: C C C A
;
_chemical_formula_sum "Si O2"
_cell_formula_units_Z 80
_cell_length_a 25.411512
_cell_length_b 8.628732
_cell_length_c 17.801379
_cell_angle_alpha 90.000000
_cell_angle_beta 90.000000
_cell_angle_gamma 90.000000
_cell_volume 3903.292829
_symmetry_space_group_name_H-M "C C C A"
_symmetry_group_IT_number 68
_space_group.IT_coordinate_system_code '2'
_symmetry_cell_setting 'orthorhombic'
loop_
_space_group_symop_operation_xyz
x,y,z
-x,1/2-y,z
x,1/2-y,1/2-z
-x,y,1/2-z
-x,-y,-z
x,1/2+y,-z
-x,1/2+y,1/2+z
x,-y,1/2+z
1/2+x,1/2+y,z
1/2-x,-y,z
1/2+x,-y,1/2-z
1/2-x,1/2+y,1/2-z
1/2-x,1/2-y,-z
1/2+x,y,-z
1/2-x,y,1/2+z
1/2+x,1/2-y,1/2+z
loop_
_atom_site_type_symbol
_atom_site_label
_atom_site_fract_x
_atom_site_fract_y
_atom_site_fract_z
Si Si1 0.382609 0.462999 0.929830
Si Si2 0.551415 0.661721 0.450154
Si Si3 0.859120 0.262455 0.670382
Si Si4 0.788918 0.872141 0.037316
Si Si5 0.970200 0.404629 0.827851
O O1 0.408967 0.294759 0.920569
O O2 0.375772 0.564546 0.854929
O O3 0.419335 0.563773 0.985811
O O4 0.327511 0.440360 0.973373
O O5 0.500000 0.750000 0.479057
O O6 0.531843 0.545410 0.385513
O O7 0.830208 0.250000 0.750000
O O8 0.825523 0.199443 0.601130
O O9 0.910433 0.154382 0.681087
O O10 0.750000 0.000000 0.070491
O O11 0.750000 0.750000 0.000000
O O12 0.000000 0.250000 0.855190
O O13 0.000000 0.445523 0.750000
#
# Coordination Sequence:
#
# PCOD9510362 Si02
#       5
#    16  16  16  16  16
#     4  12  24  46  72 110 141 195 251 310 359 465
#     4  12  24  40  71 104 145 194 254 291 361 445
#     4  12  25  48  75 105 151 194 241 307 389 446
#     4  12  24  48  80 102 140 187 251 318 380 440
#     4  11  23  45  69 101 154 204 231 296 373 443
#
# _framework density 20.495517
#
# number of rings (size 3 to 8) (size 9 to 14) (size 15 to 20)
#    0.000    0.200    8.000    1.800    0.000    2.000 
#    3.600    0.000    0.000    0.000    0.000    0.000 
#    0.000    0.000    0.000    0.000    0.000    0.000 
#
# Total GULP energy -223793.948675 kJ/mol
# GULP energy per Si atom -5594.848717 kJ/mol
# Density = 2.044887 g / cm^3
# Si number density = 20.495517 Si / 1000 Ang^3
#
#
#
# Elastic Constant Matrix: (Units=GPa)
#
#
# Indices 1 2 3 4 5 6 
#
# 1 107.6625 30.5192 33.5683 0.0000 0.0000 0.0000
# 2 30.5192 126.8673 60.7312 0.0000 0.0000 0.0000
# 3 33.5683 60.7312 139.9524 0.0000 0.0000 0.0000
# 4 0.0000 0.0000 0.0000 28.8576 0.0000 0.0000
# 5 0.0000 0.0000 0.0000 0.0000 26.1307 0.0000
# 6 0.0000 0.0000 0.0000 0.0000 0.0000 44.5770
#
#
#
# Elastic Compliance Matrix: (Units=1/GPa)
#
#
# Indices 1 2 3 4 5 6 
#
# 1 0.010301 -0.001635 -0.001761 0.000000 0.000000 0.000000
# 2 -0.001635 0.010208 -0.004038 0.000000 0.000000 0.000000
# 3 -0.001761 -0.004038 0.009320 0.000000 0.000000 0.000000
# 4 0.000000 0.000000 0.000000 0.034653 0.000000 0.000000
# 5 0.000000 0.000000 0.000000 0.000000 0.038269 0.000000
# 6 0.000000 0.000000 0.000000 0.000000 0.000000 0.022433
#
#
# Mechanical properties :
#
#
# Convention : Reuss Voigt Hill
#
# Bulk Modulus (GPa) = 66.83857 69.34661 68.09259
# Shear Modulus (GPa) = 34.47347 36.55731 35.51539
#
# Velocity S-wave (km/s) = 4.10567 4.22794 4.16725
# Velocity P-wave (km/s) = 7.42681 7.59884 7.51332
#
# Compressibility (1/GPa) = 0.01496142
#
# Stress axis : x y z
#
# Youngs Moduli (GPa) = 97.07922 97.95876 107.29760
#
# Poissons Ratio (x) = 0.16015 0.18898
# Poissons Ratio (y) = 0.15871 0.43324
# Poissons Ratio (z) = 0.17098 0.39553
#
# Static dielectric constant tensor:
#      x y z
#    x 1.752180 0.000000 0.000000 
#    y 0.000000 1.782200 0.000000 
#    z 0.000000 0.000000 1.757370 
# 
# From -- ./inp_files/33990.got.cif
#   From: 2010.05.17/outbox.cif.g08.bks.cpg/sg68_17_cif.got.tgz:33990.got - 2010.06.03 18:57:09.
