data_PCOD9510259
_publ_section_title
;
Structure prediction by ZEFSAII (Michael W. Deem and Ramdas Pophale) SiO2 
 PCOD9510259
Probable space group: C C C A
;
_chemical_formula_sum "Si O2"
_cell_formula_units_Z 80
_cell_length_a 11.452525
_cell_length_b 12.547728
_cell_length_c 25.500144
_cell_angle_alpha 90.000000
_cell_angle_beta 90.000000
_cell_angle_gamma 90.000000
_cell_volume 3664.451493
_symmetry_space_group_name_H-M "C C C A"
_symmetry_group_IT_number 68
_space_group.IT_coordinate_system_code '2'
_symmetry_cell_setting 'orthorhombic'
loop_
_space_group_symop_operation_xyz
x,y,z
-x,1/2-y,z
x,1/2-y,1/2-z
-x,y,1/2-z
-x,-y,-z
x,1/2+y,-z
-x,1/2+y,1/2+z
x,-y,1/2+z
1/2+x,1/2+y,z
1/2-x,-y,z
1/2+x,-y,1/2-z
1/2-x,1/2+y,1/2-z
1/2-x,1/2-y,-z
1/2+x,y,-z
1/2-x,y,1/2+z
1/2+x,1/2-y,1/2+z
loop_
_atom_site_type_symbol
_atom_site_label
_atom_site_fract_x
_atom_site_fract_y
_atom_site_fract_z
Si Si1 0.942890 0.004997 0.581971
Si Si2 0.560166 0.474578 0.194052
Si Si3 0.408834 0.348813 0.990007
Si Si4 0.281207 0.821463 0.198417
Si Si5 0.639940 0.781289 0.096770
O O1 0.893790 0.099766 0.546525
O O2 0.985851 0.034238 0.640355
O O3 0.856054 0.905739 0.586413
O O4 0.045690 0.947390 0.547028
O O5 0.500000 0.455884 0.250000
O O6 0.612845 0.593963 0.196532
O O7 0.665770 0.391493 0.192365
O O8 0.500000 0.250000 0.997596
O O9 0.316680 0.290980 0.951770
O O10 0.282378 0.750000 0.250000
O O11 0.293654 0.746233 0.148801
O O12 0.500000 0.750000 0.104949
#
# Coordination Sequence:
#
# PCOD9510259 Si02
#       5
#    16  16  16  16  16
#     4   9  16  32  59  89 119 158 209 249 304 368
#     4  11  23  39  61  92 123 167 210 261 326 379
#     4   8  15  29  55  92 118 154 208 248 305 368
#     4  11  23  38  61  91 124 161 213 266 316 380
#     4   9  16  32  60  91 117 156 214 252 305 368
#
# _framework density 21.831372000000002
#
# number of rings (size 3 to 8) (size 9 to 14) (size 15 to 20)
#    0.000    2.800    4.000    1.200    0.000    0.400 
#    3.600    0.000    0.000   24.000   20.800    0.000 
#    0.000    0.000    0.000    0.000    0.000    0.000 
#
# Total GULP energy -223063.179738 kJ/mol
# GULP energy per Si atom -5576.579493 kJ/mol
# Density = 2.178168 g / cm^3
# Si number density = 21.831372 Si / 1000 Ang^3
#
#
#
# Elastic Constant Matrix: (Units=GPa)
#
#
# Indices 1 2 3 4 5 6 
#
# 1 31.7593 8.8668 45.6241 0.0000 0.0000 0.0000
# 2 8.8668 100.5686 87.0222 0.0000 0.0000 0.0000
# 3 45.6241 87.0222 244.0515 0.0000 0.0000 0.0000
# 4 0.0000 0.0000 0.0000 52.3263 0.0000 0.0000
# 5 0.0000 0.0000 0.0000 0.0000 6.3336 0.0000
# 6 0.0000 0.0000 0.0000 0.0000 0.0000 -0.7254
#
#
#
# Elastic Compliance Matrix: (Units=1/GPa)
#
#
# Indices 1 2 3 4 5 6 
#
# 1 0.044559 0.004743 -0.010021 0.000000 0.000000 0.000000
# 2 0.004743 0.014885 -0.006194 0.000000 0.000000 0.000000
# 3 -0.010021 -0.006194 0.008180 0.000000 0.000000 0.000000
# 4 0.000000 0.000000 0.000000 0.019111 0.000000 0.000000
# 5 0.000000 0.000000 0.000000 0.000000 0.157887 0.000000
# 6 0.000000 0.000000 0.000000 0.000000 0.000000 -1.378556
#
#
# Mechanical properties :
#
#
# Convention : Reuss Voigt Hill
#
# Bulk Modulus (GPa) = 22.38235 73.26728 47.82482
# Shear Modulus (GPa) = -4.56164 27.24467 11.34151
#
# Velocity S-wave (km/s) = -1.44707 3.53648 2.28174
# Velocity P-wave (km/s) = 2.73544 7.09288 5.37548
#
# Compressibility (1/GPa) = 0.04467806
#
# Stress axis : x y z
#
# Youngs Moduli (GPa) = 22.44237 67.18053 122.25526
#
# Poissons Ratio (x) = -0.31862 1.22513
# Poissons Ratio (y) = -0.10644 0.75729
# Poissons Ratio (z) = 0.22490 0.41614
#
# Static dielectric constant tensor:
#      x y z
#    x 1.905370 0.000000 0.000000 
#    y 0.000000 1.794850 0.000000 
#    z 0.000000 0.000000 1.803060 
# 
# From -- ./inp_files/45220.got.cif
#   From: 2010.05.17/outbox.cif.g08.bks.cpg/sg68_23_cif.got.tgz:45220.got - 2010.06.03 18:57:09.
