data_PCOD9510537
_publ_section_title
;
Structure prediction by ZEFSAII (Michael W. Deem and Ramdas Pophale) SiO2 
 PCOD9510537
Probable space group: C C C A
;
_chemical_formula_sum "Si O2"
_cell_formula_units_Z 88
_cell_length_a 14.006772
_cell_length_b 14.826923
_cell_length_c 15.481442
_cell_angle_alpha 90.000000
_cell_angle_beta 90.000000
_cell_angle_gamma 90.000000
_cell_volume 3215.144538
_symmetry_space_group_name_H-M "C C C A"
_symmetry_group_IT_number 68
_space_group.IT_coordinate_system_code '2'
_symmetry_cell_setting 'orthorhombic'
loop_
_space_group_symop_operation_xyz
x,y,z
-x,1/2-y,z
x,1/2-y,1/2-z
-x,y,1/2-z
-x,-y,-z
x,1/2+y,-z
-x,1/2+y,1/2+z
x,-y,1/2+z
1/2+x,1/2+y,z
1/2-x,-y,z
1/2+x,-y,1/2-z
1/2-x,1/2+y,1/2-z
1/2-x,1/2-y,-z
1/2+x,y,-z
1/2-x,y,1/2+z
1/2+x,1/2-y,1/2+z
loop_
_atom_site_type_symbol
_atom_site_label
_atom_site_fract_x
_atom_site_fract_y
_atom_site_fract_z
Si Si1 0.000000 0.250000 0.095237
Si Si2 0.365539 0.250000 0.250000
Si Si3 0.669387 0.929536 0.666384
Si Si4 0.500000 0.893530 0.250000
Si Si5 0.197183 0.096343 0.024357
Si Si6 0.039755 0.997664 0.111548
Si Si7 0.623919 0.805961 0.934887
O O1 0.978785 0.170394 0.167275
O O2 0.085930 0.261942 0.024090
O O3 0.329432 0.147309 0.260680
O O4 0.405872 0.244038 0.152795
O O5 0.703436 0.883338 0.576592
O O6 0.574726 0.037173 0.795712
O O7 0.750000 0.000000 0.687744
O O8 0.571314 0.021563 0.133543
O O9 0.263326 0.170872 0.068927
O O10 0.250000 0.000000 0.039020
O O11 0.088429 0.073177 0.050767
O O12 0.075517 0.903964 0.074410
#
# Coordination Sequence:
#
# PCOD9510537 Si02
#       7
#     8   8  16   8  16  16  16
#     4  11  28  51  74 120 174 219 278 361 436 530
#     4  12  28  49  80 123 162 226 286 363 424 529
#     4  11  26  48  78 121 165 219 289 352 437 525
#     4  11  28  46  76 125 160 222 282 347 446 521
#     4   9  23  46  78 118 154 221 278 347 440 521
#     4  11  24  48  85 113 160 214 279 356 425 526
#     4  11  26  51  80 118 165 216 288 355 439 520
#
# _framework density 27.370464999999999
#
# number of rings (size 3 to 8) (size 9 to 14) (size 15 to 20)
#    0.000    1.273    0.000    2.727   12.727    6.909 
#    3.273    0.000    0.000    0.000    0.000    0.000 
#    0.000    0.000    0.000    0.000    0.000    0.000 
#
# Total GULP energy -245009.324828 kJ/mol
# GULP energy per Si atom -5568.393746 kJ/mol
# Density = 2.730817 g / cm^3
# Si number density = 27.370465 Si / 1000 Ang^3
#
#
#
# Elastic Constant Matrix: (Units=GPa)
#
#
# Indices 1 2 3 4 5 6 
#
# 1 161.6632 70.0420 33.2750 0.0000 0.0000 0.0000
# 2 70.0420 167.4709 68.6097 0.0000 0.0000 0.0000
# 3 33.2750 68.6097 200.0801 0.0000 0.0000 0.0000
# 4 0.0000 0.0000 0.0000 70.6384 0.0000 0.0000
# 5 0.0000 0.0000 0.0000 0.0000 15.4786 0.0000
# 6 0.0000 0.0000 0.0000 0.0000 0.0000 -142.7226
#
#
#
# Elastic Compliance Matrix: (Units=1/GPa)
#
#
# Indices 1 2 3 4 5 6 
#
# 1 0.007562 -0.003080 -0.000201 0.000000 0.000000 0.000000
# 2 -0.003080 0.008202 -0.002300 0.000000 0.000000 0.000000
# 3 -0.000201 -0.002300 0.005820 0.000000 0.000000 0.000000
# 4 0.000000 0.000000 0.000000 0.014157 0.000000 0.000000
# 5 0.000000 0.000000 0.000000 0.000000 0.064605 0.000000
# 6 0.000000 0.000000 0.000000 0.000000 0.000000 -0.007007
#
#
# Mechanical properties :
#
#
# Convention : Reuss Voigt Hill
#
# Bulk Modulus (GPa) = 95.96634 97.00752 96.48693
# Shear Modulus (GPa) = 46.30684 12.49806 29.40245
#
# Velocity S-wave (km/s) = 4.11768 2.13920 3.28112
# Velocity P-wave (km/s) = 7.59902 6.45143 7.04862
#
# Compressibility (1/GPa) = 0.01042032
#
# Stress axis : x y z
#
# Youngs Moduli (GPa) = 132.24733 121.92582 171.81353
#
# Poissons Ratio (x) = 0.37553 0.03460
# Poissons Ratio (y) = 0.40732 0.39521
# Poissons Ratio (z) = 0.02663 0.28046
#
# Static dielectric constant tensor:
#      x y z
#    x 2.163780 0.000000 0.000000 
#    y 0.000000 24.580760 0.000000 
#    z 0.000000 0.000000 2.186550 
# 
# From -- ./inp_files/24412.got.cif
#   From: 2010.05.17/outbox.cif.g08.bks.cpg/sg68_13_cif.got.tgz:24412.got - 2010.06.03 18:57:09.
