data_PCOD9510149
_publ_section_title
;
Structure prediction by ZEFSAII (Michael W. Deem and Ramdas Pophale) SiO2 
 PCOD9510149
Probable space group: C C C A
;
_chemical_formula_sum "Si O2"
_cell_formula_units_Z 72
_cell_length_a 17.458163
_cell_length_b 18.435214
_cell_length_c 10.107159
_cell_angle_alpha 90.000000
_cell_angle_beta 90.000000
_cell_angle_gamma 90.000000
_cell_volume 3252.938295
_symmetry_space_group_name_H-M "C C C A"
_symmetry_group_IT_number 68
_space_group.IT_coordinate_system_code '2'
_symmetry_cell_setting 'orthorhombic'
loop_
_space_group_symop_operation_xyz
x,y,z
-x,1/2-y,z
x,1/2-y,1/2-z
-x,y,1/2-z
-x,-y,-z
x,1/2+y,-z
-x,1/2+y,1/2+z
x,-y,1/2+z
1/2+x,1/2+y,z
1/2-x,-y,z
1/2+x,-y,1/2-z
1/2-x,1/2+y,1/2-z
1/2-x,1/2-y,-z
1/2+x,y,-z
1/2-x,y,1/2+z
1/2+x,1/2-y,1/2+z
loop_
_atom_site_type_symbol
_atom_site_label
_atom_site_fract_x
_atom_site_fract_y
_atom_site_fract_z
Si Si1 0.762779 0.147211 0.158233
Si Si2 0.688849 0.434445 0.588868
Si Si3 0.097149 0.274522 0.039134
Si Si4 0.640027 0.250000 0.250000
Si Si5 0.530767 0.122873 0.889994
O O1 0.806994 0.095991 0.260949
O O2 0.820793 0.205625 0.097680
O O3 0.696217 0.181519 0.247147
O O4 0.722902 0.112682 0.030949
O O5 0.750000 0.500000 0.590205
O O6 0.596487 0.432220 0.559790
O O7 0.070266 0.203259 0.119982
O O8 0.046388 0.348221 0.038747
O O9 0.096533 0.249200 0.887439
O O10 0.500000 0.096234 0.750000
#
# Coordination Sequence:
#
# PCOD9510149 Si02
#       5
#    16  16  16   8  16
#     4  12  23  42  70 103 138 185 246 288 354 417
#     4  12  26  46  69  95 139 195 246 285 333 430
#     4  11  22  38  68 108 141 178 220 302 369 418
#     4  12  22  37  68 111 148 180 226 310 368 415
#     4  11  23  40  69 102 138 179 226 289 370 424
#
# _framework density 22.133835999999999
#
# number of rings (size 3 to 8) (size 9 to 14) (size 15 to 20)
#    0.000    0.444    6.667    4.000    0.000    1.778 
#    0.000    1.111    0.000    0.000    0.000    0.000 
#    0.000    0.000    0.000    0.000    0.000    0.000 
#
# Total GULP energy -200558.925808 kJ/mol
# GULP energy per Si atom -5571.081272 kJ/mol
# Density = 2.208346 g / cm^3
# Si number density = 22.133836 Si / 1000 Ang^3
#
#
#
# Elastic Constant Matrix: (Units=GPa)
#
#
# Indices 1 2 3 4 5 6 
#
# 1 79.5661 13.0229 7.6644 0.0000 0.0000 0.0000
# 2 13.0229 34.2243 -3.4643 0.0000 0.0000 0.0000
# 3 7.6644 -3.4643 62.7201 0.0000 0.0000 0.0000
# 4 0.0000 0.0000 0.0000 13.2118 0.0000 0.0000
# 5 0.0000 0.0000 0.0000 0.0000 276.8458 0.0000
# 6 0.0000 0.0000 0.0000 0.0000 0.0000 34.4805
#
#
#
# Elastic Compliance Matrix: (Units=1/GPa)
#
#
# Indices 1 2 3 4 5 6 
#
# 1 0.013639 -0.005389 -0.001964 0.000000 0.000000 0.000000
# 2 -0.005389 0.031512 0.002399 0.000000 0.000000 0.000000
# 3 -0.001964 0.002399 0.016316 0.000000 0.000000 0.000000
# 4 0.000000 0.000000 0.000000 0.075690 0.000000 0.000000
# 5 0.000000 0.000000 0.000000 0.000000 0.003612 0.000000
# 6 0.000000 0.000000 0.000000 0.000000 0.000000 0.029002
#
#
# Mechanical properties :
#
#
# Convention : Reuss Voigt Hill
#
# Bulk Modulus (GPa) = 19.39493 23.43963 21.41728
# Shear Modulus (GPa) = 25.39780 75.52677 50.46228
#
# Velocity S-wave (km/s) = 3.39110 5.84781 4.77998
# Velocity P-wave (km/s) = 4.91064 7.49725 6.33731
#
# Compressibility (1/GPa) = 0.05155987
#
# Stress axis : x y z
#
# Youngs Moduli (GPa) = 73.31689 31.73349 61.28801
#
# Poissons Ratio (x) = 0.17101 0.12039
# Poissons Ratio (y) = 0.39510 -0.14703
# Poissons Ratio (z) = 0.14402 -0.07613
#
# Static dielectric constant tensor:
#      x y z
#    x 1.944670 0.000000 0.000000 
#    y 0.000000 1.878390 0.000000 
#    z 0.000000 0.000000 1.778320 
# 
# From -- ./inp_files/6087.got.cif
#   From: 2010.05.17/outbox.cif.g08.bks.cpg/sg68_4_cif.got.tgz:6087.got - 2010.06.03 18:57:09.
