data_PCOD9510545
_publ_section_title
;
Structure prediction by ZEFSAII (Michael W. Deem and Ramdas Pophale) SiO2 
 PCOD9510545
Probable space group: C C C A
;
_chemical_formula_sum "Si O2"
_cell_formula_units_Z 64
_cell_length_a 10.688575
_cell_length_b 27.918178
_cell_length_c 10.733893
_cell_angle_alpha 90.000000
_cell_angle_beta 90.000000
_cell_angle_gamma 90.000000
_cell_volume 3203.053131
_symmetry_space_group_name_H-M "C C C A"
_symmetry_group_IT_number 68
_space_group.IT_coordinate_system_code '2'
_symmetry_cell_setting 'orthorhombic'
loop_
_space_group_symop_operation_xyz
x,y,z
-x,1/2-y,z
x,1/2-y,1/2-z
-x,y,1/2-z
-x,-y,-z
x,1/2+y,-z
-x,1/2+y,1/2+z
x,-y,1/2+z
1/2+x,1/2+y,z
1/2-x,-y,z
1/2+x,-y,1/2-z
1/2-x,1/2+y,1/2-z
1/2-x,1/2-y,-z
1/2+x,y,-z
1/2-x,y,1/2+z
1/2+x,1/2-y,1/2+z
loop_
_atom_site_type_symbol
_atom_site_label
_atom_site_fract_x
_atom_site_fract_y
_atom_site_fract_z
Si Si1 0.982299 0.053962 0.548304
Si Si2 0.646554 0.233822 0.896320
Si Si3 0.204376 0.554127 0.259080
Si Si4 0.404872 0.371238 0.850788
O O1 0.850973 0.056503 0.620851
O O2 0.978808 0.094284 0.444452
O O3 0.092442 0.063307 0.645133
O O4 0.000000 0.000000 0.500000
O O5 0.500000 0.250000 0.921976
O O6 0.673100 0.250000 0.750000
O O7 0.654065 0.176059 0.907304
O O8 0.750000 0.250000 0.000000
O O9 0.250000 0.500000 0.280786
O O10 0.308586 0.593139 0.284389
O O11 0.500000 0.351287 0.750000
#
# Coordination Sequence:
#
# PCOD9510545 Si02
#       4
#    16  16  16  16
#     4  11  25  42  62  98 138 180 226 275 337 412
#     4  11  27  52  76 108 143 186 246 310 369 433
#     4  11  25  41  63  98 138 181 228 274 336 413
#     4  12  26  43  76  96 137 179 229 283 353 410
#
# _framework density 19.980936
#
# number of rings (size 3 to 8) (size 9 to 14) (size 15 to 20)
#    0.000    0.750    5.000    1.500   14.000    0.500 
#    0.000    0.000    0.000    0.000    0.000    0.000 
#    0.000    0.000    0.000    0.000    0.000    0.000 
#
# Total GULP energy -178681.821095 kJ/mol
# GULP energy per Si atom -5583.806909 kJ/mol
# Density = 1.993546 g / cm^3
# Si number density = 19.980936 Si / 1000 Ang^3
#
#
#
# Elastic Constant Matrix: (Units=GPa)
#
#
# Indices 1 2 3 4 5 6 
#
# 1 83.9042 22.4468 36.0683 0.0000 0.0000 0.0000
# 2 22.4468 136.0848 26.1408 0.0000 0.0000 0.0000
# 3 36.0683 26.1408 93.1421 0.0000 0.0000 0.0000
# 4 0.0000 0.0000 0.0000 29.5024 0.0000 0.0000
# 5 0.0000 0.0000 0.0000 0.0000 38.8449 0.0000
# 6 0.0000 0.0000 0.0000 0.0000 0.0000 6.9967
#
#
#
# Elastic Compliance Matrix: (Units=1/GPa)
#
#
# Indices 1 2 3 4 5 6 
#
# 1 0.014544 -0.001392 -0.005241 0.000000 0.000000 0.000000
# 2 -0.001392 0.007900 -0.001678 0.000000 0.000000 0.000000
# 3 -0.005241 -0.001678 0.013237 0.000000 0.000000 0.000000
# 4 0.000000 0.000000 0.000000 0.033896 0.000000 0.000000
# 5 0.000000 0.000000 0.000000 0.000000 0.025743 0.000000
# 6 0.000000 0.000000 0.000000 0.000000 0.000000 0.142925
#
#
# Mechanical properties :
#
#
# Convention : Reuss Voigt Hill
#
# Bulk Modulus (GPa) = 52.47154 53.60477 53.03815
# Shear Modulus (GPa) = 19.14089 30.30049 24.72069
#
# Velocity S-wave (km/s) = 3.09845 3.89841 3.52122
# Velocity P-wave (km/s) = 6.25446 6.86656 6.56765
#
# Compressibility (1/GPa) = 0.01905795
#
# Stress axis : x y z
#
# Youngs Moduli (GPa) = 68.75749 126.57659 75.54649
#
# Poissons Ratio (x) = 0.17622 0.39596
# Poissons Ratio (y) = 0.09572 0.12678
# Poissons Ratio (z) = 0.36037 0.21242
#
# Static dielectric constant tensor:
#      x y z
#    x 1.714210 0.000000 0.000000 
#    y 0.000000 1.686980 0.000000 
#    z 0.000000 0.000000 1.478170 
# 
# From -- ./inp_files/11686.got.cif
#   From: 2010.05.17/outbox.cif.g08.bks.cpg/sg68_6_cif.got.tgz:11686.got - 2010.06.03 18:57:09.
