data_PCOD9510678
_publ_section_title
;
Structure prediction by ZEFSAII (Michael W. Deem and Ramdas Pophale) SiO2 
 PCOD9510678
Probable space group: C C C A
;
_chemical_formula_sum "Si O2"
_cell_formula_units_Z 60
_cell_length_a 20.035872
_cell_length_b 10.295042
_cell_length_c 13.454272
_cell_angle_alpha 90.000000
_cell_angle_beta 90.000000
_cell_angle_gamma 90.000000
_cell_volume 2775.214619
_symmetry_space_group_name_H-M "C C C A"
_symmetry_group_IT_number 68
_space_group.IT_coordinate_system_code '2'
_symmetry_cell_setting 'orthorhombic'
loop_
_space_group_symop_operation_xyz
x,y,z
-x,1/2-y,z
x,1/2-y,1/2-z
-x,y,1/2-z
-x,-y,-z
x,1/2+y,-z
-x,1/2+y,1/2+z
x,-y,1/2+z
1/2+x,1/2+y,z
1/2-x,-y,z
1/2+x,-y,1/2-z
1/2-x,1/2+y,1/2-z
1/2-x,1/2-y,-z
1/2+x,y,-z
1/2-x,y,1/2+z
1/2+x,1/2-y,1/2+z
loop_
_atom_site_type_symbol
_atom_site_label
_atom_site_fract_x
_atom_site_fract_y
_atom_site_fract_z
Si Si1 0.643458 0.409424 0.496726
Si Si2 0.603103 0.839265 0.900671
Si Si3 0.000000 0.250000 0.750000
Si Si4 0.750000 0.000000 0.164658
Si Si5 0.255879 0.664552 0.324576
O O1 0.602238 0.529009 0.538986
O O2 0.597011 0.291110 0.464539
O O3 0.686900 0.465305 0.404900
O O4 0.694441 0.357804 0.581799
O O5 0.548545 0.837114 0.815803
O O6 0.677985 0.826434 0.856712
O O7 0.731683 0.831280 0.196491
O O8 0.250000 0.500000 0.290156
#
# Coordination Sequence:
#
# PCOD9510678 Si02
#       5
#    16  16   4   8  16
#     4  12  24  41  69 105 135 177 224 294 359 408
#     4  12  24  44  67  96 135 180 236 276 336 415
#     4  12  28  48  72  90 134 208 240 268 336 424
#     4  12  18  32  64 100 140 166 212 270 358 416
#     4  12  21  36  65 106 138 173 218 287 358 410
#
# _framework density 21.619951
#
# number of rings (size 3 to 8) (size 9 to 14) (size 15 to 20)
#    0.000    0.000    9.333    2.400    0.000    1.067 
#    0.000    0.000    0.000    1.600    0.000    0.000 
#    0.000    0.000    0.000    0.000    0.000    0.000 
#
# Total GULP energy -167530.389024 kJ/mol
# GULP energy per Si atom -5584.346301 kJ/mol
# Density = 2.157074 g / cm^3
# Si number density = 21.619951 Si / 1000 Ang^3
#
#
#
# Elastic Constant Matrix: (Units=GPa)
#
#
# Indices 1 2 3 4 5 6 
#
# 1 50.4653 40.4538 28.9639 0.0000 0.0000 0.0000
# 2 40.4538 211.9596 77.5089 0.0000 0.0000 0.0000
# 3 28.9639 77.5089 121.3312 0.0000 0.0000 0.0000
# 4 0.0000 0.0000 0.0000 36.1622 0.0000 0.0000
# 5 0.0000 0.0000 0.0000 0.0000 43.8638 0.0000
# 6 0.0000 0.0000 0.0000 0.0000 0.0000 -25.7102
#
#
#
# Elastic Compliance Matrix: (Units=1/GPa)
#
#
# Indices 1 2 3 4 5 6 
#
# 1 0.024640 -0.003330 -0.003755 0.000000 0.000000 0.000000
# 2 -0.003330 0.006606 -0.003425 0.000000 0.000000 0.000000
# 3 -0.003755 -0.003425 0.011326 0.000000 0.000000 0.000000
# 4 0.000000 0.000000 0.000000 0.027653 0.000000 0.000000
# 5 0.000000 0.000000 0.000000 0.000000 0.022798 0.000000
# 6 0.000000 0.000000 0.000000 0.000000 0.000000 -0.038895
#
#
# Mechanical properties :
#
#
# Convention : Reuss Voigt Hill
#
# Bulk Modulus (GPa) = 46.39805 75.28992 60.84398
# Shear Modulus (GPa) = 60.73029 26.65180 43.69105
#
# Velocity S-wave (km/s) = 5.30574 3.51485 4.50028
# Velocity P-wave (km/s) = 7.68387 7.16743 7.43014
#
# Compressibility (1/GPa) = 0.02155263
#
# Stress axis : x y z
#
# Youngs Moduli (GPa) = 40.58487 151.38141 88.28998
#
# Poissons Ratio (x) = 0.50403 0.33153
# Poissons Ratio (y) = 0.13513 0.30240
# Poissons Ratio (z) = 0.15239 0.51850
#
# Static dielectric constant tensor:
#      x y z
#    x 1.665700 0.000000 0.000000 
#    y 0.000000 2.147350 0.000000 
#    z 0.000000 0.000000 1.803140 
# 
# From -- ./inp_files/24224.got.cif
#   From: 2010.05.17/outbox.cif.g08.bks.cpg/sg68_13_cif.got.tgz:24224.got - 2010.06.03 18:57:09.
