data_PCOD9510418
_publ_section_title
;
Structure prediction by ZEFSAII (Michael W. Deem and Ramdas Pophale) SiO2 
 PCOD9510418
Probable space group: C C C A
;
_chemical_formula_sum "Si O2"
_cell_formula_units_Z 88
_cell_length_a 12.908843
_cell_length_b 12.594761
_cell_length_c 27.230201
_cell_angle_alpha 90.000000
_cell_angle_beta 90.000000
_cell_angle_gamma 90.000000
_cell_volume 4427.189346
_symmetry_space_group_name_H-M "C C C A"
_symmetry_group_IT_number 68
_space_group.IT_coordinate_system_code '2'
_symmetry_cell_setting 'orthorhombic'
loop_
_space_group_symop_operation_xyz
x,y,z
-x,1/2-y,z
x,1/2-y,1/2-z
-x,y,1/2-z
-x,-y,-z
x,1/2+y,-z
-x,1/2+y,1/2+z
x,-y,1/2+z
1/2+x,1/2+y,z
1/2-x,-y,z
1/2+x,-y,1/2-z
1/2-x,1/2+y,1/2-z
1/2-x,1/2-y,-z
1/2+x,y,-z
1/2-x,y,1/2+z
1/2+x,1/2-y,1/2+z
loop_
_atom_site_type_symbol
_atom_site_label
_atom_site_fract_x
_atom_site_fract_y
_atom_site_fract_z
Si Si1 0.320029 0.096960 0.362445
Si Si2 0.123552 0.624892 0.248024
Si Si3 0.931416 0.849366 0.966823
Si Si4 0.238120 0.822811 0.095097
Si Si5 0.750000 0.500000 0.671299
Si Si6 0.986904 0.081790 0.929110
O O1 0.331413 0.088862 0.304048
O O2 0.271239 0.207658 0.380501
O O3 0.435747 0.092253 0.383905
O O4 0.250000 0.000000 0.381239
O O5 0.150177 0.750000 0.250000
O O6 0.168328 0.556606 0.292867
O O7 0.000000 0.616279 0.250000
O O8 0.813389 0.826696 0.951763
O O9 0.000000 0.750000 0.949819
O O10 0.954174 0.866760 0.024336
O O11 0.966434 0.959152 0.941903
O O12 0.284731 0.905867 0.134785
O O13 0.123148 0.863045 0.081150
#
# Coordination Sequence:
#
# PCOD9510418 Si02
#       6
#    16  16  16  16   8  16
#     4  12  25  42  67 100 132 172 225 280 330 392
#     4  11  24  41  68  96 131 173 221 274 327 396
#     4  11  24  43  66  98 136 172 217 279 338 395
#     4  12  24  44  70  95 134 181 222 272 337 408
#     4  12  22  44  68  96 130 170 222 268 334 390
#     4  11  25  43  68  98 131 177 227 267 334 406
#
# _framework density 19.877171000000001
#
# number of rings (size 3 to 8) (size 9 to 14) (size 15 to 20)
#    0.000    0.545    4.545    3.818    2.545    5.818 
#    0.000    0.000    0.000    1.091    0.000    0.000 
#    0.000    0.000    0.000    0.000    0.000    0.000 
#
# Total GULP energy -246040.899793 kJ/mol
# GULP energy per Si atom -5591.838632 kJ/mol
# Density = 1.983193 g / cm^3
# Si number density = 19.877171 Si / 1000 Ang^3
#
#
#
# Elastic Constant Matrix: (Units=GPa)
#
#
# Indices 1 2 3 4 5 6 
#
# 1 124.1039 49.8196 53.7478 0.0000 0.0000 0.0000
# 2 49.8196 150.7118 42.5696 0.0000 0.0000 0.0000
# 3 53.7478 42.5696 103.5263 0.0000 0.0000 0.0000
# 4 0.0000 0.0000 0.0000 24.0375 0.0000 0.0000
# 5 0.0000 0.0000 0.0000 0.0000 29.6633 0.0000
# 6 0.0000 0.0000 0.0000 0.0000 0.0000 25.3412
#
#
#
# Elastic Compliance Matrix: (Units=1/GPa)
#
#
# Indices 1 2 3 4 5 6 
#
# 1 0.011058 -0.002301 -0.004795 0.000000 0.000000 0.000000
# 2 -0.002301 0.007986 -0.002089 0.000000 0.000000 0.000000
# 3 -0.004795 -0.002089 0.013008 0.000000 0.000000 0.000000
# 4 0.000000 0.000000 0.000000 0.041602 0.000000 0.000000
# 5 0.000000 0.000000 0.000000 0.000000 0.033712 0.000000
# 6 0.000000 0.000000 0.000000 0.000000 0.000000 0.039461
#
#
# Mechanical properties :
#
#
# Convention : Reuss Voigt Hill
#
# Bulk Modulus (GPa) = 73.09033 74.51286 73.80160
# Shear Modulus (GPa) = 29.45385 31.28874 30.37130
#
# Velocity S-wave (km/s) = 3.85358 3.97180 3.91314
# Velocity P-wave (km/s) = 7.52668 7.65517 7.59120
#
# Compressibility (1/GPa) = 0.01368170
#
# Stress axis : x y z
#
# Youngs Moduli (GPa) = 90.43176 125.22052 76.87715
#
# Poissons Ratio (x) = 0.28814 0.36861
# Poissons Ratio (y) = 0.20809 0.16061
# Poissons Ratio (z) = 0.43361 0.26160
#
# Static dielectric constant tensor:
#      x y z
#    x 1.674400 0.000000 0.000000 
#    y 0.000000 1.699550 0.000000 
#    z 0.000000 0.000000 1.706820 
# 
# From -- ./inp_files/54619.got.cif
#   From: 2010.05.17/outbox.cif.g08.bks.cpg/sg68_28_cif.got.tgz:54619.got - 2010.06.03 18:57:09.
