data_PCOD9510156
_publ_section_title
;
Structure prediction by ZEFSAII (Michael W. Deem and Ramdas Pophale) SiO2 
 PCOD9510156
Probable space group: C C C A
;
_chemical_formula_sum "Si O2"
_cell_formula_units_Z 68
_cell_length_a 28.619151
_cell_length_b 19.599883
_cell_length_c 5.071029
_cell_angle_alpha 90.000000
_cell_angle_beta 90.000000
_cell_angle_gamma 90.000000
_cell_volume 2844.502496
_symmetry_space_group_name_H-M "C C C A"
_symmetry_group_IT_number 68
_space_group.IT_coordinate_system_code '2'
_symmetry_cell_setting 'orthorhombic'
loop_
_space_group_symop_operation_xyz
x,y,z
-x,1/2-y,z
x,1/2-y,1/2-z
-x,y,1/2-z
-x,-y,-z
x,1/2+y,-z
-x,1/2+y,1/2+z
x,-y,1/2+z
1/2+x,1/2+y,z
1/2-x,-y,z
1/2+x,-y,1/2-z
1/2-x,1/2+y,1/2-z
1/2-x,1/2-y,-z
1/2+x,y,-z
1/2-x,y,1/2+z
1/2+x,1/2-y,1/2+z
loop_
_atom_site_type_symbol
_atom_site_label
_atom_site_fract_x
_atom_site_fract_y
_atom_site_fract_z
Si Si1 0.575619 0.648649 0.862283
Si Si2 0.500000 0.750000 0.750000
Si Si3 0.139601 0.548155 0.856389
Si Si4 0.651108 0.750000 0.750000
Si Si5 0.717171 0.840100 0.413439
Si Si6 0.500000 0.046772 0.250000
O O1 0.535707 0.704741 0.924365
O O2 0.600142 0.605822 0.093424
O O3 0.616104 0.686775 0.696718
O O4 0.545375 0.593121 0.713212
O O5 0.136545 0.488912 0.076752
O O6 0.187293 0.590276 0.907901
O O7 0.682537 0.780060 0.515235
O O8 0.742215 0.837299 0.132445
O O9 0.500000 0.000000 0.500000
#
# Coordination Sequence:
#
# PCOD9510156 Si02
#       6
#    16   4  16   8  16   8
#     4   9  19  37  63  90 121 157 197 244 295 349
#     4   8  16  36  64  90 120 156 200 244 292 350
#     4  11  23  39  61  89 122 157 196 243 296 353
#     4   9  20  39  62  88 120 156 200 247 296 349
#     4  11  23  40  62  87 118 157 200 247 296 349
#     4  11  22  39  64  91 122 157 196 240 292 355
#
# _framework density 23.905761999999999
#
# number of rings (size 3 to 8) (size 9 to 14) (size 15 to 20)
#    0.000    1.882    0.000    3.529    0.000    2.824 
#    0.000    7.059    0.000   57.882    0.000    0.000 
#    0.000    0.000    0.000    0.000    0.000    0.000 
#
# Total GULP energy -190029.749402 kJ/mol
# GULP energy per Si atom -5589.110277 kJ/mol
# Density = 2.385135 g / cm^3
# Si number density = 23.905762 Si / 1000 Ang^3
#
#
#
# Elastic Constant Matrix: (Units=GPa)
#
#
# Indices 1 2 3 4 5 6 
#
# 1 127.2502 74.9312 1.9886 0.0000 0.0000 0.0000
# 2 74.9312 132.7733 38.2459 0.0000 0.0000 0.0000
# 3 1.9886 38.2459 60.1518 0.0000 0.0000 0.0000
# 4 0.0000 0.0000 0.0000 13.4334 0.0000 0.0000
# 5 0.0000 0.0000 0.0000 0.0000 -2.3994 0.0000
# 6 0.0000 0.0000 0.0000 0.0000 0.0000 20.1680
#
#
#
# Elastic Compliance Matrix: (Units=1/GPa)
#
#
# Indices 1 2 3 4 5 6 
#
# 1 0.012962 -0.008804 0.005170 0.000000 0.000000 0.000000
# 2 -0.008804 0.015201 -0.009374 0.000000 0.000000 0.000000
# 3 0.005170 -0.009374 0.022414 0.000000 0.000000 0.000000
# 4 0.000000 0.000000 0.000000 0.074441 0.000000 0.000000
# 5 0.000000 0.000000 0.000000 0.000000 -0.416770 0.000000
# 6 0.000000 0.000000 0.000000 0.000000 0.000000 0.049583
#
#
# Mechanical properties :
#
#
# Convention : Reuss Voigt Hill
#
# Bulk Modulus (GPa) = 40.71794 61.16742 50.94268
# Shear Modulus (GPa) = -24.04248 19.90771 -2.06738
#
# Velocity S-wave (km/s) = -3.17475 2.88889 -0.93096
# Velocity P-wave (km/s) = 1.90551 6.06383 4.49449
#
# Compressibility (1/GPa) = 0.02455920
#
# Stress axis : x y z
#
# Youngs Moduli (GPa) = 77.14744 65.78690 44.61536
#
# Poissons Ratio (x) = 0.57921 -0.23064
# Poissons Ratio (y) = 0.67923 0.41822
# Poissons Ratio (z) = -0.39881 0.61668
#
# Static dielectric constant tensor:
#      x y z
#    x 1.943520 0.000000 0.000000 
#    y 0.000000 1.960240 0.000000 
#    z 0.000000 0.000000 1.849890 
# 
# From -- ./inp_files/1652.got.cif
#   From: 2010.05.17/outbox.cif.g08.bks.cpg/sg68_1_cif.got.tgz:1652.got - 2010.06.03 18:57:09.
