data_PCOD9510256
_publ_section_title
;
Structure prediction by ZEFSAII (Michael W. Deem and Ramdas Pophale) SiO2 
 PCOD9510256
Probable space group: C C C A
;
_chemical_formula_sum "Si O2"
_cell_formula_units_Z 104
_cell_length_a 21.013853
_cell_length_b 27.636338
_cell_length_c 8.479596
_cell_angle_alpha 90.000000
_cell_angle_beta 90.000000
_cell_angle_gamma 90.000000
_cell_volume 4924.490985
_symmetry_space_group_name_H-M "C C C A"
_symmetry_group_IT_number 68
_space_group.IT_coordinate_system_code '2'
_symmetry_cell_setting 'orthorhombic'
loop_
_space_group_symop_operation_xyz
x,y,z
-x,1/2-y,z
x,1/2-y,1/2-z
-x,y,1/2-z
-x,-y,-z
x,1/2+y,-z
-x,1/2+y,1/2+z
x,-y,1/2+z
1/2+x,1/2+y,z
1/2-x,-y,z
1/2+x,-y,1/2-z
1/2-x,1/2+y,1/2-z
1/2-x,1/2-y,-z
1/2+x,y,-z
1/2-x,y,1/2+z
1/2+x,1/2-y,1/2+z
loop_
_atom_site_type_symbol
_atom_site_label
_atom_site_fract_x
_atom_site_fract_y
_atom_site_fract_z
Si Si1 0.500000 0.620993 0.250000
Si Si2 0.557399 0.536788 0.455099
Si Si3 0.706660 0.860048 0.146972
Si Si4 0.896269 0.197680 0.301488
Si Si5 0.150639 0.512865 0.296829
Si Si6 0.805172 0.279540 0.907261
Si Si7 0.739611 0.569964 0.110480
O O1 0.530119 0.584980 0.378465
O O2 0.448158 0.656451 0.324343
O O3 0.500000 0.500000 0.500000
O O4 0.609092 0.514426 0.333073
O O5 0.598276 0.543568 0.611069
O O6 0.648803 0.822231 0.157283
O O7 0.770509 0.828476 0.149334
O O8 0.699457 0.888003 0.310415
O O9 0.717093 0.902320 0.018271
O O10 0.921928 0.250000 0.250000
O O11 0.857058 0.207513 0.461555
O O12 0.209542 0.548315 0.262113
O O13 0.188179 0.473369 0.407806
O O14 0.824885 0.250000 0.750000
O O15 0.750000 0.250000 0.000000
#
# Coordination Sequence:
#
# PCOD9510256 Si02
#       7
#     8  16  16  16  16  16  16
#     4  12  27  46  70  96 130 188 245 278 336 410
#     4  12  24  44  67  90 128 181 232 278 329 405
#     4  12  21  36  64 101 135 166 218 269 345 410
#     4  12  25  44  71  97 135 184 233 283 338 413
#     4  11  23  42  62  91 137 173 224 274 347 399
#     4  12  21  41  66 101 135 168 213 276 353 409
#     4  11  23  36  62 101 134 173 211 284 341 409
#
# _framework density 21.118932999999998
#
# number of rings (size 3 to 8) (size 9 to 14) (size 15 to 20)
#    0.000    0.308    6.154    3.923    0.000    3.692 
#    0.000    0.000    0.000    0.923    0.000    0.000 
#    0.000    0.000    0.000    0.000    0.000    0.000 
#
# Total GULP energy -289900.863076 kJ/mol
# GULP energy per Si atom -5575.016598 kJ/mol
# Density = 2.107087 g / cm^3
# Si number density = 21.118933 Si / 1000 Ang^3
#
#
#
# Elastic Constant Matrix: (Units=GPa)
#
#
# Indices 1 2 3 4 5 6 
#
# 1 113.3879 57.6628 28.7366 0.0000 0.0000 0.0000
# 2 57.6628 132.7626 31.4022 0.0000 0.0000 0.0000
# 3 28.7366 31.4022 58.6080 0.0000 0.0000 0.0000
# 4 0.0000 0.0000 0.0000 32.0149 0.0000 0.0000
# 5 0.0000 0.0000 0.0000 0.0000 32.9876 0.0000
# 6 0.0000 0.0000 0.0000 0.0000 0.0000 49.2470
#
#
#
# Elastic Compliance Matrix: (Units=1/GPa)
#
#
# Indices 1 2 3 4 5 6 
#
# 1 0.011920 -0.004346 -0.003516 0.000000 0.000000 0.000000
# 2 -0.004346 0.010210 -0.003340 0.000000 0.000000 0.000000
# 3 -0.003516 -0.003340 0.020576 0.000000 0.000000 0.000000
# 4 0.000000 0.000000 0.000000 0.031235 0.000000 0.000000
# 5 0.000000 0.000000 0.000000 0.000000 0.030314 0.000000
# 6 0.000000 0.000000 0.000000 0.000000 0.000000 0.020306
#
#
# Mechanical properties :
#
#
# Convention : Reuss Voigt Hill
#
# Bulk Modulus (GPa) = 49.25427 60.04019 54.64723
# Shear Modulus (GPa) = 32.52402 35.31370 33.91886
#
# Velocity S-wave (km/s) = 3.92859 4.09361 4.01195
# Velocity P-wave (km/s) = 6.62959 7.12985 6.88427
#
# Compressibility (1/GPa) = 0.02030281
#
# Stress axis : x y z
#
# Youngs Moduli (GPa) = 83.88950 97.94710 48.60027
#
# Poissons Ratio (x) = 0.42565 0.17090
# Poissons Ratio (y) = 0.36456 0.16230
# Poissons Ratio (z) = 0.29499 0.32710
#
# Static dielectric constant tensor:
#      x y z
#    x 1.760470 0.000000 0.000000 
#    y 0.000000 1.735120 0.000000 
#    z 0.000000 0.000000 1.818790 
# 
# From -- ./inp_files/8407.got.cif
#   From: 2010.05.17/outbox.cif.g08.bks.cpg/sg68_5_cif.got.tgz:8407.got - 2010.06.03 18:57:09.
