data_PCOD9510587
_publ_section_title
;
Structure prediction by ZEFSAII (Michael W. Deem and Ramdas Pophale) SiO2 
 PCOD9510587
Probable space group: C C C A
;
_chemical_formula_sum "Si O2"
_cell_formula_units_Z 108
_cell_length_a 14.772742
_cell_length_b 24.357686
_cell_length_c 13.916550
_cell_angle_alpha 90.000000
_cell_angle_beta 90.000000
_cell_angle_gamma 90.000000
_cell_volume 5007.589556
_symmetry_space_group_name_H-M "C C C A"
_symmetry_group_IT_number 68
_space_group.IT_coordinate_system_code '2'
_symmetry_cell_setting 'orthorhombic'
loop_
_space_group_symop_operation_xyz
x,y,z
-x,1/2-y,z
x,1/2-y,1/2-z
-x,y,1/2-z
-x,-y,-z
x,1/2+y,-z
-x,1/2+y,1/2+z
x,-y,1/2+z
1/2+x,1/2+y,z
1/2-x,-y,z
1/2+x,-y,1/2-z
1/2-x,1/2+y,1/2-z
1/2-x,1/2-y,-z
1/2+x,y,-z
1/2-x,y,1/2+z
1/2+x,1/2-y,1/2+z
loop_
_atom_site_type_symbol
_atom_site_label
_atom_site_fract_x
_atom_site_fract_y
_atom_site_fract_z
Si Si1 0.000000 0.976375 0.750000
Si Si2 0.885587 0.146300 0.033914
Si Si3 0.765761 0.437512 0.966835
Si Si4 0.649859 0.189231 0.746904
Si Si5 0.822188 0.452328 0.748948
Si Si6 0.000000 0.250000 0.750000
Si Si7 0.569347 0.391758 0.594094
Si Si8 0.344804 0.329376 0.331577
O O1 0.020856 0.939583 0.656066
O O2 0.086307 0.014327 0.763785
O O3 0.831050 0.090295 0.023329
O O4 0.863525 0.168337 0.139235
O O5 0.992757 0.136168 0.028188
O O6 0.844766 0.180541 0.946112
O O7 0.750000 0.500000 0.992321
O O8 0.790000 0.433295 0.854237
O O9 0.844990 0.411759 0.032144
O O10 0.611436 0.250000 0.750000
O O11 0.602592 0.149954 0.823962
O O12 0.754537 0.190333 0.778446
O O13 0.750000 0.500000 0.714893
O O14 0.842173 0.395925 0.690013
O O15 0.069234 0.206378 0.701057
#
# Coordination Sequence:
#
# PCOD9510587 Si02
#       8
#     8  16  16  16  16   4  16  16
#     4  12  25  42  69 105 150 193 240 306 370 446
#     4  12  27  47  76 110 145 191 254 310 376 452
#     4  11  26  44  72 106 152 196 243 307 382 467
#     4  12  26  52  78 103 144 196 251 314 376 434
#     4  11  25  46  74 106 151 200 248 310 386 453
#     4  12  30  52  72 116 160 202 260 314 392 464
#     4  12  26  46  72 110 147 190 252 311 370 453
#     4  12  27  49  76 110 154 199 249 316 376 460
#
# _framework density 21.567264000000002
#
# number of rings (size 3 to 8) (size 9 to 14) (size 15 to 20)
#    0.000    0.296    5.185    3.111    6.222    4.148 
#    0.000    0.000    0.000    0.000    0.000    0.000 
#    0.000    0.000    0.000    0.000    0.000    0.000 
#
# Total GULP energy -301759.372926 kJ/mol
# GULP energy per Si atom -5588.136536 kJ/mol
# Density = 2.151818 g / cm^3
# Si number density = 21.567264 Si / 1000 Ang^3
#
#
#
# Elastic Constant Matrix: (Units=GPa)
#
#
# Indices 1 2 3 4 5 6 
#
# 1 128.1255 45.3887 31.4167 0.0000 0.0000 0.0000
# 2 45.3887 117.4964 47.9162 0.0000 0.0000 0.0000
# 3 31.4167 47.9162 117.0915 0.0000 0.0000 0.0000
# 4 0.0000 0.0000 0.0000 11.5777 0.0000 0.0000
# 5 0.0000 0.0000 0.0000 0.0000 33.4138 0.0000
# 6 0.0000 0.0000 0.0000 0.0000 0.0000 18.2984
#
#
#
# Elastic Compliance Matrix: (Units=1/GPa)
#
#
# Indices 1 2 3 4 5 6 
#
# 1 0.009184 -0.003052 -0.001215 0.000000 0.000000 0.000000
# 2 -0.003052 0.011230 -0.003777 0.000000 0.000000 0.000000
# 3 -0.001215 -0.003777 0.010412 0.000000 0.000000 0.000000
# 4 0.000000 0.000000 0.000000 0.086373 0.000000 0.000000
# 5 0.000000 0.000000 0.000000 0.000000 0.029928 0.000000
# 6 0.000000 0.000000 0.000000 0.000000 0.000000 0.054649
#
#
# Mechanical properties :
#
#
# Convention : Reuss Voigt Hill
#
# Bulk Modulus (GPa) = 67.85185 68.01737 67.93461
# Shear Modulus (GPa) = 22.44395 28.52411 25.48403
#
# Velocity S-wave (km/s) = 3.22941 3.64065 3.44118
# Velocity P-wave (km/s) = 6.74050 7.01985 6.88159
#
# Compressibility (1/GPa) = 0.01473799
#
# Stress axis : x y z
#
# Youngs Moduli (GPa) = 108.88423 89.04613 96.04454
#
# Poissons Ratio (x) = 0.27179 0.11671
# Poissons Ratio (y) = 0.33234 0.36273
# Poissons Ratio (z) = 0.13231 0.33630
#
# Static dielectric constant tensor:
#      x y z
#    x 1.783600 0.000000 0.000000 
#    y 0.000000 1.787550 0.000000 
#    z 0.000000 0.000000 2.000790 
# 
# From -- ./inp_files/22651.got.cif
#   From: 2010.05.17/outbox.cif.g08.bks.cpg/sg68_12_cif.got.tgz:22651.got - 2010.06.03 18:57:09.
