data_PCOD9510310
_publ_section_title
;
Structure prediction by ZEFSAII (Michael W. Deem and Ramdas Pophale) SiO2 
 PCOD9510310
Probable space group: C C C A
;
_chemical_formula_sum "Si O2"
_cell_formula_units_Z 80
_cell_length_a 17.432814
_cell_length_b 8.157422
_cell_length_c 25.021227
_cell_angle_alpha 90.000000
_cell_angle_beta 90.000000
_cell_angle_gamma 90.000000
_cell_volume 3558.189135
_symmetry_space_group_name_H-M "C C C A"
_symmetry_group_IT_number 68
_space_group.IT_coordinate_system_code '2'
_symmetry_cell_setting 'orthorhombic'
loop_
_space_group_symop_operation_xyz
x,y,z
-x,1/2-y,z
x,1/2-y,1/2-z
-x,y,1/2-z
-x,-y,-z
x,1/2+y,-z
-x,1/2+y,1/2+z
x,-y,1/2+z
1/2+x,1/2+y,z
1/2-x,-y,z
1/2+x,-y,1/2-z
1/2-x,1/2+y,1/2-z
1/2-x,1/2-y,-z
1/2+x,y,-z
1/2-x,y,1/2+z
1/2+x,1/2-y,1/2+z
loop_
_atom_site_type_symbol
_atom_site_label
_atom_site_fract_x
_atom_site_fract_y
_atom_site_fract_z
Si Si1 0.383760 0.280883 0.338694
Si Si2 0.361454 0.811324 0.053377
Si Si3 0.750000 0.000000 0.365474
Si Si4 0.334659 0.559475 0.563423
Si Si5 0.472361 0.497099 0.692618
Si Si6 0.500000 0.750000 0.108275
O O1 0.307292 0.386439 0.331971
O O2 0.372764 0.187219 0.395727
O O3 0.456050 0.402539 0.333030
O O4 0.404296 0.128404 0.300496
O O5 0.373477 0.616029 0.055038
O O6 0.446020 0.865039 0.072267
O O7 0.301571 0.885349 0.095721
O O8 0.333341 0.859181 0.994891
O O9 0.250000 0.500000 0.581520
O O10 0.500000 0.438147 0.750000
O O11 0.451100 0.356129 0.651172
#
# Coordination Sequence:
#
# PCOD9510310 Si02
#       6
#    16  16   8  16  16   8
#     4  11  23  41  71  99 132 181 221 281 333 410
#     4  12  25  40  65 100 141 184 227 276 332 412
#     4  12  22  42  70  98 142 174 230 272 338 406
#     4  12  23  40  65  97 141 189 226 267 345 410
#     4  11  25  48  75  94 133 179 231 287 365 409
#     4  12  25  44  72 102 130 180 233 290 336 416
#
# _framework density 22.483346999999998
#
# number of rings (size 3 to 8) (size 9 to 14) (size 15 to 20)
#    0.000    0.400    7.000    3.300    0.000    2.400 
#    0.000    0.000   17.600    0.000    0.000    0.000 
#    0.000    0.000    0.000    0.000    0.000    0.000 
#
# Total GULP energy -223261.575834 kJ/mol
# GULP energy per Si atom -5581.539396 kJ/mol
# Density = 2.243217 g / cm^3
# Si number density = 22.483347 Si / 1000 Ang^3
#
#
#
# Elastic Constant Matrix: (Units=GPa)
#
#
# Indices 1 2 3 4 5 6 
#
# 1 87.5796 21.2708 23.8151 0.0000 0.0000 0.0000
# 2 21.2708 87.8825 20.5808 0.0000 0.0000 0.0000
# 3 23.8151 20.5808 69.2859 0.0000 0.0000 0.0000
# 4 0.0000 0.0000 0.0000 29.3316 0.0000 0.0000
# 5 0.0000 0.0000 0.0000 0.0000 19.6643 0.0000
# 6 0.0000 0.0000 0.0000 0.0000 0.0000 32.7617
#
#
#
# Elastic Compliance Matrix: (Units=1/GPa)
#
#
# Indices 1 2 3 4 5 6 
#
# 1 0.012999 -0.002257 -0.003798 0.000000 0.000000 0.000000
# 2 -0.002257 0.012621 -0.002973 0.000000 0.000000 0.000000
# 3 -0.003798 -0.002973 0.016621 0.000000 0.000000 0.000000
# 4 0.000000 0.000000 0.000000 0.034093 0.000000 0.000000
# 5 0.000000 0.000000 0.000000 0.000000 0.050854 0.000000
# 6 0.000000 0.000000 0.000000 0.000000 0.000000 0.030523
#
#
# Mechanical properties :
#
#
# Convention : Reuss Voigt Hill
#
# Bulk Modulus (GPa) = 41.34600 41.78681 41.56641
# Shear Modulus (GPa) = 27.19909 28.29027 27.74468
#
# Velocity S-wave (km/s) = 3.48191 3.55107 3.51666
# Velocity P-wave (km/s) = 5.88171 5.95311 5.91751
#
# Compressibility (1/GPa) = 0.02418614
#
# Stress axis : x y z
#
# Youngs Moduli (GPa) = 76.92906 79.23055 60.16308
#
# Poissons Ratio (x) = 0.17881 0.22848
# Poissons Ratio (y) = 0.17362 0.17889
# Poissons Ratio (z) = 0.29215 0.23558
#
# Static dielectric constant tensor:
#      x y z
#    x 1.952730 0.000000 0.000000 
#    y 0.000000 1.908380 0.000000 
#    z 0.000000 0.000000 1.797800 
# 
# From -- ./inp_files/51337.got.cif
#   From: 2010.05.17/outbox.cif.g08.bks.cpg/sg68_26_cif.got.tgz:51337.got - 2010.06.03 18:57:09.
