data_PCOD9510199
_publ_section_title
;
Structure prediction by ZEFSAII (Michael W. Deem and Ramdas Pophale) SiO2 
 PCOD9510199
Probable space group: C C C A
;
_chemical_formula_sum "Si O2"
_cell_formula_units_Z 96
_cell_length_a 17.302591
_cell_length_b 11.057966
_cell_length_c 25.240875
_cell_angle_alpha 90.000000
_cell_angle_beta 90.000000
_cell_angle_gamma 90.000000
_cell_volume 4829.373541
_symmetry_space_group_name_H-M "C C C A"
_symmetry_group_IT_number 68
_space_group.IT_coordinate_system_code '2'
_symmetry_cell_setting 'orthorhombic'
loop_
_space_group_symop_operation_xyz
x,y,z
-x,1/2-y,z
x,1/2-y,1/2-z
-x,y,1/2-z
-x,-y,-z
x,1/2+y,-z
-x,1/2+y,1/2+z
x,-y,1/2+z
1/2+x,1/2+y,z
1/2-x,-y,z
1/2+x,-y,1/2-z
1/2-x,1/2+y,1/2-z
1/2-x,1/2-y,-z
1/2+x,y,-z
1/2-x,y,1/2+z
1/2+x,1/2-y,1/2+z
loop_
_atom_site_type_symbol
_atom_site_label
_atom_site_fract_x
_atom_site_fract_y
_atom_site_fract_z
Si Si1 0.763540 0.170386 0.646333
Si Si2 0.133617 0.525425 0.685337
Si Si3 0.461957 0.377746 0.978459
Si Si4 0.685631 0.398665 0.701147
Si Si5 0.791673 0.133257 0.526189
Si Si6 0.523473 0.613982 0.147945
O O1 0.824799 0.104394 0.685212
O O2 0.731229 0.288434 0.674420
O O3 0.799448 0.171523 0.588055
O O4 0.684454 0.092039 0.640377
O O5 0.153630 0.599621 0.738502
O O6 0.044456 0.529570 0.670730
O O7 0.500000 0.250000 0.996214
O O8 0.472735 0.384059 0.915232
O O9 0.500000 0.500000 0.000000
O O10 0.373643 0.377972 0.997201
O O11 0.750000 0.500000 0.699823
O O12 0.607764 0.419853 0.668290
O O13 0.750000 0.250000 0.500000
O O14 0.750000 0.000000 0.522391
O O15 0.500000 0.750000 0.165928
#
# Coordination Sequence:
#
# PCOD9510199 Si02
#       6
#    16  16  16  16  16  16
#     4  11  23  42  68  96 135 179 220 269 347 403
#     4  11  22  41  69  93 131 176 223 267 337 395
#     4  11  25  43  66  92 132 175 221 277 337 398
#     4  12  25  40  67 105 133 171 224 286 328 398
#     4  12  25  43  70  99 133 177 226 276 338 405
#     4  11  24  41  67  95 129 170 233 276 320 391
#
# _framework density 19.878354000000002
#
# number of rings (size 3 to 8) (size 9 to 14) (size 15 to 20)
#    0.000    0.667    5.000    4.000    2.333    4.667 
#    0.000    0.833    0.000    2.000    0.000    0.000 
#    0.000    0.000    0.000    0.000    0.000    0.000 
#
# Total GULP energy -267767.993755 kJ/mol
# GULP energy per Si atom -5578.499870 kJ/mol
# Density = 1.983311 g / cm^3
# Si number density = 19.878354 Si / 1000 Ang^3
#
#
#
# Elastic Constant Matrix: (Units=GPa)
#
#
# Indices 1 2 3 4 5 6 
#
# 1 159.0771 75.5100 43.5452 0.0000 0.0000 0.0000
# 2 75.5100 97.0976 57.9487 0.0000 0.0000 0.0000
# 3 43.5452 57.9487 76.8487 0.0000 0.0000 0.0000
# 4 0.0000 0.0000 0.0000 24.2198 0.0000 0.0000
# 5 0.0000 0.0000 0.0000 0.0000 35.8288 0.0000
# 6 0.0000 0.0000 0.0000 0.0000 0.0000 34.8500
#
#
#
# Elastic Compliance Matrix: (Units=1/GPa)
#
#
# Indices 1 2 3 4 5 6 
#
# 1 0.009970 -0.007967 0.000359 0.000000 0.000000 0.000000
# 2 -0.007967 0.025093 -0.014407 0.000000 0.000000 0.000000
# 3 0.000359 -0.014407 0.023673 0.000000 0.000000 0.000000
# 4 0.000000 0.000000 0.000000 0.041288 0.000000 0.000000
# 5 0.000000 0.000000 0.000000 0.000000 0.027911 0.000000
# 6 0.000000 0.000000 0.000000 0.000000 0.000000 0.028694
#
#
# Mechanical properties :
#
#
# Convention : Reuss Voigt Hill
#
# Bulk Modulus (GPa) = 68.00665 76.33679 72.17172
# Shear Modulus (GPa) = 24.32331 29.38102 26.85216
#
# Velocity S-wave (km/s) = 3.50181 3.84870 3.67934
# Velocity P-wave (km/s) = 7.11589 7.63121 7.37805
#
# Compressibility (1/GPa) = 0.01470444
#
# Stress axis : x y z
#
# Youngs Moduli (GPa) = 100.30049 39.85121 42.24144
#
# Poissons Ratio (x) = 0.31751 -0.01514
# Poissons Ratio (y) = 0.79913 0.60859
# Poissons Ratio (z) = -0.03596 0.57415
#
# Static dielectric constant tensor:
#      x y z
#    x 1.652840 0.000000 0.000000 
#    y 0.000000 1.633410 0.000000 
#    z 0.000000 0.000000 1.707360 
# 
# From -- ./inp_files/45997.got.cif
#   From: 2010.05.17/outbox.cif.g08.bks.cpg/sg68_23_cif.got.tgz:45997.got - 2010.06.03 18:57:09.
