data_PCOD9510410
_publ_section_title
;
Structure prediction by ZEFSAII (Michael W. Deem and Ramdas Pophale) SiO2 
 PCOD9510410
Probable space group: C C C A
;
_chemical_formula_sum "Si O2"
_cell_formula_units_Z 120
_cell_length_a 22.321068
_cell_length_b 11.633759
_cell_length_c 23.522694
_cell_angle_alpha 90.000000
_cell_angle_beta 90.000000
_cell_angle_gamma 90.000000
_cell_volume 6108.324386
_symmetry_space_group_name_H-M "C C C A"
_symmetry_group_IT_number 68
_space_group.IT_coordinate_system_code '2'
_symmetry_cell_setting 'orthorhombic'
loop_
_space_group_symop_operation_xyz
x,y,z
-x,1/2-y,z
x,1/2-y,1/2-z
-x,y,1/2-z
-x,-y,-z
x,1/2+y,-z
-x,1/2+y,1/2+z
x,-y,1/2+z
1/2+x,1/2+y,z
1/2-x,-y,z
1/2+x,-y,1/2-z
1/2-x,1/2+y,1/2-z
1/2-x,1/2-y,-z
1/2+x,y,-z
1/2-x,y,1/2+z
1/2+x,1/2-y,1/2+z
loop_
_atom_site_type_symbol
_atom_site_label
_atom_site_fract_x
_atom_site_fract_y
_atom_site_fract_z
Si Si1 0.257078 0.311449 0.193611
Si Si2 0.930516 0.778374 0.815289
Si Si3 0.151243 0.403484 0.125857
Si Si4 0.714994 0.875578 0.006083
Si Si5 0.000000 0.750000 0.337144
Si Si6 0.891131 0.897159 0.198513
Si Si7 0.421599 0.042961 0.176582
Si Si8 0.297601 0.603172 0.879415
O O1 0.232693 0.250000 0.250000
O O2 0.209198 0.398148 0.167422
O O3 0.322871 0.358081 0.209541
O O4 0.266792 0.217460 0.144398
O O5 0.912171 0.750000 0.750000
O O6 0.890744 0.700044 0.855445
O O7 0.000000 0.750000 0.818724
O O8 0.925577 0.908868 0.835097
O O9 0.173752 0.383035 0.061898
O O10 0.116296 0.519485 0.143982
O O11 0.750000 0.000000 0.009661
O O12 0.750000 0.750000 0.000000
O O13 0.683683 0.883462 0.944858
O O14 0.936495 0.707171 0.312007
O O15 0.973105 0.878105 0.352608
O O16 0.920466 0.953188 0.254365
O O17 0.356500 0.082574 0.156707
O O18 0.250000 0.500000 0.873991
#
# Coordination Sequence:
#
# PCOD9510410 Si02
#       8
#    16  16  16  16   8  16  16  16
#     4  12  22  36  59 102 140 163 214 278 356 406
#     4  11  24  43  65 100 137 179 221 275 347 411
#     4  12  25  42  68  98 136 175 229 281 344 411
#     4  11  25  46  68  97 136 188 231 278 343 425
#     4  12  25  42  66  98 140 188 232 268 347 426
#     4  12  23  38  61 100 136 176 219 281 335 412
#     4  12  23  40  64  95 133 178 221 275 334 411
#     4  11  24  41  63  95 134 176 219 275 340 408
#
# _framework density 19.645320999999999
#
# number of rings (size 3 to 8) (size 9 to 14) (size 15 to 20)
#    0.000    0.400    5.333    4.400    5.600    0.000 
#    0.000    0.000    1.467    1.600    0.000    0.000 
#    0.000    0.000    0.000    0.000    0.000    0.000 
#
# Total GULP energy -334281.606141 kJ/mol
# GULP energy per Si atom -5571.360102 kJ/mol
# Density = 1.960061 g / cm^3
# Si number density = 19.645321 Si / 1000 Ang^3
#
#
#
# Elastic Constant Matrix: (Units=GPa)
#
#
# Indices 1 2 3 4 5 6 
#
# 1 88.4573 22.3772 15.8653 0.0000 0.0000 0.0000
# 2 22.3772 109.3390 21.9665 0.0000 0.0000 0.0000
# 3 15.8653 21.9665 116.2138 0.0000 0.0000 0.0000
# 4 0.0000 0.0000 0.0000 25.0760 0.0000 0.0000
# 5 0.0000 0.0000 0.0000 0.0000 8.7607 0.0000
# 6 0.0000 0.0000 0.0000 0.0000 0.0000 35.9162
#
#
#
# Elastic Compliance Matrix: (Units=1/GPa)
#
#
# Indices 1 2 3 4 5 6 
#
# 1 0.012089 -0.002227 -0.001229 0.000000 0.000000 0.000000
# 2 -0.002227 0.009917 -0.001570 0.000000 0.000000 0.000000
# 3 -0.001229 -0.001570 0.009070 0.000000 0.000000 0.000000
# 4 0.000000 0.000000 0.000000 0.039879 0.000000 0.000000
# 5 0.000000 0.000000 0.000000 0.000000 0.114146 0.000000
# 6 0.000000 0.000000 0.000000 0.000000 0.000000 0.027843
#
#
# Mechanical properties :
#
#
# Convention : Reuss Voigt Hill
#
# Bulk Modulus (GPa) = 47.57024 48.26982 47.92003
# Shear Modulus (GPa) = 21.73880 30.87067 26.30473
#
# Velocity S-wave (km/s) = 3.33011 3.96839 3.66318
# Velocity P-wave (km/s) = 6.24927 6.75437 6.50672
#
# Compressibility (1/GPa) = 0.02102154
#
# Stress axis : x y z
#
# Youngs Moduli (GPa) = 82.72137 100.83516 110.25950
#
# Poissons Ratio (x) = 0.22457 0.13555
# Poissons Ratio (y) = 0.18423 0.17316
# Poissons Ratio (z) = 0.10170 0.15836
#
# Static dielectric constant tensor:
#      x y z
#    x 1.673740 0.000000 0.000000 
#    y 0.000000 1.709340 0.000000 
#    z 0.000000 0.000000 1.697520 
# 
# From -- ./inp_files/46708.got.cif
#   From: 2010.05.17/outbox.cif.g08.bks.cpg/sg68_24_cif.got.tgz:46708.got - 2010.06.03 18:57:09.
