data_PCOD9510242
_publ_section_title
;
Structure prediction by ZEFSAII (Michael W. Deem and Ramdas Pophale) SiO2 
 PCOD9510242
Probable space group: C C C A
;
_chemical_formula_sum "Si O2"
_cell_formula_units_Z 52
_cell_length_a 16.927178
_cell_length_b 14.345656
_cell_length_c 10.359979
_cell_angle_alpha 90.000000
_cell_angle_beta 90.000000
_cell_angle_gamma 90.000000
_cell_volume 2515.728957
_symmetry_space_group_name_H-M "C C C A"
_symmetry_group_IT_number 68
_space_group.IT_coordinate_system_code '2'
_symmetry_cell_setting 'orthorhombic'
loop_
_space_group_symop_operation_xyz
x,y,z
-x,1/2-y,z
x,1/2-y,1/2-z
-x,y,1/2-z
-x,-y,-z
x,1/2+y,-z
-x,1/2+y,1/2+z
x,-y,1/2+z
1/2+x,1/2+y,z
1/2-x,-y,z
1/2+x,-y,1/2-z
1/2-x,1/2+y,1/2-z
1/2-x,1/2-y,-z
1/2+x,y,-z
1/2-x,y,1/2+z
1/2+x,1/2-y,1/2+z
loop_
_atom_site_type_symbol
_atom_site_label
_atom_site_fract_x
_atom_site_fract_y
_atom_site_fract_z
Si Si1 0.000000 0.750000 0.250000
Si Si2 0.079149 0.112547 0.556320
Si Si3 0.183737 0.257017 0.108127
Si Si4 0.438446 0.586199 0.369911
O O1 0.059232 0.688197 0.335908
O O2 0.134325 0.153034 0.442271
O O3 0.993500 0.096327 0.494212
O O4 0.104143 0.014145 0.618894
O O5 0.221999 0.250000 0.250000
O O6 0.121116 0.172372 0.121785
O O7 0.250000 0.250000 0.000000
O O8 0.500000 0.588715 0.250000
#
# Coordination Sequence:
#
# PCOD9510242 Si02
#       4
#     4  16  16  16
#     4  12  20  36  66 108 142 164 240 312 360 412
#     4  11  24  40  71 105 135 180 240 302 349 426
#     4  12  27  46  68 100 149 192 232 291 371 438
#     4  11  22  44  73 103 131 182 248 300 353 428
#
# _framework density 20.669954000000001
#
# number of rings (size 3 to 8) (size 9 to 14) (size 15 to 20)
#    0.000    0.615    7.692    0.000    2.154    1.231 
#    0.000    3.077    0.000    0.000    0.000    0.000 
#    0.000    0.000    0.000    0.000    0.000    0.000 
#
# Total GULP energy -144963.397148 kJ/mol
# GULP energy per Si atom -5575.515275 kJ/mol
# Density = 2.062291 g / cm^3
# Si number density = 20.669954 Si / 1000 Ang^3
#
#
#
# Elastic Constant Matrix: (Units=GPa)
#
#
# Indices 1 2 3 4 5 6 
#
# 1 52.4175 30.4849 32.8319 0.0000 0.0000 0.0000
# 2 30.4849 114.9127 41.7465 0.0000 0.0000 0.0000
# 3 32.8319 41.7465 133.0358 0.0000 0.0000 0.0000
# 4 0.0000 0.0000 0.0000 12.3686 0.0000 0.0000
# 5 0.0000 0.0000 0.0000 0.0000 48.8709 0.0000
# 6 0.0000 0.0000 0.0000 0.0000 0.0000 -0.1548
#
#
#
# Elastic Compliance Matrix: (Units=1/GPa)
#
#
# Indices 1 2 3 4 5 6 
#
# 1 0.024805 -0.004917 -0.004579 0.000000 0.000000 0.000000
# 2 -0.004917 0.010797 -0.002174 0.000000 0.000000 0.000000
# 3 -0.004579 -0.002174 0.009329 0.000000 0.000000 0.000000
# 4 0.000000 0.000000 0.000000 0.080850 0.000000 0.000000
# 5 0.000000 0.000000 0.000000 0.000000 0.020462 0.000000
# 6 0.000000 0.000000 0.000000 0.000000 0.000000 -6.459367
#
#
# Mechanical properties :
#
#
# Convention : Reuss Voigt Hill
#
# Bulk Modulus (GPa) = 46.31694 56.72139 51.51917
# Shear Modulus (GPa) = -0.79585 25.23713 12.22064
#
# Velocity S-wave (km/s) = -0.62118 3.49801 2.43415
# Velocity P-wave (km/s) = 4.68423 6.61935 5.73401
#
# Compressibility (1/GPa) = 0.02159037
#
# Stress axis : x y z
#
# Youngs Moduli (GPa) = 40.31420 92.62106 107.19154
#
# Poissons Ratio (x) = 0.45543 0.49079
# Poissons Ratio (y) = 0.19823 0.23309
# Poissons Ratio (z) = 0.18459 0.20140
#
# Static dielectric constant tensor:
#      x y z
#    x 1.718970 0.000000 0.000000 
#    y 0.000000 1.869580 0.000000 
#    z 0.000000 0.000000 1.797610 
# 
# From -- ./inp_files/4638.got.cif
#   From: 2010.05.17/outbox.cif.g08.bks.cpg/sg68_3_cif.got.tgz:4638.got - 2010.06.03 18:57:09.
