data_PCOD9510999
_publ_section_title
;
Structure prediction by ZEFSAII (Michael W. Deem and Ramdas Pophale) SiO2 
 PCOD9510999
Probable space group: F M M M
;
_chemical_formula_sum "Si O2"
_cell_formula_units_Z 144
_cell_length_a 28.819633
_cell_length_b 16.547090
_cell_length_c 19.819651
_cell_angle_alpha 90.000000
_cell_angle_beta 90.000000
_cell_angle_gamma 90.000000
_cell_volume 9451.616198
_symmetry_space_group_name_H-M "F M M M"
_symmetry_group_IT_number 69
_symmetry_cell_setting 'orthorhombic'
loop_
_space_group_symop_operation_xyz
x,y,z
-x,-y,z
x,-y,-z
-x,y,-z
-x,-y,-z
x,y,-z
-x,y,z
x,-y,z
x,1/2+y,1/2+z
-x,1/2-y,1/2+z
x,1/2-y,1/2-z
-x,1/2+y,1/2-z
-x,1/2-y,1/2-z
x,1/2+y,1/2-z
-x,1/2+y,1/2+z
x,1/2-y,1/2+z
1/2+x,y,1/2+z
1/2-x,-y,1/2+z
1/2+x,-y,1/2-z
1/2-x,y,1/2-z
1/2-x,-y,1/2-z
1/2+x,y,1/2-z
1/2-x,y,1/2+z
1/2+x,-y,1/2+z
1/2+x,1/2+y,z
1/2-x,1/2-y,z
1/2+x,1/2-y,-z
1/2-x,1/2+y,-z
1/2-x,1/2-y,-z
1/2+x,1/2+y,-z
1/2-x,1/2+y,z
1/2+x,1/2-y,z
loop_
_atom_site_type_symbol
_atom_site_label
_atom_site_fract_x
_atom_site_fract_y
_atom_site_fract_z
Si Si1 0.742532 0.846350 0.000000
Si Si2 0.652831 0.096265 0.500000
Si Si3 0.234904 0.656361 0.851408
Si Si4 0.321805 0.095429 0.270313
Si Si5 0.000000 0.098380 0.920429
Si Si6 0.900617 0.401344 0.632628
O O1 0.750000 0.750000 0.000000
O O2 0.793502 0.884285 0.000000
O O3 0.720881 0.867348 0.072527
O O4 0.628040 0.126964 0.567152
O O5 0.646593 0.000000 0.500000
O O6 0.250000 0.750000 0.850387
O O7 0.280509 0.608503 0.825179
O O8 0.195237 0.640827 0.796448
O O9 0.370385 0.123432 0.302634
O O10 0.324270 0.000000 0.255807
O O11 0.046503 0.123602 0.880950
O O12 0.000000 0.000000 0.922256
O O13 0.000000 0.123128 0.000000
O O14 0.900172 0.500000 0.633511
#
# Coordination Sequence:
#
# PCOD9510999 Si02
#       6
#    16  16  32  32  16  32
#     4  10  20  30  41  59  86 106 148 179 207 246
#     4  10  16  25  40  60  85 117 140 168 208 242
#     4  10  19  30  42  58  81 111 145 177 207 242
#     4  10  18  28  41  60  84 112 142 168 200 247
#     4   9  14  22  36  58  87 113 135 167 208 254
#     4   9  16  24  38  59  85 112 140 168 205 253
#
# _framework density 15.23549
#
# number of rings (size 3 to 8) (size 9 to 14) (size 15 to 20)
#    0.000    2.333    3.333    2.667    0.000    0.889 
#    0.000    0.000    0.000    0.000    0.000    3.111 
#    0.000    0.889    0.000    7.111    0.000    0.000 
#
# Total GULP energy -200420.089529 kJ/mol
# GULP energy per Si atom -5567.224709 kJ/mol
# Density = 1.520081 g / cm^3
# Si number density = 15.235490 Si / 1000 Ang^3
#
#
#
# Elastic Constant Matrix: (Units=GPa)
#
#
# Indices 1 2 3 4 5 6 
#
# 1 96.5742 6.1064 64.2302 0.0000 0.0000 0.0000
# 2 6.1064 17.2709 17.3388 0.0000 0.0000 0.0000
# 3 64.2302 17.3388 142.5388 0.0000 0.0000 0.0000
# 4 0.0000 0.0000 0.0000 25.9117 0.0000 0.0000
# 5 0.0000 0.0000 0.0000 0.0000 24.7069 0.0000
# 6 0.0000 0.0000 0.0000 0.0000 0.0000 -1.8764
#
#
#
# Elastic Compliance Matrix: (Units=1/GPa)
#
#
# Indices 1 2 3 4 5 6 
#
# 1 0.014828 0.001669 -0.006885 0.000000 0.000000 0.000000
# 2 0.001669 0.066143 -0.008798 0.000000 0.000000 0.000000
# 3 -0.006885 -0.008798 0.011188 0.000000 0.000000 0.000000
# 4 0.000000 0.000000 0.000000 0.038593 0.000000 0.000000
# 5 0.000000 0.000000 0.000000 0.000000 0.040475 0.000000
# 6 0.000000 0.000000 0.000000 0.000000 0.000000 -0.532927
#
#
# Mechanical properties :
#
#
# Convention : Reuss Voigt Hill
#
# Bulk Modulus (GPa) = 15.59272 47.97053 31.78162
# Shear Modulus (GPa) = -16.01050 20.99566 2.49258
#
# Velocity S-wave (km/s) = -3.24523 3.71627 1.28046
# Velocity P-wave (km/s) = 1.94559 7.06885 4.80538
#
# Compressibility (1/GPa) = 0.06413251
#
# Stress axis : x y z
#
# Youngs Moduli (GPa) = 67.43897 15.11865 89.37919
#
# Poissons Ratio (x) = -0.02524 0.61536
# Poissons Ratio (y) = -0.11257 0.78636
# Poissons Ratio (z) = 0.46431 0.13301
#
# Static dielectric constant tensor:
#      x y z
#    x 1.505870 0.000000 0.000000 
#    y 0.000000 1.509700 0.000000 
#    z 0.000000 0.000000 1.548610 
# 
# From -- ./inp_files/33447.got.cif
#   From: 2010.05.17/outbox.cif.g08.bks.cpg/sg69_17_cif.got.tgz:33447.got - 2010.06.03 19:29:58.
