data_PCOD9510627
_publ_section_title
;
Structure prediction by ZEFSAII (Michael W. Deem and Ramdas Pophale) SiO2 
 PCOD9510627
Probable space group: C C C A
;
_chemical_formula_sum "Si O2"
_cell_formula_units_Z 88
_cell_length_a 11.566185
_cell_length_b 13.549960
_cell_length_c 22.259464
_cell_angle_alpha 90.000000
_cell_angle_beta 90.000000
_cell_angle_gamma 90.000000
_cell_volume 3488.533117
_symmetry_space_group_name_H-M "C C C A"
_symmetry_group_IT_number 68
_space_group.IT_coordinate_system_code '2'
_symmetry_cell_setting 'orthorhombic'
loop_
_space_group_symop_operation_xyz
x,y,z
-x,1/2-y,z
x,1/2-y,1/2-z
-x,y,1/2-z
-x,-y,-z
x,1/2+y,-z
-x,1/2+y,1/2+z
x,-y,1/2+z
1/2+x,1/2+y,z
1/2-x,-y,z
1/2+x,-y,1/2-z
1/2-x,1/2+y,1/2-z
1/2-x,1/2-y,-z
1/2+x,y,-z
1/2-x,y,1/2+z
1/2+x,1/2-y,1/2+z
loop_
_atom_site_type_symbol
_atom_site_label
_atom_site_fract_x
_atom_site_fract_y
_atom_site_fract_z
Si Si1 0.250000 0.000000 0.665942
Si Si2 0.077704 0.153529 0.977627
Si Si3 0.092699 0.497624 0.915809
Si Si4 0.631678 0.365437 0.262221
Si Si5 0.747894 0.892016 0.611372
Si Si6 0.009200 0.867134 0.821036
O O1 0.303625 0.930991 0.607866
O O2 0.217994 0.082221 0.717356
O O3 0.195303 0.176335 0.940707
O O4 0.000000 0.250000 0.990335
O O5 0.095733 0.084155 0.035465
O O6 0.005646 0.078493 0.934649
O O7 0.083023 0.557265 0.851316
O O8 0.640323 0.250000 0.250000
O O9 0.500000 0.395849 0.250000
O O10 0.665862 0.387756 0.330500
O O11 0.874159 0.884071 0.640889
O O12 0.750000 0.000000 0.581773
O O13 0.000000 0.750000 0.827961
O O14 0.000000 0.885353 0.750000
#
# Coordination Sequence:
#
# PCOD9510627 Si02
#       6
#     8  16  16  16  16  16
#     4  12  26  44  76 108 146 196 248 302 378 446
#     4  11  27  49  76 107 148 196 252 312 368 446
#     4  11  26  47  73 110 150 193 248 316 370 442
#     4  11  27  46  71 109 149 192 245 307 370 445
#     4  12  25  45  75 103 144 198 245 298 376 446
#     4  11  26  46  74 108 151 193 246 310 375 445
#
# _framework density 25.225501999999999
#
# number of rings (size 3 to 8) (size 9 to 14) (size 15 to 20)
#    0.000    0.727    2.727    2.727   11.455    0.000 
#    0.000    2.727    0.000    0.000    0.000    0.000 
#    0.000    0.000    0.000    0.000    0.000    0.000 
#
# Total GULP energy -245335.535338 kJ/mol
# GULP energy per Si atom -5575.807621 kJ/mol
# Density = 2.516809 g / cm^3
# Si number density = 25.225502 Si / 1000 Ang^3
#
#
#
# Elastic Constant Matrix: (Units=GPa)
#
#
# Indices 1 2 3 4 5 6 
#
# 1 97.6730 25.5573 32.5970 0.0000 0.0000 0.0000
# 2 25.5573 133.5136 32.1949 0.0000 0.0000 0.0000
# 3 32.5970 32.1949 133.2449 0.0000 0.0000 0.0000
# 4 0.0000 0.0000 0.0000 219.4229 0.0000 0.0000
# 5 0.0000 0.0000 0.0000 0.0000 52.6734 0.0000
# 6 0.0000 0.0000 0.0000 0.0000 0.0000 -21.9551
#
#
#
# Elastic Compliance Matrix: (Units=1/GPa)
#
#
# Indices 1 2 3 4 5 6 
#
# 1 0.011466 -0.001612 -0.002416 0.000000 0.000000 0.000000
# 2 -0.001612 0.008180 -0.001582 0.000000 0.000000 0.000000
# 3 -0.002416 -0.001582 0.008478 0.000000 0.000000 0.000000
# 4 0.000000 0.000000 0.000000 0.004557 0.000000 0.000000
# 5 0.000000 0.000000 0.000000 0.000000 0.018985 0.000000
# 6 0.000000 0.000000 0.000000 0.000000 0.000000 -0.045548
#
#
# Mechanical properties :
#
#
# Convention : Reuss Voigt Hill
#
# Bulk Modulus (GPa) = 59.15560 60.56999 59.86280
# Shear Modulus (GPa) = 217.63705 68.30039 142.96872
#
# Velocity S-wave (km/s) = 9.29860 5.20910 7.53653
# Velocity P-wave (km/s) = 11.78078 7.76165 9.97572
#
# Compressibility (1/GPa) = 0.01690457
#
# Stress axis : x y z
#
# Youngs Moduli (GPa) = 87.21206 122.24937 117.95011
#
# Poissons Ratio (x) = 0.19712 0.28491
# Poissons Ratio (y) = 0.14062 0.18660
# Poissons Ratio (z) = 0.21066 0.19340
#
# Static dielectric constant tensor:
#      x y z
#    x 1.490200 0.000000 0.000000 
#    y 0.000000 1.914220 0.000000 
#    z 0.000000 0.000000 1.911050 
# 
# From -- ./inp_files/44262.got.cif
#   From: 2010.05.17/outbox.cif.g08.bks.cpg/sg68_23_cif.got.tgz:44262.got - 2010.06.03 18:57:09.
