data_PCOD9510292
_publ_section_title
;
Structure prediction by ZEFSAII (Michael W. Deem and Ramdas Pophale) SiO2 
 PCOD9510292
Probable space group: C C C A
;
_chemical_formula_sum "Si O2"
_cell_formula_units_Z 64
_cell_length_a 23.147397
_cell_length_b 8.540737
_cell_length_c 13.481083
_cell_angle_alpha 90.000000
_cell_angle_beta 90.000000
_cell_angle_gamma 90.000000
_cell_volume 2665.153893
_symmetry_space_group_name_H-M "C C C A"
_symmetry_group_IT_number 68
_space_group.IT_coordinate_system_code '2'
_symmetry_cell_setting 'orthorhombic'
loop_
_space_group_symop_operation_xyz
x,y,z
-x,1/2-y,z
x,1/2-y,1/2-z
-x,y,1/2-z
-x,-y,-z
x,1/2+y,-z
-x,1/2+y,1/2+z
x,-y,1/2+z
1/2+x,1/2+y,z
1/2-x,-y,z
1/2+x,-y,1/2-z
1/2-x,1/2+y,1/2-z
1/2-x,1/2-y,-z
1/2+x,y,-z
1/2-x,y,1/2+z
1/2+x,1/2-y,1/2+z
loop_
_atom_site_type_symbol
_atom_site_label
_atom_site_fract_x
_atom_site_fract_y
_atom_site_fract_z
Si Si1 0.122042 0.550967 0.606693
Si Si2 0.556784 0.855692 0.450391
Si Si3 0.208973 0.378295 0.950136
Si Si4 0.101998 0.898265 0.192453
O O1 0.075585 0.437346 0.552500
O O2 0.103890 0.730753 0.587920
O O3 0.179419 0.531653 0.542514
O O4 0.125901 0.509869 0.720882
O O5 0.500000 0.750000 0.456553
O O6 0.558009 0.999402 0.372809
O O7 0.250000 0.500000 0.893729
O O8 0.154869 0.340420 0.878105
O O9 0.250000 0.250000 0.000000
O O10 0.076772 0.750000 0.250000
#
# Coordination Sequence:
#
# PCOD9510292 Si02
#       4
#    16  16  16  16
#     4  11  23  43  66  97 138 178 231 294 347 412
#     4  11  24  45  71 100 138 186 232 289 358 422
#     4  11  23  41  65  95 136 184 230 283 349 414
#     4  11  24  42  66 100 139 180 232 291 344 413
#
# _framework density 24.013622000000002
#
# number of rings (size 3 to 8) (size 9 to 14) (size 15 to 20)
#    0.000    1.000    0.000    9.000    0.000    5.000 
#    0.000    1.250    0.000    1.500    0.000    0.000 
#    0.000    0.000    0.000    0.000    0.000    0.000 
#
# Total GULP energy -178957.042854 kJ/mol
# GULP energy per Si atom -5592.407589 kJ/mol
# Density = 2.395897 g / cm^3
# Si number density = 24.013622 Si / 1000 Ang^3
#
#
#
# Elastic Constant Matrix: (Units=GPa)
#
#
# Indices 1 2 3 4 5 6 
#
# 1 112.5604 58.2523 40.4648 0.0000 0.0000 0.0000
# 2 58.2523 144.6815 44.2206 0.0000 0.0000 0.0000
# 3 40.4648 44.2206 153.5731 0.0000 0.0000 0.0000
# 4 0.0000 0.0000 0.0000 56.8911 0.0000 0.0000
# 5 0.0000 0.0000 0.0000 0.0000 5.0864 0.0000
# 6 0.0000 0.0000 0.0000 0.0000 0.0000 62.5004
#
#
#
# Elastic Compliance Matrix: (Units=1/GPa)
#
#
# Indices 1 2 3 4 5 6 
#
# 1 0.011704 -0.004134 -0.001894 0.000000 0.000000 0.000000
# 2 -0.004134 0.009039 -0.001513 0.000000 0.000000 0.000000
# 3 -0.001894 -0.001513 0.007446 0.000000 0.000000 0.000000
# 4 0.000000 0.000000 0.000000 0.017577 0.000000 0.000000
# 5 0.000000 0.000000 0.000000 0.000000 0.196603 0.000000
# 6 0.000000 0.000000 0.000000 0.000000 0.000000 0.016000
#
#
# Mechanical properties :
#
#
# Convention : Reuss Voigt Hill
#
# Bulk Modulus (GPa) = 76.29163 77.41003 76.85083
# Shear Modulus (GPa) = 17.99728 42.75407 30.37567
#
# Velocity S-wave (km/s) = 2.74060 4.22407 3.56045
# Velocity P-wave (km/s) = 6.46944 7.48974 6.99821
#
# Compressibility (1/GPa) = 0.01310760
#
# Stress axis : x y z
#
# Youngs Moduli (GPa) = 85.44028 110.63679 134.29469
#
# Poissons Ratio (x) = 0.45732 0.25431
# Poissons Ratio (y) = 0.35317 0.20325
# Poissons Ratio (z) = 0.16179 0.16744
#
# Static dielectric constant tensor:
#      x y z
#    x 1.962420 0.000000 0.000000 
#    y 0.000000 1.991510 0.000000 
#    z 0.000000 0.000000 1.863420 
# 
# From -- ./inp_files/24997.got.cif
#   From: 2010.05.17/outbox.cif.g08.bks.cpg/sg68_13_cif.got.tgz:24997.got - 2010.06.03 18:57:09.
