data_PCOD9510502
_publ_section_title
;
Structure prediction by ZEFSAII (Michael W. Deem and Ramdas Pophale) SiO2 
 PCOD9510502
Probable space group: C C C A
;
_chemical_formula_sum "Si O2"
_cell_formula_units_Z 48
_cell_length_a 8.393898
_cell_length_b 24.185224
_cell_length_c 9.247829
_cell_angle_alpha 90.000000
_cell_angle_beta 90.000000
_cell_angle_gamma 90.000000
_cell_volume 1877.386075
_symmetry_space_group_name_H-M "C C C A"
_symmetry_group_IT_number 68
_space_group.IT_coordinate_system_code '2'
_symmetry_cell_setting 'orthorhombic'
loop_
_space_group_symop_operation_xyz
x,y,z
-x,1/2-y,z
x,1/2-y,1/2-z
-x,y,1/2-z
-x,-y,-z
x,1/2+y,-z
-x,1/2+y,1/2+z
x,-y,1/2+z
1/2+x,1/2+y,z
1/2-x,-y,z
1/2+x,-y,1/2-z
1/2-x,1/2+y,1/2-z
1/2-x,1/2-y,-z
1/2+x,y,-z
1/2-x,y,1/2+z
1/2+x,1/2-y,1/2+z
loop_
_atom_site_type_symbol
_atom_site_label
_atom_site_fract_x
_atom_site_fract_y
_atom_site_fract_z
Si Si1 0.370605 0.707020 0.069714
Si Si2 0.900620 0.130295 0.617329
Si Si3 0.101997 0.037158 0.109857
O O1 0.500000 0.750000 0.124044
O O2 0.256793 0.665594 0.161007
O O3 0.250000 0.750000 0.000000
O O4 0.468592 0.670149 0.955890
O O5 0.847881 0.088180 0.491872
O O6 0.000000 0.104061 0.750000
O O7 0.000000 0.054059 0.250000
O O8 0.250000 0.000000 0.159710
O O9 0.000000 0.000000 0.000000
#
# Coordination Sequence:
#
# PCOD9510502 Si02
#       3
#    16  16  16
#     4   9  21  42  68 105 146 186 231 290 356 421
#     4  11  24  45  73 107 145 187 241 300 360 432
#     4  12  27  48  74 107 147 191 243 304 369 438
#
# _framework density 25.567464999999999
#
# number of rings (size 3 to 8) (size 9 to 14) (size 15 to 20)
#    0.000    1.333    0.000    4.000    0.000   14.000 
#    0.000   15.000    0.000    2.000    0.000    2.333 
#    0.000    0.000    0.000    0.000    0.000    0.000 
#
# Total GULP energy -134217.267785 kJ/mol
# GULP energy per Si atom -5592.386158 kJ/mol
# Density = 2.550927 g / cm^3
# Si number density = 25.567465 Si / 1000 Ang^3
#
#
#
# Elastic Constant Matrix: (Units=GPa)
#
#
# Indices 1 2 3 4 5 6 
#
# 1 165.7171 53.0455 43.4166 0.0000 0.0000 0.0000
# 2 53.0455 114.0062 40.3143 0.0000 0.0000 0.0000
# 3 43.4166 40.3143 118.6500 0.0000 0.0000 0.0000
# 4 0.0000 0.0000 0.0000 177.4285 0.0000 0.0000
# 5 0.0000 0.0000 0.0000 0.0000 24.5497 0.0000
# 6 0.0000 0.0000 0.0000 0.0000 0.0000 59.1143
#
#
#
# Elastic Compliance Matrix: (Units=1/GPa)
#
#
# Indices 1 2 3 4 5 6 
#
# 1 0.007396 -0.002823 -0.001747 0.000000 0.000000 0.000000
# 2 -0.002823 0.011047 -0.002720 0.000000 0.000000 0.000000
# 3 -0.001747 -0.002720 0.009992 0.000000 0.000000 0.000000
# 4 0.000000 0.000000 0.000000 0.005636 0.000000 0.000000
# 5 0.000000 0.000000 0.000000 0.000000 0.040734 0.000000
# 6 0.000000 0.000000 0.000000 0.000000 0.000000 0.016916
#
#
# Mechanical properties :
#
#
# Convention : Reuss Voigt Hill
#
# Bulk Modulus (GPa) = 72.18586 74.65846 73.42216
# Shear Modulus (GPa) = 45.07748 69.65830 57.36789
#
# Velocity S-wave (km/s) = 4.20346 5.22533 4.74200
# Velocity P-wave (km/s) = 7.20094 8.10366 7.66560
#
# Compressibility (1/GPa) = 0.01385313
#
# Stress axis : x y z
#
# Youngs Moduli (GPa) = 135.21109 90.52127 100.08284
#
# Poissons Ratio (x) = 0.25558 0.17484
# Poissons Ratio (y) = 0.38176 0.27226
# Poissons Ratio (z) = 0.23621 0.24625
#
# Static dielectric constant tensor:
#      x y z
#    x 1.976020 0.000000 0.000000 
#    y 0.000000 2.011430 0.000000 
#    z 0.000000 0.000000 1.915540 
# 
# From -- ./inp_files/3284.got.cif
#   From: 2010.05.17/outbox.cif.g08.bks.cpg/sg68_2_cif.got.tgz:3284.got - 2010.06.03 18:57:09.
