data_PCOD9510705
_publ_section_title
;
Structure prediction by ZEFSAII (Michael W. Deem and Ramdas Pophale) SiO2 
 PCOD9510705
Probable space group: C C C A
;
_chemical_formula_sum "Si O2"
_cell_formula_units_Z 56
_cell_length_a 14.263210
_cell_length_b 5.556900
_cell_length_c 32.105050
_cell_angle_alpha 90.000000
_cell_angle_beta 90.000000
_cell_angle_gamma 90.000000
_cell_volume 2544.621595
_symmetry_space_group_name_H-M "C C C A"
_symmetry_group_IT_number 68
_space_group.IT_coordinate_system_code '2'
_symmetry_cell_setting 'orthorhombic'
loop_
_space_group_symop_operation_xyz
x,y,z
-x,1/2-y,z
x,1/2-y,1/2-z
-x,y,1/2-z
-x,-y,-z
x,1/2+y,-z
-x,1/2+y,1/2+z
x,-y,1/2+z
1/2+x,1/2+y,z
1/2-x,-y,z
1/2+x,-y,1/2-z
1/2-x,1/2+y,1/2-z
1/2-x,1/2-y,-z
1/2+x,y,-z
1/2-x,y,1/2+z
1/2+x,1/2-y,1/2+z
loop_
_atom_site_type_symbol
_atom_site_label
_atom_site_fract_x
_atom_site_fract_y
_atom_site_fract_z
Si Si1 0.692765 0.250000 0.750000
Si Si2 0.750000 0.000000 0.025223
Si Si3 0.750000 0.000000 0.884219
Si Si4 0.606036 0.156778 0.662465
Si Si5 0.603028 0.330473 0.414858
O O1 0.750000 0.500000 0.738863
O O2 0.630812 0.156658 0.711111
O O3 0.656947 0.989977 0.054611
O O4 0.750000 0.250000 0.000000
O O5 0.809165 0.815043 0.856358
O O6 0.671467 0.892804 0.913661
O O7 0.500000 0.250000 0.657232
O O8 0.605320 0.922261 0.633124
O O9 0.500000 0.250000 0.427012
#
# Coordination Sequence:
#
# PCOD9510705 Si02
#       5
#     8   8   8  16  16
#     4  12  27  46  71 110 160 202 249 322 373 436
#     4  12  29  50  77 114 156 196 248 325 394 457
#     4  12  21  46  71 106 146 192 256 309 360 453
#     4  12  25  44  75 110 148 202 258 310 376 448
#     4  12  26  46  80 109 148 202 256 308 381 465
#
# _framework density 22.007200999999998
#
# number of rings (size 3 to 8) (size 9 to 14) (size 15 to 20)
#    0.000    0.000    7.143    3.000    0.000    1.143 
#    0.000    1.429    0.000    0.000    0.000    0.000 
#    0.000    0.000    0.000    0.000    0.000    0.000 
#
# Total GULP energy -156237.211086 kJ/mol
# GULP energy per Si atom -5579.900396 kJ/mol
# Density = 2.195711 g / cm^3
# Si number density = 22.007201 Si / 1000 Ang^3
#
#
#
# Elastic Constant Matrix: (Units=GPa)
#
#
# Indices 1 2 3 4 5 6 
#
# 1 205.6016 45.1234 40.5238 0.0000 0.0000 0.0000
# 2 45.1234 82.9622 36.3820 0.0000 0.0000 0.0000
# 3 40.5238 36.3820 113.8081 0.0000 0.0000 0.0000
# 4 0.0000 0.0000 0.0000 14.7258 0.0000 0.0000
# 5 0.0000 0.0000 0.0000 0.0000 2.9305 0.0000
# 6 0.0000 0.0000 0.0000 0.0000 0.0000 42.5254
#
#
#
# Elastic Compliance Matrix: (Units=1/GPa)
#
#
# Indices 1 2 3 4 5 6 
#
# 1 0.005660 -0.002553 -0.001199 0.000000 0.000000 0.000000
# 2 -0.002553 0.015170 -0.003941 0.000000 0.000000 0.000000
# 3 -0.001199 -0.003941 0.010474 0.000000 0.000000 0.000000
# 4 0.000000 0.000000 0.000000 0.067908 0.000000 0.000000
# 5 0.000000 0.000000 0.000000 0.000000 0.341238 0.000000
# 6 0.000000 0.000000 0.000000 0.000000 0.000000 0.023515
#
#
# Mechanical properties :
#
#
# Convention : Reuss Voigt Hill
#
# Bulk Modulus (GPa) = 62.81977 71.82559 67.32268
# Shear Modulus (GPa) = 10.31656 30.72585 20.52120
#
# Velocity S-wave (km/s) = 2.16748 3.74059 3.05696
# Velocity P-wave (km/s) = 5.90517 7.16688 6.56640
#
# Compressibility (1/GPa) = 0.01591856
#
# Stress axis : x y z
#
# Youngs Moduli (GPa) = 176.66486 65.91860 95.47863
#
# Poissons Ratio (x) = 0.16827 0.11452
# Poissons Ratio (y) = 0.45098 0.37625
# Poissons Ratio (z) = 0.21190 0.25976
#
# Static dielectric constant tensor:
#      x y z
#    x 1.333900 0.000000 0.000000 
#    y 0.000000 -0.747010 0.000000 
#    z 0.000000 0.000000 1.902560 
# 
# From -- ./inp_files/52816.got.cif
#   From: 2010.05.17/outbox.cif.g08.bks.cpg/sg68_27_cif.got.tgz:52816.got - 2010.06.03 18:57:09.
