data_PCOD9510217
_publ_section_title
;
Structure prediction by ZEFSAII (Michael W. Deem and Ramdas Pophale) SiO2 
 PCOD9510217
Probable space group: C C C A
;
_chemical_formula_sum "Si O2"
_cell_formula_units_Z 56
_cell_length_a 13.292126
_cell_length_b 11.815357
_cell_length_c 14.584092
_cell_angle_alpha 90.000000
_cell_angle_beta 90.000000
_cell_angle_gamma 90.000000
_cell_volume 2290.449353
_symmetry_space_group_name_H-M "C C C A"
_symmetry_group_IT_number 68
_space_group.IT_coordinate_system_code '2'
_symmetry_cell_setting 'orthorhombic'
loop_
_space_group_symop_operation_xyz
x,y,z
-x,1/2-y,z
x,1/2-y,1/2-z
-x,y,1/2-z
-x,-y,-z
x,1/2+y,-z
-x,1/2+y,1/2+z
x,-y,1/2+z
1/2+x,1/2+y,z
1/2-x,-y,z
1/2+x,-y,1/2-z
1/2-x,1/2+y,1/2-z
1/2-x,1/2-y,-z
1/2+x,y,-z
1/2-x,y,1/2+z
1/2+x,1/2-y,1/2+z
loop_
_atom_site_type_symbol
_atom_site_label
_atom_site_fract_x
_atom_site_fract_y
_atom_site_fract_z
Si Si1 0.934617 0.650227 0.588259
Si Si2 0.732672 0.740469 0.854817
Si Si3 0.750000 0.500000 0.439016
Si Si4 0.076825 0.089396 0.575623
O O1 0.821627 0.698716 0.586584
O O2 0.943989 0.525650 0.632126
O O3 0.000000 0.750000 0.632469
O O4 0.985632 0.630475 0.488114
O O5 0.765227 0.750000 0.750000
O O6 0.721667 0.609568 0.879991
O O7 0.631103 0.811931 0.869226
O O8 0.840116 0.456794 0.503131
#
# Coordination Sequence:
#
# PCOD9510217 Si02
#       4
#    16  16   8  16
#     4  11  22  42  74 104 140 191 250 304 363 456
#     4  12  27  45  71 112 155 190 245 324 388 431
#     4  12  22  42  74 100 138 210 246 294 376 452
#     4  11  23  44  74 104 144 193 257 305 364 467
#
# _framework density 24.449349999999999
#
# number of rings (size 3 to 8) (size 9 to 14) (size 15 to 20)
#    0.000    0.571    5.714    2.571    4.000    0.571 
#    0.000    0.000    0.000   11.143    0.000    0.000 
#    0.000    0.000    0.000    0.000    0.000    0.000 
#
# Total GULP energy -156680.345546 kJ/mol
# GULP energy per Si atom -5595.726627 kJ/mol
# Density = 2.439370 g / cm^3
# Si number density = 24.449350 Si / 1000 Ang^3
#
#
#
# Elastic Constant Matrix: (Units=GPa)
#
#
# Indices 1 2 3 4 5 6 
#
# 1 104.7921 30.6376 26.9650 0.0000 0.0000 0.0000
# 2 30.6376 237.7037 45.7916 0.0000 0.0000 0.0000
# 3 26.9650 45.7916 53.0003 0.0000 0.0000 0.0000
# 4 0.0000 0.0000 0.0000 14.8987 0.0000 0.0000
# 5 0.0000 0.0000 0.0000 0.0000 12.7599 0.0000
# 6 0.0000 0.0000 0.0000 0.0000 0.0000 56.9436
#
#
#
# Elastic Compliance Matrix: (Units=1/GPa)
#
#
# Indices 1 2 3 4 5 6 
#
# 1 0.011013 -0.000408 -0.005251 0.000000 0.000000 0.000000
# 2 -0.000408 0.005062 -0.004166 0.000000 0.000000 0.000000
# 3 -0.005251 -0.004166 0.025139 0.000000 0.000000 0.000000
# 4 0.000000 0.000000 0.000000 0.067120 0.000000 0.000000
# 5 0.000000 0.000000 0.000000 0.000000 0.078370 0.000000
# 6 0.000000 0.000000 0.000000 0.000000 0.000000 0.017561
#
#
# Mechanical properties :
#
#
# Convention : Reuss Voigt Hill
#
# Bulk Modulus (GPa) = 46.37259 66.92049 56.64654
# Shear Modulus (GPa) = 21.63541 36.39391 29.01466
#
# Velocity S-wave (km/s) = 2.97797 3.86235 3.44863
# Velocity P-wave (km/s) = 5.55269 6.87901 6.25113
#
# Compressibility (1/GPa) = 0.02156446
#
# Stress axis : x y z
#
# Youngs Moduli (GPa) = 90.80128 197.54875 39.77961
#
# Poissons Ratio (x) = 0.08060 0.20887
# Poissons Ratio (y) = 0.03705 0.16572
# Poissons Ratio (z) = 0.47676 0.82298
#
# Static dielectric constant tensor:
#      x y z
#    x 1.990910 0.000000 0.000000 
#    y 0.000000 2.069500 0.000000 
#    z 0.000000 0.000000 1.859370 
# 
# From -- ./inp_files/21603.got.cif
#   From: 2010.05.17/outbox.cif.g08.bks.cpg/sg68_11_cif.got.tgz:21603.got - 2010.06.03 18:57:09.
