data_PCOD9510446
_publ_section_title
;
Structure prediction by ZEFSAII (Michael W. Deem and Ramdas Pophale) SiO2 
 PCOD9510446
Probable space group: C C C A
;
_chemical_formula_sum "Si O2"
_cell_formula_units_Z 36
_cell_length_a 4.623388
_cell_length_b 12.402793
_cell_length_c 22.035339
_cell_angle_alpha 90.000000
_cell_angle_beta 90.000000
_cell_angle_gamma 90.000000
_cell_volume 1263.570777
_symmetry_space_group_name_H-M "C C C A"
_symmetry_group_IT_number 68
_space_group.IT_coordinate_system_code '2'
_symmetry_cell_setting 'orthorhombic'
loop_
_space_group_symop_operation_xyz
x,y,z
-x,1/2-y,z
x,1/2-y,1/2-z
-x,y,1/2-z
-x,-y,-z
x,1/2+y,-z
-x,1/2+y,1/2+z
x,-y,1/2+z
1/2+x,1/2+y,z
1/2-x,-y,z
1/2+x,-y,1/2-z
1/2-x,1/2+y,1/2-z
1/2-x,1/2-y,-z
1/2+x,y,-z
1/2-x,y,1/2+z
1/2+x,1/2-y,1/2+z
loop_
_atom_site_type_symbol
_atom_site_label
_atom_site_fract_x
_atom_site_fract_y
_atom_site_fract_z
Si Si1 0.500176 0.419191 0.343982
Si Si2 0.000000 0.250000 0.750000
Si Si3 0.698555 0.128919 0.961085
O O1 0.250000 0.500000 0.318286
O O2 0.640470 0.336343 0.296145
O O3 0.332926 0.350159 0.395657
O O4 0.750000 0.500000 0.367395
O O5 0.750000 0.000000 0.960763
O O6 0.371657 0.158174 0.976977
#
# Coordination Sequence:
#
# PCOD9510446 Si02
#       3
#    16   4  16
#     4  11  24  43  67  94 127 167 211 261 314 372
#     4  12  28  46  64  92 128 174 220 260 304 368
#     4   9  16  32  61  92 121 156 198 251 317 375
#
# _framework density 28.490691000000002
#
# number of rings (size 3 to 8) (size 9 to 14) (size 15 to 20)
#    0.000    1.778    0.000    8.000    0.000    3.556 
#    0.000    2.222    0.000    0.000    0.000    6.222 
#    0.000    0.000    0.000    0.000    0.000    0.000 
#
# Total GULP energy -100424.305914 kJ/mol
# GULP energy per Si atom -5579.128106 kJ/mol
# Density = 2.842585 g / cm^3
# Si number density = 28.490691 Si / 1000 Ang^3
#
#
#
# Elastic Constant Matrix: (Units=GPa)
#
#
# Indices 1 2 3 4 5 6 
#
# 1 111.8352 10.3824 31.6651 0.0000 0.0000 0.0000
# 2 10.3824 101.9681 45.6496 0.0000 0.0000 0.0000
# 3 31.6651 45.6496 156.5331 0.0000 0.0000 0.0000
# 4 0.0000 0.0000 0.0000 446.3392 0.0000 0.0000
# 5 0.0000 0.0000 0.0000 0.0000 19.0410 0.0000
# 6 0.0000 0.0000 0.0000 0.0000 0.0000 51.2274
#
#
#
# Elastic Compliance Matrix: (Units=1/GPa)
#
#
# Indices 1 2 3 4 5 6 
#
# 1 0.009486 -0.000123 -0.001883 0.000000 0.000000 0.000000
# 2 -0.000123 0.011281 -0.003265 0.000000 0.000000 0.000000
# 3 -0.001883 -0.003265 0.007722 0.000000 0.000000 0.000000
# 4 0.000000 0.000000 0.000000 0.002240 0.000000 0.000000
# 5 0.000000 0.000000 0.000000 0.000000 0.052518 0.000000
# 6 0.000000 0.000000 0.000000 0.000000 0.000000 0.019521
#
#
# Mechanical properties :
#
#
# Convention : Reuss Voigt Hill
#
# Bulk Modulus (GPa) = 55.71978 60.63673 58.17825
# Shear Modulus (GPa) = 41.91354 122.16413 82.03883
#
# Velocity S-wave (km/s) = 3.83969 6.55528 5.37192
# Velocity P-wave (km/s) = 6.26557 8.86706 7.67731
#
# Compressibility (1/GPa) = 0.01794695
#
# Stress axis : x y z
#
# Youngs Moduli (GPa) = 105.41479 88.64289 129.50738
#
# Poissons Ratio (x) = 0.01089 0.24388
# Poissons Ratio (y) = 0.01295 0.42285
# Poissons Ratio (z) = 0.19851 0.28943
#
# Static dielectric constant tensor:
#      x y z
#    x 2.207400 0.000000 0.000000 
#    y 0.000000 2.444000 0.000000 
#    z 0.000000 0.000000 2.305870 
# 
# From -- ./inp_files/34594.got.cif
#   From: 2010.05.17/outbox.cif.g08.bks.cpg/sg68_18_cif.got.tgz:34594.got - 2010.06.03 18:57:09.
