data_PCOD9510938
_publ_section_title
;
Structure prediction by ZEFSAII (Michael W. Deem and Ramdas Pophale) SiO2 
 PCOD9510938
Probable space group: C C C A
;
_chemical_formula_sum "Si O2"
_cell_formula_units_Z 60
_cell_length_a 24.000000
_cell_length_b 12.000000
_cell_length_c 21.000000
_cell_angle_alpha 90.000000
_cell_angle_beta 90.000000
_cell_angle_gamma 90.000000
_cell_volume 6048.000000
_symmetry_space_group_name_H-M "C C C A"
_symmetry_group_IT_number 68
_space_group.IT_coordinate_system_code '2'
_symmetry_cell_setting 'orthorhombic'
loop_
_space_group_symop_operation_xyz
x,y,z
-x,1/2-y,z
x,1/2-y,1/2-z
-x,y,1/2-z
-x,-y,-z
x,1/2+y,-z
-x,1/2+y,1/2+z
x,-y,1/2+z
1/2+x,1/2+y,z
1/2-x,-y,z
1/2+x,-y,1/2-z
1/2-x,1/2+y,1/2-z
1/2-x,1/2-y,-z
1/2+x,y,-z
1/2-x,y,1/2+z
1/2+x,1/2-y,1/2+z
loop_
_atom_site_type_symbol
_atom_site_label
_atom_site_fract_x
_atom_site_fract_y
_atom_site_fract_z
Si Si1 0.452721 0.054054 0.297166
Si Si2 0.207264 0.220249 0.555333
Si Si3 0.100717 0.642670 0.084621
Si Si4 0.473954 0.926278 0.099413
Si Si5 0.601488 0.361997 0.710379
Si Si6 0.207509 0.601910 0.870933
Si Si7 0.129148 0.008900 0.528265
Si Si8 0.500000 0.250000 0.494486
O O1 0.500000 0.103806 0.250000
O O2 0.414363 0.131938 0.340879
O O3 0.484099 0.989263 0.354487
O O4 0.419830 0.965780 0.252975
O O5 0.250000 0.250000 0.500000
O O6 0.161416 0.306548 0.576586
O O7 0.249041 0.198144 0.613792
O O8 0.168505 0.116499 0.531981
O O9 0.053177 0.717652 0.049238
O O10 0.108657 0.531305 0.041004
O O11 0.437873 0.850903 0.148071
O O12 0.427947 0.010369 0.069485
O O13 0.502215 0.854894 0.043451
O O14 0.597266 0.250000 0.750000
O O15 0.663805 0.381951 0.685186
O O16 0.250000 0.500000 0.861117
O O17 0.168825 0.579807 0.933859
#
# Coordination Sequence:
#
# PCOD9510938 Si02
#       8
#    16  16  16  16  16  16  16   8
#     4  10  23  41  61  88 130 172 210 258 322 381
#     4  11  22  38  64  94 127 165 210 264 339 397
#     4  11  24  38  62  99 131 168 206 269 327 397
#     4   9  19  37  62  90 125 161 197 266 328 384
#     4  10  20  38  64  89 116 163 220 263 305 370
#     4   9  19  40  60  80 120 164 202 258 317 376
#     4   9  20  37  63  92 124 159 203 262 333 386
#     4  10  22  36  62 102 128 154 210 256 344 400
#
# _framework density 9.9206350000000008
#
# number of rings (size 3 to 8) (size 9 to 14) (size 15 to 20)
#    0.000    2.133    1.333    0.800    3.733    4.000 
#    2.400    0.333    0.000    0.000    0.000    0.000 
#    0.000    0.000    0.000    0.000    0.000    0.000 
#
# Total GULP energy -334392.538134 kJ/mol
# GULP energy per Si atom -5573.208969 kJ/mol
# Density = 0.989806 g / cm^3
# Si number density = 9.920635 Si / 1000 Ang^3
#
#
#
# Elastic Constant Matrix: (Units=GPa)
#
#
# Indices 1 2 3 4 5 6 
#
# 1 120.6900 37.7338 52.2633 0.0000 0.0000 0.0000
# 2 37.7338 37.4861 37.3796 0.0000 0.0000 0.0000
# 3 52.2633 37.3796 113.5258 0.0000 0.0000 0.0000
# 4 0.0000 0.0000 0.0000 22.4192 0.0000 0.0000
# 5 0.0000 0.0000 0.0000 0.0000 41.9938 0.0000
# 6 0.0000 0.0000 0.0000 0.0000 0.0000 31.2228
#
#
#
# Elastic Compliance Matrix: (Units=1/GPa)
#
#
# Indices 1 2 3 4 5 6 
#
# 1 0.012516 -0.010203 -0.002402 0.000000 0.000000 0.000000
# 2 -0.010203 0.048034 -0.011119 0.000000 0.000000 0.000000
# 3 -0.002402 -0.011119 0.013576 0.000000 0.000000 0.000000
# 4 0.000000 0.000000 0.000000 0.044605 0.000000 0.000000
# 5 0.000000 0.000000 0.000000 0.000000 0.023813 0.000000
# 6 0.000000 0.000000 0.000000 0.000000 0.000000 0.032028
#
#
# Mechanical properties :
#
#
# Convention : Reuss Voigt Hill
#
# Bulk Modulus (GPa) = 37.48508 58.49505 47.99006
# Shear Modulus (GPa) = 21.65328 28.74885 25.20107
#
# Velocity S-wave (km/s) = 3.30711 3.81063 3.56776
# Velocity P-wave (km/s) = 5.78931 6.99333 6.41961
#
# Compressibility (1/GPa) = 0.02667728
#
# Stress axis : x y z
#
# Youngs Moduli (GPa) = 79.89735 20.81856 73.66205
#
# Poissons Ratio (x) = 0.21241 0.17697
# Poissons Ratio (y) = 0.81520 0.81902
# Poissons Ratio (z) = 0.19195 0.23147
#
# Static dielectric constant tensor:
#      x y z
#    x 1.709220 0.000000 0.000000 
#    y 0.000000 1.815500 0.000000 
#    z 0.000000 0.000000 1.703430 
# 
# From -- ./inp_files/40947.got.cif
#   From: 2010.05.17/outbox.ucp.g08.bks.cvg/sg68_21_cif.got.tgz:40947.got - 2010.06.11 16:49:25.
