data_PCOD9510375
_publ_section_title
;
Structure prediction by ZEFSAII (Michael W. Deem and Ramdas Pophale) SiO2 
 PCOD9510375
Probable space group: C C C A
;
_chemical_formula_sum "Si O2"
_cell_formula_units_Z 116
_cell_length_a 10.944963
_cell_length_b 26.666329
_cell_length_c 17.618058
_cell_angle_alpha 90.000000
_cell_angle_beta 90.000000
_cell_angle_gamma 90.000000
_cell_volume 5142.041367
_symmetry_space_group_name_H-M "C C C A"
_symmetry_group_IT_number 68
_space_group.IT_coordinate_system_code '2'
_symmetry_cell_setting 'orthorhombic'
loop_
_space_group_symop_operation_xyz
x,y,z
-x,1/2-y,z
x,1/2-y,1/2-z
-x,y,1/2-z
-x,-y,-z
x,1/2+y,-z
-x,1/2+y,1/2+z
x,-y,1/2+z
1/2+x,1/2+y,z
1/2-x,-y,z
1/2+x,-y,1/2-z
1/2-x,1/2+y,1/2-z
1/2-x,1/2-y,-z
1/2+x,y,-z
1/2-x,y,1/2+z
1/2+x,1/2-y,1/2+z
loop_
_atom_site_type_symbol
_atom_site_label
_atom_site_fract_x
_atom_site_fract_y
_atom_site_fract_z
Si Si1 0.122948 0.720081 0.977951
Si Si2 0.499688 0.680041 0.867729
Si Si3 0.062220 0.981976 0.323431
Si Si4 0.657253 0.875136 0.366525
Si Si5 0.206358 0.380494 0.707168
Si Si6 0.500000 0.250000 0.250000
Si Si7 0.897097 0.917676 0.602756
Si Si8 0.121508 0.079576 0.575272
O O1 0.155242 0.675023 0.919262
O O2 0.000000 0.750000 0.947920
O O3 0.250000 0.750000 0.000000
O O4 0.067448 0.699304 0.057284
O O5 0.601965 0.659179 0.810649
O O6 0.426507 0.719263 0.815137
O O7 0.418682 0.633690 0.892714
O O8 0.139826 0.934951 0.291647
O O9 0.000000 0.005630 0.250000
O O10 0.959531 0.960107 0.379815
O O11 0.127925 0.026801 0.366069
O O12 0.715451 0.870668 0.282477
O O13 0.520302 0.895232 0.363295
O O14 0.735138 0.919283 0.408064
O O15 0.289586 0.382509 0.632364
O O16 0.905159 0.920935 0.513001
#
# Coordination Sequence:
#
# PCOD9510375 Si02
#       8
#    16  16  16  16  16   4  16  16
#     4  12  27  47  74 106 148 196 248 316 385 459
#     4  11  24  44  73 102 139 182 247 309 365 449
#     4  11  23  46  72 104 141 187 251 298 357 446
#     4  12  25  46  73 103 148 190 245 304 386 450
#     4  11  25  45  72 102 143 191 236 303 371 449
#     4  12  24  40  76 112 126 178 260 308 370 428
#     4  12  26  43  70 104 146 191 235 304 377 452
#     4  11  24  46  70 104 140 192 242 303 375 444
#
# _framework density 22.559134
#
# number of rings (size 3 to 8) (size 9 to 14) (size 15 to 20)
#    0.000    0.552    3.448    4.552    7.724    0.552 
#    2.483    0.000    0.000    0.000    0.000    0.000 
#    0.000    0.000    0.000    0.000    0.000    0.000 
#
# Total GULP energy -323970.283082 kJ/mol
# GULP energy per Si atom -5585.694536 kJ/mol
# Density = 2.250779 g / cm^3
# Si number density = 22.559134 Si / 1000 Ang^3
#
#
#
# Elastic Constant Matrix: (Units=GPa)
#
#
# Indices 1 2 3 4 5 6 
#
# 1 88.9593 7.3733 5.9776 0.0000 0.0000 0.0000
# 2 7.3733 56.7443 25.2410 0.0000 0.0000 0.0000
# 3 5.9776 25.2410 152.1587 0.0000 0.0000 0.0000
# 4 0.0000 0.0000 0.0000 30.0092 0.0000 0.0000
# 5 0.0000 0.0000 0.0000 0.0000 24.8520 0.0000
# 6 0.0000 0.0000 0.0000 0.0000 0.0000 28.6144
#
#
#
# Elastic Compliance Matrix: (Units=1/GPa)
#
#
# Indices 1 2 3 4 5 6 
#
# 1 0.011370 -0.001381 -0.000218 0.000000 0.000000 0.000000
# 2 -0.001381 0.019195 -0.003130 0.000000 0.000000 0.000000
# 3 -0.000218 -0.003130 0.007100 0.000000 0.000000 0.000000
# 4 0.000000 0.000000 0.000000 0.033323 0.000000 0.000000
# 5 0.000000 0.000000 0.000000 0.000000 0.040238 0.000000
# 6 0.000000 0.000000 0.000000 0.000000 0.000000 0.034947
#
#
# Mechanical properties :
#
#
# Convention : Reuss Voigt Hill
#
# Bulk Modulus (GPa) = 35.45059 41.67178 38.56118
# Shear Modulus (GPa) = 30.29712 33.97984 32.13848
#
# Velocity S-wave (km/s) = 3.66868 3.88526 3.77853
# Velocity P-wave (km/s) = 5.80468 6.21606 6.01389
#
# Compressibility (1/GPa) = 0.02820828
#
# Stress axis : x y z
#
# Youngs Moduli (GPa) = 87.94962 52.09813 140.84835
#
# Poissons Ratio (x) = 0.07193 0.03066
# Poissons Ratio (y) = 0.12142 0.44084
# Poissons Ratio (z) = 0.01914 0.16306
#
# Static dielectric constant tensor:
#      x y z
#    x 1.863160 0.000000 0.000000 
#    y 0.000000 1.963640 0.000000 
#    z 0.000000 0.000000 1.806060 
# 
# From -- ./inp_files/30044.got.cif
#   From: 2010.05.17/outbox.cif.g08.bks.cpg/sg68_16_cif.got.tgz:30044.got - 2010.06.03 18:57:09.
