data_PCOD9510385
_publ_section_title
;
Structure prediction by ZEFSAII (Michael W. Deem and Ramdas Pophale) SiO2 
 PCOD9510385
Probable space group: C C C A
;
_chemical_formula_sum "Si O2"
_cell_formula_units_Z 52
_cell_length_a 16.146229
_cell_length_b 11.031361
_cell_length_c 14.190270
_cell_angle_alpha 90.000000
_cell_angle_beta 90.000000
_cell_angle_gamma 90.000000
_cell_volume 2527.498251
_symmetry_space_group_name_H-M "C C C A"
_symmetry_group_IT_number 68
_space_group.IT_coordinate_system_code '2'
_symmetry_cell_setting 'orthorhombic'
loop_
_space_group_symop_operation_xyz
x,y,z
-x,1/2-y,z
x,1/2-y,1/2-z
-x,y,1/2-z
-x,-y,-z
x,1/2+y,-z
-x,1/2+y,1/2+z
x,-y,1/2+z
1/2+x,1/2+y,z
1/2-x,-y,z
1/2+x,-y,1/2-z
1/2-x,1/2+y,1/2-z
1/2-x,1/2-y,-z
1/2+x,y,-z
1/2-x,y,1/2+z
1/2+x,1/2-y,1/2+z
loop_
_atom_site_type_symbol
_atom_site_label
_atom_site_fract_x
_atom_site_fract_y
_atom_site_fract_z
Si Si1 0.813201 0.250000 0.750000
Si Si2 0.922903 0.945245 0.884244
Si Si3 0.000000 0.750000 0.750000
Si Si4 0.750000 0.000000 0.302905
Si Si5 0.439062 0.142699 0.408104
O O1 0.753425 0.367618 0.744104
O O2 0.874704 0.202063 0.665709
O O3 0.944181 0.832051 0.818453
O O4 0.837447 0.006245 0.855209
O O5 0.907478 0.908481 0.992719
O O6 0.001293 0.035453 0.870312
O O7 0.500000 0.250000 0.435737
#
# Coordination Sequence:
#
# PCOD9510385 Si02
#       5
#     8  16   4   8  16
#     4  12  26  46  73  99 146 184 230 277 353 406
#     4  11  25  42  72  99 136 172 235 278 348 398
#     4  12  22  44  64 102 132 174 224 286 322 426
#     4  12  26  42  66 110 138 180 222 298 344 400
#     4  11  23  47  71  96 129 193 227 273 331 436
#
# _framework density 20.573703999999999
#
# number of rings (size 3 to 8) (size 9 to 14) (size 15 to 20)
#    0.000    0.615    4.615    3.231    0.000    2.462 
#    0.000    0.000    0.000    0.000    0.000    0.000 
#    0.000    0.000    0.000    0.000    0.000    0.000 
#
# Total GULP energy -144822.905724 kJ/mol
# GULP energy per Si atom -5570.111759 kJ/mol
# Density = 2.052688 g / cm^3
# Si number density = 20.573704 Si / 1000 Ang^3
#
#
#
# Elastic Constant Matrix: (Units=GPa)
#
#
# Indices 1 2 3 4 5 6 
#
# 1 59.0385 21.1166 28.2536 0.0000 0.0000 0.0000
# 2 21.1166 131.4661 18.4085 0.0000 0.0000 0.0000
# 3 28.2536 18.4085 55.9856 0.0000 0.0000 0.0000
# 4 0.0000 0.0000 0.0000 13.7810 0.0000 0.0000
# 5 0.0000 0.0000 0.0000 0.0000 -3.5798 0.0000
# 6 0.0000 0.0000 0.0000 0.0000 0.0000 29.4716
#
#
#
# Elastic Compliance Matrix: (Units=1/GPa)
#
#
# Indices 1 2 3 4 5 6 
#
# 1 0.022902 -0.002160 -0.010847 0.000000 0.000000 0.000000
# 2 -0.002160 0.008177 -0.001599 0.000000 0.000000 0.000000
# 3 -0.010847 -0.001599 0.023862 0.000000 0.000000 0.000000
# 4 0.000000 0.000000 0.000000 0.072564 0.000000 0.000000
# 5 0.000000 0.000000 0.000000 0.000000 -0.279346 0.000000
# 6 0.000000 0.000000 0.000000 0.000000 0.000000 0.033931
#
#
# Mechanical properties :
#
#
# Convention : Reuss Voigt Hill
#
# Bulk Modulus (GPa) = 38.86692 42.44972 40.65832
# Shear Modulus (GPa) = -62.40473 19.84867 -21.27803
#
# Velocity S-wave (km/s) = -5.51345 3.10943 -3.21944
# Velocity P-wave (km/s) = 4.64739 5.79389 2.44652
#
# Compressibility (1/GPa) = 0.02572882
#
# Stress axis : x y z
#
# Youngs Moduli (GPa) = 43.66478 122.28986 41.90809
#
# Poissons Ratio (x) = 0.26410 0.45460
# Poissons Ratio (y) = 0.09430 0.06701
# Poissons Ratio (z) = 0.47365 0.19553
#
# Static dielectric constant tensor:
#      x y z
#    x 1.735190 0.000000 0.000000 
#    y 0.000000 1.600530 0.000000 
#    z 0.000000 0.000000 1.770420 
# 
# From -- ./inp_files/20191.got.cif
#   From: 2010.05.17/outbox.cif.g08.bks.cpg/sg68_11_cif.got.tgz:20191.got - 2010.06.03 18:57:09.
