data_PCOD9510095
_publ_section_title
;
Structure prediction by ZEFSAII (Michael W. Deem and Ramdas Pophale) SiO2 
 PCOD9510095
Probable space group: C C C A
;
_chemical_formula_sum "Si O2"
_cell_formula_units_Z 96
_cell_length_a 15.025598
_cell_length_b 21.242809
_cell_length_c 13.829535
_cell_angle_alpha 90.000000
_cell_angle_beta 90.000000
_cell_angle_gamma 90.000000
_cell_volume 4414.192692
_symmetry_space_group_name_H-M "C C C A"
_symmetry_group_IT_number 68
_space_group.IT_coordinate_system_code '2'
_symmetry_cell_setting 'orthorhombic'
loop_
_space_group_symop_operation_xyz
x,y,z
-x,1/2-y,z
x,1/2-y,1/2-z
-x,y,1/2-z
-x,-y,-z
x,1/2+y,-z
-x,1/2+y,1/2+z
x,-y,1/2+z
1/2+x,1/2+y,z
1/2-x,-y,z
1/2+x,-y,1/2-z
1/2-x,1/2+y,1/2-z
1/2-x,1/2-y,-z
1/2+x,y,-z
1/2-x,y,1/2+z
1/2+x,1/2-y,1/2+z
loop_
_atom_site_type_symbol
_atom_site_label
_atom_site_fract_x
_atom_site_fract_y
_atom_site_fract_z
Si Si1 0.110512 0.625387 0.014543
Si Si2 0.166023 0.045490 0.654824
Si Si3 0.728926 0.194672 0.612392
Si Si4 0.085572 0.890331 0.978499
Si Si5 0.784711 0.662257 0.668947
Si Si6 0.640783 0.002495 0.139391
O O1 0.174246 0.668400 0.081792
O O2 0.114892 0.557534 0.065556
O O3 0.149346 0.627615 0.905610
O O4 0.007512 0.641913 0.001742
O O5 0.106724 0.059701 0.563080
O O6 0.202625 0.115014 0.677945
O O7 0.119910 0.019704 0.750261
O O8 0.250000 0.000000 0.632405
O O9 0.661201 0.162121 0.537478
O O10 0.730847 0.269823 0.620100
O O11 0.693551 0.174217 0.718807
O O12 0.094744 0.936879 0.887095
O O13 0.750000 0.000000 0.134578
#
# Coordination Sequence:
#
# PCOD9510095 Si02
#       6
#    16  16  16  16  16  16
#     4  12  24  42  69 102 135 181 235 284 358 417
#     4  11  22  41  71  99 137 188 229 285 353 412
#     4  11  24  46  68 100 141 179 241 285 349 421
#     4  12  25  41  70 102 143 180 230 293 346 422
#     4  11  23  44  74  95 135 191 226 293 351 413
#     4  11  21  43  68  98 140 182 233 287 343 425
#
# _framework density 21.748031000000001
#
# number of rings (size 3 to 8) (size 9 to 14) (size 15 to 20)
#    0.000    0.667    5.000    3.500    0.000    2.000 
#    0.000    5.000    0.000    2.000    0.000    0.000 
#    0.000    0.000    0.000    0.000    0.000    0.000 
#
# Total GULP energy -268072.395269 kJ/mol
# GULP energy per Si atom -5584.841568 kJ/mol
# Density = 2.169853 g / cm^3
# Si number density = 21.748031 Si / 1000 Ang^3
#
#
#
# Elastic Constant Matrix: (Units=GPa)
#
#
# Indices 1 2 3 4 5 6 
#
# 1 101.7403 40.8030 44.1674 0.0000 0.0000 0.0000
# 2 40.8030 99.7805 42.4450 0.0000 0.0000 0.0000
# 3 44.1674 42.4450 139.1743 0.0000 0.0000 0.0000
# 4 0.0000 0.0000 0.0000 40.3702 0.0000 0.0000
# 5 0.0000 0.0000 0.0000 0.0000 -16.1670 0.0000
# 6 0.0000 0.0000 0.0000 0.0000 0.0000 3.5168
#
#
#
# Elastic Compliance Matrix: (Units=1/GPa)
#
#
# Indices 1 2 3 4 5 6 
#
# 1 0.012639 -0.003978 -0.002798 0.000000 0.000000 0.000000
# 2 -0.003978 0.012768 -0.002631 0.000000 0.000000 0.000000
# 3 -0.002798 -0.002631 0.008876 0.000000 0.000000 0.000000
# 4 0.000000 0.000000 0.000000 0.024771 0.000000 0.000000
# 5 0.000000 0.000000 0.000000 0.000000 -0.061854 0.000000
# 6 0.000000 0.000000 0.000000 0.000000 0.000000 0.284349
#
#
# Mechanical properties :
#
#
# Convention : Reuss Voigt Hill
#
# Bulk Modulus (GPa) = 64.65043 66.16954 65.40998
# Shear Modulus (GPa) = 16.36561 19.76267 18.06414
#
# Velocity S-wave (km/s) = 2.74617 3.01775 2.88516
# Velocity P-wave (km/s) = 6.31243 6.52947 6.42187
#
# Compressibility (1/GPa) = 0.01546780
#
# Stress axis : x y z
#
# Youngs Moduli (GPa) = 79.12023 78.31941 112.66793
#
# Poissons Ratio (x) = 0.31158 0.31521
# Poissons Ratio (y) = 0.31477 0.29648
# Poissons Ratio (z) = 0.22136 0.20610
#
# Static dielectric constant tensor:
#      x y z
#    x 1.819040 0.000000 0.000000 
#    y 0.000000 1.799220 0.000000 
#    z 0.000000 0.000000 1.878870 
# 
# From -- ./inp_files/22387.got.cif
#   From: 2010.05.17/outbox.cif.g08.bks.cpg/sg68_12_cif.got.tgz:22387.got - 2010.06.03 18:57:09.
