data_PCOD9511172
_publ_section_title
;
Structure prediction by ZEFSAII (Michael W. Deem and Ramdas Pophale) SiO2 
 PCOD9511172
Probable space group: F M M M
;
_chemical_formula_sum "Si O2"
_cell_formula_units_Z 208
_cell_length_a 29.109068
_cell_length_b 22.810900
_cell_length_c 13.738570
_cell_angle_alpha 90.000000
_cell_angle_beta 90.000000
_cell_angle_gamma 90.000000
_cell_volume 9122.465973
_symmetry_space_group_name_H-M "F M M M"
_symmetry_group_IT_number 69
_symmetry_cell_setting 'orthorhombic'
loop_
_space_group_symop_operation_xyz
x,y,z
-x,-y,z
x,-y,-z
-x,y,-z
-x,-y,-z
x,y,-z
-x,y,z
x,-y,z
x,1/2+y,1/2+z
-x,1/2-y,1/2+z
x,1/2-y,1/2-z
-x,1/2+y,1/2-z
-x,1/2-y,1/2-z
x,1/2+y,1/2-z
-x,1/2+y,1/2+z
x,1/2-y,1/2+z
1/2+x,y,1/2+z
1/2-x,-y,1/2+z
1/2+x,-y,1/2-z
1/2-x,y,1/2-z
1/2-x,-y,1/2-z
1/2+x,y,1/2-z
1/2-x,y,1/2+z
1/2+x,-y,1/2+z
1/2+x,1/2+y,z
1/2-x,1/2-y,z
1/2+x,1/2-y,-z
1/2-x,1/2+y,-z
1/2-x,1/2-y,-z
1/2+x,1/2+y,-z
1/2-x,1/2+y,z
1/2+x,1/2-y,z
loop_
_atom_site_type_symbol
_atom_site_label
_atom_site_fract_x
_atom_site_fract_y
_atom_site_fract_z
Si Si1 0.500000 0.566714 0.381683
Si Si2 0.635885 0.646728 0.108154
Si Si3 0.280297 0.931869 0.618358
Si Si4 0.319419 0.108735 0.890878
Si Si5 0.197662 0.256766 0.134203
Si Si6 0.946073 0.222970 0.881168
Si Si7 0.085643 0.354726 0.880639
O O1 0.500000 0.500000 0.346068
O O2 0.500000 0.564342 0.500000
O O3 0.456748 0.605139 0.352635
O O4 0.675652 0.605325 0.153201
O O5 0.663843 0.707426 0.097910
O O6 0.587470 0.669520 0.151283
O O7 0.625745 0.622340 0.000000
O O8 0.279151 0.923025 0.500000
O O9 0.228963 0.913242 0.652034
O O10 0.286983 0.000000 0.638869
O O11 0.315322 0.178805 0.896340
O O12 0.369889 0.108440 0.845198
O O13 0.322015 0.082406 0.000000
O O14 0.196118 0.250000 0.250000
O O15 0.250000 0.250000 0.104009
O O16 0.924460 0.286641 0.852978
O O17 0.000000 0.218949 0.852828
O O18 0.945257 0.221817 0.000000
O O19 0.088845 0.353317 0.000000
#
# Coordination Sequence:
#
# PCOD9511172 Si02
#       7
#    16  32  32  32  32  32  32
#     4   9  16  24  34  56  95 134 157 183 231 280
#     4  10  18  30  51  71  91 125 160 188 232 294
#     4   9  18  30  45  68  95 121 154 198 236 274
#     4  10  18  29  48  69  92 125 162 192 232 285
#     4  11  21  30  44  70 101 124 148 196 241 278
#     4   9  15  24  42  69  94 113 147 195 237 272
#     4   9  15  23  38  61  87 119 156 190 218 264
#
# _framework density 22.800853
#
# number of rings (size 3 to 8) (size 9 to 14) (size 15 to 20)
#    0.000    2.385    3.846    0.462    0.000    1.231 
#    0.000    3.077    0.000    2.769    0.000    3.231 
#    0.000    0.000    0.000    0.000    0.000    0.000 
#
# Total GULP energy -290146.177982 kJ/mol
# GULP energy per Si atom -5579.734192 kJ/mol
# Density = 2.274896 g / cm^3
# Si number density = 22.800853 Si / 1000 Ang^3
#
#
#
# Elastic Constant Matrix: (Units=GPa)
#
#
# Indices 1 2 3 4 5 6 
#
# 1 231.4374 75.7486 38.7686 0.0000 0.0000 0.0000
# 2 75.7486 112.4548 2.3406 0.0000 0.0000 0.0000
# 3 38.7686 2.3406 71.9365 0.0000 0.0000 0.0000
# 4 0.0000 0.0000 0.0000 -29.3233 0.0000 0.0000
# 5 0.0000 0.0000 0.0000 0.0000 40.0508 0.0000
# 6 0.0000 0.0000 0.0000 0.0000 0.0000 0.2357
#
#
#
# Elastic Compliance Matrix: (Units=1/GPa)
#
#
# Indices 1 2 3 4 5 6 
#
# 1 0.006205 -0.004113 -0.003210 0.000000 0.000000 0.000000
# 2 -0.004113 0.011624 0.001838 0.000000 0.000000 0.000000
# 3 -0.003210 0.001838 0.015571 0.000000 0.000000 0.000000
# 4 0.000000 0.000000 0.000000 -0.034103 0.000000 0.000000
# 5 0.000000 0.000000 0.000000 0.000000 0.024968 0.000000
# 6 0.000000 0.000000 0.000000 0.000000 0.000000 4.242495
#
#
# Mechanical properties :
#
#
# Convention : Reuss Voigt Hill
#
# Bulk Modulus (GPa) = 44.58031 72.17160 58.37595
# Shear Modulus (GPa) = 1.16680 22.12404 11.64542
#
# Velocity S-wave (km/s) = 0.71613 3.11837 2.26242
# Velocity P-wave (km/s) = 4.50314 6.68486 5.69937
#
# Compressibility (1/GPa) = 0.02243143
#
# Stress axis : x y z
#
# Youngs Moduli (GPa) = 161.17206 86.02620 64.22075
#
# Poissons Ratio (x) = 0.35378 0.20615
# Poissons Ratio (y) = 0.66282 -0.11805
# Poissons Ratio (z) = 0.51736 -0.15813
#
# Static dielectric constant tensor:
#      x y z
#    x 1.706360 0.000000 0.000000 
#    y 0.000000 1.738510 0.000000 
#    z 0.000000 0.000000 1.913560 
# 
# From -- ./inp_files/34082.got.cif
#   From: 2010.05.17/outbox.cif.g08.bks.cpg/sg69_18_cif.got.tgz:34082.got - 2010.06.03 19:29:58.
