data_PCOD9511394
_publ_section_title
;
Structure prediction by ZEFSAII (Michael W. Deem and Ramdas Pophale) SiO2 
 PCOD9511394
Probable space group: F M M M
;
_chemical_formula_sum "Si O2"
_cell_formula_units_Z 144
_cell_length_a 8.476399
_cell_length_b 28.491513
_cell_length_c 27.649387
_cell_angle_alpha 90.000000
_cell_angle_beta 90.000000
_cell_angle_gamma 90.000000
_cell_volume 6677.477160
_symmetry_space_group_name_H-M "F M M M"
_symmetry_group_IT_number 69
_symmetry_cell_setting 'orthorhombic'
loop_
_space_group_symop_operation_xyz
x,y,z
-x,-y,z
x,-y,-z
-x,y,-z
-x,-y,-z
x,y,-z
-x,y,z
x,-y,z
x,1/2+y,1/2+z
-x,1/2-y,1/2+z
x,1/2-y,1/2-z
-x,1/2+y,1/2-z
-x,1/2-y,1/2-z
x,1/2+y,1/2-z
-x,1/2+y,1/2+z
x,1/2-y,1/2+z
1/2+x,y,1/2+z
1/2-x,-y,1/2+z
1/2+x,-y,1/2-z
1/2-x,y,1/2-z
1/2-x,-y,1/2-z
1/2+x,y,1/2-z
1/2-x,y,1/2+z
1/2+x,-y,1/2+z
1/2+x,1/2+y,z
1/2-x,1/2-y,z
1/2+x,1/2-y,-z
1/2-x,1/2+y,-z
1/2-x,1/2-y,-z
1/2+x,1/2+y,-z
1/2-x,1/2+y,z
1/2+x,1/2-y,z
loop_
_atom_site_type_symbol
_atom_site_label
_atom_site_fract_x
_atom_site_fract_y
_atom_site_fract_z
Si Si1 0.190216 0.853866 0.300656
Si Si2 0.311367 0.052633 0.843774
Si Si3 0.812550 0.304079 0.500000
Si Si4 0.310737 0.303281 0.399121
Si Si5 0.683544 0.942830 0.447131
O O1 0.250000 0.834175 0.250000
O O2 0.247767 0.907498 0.307730
O O3 0.241131 0.827286 0.349272
O O4 0.000000 0.853384 0.300029
O O5 0.500000 0.050200 0.839096
O O6 0.274991 0.069374 0.898479
O O7 0.246514 0.000000 0.836666
O O8 0.750000 0.250000 0.500000
O O9 0.753517 0.325045 0.550775
O O10 0.000000 0.303472 0.500000
O O11 0.500000 0.303910 0.401524
O O12 0.250000 0.250000 0.397522
O O13 0.743846 0.927531 0.500000
O O14 0.500000 0.928661 0.443077
O O15 0.686093 0.000000 0.447979
#
# Coordination Sequence:
#
# PCOD9511394 Si02
#       5
#    32  32  16  32  32
#     4  10  23  40  57  80 111 147 187 235 283 329
#     4   9  18  34  54  76 104 140 184 229 275 328
#     4  10  18  32  58  90 119 148 183 223 272 329
#     4  10  20  37  60  86 117 150 184 224 276 332
#     4   8  14  26  45  70 101 135 171 215 267 320
#
# _framework density 21.56503
#
# number of rings (size 3 to 8) (size 9 to 14) (size 15 to 20)
#    0.000    2.667    0.000    3.667    0.000    4.000 
#    2.000    4.444    0.000    0.000    0.000    0.000 
#    0.000    0.000    0.000    0.000    0.000    0.000 
#
# Total GULP energy -200931.824058 kJ/mol
# GULP energy per Si atom -5581.439557 kJ/mol
# Density = 2.151595 g / cm^3
# Si number density = 21.565030 Si / 1000 Ang^3
#
#
#
# Elastic Constant Matrix: (Units=GPa)
#
#
# Indices 1 2 3 4 5 6 
#
# 1 33.6637 11.4134 28.2762 0.0000 0.0000 0.0000
# 2 11.4134 60.3129 54.3288 0.0000 0.0000 0.0000
# 3 28.2762 54.3288 186.9268 0.0000 0.0000 0.0000
# 4 0.0000 0.0000 0.0000 27.8745 0.0000 0.0000
# 5 0.0000 0.0000 0.0000 0.0000 27.8197 0.0000
# 6 0.0000 0.0000 0.0000 0.0000 0.0000 12.2692
#
#
#
# Elastic Compliance Matrix: (Units=1/GPa)
#
#
# Indices 1 2 3 4 5 6 
#
# 1 0.034297 -0.002461 -0.004473 0.000000 0.000000 0.000000
# 2 -0.002461 0.022637 -0.006207 0.000000 0.000000 0.000000
# 3 -0.004473 -0.006207 0.007830 0.000000 0.000000 0.000000
# 4 0.000000 0.000000 0.000000 0.035875 0.000000 0.000000
# 5 0.000000 0.000000 0.000000 0.000000 0.035946 0.000000
# 6 0.000000 0.000000 0.000000 0.000000 0.000000 0.081505
#
#
# Mechanical properties :
#
#
# Convention : Reuss Voigt Hill
#
# Bulk Modulus (GPa) = 25.98596 52.10447 39.04522
# Shear Modulus (GPa) = 19.44014 26.05168 22.74591
#
# Velocity S-wave (km/s) = 3.00570 3.47947 3.25123
# Velocity P-wave (km/s) = 4.91140 6.35266 5.67795
#
# Compressibility (1/GPa) = 0.03848232
#
# Stress axis : x y z
#
# Youngs Moduli (GPa) = 29.15712 44.17527 127.70945
#
# Poissons Ratio (x) = 0.10873 0.57121
# Poissons Ratio (y) = 0.07177 0.79269
# Poissons Ratio (z) = 0.13041 0.27419
#
# Static dielectric constant tensor:
#      x y z
#    x 1.673380 0.000000 0.000000 
#    y 0.000000 1.851910 0.000000 
#    z 0.000000 0.000000 1.795610 
# 
# From -- ./inp_files/44538.got.cif
#   From: 2010.05.17/outbox.cif.g08.bks.cpg/sg69_23_cif.got.tgz:44538.got - 2010.06.03 19:29:58.
