data_PCOD9511011
_publ_section_title
;
Structure prediction by ZEFSAII (Michael W. Deem and Ramdas Pophale) SiO2 
 PCOD9511011
Probable space group: F M M M
;
_chemical_formula_sum "Si O2"
_cell_formula_units_Z 176
_cell_length_a 28.975696
_cell_length_b 14.398456
_cell_length_c 23.186071
_cell_angle_alpha 90.000000
_cell_angle_beta 90.000000
_cell_angle_gamma 90.000000
_cell_volume 9673.351335
_symmetry_space_group_name_H-M "F M M M"
_symmetry_group_IT_number 69
_symmetry_cell_setting 'orthorhombic'
loop_
_space_group_symop_operation_xyz
x,y,z
-x,-y,z
x,-y,-z
-x,y,-z
-x,-y,-z
x,y,-z
-x,y,z
x,-y,z
x,1/2+y,1/2+z
-x,1/2-y,1/2+z
x,1/2-y,1/2-z
-x,1/2+y,1/2-z
-x,1/2-y,1/2-z
x,1/2+y,1/2-z
-x,1/2+y,1/2+z
x,1/2-y,1/2+z
1/2+x,y,1/2+z
1/2-x,-y,1/2+z
1/2+x,-y,1/2-z
1/2-x,y,1/2-z
1/2-x,-y,1/2-z
1/2+x,y,1/2-z
1/2-x,y,1/2+z
1/2+x,-y,1/2+z
1/2+x,1/2+y,z
1/2-x,1/2-y,z
1/2+x,1/2-y,-z
1/2-x,1/2+y,-z
1/2-x,1/2-y,-z
1/2+x,1/2+y,-z
1/2-x,1/2+y,z
1/2+x,1/2-y,z
loop_
_atom_site_type_symbol
_atom_site_label
_atom_site_fract_x
_atom_site_fract_y
_atom_site_fract_z
Si Si1 0.085426 0.642124 0.265144
Si Si2 0.944782 0.111423 0.000000
Si Si3 0.947116 0.602909 0.856180
Si Si4 0.311587 0.896584 0.759901
Si Si5 0.798950 0.729482 0.653087
Si Si6 0.902058 0.702326 0.613469
O O1 0.092397 0.750000 0.250000
O O2 0.053483 0.606450 0.213973
O O3 0.134801 0.596790 0.256732
O O4 0.075087 0.645036 0.332820
O O5 0.920912 0.157756 0.055520
O O6 0.000000 0.129295 0.000000
O O7 0.938081 0.000000 0.000000
O O8 0.929886 0.500000 0.873019
O O9 0.918176 0.690366 0.879013
O O10 0.000000 0.612914 0.875420
O O11 0.310152 0.823784 0.811990
O O12 0.289633 0.847699 0.703313
O O13 0.295288 0.000000 0.773588
O O14 0.750000 0.750000 0.622069
O O15 0.846046 0.701042 0.620442
#
# Coordination Sequence:
#
# PCOD9511011 Si02
#       6
#    32  16  32  32  32  32
#     4   9  16  30  50  80 115 150 178 218 273 330
#     4  11  26  46  66  83 101 137 191 246 297 349
#     4  10  19  31  53  85 116 145 177 219 279 348
#     4  10  16  28  49  77 118 157 183 215 263 322
#     4  10  20  33  49  80 116 149 189 224 267 329
#     4  10  21  39  57  80 110 150 185 237 282 330
#
# _framework density 18.194316000000001
#
# number of rings (size 3 to 8) (size 9 to 14) (size 15 to 20)
#    0.000    2.091    5.455    2.182    0.000    9.091 
#    0.000    2.727    0.000    1.636    0.000    0.000 
#    0.000    0.000    0.000    0.000    0.000    0.000 
#
# Total GULP energy -244975.797355 kJ/mol
# GULP energy per Si atom -5567.631758 kJ/mol
# Density = 1.815290 g / cm^3
# Si number density = 18.194316 Si / 1000 Ang^3
#
#
#
# Elastic Constant Matrix: (Units=GPa)
#
#
# Indices 1 2 3 4 5 6 
#
# 1 90.2067 23.7798 39.7498 0.0000 0.0000 0.0000
# 2 23.7798 111.0209 36.0423 0.0000 0.0000 0.0000
# 3 39.7498 36.0423 105.8766 0.0000 0.0000 0.0000
# 4 0.0000 0.0000 0.0000 -19.7263 0.0000 0.0000
# 5 0.0000 0.0000 0.0000 0.0000 19.3798 0.0000
# 6 0.0000 0.0000 0.0000 0.0000 0.0000 10.4150
#
#
#
# Elastic Compliance Matrix: (Units=1/GPa)
#
#
# Indices 1 2 3 4 5 6 
#
# 1 0.013474 -0.001398 -0.004582 0.000000 0.000000 0.000000
# 2 -0.001398 0.010272 -0.002972 0.000000 0.000000 0.000000
# 3 -0.004582 -0.002972 0.012177 0.000000 0.000000 0.000000
# 4 0.000000 0.000000 0.000000 -0.050694 0.000000 0.000000
# 5 0.000000 0.000000 0.000000 0.000000 0.051600 0.000000
# 6 0.000000 0.000000 0.000000 0.000000 0.000000 0.096015
#
#
# Mechanical properties :
#
#
# Convention : Reuss Voigt Hill
#
# Bulk Modulus (GPa) = 55.50216 56.24976 55.87596
# Shear Modulus (GPa) = 31.89714 15.84920 23.87317
#
# Velocity S-wave (km/s) = 4.19159 2.95465 3.62625
# Velocity P-wave (km/s) = 7.34829 6.52865 6.95056
#
# Compressibility (1/GPa) = 0.01801732
#
# Stress axis : x y z
#
# Youngs Moduli (GPa) = 74.21970 97.35634 82.12223
#
# Poissons Ratio (x) = 0.13613 0.37632
# Poissons Ratio (y) = 0.10378 0.24404
# Poissons Ratio (z) = 0.34011 0.28931
#
# Static dielectric constant tensor:
#      x y z
#    x 1.697960 0.000000 0.000000 
#    y 0.000000 1.646480 0.000000 
#    z 0.000000 0.000000 1.617240 
# 
# From -- ./inp_files/38956.got.cif
#   From: 2010.05.17/outbox.cif.g08.bks.cpg/sg69_20_cif.got.tgz:38956.got - 2010.06.03 19:29:58.
