data_PCOD9511835
_publ_section_title
;
Structure prediction by ZEFSAII (Michael W. Deem and Ramdas Pophale) SiO2 
 PCOD9511835
Probable space group: F M M M
;
_chemical_formula_sum "Si O2"
_cell_formula_units_Z 184
_cell_length_a 19.538367
_cell_length_b 15.777833
_cell_length_c 29.069781
_cell_angle_alpha 90.000000
_cell_angle_beta 90.000000
_cell_angle_gamma 90.000000
_cell_volume 8961.431262
_symmetry_space_group_name_H-M "F M M M"
_symmetry_group_IT_number 69
_symmetry_cell_setting 'orthorhombic'
loop_
_space_group_symop_operation_xyz
x,y,z
-x,-y,z
x,-y,-z
-x,y,-z
-x,-y,-z
x,y,-z
-x,y,z
x,-y,z
x,1/2+y,1/2+z
-x,1/2-y,1/2+z
x,1/2-y,1/2-z
-x,1/2+y,1/2-z
-x,1/2-y,1/2-z
x,1/2+y,1/2-z
-x,1/2+y,1/2+z
x,1/2-y,1/2+z
1/2+x,y,1/2+z
1/2-x,-y,1/2+z
1/2+x,-y,1/2-z
1/2-x,y,1/2-z
1/2-x,-y,1/2-z
1/2+x,y,1/2-z
1/2-x,y,1/2+z
1/2+x,-y,1/2+z
1/2+x,1/2+y,z
1/2-x,1/2-y,z
1/2+x,1/2-y,-z
1/2-x,1/2+y,-z
1/2-x,1/2-y,-z
1/2+x,1/2+y,-z
1/2-x,1/2+y,z
1/2+x,1/2-y,z
loop_
_atom_site_type_symbol
_atom_site_label
_atom_site_fract_x
_atom_site_fract_y
_atom_site_fract_z
Si Si1 0.137607 0.396937 0.500000
Si Si2 0.000000 0.713811 0.095030
Si Si3 0.500000 0.723536 0.000000
Si Si4 0.241020 0.406288 0.415964
Si Si5 0.830772 0.154852 0.260196
Si Si6 0.500000 0.910859 0.615410
Si Si7 0.143565 0.818138 0.361410
Si Si8 0.640799 0.620024 0.836260
O O1 0.123073 0.500000 0.500000
O O2 0.068667 0.338464 0.500000
O O3 0.185691 0.379111 0.455052
O O4 0.000000 0.708078 0.041137
O O5 0.066958 0.678111 0.119558
O O6 0.000000 0.817528 0.094644
O O7 0.266434 0.500000 0.430101
O O8 0.303333 0.345593 0.401104
O O9 0.199343 0.415627 0.368600
O O10 0.858637 0.250000 0.250000
O O11 0.750000 0.157601 0.250000
O O12 0.845101 0.132367 0.313072
O O13 0.857777 0.100961 0.217614
O O14 0.568462 0.908651 0.644757
O O15 0.500000 0.000000 0.587710
O O16 0.152675 0.720463 0.346051
#
# Coordination Sequence:
#
# PCOD9511835 Si02
#       8
#    16  16   8  32  32  16  32  32
#     4  10  23  39  60  86 119 158 190 225 292 368
#     4  10  24  39  60  86 114 158 197 242 298 349
#     4  12  23  40  58  92 121 144 192 242 298 340
#     4  11  22  37  57  84 114 152 196 240 287 341
#     4   9  16  30  55  84 110 149 193 231 283 351
#     4  10  20  35  52  79 116 149 183 232 289 354
#     4  10  20  38  59  82 117 151 196 244 288 345
#     4  10  19  33  56  83 112 149 189 232 288 348
#
# _framework density 20.532435
#
# number of rings (size 3 to 8) (size 9 to 14) (size 15 to 20)
#    0.000    1.913    1.739    3.261    0.000    3.478 
#    0.000    9.130    0.000    0.000    0.000    2.435 
#    0.000    0.000    0.000    0.000    0.000    0.000 
#
# Total GULP energy -256143.590708 kJ/mol
# GULP energy per Si atom -5568.338928 kJ/mol
# Density = 2.048570 g / cm^3
# Si number density = 20.532435 Si / 1000 Ang^3
#
#
#
# Elastic Constant Matrix: (Units=GPa)
#
#
# Indices 1 2 3 4 5 6 
#
# 1 124.5531 34.9410 58.0470 0.0000 0.0000 0.0000
# 2 34.9410 45.8435 19.2197 0.0000 0.0000 0.0000
# 3 58.0470 19.2197 140.7686 0.0000 0.0000 0.0000
# 4 0.0000 0.0000 0.0000 29.9360 0.0000 0.0000
# 5 0.0000 0.0000 0.0000 0.0000 -139.2899 0.0000
# 6 0.0000 0.0000 0.0000 0.0000 0.0000 97.7680
#
#
#
# Elastic Compliance Matrix: (Units=1/GPa)
#
#
# Indices 1 2 3 4 5 6 
#
# 1 0.011943 -0.007465 -0.003906 0.000000 0.000000 0.000000
# 2 -0.007465 0.027804 -0.000718 0.000000 0.000000 0.000000
# 3 -0.003906 -0.000718 0.008812 0.000000 0.000000 0.000000
# 4 0.000000 0.000000 0.000000 0.033405 0.000000 0.000000
# 5 0.000000 0.000000 0.000000 0.000000 -0.007179 0.000000
# 6 0.000000 0.000000 0.000000 0.000000 0.000000 0.010228
#
#
# Mechanical properties :
#
#
# Convention : Reuss Voigt Hill
#
# Bulk Modulus (GPa) = 41.01356 59.50895 50.26126
# Shear Modulus (GPa) = 42.61907 10.94665 26.78286
#
# Velocity S-wave (km/s) = 4.56092 2.31149 3.61559
# Velocity P-wave (km/s) = 6.91046 6.01413 6.47781
#
# Compressibility (1/GPa) = 0.02438218
#
# Stress axis : x y z
#
# Youngs Moduli (GPa) = 83.73006 35.96571 113.47710
#
# Poissons Ratio (x) = 0.26850 0.44319
# Poissons Ratio (y) = 0.62508 0.08145
# Poissons Ratio (z) = 0.32701 0.02582
#
# Static dielectric constant tensor:
#      x y z
#    x 1.725630 0.000000 0.000000 
#    y 0.000000 1.843340 0.000000 
#    z 0.000000 0.000000 1.810690 
# 
# From -- ./inp_files/42692.got.cif
#   From: 2010.05.17/outbox.cif.g08.bks.cpg/sg69_22_cif.got.tgz:42692.got - 2010.06.03 19:29:58.
