data_PCOD9511866
_publ_section_title
;
Structure prediction by ZEFSAII (Michael W. Deem and Ramdas Pophale) SiO2 
 PCOD9511866
Probable space group: F M M M
;
_chemical_formula_sum "Si O2"
_cell_formula_units_Z 148
_cell_length_a 14.594968
_cell_length_b 26.898459
_cell_length_c 17.933791
_cell_angle_alpha 90.000000
_cell_angle_beta 90.000000
_cell_angle_gamma 90.000000
_cell_volume 7040.486199
_symmetry_space_group_name_H-M "F M M M"
_symmetry_group_IT_number 69
_symmetry_cell_setting 'orthorhombic'
loop_
_space_group_symop_operation_xyz
x,y,z
-x,-y,z
x,-y,-z
-x,y,-z
-x,-y,-z
x,y,-z
-x,y,z
x,-y,z
x,1/2+y,1/2+z
-x,1/2-y,1/2+z
x,1/2-y,1/2-z
-x,1/2+y,1/2-z
-x,1/2-y,1/2-z
x,1/2+y,1/2-z
-x,1/2+y,1/2+z
x,1/2-y,1/2+z
1/2+x,y,1/2+z
1/2-x,-y,1/2+z
1/2+x,-y,1/2-z
1/2-x,y,1/2-z
1/2-x,-y,1/2-z
1/2+x,y,1/2-z
1/2-x,y,1/2+z
1/2+x,-y,1/2+z
1/2+x,1/2+y,z
1/2-x,1/2-y,z
1/2+x,1/2-y,-z
1/2-x,1/2+y,-z
1/2-x,1/2-y,-z
1/2+x,1/2+y,-z
1/2-x,1/2+y,z
1/2+x,1/2-y,z
loop_
_atom_site_type_symbol
_atom_site_label
_atom_site_fract_x
_atom_site_fract_y
_atom_site_fract_z
Si Si1 0.895642 0.653377 0.143676
Si Si2 0.896666 0.602512 0.000000
Si Si3 0.889294 0.855165 0.189430
Si Si4 0.142695 0.239075 0.084506
Si Si5 0.500000 0.500000 0.500000
Si Si6 0.111862 0.443139 0.415552
O O1 0.851597 0.622511 0.075656
O O2 0.854154 0.649085 0.225895
O O3 0.898128 0.710690 0.119110
O O4 0.000000 0.633838 0.150541
O O5 0.920892 0.544547 0.000000
O O6 0.000000 0.627323 0.000000
O O7 0.870026 0.807165 0.139047
O O8 0.856845 0.904041 0.145838
O O9 0.000000 0.857688 0.193584
O O10 0.250000 0.250000 0.079678
O O11 0.108814 0.229748 0.000000
O O12 0.140113 0.429403 0.500000
O O13 0.140331 0.500000 0.401062
O O14 0.000000 0.442739 0.415295
#
# Coordination Sequence:
#
# PCOD9511866 Si02
#       6
#    32  16  32  32   4  32
#     4  10  19  34  53  76 106 138 170 216 275 308
#     4   8  16  32  51  77 104 136 170 215 255 307
#     4  10  20  32  50  81 106 136 175 215 260 323
#     4  11  23  36  52  75 102 141 182 218 265 321
#     4   8  16  32  56  84 100 140 186 208 264 308
#     4   8  14  27  46  71 103 135 165 203 253 302
#
# _framework density 21.021276
#
# number of rings (size 3 to 8) (size 9 to 14) (size 15 to 20)
#    0.324    2.162    1.081    2.595    0.000    5.622 
#    1.946    0.000    0.000    0.000    2.811    1.514 
#    0.000    0.000    0.000    0.000    0.000    0.000 
#
# Total GULP energy -206154.771636 kJ/mol
# GULP energy per Si atom -5571.750585 kJ/mol
# Density = 2.097343 g / cm^3
# Si number density = 21.021276 Si / 1000 Ang^3
#
#
#
# Elastic Constant Matrix: (Units=GPa)
#
#
# Indices 1 2 3 4 5 6 
#
# 1 45.7946 -7.9815 11.6916 0.0000 0.0000 0.0000
# 2 -7.9815 155.8851 129.5273 0.0000 0.0000 0.0000
# 3 11.6916 129.5273 254.7294 0.0000 0.0000 0.0000
# 4 0.0000 0.0000 0.0000 13.5695 0.0000 0.0000
# 5 0.0000 0.0000 0.0000 0.0000 10.9142 0.0000
# 6 0.0000 0.0000 0.0000 0.0000 0.0000 -20.7200
#
#
#
# Elastic Compliance Matrix: (Units=1/GPa)
#
#
# Indices 1 2 3 4 5 6 
#
# 1 0.023200 0.003589 -0.002890 0.000000 0.000000 0.000000
# 2 0.003589 0.011664 -0.006096 0.000000 0.000000 0.000000
# 3 -0.002890 -0.006096 0.007158 0.000000 0.000000 0.000000
# 4 0.000000 0.000000 0.000000 0.073695 0.000000 0.000000
# 5 0.000000 0.000000 0.000000 0.000000 0.091624 0.000000
# 6 0.000000 0.000000 0.000000 0.000000 0.000000 -0.048263
#
#
# Mechanical properties :
#
#
# Convention : Reuss Voigt Hill
#
# Bulk Modulus (GPa) = 32.02168 80.32041 56.17105
# Shear Modulus (GPa) = 27.73466 22.29753 25.01609
#
# Velocity S-wave (km/s) = 3.63624 3.26039 3.45343
# Velocity P-wave (km/s) = 5.73548 7.24331 6.53304
#
# Compressibility (1/GPa) = 0.03122884
#
# Stress axis : x y z
#
# Youngs Moduli (GPa) = 43.10355 85.73636 139.70548
#
# Poissons Ratio (x) = -0.30772 0.40373
# Poissons Ratio (y) = -0.15470 0.85159
# Poissons Ratio (z) = 0.12456 0.52261
#
# Static dielectric constant tensor:
#      x y z
#    x 1.843350 0.000000 0.000000 
#    y 0.000000 1.697300 0.000000 
#    z 0.000000 0.000000 1.806060 
# 
# From -- ./inp_files/15596.got.cif
#   From: 2010.05.17/outbox.cif.g08.bks.cpg/sg69_8_cif.got.tgz:15596.got - 2010.06.03 19:29:58.
