data_PCOD9511787
_publ_section_title
;
Structure prediction by ZEFSAII (Michael W. Deem and Ramdas Pophale) SiO2 
 PCOD9511787
Probable space group: F M M M
;
_chemical_formula_sum "Si O2"
_cell_formula_units_Z 128
_cell_length_a 21.449493
_cell_length_b 17.583587
_cell_length_c 15.670872
_cell_angle_alpha 90.000000
_cell_angle_beta 90.000000
_cell_angle_gamma 90.000000
_cell_volume 5910.410824
_symmetry_space_group_name_H-M "F M M M"
_symmetry_group_IT_number 69
_symmetry_cell_setting 'orthorhombic'
loop_
_space_group_symop_operation_xyz
x,y,z
-x,-y,z
x,-y,-z
-x,y,-z
-x,-y,-z
x,y,-z
-x,y,z
x,-y,z
x,1/2+y,1/2+z
-x,1/2-y,1/2+z
x,1/2-y,1/2-z
-x,1/2+y,1/2-z
-x,1/2-y,1/2-z
x,1/2+y,1/2-z
-x,1/2+y,1/2+z
x,1/2-y,1/2+z
1/2+x,y,1/2+z
1/2-x,-y,1/2+z
1/2+x,-y,1/2-z
1/2-x,y,1/2-z
1/2-x,-y,1/2-z
1/2+x,y,1/2-z
1/2-x,y,1/2+z
1/2+x,-y,1/2+z
1/2+x,1/2+y,z
1/2-x,1/2-y,z
1/2+x,1/2-y,-z
1/2-x,1/2+y,-z
1/2-x,1/2-y,-z
1/2+x,1/2+y,-z
1/2-x,1/2+y,z
1/2+x,1/2-y,z
loop_
_atom_site_type_symbol
_atom_site_label
_atom_site_fract_x
_atom_site_fract_y
_atom_site_fract_z
Si Si1 0.000000 0.613636 0.402022
Si Si2 0.634985 0.117897 0.598184
Si Si3 0.000000 0.217903 0.653295
Si Si4 0.728885 0.916037 0.103639
Si Si5 0.635784 0.285671 0.344462
O O1 0.932267 0.594708 0.362615
O O2 0.000000 0.705443 0.402454
O O3 0.000000 0.587287 0.500000
O O4 0.632812 0.092265 0.500000
O O5 0.699629 0.088789 0.635880
O O6 0.640438 0.209544 0.599148
O O7 0.000000 0.250000 0.750000
O O8 0.933311 0.179219 0.641227
O O9 0.688197 0.847322 0.139023
O O10 0.704019 0.000000 0.123923
O O11 0.730396 0.908388 0.000000
O O12 0.639628 0.250000 0.250000
#
# Coordination Sequence:
#
# PCOD9511787 Si02
#       5
#    16  32  16  32  32
#     4   8  14  26  47  73  95 122 172 228 265 298
#     4   9  17  31  51  73  99 135 178 221 263 309
#     4   8  16  30  49  73 101 129 166 218 267 306
#     4  10  21  36  52  75 111 147 174 208 261 321
#     4  10  19  33  54  78 101 133 177 222 263 308
#
# _framework density 21.656700000000001
#
# number of rings (size 3 to 8) (size 9 to 14) (size 15 to 20)
#    0.000    2.750    0.000    1.500    0.000    5.000 
#    0.000    3.750    0.000    5.250    0.000   10.500 
#    0.000    0.000    0.000    0.000    0.000    0.750 
#
# Total GULP energy -178358.670181 kJ/mol
# GULP energy per Si atom -5573.708443 kJ/mol
# Density = 2.160741 g / cm^3
# Si number density = 21.656700 Si / 1000 Ang^3
#
#
#
# Elastic Constant Matrix: (Units=GPa)
#
#
# Indices 1 2 3 4 5 6 
#
# 1 188.3489 74.9815 5.6273 0.0000 0.0000 0.0000
# 2 74.9815 103.1218 17.2292 0.0000 0.0000 0.0000
# 3 5.6273 17.2292 38.7190 0.0000 0.0000 0.0000
# 4 0.0000 0.0000 0.0000 5.3360 0.0000 0.0000
# 5 0.0000 0.0000 0.0000 0.0000 20.6296 0.0000
# 6 0.0000 0.0000 0.0000 0.0000 0.0000 -17.4597
#
#
#
# Elastic Compliance Matrix: (Units=1/GPa)
#
#
# Indices 1 2 3 4 5 6 
#
# 1 0.007547 -0.005730 0.001453 0.000000 0.000000 0.000000
# 2 -0.005730 0.014827 -0.005765 0.000000 0.000000 0.000000
# 3 0.001453 -0.005765 0.028181 0.000000 0.000000 0.000000
# 4 0.000000 0.000000 0.000000 0.187406 0.000000 0.000000
# 5 0.000000 0.000000 0.000000 0.000000 0.048474 0.000000
# 6 0.000000 0.000000 0.000000 0.000000 0.000000 -0.057275
#
#
# Mechanical properties :
#
#
# Convention : Reuss Voigt Hill
#
# Bulk Modulus (GPa) = 32.81823 58.42951 45.62387
# Shear Modulus (GPa) = 19.27507 17.19130 18.23318
#
# Velocity S-wave (km/s) = 2.98657 2.82052 2.90473
# Velocity P-wave (km/s) = 5.20380 6.13560 5.68881
#
# Compressibility (1/GPa) = 0.03047087
#
# Stress axis : x y z
#
# Youngs Moduli (GPa) = 132.50020 67.44395 35.48466
#
# Poissons Ratio (x) = 0.38648 -0.05156
# Poissons Ratio (y) = 0.75928 0.20457
# Poissons Ratio (z) = -0.19253 0.38881
#
# Static dielectric constant tensor:
#      x y z
#    x 1.860610 0.000000 0.000000 
#    y 0.000000 1.753060 0.000000 
#    z 0.000000 0.000000 1.862310 
# 
# From -- ./inp_files/16338.got.cif
#   From: 2010.05.17/outbox.cif.g08.bks.cpg/sg69_9_cif.got.tgz:16338.got - 2010.06.03 19:29:58.
