data_PCOD9511915
_publ_section_title
;
Structure prediction by ZEFSAII (Michael W. Deem and Ramdas Pophale) SiO2 
 PCOD9511915
Probable space group: F M M M
;
_chemical_formula_sum "Si O2"
_cell_formula_units_Z 160
_cell_length_a 30.970829
_cell_length_b 16.413295
_cell_length_c 18.074280
_cell_angle_alpha 90.000000
_cell_angle_beta 90.000000
_cell_angle_gamma 90.000000
_cell_volume 9187.759351
_symmetry_space_group_name_H-M "F M M M"
_symmetry_group_IT_number 69
_symmetry_cell_setting 'orthorhombic'
loop_
_space_group_symop_operation_xyz
x,y,z
-x,-y,z
x,-y,-z
-x,y,-z
-x,-y,-z
x,y,-z
-x,y,z
x,-y,z
x,1/2+y,1/2+z
-x,1/2-y,1/2+z
x,1/2-y,1/2-z
-x,1/2+y,1/2-z
-x,1/2-y,1/2-z
x,1/2+y,1/2-z
-x,1/2+y,1/2+z
x,1/2-y,1/2+z
1/2+x,y,1/2+z
1/2-x,-y,1/2+z
1/2+x,-y,1/2-z
1/2-x,y,1/2-z
1/2-x,-y,1/2-z
1/2+x,y,1/2-z
1/2-x,y,1/2+z
1/2+x,-y,1/2+z
1/2+x,1/2+y,z
1/2-x,1/2-y,z
1/2+x,1/2-y,-z
1/2-x,1/2+y,-z
1/2-x,1/2-y,-z
1/2+x,1/2+y,-z
1/2-x,1/2+y,z
1/2+x,1/2-y,z
loop_
_atom_site_type_symbol
_atom_site_label
_atom_site_fract_x
_atom_site_fract_y
_atom_site_fract_z
Si Si1 0.645636 0.000000 0.083200
Si Si2 0.092424 0.674033 0.418032
Si Si3 0.199706 0.500000 0.768770
Si Si4 0.500000 0.093751 0.378679
Si Si5 0.651542 0.836048 0.725975
Si Si6 0.088352 0.648172 0.135893
Si Si7 0.500000 0.344479 0.716970
O O1 0.683108 0.000000 0.145562
O O2 0.614167 0.923268 0.096225
O O3 0.662913 0.000000 0.000000
O O4 0.106890 0.648753 0.500000
O O5 0.044897 0.635847 0.403643
O O6 0.127179 0.657814 0.352961
O O7 0.087592 0.771224 0.413096
O O8 0.250000 0.500000 0.750000
O O9 0.179884 0.416668 0.735766
O O10 0.500000 0.101135 0.290035
O O11 0.500000 0.000000 0.402580
O O12 0.674290 0.750000 0.750000
O O13 0.614457 0.837414 0.788145
O O14 0.040612 0.635730 0.166012
O O15 0.500000 0.250000 0.750000
#
# Coordination Sequence:
#
# PCOD9511915 Si02
#       7
#    16  32  16  16  32  32  16
#     4  10  22  39  60  88 116 140 178 238 293 338
#     4  11  21  35  52  77 113 152 190 231 277 325
#     4  10  22  40  65  89 110 140 184 222 278 357
#     4  12  25  33  50  75 113 152 199 238 280 311
#     4   9  19  36  58  83 111 147 186 229 276 336
#     4  10  19  34  57  79 108 153 195 229 276 331
#     4  12  18  34  55  75 104 151 201 242 267 315
#
# _framework density 17.414473999999998
#
# number of rings (size 3 to 8) (size 9 to 14) (size 15 to 20)
#    0.000    1.600    4.000    1.500    2.800    1.200 
#    0.000    3.000    0.000    0.000    0.000    8.400 
#    0.000    0.000    0.000    0.000    0.000    0.000 
#
# Total GULP energy -222833.105071 kJ/mol
# GULP energy per Si atom -5570.827627 kJ/mol
# Density = 1.737484 g / cm^3
# Si number density = 17.414474 Si / 1000 Ang^3
#
#
#
# Elastic Constant Matrix: (Units=GPa)
#
#
# Indices 1 2 3 4 5 6 
#
# 1 103.5939 60.4392 47.4253 0.0000 0.0000 0.0000
# 2 60.4392 130.2261 43.1513 0.0000 0.0000 0.0000
# 3 47.4253 43.1513 136.4057 0.0000 0.0000 0.0000
# 4 0.0000 0.0000 0.0000 -2.3257 0.0000 0.0000
# 5 0.0000 0.0000 0.0000 0.0000 3.9049 0.0000
# 6 0.0000 0.0000 0.0000 0.0000 0.0000 -0.2924
#
#
#
# Elastic Compliance Matrix: (Units=1/GPa)
#
#
# Indices 1 2 3 4 5 6 
#
# 1 0.014410 -0.005616 -0.003233 0.000000 0.000000 0.000000
# 2 -0.005616 0.010767 -0.001453 0.000000 0.000000 0.000000
# 3 -0.003233 -0.001453 0.008915 0.000000 0.000000 0.000000
# 4 0.000000 0.000000 0.000000 -0.429986 0.000000 0.000000
# 5 0.000000 0.000000 0.000000 0.000000 0.256086 0.000000
# 6 0.000000 0.000000 0.000000 0.000000 0.000000 -3.420510
#
#
# Mechanical properties :
#
#
# Convention : Reuss Voigt Hill
#
# Bulk Modulus (GPa) = 74.15181 74.69526 74.42354
# Shear Modulus (GPa) = -1.41434 14.87137 6.72851
#
# Velocity S-wave (km/s) = -0.90218 2.92544 1.96777
# Velocity P-wave (km/s) = 6.44886 7.37541 6.92764
#
# Compressibility (1/GPa) = 0.01348585
#
# Stress axis : x y z
#
# Youngs Moduli (GPa) = 69.39578 92.87444 112.17024
#
# Poissons Ratio (x) = 0.52163 0.36268
# Poissons Ratio (y) = 0.38976 0.16303
# Poissons Ratio (z) = 0.22438 0.13499
#
# Static dielectric constant tensor:
#      x y z
#    x 1.296400 0.000000 0.000000 
#    y 0.000000 1.653200 0.000000 
#    z 0.000000 0.000000 1.624210 
# 
# From -- ./inp_files/23257.got.cif
#   From: 2010.05.17/outbox.cif.g08.bks.cpg/sg69_12_cif.got.tgz:23257.got - 2010.06.03 19:29:58.
