data_PCOD9511836
_publ_section_title
;
Structure prediction by ZEFSAII (Michael W. Deem and Ramdas Pophale) SiO2 
 PCOD9511836
Probable space group: F M M M
;
_chemical_formula_sum "Si O2"
_cell_formula_units_Z 224
_cell_length_a 29.208822
_cell_length_b 21.830973
_cell_length_c 19.450649
_cell_angle_alpha 90.000000
_cell_angle_beta 90.000000
_cell_angle_gamma 90.000000
_cell_volume 12402.842576
_symmetry_space_group_name_H-M "F M M M"
_symmetry_group_IT_number 69
_symmetry_cell_setting 'orthorhombic'
loop_
_space_group_symop_operation_xyz
x,y,z
-x,-y,z
x,-y,-z
-x,y,-z
-x,-y,-z
x,y,-z
-x,y,z
x,-y,z
x,1/2+y,1/2+z
-x,1/2-y,1/2+z
x,1/2-y,1/2-z
-x,1/2+y,1/2-z
-x,1/2-y,1/2-z
x,1/2+y,1/2-z
-x,1/2+y,1/2+z
x,1/2-y,1/2+z
1/2+x,y,1/2+z
1/2-x,-y,1/2+z
1/2+x,-y,1/2-z
1/2-x,y,1/2-z
1/2-x,-y,1/2-z
1/2+x,y,1/2-z
1/2-x,y,1/2+z
1/2+x,-y,1/2+z
1/2+x,1/2+y,z
1/2-x,1/2-y,z
1/2+x,1/2-y,-z
1/2-x,1/2+y,-z
1/2-x,1/2-y,-z
1/2+x,1/2+y,-z
1/2-x,1/2+y,z
1/2+x,1/2-y,z
loop_
_atom_site_type_symbol
_atom_site_label
_atom_site_fract_x
_atom_site_fract_y
_atom_site_fract_z
Si Si1 0.385651 0.153068 0.765056
Si Si2 0.948147 0.428285 0.147198
Si Si3 0.738572 0.569663 0.579245
Si Si4 0.112888 0.230528 0.135716
Si Si5 0.286883 0.801037 0.582097
Si Si6 0.447020 0.751318 0.500000
Si Si7 0.301636 0.930133 0.222058
Si Si8 0.552704 0.395496 0.500000
O O1 0.419482 0.102300 0.793530
O O2 0.402420 0.183673 0.694919
O O3 0.384257 0.204456 0.824862
O O4 0.336622 0.121118 0.753630
O O5 0.950562 0.500000 0.157785
O O6 0.926634 0.416886 0.071833
O O7 0.000000 0.402250 0.145797
O O8 0.722518 0.575257 0.500000
O O9 0.758768 0.500000 0.585874
O O10 0.770700 0.628626 0.592662
O O11 0.700938 0.573010 0.638965
O O12 0.164086 0.212587 0.113868
O O13 0.080366 0.230622 0.069140
O O14 0.290725 0.792768 0.500000
O O15 0.250000 0.750000 0.606850
O O16 0.500000 0.772586 0.500000
O O17 0.448007 0.677494 0.500000
O O18 0.250000 0.920768 0.250000
O O19 0.314923 0.000000 0.241225
O O20 0.500000 0.419755 0.500000
#
# Coordination Sequence:
#
# PCOD9511836 Si02
#       8
#    32  32  32  32  32  16  32  16
#     4  11  23  36  55  84 118 151 191 236 281 344
#     4  10  20  36  58  85 117 149 185 232 289 354
#     4   9  18  33  52  78 112 150 196 240 285 346
#     4  11  23  38  56  83 116 151 195 238 283 345
#     4  10  19  33  56  83 113 150 192 241 294 337
#     4  11  22  41  63  84 114 152 190 240 295 346
#     4  10  20  36  56  78 113 157 193 230 282 341
#     4   9  17  34  59  85 113 147 182 221 284 357
#
# _framework density 18.060376000000002
#
# number of rings (size 3 to 8) (size 9 to 14) (size 15 to 20)
#    0.000    1.857    2.143    2.357    0.000    1.429 
#    2.571    3.571    0.000    0.000    0.000    0.000 
#    0.000    4.000    0.000    0.000    0.000    0.000 
#
# Total GULP energy -312287.221910 kJ/mol
# GULP energy per Si atom -5576.557534 kJ/mol
# Density = 1.801927 g / cm^3
# Si number density = 18.060376 Si / 1000 Ang^3
#
#
#
# Elastic Constant Matrix: (Units=GPa)
#
#
# Indices 1 2 3 4 5 6 
#
# 1 56.5377 36.9542 38.2630 0.0000 0.0000 0.0000
# 2 36.9542 83.1269 52.4142 0.0000 0.0000 0.0000
# 3 38.2630 52.4142 96.2234 0.0000 0.0000 0.0000
# 4 0.0000 0.0000 0.0000 15.5890 0.0000 0.0000
# 5 0.0000 0.0000 0.0000 0.0000 21.8794 0.0000
# 6 0.0000 0.0000 0.0000 0.0000 0.0000 22.2896
#
#
#
# Elastic Compliance Matrix: (Units=1/GPa)
#
#
# Indices 1 2 3 4 5 6 
#
# 1 0.027348 -0.008074 -0.006477 0.000000 0.000000 0.000000
# 2 -0.008074 0.020706 -0.008069 0.000000 0.000000 0.000000
# 3 -0.006477 -0.008069 0.017363 0.000000 0.000000 0.000000
# 4 0.000000 0.000000 0.000000 0.064148 0.000000 0.000000
# 5 0.000000 0.000000 0.000000 0.000000 0.045705 0.000000
# 6 0.000000 0.000000 0.000000 0.000000 0.000000 0.044864
#
#
# Mechanical properties :
#
#
# Convention : Reuss Voigt Hill
#
# Bulk Modulus (GPa) = 49.55655 54.57232 52.06443
# Shear Modulus (GPa) = 18.37567 19.16871 18.77219
#
# Velocity S-wave (km/s) = 3.19322 3.26140 3.22749
# Velocity P-wave (km/s) = 6.41050 6.66817 6.54060
#
# Compressibility (1/GPa) = 0.02017897
#
# Stress axis : x y z
#
# Youngs Moduli (GPa) = 36.56606 48.29419 57.59320
#
# Poissons Ratio (x) = 0.38990 0.37303
# Poissons Ratio (y) = 0.29522 0.46470
# Poissons Ratio (z) = 0.23684 0.38967
#
# Static dielectric constant tensor:
#      x y z
#    x 1.619410 0.000000 0.000000 
#    y 0.000000 1.630580 0.000000 
#    z 0.000000 0.000000 1.637710 
# 
# From -- ./inp_files/27985.got.cif
#   From: 2010.05.17/outbox.cif.g08.bks.cpg/sg69_14_cif.got.tgz:27985.got - 2010.06.03 19:29:58.
