data_PCOD9511998
_publ_section_title
;
Structure prediction by ZEFSAII (Michael W. Deem and Ramdas Pophale) SiO2 
 PCOD9511998
Probable space group: F M M M
;
_chemical_formula_sum "Si O2"
_cell_formula_units_Z 168
_cell_length_a 22.523459
_cell_length_b 22.480501
_cell_length_c 15.190785
_cell_angle_alpha 90.000000
_cell_angle_beta 90.000000
_cell_angle_gamma 90.000000
_cell_volume 7691.681457
_symmetry_space_group_name_H-M "F M M M"
_symmetry_group_IT_number 69
_symmetry_cell_setting 'orthorhombic'
loop_
_space_group_symop_operation_xyz
x,y,z
-x,-y,z
x,-y,-z
-x,y,-z
-x,-y,-z
x,y,-z
-x,y,z
x,-y,z
x,1/2+y,1/2+z
-x,1/2-y,1/2+z
x,1/2-y,1/2-z
-x,1/2+y,1/2-z
-x,1/2-y,1/2-z
x,1/2+y,1/2-z
-x,1/2+y,1/2+z
x,1/2-y,1/2+z
1/2+x,y,1/2+z
1/2-x,-y,1/2+z
1/2+x,-y,1/2-z
1/2-x,y,1/2-z
1/2-x,-y,1/2-z
1/2+x,y,1/2-z
1/2-x,y,1/2+z
1/2+x,-y,1/2+z
1/2+x,1/2+y,z
1/2-x,1/2-y,z
1/2+x,1/2-y,-z
1/2-x,1/2+y,-z
1/2-x,1/2-y,-z
1/2+x,1/2+y,-z
1/2-x,1/2+y,z
1/2+x,1/2-y,z
loop_
_atom_site_type_symbol
_atom_site_label
_atom_site_fract_x
_atom_site_fract_y
_atom_site_fract_z
Si Si1 0.260217 0.591977 0.150416
Si Si2 0.067861 0.319063 0.397709
Si Si3 0.190050 0.277519 0.653057
Si Si4 0.929584 0.566454 0.721296
Si Si5 0.296635 0.000000 0.500000
Si Si6 0.632479 0.571171 0.596400
O O1 0.250000 0.567508 0.250000
O O2 0.294268 0.653265 0.160672
O O3 0.194596 0.603175 0.111680
O O4 0.291638 0.551009 0.078503
O O5 0.066182 0.334954 0.500000
O O6 0.123362 0.274214 0.385466
O O7 0.081808 0.379019 0.343403
O O8 0.000000 0.298830 0.373426
O O9 0.186363 0.250000 0.750000
O O10 0.250000 0.250000 0.609795
O O11 0.905937 0.500000 0.697062
O O12 0.907424 0.581440 0.819040
O O13 0.000000 0.561241 0.723896
O O14 0.607192 0.585426 0.500000
O O15 0.646619 0.500000 0.595618
#
# Coordination Sequence:
#
# PCOD9511998 Si02
#       6
#    32  32  32  32   8  32
#     4  12  22  43  67  97 145 185 233 297 368 439
#     4  10  23  45  71 100 138 189 242 297 362 435
#     4  11  25  47  71 103 138 190 251 301 365 423
#     4   9  19  35  60  98 140 187 238 295 364 437
#     4  12  26  40  66 114 142 184 238 294 378 450
#     4  10  19  35  58  91 133 179 231 294 364 433
#
# _framework density 21.841777
#
# number of rings (size 3 to 8) (size 9 to 14) (size 15 to 20)
#    0.000    1.524    3.810    1.429    1.333    1.524 
#    1.714    3.810    0.000    0.000    0.000    0.000 
#    0.000    0.000    0.000    0.000    0.000    0.000 
#
# Total GULP energy -233822.002731 kJ/mol
# GULP energy per Si atom -5567.190541 kJ/mol
# Density = 2.179206 g / cm^3
# Si number density = 21.841777 Si / 1000 Ang^3
#
#
#
# Elastic Constant Matrix: (Units=GPa)
#
#
# Indices 1 2 3 4 5 6 
#
# 1 131.6992 45.1561 46.4610 0.0000 0.0000 0.0000
# 2 45.1561 71.1605 42.3006 0.0000 0.0000 0.0000
# 3 46.4610 42.3006 136.2983 0.0000 0.0000 0.0000
# 4 0.0000 0.0000 0.0000 12.1727 0.0000 0.0000
# 5 0.0000 0.0000 0.0000 0.0000 17.2460 0.0000
# 6 0.0000 0.0000 0.0000 0.0000 0.0000 15.5763
#
#
#
# Elastic Compliance Matrix: (Units=1/GPa)
#
#
# Indices 1 2 3 4 5 6 
#
# 1 0.010042 -0.005319 -0.001772 0.000000 0.000000 0.000000
# 2 -0.005319 0.020049 -0.004409 0.000000 0.000000 0.000000
# 3 -0.001772 -0.004409 0.009309 0.000000 0.000000 0.000000
# 4 0.000000 0.000000 0.000000 0.082151 0.000000 0.000000
# 5 0.000000 0.000000 0.000000 0.000000 0.057984 0.000000
# 6 0.000000 0.000000 0.000000 0.000000 0.000000 0.064200
#
#
# Mechanical properties :
#
#
# Convention : Reuss Voigt Hill
#
# Bulk Modulus (GPa) = 60.97705 67.44371 64.21038
# Shear Modulus (GPa) = 18.36863 22.68168 20.52516
#
# Velocity S-wave (km/s) = 2.90312 3.22600 3.06881
# Velocity P-wave (km/s) = 6.26225 6.69488 6.48217
#
# Compressibility (1/GPa) = 0.01639961
#
# Stress axis : x y z
#
# Youngs Moduli (GPa) = 99.58202 49.87828 107.41803
#
# Poissons Ratio (x) = 0.26529 0.19039
# Poissons Ratio (y) = 0.52965 0.47363
# Poissons Ratio (z) = 0.17650 0.21992
#
# Static dielectric constant tensor:
#      x y z
#    x 1.871650 0.000000 0.000000 
#    y 0.000000 1.807240 0.000000 
#    z 0.000000 0.000000 1.774650 
# 
# From -- ./inp_files/17860.got.cif
#   From: 2010.05.17/outbox.cif.g08.bks.cpg/sg69_9_cif.got.tgz:17860.got - 2010.06.03 19:29:58.
