data_PCOD9511406
_publ_section_title
;
Structure prediction by ZEFSAII (Michael W. Deem and Ramdas Pophale) SiO2 
 PCOD9511406
Probable space group: F M M M
;
_chemical_formula_sum "Si O2"
_cell_formula_units_Z 160
_cell_length_a 16.303061
_cell_length_b 15.107546
_cell_length_c 28.378801
_cell_angle_alpha 90.000000
_cell_angle_beta 90.000000
_cell_angle_gamma 90.000000
_cell_volume 6989.677232
_symmetry_space_group_name_H-M "F M M M"
_symmetry_group_IT_number 69
_symmetry_cell_setting 'orthorhombic'
loop_
_space_group_symop_operation_xyz
x,y,z
-x,-y,z
x,-y,-z
-x,y,-z
-x,-y,-z
x,y,-z
-x,y,z
x,-y,z
x,1/2+y,1/2+z
-x,1/2-y,1/2+z
x,1/2-y,1/2-z
-x,1/2+y,1/2-z
-x,1/2-y,1/2-z
x,1/2+y,1/2-z
-x,1/2+y,1/2+z
x,1/2-y,1/2+z
1/2+x,y,1/2+z
1/2-x,-y,1/2+z
1/2+x,-y,1/2-z
1/2-x,y,1/2-z
1/2-x,-y,1/2-z
1/2+x,y,1/2-z
1/2-x,y,1/2+z
1/2+x,-y,1/2+z
1/2+x,1/2+y,z
1/2-x,1/2-y,z
1/2+x,1/2-y,-z
1/2-x,1/2+y,-z
1/2-x,1/2-y,-z
1/2+x,1/2+y,-z
1/2-x,1/2+y,z
1/2+x,1/2-y,z
loop_
_atom_site_type_symbol
_atom_site_label
_atom_site_fract_x
_atom_site_fract_y
_atom_site_fract_z
Si Si1 0.177004 0.599009 0.217618
Si Si2 0.500000 0.892203 0.446317
Si Si3 0.592779 0.323429 0.210480
Si Si4 0.658048 0.607391 0.612482
Si Si5 0.500000 0.608589 0.554533
Si Si6 0.841655 0.107253 0.114463
O O1 0.206296 0.500000 0.205578
O O2 0.250000 0.637506 0.250000
O O3 0.101647 0.595034 0.253509
O O4 0.153678 0.638524 0.167039
O O5 0.500000 0.860773 0.500000
O O6 0.417031 0.866931 0.418974
O O7 0.500000 0.000000 0.447202
O O8 0.500000 0.307282 0.195160
O O9 0.615273 0.250000 0.250000
O O10 0.645354 0.345497 0.164671
O O11 0.651113 0.500000 0.611884
O O12 0.581895 0.639553 0.581641
O O13 0.750434 0.628730 0.595989
O O14 0.500000 0.500000 0.555325
O O15 0.500000 0.634874 0.500000
O O16 0.845782 0.000000 0.121042
#
# Coordination Sequence:
#
# PCOD9511406 Si02
#       6
#    32  16  32  32  16  32
#     4  10  19  33  53  77 106 141 185 231 281 347
#     4   9  18  30  50  82 112 142 187 242 293 341
#     4  11  23  35  49  77 115 153 190 228 282 348
#     4   9  18  31  49  76 105 141 186 228 278 343
#     4   9  18  32  49  74 111 148 185 239 300 348
#     4  10  18  33  55  78 113 154 193 237 291 352
#
# _framework density 22.890899999999998
#
# number of rings (size 3 to 8) (size 9 to 14) (size 15 to 20)
#    0.000    2.200    3.000    0.600    1.400    2.400 
#    0.000    4.000    0.000    0.000    0.000    2.800 
#    0.000    3.200    0.000    0.000    0.000    0.400 
#
# Total GULP energy -223060.345227 kJ/mol
# GULP energy per Si atom -5576.508631 kJ/mol
# Density = 2.283880 g / cm^3
# Si number density = 22.890900 Si / 1000 Ang^3
#
#
#
# Elastic Constant Matrix: (Units=GPa)
#
#
# Indices 1 2 3 4 5 6 
#
# 1 205.6912 17.1926 121.0329 0.0000 0.0000 0.0000
# 2 17.1926 69.3837 13.4076 0.0000 0.0000 0.0000
# 3 121.0329 13.4076 194.4867 0.0000 0.0000 0.0000
# 4 0.0000 0.0000 0.0000 0.3734 0.0000 0.0000
# 5 0.0000 0.0000 0.0000 0.0000 34.0871 0.0000
# 6 0.0000 0.0000 0.0000 0.0000 0.0000 10.9417
#
#
#
# Elastic Compliance Matrix: (Units=1/GPa)
#
#
# Indices 1 2 3 4 5 6 
#
# 1 0.007738 -0.001000 -0.004747 0.000000 0.000000 0.000000
# 2 -0.001000 0.014736 -0.000393 0.000000 0.000000 0.000000
# 3 -0.004747 -0.000393 0.008123 0.000000 0.000000 0.000000
# 4 0.000000 0.000000 0.000000 2.678182 0.000000 0.000000
# 5 0.000000 0.000000 0.000000 0.000000 0.029337 0.000000
# 6 0.000000 0.000000 0.000000 0.000000 0.000000 0.091394
#
#
# Mechanical properties :
#
#
# Convention : Reuss Voigt Hill
#
# Bulk Modulus (GPa) = 54.59468 85.86977 70.23223
# Shear Modulus (GPa) = 1.75568 30.27567 16.01568
#
# Velocity S-wave (km/s) = 0.87672 3.64071 2.64796
# Velocity P-wave (km/s) = 4.99265 7.43419 6.33221
#
# Compressibility (1/GPa) = 0.01831680
#
# Stress axis : x y z
#
# Youngs Moduli (GPa) = 129.22633 67.85883 123.10904
#
# Poissons Ratio (x) = 0.06787 0.58437
# Poissons Ratio (y) = 0.12926 0.04844
# Poissons Ratio (z) = 0.61341 0.02670
#
# Static dielectric constant tensor:
#      x y z
#    x 1.928000 0.000000 0.000000 
#    y 0.000000 2.224870 0.000000 
#    z 0.000000 0.000000 1.803050 
# 
# From -- ./inp_files/41780.got.cif
#   From: 2010.05.17/outbox.cif.g08.bks.cpg/sg69_21_cif.got.tgz:41780.got - 2010.06.03 19:29:58.
