data_PCOD9511226
_publ_section_title
;
Structure prediction by ZEFSAII (Michael W. Deem and Ramdas Pophale) SiO2 
 PCOD9511226
Probable space group: F M M M
;
_chemical_formula_sum "Si O2"
_cell_formula_units_Z 208
_cell_length_a 30.209079
_cell_length_b 16.821884
_cell_length_c 23.772446
_cell_angle_alpha 90.000000
_cell_angle_beta 90.000000
_cell_angle_gamma 90.000000
_cell_volume 12080.530004
_symmetry_space_group_name_H-M "F M M M"
_symmetry_group_IT_number 69
_symmetry_cell_setting 'orthorhombic'
loop_
_space_group_symop_operation_xyz
x,y,z
-x,-y,z
x,-y,-z
-x,y,-z
-x,-y,-z
x,y,-z
-x,y,z
x,-y,z
x,1/2+y,1/2+z
-x,1/2-y,1/2+z
x,1/2-y,1/2-z
-x,1/2+y,1/2-z
-x,1/2-y,1/2-z
x,1/2+y,1/2-z
-x,1/2+y,1/2+z
x,1/2-y,1/2+z
1/2+x,y,1/2+z
1/2-x,-y,1/2+z
1/2+x,-y,1/2-z
1/2-x,y,1/2-z
1/2-x,-y,1/2-z
1/2+x,y,1/2-z
1/2-x,y,1/2+z
1/2+x,-y,1/2+z
1/2+x,1/2+y,z
1/2-x,1/2-y,z
1/2+x,1/2-y,-z
1/2-x,1/2+y,-z
1/2-x,1/2-y,-z
1/2+x,1/2+y,-z
1/2-x,1/2+y,z
1/2+x,1/2-y,z
loop_
_atom_site_type_symbol
_atom_site_label
_atom_site_fract_x
_atom_site_fract_y
_atom_site_fract_z
Si Si1 0.000000 0.597726 0.564057
Si Si2 0.576430 0.094144 0.644650
Si Si3 0.799002 0.714120 0.628301
Si Si4 0.200021 0.087489 0.771888
Si Si5 0.342367 0.409086 0.063013
Si Si6 0.947240 0.096289 0.271896
Si Si7 0.864879 0.185615 0.301077
O O1 0.958528 0.626209 0.600074
O O2 0.000000 0.500000 0.562567
O O3 0.000000 0.624151 0.500000
O O4 0.622832 0.103581 0.613547
O O5 0.568036 0.120903 0.708233
O O6 0.568262 0.000000 0.648301
O O7 0.750000 0.750000 0.626654
O O8 0.799359 0.650731 0.678865
O O9 0.808530 0.662196 0.572970
O O10 0.838052 0.775342 0.646819
O O11 0.250000 0.084166 0.750000
O O12 0.166815 0.116952 0.723921
O O13 0.186004 0.000000 0.791295
O O14 0.325104 0.500000 0.067815
O O15 0.362374 0.404244 0.000000
O O16 0.913279 0.146891 0.310263
O O17 0.000000 0.111953 0.278273
O O18 0.941175 0.000000 0.277992
O O19 0.867583 0.250000 0.250000
#
# Coordination Sequence:
#
# PCOD9511226 Si02
#       7
#    16  32  32  32  32  32  32
#     4   9  14  20  36  62  89 118 156 200 241 275
#     4   9  15  27  44  66  95 126 159 199 242 283
#     4  11  21  35  51  72 103 133 168 211 260 310
#     4  10  18  30  50  73  98 129 168 211 250 292
#     4  10  21  36  54  74  96 127 169 211 254 306
#     4  10  19  32  49  72 104 141 179 211 246 299
#     4  10  20  31  47  70 102 135 168 211 251 303
#
# _framework density 17.217787000000001
#
# number of rings (size 3 to 8) (size 9 to 14) (size 15 to 20)
#    0.000    2.077    2.308    3.231    0.000    3.692 
#    0.000    0.000    0.000    0.000    0.000    0.000 
#    0.000    0.000    0.000    1.692    0.000    0.000 
#
# Total GULP energy -289595.464997 kJ/mol
# GULP energy per Si atom -5569.143558 kJ/mol
# Density = 1.717860 g / cm^3
# Si number density = 17.217787 Si / 1000 Ang^3
#
#
#
# Elastic Constant Matrix: (Units=GPa)
#
#
# Indices 1 2 3 4 5 6 
#
# 1 102.6392 55.7561 35.9894 0.0000 0.0000 0.0000
# 2 55.7561 62.9790 13.6980 0.0000 0.0000 0.0000
# 3 35.9894 13.6980 34.2026 0.0000 0.0000 0.0000
# 4 0.0000 0.0000 0.0000 15.3195 0.0000 0.0000
# 5 0.0000 0.0000 0.0000 0.0000 12.7070 0.0000
# 6 0.0000 0.0000 0.0000 0.0000 0.0000 27.7228
#
#
#
# Elastic Compliance Matrix: (Units=1/GPa)
#
#
# Indices 1 2 3 4 5 6 
#
# 1 0.028538 -0.020521 -0.021810 0.000000 0.000000 0.000000
# 2 -0.020521 0.032150 0.008717 0.000000 0.000000 0.000000
# 3 -0.021810 0.008717 0.048696 0.000000 0.000000 0.000000
# 4 0.000000 0.000000 0.000000 0.065276 0.000000 0.000000
# 5 0.000000 0.000000 0.000000 0.000000 0.078697 0.000000
# 6 0.000000 0.000000 0.000000 0.000000 0.000000 0.036071
#
#
# Mechanical properties :
#
#
# Convention : Reuss Voigt Hill
#
# Bulk Modulus (GPa) = 23.72157 45.63421 34.67789
# Shear Modulus (GPa) = 13.48768 17.44169 15.46468
#
# Velocity S-wave (km/s) = 2.80189 3.18623 3.00022
# Velocity P-wave (km/s) = 4.92694 6.33227 5.67329
#
# Compressibility (1/GPa) = 0.04215573
#
# Stress axis : x y z
#
# Youngs Moduli (GPa) = 35.04080 31.10405 20.53563
#
# Poissons Ratio (x) = 0.63830 0.44789
# Poissons Ratio (y) = 0.71909 -0.17902
# Poissons Ratio (z) = 0.76425 -0.27115
#
# Static dielectric constant tensor:
#      x y z
#    x 1.680280 0.000000 0.000000 
#    y 0.000000 1.614580 0.000000 
#    z 0.000000 0.000000 1.585270 
# 
# From -- ./inp_files/39056.got.cif
#   From: 2010.05.17/outbox.cif.g08.bks.cpg/sg69_20_cif.got.tgz:39056.got - 2010.06.03 19:29:58.
