data_PCOD9511524
_publ_section_title
;
Structure prediction by ZEFSAII (Michael W. Deem and Ramdas Pophale) SiO2 
 PCOD9511524
Probable space group: F M M M
;
_chemical_formula_sum "Si O2"
_cell_formula_units_Z 144
_cell_length_a 29.712558
_cell_length_b 32.166257
_cell_length_c 8.366936
_cell_angle_alpha 90.000000
_cell_angle_beta 90.000000
_cell_angle_gamma 90.000000
_cell_volume 7996.630279
_symmetry_space_group_name_H-M "F M M M"
_symmetry_group_IT_number 69
_symmetry_cell_setting 'orthorhombic'
loop_
_space_group_symop_operation_xyz
x,y,z
-x,-y,z
x,-y,-z
-x,y,-z
-x,-y,-z
x,y,-z
-x,y,z
x,-y,z
x,1/2+y,1/2+z
-x,1/2-y,1/2+z
x,1/2-y,1/2-z
-x,1/2+y,1/2-z
-x,1/2-y,1/2-z
x,1/2+y,1/2-z
-x,1/2+y,1/2+z
x,1/2-y,1/2+z
1/2+x,y,1/2+z
1/2-x,-y,1/2+z
1/2+x,-y,1/2-z
1/2-x,y,1/2-z
1/2-x,-y,1/2-z
1/2+x,y,1/2-z
1/2-x,y,1/2+z
1/2+x,-y,1/2+z
1/2+x,1/2+y,z
1/2-x,1/2-y,z
1/2+x,1/2-y,-z
1/2-x,1/2+y,-z
1/2-x,1/2-y,-z
1/2+x,1/2+y,-z
1/2-x,1/2+y,z
1/2+x,1/2-y,z
loop_
_atom_site_type_symbol
_atom_site_label
_atom_site_fract_x
_atom_site_fract_y
_atom_site_fract_z
Si Si1 0.445365 0.000000 0.819284
Si Si2 0.801423 0.046320 0.693100
Si Si3 0.199373 0.295741 0.689314
Si Si4 0.357562 0.373089 0.306868
Si Si5 0.448876 0.591122 0.695948
O O1 0.434920 0.955266 0.746817
O O2 0.500000 0.000000 0.831841
O O3 0.426041 0.000000 0.000000
O O4 0.801889 0.046621 0.500000
O O5 0.750000 0.051326 0.750000
O O6 0.831126 0.085300 0.747457
O O7 0.817051 0.000000 0.744594
O O8 0.200665 0.294766 0.500000
O O9 0.186039 0.250000 0.750000
O O10 0.250000 0.304167 0.750000
O O11 0.166732 0.332072 0.746410
O O12 0.356112 0.372763 0.500000
O O13 0.409649 0.377556 0.257598
O O14 0.449690 0.588842 0.500000
O O15 0.500000 0.600312 0.746722
#
# Coordination Sequence:
#
# PCOD9511524 Si02
#       5
#    16  32  32  32  32
#     4   7  10  18  34  60  94 131 172 215 254 287
#     4   9  18  30  43  63  95 134 171 206 244 291
#     4  11  22  38  59  81 105 129 161 204 256 311
#     4  10  19  30  49  76 105 136 172 212 255 302
#     4   8  14  24  41  68 102 138 175 216 257 296
#
# _framework density 18.007586
#
# number of rings (size 3 to 8) (size 9 to 14) (size 15 to 20)
#    0.000    2.778    0.000    4.667    1.556    2.667 
#    0.000    0.000    0.000    1.333    0.000    0.000 
#    0.000    2.667    0.000    0.000    0.000    0.000 
#
# Total GULP energy -200701.240432 kJ/mol
# GULP energy per Si atom -5575.034456 kJ/mol
# Density = 1.796660 g / cm^3
# Si number density = 18.007586 Si / 1000 Ang^3
#
#
#
# Elastic Constant Matrix: (Units=GPa)
#
#
# Indices 1 2 3 4 5 6 
#
# 1 121.7874 110.0276 26.6230 -0.0091 0.0053 0.0112
# 2 110.0276 149.0422 30.9787 -0.0066 0.0123 0.0061
# 3 26.6230 30.9787 28.7455 -0.0215 0.0076 0.0237
# 4 -0.0091 -0.0066 -0.0215 8.8108 0.0110 0.0084
# 5 0.0053 0.0123 0.0076 0.0110 5.6552 -0.0102
# 6 0.0112 0.0061 0.0237 0.0084 -0.0102 25.0174
#
#
#
# Elastic Compliance Matrix: (Units=1/GPa)
#
#
# Indices 1 2 3 4 5 6 
#
# 1 0.025044 -0.017612 -0.004214 0.000002 0.000021 -0.000003
# 2 -0.017612 0.021032 -0.006354 -0.000018 -0.000021 0.000009
# 3 -0.004214 -0.006354 0.045539 0.000102 -0.000044 -0.000040
# 4 0.000002 -0.000018 0.000102 0.113497 -0.000221 -0.000038
# 5 0.000021 -0.000021 -0.000044 -0.000221 0.176830 0.000072
# 6 -0.000003 0.000009 -0.000040 -0.000038 0.000072 0.039972
#
#
# Mechanical properties :
#
#
# Convention : Reuss Voigt Hill
#
# Bulk Modulus (GPa) = 28.36582 70.53707 49.45145
# Shear Modulus (GPa) = 10.20351 16.69308 13.44830
#
# Velocity S-wave (km/s) = 2.38297 3.04797 2.73575
# Velocity P-wave (km/s) = 4.83298 7.18628 6.12374
#
# Compressibility (1/GPa) = 0.03525370
#
# Stress axis : x y z
#
# Youngs Moduli (GPa) = 39.93012 47.54632 21.95911
#
# Poissons Ratio (x) = 0.83739 0.09254
# Poissons Ratio (y) = 0.70326 0.13954
# Poissons Ratio (z) = 0.16827 0.30213
#
# Static dielectric constant tensor:
#      x y z
#    x 1.630620 0.000000 0.000010 
#    y 0.000000 1.624560 -0.000010 
#    z 0.000010 -0.000010 1.623740 
# 
# From -- ./inp_files/5575.got.cif
#   From: 2010.05.17/outbox.cif.g08.bks.cpg/sg69_3_cif.got.tgz:5575.got - 2010.06.03 19:29:58.
