data_PCOD9511373
_publ_section_title
;
Structure prediction by ZEFSAII (Michael W. Deem and Ramdas Pophale) SiO2 
 PCOD9511373
Probable space group: F M M M
;
_chemical_formula_sum "Si O2"
_cell_formula_units_Z 96
_cell_length_a 8.510616
_cell_length_b 24.842538
_cell_length_c 20.730923
_cell_angle_alpha 90.000000
_cell_angle_beta 90.000000
_cell_angle_gamma 90.000000
_cell_volume 4383.041643
_symmetry_space_group_name_H-M "F M M M"
_symmetry_group_IT_number 69
_symmetry_cell_setting 'orthorhombic'
loop_
_space_group_symop_operation_xyz
x,y,z
-x,-y,z
x,-y,-z
-x,y,-z
-x,-y,-z
x,y,-z
-x,y,z
x,-y,z
x,1/2+y,1/2+z
-x,1/2-y,1/2+z
x,1/2-y,1/2-z
-x,1/2+y,1/2-z
-x,1/2-y,1/2-z
x,1/2+y,1/2-z
-x,1/2+y,1/2+z
x,1/2-y,1/2+z
1/2+x,y,1/2+z
1/2-x,-y,1/2+z
1/2+x,-y,1/2-z
1/2-x,y,1/2-z
1/2-x,-y,1/2-z
1/2+x,y,1/2-z
1/2-x,y,1/2+z
1/2+x,-y,1/2+z
1/2+x,1/2+y,z
1/2-x,1/2-y,z
1/2+x,1/2-y,-z
1/2-x,1/2+y,-z
1/2-x,1/2-y,-z
1/2+x,1/2+y,-z
1/2-x,1/2+y,z
1/2+x,1/2-y,z
loop_
_atom_site_type_symbol
_atom_site_label
_atom_site_fract_x
_atom_site_fract_y
_atom_site_fract_z
Si Si1 0.314010 0.080861 0.181902
Si Si2 0.689282 0.811144 0.000000
Si Si3 0.687232 0.811094 0.637109
Si Si4 0.811734 0.000000 0.924379
O O1 0.500000 0.074991 0.180009
O O2 0.250000 0.059366 0.250000
O O3 0.266287 0.143605 0.180124
O O4 0.244478 0.050213 0.119593
O O5 0.750000 0.750000 0.000000
O O6 0.762430 0.831500 0.065824
O O7 0.500000 0.814074 0.000000
O O8 0.500000 0.810479 0.643573
O O9 0.750000 0.750000 0.646452
O O10 0.000000 0.000000 0.926227
O O11 0.756681 0.000000 0.000000
#
# Coordination Sequence:
#
# PCOD9511373 Si02
#       4
#    32  16  32  16
#     4  12  26  46  71 101 139 182 230 281 343 409
#     4  10  18  32  54  85 124 171 220 272 329 388
#     4  11  22  39  63  96 137 181 229 280 339 403
#     4  11  26  49  76 105 137 175 226 283 343 406
#
# _framework density 21.902598999999999
#
# number of rings (size 3 to 8) (size 9 to 14) (size 15 to 20)
#    0.000    0.833    0.000   10.500    2.333    2.000 
#    0.000    3.333    0.000    0.000    0.000    0.000 
#    0.000    0.000    0.000    0.000    0.000    0.000 
#
# Total GULP energy -134115.147009 kJ/mol
# GULP energy per Si atom -5588.131125 kJ/mol
# Density = 2.185275 g / cm^3
# Si number density = 21.902599 Si / 1000 Ang^3
#
#
#
# Elastic Constant Matrix: (Units=GPa)
#
#
# Indices 1 2 3 4 5 6 
#
# 1 163.2326 27.1467 40.4247 0.0000 0.0000 0.0000
# 2 27.1467 136.6250 61.6417 0.0000 0.0000 0.0000
# 3 40.4247 61.6417 184.3002 0.0000 0.0000 0.0000
# 4 0.0000 0.0000 0.0000 23.3174 0.0000 0.0000
# 5 0.0000 0.0000 0.0000 0.0000 27.7323 0.0000
# 6 0.0000 0.0000 0.0000 0.0000 0.0000 32.5659
#
#
#
# Elastic Compliance Matrix: (Units=1/GPa)
#
#
# Indices 1 2 3 4 5 6 
#
# 1 0.006546 -0.000769 -0.001179 0.000000 0.000000 0.000000
# 2 -0.000769 0.008710 -0.002745 0.000000 0.000000 0.000000
# 3 -0.001179 -0.002745 0.006602 0.000000 0.000000 0.000000
# 4 0.000000 0.000000 0.000000 0.042886 0.000000 0.000000
# 5 0.000000 0.000000 0.000000 0.000000 0.036059 0.000000
# 6 0.000000 0.000000 0.000000 0.000000 0.000000 0.030707
#
#
# Mechanical properties :
#
#
# Convention : Reuss Voigt Hill
#
# Bulk Modulus (GPa) = 80.16382 82.50934 81.33658
# Shear Modulus (GPa) = 34.47000 40.38611 37.42806
#
# Velocity S-wave (km/s) = 3.97140 4.29872 4.13830
# Velocity P-wave (km/s) = 7.59664 7.89883 7.74921
#
# Compressibility (1/GPa) = 0.01247446
#
# Stress axis : x y z
#
# Youngs Moduli (GPa) = 152.76533 114.80522 151.45899
#
# Poissons Ratio (x) = 0.08827 0.17852
# Poissons Ratio (y) = 0.11746 0.41570
# Poissons Ratio (z) = 0.18006 0.31510
#
# Static dielectric constant tensor:
#      x y z
#    x 1.717310 0.000000 0.000000 
#    y 0.000000 1.780160 0.000000 
#    z 0.000000 0.000000 1.721600 
# 
# From -- ./inp_files/28450.got.cif
#   From: 2010.05.17/outbox.cif.g08.bks.cpg/sg69_15_cif.got.tgz:28450.got - 2010.06.03 19:29:58.
