data_PCOD9511690
_publ_section_title
;
Structure prediction by ZEFSAII (Michael W. Deem and Ramdas Pophale) SiO2 
 PCOD9511690
Probable space group: F M M M
;
_chemical_formula_sum "Si O2"
_cell_formula_units_Z 168
_cell_length_a 16.495289
_cell_length_b 28.631649
_cell_length_c 17.896130
_cell_angle_alpha 90.000000
_cell_angle_beta 90.000000
_cell_angle_gamma 90.000000
_cell_volume 8452.115362
_symmetry_space_group_name_H-M "F M M M"
_symmetry_group_IT_number 69
_symmetry_cell_setting 'orthorhombic'
loop_
_space_group_symop_operation_xyz
x,y,z
-x,-y,z
x,-y,-z
-x,y,-z
-x,-y,-z
x,y,-z
-x,y,z
x,-y,z
x,1/2+y,1/2+z
-x,1/2-y,1/2+z
x,1/2-y,1/2-z
-x,1/2+y,1/2-z
-x,1/2-y,1/2-z
x,1/2+y,1/2-z
-x,1/2+y,1/2+z
x,1/2-y,1/2+z
1/2+x,y,1/2+z
1/2-x,-y,1/2+z
1/2+x,-y,1/2-z
1/2-x,y,1/2-z
1/2-x,-y,1/2-z
1/2+x,y,1/2-z
1/2-x,y,1/2+z
1/2+x,-y,1/2+z
1/2+x,1/2+y,z
1/2-x,1/2-y,z
1/2+x,1/2-y,-z
1/2-x,1/2+y,-z
1/2-x,1/2-y,-z
1/2+x,1/2+y,-z
1/2-x,1/2+y,z
1/2+x,1/2-y,z
loop_
_atom_site_type_symbol
_atom_site_label
_atom_site_fract_x
_atom_site_fract_y
_atom_site_fract_z
Si Si1 0.345997 0.741950 0.164391
Si Si2 0.904540 0.838302 0.361824
Si Si3 0.097070 0.642692 0.312438
Si Si4 0.799819 0.448455 0.672657
Si Si5 0.500000 0.000000 0.859083
Si Si6 0.359321 0.065361 0.915386
O O1 0.376175 0.750000 0.250000
O O2 0.250000 0.750000 0.164089
O O3 0.382569 0.785160 0.119189
O O4 0.370118 0.689059 0.145712
O O5 0.881608 0.849035 0.275264
O O6 0.863835 0.878923 0.408596
O O7 0.000000 0.843846 0.368689
O O8 0.139374 0.594619 0.336112
O O9 0.000000 0.640441 0.318945
O O10 0.839302 0.500000 0.675153
O O11 0.750000 0.442310 0.750000
O O12 0.730276 0.448246 0.610010
O O13 0.572146 0.959357 0.864757
O O14 0.378328 0.051449 0.000000
#
# Coordination Sequence:
#
# PCOD9511690 Si02
#       6
#    32  32  32  32   8  32
#     4   9  17  29  52  79 113 152 190 238 290 346
#     4  10  19  32  52  83 115 149 191 236 289 353
#     4  10  20  35  56  84 118 156 196 245 299 353
#     4  11  23  38  56  84 118 153 199 252 302 352
#     4  12  25  40  58  88 126 166 203 234 299 382
#     4  12  23  38  60  86 121 160 196 242 301 366
#
# _framework density 19.876681000000001
#
# number of rings (size 3 to 8) (size 9 to 14) (size 15 to 20)
#    0.000    1.524    3.810    2.571    2.667    2.667 
#    0.000    0.000    0.000    5.714    0.000    1.333 
#    0.000    0.000    0.000    0.000    0.000    0.000 
#
# Total GULP energy -233896.134904 kJ/mol
# GULP energy per Si atom -5568.955593 kJ/mol
# Density = 1.983144 g / cm^3
# Si number density = 19.876681 Si / 1000 Ang^3
#
#
#
# Elastic Constant Matrix: (Units=GPa)
#
#
# Indices 1 2 3 4 5 6 
#
# 1 55.1873 64.0965 5.0486 0.0000 0.0000 0.0000
# 2 64.0965 231.7413 13.8345 0.0000 0.0000 0.0000
# 3 5.0486 13.8345 8.3904 0.0000 0.0000 0.0000
# 4 0.0000 0.0000 0.0000 -44.9648 0.0000 0.0000
# 5 0.0000 0.0000 0.0000 0.0000 1.5009 0.0000
# 6 0.0000 0.0000 0.0000 0.0000 0.0000 57.5760
#
#
#
# Elastic Compliance Matrix: (Units=1/GPa)
#
#
# Indices 1 2 3 4 5 6 
#
# 1 0.026837 -0.007164 -0.004336 0.000000 0.000000 0.000000
# 2 -0.007164 0.006699 -0.006734 0.000000 0.000000 0.000000
# 3 -0.004336 -0.006734 0.132897 0.000000 0.000000 0.000000
# 4 0.000000 0.000000 0.000000 -0.022240 0.000000 0.000000
# 5 0.000000 0.000000 0.000000 0.000000 0.666259 0.000000
# 6 0.000000 0.000000 0.000000 0.000000 0.000000 0.017368
#
#
# Mechanical properties :
#
#
# Convention : Reuss Voigt Hill
#
# Bulk Modulus (GPa) = 7.69442 51.25313 29.47378
# Shear Modulus (GPa) = 5.50896 16.97838 11.24367
#
# Velocity S-wave (km/s) = 1.66661 2.92582 2.38097
# Velocity P-wave (km/s) = 2.75371 6.10372 4.73489
#
# Compressibility (1/GPa) = 0.12996426
#
# Stress axis : x y z
#
# Youngs Moduli (GPa) = 37.26159 149.28391 7.52461
#
# Poissons Ratio (x) = 1.06947 0.03263
# Poissons Ratio (y) = 0.26694 0.05067
# Poissons Ratio (z) = 0.16157 1.00534
#
# Static dielectric constant tensor:
#      x y z
#    x 1.675640 0.000000 0.000000 
#    y 0.000000 1.770040 0.000000 
#    z 0.000000 0.000000 1.725930 
# 
# From -- ./inp_files/29989.got.cif
#   From: 2010.05.17/outbox.cif.g08.bks.cpg/sg69_15_cif.got.tgz:29989.got - 2010.06.03 19:29:58.
