data_PCOD9512624
_publ_section_title
;
Structure prediction by ZEFSAII (Michael W. Deem and Ramdas Pophale) SiO2 
 PCOD9512624
Probable space group: F M M M
;
_chemical_formula_sum "Si O2"
_cell_formula_units_Z 96
_cell_length_a 17.899211
_cell_length_b 13.450261
_cell_length_c 16.525847
_cell_angle_alpha 90.000000
_cell_angle_beta 90.000000
_cell_angle_gamma 90.000000
_cell_volume 3978.582125
_symmetry_space_group_name_H-M "F M M M"
_symmetry_group_IT_number 69
_symmetry_cell_setting 'orthorhombic'
loop_
_space_group_symop_operation_xyz
x,y,z
-x,-y,z
x,-y,-z
-x,y,-z
-x,-y,-z
x,y,-z
-x,y,z
x,-y,z
x,1/2+y,1/2+z
-x,1/2-y,1/2+z
x,1/2-y,1/2-z
-x,1/2+y,1/2-z
-x,1/2-y,1/2-z
x,1/2+y,1/2-z
-x,1/2+y,1/2+z
x,1/2-y,1/2+z
1/2+x,y,1/2+z
1/2-x,-y,1/2+z
1/2+x,-y,1/2-z
1/2-x,y,1/2-z
1/2-x,-y,1/2-z
1/2+x,y,1/2-z
1/2-x,y,1/2+z
1/2+x,-y,1/2+z
1/2+x,1/2+y,z
1/2-x,1/2-y,z
1/2+x,1/2-y,-z
1/2-x,1/2+y,-z
1/2-x,1/2-y,-z
1/2+x,1/2+y,-z
1/2-x,1/2+y,z
1/2+x,1/2-y,z
loop_
_atom_site_type_symbol
_atom_site_label
_atom_site_fract_x
_atom_site_fract_y
_atom_site_fract_z
Si Si1 0.417690 0.334914 0.362843
Si Si2 0.888142 0.889363 0.176065
Si Si3 0.257101 0.632479 0.588298
O O1 0.500000 0.364632 0.391328
O O2 0.412331 0.213361 0.368713
O O3 0.408971 0.365685 0.268561
O O4 0.345084 0.384522 0.402198
O O5 0.700712 0.896892 0.340985
O O6 0.917053 0.000000 0.153937
O O7 0.230381 0.599377 0.500000
O O8 0.250000 0.750000 0.588829
#
# Coordination Sequence:
#
# PCOD9512624 Si02
#       3
#    32  32  32
#     4  10  21  36  57  87 117 146 185 232 286 344
#     4  10  20  36  58  82 111 149 193 237 277 326
#     4   9  19  36  56  79 110 148 188 229 274 328
#
# _framework density 24.129200999999998
#
# number of rings (size 3 to 8) (size 9 to 14) (size 15 to 20)
#    0.000    2.333    0.000    3.000    0.000   10.667 
#    0.000    0.000    0.000    3.000    0.000   21.000 
#    0.000    0.000    0.000    0.000    0.000    0.000 
#
# Total GULP energy -133738.646753 kJ/mol
# GULP energy per Si atom -5572.443615 kJ/mol
# Density = 2.407428 g / cm^3
# Si number density = 24.129201 Si / 1000 Ang^3
#
#
#
# Elastic Constant Matrix: (Units=GPa)
#
#
# Indices 1 2 3 4 5 6 
#
# 1 215.3688 13.6932 32.2903 0.0000 0.0000 0.0000
# 2 13.6932 180.8534 -3.5278 0.0000 0.0000 0.0000
# 3 32.2903 -3.5278 32.4462 0.0000 0.0000 0.0000
# 4 0.0000 0.0000 0.0000 -71.9646 0.0000 0.0000
# 5 0.0000 0.0000 0.0000 0.0000 418.6445 0.0000
# 6 0.0000 0.0000 0.0000 0.0000 0.0000 -37.2947
#
#
#
# Elastic Compliance Matrix: (Units=1/GPa)
#
#
# Indices 1 2 3 4 5 6 
#
# 1 0.005507 -0.000525 -0.005537 0.000000 0.000000 0.000000
# 2 -0.000525 0.005591 0.001130 0.000000 0.000000 0.000000
# 3 -0.005537 0.001130 0.036454 0.000000 0.000000 0.000000
# 4 0.000000 0.000000 0.000000 -0.013896 0.000000 0.000000
# 5 0.000000 0.000000 0.000000 0.000000 0.002389 0.000000
# 6 0.000000 0.000000 0.000000 0.000000 0.000000 -0.026813
#
#
# Mechanical properties :
#
#
# Convention : Reuss Voigt Hill
#
# Bulk Modulus (GPa) = 26.53377 57.06441 41.79909
# Shear Modulus (GPa) = 157.93833 87.62456 122.78144
#
# Velocity S-wave (km/s) = 8.09922 6.03271 7.14111
# Velocity P-wave (km/s) = 9.92389 8.49857 9.23876
#
# Compressibility (1/GPa) = 0.03768782
#
# Stress axis : x y z
#
# Youngs Moduli (GPa) = 181.59372 178.85454 27.43190
#
# Poissons Ratio (x) = 0.09389 0.15190
# Poissons Ratio (y) = 0.09533 -0.03101
# Poissons Ratio (z) = 1.00556 -0.20217
#
# Static dielectric constant tensor:
#      x y z
#    x 1.941120 0.000000 0.000000 
#    y 0.000000 1.998450 0.000000 
#    z 0.000000 0.000000 1.875690 
# 
# From -- ./inp_files/8119.got.cif
#   From: 2010.05.17/outbox.cif.g08.bks.cpg/sg69_5_cif.got.tgz:8119.got - 2010.06.03 19:29:58.
