data_PCOD9512400
_publ_section_title
;
Structure prediction by ZEFSAII (Michael W. Deem and Ramdas Pophale) SiO2 
 PCOD9512400
Probable space group: F M M M
;
_chemical_formula_sum "Si O2"
_cell_formula_units_Z 176
_cell_length_a 21.084733
_cell_length_b 26.200693
_cell_length_c 15.315225
_cell_angle_alpha 90.000000
_cell_angle_beta 90.000000
_cell_angle_gamma 90.000000
_cell_volume 8460.660447
_symmetry_space_group_name_H-M "F M M M"
_symmetry_group_IT_number 69
_symmetry_cell_setting 'orthorhombic'
loop_
_space_group_symop_operation_xyz
x,y,z
-x,-y,z
x,-y,-z
-x,y,-z
-x,-y,-z
x,y,-z
-x,y,z
x,-y,z
x,1/2+y,1/2+z
-x,1/2-y,1/2+z
x,1/2-y,1/2-z
-x,1/2+y,1/2-z
-x,1/2-y,1/2-z
x,1/2+y,1/2-z
-x,1/2+y,1/2+z
x,1/2-y,1/2+z
1/2+x,y,1/2+z
1/2-x,-y,1/2+z
1/2+x,-y,1/2-z
1/2-x,y,1/2-z
1/2-x,-y,1/2-z
1/2+x,y,1/2-z
1/2-x,y,1/2+z
1/2+x,-y,1/2+z
1/2+x,1/2+y,z
1/2-x,1/2-y,z
1/2+x,1/2-y,-z
1/2-x,1/2+y,-z
1/2-x,1/2-y,-z
1/2+x,1/2+y,-z
1/2-x,1/2+y,z
1/2+x,1/2-y,z
loop_
_atom_site_type_symbol
_atom_site_label
_atom_site_fract_x
_atom_site_fract_y
_atom_site_fract_z
Si Si1 0.427296 0.808436 0.359234
Si Si2 0.121854 0.702194 0.832566
Si Si3 0.571904 0.598202 0.396476
Si Si4 0.750000 0.328495 0.250000
Si Si5 0.323139 0.890459 0.601531
Si Si6 0.642755 0.000000 0.899162
Si Si7 0.716783 0.000000 0.345534
O O1 0.500000 0.810038 0.386480
O O2 0.395382 0.753907 0.383173
O O3 0.421619 0.805211 0.253830
O O4 0.387693 0.857356 0.390487
O O5 0.108620 0.650820 0.884067
O O6 0.192826 0.702079 0.794846
O O7 0.566125 0.591415 0.500000
O O8 0.500000 0.599555 0.360563
O O9 0.612612 0.551136 0.358791
O O10 0.722069 0.362638 0.171622
O O11 0.302194 0.888277 0.500000
O O12 0.322840 0.949281 0.632265
O O13 0.718194 0.000000 0.900357
O O14 0.622872 0.000000 0.000000
O O15 0.750000 0.000000 0.250000
#
# Coordination Sequence:
#
# PCOD9512400 Si02
#       7
#    32  32  32  16  32  16  16
#     4  10  22  40  62  89 122 166 218 263 318 380
#     4  10  20  37  61  89 127 171 214 269 321 377
#     4  10  20  34  56  88 123 162 207 256 317 385
#     4  10  22  40  62  96 134 169 224 263 326 388
#     4  11  24  42  66  93 128 168 212 271 330 393
#     4  10  21  36  58  86 124 163 199 259 331 386
#     4  12  24  43  64  93 124 162 218 266 331 402
#
# _framework density 20.802157999999999
#
# number of rings (size 3 to 8) (size 9 to 14) (size 15 to 20)
#    0.000    1.636    0.909    4.364    2.545   10.182 
#    0.000    1.364    0.000    1.091    0.000    0.000 
#    0.000    0.000    0.000    0.000    0.000    0.000 
#
# Total GULP energy -245486.276314 kJ/mol
# GULP energy per Si atom -5579.233553 kJ/mol
# Density = 2.075481 g / cm^3
# Si number density = 20.802158 Si / 1000 Ang^3
#
#
#
# Elastic Constant Matrix: (Units=GPa)
#
#
# Indices 1 2 3 4 5 6 
#
# 1 137.9946 102.0898 20.8117 0.0000 0.0000 0.0000
# 2 102.0898 207.3255 25.4004 0.0000 0.0000 0.0000
# 3 20.8117 25.4004 79.0717 0.0000 0.0000 0.0000
# 4 0.0000 0.0000 0.0000 74.2795 0.0000 0.0000
# 5 0.0000 0.0000 0.0000 0.0000 8.1353 0.0000
# 6 0.0000 0.0000 0.0000 0.0000 0.0000 14.9774
#
#
#
# Elastic Compliance Matrix: (Units=1/GPa)
#
#
# Indices 1 2 3 4 5 6 
#
# 1 0.011519 -0.005518 -0.001259 0.000000 0.000000 0.000000
# 2 -0.005518 0.007664 -0.001010 0.000000 0.000000 0.000000
# 3 -0.001259 -0.001010 0.013303 0.000000 0.000000 0.000000
# 4 0.000000 0.000000 0.000000 0.013463 0.000000 0.000000
# 5 0.000000 0.000000 0.000000 0.000000 0.122921 0.000000
# 6 0.000000 0.000000 0.000000 0.000000 0.000000 0.066767
#
#
# Mechanical properties :
#
#
# Convention : Reuss Voigt Hill
#
# Bulk Modulus (GPa) = 59.12971 80.11063 69.62017
# Shear Modulus (GPa) = 19.46693 37.88444 28.67568
#
# Velocity S-wave (km/s) = 3.06242 4.27216 3.71684
# Velocity P-wave (km/s) = 6.40243 7.93281 7.20835
#
# Compressibility (1/GPa) = 0.01691197
#
# Stress axis : x y z
#
# Youngs Moduli (GPa) = 86.81642 130.48058 75.17364
#
# Poissons Ratio (x) = 0.71994 0.09466
# Poissons Ratio (y) = 0.47902 0.07590
# Poissons Ratio (z) = 0.10932 0.13174
#
# Static dielectric constant tensor:
#      x y z
#    x 1.755790 0.000000 0.000000 
#    y 0.000000 1.786760 0.000000 
#    z 0.000000 0.000000 1.826410 
# 
# From -- ./inp_files/23297.got.cif
#   From: 2010.05.17/outbox.cif.g08.bks.cpg/sg69_12_cif.got.tgz:23297.got - 2010.06.03 19:29:58.
