data_PCOD9512655
_publ_section_title
;
Structure prediction by ZEFSAII (Michael W. Deem and Ramdas Pophale) SiO2 
 PCOD9512655
Probable space group: F M M M
;
_chemical_formula_sum "Si O2"
_cell_formula_units_Z 128
_cell_length_a 25.953365
_cell_length_b 16.873244
_cell_length_c 16.000895
_cell_angle_alpha 90.000000
_cell_angle_beta 90.000000
_cell_angle_gamma 90.000000
_cell_volume 7007.071300
_symmetry_space_group_name_H-M "F M M M"
_symmetry_group_IT_number 69
_symmetry_cell_setting 'orthorhombic'
loop_
_space_group_symop_operation_xyz
x,y,z
-x,-y,z
x,-y,-z
-x,y,-z
-x,-y,-z
x,y,-z
-x,y,z
x,-y,z
x,1/2+y,1/2+z
-x,1/2-y,1/2+z
x,1/2-y,1/2-z
-x,1/2+y,1/2-z
-x,1/2-y,1/2-z
x,1/2+y,1/2-z
-x,1/2+y,1/2+z
x,1/2-y,1/2+z
1/2+x,y,1/2+z
1/2-x,-y,1/2+z
1/2+x,-y,1/2-z
1/2-x,y,1/2-z
1/2-x,-y,1/2-z
1/2+x,y,1/2-z
1/2-x,y,1/2+z
1/2+x,-y,1/2+z
1/2+x,1/2+y,z
1/2-x,1/2-y,z
1/2+x,1/2-y,-z
1/2-x,1/2+y,-z
1/2-x,1/2-y,-z
1/2+x,1/2+y,-z
1/2-x,1/2+y,z
1/2+x,1/2-y,z
loop_
_atom_site_type_symbol
_atom_site_label
_atom_site_fract_x
_atom_site_fract_y
_atom_site_fract_z
Si Si1 0.000000 0.905404 0.399698
Si Si2 0.368291 0.091721 0.351278
Si Si3 0.556867 0.404071 0.000000
Si Si4 0.095989 0.175733 0.691950
Si Si5 0.308930 0.261678 0.900086
O O1 0.949537 0.860465 0.363682
O O2 0.000000 0.901041 0.500000
O O3 0.000000 0.000000 0.376580
O O4 0.412654 0.117548 0.416743
O O5 0.386333 0.109232 0.257946
O O6 0.321890 0.148609 0.374629
O O7 0.357312 0.000000 0.364806
O O8 0.553713 0.500000 0.000000
O O9 0.500000 0.369947 0.000000
O O10 0.078272 0.250000 0.750000
O O11 0.146562 0.207986 0.642705
O O12 0.250000 0.250000 0.873401
O O13 0.312303 0.251401 0.000000
#
# Coordination Sequence:
#
# PCOD9512655 Si02
#       5
#    16  32  16  32  32
#     4  11  23  40  60  81 119 163 198 232 269 335
#     4  10  20  36  59  87 116 145 187 238 289 341
#     4   9  18  32  53  84 118 146 177 227 291 342
#     4  10  22  38  58  87 116 151 189 237 291 341
#     4  10  21  40  62  83 113 152 192 238 288 343
#
# _framework density 18.267261000000001
#
# number of rings (size 3 to 8) (size 9 to 14) (size 15 to 20)
#    0.000    2.000    1.250    1.875    1.750    4.500 
#    2.250    3.750    0.000    3.000    0.000    0.000 
#    0.000    0.000    0.000    0.000    0.000    0.000 
#
# Total GULP energy -178484.395228 kJ/mol
# GULP energy per Si atom -5577.637351 kJ/mol
# Density = 1.822568 g / cm^3
# Si number density = 18.267261 Si / 1000 Ang^3
#
#
#
# Elastic Constant Matrix: (Units=GPa)
#
#
# Indices 1 2 3 4 5 6 
#
# 1 170.0569 90.2438 70.4622 0.0000 0.0000 0.0000
# 2 90.2438 96.9737 44.9314 0.0000 0.0000 0.0000
# 3 70.4622 44.9314 100.8920 0.0000 0.0000 0.0000
# 4 0.0000 0.0000 0.0000 22.7533 0.0000 0.0000
# 5 0.0000 0.0000 0.0000 0.0000 22.1197 0.0000
# 6 0.0000 0.0000 0.0000 0.0000 0.0000 -44.1467
#
#
#
# Elastic Compliance Matrix: (Units=1/GPa)
#
#
# Indices 1 2 3 4 5 6 
#
# 1 0.013188 -0.010087 -0.004718 0.000000 0.000000 0.000000
# 2 -0.010087 0.020708 -0.002178 0.000000 0.000000 0.000000
# 3 -0.004718 -0.002178 0.014177 0.000000 0.000000 0.000000
# 4 0.000000 0.000000 0.000000 0.043950 0.000000 0.000000
# 5 0.000000 0.000000 0.000000 0.000000 0.045209 0.000000
# 6 0.000000 0.000000 0.000000 0.000000 0.000000 -0.022652
#
#
# Mechanical properties :
#
#
# Convention : Reuss Voigt Hill
#
# Bulk Modulus (GPa) = 70.88616 86.57749 78.73182
# Shear Modulus (GPa) = 32.62714 10.96427 21.79571
#
# Velocity S-wave (km/s) = 4.23081 2.45259 3.45796
# Velocity P-wave (km/s) = 7.92184 7.45104 7.69005
#
# Compressibility (1/GPa) = 0.01410713
#
# Stress axis : x y z
#
# Youngs Moduli (GPa) = 75.82588 48.29137 70.53823
#
# Poissons Ratio (x) = 0.48710 0.33283
# Poissons Ratio (y) = 0.76483 0.15360
# Poissons Ratio (z) = 0.35778 0.10516
#
# Static dielectric constant tensor:
#      x y z
#    x 1.776340 0.000000 0.000000 
#    y 0.000000 1.632030 0.000000 
#    z 0.000000 0.000000 1.639460 
# 
# From -- ./inp_files/15316.got.cif
#   From: 2010.05.17/outbox.cif.g08.bks.cpg/sg69_8_cif.got.tgz:15316.got - 2010.06.03 19:29:58.
