data_PCOD9512417
_publ_section_title
;
Structure prediction by ZEFSAII (Michael W. Deem and Ramdas Pophale) SiO2 
 PCOD9512417
Probable space group: F M M M
;
_chemical_formula_sum "Si O2"
_cell_formula_units_Z 144
_cell_length_a 28.171353
_cell_length_b 11.953338
_cell_length_c 21.537219
_cell_angle_alpha 90.000000
_cell_angle_beta 90.000000
_cell_angle_gamma 90.000000
_cell_volume 7252.479833
_symmetry_space_group_name_H-M "F M M M"
_symmetry_group_IT_number 69
_symmetry_cell_setting 'orthorhombic'
loop_
_space_group_symop_operation_xyz
x,y,z
-x,-y,z
x,-y,-z
-x,y,-z
-x,-y,-z
x,y,-z
-x,y,z
x,-y,z
x,1/2+y,1/2+z
-x,1/2-y,1/2+z
x,1/2-y,1/2-z
-x,1/2+y,1/2-z
-x,1/2-y,1/2-z
x,1/2+y,1/2-z
-x,1/2+y,1/2+z
x,1/2-y,1/2+z
1/2+x,y,1/2+z
1/2-x,-y,1/2+z
1/2+x,-y,1/2-z
1/2-x,y,1/2-z
1/2-x,-y,1/2-z
1/2+x,y,1/2-z
1/2-x,y,1/2+z
1/2+x,-y,1/2+z
1/2+x,1/2+y,z
1/2-x,1/2-y,z
1/2+x,1/2-y,-z
1/2-x,1/2+y,-z
1/2-x,1/2-y,-z
1/2+x,1/2+y,-z
1/2-x,1/2+y,z
1/2+x,1/2-y,z
loop_
_atom_site_type_symbol
_atom_site_label
_atom_site_fract_x
_atom_site_fract_y
_atom_site_fract_z
Si Si1 0.284609 0.000000 0.160961
Si Si2 0.674956 0.500000 0.200877
Si Si3 0.198797 0.694685 0.933104
Si Si4 0.881151 0.686923 0.371397
Si Si5 0.443707 0.134080 0.072981
Si Si6 0.944629 0.000000 0.072425
O O1 0.300961 0.892679 0.122421
O O2 0.309578 0.000000 0.227603
O O3 0.226851 0.000000 0.166885
O O4 0.644928 0.612680 0.182578
O O5 0.250000 0.750000 0.934444
O O6 0.161109 0.790693 0.919435
O O7 0.189077 0.641297 0.000000
O O8 0.909991 0.805089 0.376241
O O9 0.920880 0.606045 0.397257
O O10 0.500000 0.158983 0.082575
O O11 0.437803 0.000000 0.076837
O O12 0.432978 0.166113 0.000000
O O13 0.000000 0.000000 0.082297
O O14 0.934578 0.000000 0.000000
#
# Coordination Sequence:
#
# PCOD9512417 Si02
#       6
#    16  16  32  32  32  16
#     4  11  23  46  60  83 125 172 223 265 300 384
#     4  10  24  42  63  84 118 176 224 260 307 363
#     4  11  23  38  61  93 127 163 204 264 335 385
#     4  11  21  37  57  94 127 164 213 265 315 373
#     4   9  18  33  56  90 136 180 214 260 330 406
#     4  10  20  34  58  91 132 174 207 256 329 398
#
# _framework density 19.855277000000001
#
# number of rings (size 3 to 8) (size 9 to 14) (size 15 to 20)
#    0.000    1.667    2.222    3.667    1.556    2.667 
#    0.000    0.000    0.000    0.000    0.000   32.667 
#    0.000    0.000    0.000    0.000    0.000    0.000 
#
# Total GULP energy -200536.758791 kJ/mol
# GULP energy per Si atom -5570.465522 kJ/mol
# Density = 1.981009 g / cm^3
# Si number density = 19.855277 Si / 1000 Ang^3
#
#
#
# Elastic Constant Matrix: (Units=GPa)
#
#
# Indices 1 2 3 4 5 6 
#
# 1 198.7859 64.9133 47.0980 0.0000 0.0000 0.0000
# 2 64.9133 86.9822 44.7048 0.0000 0.0000 0.0000
# 3 47.0980 44.7048 101.5610 0.0000 0.0000 0.0000
# 4 0.0000 0.0000 0.0000 22.7174 0.0000 0.0000
# 5 0.0000 0.0000 0.0000 0.0000 30.4992 0.0000
# 6 0.0000 0.0000 0.0000 0.0000 0.0000 37.4746
#
#
#
# Elastic Compliance Matrix: (Units=1/GPa)
#
#
# Indices 1 2 3 4 5 6 
#
# 1 0.006759 -0.004437 -0.001181 0.000000 0.000000 0.000000
# 2 -0.004437 0.017771 -0.005765 0.000000 0.000000 0.000000
# 3 -0.001181 -0.005765 0.012932 0.000000 0.000000 0.000000
# 4 0.000000 0.000000 0.000000 0.044019 0.000000 0.000000
# 5 0.000000 0.000000 0.000000 0.000000 0.032788 0.000000
# 6 0.000000 0.000000 0.000000 0.000000 0.000000 0.026685
#
#
# Mechanical properties :
#
#
# Convention : Reuss Voigt Hill
#
# Bulk Modulus (GPa) = 68.04889 77.86236 72.95563
# Shear Modulus (GPa) = 29.65278 33.51244 31.58261
#
# Velocity S-wave (km/s) = 3.86871 4.11278 3.99261
# Velocity P-wave (km/s) = 7.36904 7.86469 7.62090
#
# Compressibility (1/GPa) = 0.01469532
#
# Stress axis : x y z
#
# Youngs Moduli (GPa) = 147.94139 56.27229 77.32991
#
# Poissons Ratio (x) = 0.24969 0.09136
# Poissons Ratio (y) = 0.65645 0.44577
# Poissons Ratio (z) = 0.17479 0.32438
#
# Static dielectric constant tensor:
#      x y z
#    x 1.710180 0.000000 0.000000 
#    y 0.000000 1.836800 0.000000 
#    z 0.000000 0.000000 1.699020 
# 
# From -- ./inp_files/38201.got.cif
#   From: 2010.05.17/outbox.cif.g08.bks.cpg/sg69_20_cif.got.tgz:38201.got - 2010.06.03 19:29:58.
