data_PCOD9512665
_publ_section_title
;
Structure prediction by ZEFSAII (Michael W. Deem and Ramdas Pophale) SiO2 
 PCOD9512665
Probable space group: F M M M
;
_chemical_formula_sum "Si O2"
_cell_formula_units_Z 116
_cell_length_a 30.244894
_cell_length_b 7.615991
_cell_length_c 25.013949
_cell_angle_alpha 90.000000
_cell_angle_beta 90.000000
_cell_angle_gamma 90.000000
_cell_volume 5761.834093
_symmetry_space_group_name_H-M "F M M M"
_symmetry_group_IT_number 69
_symmetry_cell_setting 'orthorhombic'
loop_
_space_group_symop_operation_xyz
x,y,z
-x,-y,z
x,-y,-z
-x,y,-z
-x,-y,-z
x,y,-z
-x,y,z
x,-y,z
x,1/2+y,1/2+z
-x,1/2-y,1/2+z
x,1/2-y,1/2-z
-x,1/2+y,1/2-z
-x,1/2-y,1/2-z
x,1/2+y,1/2-z
-x,1/2+y,1/2+z
x,1/2-y,1/2+z
1/2+x,y,1/2+z
1/2-x,-y,1/2+z
1/2+x,-y,1/2-z
1/2-x,y,1/2-z
1/2-x,-y,1/2-z
1/2+x,y,1/2-z
1/2-x,y,1/2+z
1/2+x,-y,1/2+z
1/2+x,1/2+y,z
1/2-x,1/2-y,z
1/2+x,1/2-y,-z
1/2-x,1/2+y,-z
1/2-x,1/2-y,-z
1/2+x,1/2+y,-z
1/2-x,1/2+y,z
1/2+x,1/2-y,z
loop_
_atom_site_type_symbol
_atom_site_label
_atom_site_fract_x
_atom_site_fract_y
_atom_site_fract_z
Si Si1 0.301663 0.792639 0.189248
Si Si2 0.000000 0.500000 0.500000
Si Si3 0.918167 0.780901 0.500000
Si Si4 0.050421 0.209549 0.188140
Si Si5 0.127287 0.298966 0.109097
O O1 0.315652 0.750000 0.250000
O O2 0.250000 0.750000 0.183370
O O3 0.332825 0.714182 0.143132
O O4 0.305993 0.000000 0.185617
O O5 0.961420 0.657839 0.500000
O O6 0.890007 0.731622 0.447336
O O7 0.926135 0.000000 0.500000
O O8 0.060143 0.250000 0.250000
O O9 0.085604 0.293991 0.149130
O O10 0.000000 0.268182 0.177429
O O11 0.052107 0.000000 0.180432
O O12 0.139957 0.500000 0.097884
#
# Coordination Sequence:
#
# PCOD9512665 Si02
#       5
#    32   4  16  32  32
#     4  10  20  36  59  90 120 156 199 247 309 374
#     4  12  26  44  68  94 120 164 230 252 312 364
#     4  10  25  45  64  91 127 165 211 265 309 363
#     4  10  21  34  52  79 112 147 190 239 294 362
#     4  10  22  39  59  82 117 157 197 250 309 361
#
# _framework density 20.132479
#
# number of rings (size 3 to 8) (size 9 to 14) (size 15 to 20)
#    0.000    1.931    0.000    3.517    3.862    6.069 
#    0.000    0.690    0.000    0.000    0.000    0.000 
#    0.000    0.000    0.000    0.000    0.000    0.000 
#
# Total GULP energy -161507.292598 kJ/mol
# GULP energy per Si atom -5569.216986 kJ/mol
# Density = 2.008666 g / cm^3
# Si number density = 20.132479 Si / 1000 Ang^3
#
#
#
# Elastic Constant Matrix: (Units=GPa)
#
#
# Indices 1 2 3 4 5 6 
#
# 1 112.1603 14.5255 101.7525 -0.0003 0.0002 0.0015
# 2 14.5255 77.3307 13.2031 -0.0003 0.0003 0.0021
# 3 101.7525 13.2031 138.2856 0.0000 0.0000 0.0001
# 4 -0.0003 -0.0003 0.0000 -16.4569 0.0001 0.0007
# 5 0.0002 0.0003 0.0000 0.0001 -9.0243 -0.0005
# 6 0.0015 0.0021 0.0001 0.0007 -0.0005 -35.4744
#
#
#
# Elastic Compliance Matrix: (Units=1/GPa)
#
#
# Indices 1 2 3 4 5 6 
#
# 1 0.027038 -0.001710 -0.019732 0.000000 0.000000 0.000001
# 2 -0.001710 0.013254 -0.000007 0.000000 0.000000 0.000001
# 3 -0.019732 -0.000007 0.021751 0.000000 0.000000 -0.000001
# 4 0.000000 0.000000 0.000000 -0.060765 -0.000001 -0.000001
# 5 0.000000 0.000000 0.000000 -0.000001 -0.110813 0.000002
# 6 0.000001 0.000001 -0.000001 -0.000001 0.000002 -0.028189
#
#
# Mechanical properties :
#
#
# Convention : Reuss Voigt Hill
#
# Bulk Modulus (GPa) = 52.23252 65.19321 58.71286
# Shear Modulus (GPa) = -56.53234 1.02860 -27.75187
#
# Velocity S-wave (km/s) = -5.30482 0.71556 -3.71679
# Velocity P-wave (km/s) = 3.39423 5.75631 3.28742
#
# Compressibility (1/GPa) = 0.01914516
#
# Stress axis : x y z
#
# Youngs Moduli (GPa) = 36.98517 75.44956 45.97514
#
# Poissons Ratio (x) = 0.12900 0.90716
# Poissons Ratio (y) = 0.06324 0.00034
# Poissons Ratio (z) = 0.72978 0.00055
#
# Static dielectric constant tensor:
#      x y z
#    x 1.863490 0.000000 0.000000 
#    y 0.000000 1.764430 0.000000 
#    z 0.000000 0.000000 1.719500 
# 
# From -- ./inp_files/4625.got.cif
#   From: 2010.05.17/outbox.cif.g08.bks.cpg/sg69_3_cif.got.tgz:4625.got - 2010.06.03 19:29:58.
