data_PCOD9512699
_publ_section_title
;
Structure prediction by ZEFSAII (Michael W. Deem and Ramdas Pophale) SiO2 
 PCOD9512699
Probable space group: F M M M
;
_chemical_formula_sum "Si O2"
_cell_formula_units_Z 224
_cell_length_a 16.960082
_cell_length_b 28.242416
_cell_length_c 23.144128
_cell_angle_alpha 90.000000
_cell_angle_beta 90.000000
_cell_angle_gamma 90.000000
_cell_volume 11085.891301
_symmetry_space_group_name_H-M "F M M M"
_symmetry_group_IT_number 69
_symmetry_cell_setting 'orthorhombic'
loop_
_space_group_symop_operation_xyz
x,y,z
-x,-y,z
x,-y,-z
-x,y,-z
-x,-y,-z
x,y,-z
-x,y,z
x,-y,z
x,1/2+y,1/2+z
-x,1/2-y,1/2+z
x,1/2-y,1/2-z
-x,1/2+y,1/2-z
-x,1/2-y,1/2-z
x,1/2+y,1/2-z
-x,1/2+y,1/2+z
x,1/2-y,1/2+z
1/2+x,y,1/2+z
1/2-x,-y,1/2+z
1/2+x,-y,1/2-z
1/2-x,y,1/2-z
1/2-x,-y,1/2-z
1/2+x,y,1/2-z
1/2-x,y,1/2+z
1/2+x,-y,1/2+z
1/2+x,1/2+y,z
1/2-x,1/2-y,z
1/2+x,1/2-y,-z
1/2-x,1/2+y,-z
1/2-x,1/2-y,-z
1/2+x,1/2+y,-z
1/2-x,1/2+y,z
1/2+x,1/2-y,z
loop_
_atom_site_type_symbol
_atom_site_label
_atom_site_fract_x
_atom_site_fract_y
_atom_site_fract_z
Si Si1 0.314190 0.553677 0.669955
Si Si2 0.089088 0.391060 0.733100
Si Si3 0.406274 0.587642 0.565330
Si Si4 0.914143 0.790818 0.296260
Si Si5 0.844692 0.742661 0.500000
Si Si6 0.681068 0.877379 0.383458
Si Si7 0.324750 0.686918 0.597528
Si Si8 0.594793 0.365444 0.000000
O O1 0.289751 0.500000 0.681392
O O2 0.352096 0.576897 0.727754
O O3 0.378167 0.555250 0.618084
O O4 0.244067 0.584685 0.641604
O O5 0.084233 0.341765 0.766800
O O6 0.120488 0.376482 0.669834
O O7 0.000000 0.411493 0.730249
O O8 0.379369 0.574383 0.500000
O O9 0.500000 0.589716 0.564880
O O10 0.371306 0.639179 0.580665
O O11 0.904976 0.750000 0.250000
O O12 0.843257 0.793574 0.339899
O O13 0.000000 0.783884 0.325464
O O14 0.750000 0.750000 0.500000
O O15 0.861686 0.773534 0.443794
O O16 0.881306 0.690697 0.500000
O O17 0.733752 0.830752 0.400088
O O18 0.634418 0.887745 0.442580
O O19 0.500000 0.369756 0.000000
#
# Coordination Sequence:
#
# PCOD9512699 Si02
#       8
#    32  32  32  32  16  32  32  16
#     4  11  25  43  71 101 130 170 221 281 353 423
#     4  11  23  42  65  97 138 176 221 281 346 408
#     4  10  20  36  61  94 134 175 213 264 339 414
#     4  10  22  37  58  91 133 179 225 268 330 405
#     4  12  24  40  62  98 131 174 234 283 320 386
#     4  11  24  44  69  94 133 177 224 280 340 406
#     4  11  21  38  63  90 133 176 225 278 333 393
#     4  12  28  48  71  99 137 187 235 285 341 400
#
# _framework density 20.205862
#
# number of rings (size 3 to 8) (size 9 to 14) (size 15 to 20)
#    0.000    1.143    5.000    1.714    5.000    3.714 
#    0.000    1.429    0.000    1.714    0.000    0.000 
#    0.000    0.000    0.000    0.000    0.000    0.000 
#
# Total GULP energy -312167.495671 kJ/mol
# GULP energy per Si atom -5574.419566 kJ/mol
# Density = 2.015987 g / cm^3
# Si number density = 20.205862 Si / 1000 Ang^3
#
#
#
# Elastic Constant Matrix: (Units=GPa)
#
#
# Indices 1 2 3 4 5 6 
#
# 1 95.9903 5.0238 39.2239 0.0000 0.0000 0.0000
# 2 5.0238 52.5388 14.0098 0.0000 0.0000 0.0000
# 3 39.2239 14.0098 113.3364 0.0000 0.0000 0.0000
# 4 0.0000 0.0000 0.0000 19.0308 0.0000 0.0000
# 5 0.0000 0.0000 0.0000 0.0000 53.4277 0.0000
# 6 0.0000 0.0000 0.0000 0.0000 0.0000 10.7469
#
#
#
# Elastic Compliance Matrix: (Units=1/GPa)
#
#
# Indices 1 2 3 4 5 6 
#
# 1 0.012134 -0.000042 -0.004194 0.000000 0.000000 0.000000
# 2 -0.000042 0.019682 -0.002419 0.000000 0.000000 0.000000
# 3 -0.004194 -0.002419 0.010574 0.000000 0.000000 0.000000
# 4 0.000000 0.000000 0.000000 0.052546 0.000000 0.000000
# 5 0.000000 0.000000 0.000000 0.000000 0.018717 0.000000
# 6 0.000000 0.000000 0.000000 0.000000 0.000000 0.093050
#
#
# Mechanical properties :
#
#
# Convention : Reuss Voigt Hill
#
# Bulk Modulus (GPa) = 34.38674 42.04229 38.21451
# Shear Modulus (GPa) = 21.76697 30.21496 25.99097
#
# Velocity S-wave (km/s) = 3.28573 3.87118 3.59040
# Velocity P-wave (km/s) = 5.60801 6.39011 6.01179
#
# Compressibility (1/GPa) = 0.02908098
#
# Stress axis : x y z
#
# Youngs Moduli (GPa) = 82.41498 50.80668 94.57369
#
# Poissons Ratio (x) = 0.00213 0.39665
# Poissons Ratio (y) = 0.00345 0.22873
# Poissons Ratio (z) = 0.34566 0.12288
#
# Static dielectric constant tensor:
#      x y z
#    x 1.810890 0.000000 0.000000 
#    y 0.000000 1.600400 0.000000 
#    z 0.000000 0.000000 1.719260 
# 
# From -- ./inp_files/31231.got.cif
#   From: 2010.05.17/outbox.cif.g08.bks.cpg/sg69_16_cif.got.tgz:31231.got - 2010.06.03 19:29:58.
