data_PCOD9512496
_publ_section_title
;
Structure prediction by ZEFSAII (Michael W. Deem and Ramdas Pophale) SiO2 
 PCOD9512496
Probable space group: F M M M
;
_chemical_formula_sum "Si O2"
_cell_formula_units_Z 112
_cell_length_a 28.810674
_cell_length_b 28.277843
_cell_length_c 7.891844
_cell_angle_alpha 90.000000
_cell_angle_beta 90.000000
_cell_angle_gamma 90.000000
_cell_volume 6429.514634
_symmetry_space_group_name_H-M "F M M M"
_symmetry_group_IT_number 69
_symmetry_cell_setting 'orthorhombic'
loop_
_space_group_symop_operation_xyz
x,y,z
-x,-y,z
x,-y,-z
-x,y,-z
-x,-y,-z
x,y,-z
-x,y,z
x,-y,z
x,1/2+y,1/2+z
-x,1/2-y,1/2+z
x,1/2-y,1/2-z
-x,1/2+y,1/2-z
-x,1/2-y,1/2-z
x,1/2+y,1/2-z
-x,1/2+y,1/2+z
x,1/2-y,1/2+z
1/2+x,y,1/2+z
1/2-x,-y,1/2+z
1/2+x,-y,1/2-z
1/2-x,y,1/2-z
1/2-x,-y,1/2-z
1/2+x,y,1/2-z
1/2-x,y,1/2+z
1/2+x,-y,1/2+z
1/2+x,1/2+y,z
1/2-x,1/2-y,z
1/2+x,1/2-y,-z
1/2-x,1/2+y,-z
1/2-x,1/2-y,-z
1/2+x,1/2+y,-z
1/2-x,1/2+y,z
1/2+x,1/2-y,z
loop_
_atom_site_type_symbol
_atom_site_label
_atom_site_fract_x
_atom_site_fract_y
_atom_site_fract_z
Si Si1 0.553225 0.195393 0.703020
Si Si2 0.944802 0.446109 0.500000
Si Si3 0.697756 0.553725 0.297386
Si Si4 0.894672 0.605770 0.803067
O O1 0.555379 0.190254 0.500000
O O2 0.500000 0.183239 0.756360
O O3 0.560822 0.250000 0.750000
O O4 0.590542 0.160310 0.784259
O O5 0.928291 0.500000 0.500000
O O6 0.927021 0.421025 0.330525
O O7 0.000000 0.444906 0.500000
O O8 0.696453 0.550776 0.500000
O O9 0.689135 0.500000 0.230625
O O10 0.750000 0.567569 0.250000
O O11 0.657431 0.590411 0.250239
O O12 0.901374 0.591726 0.000000
#
# Coordination Sequence:
#
# PCOD9512496 Si02
#       4
#    32  16  32  32
#     4  10  20  35  56  83 112 145 189 237 285 338
#     4  11  24  38  54  80 114 155 196 230 276 343
#     4   9  19  34  54  81 109 143 188 235 285 337
#     4  11  22  37  57  82 115 151 189 236 287 338
#
# _framework density 17.419668000000001
#
# number of rings (size 3 to 8) (size 9 to 14) (size 15 to 20)
#    0.000    1.857    1.429    2.571    2.000    5.143 
#    0.000    1.429    0.000    0.857    0.000    6.000 
#    0.000    0.000    0.000    0.000    0.000    0.000 
#
# Total GULP energy -156190.006992 kJ/mol
# GULP energy per Si atom -5578.214535 kJ/mol
# Density = 1.738002 g / cm^3
# Si number density = 17.419668 Si / 1000 Ang^3
#
#
#
# Elastic Constant Matrix: (Units=GPa)
#
#
# Indices 1 2 3 4 5 6 
#
# 1 117.4512 72.0941 26.0074 -0.0063 0.0160 0.0020
# 2 72.0941 101.2720 24.2649 -0.0092 0.0131 0.0092
# 3 26.0074 24.2649 70.9998 -0.0058 0.0294 0.0122
# 4 -0.0063 -0.0092 -0.0058 26.2074 0.0150 0.0081
# 5 0.0160 0.0131 0.0294 0.0150 15.1453 -0.0173
# 6 0.0020 0.0092 0.0122 0.0081 -0.0173 32.2427
#
#
#
# Elastic Compliance Matrix: (Units=1/GPa)
#
#
# Indices 1 2 3 4 5 6 
#
# 1 0.015394 -0.010465 -0.002063 0.000000 -0.000003 0.000003
# 2 -0.010465 0.017869 -0.002274 0.000003 0.000000 -0.000004
# 3 -0.002063 -0.002274 0.015617 0.000002 -0.000026 -0.000005
# 4 0.000000 0.000003 0.000002 0.038157 -0.000038 -0.000010
# 5 -0.000003 0.000000 -0.000026 -0.000038 0.066027 0.000035
# 6 0.000003 -0.000004 -0.000005 -0.000010 0.000035 0.031015
#
#
# Mechanical properties :
#
#
# Convention : Reuss Voigt Hill
#
# Bulk Modulus (GPa) = 51.87131 59.38395 55.62763
# Shear Modulus (GPa) = 22.71615 25.87621 24.29618
#
# Velocity S-wave (km/s) = 3.61508 3.85835 3.73869
# Velocity P-wave (km/s) = 6.87511 7.34937 7.11620
#
# Compressibility (1/GPa) = 0.01927848
#
# Stress axis : x y z
#
# Youngs Moduli (GPa) = 64.95829 55.96285 64.03241
#
# Poissons Ratio (x) = 0.58565 0.13207
# Poissons Ratio (y) = 0.67978 0.14558
# Poissons Ratio (z) = 0.13398 0.12724
#
# Static dielectric constant tensor:
#      x y z
#    x 1.589340 0.000000 -0.000010 
#    y 0.000000 1.609770 0.000000 
#    z -0.000010 0.000000 1.610060 
# 
# From -- ./inp_files/4708.got.cif
#   From: 2010.05.17/outbox.cif.g08.bks.cpg/sg69_3_cif.got.tgz:4708.got - 2010.06.03 19:29:58.
