data_PCOD9512610
_publ_section_title
;
Structure prediction by ZEFSAII (Michael W. Deem and Ramdas Pophale) SiO2 
 PCOD9512610
Probable space group: F M M M
;
_chemical_formula_sum "Si O2"
_cell_formula_units_Z 240
_cell_length_a 28.434399
_cell_length_b 20.607691
_cell_length_c 21.383503
_cell_angle_alpha 90.000000
_cell_angle_beta 90.000000
_cell_angle_gamma 90.000000
_cell_volume 12530.033696
_symmetry_space_group_name_H-M "F M M M"
_symmetry_group_IT_number 69
_symmetry_cell_setting 'orthorhombic'
loop_
_space_group_symop_operation_xyz
x,y,z
-x,-y,z
x,-y,-z
-x,y,-z
-x,-y,-z
x,y,-z
-x,y,z
x,-y,z
x,1/2+y,1/2+z
-x,1/2-y,1/2+z
x,1/2-y,1/2-z
-x,1/2+y,1/2-z
-x,1/2-y,1/2-z
x,1/2+y,1/2-z
-x,1/2+y,1/2+z
x,1/2-y,1/2+z
1/2+x,y,1/2+z
1/2-x,-y,1/2+z
1/2+x,-y,1/2-z
1/2-x,y,1/2-z
1/2-x,-y,1/2-z
1/2+x,y,1/2-z
1/2-x,y,1/2+z
1/2+x,-y,1/2+z
1/2+x,1/2+y,z
1/2-x,1/2-y,z
1/2+x,1/2-y,-z
1/2-x,1/2+y,-z
1/2-x,1/2-y,-z
1/2+x,1/2+y,-z
1/2-x,1/2+y,z
1/2+x,1/2-y,z
loop_
_atom_site_type_symbol
_atom_site_label
_atom_site_fract_x
_atom_site_fract_y
_atom_site_fract_z
Si Si1 0.631958 0.629160 0.340449
Si Si2 0.729205 0.323631 0.073136
Si Si3 0.551482 0.077946 0.071217
Si Si4 0.640999 0.745104 0.428623
Si Si5 0.947138 0.827827 0.754545
Si Si6 0.556964 0.571564 0.000000
Si Si7 0.266996 0.923764 0.821035
Si Si8 0.445520 0.674958 0.100342
O O1 0.596295 0.598130 0.389910
O O2 0.651986 0.692735 0.375701
O O3 0.597010 0.646284 0.283859
O O4 0.676603 0.586342 0.322732
O O5 0.750000 0.250000 0.081654
O O6 0.673649 0.308384 0.079067
O O7 0.746036 0.375550 0.125061
O O8 0.739372 0.342241 0.000000
O O9 0.500000 0.100724 0.094489
O O10 0.550011 0.000000 0.070584
O O11 0.556297 0.100846 0.000000
O O12 0.648390 0.721631 0.500000
O O13 0.587289 0.765457 0.418018
O O14 0.946957 0.750000 0.750000
O O15 0.941449 0.842390 0.827391
O O16 0.000000 0.849831 0.734977
O O17 0.569690 0.613838 0.059604
O O18 0.576945 0.500000 0.000000
O O19 0.500000 0.567065 0.000000
O O20 0.250000 0.907673 0.750000
O O21 0.255764 0.000000 0.833006
O O22 0.500000 0.690138 0.087010
#
# Coordination Sequence:
#
# PCOD9512610 Si02
#       8
#    32  32  32  32  32  16  32  32
#     4  12  22  37  63  89 123 166 208 252 318 376
#     4  10  22  44  69  95 126 161 206 266 327 391
#     4   9  19  36  57  86 126 167 207 248 290 353
#     4  11  22  36  61  95 125 154 201 257 314 378
#     4  10  21  35  53  86 129 168 208 251 305 372
#     4   9  18  36  60  82 111 160 217 263 308 363
#     4  11  27  47  66  94 129 165 216 275 329 393
#     4  10  20  36  57  86 125 165 204 255 308 365
#
# _framework density 19.153979
#
# number of rings (size 3 to 8) (size 9 to 14) (size 15 to 20)
#    0.000    1.667    3.333    1.600    1.867    1.600 
#    0.000    2.000    0.000    3.200    0.000    0.000 
#    0.000    0.000    0.000    0.000    0.000    0.000 
#
# Total GULP energy -334597.690782 kJ/mol
# GULP energy per Si atom -5576.628180 kJ/mol
# Density = 1.911038 g / cm^3
# Si number density = 19.153979 Si / 1000 Ang^3
#
#
#
# Elastic Constant Matrix: (Units=GPa)
#
#
# Indices 1 2 3 4 5 6 
#
# 1 107.5129 20.0650 50.6111 0.0000 0.0000 0.0000
# 2 20.0650 70.3567 55.4712 0.0000 0.0000 0.0000
# 3 50.6111 55.4712 143.5692 0.0000 0.0000 0.0000
# 4 0.0000 0.0000 0.0000 27.5531 0.0000 0.0000
# 5 0.0000 0.0000 0.0000 0.0000 29.5274 0.0000
# 6 0.0000 0.0000 0.0000 0.0000 0.0000 28.5994
#
#
#
# Elastic Compliance Matrix: (Units=1/GPa)
#
#
# Indices 1 2 3 4 5 6 
#
# 1 0.011152 -0.000116 -0.003887 0.000000 0.000000 0.000000
# 2 -0.000116 0.020441 -0.007857 0.000000 0.000000 0.000000
# 3 -0.003887 -0.007857 0.011371 0.000000 0.000000 0.000000
# 4 0.000000 0.000000 0.000000 0.036294 0.000000 0.000000
# 5 0.000000 0.000000 0.000000 0.000000 0.033867 0.000000
# 6 0.000000 0.000000 0.000000 0.000000 0.000000 0.034966
#
#
# Mechanical properties :
#
#
# Convention : Reuss Voigt Hill
#
# Bulk Modulus (GPa) = 51.96116 63.74815 57.85465
# Shear Modulus (GPa) = 28.05442 30.15543 29.10492
#
# Velocity S-wave (km/s) = 3.83126 3.97214 3.90234
# Velocity P-wave (km/s) = 6.83802 7.37505 7.11160
#
# Compressibility (1/GPa) = 0.01924514
#
# Stress axis : x y z
#
# Youngs Moduli (GPa) = 89.66612 48.92126 87.94280
#
# Poissons Ratio (x) = 0.00569 0.34179
# Poissons Ratio (y) = 0.01043 0.69095
# Poissons Ratio (z) = 0.34849 0.38437
#
# Static dielectric constant tensor:
#      x y z
#    x 1.709350 0.000000 0.000000 
#    y 0.000000 1.781860 0.000000 
#    z 0.000000 0.000000 1.670050 
# 
# From -- ./inp_files/33566.got.cif
#   From: 2010.05.17/outbox.cif.g08.bks.cpg/sg69_17_cif.got.tgz:33566.got - 2010.06.03 19:29:58.
