data_PCOD9512539
_publ_section_title
;
Structure prediction by ZEFSAII (Michael W. Deem and Ramdas Pophale) SiO2 
 PCOD9512539
Probable space group: F M M M
;
_chemical_formula_sum "Si O2"
_cell_formula_units_Z 176
_cell_length_a 31.174380
_cell_length_b 26.054509
_cell_length_c 11.040005
_cell_angle_alpha 90.000000
_cell_angle_beta 90.000000
_cell_angle_gamma 90.000000
_cell_volume 8967.058195
_symmetry_space_group_name_H-M "F M M M"
_symmetry_group_IT_number 69
_symmetry_cell_setting 'orthorhombic'
loop_
_space_group_symop_operation_xyz
x,y,z
-x,-y,z
x,-y,-z
-x,y,-z
-x,-y,-z
x,y,-z
-x,y,z
x,-y,z
x,1/2+y,1/2+z
-x,1/2-y,1/2+z
x,1/2-y,1/2-z
-x,1/2+y,1/2-z
-x,1/2-y,1/2-z
x,1/2+y,1/2-z
-x,1/2+y,1/2+z
x,1/2-y,1/2+z
1/2+x,y,1/2+z
1/2-x,-y,1/2+z
1/2+x,-y,1/2-z
1/2-x,y,1/2-z
1/2-x,-y,1/2-z
1/2+x,y,1/2-z
1/2-x,y,1/2+z
1/2+x,-y,1/2+z
1/2+x,1/2+y,z
1/2-x,1/2-y,z
1/2+x,1/2-y,-z
1/2-x,1/2+y,-z
1/2-x,1/2-y,-z
1/2+x,1/2+y,-z
1/2-x,1/2+y,z
1/2+x,1/2-y,z
loop_
_atom_site_type_symbol
_atom_site_label
_atom_site_fract_x
_atom_site_fract_y
_atom_site_fract_z
Si Si1 0.081072 0.233284 0.629721
Si Si2 0.000000 0.558334 0.854678
Si Si3 0.779431 0.114301 0.132753
Si Si4 0.409984 0.388829 0.640383
Si Si5 0.322578 0.276012 0.129732
Si Si6 0.136794 0.559562 0.363881
O O1 0.059820 0.242385 0.500000
O O2 0.056832 0.250000 0.750000
O O3 0.091059 0.172836 0.639030
O O4 0.126342 0.264539 0.629761
O O5 0.042838 0.589834 0.826863
O O6 0.000000 0.500000 0.804809
O O7 0.000000 0.553820 0.000000
O O8 0.750000 0.115594 0.250000
O O9 0.809877 0.164731 0.134802
O O10 0.812001 0.066931 0.137754
O O11 0.757285 0.114617 0.000000
O O12 0.399987 0.405143 0.500000
O O13 0.380575 0.410407 0.747311
O O14 0.304556 0.250000 0.250000
O O15 0.306512 0.255025 0.000000
O O16 0.122826 0.577565 0.500000
O O17 0.124849 0.500000 0.352945
#
# Coordination Sequence:
#
# PCOD9512539 Si02
#       6
#    32  16  32  32  32  32
#     4   9  17  30  51  77 105 140 180 220 265 320
#     4   9  18  34  56  83 117 151 183 229 284 327
#     4  10  22  38  54  75 106 142 181 227 278 331
#     4  10  20  35  58  86 113 146 190 233 273 327
#     4   9  17  30  48  70  97 130 168 212 261 313
#     4  10  21  37  57  81 110 144 182 229 287 342
#
# _framework density 19.627395
#
# number of rings (size 3 to 8) (size 9 to 14) (size 15 to 20)
#    0.000    2.455    0.000    2.727    0.000    5.455 
#    0.000    2.727    0.000    1.636    0.000    0.000 
#    0.000    0.000    0.000    0.000    0.000    0.000 
#
# Total GULP energy -245032.807160 kJ/mol
# GULP energy per Si atom -5568.927435 kJ/mol
# Density = 1.958272 g / cm^3
# Si number density = 19.627395 Si / 1000 Ang^3
#
#
#
# Elastic Constant Matrix: (Units=GPa)
#
#
# Indices 1 2 3 4 5 6 
#
# 1 51.5585 10.2422 33.8413 0.0000 0.0004 0.0000
# 2 10.2422 30.9884 42.2494 -0.0001 0.0002 0.0000
# 3 33.8413 42.2494 206.7029 0.0005 0.0010 0.0002
# 4 0.0000 -0.0001 0.0005 27.0951 0.0008 0.0001
# 5 0.0004 0.0002 0.0010 0.0008 -27.6657 -0.0009
# 6 0.0000 0.0000 0.0002 0.0001 -0.0009 41.6732
#
#
#
# Elastic Compliance Matrix: (Units=1/GPa)
#
#
# Indices 1 2 3 4 5 6 
#
# 1 0.021967 -0.003268 -0.002928 0.000000 0.000000 0.000000
# 2 -0.003268 0.045223 -0.008709 0.000000 0.000000 0.000000
# 3 -0.002928 -0.008709 0.007097 0.000000 0.000000 0.000000
# 4 0.000000 0.000000 0.000000 0.036907 0.000001 0.000000
# 5 0.000000 0.000000 0.000000 0.000001 -0.036146 -0.000001
# 6 0.000000 0.000000 0.000000 0.000000 -0.000001 0.023996
#
#
# Mechanical properties :
#
#
# Convention : Reuss Voigt Hill
#
# Bulk Modulus (GPa) = 22.48304 51.32395 36.90349
# Shear Modulus (GPa) = 34.79949 21.74831 28.27390
#
# Velocity S-wave (km/s) = 4.21528 3.33236 3.79955
# Velocity P-wave (km/s) = 5.93053 6.40407 6.17184
#
# Compressibility (1/GPa) = 0.04447798
#
# Stress axis : x y z
#
# Youngs Moduli (GPa) = 45.52339 22.11245 140.89863
#
# Poissons Ratio (x) = 0.07226 0.41262
# Poissons Ratio (y) = 0.14876 1.22702
# Poissons Ratio (z) = 0.13331 0.19257
#
# Static dielectric constant tensor:
#      x y z
#    x 1.679570 0.000000 0.000000 
#    y 0.000000 1.696330 0.000000 
#    z 0.000000 0.000000 1.759230 
# 
# From -- ./inp_files/12344.got.cif
#   From: 2010.05.17/outbox.cif.g08.bks.cpg/sg69_7_cif.got.tgz:12344.got - 2010.06.03 19:29:58.
