data_PCOD9512191
_publ_section_title
;
Structure prediction by ZEFSAII (Michael W. Deem and Ramdas Pophale) SiO2 
 PCOD9512191
Probable space group: F M M M
;
_chemical_formula_sum "Si O2"
_cell_formula_units_Z 192
_cell_length_a 20.888241
_cell_length_b 14.432311
_cell_length_c 28.768487
_cell_angle_alpha 90.000000
_cell_angle_beta 90.000000
_cell_angle_gamma 90.000000
_cell_volume 8672.708917
_symmetry_space_group_name_H-M "F M M M"
_symmetry_group_IT_number 69
_symmetry_cell_setting 'orthorhombic'
loop_
_space_group_symop_operation_xyz
x,y,z
-x,-y,z
x,-y,-z
-x,y,-z
-x,-y,-z
x,y,-z
-x,y,z
x,-y,z
x,1/2+y,1/2+z
-x,1/2-y,1/2+z
x,1/2-y,1/2-z
-x,1/2+y,1/2-z
-x,1/2-y,1/2-z
x,1/2+y,1/2-z
-x,1/2+y,1/2+z
x,1/2-y,1/2+z
1/2+x,y,1/2+z
1/2-x,-y,1/2+z
1/2+x,-y,1/2-z
1/2-x,y,1/2-z
1/2-x,-y,1/2-z
1/2+x,y,1/2-z
1/2-x,y,1/2+z
1/2+x,-y,1/2+z
1/2+x,1/2+y,z
1/2-x,1/2-y,z
1/2+x,1/2-y,-z
1/2-x,1/2+y,-z
1/2-x,1/2-y,-z
1/2+x,1/2+y,-z
1/2-x,1/2+y,z
1/2+x,1/2-y,z
loop_
_atom_site_type_symbol
_atom_site_label
_atom_site_fract_x
_atom_site_fract_y
_atom_site_fract_z
Si Si1 0.680120 0.613151 0.946924
Si Si2 0.071273 0.887014 0.553469
Si Si3 0.927087 0.112190 0.125969
Si Si4 0.072679 0.145259 0.232777
Si Si5 0.300214 0.106071 0.213712
Si Si6 0.193961 0.886475 0.390049
O O1 0.679428 0.500000 0.948482
O O2 0.621609 0.641742 0.913960
O O3 0.746089 0.639662 0.921858
O O4 0.675932 0.646162 0.000000
O O5 0.082168 0.858824 0.500000
O O6 0.127784 0.856462 0.586728
O O7 0.000000 0.857860 0.567869
O O8 0.071569 0.000000 0.553495
O O9 0.909373 0.141106 0.178381
O O10 0.000000 0.142384 0.117004
O O11 0.926403 0.000000 0.126498
O O12 0.069396 0.250000 0.250000
O O13 0.129496 0.103469 0.263519
O O14 0.000000 0.106297 0.237239
O O15 0.250000 0.147722 0.250000
O O16 0.300822 0.148859 0.162561
O O17 0.278220 0.000000 0.206293
O O18 0.192604 0.000000 0.389060
#
# Coordination Sequence:
#
# PCOD9512191 Si02
#       6
#    32  32  32  32  32  32
#     4   9  16  26  43  69 101 133 163 199 246 302
#     4   8  13  21  33  51  78 110 142 178 221 269
#     4   9  17  30  49  73 102 133 164 205 257 307
#     4  10  21  36  53  74 100 133 174 216 260 312
#     4  10  20  33  50  73 101 132 167 208 254 305
#     4   9  16  25  39  61  89 121 156 193 234 282
#
# _framework density 22.138411000000001
#
# number of rings (size 3 to 8) (size 9 to 14) (size 15 to 20)
#    0.000    2.833    0.000    2.500    0.000    7.000 
#    0.000    3.333    0.000    0.000    0.000    3.500 
#    0.000    2.667    0.000    0.000    0.000    0.167 
#
# Total GULP energy -268148.012263 kJ/mol
# GULP energy per Si atom -5586.416922 kJ/mol
# Density = 2.208802 g / cm^3
# Si number density = 22.138411 Si / 1000 Ang^3
#
#
#
# Elastic Constant Matrix: (Units=GPa)
#
#
# Indices 1 2 3 4 5 6 
#
# 1 108.0681 14.0113 106.0846 0.0000 0.0000 0.0000
# 2 14.0113 63.1625 21.4233 0.0000 0.0000 0.0000
# 3 106.0846 21.4233 204.8752 0.0000 0.0000 0.0000
# 4 0.0000 0.0000 0.0000 -34.3685 0.0000 0.0000
# 5 0.0000 0.0000 0.0000 0.0000 44.0570 0.0000
# 6 0.0000 0.0000 0.0000 0.0000 0.0000 -2.9196
#
#
#
# Elastic Compliance Matrix: (Units=1/GPa)
#
#
# Indices 1 2 3 4 5 6 
#
# 1 0.018869 -0.000904 -0.009676 0.000000 0.000000 0.000000
# 2 -0.000904 0.016458 -0.001253 0.000000 0.000000 0.000000
# 3 -0.009676 -0.001253 0.010022 0.000000 0.000000 0.000000
# 4 0.000000 0.000000 0.000000 -0.029096 0.000000 0.000000
# 5 0.000000 0.000000 0.000000 0.000000 0.022698 0.000000
# 6 0.000000 0.000000 0.000000 0.000000 0.000000 -0.342518
#
#
# Mechanical properties :
#
#
# Convention : Reuss Voigt Hill
#
# Bulk Modulus (GPa) = 46.11797 73.23823 59.67810
# Shear Modulus (GPa) = -18.33681 16.99289 -0.67196
#
# Velocity S-wave (km/s) = -2.88111 2.77352 -0.55153
# Velocity P-wave (km/s) = 3.13196 6.58865 5.15846
#
# Compressibility (1/GPa) = 0.02168352
#
# Stress axis : x y z
#
# Youngs Moduli (GPa) = 52.99758 60.76206 99.77894
#
# Poissons Ratio (x) = 0.05492 0.96544
# Poissons Ratio (y) = 0.04790 0.12502
# Poissons Ratio (z) = 0.51279 0.07613
#
# Static dielectric constant tensor:
#      x y z
#    x 1.793100 0.000000 0.000000 
#    y 0.000000 1.833870 0.000000 
#    z 0.000000 0.000000 1.871780 
# 
# From -- ./inp_files/42768.got.cif
#   From: 2010.05.17/outbox.cif.g08.bks.cpg/sg69_22_cif.got.tgz:42768.got - 2010.06.03 19:29:58.
