data_PCOD9512714
_publ_section_title
;
Structure prediction by ZEFSAII (Michael W. Deem and Ramdas Pophale) SiO2 
 PCOD9512714
Probable space group: F M M M
;
_chemical_formula_sum "Si O2"
_cell_formula_units_Z 160
_cell_length_a 25.566523
_cell_length_b 14.498475
_cell_length_c 20.294680
_cell_angle_alpha 90.000000
_cell_angle_beta 90.000000
_cell_angle_gamma 90.000000
_cell_volume 7522.742575
_symmetry_space_group_name_H-M "F M M M"
_symmetry_group_IT_number 69
_symmetry_cell_setting 'orthorhombic'
loop_
_space_group_symop_operation_xyz
x,y,z
-x,-y,z
x,-y,-z
-x,y,-z
-x,-y,-z
x,y,-z
-x,y,z
x,-y,z
x,1/2+y,1/2+z
-x,1/2-y,1/2+z
x,1/2-y,1/2-z
-x,1/2+y,1/2-z
-x,1/2-y,1/2-z
x,1/2+y,1/2-z
-x,1/2+y,1/2+z
x,1/2-y,1/2+z
1/2+x,y,1/2+z
1/2-x,-y,1/2+z
1/2+x,-y,1/2-z
1/2-x,y,1/2-z
1/2-x,-y,1/2-z
1/2+x,y,1/2-z
1/2-x,y,1/2+z
1/2+x,-y,1/2+z
1/2+x,1/2+y,z
1/2-x,1/2-y,z
1/2+x,1/2-y,-z
1/2-x,1/2+y,-z
1/2-x,1/2-y,-z
1/2+x,1/2+y,-z
1/2-x,1/2+y,z
1/2+x,1/2-y,z
loop_
_atom_site_type_symbol
_atom_site_label
_atom_site_fract_x
_atom_site_fract_y
_atom_site_fract_z
Si Si1 0.718671 0.111329 0.315610
Si Si2 0.578880 0.500000 0.419932
Si Si3 0.915170 0.202116 0.574352
Si Si4 0.600499 0.675193 0.806962
Si Si5 0.801584 0.609991 0.924933
Si Si6 0.939188 0.500000 0.771451
O O1 0.750000 0.138874 0.250000
O O2 0.660974 0.151261 0.321444
O O3 0.756034 0.136597 0.375882
O O4 0.713458 0.000000 0.314057
O O5 0.599763 0.500000 0.500000
O O6 0.555976 0.603592 0.420295
O O7 0.594089 0.500000 0.339689
O O8 0.921006 0.237357 0.500000
O O9 0.925713 0.278451 0.629055
O O10 0.854930 0.166447 0.584419
O O11 0.600170 0.750000 0.750000
O O12 0.573611 0.587021 0.774422
O O13 0.813082 0.500000 0.914905
O O14 0.784389 0.621532 0.000000
O O15 0.000000 0.500000 0.790605
#
# Coordination Sequence:
#
# PCOD9512714 Si02
#       6
#    32  16  32  32  32  16
#     4  10  21  34  54  84 126 173 216 258 308 372
#     4  10  20  41  71 102 129 158 199 264 341 388
#     4  10  20  36  64  99 135 173 215 262 317 382
#     4  12  24  41  65  94 129 168 217 266 327 393
#     4   9  17  31  54  87 131 179 222 264 310 359
#     4  12  28  49  71  96 127 164 211 270 338 401
#
# _framework density 21.268839
#
# number of rings (size 3 to 8) (size 9 to 14) (size 15 to 20)
#    0.000    1.600    4.000    1.200    0.000    4.200 
#    0.000    2.500    0.000    1.200    0.000    0.000 
#    0.000    0.000    0.000    0.000    0.000    0.000 
#
# Total GULP energy -223128.239416 kJ/mol
# GULP energy per Si atom -5578.205985 kJ/mol
# Density = 2.122043 g / cm^3
# Si number density = 21.268839 Si / 1000 Ang^3
#
#
#
# Elastic Constant Matrix: (Units=GPa)
#
#
# Indices 1 2 3 4 5 6 
#
# 1 75.5087 29.2589 48.1315 0.0000 0.0000 0.0000
# 2 29.2589 112.9044 70.3187 0.0000 0.0000 0.0000
# 3 48.1315 70.3187 182.4484 0.0000 0.0000 0.0000
# 4 0.0000 0.0000 0.0000 39.1379 0.0000 0.0000
# 5 0.0000 0.0000 0.0000 0.0000 -8.3834 0.0000
# 6 0.0000 0.0000 0.0000 0.0000 0.0000 -104.0342
#
#
#
# Elastic Compliance Matrix: (Units=1/GPa)
#
#
# Indices 1 2 3 4 5 6 
#
# 1 0.016267 -0.002030 -0.003509 0.000000 0.000000 0.000000
# 2 -0.002030 0.011908 -0.004054 0.000000 0.000000 0.000000
# 3 -0.003509 -0.004054 0.007969 0.000000 0.000000 0.000000
# 4 0.000000 0.000000 0.000000 0.025551 0.000000 0.000000
# 5 0.000000 0.000000 0.000000 0.000000 -0.119284 0.000000
# 6 0.000000 0.000000 0.000000 0.000000 0.000000 -0.009612
#
#
# Mechanical properties :
#
#
# Convention : Reuss Voigt Hill
#
# Bulk Modulus (GPa) = 58.96914 74.03106 66.50010
# Shear Modulus (GPa) = -118.02866 0.22090 -58.90388
#
# Velocity S-wave (km/s) = -7.45749 0.32262 -5.26831
# Velocity P-wave (km/s) = 6.80929 5.91791 2.38168
#
# Compressibility (1/GPa) = 0.01695802
#
# Stress axis : x y z
#
# Youngs Moduli (GPa) = 61.47482 83.97684 125.48379
#
# Poissons Ratio (x) = 0.17048 0.44031
# Poissons Ratio (y) = 0.12480 0.50871
# Poissons Ratio (z) = 0.21571 0.34044
#
# Static dielectric constant tensor:
#      x y z
#    x 1.923950 0.000000 0.000000 
#    y 0.000000 1.826190 0.000000 
#    z 0.000000 0.000000 1.760670 
# 
# From -- ./inp_files/27518.got.cif
#   From: 2010.05.17/outbox.cif.g08.bks.cpg/sg69_14_cif.got.tgz:27518.got - 2010.06.03 19:29:58.
