data_PCOD9512103
_publ_section_title
;
Structure prediction by ZEFSAII (Michael W. Deem and Ramdas Pophale) SiO2 
 PCOD9512103
Probable space group: F M M M
;
_chemical_formula_sum "Si O2"
_cell_formula_units_Z 144
_cell_length_a 26.646476
_cell_length_b 34.980241
_cell_length_c 9.548418
_cell_angle_alpha 90.000000
_cell_angle_beta 90.000000
_cell_angle_gamma 90.000000
_cell_volume 8900.081872
_symmetry_space_group_name_H-M "F M M M"
_symmetry_group_IT_number 69
_symmetry_cell_setting 'orthorhombic'
loop_
_space_group_symop_operation_xyz
x,y,z
-x,-y,z
x,-y,-z
-x,y,-z
-x,-y,-z
x,y,-z
-x,y,z
x,-y,z
x,1/2+y,1/2+z
-x,1/2-y,1/2+z
x,1/2-y,1/2-z
-x,1/2+y,1/2-z
-x,1/2-y,1/2-z
x,1/2+y,1/2-z
-x,1/2+y,1/2+z
x,1/2-y,1/2+z
1/2+x,y,1/2+z
1/2-x,-y,1/2+z
1/2+x,-y,1/2-z
1/2-x,y,1/2-z
1/2-x,-y,1/2-z
1/2+x,y,1/2-z
1/2-x,y,1/2+z
1/2+x,-y,1/2+z
1/2+x,1/2+y,z
1/2-x,1/2-y,z
1/2+x,1/2-y,-z
1/2-x,1/2+y,-z
1/2-x,1/2-y,-z
1/2+x,1/2+y,-z
1/2-x,1/2+y,z
1/2+x,1/2-y,z
loop_
_atom_site_type_symbol
_atom_site_label
_atom_site_fract_x
_atom_site_fract_y
_atom_site_fract_z
Si Si1 0.896274 0.655747 0.338004
Si Si2 0.699514 0.790038 0.668976
Si Si3 0.439181 0.000000 0.159771
Si Si4 0.059180 0.425551 0.664431
Si Si5 0.440853 0.716378 0.653151
O O1 0.911098 0.663192 0.500000
O O2 0.843088 0.677204 0.317008
O O3 0.904555 0.610810 0.314890
O O4 0.932503 0.677067 0.231341
O O5 0.706341 0.783788 0.500000
O O6 0.687443 0.750000 0.750000
O O7 0.750000 0.802890 0.750000
O O8 0.425343 0.961552 0.242210
O O9 0.500000 0.000000 0.157532
O O10 0.421190 0.000000 0.000000
O O11 0.060971 0.435970 0.500000
O O12 0.000000 0.415788 0.694134
O O13 0.417240 0.717233 0.500000
O O14 0.500000 0.722790 0.639097
O O15 0.420808 0.750000 0.750000
#
# Coordination Sequence:
#
# PCOD9512103 Si02
#       5
#    32  32  16  32  32
#     4  10  20  32  48  70  93 119 154 195 236 279
#     4  10  20  34  51  70  92 120 156 197 241 285
#     4   9  17  29  45  67  96 127 158 191 224 263
#     4   9  17  30  48  69  95 127 158 187 224 273
#     4  10  20  31  43  61  88 123 158 189 224 269
#
# _framework density 16.179625999999999
#
# number of rings (size 3 to 8) (size 9 to 14) (size 15 to 20)
#    0.000    2.333    0.000    3.667    0.000    8.000 
#    0.000    2.222    0.000    0.000    0.000    0.778 
#    0.000    0.000    0.000    0.000    0.000    0.000 
#
# Total GULP energy -200457.138689 kJ/mol
# GULP energy per Si atom -5568.253852 kJ/mol
# Density = 1.614280 g / cm^3
# Si number density = 16.179626 Si / 1000 Ang^3
#
#
#
# Elastic Constant Matrix: (Units=GPa)
#
#
# Indices 1 2 3 4 5 6 
#
# 1 51.1279 26.2260 33.9715 0.0004 -0.0005 -0.0002
# 2 26.2260 117.0327 87.6624 0.0004 -0.0001 -0.0003
# 3 33.9715 87.6624 124.6137 0.0018 -0.0021 -0.0002
# 4 0.0004 0.0004 0.0018 23.0278 -0.0010 -0.0004
# 5 -0.0005 -0.0001 -0.0021 -0.0010 -0.2725 0.0003
# 6 -0.0002 -0.0003 -0.0002 -0.0004 0.0003 18.5105
#
#
#
# Elastic Compliance Matrix: (Units=1/GPa)
#
#
# Indices 1 2 3 4 5 6 
#
# 1 0.023941 -0.001007 -0.005819 0.000000 -0.000001 0.000000
# 2 -0.001007 0.018104 -0.012462 0.000001 0.000088 0.000000
# 3 -0.005819 -0.012462 0.018377 -0.000001 -0.000123 0.000000
# 4 0.000000 0.000001 -0.000001 0.043426 -0.000156 0.000001
# 5 -0.000001 0.000088 -0.000123 -0.000156 -3.669112 0.000067
# 6 0.000000 0.000000 0.000000 0.000001 0.000067 0.054023
#
#
# Mechanical properties :
#
#
# Convention : Reuss Voigt Hill
#
# Bulk Modulus (GPa) = 45.76761 65.38824 55.57793
# Shear Modulus (GPa) = -1.44284 17.91412 8.23564
#
# Velocity S-wave (km/s) = -0.94536 3.33108 2.25858
# Velocity P-wave (km/s) = 5.21124 7.43616 6.42080
#
# Compressibility (1/GPa) = 0.02184951
#
# Stress axis : x y z
#
# Youngs Moduli (GPa) = 41.76887 55.23513 54.41470
#
# Poissons Ratio (x) = 0.05560 0.31662
# Poissons Ratio (y) = 0.04205 0.67809
# Poissons Ratio (z) = 0.24304 0.68831
#
# Static dielectric constant tensor:
#      x y z
#    x 1.566290 0.000000 0.000000 
#    y 0.000000 1.545910 0.000000 
#    z 0.000000 0.000000 1.571430 
# 
# From -- ./inp_files/5558.got.cif
#   From: 2010.05.17/outbox.cif.g08.bks.cpg/sg69_3_cif.got.tgz:5558.got - 2010.06.03 19:29:58.
