data_PCOD9512211
_publ_section_title
;
Structure prediction by ZEFSAII (Michael W. Deem and Ramdas Pophale) SiO2 
 PCOD9512211
Probable space group: F M M M
;
_chemical_formula_sum "Si O2"
_cell_formula_units_Z 160
_cell_length_a 26.204861
_cell_length_b 17.991667
_cell_length_c 19.344893
_cell_angle_alpha 90.000000
_cell_angle_beta 90.000000
_cell_angle_gamma 90.000000
_cell_volume 9120.519929
_symmetry_space_group_name_H-M "F M M M"
_symmetry_group_IT_number 69
_symmetry_cell_setting 'orthorhombic'
loop_
_space_group_symop_operation_xyz
x,y,z
-x,-y,z
x,-y,-z
-x,y,-z
-x,-y,-z
x,y,-z
-x,y,z
x,-y,z
x,1/2+y,1/2+z
-x,1/2-y,1/2+z
x,1/2-y,1/2-z
-x,1/2+y,1/2-z
-x,1/2-y,1/2-z
x,1/2+y,1/2-z
-x,1/2+y,1/2+z
x,1/2-y,1/2+z
1/2+x,y,1/2+z
1/2-x,-y,1/2+z
1/2+x,-y,1/2-z
1/2-x,y,1/2-z
1/2-x,-y,1/2-z
1/2+x,y,1/2-z
1/2-x,y,1/2+z
1/2+x,-y,1/2+z
1/2+x,1/2+y,z
1/2-x,1/2-y,z
1/2+x,1/2-y,-z
1/2-x,1/2+y,-z
1/2-x,1/2-y,-z
1/2+x,1/2+y,-z
1/2-x,1/2+y,z
1/2+x,1/2-y,z
loop_
_atom_site_type_symbol
_atom_site_label
_atom_site_fract_x
_atom_site_fract_y
_atom_site_fract_z
Si Si1 0.636668 0.417300 0.689863
Si Si2 0.056678 0.125999 0.581120
Si Si3 0.692376 0.771093 0.170089
Si Si4 0.059231 0.088450 0.814894
Si Si5 0.400832 0.789936 0.418187
O O1 0.656057 0.500000 0.703268
O O2 0.598704 0.415396 0.625041
O O3 0.680261 0.358670 0.671482
O O4 0.599974 0.394488 0.754065
O O5 0.061351 0.109999 0.500000
O O6 0.065781 0.214633 0.589925
O O7 0.000000 0.106007 0.604441
O O8 0.683612 0.750000 0.250000
O O9 0.750000 0.750000 0.151650
O O10 0.652205 0.730534 0.120060
O O11 0.073463 0.140984 0.879135
O O12 0.000000 0.102199 0.794425
O O13 0.063570 0.000000 0.829991
O O14 0.394256 0.803183 0.500000
#
# Coordination Sequence:
#
# PCOD9512211 Si02
#       5
#    32  32  32  32  32
#     4  10  20  35  54  80 111 142 175 219 270 319
#     4   9  18  31  50  78 110 145 182 218 261 317
#     4  10  20  38  60  81 104 133 180 227 269 321
#     4  10  20  33  51  78 111 147 184 219 260 312
#     4  10  20  35  54  78 108 143 182 223 268 314
#
# _framework density 17.542860000000001
#
# number of rings (size 3 to 8) (size 9 to 14) (size 15 to 20)
#    0.000    2.200    2.000    1.200    0.000    3.600 
#    0.000    8.000    0.000    0.000    0.000    0.000 
#    0.000    0.000    0.000    0.000    0.000    0.000 
#
# Total GULP energy -223048.468815 kJ/mol
# GULP energy per Si atom -5576.211720 kJ/mol
# Density = 1.750293 g / cm^3
# Si number density = 17.542860 Si / 1000 Ang^3
#
#
#
# Elastic Constant Matrix: (Units=GPa)
#
#
# Indices 1 2 3 4 5 6 
#
# 1 89.9683 44.1876 23.3653 0.0000 0.0000 0.0000
# 2 44.1876 72.0071 21.5191 0.0000 0.0000 0.0000
# 3 23.3653 21.5191 50.8144 0.0000 0.0000 0.0000
# 4 0.0000 0.0000 0.0000 20.6077 0.0000 0.0000
# 5 0.0000 0.0000 0.0000 0.0000 21.1920 0.0000
# 6 0.0000 0.0000 0.0000 0.0000 0.0000 -0.3485
#
#
#
# Elastic Compliance Matrix: (Units=1/GPa)
#
#
# Indices 1 2 3 4 5 6 
#
# 1 0.016522 -0.009008 -0.003782 0.000000 0.000000 0.000000
# 2 -0.009008 0.020812 -0.004671 0.000000 0.000000 0.000000
# 3 -0.003782 -0.004671 0.023397 0.000000 0.000000 0.000000
# 4 0.000000 0.000000 0.000000 0.048526 0.000000 0.000000
# 5 0.000000 0.000000 0.000000 0.000000 0.047188 0.000000
# 6 0.000000 0.000000 0.000000 0.000000 0.000000 -2.869404
#
#
# Mechanical properties :
#
#
# Convention : Reuss Voigt Hill
#
# Bulk Modulus (GPa) = 38.74957 43.43708 41.09332
# Shear Modulus (GPa) = -1.87306 16.53809 7.33252
#
# Velocity S-wave (km/s) = -1.03442 3.07371 2.04667
# Velocity P-wave (km/s) = 4.55080 6.11647 5.39078
#
# Compressibility (1/GPa) = 0.02580674
#
# Stress axis : x y z
#
# Youngs Moduli (GPa) = 60.52651 48.05026 42.74114
#
# Poissons Ratio (x) = 0.43286 0.16165
# Poissons Ratio (y) = 0.54525 0.19965
# Poissons Ratio (z) = 0.22891 0.22445
#
# Static dielectric constant tensor:
#      x y z
#    x 1.580040 0.000000 0.000000 
#    y 0.000000 1.631090 0.000000 
#    z 0.000000 0.000000 1.583580 
# 
# From -- ./inp_files/23126.got.cif
#   From: 2010.05.17/outbox.cif.g08.bks.cpg/sg69_12_cif.got.tgz:23126.got - 2010.06.03 19:29:58.
