data_PCOD9512498
_publ_section_title
;
Structure prediction by ZEFSAII (Michael W. Deem and Ramdas Pophale) SiO2 
 PCOD9512498
Probable space group: F M M M
;
_chemical_formula_sum "Si O2"
_cell_formula_units_Z 144
_cell_length_a 17.329340
_cell_length_b 29.169222
_cell_length_c 13.807756
_cell_angle_alpha 90.000000
_cell_angle_beta 90.000000
_cell_angle_gamma 90.000000
_cell_volume 6979.590974
_symmetry_space_group_name_H-M "F M M M"
_symmetry_group_IT_number 69
_symmetry_cell_setting 'orthorhombic'
loop_
_space_group_symop_operation_xyz
x,y,z
-x,-y,z
x,-y,-z
-x,y,-z
-x,-y,-z
x,y,-z
-x,y,z
x,-y,z
x,1/2+y,1/2+z
-x,1/2-y,1/2+z
x,1/2-y,1/2-z
-x,1/2+y,1/2-z
-x,1/2-y,1/2-z
x,1/2+y,1/2-z
-x,1/2+y,1/2+z
x,1/2-y,1/2+z
1/2+x,y,1/2+z
1/2-x,-y,1/2+z
1/2+x,-y,1/2-z
1/2-x,y,1/2-z
1/2-x,-y,1/2-z
1/2+x,y,1/2-z
1/2-x,y,1/2+z
1/2+x,-y,1/2+z
1/2+x,1/2+y,z
1/2-x,1/2-y,z
1/2+x,1/2-y,-z
1/2-x,1/2+y,-z
1/2-x,1/2-y,-z
1/2+x,1/2+y,-z
1/2-x,1/2+y,z
1/2+x,1/2-y,z
loop_
_atom_site_type_symbol
_atom_site_label
_atom_site_fract_x
_atom_site_fract_y
_atom_site_fract_z
Si Si1 0.639062 0.668322 0.384353
Si Si2 0.587744 0.587154 0.738396
Si Si3 0.406330 0.000000 0.889103
Si Si4 0.088407 0.730556 0.382477
Si Si5 0.684496 0.140142 0.384951
O O1 0.625645 0.666274 0.500000
O O2 0.586806 0.632044 0.329408
O O3 0.624045 0.720656 0.353014
O O4 0.726355 0.651538 0.365797
O O5 0.500000 0.578246 0.773191
O O6 0.614823 0.545070 0.671597
O O7 0.646589 0.599264 0.824281
O O8 0.500000 0.000000 0.894449
O O9 0.377477 0.000000 0.000000
O O10 0.087966 0.731444 0.500000
O O11 0.137584 0.686080 0.357219
O O12 0.000000 0.726257 0.350312
O O13 0.675935 0.132497 0.500000
#
# Coordination Sequence:
#
# PCOD9512498 Si02
#       5
#    32  32  16  32  32
#     4  10  20  35  56  83 115 151 192 239 289 338
#     4  11  22  37  60  86 110 142 188 238 289 345
#     4   9  20  40  64  89 115 141 177 236 302 348
#     4   9  17  31  53  81 114 154 199 242 281 325
#     4  10  21  37  55  80 120 162 193 228 280 341
#
# _framework density 20.631582000000002
#
# number of rings (size 3 to 8) (size 9 to 14) (size 15 to 20)
#    0.000    2.111    0.000    3.333    0.000    7.111 
#    0.000    7.222    0.000    4.667    0.000    0.000 
#    0.000    0.000    0.000    0.000    0.000    0.222 
#
# Total GULP energy -201238.270206 kJ/mol
# GULP energy per Si atom -5589.951950 kJ/mol
# Density = 2.058462 g / cm^3
# Si number density = 20.631582 Si / 1000 Ang^3
#
#
#
# Elastic Constant Matrix: (Units=GPa)
#
#
# Indices 1 2 3 4 5 6 
#
# 1 95.6672 27.0395 33.0349 0.0000 0.0000 0.0000
# 2 27.0395 116.1352 40.5193 0.0000 0.0000 0.0000
# 3 33.0349 40.5193 78.6693 0.0000 0.0000 0.0000
# 4 0.0000 0.0000 0.0000 37.7975 0.0000 0.0000
# 5 0.0000 0.0000 0.0000 0.0000 27.0175 0.0000
# 6 0.0000 0.0000 0.0000 0.0000 0.0000 50.1385
#
#
#
# Elastic Compliance Matrix: (Units=1/GPa)
#
#
# Indices 1 2 3 4 5 6 
#
# 1 0.012385 -0.001303 -0.004530 0.000000 0.000000 0.000000
# 2 -0.001303 0.010634 -0.004930 0.000000 0.000000 0.000000
# 3 -0.004530 -0.004930 0.017153 0.000000 0.000000 0.000000
# 4 0.000000 0.000000 0.000000 0.026457 0.000000 0.000000
# 5 0.000000 0.000000 0.000000 0.000000 0.037013 0.000000
# 6 0.000000 0.000000 0.000000 0.000000 0.000000 0.019945
#
#
# Mechanical properties :
#
#
# Convention : Reuss Voigt Hill
#
# Bulk Modulus (GPa) = 53.62912 54.62879 54.12896
# Shear Modulus (GPa) = 33.04080 35.64922 34.34501
#
# Velocity S-wave (km/s) = 4.00618 4.16131 4.08448
# Velocity P-wave (km/s) = 6.88835 7.04445 6.96684
#
# Compressibility (1/GPa) = 0.01864658
#
# Stress axis : x y z
#
# Youngs Moduli (GPa) = 80.74031 94.03680 58.29981
#
# Poissons Ratio (x) = 0.12256 0.26408
# Poissons Ratio (y) = 0.10523 0.28741
# Poissons Ratio (z) = 0.36572 0.46359
#
# Static dielectric constant tensor:
#      x y z
#    x 1.724020 0.000000 0.000000 
#    y 0.000000 1.698780 0.000000 
#    z 0.000000 0.000000 1.787440 
# 
# From -- ./inp_files/15571.got.cif
#   From: 2010.05.17/outbox.cif.g08.bks.cpg/sg69_8_cif.got.tgz:15571.got - 2010.06.03 19:29:58.
