data_PCOD9512254
_publ_section_title
;
Structure prediction by ZEFSAII (Michael W. Deem and Ramdas Pophale) SiO2 
 PCOD9512254
Probable space group: F M M M
;
_chemical_formula_sum "Si O2"
_cell_formula_units_Z 160
_cell_length_a 29.827936
_cell_length_b 16.114127
_cell_length_c 19.108747
_cell_angle_alpha 90.000000
_cell_angle_beta 90.000000
_cell_angle_gamma 90.000000
_cell_volume 9184.641199
_symmetry_space_group_name_H-M "F M M M"
_symmetry_group_IT_number 69
_symmetry_cell_setting 'orthorhombic'
loop_
_space_group_symop_operation_xyz
x,y,z
-x,-y,z
x,-y,-z
-x,y,-z
-x,-y,-z
x,y,-z
-x,y,z
x,-y,z
x,1/2+y,1/2+z
-x,1/2-y,1/2+z
x,1/2-y,1/2-z
-x,1/2+y,1/2-z
-x,1/2-y,1/2-z
x,1/2+y,1/2-z
-x,1/2+y,1/2+z
x,1/2-y,1/2+z
1/2+x,y,1/2+z
1/2-x,-y,1/2+z
1/2+x,-y,1/2-z
1/2-x,y,1/2-z
1/2-x,-y,1/2-z
1/2+x,y,1/2-z
1/2-x,y,1/2+z
1/2+x,-y,1/2+z
1/2+x,1/2+y,z
1/2-x,1/2-y,z
1/2+x,1/2-y,-z
1/2-x,1/2+y,-z
1/2-x,1/2-y,-z
1/2+x,1/2+y,-z
1/2-x,1/2+y,z
1/2+x,1/2-y,z
loop_
_atom_site_type_symbol
_atom_site_label
_atom_site_fract_x
_atom_site_fract_y
_atom_site_fract_z
Si Si1 0.450614 0.337579 0.791669
Si Si2 0.369171 0.000000 0.918578
Si Si3 0.269927 0.904633 0.327873
Si Si4 0.551476 0.500000 0.693506
Si Si5 0.308363 0.162940 0.082186
Si Si6 0.144476 0.797986 0.825069
O O1 0.500000 0.348370 0.824966
O O2 0.452445 0.250000 0.750000
O O3 0.443698 0.416466 0.740273
O O4 0.406098 0.328383 0.837653
O O5 0.337839 0.920157 0.907068
O O6 0.411164 0.000000 0.866482
O O7 0.383644 0.000000 0.000000
O O8 0.250000 0.898132 0.250000
O O9 0.238600 0.850281 0.378230
O O10 0.320466 0.872851 0.323554
O O11 0.267698 0.000000 0.350842
O O12 0.500000 0.500000 0.666664
O O13 0.336906 0.235646 0.117057
O O14 0.301324 0.175525 0.000000
O O15 0.145991 0.750000 0.750000
#
# Coordination Sequence:
#
# PCOD9512254 Si02
#       6
#    32  16  32  16  32  32
#     4   9  19  34  54  82 115 147 185 237 287 333
#     4  10  20  35  54  76 111 154 190 226 283 342
#     4  11  23  35  54  83 114 150 191 235 279 335
#     4  10  20  33  55  85 117 152 189 237 295 337
#     4  11  23  39  56  80 115 152 188 234 289 344
#     4  11  21  35  57  83 111 147 195 236 280 338
#
# _framework density 17.420386000000001
#
# number of rings (size 3 to 8) (size 9 to 14) (size 15 to 20)
#    0.000    1.600    3.000    3.000    1.400    1.800 
#    0.000    0.000    0.000    1.800    0.000    0.000 
#    0.000    2.400    0.000    0.000    0.000    0.000 
#
# Total GULP energy -223207.144660 kJ/mol
# GULP energy per Si atom -5580.178616 kJ/mol
# Density = 1.738074 g / cm^3
# Si number density = 17.420386 Si / 1000 Ang^3
#
#
#
# Elastic Constant Matrix: (Units=GPa)
#
#
# Indices 1 2 3 4 5 6 
#
# 1 167.0523 34.4195 38.2624 0.0000 0.0000 0.0000
# 2 34.4195 83.0564 20.0580 0.0000 0.0000 0.0000
# 3 38.2624 20.0580 45.2969 0.0000 0.0000 0.0000
# 4 0.0000 0.0000 0.0000 21.4295 0.0000 0.0000
# 5 0.0000 0.0000 0.0000 0.0000 14.9551 0.0000
# 6 0.0000 0.0000 0.0000 0.0000 0.0000 53.9473
#
#
#
# Elastic Compliance Matrix: (Units=1/GPa)
#
#
# Indices 1 2 3 4 5 6 
#
# 1 0.007656 -0.001804 -0.005668 0.000000 0.000000 0.000000
# 2 -0.001804 0.013907 -0.004634 0.000000 0.000000 0.000000
# 3 -0.005668 -0.004634 0.028917 0.000000 0.000000 0.000000
# 4 0.000000 0.000000 0.000000 0.046665 0.000000 0.000000
# 5 0.000000 0.000000 0.000000 0.000000 0.066867 0.000000
# 6 0.000000 0.000000 0.000000 0.000000 0.000000 0.018537
#
#
# Mechanical properties :
#
#
# Convention : Reuss Voigt Hill
#
# Bulk Modulus (GPa) = 38.07129 53.43170 45.75149
# Shear Modulus (GPa) = 23.20007 31.57742 27.38875
#
# Velocity S-wave (km/s) = 3.65331 4.26217 3.96943
# Velocity P-wave (km/s) = 6.30059 7.41350 6.87959
#
# Compressibility (1/GPa) = 0.02626651
#
# Stress axis : x y z
#
# Youngs Moduli (GPa) = 130.61430 71.90759 34.58195
#
# Poissons Ratio (x) = 0.12971 0.19602
# Poissons Ratio (y) = 0.23561 0.16026
# Poissons Ratio (z) = 0.74037 0.33324
#
# Static dielectric constant tensor:
#      x y z
#    x 1.604340 0.000000 0.000000 
#    y 0.000000 1.625220 0.000000 
#    z 0.000000 0.000000 1.564940 
# 
# From -- ./inp_files/19580.got.cif
#   From: 2010.05.17/outbox.cif.g08.bks.cpg/sg69_10_cif.got.tgz:19580.got - 2010.06.03 19:29:58.
