data_PCOD9512934
_publ_section_title
;
Structure prediction by ZEFSAII (Michael W. Deem and Ramdas Pophale) SiO2 
 PCOD9512934
Probable space group: F M M M
;
_chemical_formula_sum "Si O2"
_cell_formula_units_Z 120
_cell_length_a 15.051351
_cell_length_b 26.061450
_cell_length_c 17.335051
_cell_angle_alpha 90.000000
_cell_angle_beta 90.000000
_cell_angle_gamma 90.000000
_cell_volume 6799.847652
_symmetry_space_group_name_H-M "F M M M"
_symmetry_group_IT_number 69
_symmetry_cell_setting 'orthorhombic'
loop_
_space_group_symop_operation_xyz
x,y,z
-x,-y,z
x,-y,-z
-x,y,-z
-x,-y,-z
x,y,-z
-x,y,z
x,-y,z
x,1/2+y,1/2+z
-x,1/2-y,1/2+z
x,1/2-y,1/2-z
-x,1/2+y,1/2-z
-x,1/2-y,1/2-z
x,1/2+y,1/2-z
-x,1/2+y,1/2+z
x,1/2-y,1/2+z
1/2+x,y,1/2+z
1/2-x,-y,1/2+z
1/2+x,-y,1/2-z
1/2-x,y,1/2-z
1/2-x,-y,1/2-z
1/2+x,y,1/2-z
1/2-x,y,1/2+z
1/2+x,-y,1/2+z
1/2+x,1/2+y,z
1/2-x,1/2-y,z
1/2+x,1/2-y,-z
1/2-x,1/2+y,-z
1/2-x,1/2-y,-z
1/2+x,1/2+y,-z
1/2-x,1/2+y,z
1/2+x,1/2-y,z
loop_
_atom_site_type_symbol
_atom_site_label
_atom_site_fract_x
_atom_site_fract_y
_atom_site_fract_z
Si Si1 0.000000 0.207444 0.684628
Si Si2 0.316730 0.500000 0.092747
Si Si3 0.318955 0.206926 0.092176
Si Si4 0.000000 0.000000 0.814437
Si Si5 0.000000 0.088657 0.688752
Si Si6 0.680387 0.410310 0.407861
O O1 0.000000 0.250000 0.750000
O O2 0.912908 0.213850 0.632733
O O3 0.000000 0.148451 0.713657
O O4 0.410889 0.500000 0.134616
O O5 0.256564 0.549369 0.113329
O O6 0.329308 0.500000 0.000000
O O7 0.250000 0.250000 0.118787
O O8 0.289748 0.148270 0.107366
O O9 0.329476 0.212058 0.000000
O O10 0.000000 0.049684 0.759334
O O11 0.088572 0.080339 0.637362
O O12 0.663659 0.415202 0.500000
#
# Coordination Sequence:
#
# PCOD9512934 Si02
#       6
#    16  16  32   8  16  32
#     4  10  21  35  51  77 111 142 171 208 259 311
#     4  10  22  39  57  75 100 137 177 214 253 304
#     4   9  18  34  56  79 103 135 176 218 257 300
#     4  12  25  38  51  74 110 144 172 204 251 314
#     4  10  21  35  55  81 107 135 168 215 267 308
#     4   9  18  35  58  81 103 131 172 219 262 303
#
# _framework density 17.647454
#
# number of rings (size 3 to 8) (size 9 to 14) (size 15 to 20)
#    0.000    2.400    0.000    1.800    0.000    8.000 
#    0.000    8.000    0.000    8.000    0.000    0.000 
#    0.000    0.000    0.000    0.000    0.000    0.000 
#
# Total GULP energy -167424.733065 kJ/mol
# GULP energy per Si atom -5580.824435 kJ/mol
# Density = 1.760729 g / cm^3
# Si number density = 17.647454 Si / 1000 Ang^3
#
#
#
# Elastic Constant Matrix: (Units=GPa)
#
#
# Indices 1 2 3 4 5 6 
#
# 1 157.9601 126.4289 60.9396 0.0000 0.0000 0.0000
# 2 126.4289 157.6611 69.3896 0.0000 0.0000 0.0000
# 3 60.9396 69.3896 40.0285 0.0000 0.0000 0.0000
# 4 0.0000 0.0000 0.0000 29.3313 0.0000 0.0000
# 5 0.0000 0.0000 0.0000 0.0000 -423.5709 0.0000
# 6 0.0000 0.0000 0.0000 0.0000 0.0000 32.5986
#
#
#
# Elastic Compliance Matrix: (Units=1/GPa)
#
#
# Indices 1 2 3 4 5 6 
#
# 1 0.018650 -0.010374 -0.010409 0.000000 0.000000 0.000000
# 2 -0.010374 0.032527 -0.040593 0.000000 0.000000 0.000000
# 3 -0.010409 -0.040593 0.111196 0.000000 0.000000 0.000000
# 4 0.000000 0.000000 0.000000 0.034093 0.000000 0.000000
# 5 0.000000 0.000000 0.000000 0.000000 -0.002361 0.000000
# 6 0.000000 0.000000 0.000000 0.000000 0.000000 0.030676
#
#
# Mechanical properties :
#
#
# Convention : Reuss Voigt Hill
#
# Bulk Modulus (GPa) = 25.23855 96.57398 60.90627
# Shear Modulus (GPa) = 13.86044 -65.73541 -25.93748
#
# Velocity S-wave (km/s) = 2.80555 -6.10984 -3.83790
# Velocity P-wave (km/s) = 4.98271 2.25153 3.86631
#
# Compressibility (1/GPa) = 0.03962193
#
# Stress axis : x y z
#
# Youngs Moduli (GPa) = 53.62068 30.74350 8.99315
#
# Poissons Ratio (x) = 0.31893 0.09361
# Poissons Ratio (y) = 0.55626 0.36505
# Poissons Ratio (z) = 0.55812 1.24796
#
# Static dielectric constant tensor:
#      x y z
#    x 1.557870 0.000000 0.000000 
#    y 0.000000 1.615130 0.000000 
#    z 0.000000 0.000000 1.579720 
# 
# From -- ./inp_files/14480.got.cif
#   From: 2010.05.17/outbox.cif.g08.bks.cpg/sg69_8_cif.got.tgz:14480.got - 2010.06.03 19:29:58.
