data_PCOD9512752
_publ_section_title
;
Structure prediction by ZEFSAII (Michael W. Deem and Ramdas Pophale) SiO2 
 PCOD9512752
Probable space group: F M M M
;
_chemical_formula_sum "Si O2"
_cell_formula_units_Z 100
_cell_length_a 24.445507
_cell_length_b 7.882380
_cell_length_c 23.185272
_cell_angle_alpha 90.000000
_cell_angle_beta 90.000000
_cell_angle_gamma 90.000000
_cell_volume 4467.541671
_symmetry_space_group_name_H-M "F M M M"
_symmetry_group_IT_number 69
_symmetry_cell_setting 'orthorhombic'
loop_
_space_group_symop_operation_xyz
x,y,z
-x,-y,z
x,-y,-z
-x,y,-z
-x,-y,-z
x,y,-z
-x,y,z
x,-y,z
x,1/2+y,1/2+z
-x,1/2-y,1/2+z
x,1/2-y,1/2-z
-x,1/2+y,1/2-z
-x,1/2-y,1/2-z
x,1/2+y,1/2-z
-x,1/2+y,1/2+z
x,1/2-y,1/2+z
1/2+x,y,1/2+z
1/2-x,-y,1/2+z
1/2+x,-y,1/2-z
1/2-x,y,1/2-z
1/2-x,-y,1/2-z
1/2+x,y,1/2-z
1/2-x,y,1/2+z
1/2+x,-y,1/2+z
1/2+x,1/2+y,z
1/2-x,1/2-y,z
1/2+x,1/2-y,-z
1/2-x,1/2+y,-z
1/2-x,1/2-y,-z
1/2+x,1/2+y,-z
1/2-x,1/2+y,z
1/2+x,1/2-y,z
loop_
_atom_site_type_symbol
_atom_site_label
_atom_site_fract_x
_atom_site_fract_y
_atom_site_fract_z
Si Si1 0.000000 0.688244 0.406886
Si Si2 0.313766 0.296552 0.874082
Si Si3 0.685949 0.296629 0.000000
Si Si4 0.000000 0.500000 0.000000
Si Si5 0.417075 0.805239 0.185509
O O1 0.000000 0.847079 0.450061
O O2 0.948433 0.702576 0.363675
O O3 0.000000 0.500000 0.433651
O O4 0.317933 0.500000 0.872348
O O5 0.250000 0.250000 0.868402
O O6 0.352695 0.218743 0.826289
O O7 0.334410 0.234784 0.937855
O O8 0.750000 0.250000 0.000000
O O9 0.680334 0.500000 0.000000
O O10 0.430878 0.750000 0.250000
O O11 0.432202 0.000000 0.178476
#
# Coordination Sequence:
#
# PCOD9512752 Si02
#       5
#    16  32  16   4  32
#     4  12  26  50  78 109 148 185 232 293 360 430
#     4  10  20  37  60  95 134 183 237 293 360 420
#     4   8  16  31  54  81 120 164 217 271 335 409
#     4  12  26  52  76 118 148 180 234 290 364 428
#     4  12  25  45  69 101 139 187 244 296 355 430
#
# _framework density 22.383675
#
# number of rings (size 3 to 8) (size 9 to 14) (size 15 to 20)
#    0.000    1.280    1.600    4.560    0.000    3.200 
#    0.000    6.400    0.000    0.000    0.000    0.000 
#    0.000    0.000    0.000    0.000    0.000    0.000 
#
# Total GULP energy -139481.214331 kJ/mol
# GULP energy per Si atom -5579.248573 kJ/mol
# Density = 2.233273 g / cm^3
# Si number density = 22.383675 Si / 1000 Ang^3
#
#
#
# Elastic Constant Matrix: (Units=GPa)
#
#
# Indices 1 2 3 4 5 6 
#
# 1 80.8324 10.9206 35.4117 0.0000 0.0000 0.0000
# 2 10.9206 150.0524 47.0593 0.0000 0.0000 0.0000
# 3 35.4117 47.0593 135.1824 0.0000 0.0000 0.0000
# 4 0.0000 0.0000 0.0000 32.5798 0.0000 0.0000
# 5 0.0000 0.0000 0.0000 0.0000 -60.0600 0.0000
# 6 0.0000 0.0000 0.0000 0.0000 0.0000 25.5533
#
#
#
# Elastic Compliance Matrix: (Units=1/GPa)
#
#
# Indices 1 2 3 4 5 6 
#
# 1 0.013978 0.000147 -0.003713 0.000000 0.000000 0.000000
# 2 0.000147 0.007483 -0.002643 0.000000 0.000000 0.000000
# 3 -0.003713 -0.002643 0.009290 0.000000 0.000000 0.000000
# 4 0.000000 0.000000 0.000000 0.030694 0.000000 0.000000
# 5 0.000000 0.000000 0.000000 0.000000 -0.016650 0.000000
# 6 0.000000 0.000000 0.000000 0.000000 0.000000 0.039134
#
#
# Mechanical properties :
#
#
# Convention : Reuss Voigt Hill
#
# Bulk Modulus (GPa) = 54.54747 61.42784 57.98765
# Shear Modulus (GPa) = 48.80071 17.79300 33.29685
#
# Velocity S-wave (km/s) = 4.67432 2.82247 3.86106
# Velocity P-wave (km/s) = 7.31810 6.17451 6.77049
#
# Compressibility (1/GPa) = 0.01833266
#
# Stress axis : x y z
#
# Youngs Moduli (GPa) = 71.54128 133.64259 107.64028
#
# Poissons Ratio (x) = -0.01966 0.39965
# Poissons Ratio (y) = -0.01052 0.28453
# Poissons Ratio (z) = 0.26562 0.35327
#
# Static dielectric constant tensor:
#      x y z
#    x 1.842860 0.000000 0.000000 
#    y 0.000000 1.801590 0.000000 
#    z 0.000000 0.000000 1.834030 
# 
# From -- ./inp_files/4360.got.cif
#   From: 2010.05.17/outbox.cif.g08.bks.cpg/sg69_3_cif.got.tgz:4360.got - 2010.06.03 19:29:58.
