data_PCOD9512416
_publ_section_title
;
Structure prediction by ZEFSAII (Michael W. Deem and Ramdas Pophale) SiO2 
 PCOD9512416
Probable space group: F M M M
;
_chemical_formula_sum "Si O2"
_cell_formula_units_Z 168
_cell_length_a 34.331184
_cell_length_b 13.012535
_cell_length_c 18.886431
_cell_angle_alpha 90.000000
_cell_angle_beta 90.000000
_cell_angle_gamma 90.000000
_cell_volume 8437.243604
_symmetry_space_group_name_H-M "F M M M"
_symmetry_group_IT_number 69
_symmetry_cell_setting 'orthorhombic'
loop_
_space_group_symop_operation_xyz
x,y,z
-x,-y,z
x,-y,-z
-x,y,-z
-x,-y,-z
x,y,-z
-x,y,z
x,-y,z
x,1/2+y,1/2+z
-x,1/2-y,1/2+z
x,1/2-y,1/2-z
-x,1/2+y,1/2-z
-x,1/2-y,1/2-z
x,1/2+y,1/2-z
-x,1/2+y,1/2+z
x,1/2-y,1/2+z
1/2+x,y,1/2+z
1/2-x,-y,1/2+z
1/2+x,-y,1/2-z
1/2-x,y,1/2-z
1/2-x,-y,1/2-z
1/2+x,y,1/2-z
1/2-x,y,1/2+z
1/2+x,-y,1/2+z
1/2+x,1/2+y,z
1/2-x,1/2-y,z
1/2+x,1/2-y,-z
1/2-x,1/2+y,-z
1/2-x,1/2-y,-z
1/2+x,1/2+y,-z
1/2-x,1/2+y,z
1/2+x,1/2-y,z
loop_
_atom_site_type_symbol
_atom_site_label
_atom_site_fract_x
_atom_site_fract_y
_atom_site_fract_z
Si Si1 0.417346 0.616345 0.915387
Si Si2 0.209961 0.379311 0.710918
Si Si3 0.000000 0.000000 0.344207
Si Si4 0.942921 0.195781 0.321194
Si Si5 0.143600 0.379861 0.172535
Si Si6 0.168145 0.797391 0.081613
O O1 0.427575 0.500000 0.890700
O O2 0.439613 0.710965 0.878211
O O3 0.370943 0.634982 0.903852
O O4 0.423718 0.620942 0.000000
O O5 0.210608 0.500000 0.696227
O O6 0.250000 0.354726 0.750000
O O7 0.174508 0.359941 0.765074
O O8 0.201545 0.326361 0.636600
O O9 0.033412 0.906247 0.342571
O O10 0.957848 0.250000 0.250000
O O11 0.898902 0.158740 0.305944
O O12 0.143034 0.500000 0.158971
O O13 0.155641 0.317272 0.102880
O O14 0.178588 0.808784 0.000000
#
# Coordination Sequence:
#
# PCOD9512416 Si02
#       6
#    32  32   8  32  32  32
#     4   9  19  38  65  96 124 158 208 261 316 381
#     4  10  21  37  58  86 121 161 206 256 309 369
#     4  12  26  44  59  94 127 166 212 264 320 374
#     4  11  23  40  64  90 126 166 212 260 319 379
#     4  10  20  38  61  85 119 164 208 250 307 380
#     4  10  20  34  58  91 123 160 205 259 315 364
#
# _framework density 19.911716999999999
#
# number of rings (size 3 to 8) (size 9 to 14) (size 15 to 20)
#    0.000    1.905    0.952    3.714    1.333    4.571 
#    0.000    3.333    0.000    4.571    0.000    0.000 
#    0.000    0.000    0.000    0.000    0.000    0.000 
#
# Total GULP energy -233928.456674 kJ/mol
# GULP energy per Si atom -5569.725159 kJ/mol
# Density = 1.986640 g / cm^3
# Si number density = 19.911717 Si / 1000 Ang^3
#
#
#
# Elastic Constant Matrix: (Units=GPa)
#
#
# Indices 1 2 3 4 5 6 
#
# 1 127.9391 50.9866 51.8481 0.0000 0.0000 0.0000
# 2 50.9866 203.7371 50.5625 0.0000 0.0000 0.0000
# 3 51.8481 50.5625 88.0464 0.0000 0.0000 0.0000
# 4 0.0000 0.0000 0.0000 22.4026 0.0000 0.0000
# 5 0.0000 0.0000 0.0000 0.0000 -40.1772 0.0000
# 6 0.0000 0.0000 0.0000 0.0000 0.0000 -45.9607
#
#
#
# Elastic Compliance Matrix: (Units=1/GPa)
#
#
# Indices 1 2 3 4 5 6 
#
# 1 0.010545 -0.001280 -0.005474 0.000000 0.000000 0.000000
# 2 -0.001280 0.005880 -0.002622 0.000000 0.000000 0.000000
# 3 -0.005474 -0.002622 0.016087 0.000000 0.000000 0.000000
# 4 0.000000 0.000000 0.000000 0.044638 0.000000 0.000000
# 5 0.000000 0.000000 0.000000 0.000000 -0.024890 0.000000
# 6 0.000000 0.000000 0.000000 0.000000 0.000000 -0.021758
#
#
# Mechanical properties :
#
#
# Convention : Reuss Voigt Hill
#
# Bulk Modulus (GPa) = 72.68781 80.72412 76.70596
# Shear Modulus (GPa) = 92.86347 5.00795 48.93571
#
# Velocity S-wave (km/s) = 6.83658 1.58762 4.96283
# Velocity P-wave (km/s) = 9.94499 6.63248 8.45259
#
# Compressibility (1/GPa) = 0.01375747
#
# Stress axis : x y z
#
# Youngs Moduli (GPa) = 94.83173 170.08130 62.16053
#
# Poissons Ratio (x) = 0.21776 0.34029
# Poissons Ratio (y) = 0.12142 0.16302
# Poissons Ratio (z) = 0.51915 0.44604
#
# Static dielectric constant tensor:
#      x y z
#    x 1.720030 0.000000 0.000000 
#    y 0.000000 1.724350 0.000000 
#    z 0.000000 0.000000 1.683430 
# 
# From -- ./inp_files/33898.got.cif
#   From: 2010.05.17/outbox.cif.g08.bks.cpg/sg69_17_cif.got.tgz:33898.got - 2010.06.03 19:29:58.
