data_PCOD9513972
_publ_section_title
;
Structure prediction by ZEFSAII (Michael W. Deem and Ramdas Pophale) SiO2 
 PCOD9513972
Probable space group: F M M M
;
_chemical_formula_sum "Si O2"
_cell_formula_units_Z 52
_cell_length_a 18.000000
_cell_length_b 21.000000
_cell_length_c 27.000000
_cell_angle_alpha 90.000000
_cell_angle_beta 90.000000
_cell_angle_gamma 90.000000
_cell_volume 10206.000000
_symmetry_space_group_name_H-M "F M M M"
_symmetry_group_IT_number 69
_symmetry_cell_setting 'orthorhombic'
loop_
_space_group_symop_operation_xyz
x,y,z
-x,-y,z
x,-y,-z
-x,y,-z
-x,-y,-z
x,y,-z
-x,y,z
x,-y,z
x,1/2+y,1/2+z
-x,1/2-y,1/2+z
x,1/2-y,1/2-z
-x,1/2+y,1/2-z
-x,1/2-y,1/2-z
x,1/2+y,1/2-z
-x,1/2+y,1/2+z
x,1/2-y,1/2+z
1/2+x,y,1/2+z
1/2-x,-y,1/2+z
1/2+x,-y,1/2-z
1/2-x,y,1/2-z
1/2-x,-y,1/2-z
1/2+x,y,1/2-z
1/2-x,y,1/2+z
1/2+x,-y,1/2+z
1/2+x,1/2+y,z
1/2-x,1/2-y,z
1/2+x,1/2-y,-z
1/2-x,1/2+y,-z
1/2-x,1/2-y,-z
1/2+x,1/2+y,-z
1/2-x,1/2+y,z
1/2+x,1/2-y,z
loop_
_atom_site_type_symbol
_atom_site_label
_atom_site_fract_x
_atom_site_fract_y
_atom_site_fract_z
Si Si1 0.584912 0.129207 0.877587
Si Si2 0.910408 0.317631 0.227372
Si Si3 0.664577 0.368389 0.095161
Si Si4 0.194764 0.429430 0.942015
Si Si5 0.414452 0.753168 0.441863
Si Si6 0.583917 0.924658 0.500000
Si Si7 0.911839 0.925446 0.809355
O O1 0.500000 0.111603 0.866768
O O2 0.616427 0.160406 0.827037
O O3 0.627020 0.072204 0.904058
O O4 0.586510 0.182788 0.920291
O O5 0.882689 0.250000 0.250000
O O6 0.897275 0.376105 0.264904
O O7 0.000000 0.309574 0.222540
O O8 0.749610 0.378314 0.081298
O O9 0.637978 0.296070 0.092074
O O10 0.637746 0.402984 0.144556
O O11 0.622896 0.400045 0.048791
O O12 0.230012 0.500000 0.940870
O O13 0.177693 0.416634 0.000000
O O14 0.394091 0.756057 0.500000
O O15 0.500000 0.775721 0.436825
O O16 0.500000 0.901948 0.500000
O O17 0.584875 0.000000 0.500000
O O18 0.000000 0.919472 0.822316
O O19 0.898618 0.000000 0.797408
#
# Coordination Sequence:
#
# PCOD9513972 Si02
#       7
#    32  32  32  32  32  16  32
#     4  10  22  40  63  87 112 149 200 255 303 352
#     4   9  18  36  61  88 115 146 190 246 306 357
#     4  12  21  35  55  83 120 159 191 227 286 357
#     4  11  24  41  59  82 117 160 202 248 299 347
#     4  10  19  33  56  87 119 149 187 237 290 350
#     4  11  20  30  50  79 113 153 194 229 269 337
#     4  10  20  33  54  85 119 152 189 236 288 348
#
# _framework density 5.0950420000000003
#
# number of rings (size 3 to 8) (size 9 to 14) (size 15 to 20)
#    0.000    1.615    1.538    4.154    0.000    6.154 
#    0.000    4.615    0.000    2.769    0.000    0.000 
#    0.000    0.000    0.000    0.000    0.000    0.000 
#
# Total GULP energy -290104.009439 kJ/mol
# GULP energy per Si atom -5578.923258 kJ/mol
# Density = 0.508345 g / cm^3
# Si number density = 5.095042 Si / 1000 Ang^3
#
#
#
# Elastic Constant Matrix: (Units=GPa)
#
#
# Indices 1 2 3 4 5 6 
#
# 1 40.5543 14.1633 25.9986 0.0000 0.0000 0.0000
# 2 14.1633 73.6773 29.1189 0.0000 0.0000 0.0000
# 3 25.9986 29.1189 105.1335 0.0000 0.0000 0.0000
# 4 0.0000 0.0000 0.0000 26.8546 0.0000 0.0000
# 5 0.0000 0.0000 0.0000 0.0000 30.8156 0.0000
# 6 0.0000 0.0000 0.0000 0.0000 0.0000 21.9384
#
#
#
# Elastic Compliance Matrix: (Units=1/GPa)
#
#
# Indices 1 2 3 4 5 6 
#
# 1 0.029952 -0.003178 -0.006527 0.000000 0.000000 0.000000
# 2 -0.003178 0.015578 -0.003529 0.000000 0.000000 0.000000
# 3 -0.006527 -0.003529 0.012103 0.000000 0.000000 0.000000
# 4 0.000000 0.000000 0.000000 0.037238 0.000000 0.000000
# 5 0.000000 0.000000 0.000000 0.000000 0.032451 0.000000
# 6 0.000000 0.000000 0.000000 0.000000 0.000000 0.045582
#
#
# Mechanical properties :
#
#
# Convention : Reuss Voigt Hill
#
# Bulk Modulus (GPa) = 32.08600 39.76963 35.92782
# Shear Modulus (GPa) = 23.83664 25.92734 24.88199
#
# Velocity S-wave (km/s) = 3.42365 3.57064 3.49792
# Velocity P-wave (km/s) = 5.60414 6.04612 5.82932
#
# Compressibility (1/GPa) = 0.03116624
#
# Stress axis : x y z
#
# Youngs Moduli (GPa) = 33.38623 64.19174 82.62365
#
# Poissons Ratio (x) = 0.20403 0.53926
# Poissons Ratio (y) = 0.10611 0.29156
# Poissons Ratio (z) = 0.21790 0.22652
#
# Static dielectric constant tensor:
#      x y z
#    x 1.877820 0.000000 0.000000 
#    y 0.000000 1.745470 0.000000 
#    z 0.000000 0.000000 1.664270 
# 
# From -- ./inp_files/41996.got.cif
#   From: 2010.05.17/outbox.ucp.g08.bks.cvg/sg69_21_cif.got.tgz:41996.got - 2010.06.11 16:51:34.
