data_PCOD9513818
_publ_section_title
;
Structure prediction by ZEFSAII (Michael W. Deem and Ramdas Pophale) SiO2 
 PCOD9513818
Probable space group: F M M M
;
_chemical_formula_sum "Si O2"
_cell_formula_units_Z 136
_cell_length_a 23.654385
_cell_length_b 17.444536
_cell_length_c 14.880252
_cell_angle_alpha 90.000000
_cell_angle_beta 90.000000
_cell_angle_gamma 90.000000
_cell_volume 6140.183773
_symmetry_space_group_name_H-M "F M M M"
_symmetry_group_IT_number 69
_symmetry_cell_setting 'orthorhombic'
loop_
_space_group_symop_operation_xyz
x,y,z
-x,-y,z
x,-y,-z
-x,y,-z
-x,-y,-z
x,y,-z
-x,y,z
x,-y,z
x,1/2+y,1/2+z
-x,1/2-y,1/2+z
x,1/2-y,1/2-z
-x,1/2+y,1/2-z
-x,1/2-y,1/2-z
x,1/2+y,1/2-z
-x,1/2+y,1/2+z
x,1/2-y,1/2+z
1/2+x,y,1/2+z
1/2-x,-y,1/2+z
1/2+x,-y,1/2-z
1/2-x,y,1/2-z
1/2-x,-y,1/2-z
1/2+x,y,1/2-z
1/2-x,y,1/2+z
1/2+x,-y,1/2+z
1/2+x,1/2+y,z
1/2-x,1/2-y,z
1/2+x,1/2-y,-z
1/2-x,1/2+y,-z
1/2-x,1/2-y,-z
1/2+x,1/2+y,-z
1/2-x,1/2+y,z
1/2+x,1/2-y,z
loop_
_atom_site_type_symbol
_atom_site_label
_atom_site_fract_x
_atom_site_fract_y
_atom_site_fract_z
Si Si1 0.630561 0.586080 0.143446
Si Si2 0.436065 0.735971 0.894455
Si Si3 0.248849 0.661432 0.640615
Si Si4 0.589511 0.000000 0.000000
Si Si5 0.871020 0.616968 0.147076
O O1 0.620786 0.500000 0.110989
O O2 0.585176 0.649448 0.115912
O O3 0.691921 0.618065 0.113865
O O4 0.630073 0.585621 0.252099
O O5 0.500000 0.744952 0.861359
O O6 0.394394 0.796424 0.848249
O O7 0.434786 0.754485 0.000000
O O8 0.250000 0.662489 0.750000
O O9 0.250000 0.750000 0.610758
O O10 0.306462 0.620071 0.612167
O O11 0.592692 0.933427 0.920881
#
# Coordination Sequence:
#
# PCOD9513818 Si02
#       5
#    32  32  32   8  32
#     4  11  23  40  67 100 132 172 217 259 321 392
#     4  11  25  46  67  90 127 172 220 275 327 380
#     4   9  18  35  63  95 129 169 210 257 311 376
#     4  12  24  40  65 104 132 164 209 274 328 376
#     4  11  22  42  66  97 134 173 210 264 330 390
#
# _framework density 22.149173999999999
#
# number of rings (size 3 to 8) (size 9 to 14) (size 15 to 20)
#    0.000    1.412    4.706    0.706    1.647    4.235 
#    2.118    4.118    0.000    0.000    0.000    0.000 
#    0.000    0.000    0.000    0.000    0.000    0.000 
#
# Total GULP energy -189662.575844 kJ/mol
# GULP energy per Si atom -5578.311054 kJ/mol
# Density = 2.209876 g / cm^3
# Si number density = 22.149174 Si / 1000 Ang^3
#
#
#
# Elastic Constant Matrix: (Units=GPa)
#
#
# Indices 1 2 3 4 5 6 
#
# 1 72.5068 10.1935 7.8347 0.0000 0.0000 0.0000
# 2 10.1935 145.4768 17.5498 0.0000 0.0000 0.0000
# 3 7.8347 17.5498 71.5867 0.0000 0.0000 0.0000
# 4 0.0000 0.0000 0.0000 25.4214 0.0000 0.0000
# 5 0.0000 0.0000 0.0000 0.0000 3.4708 0.0000
# 6 0.0000 0.0000 0.0000 0.0000 0.0000 -19.7929
#
#
#
# Elastic Compliance Matrix: (Units=1/GPa)
#
#
# Indices 1 2 3 4 5 6 
#
# 1 0.014052 -0.000823 -0.001336 0.000000 0.000000 0.000000
# 2 -0.000823 0.007132 -0.001658 0.000000 0.000000 0.000000
# 3 -0.001336 -0.001658 0.014522 0.000000 0.000000 0.000000
# 4 0.000000 0.000000 0.000000 0.039337 0.000000 0.000000
# 5 0.000000 0.000000 0.000000 0.000000 0.288114 0.000000
# 6 0.000000 0.000000 0.000000 0.000000 0.000000 -0.050523
#
#
# Mechanical properties :
#
#
# Convention : Reuss Voigt Hill
#
# Bulk Modulus (GPa) = 35.62517 40.08069 37.85293
# Shear Modulus (GPa) = 15.16873 18.75269 16.96071
#
# Velocity S-wave (km/s) = 2.61979 2.91289 2.77022
# Velocity P-wave (km/s) = 5.02695 5.42663 5.23061
#
# Compressibility (1/GPa) = 0.02807004
#
# Stress axis : x y z
#
# Youngs Moduli (GPa) = 71.16458 140.21920 68.86188
#
# Poissons Ratio (x) = 0.11546 0.09200
# Poissons Ratio (y) = 0.05860 0.11419
# Poissons Ratio (z) = 0.09508 0.23252
#
# Static dielectric constant tensor:
#      x y z
#    x 1.797550 0.000000 0.000000 
#    y 0.000000 1.798680 0.000000 
#    z 0.000000 0.000000 1.835330 
# 
# From -- ./inp_files/24199.got.cif
#   From: 2010.05.17/outbox.cif.g08.bks.cpg/sg69_13_cif.got.tgz:24199.got - 2010.06.03 19:29:58.
