data_PCOD9513645
_publ_section_title
;
Structure prediction by ZEFSAII (Michael W. Deem and Ramdas Pophale) SiO2 
 PCOD9513645
Probable space group: F M M M
;
_chemical_formula_sum "Si O2"
_cell_formula_units_Z 128
_cell_length_a 23.177743
_cell_length_b 20.033241
_cell_length_c 14.993309
_cell_angle_alpha 90.000000
_cell_angle_beta 90.000000
_cell_angle_gamma 90.000000
_cell_volume 6961.772870
_symmetry_space_group_name_H-M "F M M M"
_symmetry_group_IT_number 69
_symmetry_cell_setting 'orthorhombic'
loop_
_space_group_symop_operation_xyz
x,y,z
-x,-y,z
x,-y,-z
-x,y,-z
-x,-y,-z
x,y,-z
-x,y,z
x,-y,z
x,1/2+y,1/2+z
-x,1/2-y,1/2+z
x,1/2-y,1/2-z
-x,1/2+y,1/2-z
-x,1/2-y,1/2-z
x,1/2+y,1/2-z
-x,1/2+y,1/2+z
x,1/2-y,1/2+z
1/2+x,y,1/2+z
1/2-x,-y,1/2+z
1/2+x,-y,1/2-z
1/2-x,y,1/2-z
1/2-x,-y,1/2-z
1/2+x,y,1/2-z
1/2-x,y,1/2+z
1/2+x,-y,1/2+z
1/2+x,1/2+y,z
1/2-x,1/2-y,z
1/2+x,1/2-y,-z
1/2-x,1/2+y,-z
1/2-x,1/2-y,-z
1/2+x,1/2+y,-z
1/2-x,1/2+y,z
1/2+x,1/2-y,z
loop_
_atom_site_type_symbol
_atom_site_label
_atom_site_fract_x
_atom_site_fract_y
_atom_site_fract_z
Si Si1 0.000000 0.113183 0.394777
Si Si2 0.813159 0.151171 0.500000
Si Si3 0.127019 0.922991 0.664504
Si Si4 0.320319 0.304349 0.000000
Si Si5 0.000000 0.226830 0.107921
Si Si6 0.377938 0.185634 0.687813
O O1 0.940879 0.082833 0.358957
O O2 0.000000 0.102802 0.500000
O O3 0.000000 0.193065 0.378884
O O4 0.836008 0.111302 0.585677
O O5 0.745770 0.170585 0.500000
O O6 0.838686 0.225736 0.500000
O O7 0.132984 0.878550 0.752021
O O8 0.143123 0.000000 0.674572
O O9 0.344415 0.325046 0.904346
O O10 0.056318 0.197530 0.155968
O O11 0.000000 0.214668 0.000000
O O12 0.361693 0.250000 0.750000
#
# Coordination Sequence:
#
# PCOD9513645 Si02
#       6
#    16  16  32  16  16  32
#     4  11  20  34  64 100 133 169 204 265 340 403
#     4  11  23  43  64  95 128 164 214 282 325 371
#     4  12  25  41  64  99 137 171 212 268 337 401
#     4  11  24  43  67  93 122 169 228 269 318 377
#     4  11  20  36  67 101 139 165 212 272 330 382
#     4  12  22  41  67  98 132 172 216 270 322 389
#
# _framework density 18.386120999999999
#
# number of rings (size 3 to 8) (size 9 to 14) (size 15 to 20)
#    0.000    0.500    7.500    1.875    0.000    1.500 
#    0.000    4.375    0.000    0.750    0.000    0.000 
#    0.000    0.000    0.000    0.000    0.000    0.000 
#
# Total GULP energy -178663.820037 kJ/mol
# GULP energy per Si atom -5583.244376 kJ/mol
# Density = 1.834427 g / cm^3
# Si number density = 18.386121 Si / 1000 Ang^3
#
#
#
# Elastic Constant Matrix: (Units=GPa)
#
#
# Indices 1 2 3 4 5 6 
#
# 1 24.6976 34.2452 35.0696 0.0000 0.0000 0.0000
# 2 34.2452 157.0172 90.3218 0.0000 0.0000 0.0000
# 3 35.0696 90.3218 179.1096 0.0000 0.0000 0.0000
# 4 0.0000 0.0000 0.0000 51.0863 0.0000 0.0000
# 5 0.0000 0.0000 0.0000 0.0000 -15.8521 0.0000
# 6 0.0000 0.0000 0.0000 0.0000 0.0000 5.1387
#
#
#
# Elastic Compliance Matrix: (Units=1/GPa)
#
#
# Indices 1 2 3 4 5 6 
#
# 1 0.065058 -0.009665 -0.007864 0.000000 0.000000 0.000000
# 2 -0.009665 0.010407 -0.003356 0.000000 0.000000 0.000000
# 3 -0.007864 -0.003356 0.008815 0.000000 0.000000 0.000000
# 4 0.000000 0.000000 0.000000 0.019575 0.000000 0.000000
# 5 0.000000 0.000000 0.000000 0.000000 -0.063083 0.000000
# 6 0.000000 0.000000 0.000000 0.000000 0.000000 0.194602
#
#
# Mechanical properties :
#
#
# Convention : Reuss Voigt Hill
#
# Bulk Modulus (GPa) = 23.52383 75.56639 49.54511
# Shear Modulus (GPa) = 17.16358 21.48711 19.32535
#
# Velocity S-wave (km/s) = 3.05865 3.42227 3.24556
# Velocity P-wave (km/s) = 5.02950 7.53690 6.40706
#
# Compressibility (1/GPa) = 0.04251008
#
# Stress axis : x y z
#
# Youngs Moduli (GPa) = 15.37080 96.08956 113.44061
#
# Poissons Ratio (x) = 0.92873 0.89214
# Poissons Ratio (y) = 0.14856 0.38066
# Poissons Ratio (z) = 0.12088 0.32244
#
# Static dielectric constant tensor:
#      x y z
#    x 1.702120 0.000000 0.000000 
#    y 0.000000 1.621230 0.000000 
#    z 0.000000 0.000000 1.523780 
# 
# From -- ./inp_files/16428.got.cif
#   From: 2010.05.17/outbox.cif.g08.bks.cpg/sg69_9_cif.got.tgz:16428.got - 2010.06.03 19:29:58.
