data_PCOD9513007
_publ_section_title
;
Structure prediction by ZEFSAII (Michael W. Deem and Ramdas Pophale) SiO2 
 PCOD9513007
Probable space group: F M M M
;
_chemical_formula_sum "Si O2"
_cell_formula_units_Z 144
_cell_length_a 11.164232
_cell_length_b 25.012571
_cell_length_c 26.856861
_cell_angle_alpha 90.000000
_cell_angle_beta 90.000000
_cell_angle_gamma 90.000000
_cell_volume 7499.674916
_symmetry_space_group_name_H-M "F M M M"
_symmetry_group_IT_number 69
_symmetry_cell_setting 'orthorhombic'
loop_
_space_group_symop_operation_xyz
x,y,z
-x,-y,z
x,-y,-z
-x,y,-z
-x,-y,-z
x,y,-z
-x,y,z
x,-y,z
x,1/2+y,1/2+z
-x,1/2-y,1/2+z
x,1/2-y,1/2-z
-x,1/2+y,1/2-z
-x,1/2-y,1/2-z
x,1/2+y,1/2-z
-x,1/2+y,1/2+z
x,1/2-y,1/2+z
1/2+x,y,1/2+z
1/2-x,-y,1/2+z
1/2+x,-y,1/2-z
1/2-x,y,1/2-z
1/2-x,-y,1/2-z
1/2+x,y,1/2-z
1/2-x,y,1/2+z
1/2+x,-y,1/2+z
1/2+x,1/2+y,z
1/2-x,1/2-y,z
1/2+x,1/2-y,-z
1/2-x,1/2+y,-z
1/2-x,1/2-y,-z
1/2+x,1/2+y,-z
1/2-x,1/2+y,z
1/2+x,1/2-y,z
loop_
_atom_site_type_symbol
_atom_site_label
_atom_site_fract_x
_atom_site_fract_y
_atom_site_fract_z
Si Si1 0.697377 0.058709 0.194401
Si Si2 0.855752 0.670358 0.555084
Si Si3 0.250000 0.250000 0.864160
Si Si4 0.856569 0.558522 0.597831
Si Si5 0.632096 0.324140 0.714442
O O1 0.750000 0.056975 0.250000
O O2 0.800056 0.062578 0.152640
O O3 0.630936 0.115383 0.192863
O O4 0.638551 0.000000 0.186402
O O5 0.814159 0.686988 0.500000
O O6 0.810097 0.706863 0.599650
O O7 0.818259 0.609207 0.565708
O O8 0.000000 0.671953 0.555168
O O9 0.342824 0.218780 0.828695
O O10 0.823701 0.500000 0.577157
O O11 0.000000 0.560440 0.601990
O O12 0.500000 0.315143 0.737834
O O13 0.750000 0.320523 0.750000
#
# Coordination Sequence:
#
# PCOD9513007 Si02
#       5
#    32  32  16  32  32
#     4   9  18  34  55  83 116 151 189 233 288 353
#     4  10  21  36  57  85 114 149 196 251 305 352
#     4  12  22  40  58  80 116 162 202 246 286 354
#     4   9  17  32  56  85 117 152 190 239 299 356
#     4  11  25  41  61  90 121 159 201 243 293 352
#
# _framework density 19.200831000000001
#
# number of rings (size 3 to 8) (size 9 to 14) (size 15 to 20)
#    0.000    2.000    2.222    1.333    0.000    7.111 
#    0.000    6.667    0.000    0.000    0.000    0.000 
#    0.000    3.556    0.000    0.000    0.000    0.000 
#
# Total GULP energy -200564.601083 kJ/mol
# GULP energy per Si atom -5571.238919 kJ/mol
# Density = 1.915713 g / cm^3
# Si number density = 19.200831 Si / 1000 Ang^3
#
#
#
# Elastic Constant Matrix: (Units=GPa)
#
#
# Indices 1 2 3 4 5 6 
#
# 1 68.6591 38.2200 29.0871 0.0000 0.0000 0.0000
# 2 38.2200 147.2300 38.4129 0.0000 0.0000 0.0000
# 3 29.0871 38.4129 67.0217 0.0000 0.0000 0.0000
# 4 0.0000 0.0000 0.0000 95.1028 0.0000 0.0000
# 5 0.0000 0.0000 0.0000 0.0000 20.2810 0.0000
# 6 0.0000 0.0000 0.0000 0.0000 0.0000 8.8724
#
#
#
# Elastic Compliance Matrix: (Units=1/GPa)
#
#
# Indices 1 2 3 4 5 6 
#
# 1 0.019111 -0.003289 -0.006409 0.000000 0.000000 0.000000
# 2 -0.003289 0.008552 -0.003474 0.000000 0.000000 0.000000
# 3 -0.006409 -0.003474 0.019693 0.000000 0.000000 0.000000
# 4 0.000000 0.000000 0.000000 0.010515 0.000000 0.000000
# 5 0.000000 0.000000 0.000000 0.000000 0.049307 0.000000
# 6 0.000000 0.000000 0.000000 0.000000 0.000000 0.112709
#
#
# Mechanical properties :
#
#
# Convention : Reuss Voigt Hill
#
# Bulk Modulus (GPa) = 47.59200 54.92786 51.25993
# Shear Modulus (GPa) = 19.74444 36.66397 28.20421
#
# Velocity S-wave (km/s) = 3.21021 4.37452 3.83679
# Velocity P-wave (km/s) = 6.21135 7.36100 6.81048
#
# Compressibility (1/GPa) = 0.02101194
#
# Stress axis : x y z
#
# Youngs Moduli (GPa) = 52.32692 116.92723 50.77876
#
# Poissons Ratio (x) = 0.38456 0.32544
# Poissons Ratio (y) = 0.17210 0.17642
# Poissons Ratio (z) = 0.33536 0.40624
#
# Static dielectric constant tensor:
#      x y z
#    x 1.606870 0.000000 0.000000 
#    y 0.000000 1.730140 0.000000 
#    z 0.000000 0.000000 1.640890 
# 
# From -- ./inp_files/35130.got.cif
#   From: 2010.05.17/outbox.cif.g08.bks.cpg/sg69_18_cif.got.tgz:35130.got - 2010.06.03 19:29:58.
