data_PCOD9513609
_publ_section_title
;
Structure prediction by ZEFSAII (Michael W. Deem and Ramdas Pophale) SiO2 
 PCOD9513609
Probable space group: F M M M
;
_chemical_formula_sum "Si O2"
_cell_formula_units_Z 192
_cell_length_a 29.067123
_cell_length_b 26.058098
_cell_length_c 17.848096
_cell_angle_alpha 90.000000
_cell_angle_beta 90.000000
_cell_angle_gamma 90.000000
_cell_volume 13518.753670
_symmetry_space_group_name_H-M "F M M M"
_symmetry_group_IT_number 69
_symmetry_cell_setting 'orthorhombic'
loop_
_space_group_symop_operation_xyz
x,y,z
-x,-y,z
x,-y,-z
-x,y,-z
-x,-y,-z
x,y,-z
-x,y,z
x,-y,z
x,1/2+y,1/2+z
-x,1/2-y,1/2+z
x,1/2-y,1/2-z
-x,1/2+y,1/2-z
-x,1/2-y,1/2-z
x,1/2+y,1/2-z
-x,1/2+y,1/2+z
x,1/2-y,1/2+z
1/2+x,y,1/2+z
1/2-x,-y,1/2+z
1/2+x,-y,1/2-z
1/2-x,y,1/2-z
1/2-x,-y,1/2-z
1/2+x,y,1/2-z
1/2-x,y,1/2+z
1/2+x,-y,1/2+z
1/2+x,1/2+y,z
1/2-x,1/2-y,z
1/2+x,1/2-y,-z
1/2-x,1/2+y,-z
1/2-x,1/2-y,-z
1/2+x,1/2+y,-z
1/2-x,1/2+y,z
1/2+x,1/2-y,z
loop_
_atom_site_type_symbol
_atom_site_label
_atom_site_fract_x
_atom_site_fract_y
_atom_site_fract_z
Si Si1 0.212365 0.000000 0.086526
Si Si2 0.704985 0.686609 0.913700
Si Si3 0.184300 0.199036 0.414436
Si Si4 0.054149 0.061213 0.588087
Si Si5 0.202334 0.094267 0.198960
Si Si6 0.640504 0.101047 0.162960
Si Si7 0.321979 0.000000 0.917414
O O1 0.201333 0.951068 0.138089
O O2 0.267321 0.000000 0.079688
O O3 0.194388 0.000000 0.000000
O O4 0.760489 0.692046 0.914221
O O5 0.680276 0.740680 0.895420
O O6 0.697602 0.645516 0.849531
O O7 0.692450 0.672336 0.000000
O O8 0.168357 0.191453 0.500000
O O9 0.160410 0.155678 0.364676
O O10 0.063772 0.072133 0.500000
O O11 0.087228 0.093800 0.641697
O O12 0.000000 0.070464 0.600519
O O13 0.062220 0.000000 0.599945
O O14 0.250000 0.092697 0.250000
O O15 0.158754 0.092247 0.253700
O O16 0.663377 0.053017 0.119775
O O17 0.342091 0.000000 0.000000
#
# Coordination Sequence:
#
# PCOD9513609 Si02
#       7
#    16  32  32  32  32  32  16
#     4  11  22  34  44  58  93 138 172 191 222 278
#     4   9  18  33  45  59  90 130 167 201 231 273
#     4   9  17  29  46  65  88 126 170 200 231 276
#     4   9  18  32  49  70  97 129 160 192 238 299
#     4  12  21  31  43  68  95 125 162 203 238 281
#     4  12  20  28  45  71  98 124 157 201 240 284
#     4  11  19  27  42  62  91 129 159 185 224 278
#
# _framework density 14.202491999999999
#
# number of rings (size 3 to 8) (size 9 to 14) (size 15 to 20)
#    0.000    1.667    4.167    4.250    0.000    3.333 
#    0.000    0.000    0.000    0.000    0.000    2.333 
#    0.000    4.667    0.000    0.000    0.000    0.000 
#
# Total GULP energy -267265.869599 kJ/mol
# GULP energy per Si atom -5568.038950 kJ/mol
# Density = 1.417017 g / cm^3
# Si number density = 14.202492 Si / 1000 Ang^3
#
#
#
# Elastic Constant Matrix: (Units=GPa)
#
#
# Indices 1 2 3 4 5 6 
#
# 1 65.8425 23.6406 35.2488 0.0000 0.0000 0.0000
# 2 23.6406 81.3270 61.1660 0.0000 0.0000 0.0000
# 3 35.2488 61.1660 105.9112 0.0000 0.0000 0.0000
# 4 0.0000 0.0000 0.0000 53.6807 0.0000 0.0000
# 5 0.0000 0.0000 0.0000 0.0000 18.8021 0.0000
# 6 0.0000 0.0000 0.0000 0.0000 0.0000 14.5498
#
#
#
# Elastic Compliance Matrix: (Units=1/GPa)
#
#
# Indices 1 2 3 4 5 6 
#
# 1 0.018561 -0.001325 -0.005412 0.000000 0.000000 0.000000
# 2 -0.001325 0.021833 -0.012168 0.000000 0.000000 0.000000
# 3 -0.005412 -0.012168 0.018270 0.000000 0.000000 0.000000
# 4 0.000000 0.000000 0.000000 0.018629 0.000000 0.000000
# 5 0.000000 0.000000 0.000000 0.000000 0.053186 0.000000
# 6 0.000000 0.000000 0.000000 0.000000 0.000000 0.068729
#
#
# Mechanical properties :
#
#
# Convention : Reuss Voigt Hill
#
# Bulk Modulus (GPa) = 47.95256 54.79906 51.37581
# Shear Modulus (GPa) = 20.49444 26.27488 23.38466
#
# Velocity S-wave (km/s) = 3.80283 4.30585 4.06213
# Velocity P-wave (km/s) = 7.28826 7.96168 7.63240
#
# Compressibility (1/GPa) = 0.02085394
#
# Stress axis : x y z
#
# Youngs Moduli (GPa) = 53.87683 45.80306 54.73353
#
# Poissons Ratio (x) = 0.06068 0.29623
# Poissons Ratio (y) = 0.07138 0.66599
# Poissons Ratio (z) = 0.29159 0.55733
#
# Static dielectric constant tensor:
#      x y z
#    x 1.465590 0.000000 0.000000 
#    y 0.000000 1.528330 0.000000 
#    z 0.000000 0.000000 1.494850 
# 
# From -- ./inp_files/19908.got.cif
#   From: 2010.05.17/outbox.cif.g08.bks.cpg/sg69_10_cif.got.tgz:19908.got - 2010.06.03 19:29:58.
