data_PCOD9513465
_publ_section_title
;
Structure prediction by ZEFSAII (Michael W. Deem and Ramdas Pophale) SiO2 
 PCOD9513465
Probable space group: F M M M
;
_chemical_formula_sum "Si O2"
_cell_formula_units_Z 176
_cell_length_a 27.016885
_cell_length_b 17.526497
_cell_length_c 17.550196
_cell_angle_alpha 90.000000
_cell_angle_beta 90.000000
_cell_angle_gamma 90.000000
_cell_volume 8310.217069
_symmetry_space_group_name_H-M "F M M M"
_symmetry_group_IT_number 69
_symmetry_cell_setting 'orthorhombic'
loop_
_space_group_symop_operation_xyz
x,y,z
-x,-y,z
x,-y,-z
-x,y,-z
-x,-y,-z
x,y,-z
-x,y,z
x,-y,z
x,1/2+y,1/2+z
-x,1/2-y,1/2+z
x,1/2-y,1/2-z
-x,1/2+y,1/2-z
-x,1/2-y,1/2-z
x,1/2+y,1/2-z
-x,1/2+y,1/2+z
x,1/2-y,1/2+z
1/2+x,y,1/2+z
1/2-x,-y,1/2+z
1/2+x,-y,1/2-z
1/2-x,y,1/2-z
1/2-x,-y,1/2-z
1/2+x,y,1/2-z
1/2-x,y,1/2+z
1/2+x,-y,1/2+z
1/2+x,1/2+y,z
1/2-x,1/2-y,z
1/2+x,1/2-y,-z
1/2-x,1/2+y,-z
1/2-x,1/2-y,-z
1/2+x,1/2+y,-z
1/2-x,1/2+y,z
1/2+x,1/2-y,z
loop_
_atom_site_type_symbol
_atom_site_label
_atom_site_fract_x
_atom_site_fract_y
_atom_site_fract_z
Si Si1 0.405173 0.416841 0.756905
Si Si2 0.559224 0.909558 0.000000
Si Si3 0.595016 0.696884 0.632635
Si Si4 0.204082 0.913251 0.800383
Si Si5 0.806580 0.223579 0.089683
Si Si6 0.941880 0.861782 0.085678
O O1 0.423749 0.500000 0.729619
O O2 0.421956 0.341870 0.711454
O O3 0.345784 0.415937 0.750745
O O4 0.417798 0.408262 0.845703
O O5 0.584235 0.869240 0.072055
O O6 0.500000 0.894490 0.000000
O O7 0.566602 0.000000 0.000000
O O8 0.652449 0.723482 0.630614
O O9 0.566695 0.772783 0.605947
O O10 0.250000 0.884687 0.750000
O O11 0.192581 0.858453 0.870569
O O12 0.215555 0.000000 0.824606
O O13 0.750000 0.250000 0.097211
O O14 0.819122 0.222027 0.000000
O O15 0.000000 0.878000 0.085912
O O16 0.922839 0.876649 0.000000
#
# Coordination Sequence:
#
# PCOD9513465 Si02
#       6
#    32  16  32  32  32  32
#     4  11  25  41  64  96 129 172 219 270 333 399
#     4  11  24  42  67  96 133 181 222 275 350 422
#     4  12  22  42  66  96 134 170 222 281 335 406
#     4  10  22  41  63  92 132 175 218 271 338 401
#     4  11  23  39  65  98 130 171 226 279 336 408
#     4  11  24  43  68  97 131 174 224 279 341 406
#
# _framework density 21.178747999999999
#
# number of rings (size 3 to 8) (size 9 to 14) (size 15 to 20)
#    0.000    1.000    3.636    2.727    0.000    5.091 
#    0.000    3.636    0.000    0.000    0.000    0.000 
#    0.000    0.000    0.000    0.000    0.000    0.000 
#
# Total GULP energy -245832.205064 kJ/mol
# GULP energy per Si atom -5587.095570 kJ/mol
# Density = 2.113054 g / cm^3
# Si number density = 21.178748 Si / 1000 Ang^3
#
#
#
# Elastic Constant Matrix: (Units=GPa)
#
#
# Indices 1 2 3 4 5 6 
#
# 1 76.8193 6.0760 2.9890 0.0000 0.0000 0.0000
# 2 6.0760 99.3226 39.5525 0.0000 0.0000 0.0000
# 3 2.9890 39.5525 97.4470 0.0000 0.0000 0.0000
# 4 0.0000 0.0000 0.0000 50.6101 0.0000 0.0000
# 5 0.0000 0.0000 0.0000 0.0000 18.6740 0.0000
# 6 0.0000 0.0000 0.0000 0.0000 0.0000 16.8120
#
#
#
# Elastic Compliance Matrix: (Units=1/GPa)
#
#
# Indices 1 2 3 4 5 6 
#
# 1 0.013082 -0.000764 -0.000091 0.000000 0.000000 0.000000
# 2 -0.000764 0.012054 -0.004869 0.000000 0.000000 0.000000
# 3 -0.000091 -0.004869 0.012241 0.000000 0.000000 0.000000
# 4 0.000000 0.000000 0.000000 0.019759 0.000000 0.000000
# 5 0.000000 0.000000 0.000000 0.000000 0.053550 0.000000
# 6 0.000000 0.000000 0.000000 0.000000 0.000000 0.059481
#
#
# Mechanical properties :
#
#
# Convention : Reuss Voigt Hill
#
# Bulk Modulus (GPa) = 38.56819 41.20266 39.88542
# Shear Modulus (GPa) = 26.28006 32.21732 29.24869
#
# Velocity S-wave (km/s) = 3.52642 3.90450 3.72027
# Velocity P-wave (km/s) = 5.90179 6.31061 6.10962
#
# Compressibility (1/GPa) = 0.02592810
#
# Stress axis : x y z
#
# Youngs Moduli (GPa) = 76.44361 82.96057 81.69206
#
# Poissons Ratio (x) = 0.06338 0.00745
# Poissons Ratio (y) = 0.05840 0.39777
# Poissons Ratio (z) = 0.00697 0.40394
#
# Static dielectric constant tensor:
#      x y z
#    x 1.771050 0.000000 0.000000 
#    y 0.000000 1.751290 0.000000 
#    z 0.000000 0.000000 1.790860 
# 
# From -- ./inp_files/26756.got.cif
#   From: 2010.05.17/outbox.cif.g08.bks.cpg/sg69_14_cif.got.tgz:26756.got - 2010.06.03 19:29:58.
