data_PCOD9513531
_publ_section_title
;
Structure prediction by ZEFSAII (Michael W. Deem and Ramdas Pophale) SiO2 
 PCOD9513531
Probable space group: F M M M
;
_chemical_formula_sum "Si O2"
_cell_formula_units_Z 116
_cell_length_a 13.594070
_cell_length_b 16.298786
_cell_length_c 25.260119
_cell_angle_alpha 90.000000
_cell_angle_beta 90.000000
_cell_angle_gamma 90.000000
_cell_volume 5596.804689
_symmetry_space_group_name_H-M "F M M M"
_symmetry_group_IT_number 69
_symmetry_cell_setting 'orthorhombic'
loop_
_space_group_symop_operation_xyz
x,y,z
-x,-y,z
x,-y,-z
-x,y,-z
-x,-y,-z
x,y,-z
-x,y,z
x,-y,z
x,1/2+y,1/2+z
-x,1/2-y,1/2+z
x,1/2-y,1/2-z
-x,1/2+y,1/2-z
-x,1/2-y,1/2-z
x,1/2+y,1/2-z
-x,1/2+y,1/2+z
x,1/2-y,1/2+z
1/2+x,y,1/2+z
1/2-x,-y,1/2+z
1/2+x,-y,1/2-z
1/2-x,y,1/2-z
1/2-x,-y,1/2-z
1/2+x,y,1/2-z
1/2-x,y,1/2+z
1/2+x,-y,1/2+z
1/2+x,1/2+y,z
1/2-x,1/2-y,z
1/2+x,1/2-y,-z
1/2-x,1/2+y,-z
1/2-x,1/2-y,-z
1/2+x,1/2+y,-z
1/2-x,1/2+y,z
1/2+x,1/2-y,z
loop_
_atom_site_type_symbol
_atom_site_label
_atom_site_fract_x
_atom_site_fract_y
_atom_site_fract_z
Si Si1 0.000000 0.500000 0.000000
Si Si2 0.796467 0.909826 0.500000
Si Si3 0.705866 0.904598 0.196605
Si Si4 0.000000 0.753870 0.063386
Si Si5 0.000000 0.899442 0.640686
Si Si6 0.200415 0.167958 0.102209
O O1 0.911129 0.569150 0.000000
O O2 0.763317 0.861966 0.448084
O O3 0.746192 0.000000 0.500000
O O4 0.750000 0.865525 0.250000
O O5 0.598817 0.879953 0.173782
O O6 0.784990 0.895524 0.149482
O O7 0.689351 0.000000 0.207995
O O8 0.905827 0.805985 0.082378
O O9 0.000000 0.665310 0.092589
O O10 0.000000 0.748277 0.000000
O O11 0.000000 0.000000 0.625108
O O12 0.250000 0.250000 0.124445
#
# Coordination Sequence:
#
# PCOD9513531 Si02
#       6
#     4  16  32  16  16  32
#     4   8  24  44  76 106 124 180 250 288 348 384
#     4  10  23  44  66 102 136 181 229 295 342 418
#     4  10  23  45  72 101 137 181 236 302 355 422
#     4  12  26  45  67 102 145 194 233 286 372 431
#     4  10  22  45  73 104 134 182 245 300 357 418
#     4  12  24  43  66  99 147 181 229 290 362 426
#
# _framework density 20.726112000000001
#
# number of rings (size 3 to 8) (size 9 to 14) (size 15 to 20)
#    0.414    0.828    4.138    1.241    0.000    4.138 
#    2.483    6.207    0.000    0.000    0.000    0.000 
#    0.000    0.000    0.000    0.000    0.000    0.000 
#
# Total GULP energy -161621.100545 kJ/mol
# GULP energy per Si atom -5573.141398 kJ/mol
# Density = 2.067894 g / cm^3
# Si number density = 20.726112 Si / 1000 Ang^3
#
#
#
# Elastic Constant Matrix: (Units=GPa)
#
#
# Indices 1 2 3 4 5 6 
#
# 1 189.4961 43.3401 81.6418 0.0000 0.0000 0.0000
# 2 43.3401 33.8784 8.4863 0.0000 0.0000 0.0000
# 3 81.6418 8.4863 152.8465 0.0000 0.0000 0.0000
# 4 0.0000 0.0000 0.0000 22.2955 0.0000 0.0000
# 5 0.0000 0.0000 0.0000 0.0000 23.4730 0.0000
# 6 0.0000 0.0000 0.0000 0.0000 0.0000 42.5857
#
#
#
# Elastic Compliance Matrix: (Units=1/GPa)
#
#
# Indices 1 2 3 4 5 6 
#
# 1 0.009920 -0.011523 -0.004659 0.000000 0.000000 0.000000
# 2 -0.011523 0.043320 0.003750 0.000000 0.000000 0.000000
# 3 -0.004659 0.003750 0.008823 0.000000 0.000000 0.000000
# 4 0.000000 0.000000 0.000000 0.044852 0.000000 0.000000
# 5 0.000000 0.000000 0.000000 0.000000 0.042602 0.000000
# 6 0.000000 0.000000 0.000000 0.000000 0.000000 0.023482
#
#
# Mechanical properties :
#
#
# Convention : Reuss Voigt Hill
#
# Bulk Modulus (GPa) = 26.88333 71.46194 49.17264
# Shear Modulus (GPa) = 23.77983 33.85437 28.81710
#
# Velocity S-wave (km/s) = 3.39091 4.04594 3.73282
# Velocity P-wave (km/s) = 5.32259 7.50868 6.50808
#
# Compressibility (1/GPa) = 0.03719778
#
# Stress axis : x y z
#
# Youngs Moduli (GPa) = 100.80770 23.08424 113.34287
#
# Poissons Ratio (x) = 0.26601 0.52805
# Poissons Ratio (y) = 1.16164 -0.42503
# Poissons Ratio (z) = 0.46965 -0.08656
#
# Static dielectric constant tensor:
#      x y z
#    x 1.719650 0.000000 0.000000 
#    y 0.000000 1.809030 0.000000 
#    z 0.000000 0.000000 1.788490 
# 
# From -- ./inp_files/35634.got.cif
#   From: 2010.05.17/outbox.cif.g08.bks.cpg/sg69_18_cif.got.tgz:35634.got - 2010.06.03 19:29:58.
