data_PCOD9513483
_publ_section_title
;
Structure prediction by ZEFSAII (Michael W. Deem and Ramdas Pophale) SiO2 
 PCOD9513483
Probable space group: F M M M
;
_chemical_formula_sum "Si O2"
_cell_formula_units_Z 136
_cell_length_a 17.931621
_cell_length_b 17.875855
_cell_length_c 20.128648
_cell_angle_alpha 90.000000
_cell_angle_beta 90.000000
_cell_angle_gamma 90.000000
_cell_volume 6452.098361
_symmetry_space_group_name_H-M "F M M M"
_symmetry_group_IT_number 69
_symmetry_cell_setting 'orthorhombic'
loop_
_space_group_symop_operation_xyz
x,y,z
-x,-y,z
x,-y,-z
-x,y,-z
-x,-y,-z
x,y,-z
-x,y,z
x,-y,z
x,1/2+y,1/2+z
-x,1/2-y,1/2+z
x,1/2-y,1/2-z
-x,1/2+y,1/2-z
-x,1/2-y,1/2-z
x,1/2+y,1/2-z
-x,1/2+y,1/2+z
x,1/2-y,1/2+z
1/2+x,y,1/2+z
1/2-x,-y,1/2+z
1/2+x,-y,1/2-z
1/2-x,y,1/2-z
1/2-x,-y,1/2-z
1/2+x,y,1/2-z
1/2-x,y,1/2+z
1/2+x,-y,1/2+z
1/2+x,1/2+y,z
1/2-x,1/2-y,z
1/2+x,1/2-y,-z
1/2-x,1/2+y,-z
1/2-x,1/2-y,-z
1/2+x,1/2+y,-z
1/2-x,1/2+y,z
1/2+x,1/2-y,z
loop_
_atom_site_type_symbol
_atom_site_label
_atom_site_fract_x
_atom_site_fract_y
_atom_site_fract_z
Si Si1 0.589171 0.314478 0.500000
Si Si2 0.193664 0.317790 0.500000
Si Si3 0.000000 0.094291 0.000000
Si Si4 0.160408 0.338571 0.745802
Si Si5 0.409646 0.086412 0.874603
Si Si6 0.363319 0.086321 0.607170
O O1 0.500000 0.312399 0.500000
O O2 0.616373 0.229436 0.500000
O O3 0.613544 0.359876 0.435101
O O4 0.250000 0.250000 0.500000
O O5 0.198100 0.368741 0.564729
O O6 0.065064 0.088842 0.058687
O O7 0.144346 0.250000 0.750000
O O8 0.250000 0.348102 0.750000
O O9 0.124035 0.382002 0.807058
O O10 0.129299 0.372146 0.677104
O O11 0.500000 0.088750 0.871141
O O12 0.388315 0.000000 0.886199
O O13 0.343533 0.000000 0.618199
#
# Coordination Sequence:
#
# PCOD9513483 Si02
#       6
#    16  16   8  32  32  32
#     4  10  22  41  67  95 132 176 221 273 337 401
#     4  11  25  41  66  95 136 174 223 281 337 402
#     4  10  23  46  72 104 136 170 227 292 351 410
#     4  11  26  45  67  97 141 180 227 280 342 410
#     4  10  22  42  67  99 131 172 225 279 335 403
#     4  11  24  44  71  99 135 179 226 282 345 414
#
# _framework density 21.078413999999999
#
# number of rings (size 3 to 8) (size 9 to 14) (size 15 to 20)
#    0.000    1.412    0.000    4.588   11.529    3.765 
#    0.000    1.176    0.000    0.000    0.000    0.000 
#    0.000    0.000    0.000    0.000    0.000    0.000 
#
# Total GULP energy -189610.376887 kJ/mol
# GULP energy per Si atom -5576.775791 kJ/mol
# Density = 2.103044 g / cm^3
# Si number density = 21.078414 Si / 1000 Ang^3
#
#
#
# Elastic Constant Matrix: (Units=GPa)
#
#
# Indices 1 2 3 4 5 6 
#
# 1 42.7347 23.2428 18.2736 0.0000 0.0000 0.0000
# 2 23.2428 179.4299 76.1786 0.0000 0.0000 0.0000
# 3 18.2736 76.1786 190.3606 0.0000 0.0000 0.0000
# 4 0.0000 0.0000 0.0000 21.1239 0.0000 0.0000
# 5 0.0000 0.0000 0.0000 0.0000 34.8836 0.0000
# 6 0.0000 0.0000 0.0000 0.0000 0.0000 8.2205
#
#
#
# Elastic Compliance Matrix: (Units=1/GPa)
#
#
# Indices 1 2 3 4 5 6 
#
# 1 0.025460 -0.002723 -0.001354 0.000000 0.000000 0.000000
# 2 -0.002723 0.007005 -0.002542 0.000000 0.000000 0.000000
# 3 -0.001354 -0.002542 0.006400 0.000000 0.000000 0.000000
# 4 0.000000 0.000000 0.000000 0.047340 0.000000 0.000000
# 5 0.000000 0.000000 0.000000 0.000000 0.028667 0.000000
# 6 0.000000 0.000000 0.000000 0.000000 0.000000 0.121648
#
#
# Mechanical properties :
#
#
# Convention : Reuss Voigt Hill
#
# Bulk Modulus (GPa) = 39.02096 71.99057 55.50577
# Shear Modulus (GPa) = 19.35726 32.50095 25.92911
#
# Velocity S-wave (km/s) = 3.03371 3.93097 3.51112
# Velocity P-wave (km/s) = 5.55191 7.40481 6.54427
#
# Compressibility (1/GPa) = 0.02562725
#
# Stress axis : x y z
#
# Youngs Moduli (GPa) = 39.27682 142.75238 156.23968
#
# Poissons Ratio (x) = 0.38872 0.21160
# Poissons Ratio (y) = 0.10695 0.39715
# Poissons Ratio (z) = 0.05319 0.36287
#
# Static dielectric constant tensor:
#      x y z
#    x 1.720880 0.000000 0.000000 
#    y 0.000000 1.773140 0.000000 
#    z 0.000000 0.000000 1.704360 
# 
# From -- ./inp_files/24236.got.cif
#   From: 2010.05.17/outbox.cif.g08.bks.cpg/sg69_13_cif.got.tgz:24236.got - 2010.06.03 19:29:58.
