data_PCOD9513212
_publ_section_title
;
Structure prediction by ZEFSAII (Michael W. Deem and Ramdas Pophale) SiO2 
 PCOD9513212
Probable space group: F M M M
;
_chemical_formula_sum "Si O2"
_cell_formula_units_Z 192
_cell_length_a 24.071052
_cell_length_b 16.557504
_cell_length_c 25.488840
_cell_angle_alpha 90.000000
_cell_angle_beta 90.000000
_cell_angle_gamma 90.000000
_cell_volume 10158.743873
_symmetry_space_group_name_H-M "F M M M"
_symmetry_group_IT_number 69
_symmetry_cell_setting 'orthorhombic'
loop_
_space_group_symop_operation_xyz
x,y,z
-x,-y,z
x,-y,-z
-x,y,-z
-x,-y,-z
x,y,-z
-x,y,z
x,-y,z
x,1/2+y,1/2+z
-x,1/2-y,1/2+z
x,1/2-y,1/2-z
-x,1/2+y,1/2-z
-x,1/2-y,1/2-z
x,1/2+y,1/2-z
-x,1/2+y,1/2+z
x,1/2-y,1/2+z
1/2+x,y,1/2+z
1/2-x,-y,1/2+z
1/2+x,-y,1/2-z
1/2-x,y,1/2-z
1/2-x,-y,1/2-z
1/2+x,y,1/2-z
1/2-x,y,1/2+z
1/2+x,-y,1/2+z
1/2+x,1/2+y,z
1/2-x,1/2-y,z
1/2+x,1/2-y,-z
1/2-x,1/2+y,-z
1/2-x,1/2-y,-z
1/2+x,1/2+y,-z
1/2-x,1/2+y,z
1/2+x,1/2-y,z
loop_
_atom_site_type_symbol
_atom_site_label
_atom_site_fract_x
_atom_site_fract_y
_atom_site_fract_z
Si Si1 0.728641 0.593078 0.939695
Si Si2 0.561889 0.087427 0.437875
Si Si3 0.855374 0.360595 0.939806
Si Si4 0.932978 0.000000 0.400548
Si Si5 0.643557 0.303218 0.117636
Si Si6 0.065990 0.666397 0.717293
Si Si7 0.933342 0.000000 0.278007
O O1 0.710851 0.500000 0.932913
O O2 0.795202 0.597105 0.937054
O O3 0.700821 0.650975 0.896481
O O4 0.713436 0.617679 0.000000
O O5 0.559081 0.080943 0.500000
O O6 0.500000 0.102470 0.417906
O O7 0.602370 0.157576 0.424331
O O8 0.580081 0.000000 0.416344
O O9 0.904794 0.422231 0.927149
O O10 0.853367 0.290088 0.896879
O O11 0.861130 0.330307 0.000000
O O12 0.916122 0.000000 0.338945
O O13 0.000000 0.000000 0.404844
O O14 0.611387 0.322719 0.171330
O O15 0.068341 0.750000 0.750000
O O16 0.081328 0.584253 0.748983
O O17 0.000000 0.658286 0.701358
O O18 0.000000 0.000000 0.279099
#
# Coordination Sequence:
#
# PCOD9513212 Si02
#       7
#    32  32  32  16  32  32  16
#     4  10  21  39  61  87 124 164 202 245 300 372
#     4   9  18  31  46  74 120 157 181 224 287 354
#     4  11  23  40  60  89 127 162 200 252 310 375
#     4  11  23  42  68  90 115 160 213 265 322 374
#     4  12  22  33  60  89 115 156 208 252 295 365
#     4  10  22  40  60  88 125 161 205 264 322 376
#     4   9  20  39  63  85 114 157 203 254 312 365
#
# _framework density 18.899975000000001
#
# number of rings (size 3 to 8) (size 9 to 14) (size 15 to 20)
#    0.000    1.667    0.833    4.750    2.333    6.000 
#    0.000    0.000    0.000    8.000    0.000    0.000 
#    0.000    0.000    0.000    0.000    0.000    0.000 
#
# Total GULP energy -267576.669852 kJ/mol
# GULP energy per Si atom -5574.513955 kJ/mol
# Density = 1.885696 g / cm^3
# Si number density = 18.899975 Si / 1000 Ang^3
#
#
#
# Elastic Constant Matrix: (Units=GPa)
#
#
# Indices 1 2 3 4 5 6 
#
# 1 94.7302 25.2864 29.4481 0.0000 0.0000 0.0000
# 2 25.2864 78.1823 15.8569 0.0000 0.0000 0.0000
# 3 29.4481 15.8569 77.4901 0.0000 0.0000 0.0000
# 4 0.0000 0.0000 0.0000 17.3798 0.0000 0.0000
# 5 0.0000 0.0000 0.0000 0.0000 34.9068 0.0000
# 6 0.0000 0.0000 0.0000 0.0000 0.0000 62.7994
#
#
#
# Elastic Compliance Matrix: (Units=1/GPa)
#
#
# Indices 1 2 3 4 5 6 
#
# 1 0.012724 -0.003270 -0.004166 0.000000 0.000000 0.000000
# 2 -0.003270 0.014185 -0.001660 0.000000 0.000000 0.000000
# 3 -0.004166 -0.001660 0.014828 0.000000 0.000000 0.000000
# 4 0.000000 0.000000 0.000000 0.057538 0.000000 0.000000
# 5 0.000000 0.000000 0.000000 0.000000 0.028648 0.000000
# 6 0.000000 0.000000 0.000000 0.000000 0.000000 0.015924
#
#
# Mechanical properties :
#
#
# Convention : Reuss Voigt Hill
#
# Bulk Modulus (GPa) = 42.47362 43.50947 42.99155
# Shear Modulus (GPa) = 29.43118 35.00464 32.21791
#
# Velocity S-wave (km/s) = 3.95043 4.30827 4.13322
# Velocity P-wave (km/s) = 6.58251 6.91514 6.75088
#
# Compressibility (1/GPa) = 0.02354403
#
# Stress axis : x y z
#
# Youngs Moduli (GPa) = 78.58900 70.49693 67.44068
#
# Poissons Ratio (x) = 0.23055 0.28098
# Poissons Ratio (y) = 0.25702 0.11194
# Poissons Ratio (z) = 0.32743 0.11701
#
# Static dielectric constant tensor:
#      x y z
#    x 1.657280 0.000000 0.000000 
#    y 0.000000 1.733660 0.000000 
#    z 0.000000 0.000000 1.673380 
# 
# From -- ./inp_files/43226.got.cif
#   From: 2010.05.17/outbox.cif.g08.bks.cpg/sg69_22_cif.got.tgz:43226.got - 2010.06.03 19:29:58.
