data_PCOD9513235
_publ_section_title
;
Structure prediction by ZEFSAII (Michael W. Deem and Ramdas Pophale) SiO2 
 PCOD9513235
Probable space group: F M M M
;
_chemical_formula_sum "Si O2"
_cell_formula_units_Z 112
_cell_length_a 10.198485
_cell_length_b 23.203953
_cell_length_c 27.376062
_cell_angle_alpha 90.000000
_cell_angle_beta 90.000000
_cell_angle_gamma 90.000000
_cell_volume 6478.412753
_symmetry_space_group_name_H-M "F M M M"
_symmetry_group_IT_number 69
_symmetry_cell_setting 'orthorhombic'
loop_
_space_group_symop_operation_xyz
x,y,z
-x,-y,z
x,-y,-z
-x,y,-z
-x,-y,-z
x,y,-z
-x,y,z
x,-y,z
x,1/2+y,1/2+z
-x,1/2-y,1/2+z
x,1/2-y,1/2-z
-x,1/2+y,1/2-z
-x,1/2-y,1/2-z
x,1/2+y,1/2-z
-x,1/2+y,1/2+z
x,1/2-y,1/2+z
1/2+x,y,1/2+z
1/2-x,-y,1/2+z
1/2+x,-y,1/2-z
1/2-x,y,1/2-z
1/2-x,-y,1/2-z
1/2+x,y,1/2-z
1/2-x,y,1/2+z
1/2+x,-y,1/2+z
1/2+x,1/2+y,z
1/2-x,1/2-y,z
1/2+x,1/2-y,-z
1/2-x,1/2+y,-z
1/2-x,1/2-y,-z
1/2+x,1/2+y,-z
1/2-x,1/2+y,z
1/2+x,1/2-y,z
loop_
_atom_site_type_symbol
_atom_site_label
_atom_site_fract_x
_atom_site_fract_y
_atom_site_fract_z
Si Si1 0.150448 0.000000 0.941780
Si Si2 0.344411 0.068439 0.296420
Si Si3 0.500000 0.829404 0.058339
Si Si4 0.000000 0.308695 0.442647
Si Si5 0.763831 0.619626 0.397956
O O1 0.217855 0.057824 0.923629
O O2 0.000000 0.000000 0.923161
O O3 0.147130 0.000000 0.000000
O O4 0.500000 0.079939 0.287536
O O5 0.250000 0.077720 0.250000
O O6 0.291190 0.106397 0.341217
O O7 0.334857 0.000000 0.309049
O O8 0.500000 0.760077 0.061576
O O9 0.625993 0.854568 0.085794
O O10 0.500000 0.843930 0.000000
O O11 0.125892 0.337267 0.418009
O O12 0.000000 0.323945 0.500000
#
# Coordination Sequence:
#
# PCOD9513235 Si02
#       5
#    16  32  16  16  32
#     4  11  20  33  58  89 121 158 194 243 309 372
#     4  10  21  39  63  91 120 156 202 249 307 374
#     4  11  26  41  58  91 128 167 211 252 296 354
#     4  11  22  41  66  87 118 169 217 248 290 366
#     4  12  22  39  63  90 125 160 201 256 308 363
#
# _framework density 17.288184999999999
#
# number of rings (size 3 to 8) (size 9 to 14) (size 15 to 20)
#    0.000    1.000    4.286    3.429    2.000    2.857 
#    0.000    1.429    0.000    5.143    0.000    0.000 
#    0.000    0.000    0.000    0.000    0.000    0.000 
#
# Total GULP energy -156422.577667 kJ/mol
# GULP energy per Si atom -5586.520631 kJ/mol
# Density = 1.724884 g / cm^3
# Si number density = 17.288185 Si / 1000 Ang^3
#
#
#
# Elastic Constant Matrix: (Units=GPa)
#
#
# Indices 1 2 3 4 5 6 
#
# 1 194.6200 70.7846 95.3745 0.0000 0.0000 0.0000
# 2 70.7846 90.9019 63.0526 0.0000 0.0000 0.0000
# 3 95.3745 63.0526 155.9311 0.0000 0.0000 0.0000
# 4 0.0000 0.0000 0.0000 2.1596 0.0000 0.0000
# 5 0.0000 0.0000 0.0000 0.0000 23.7114 0.0000
# 6 0.0000 0.0000 0.0000 0.0000 0.0000-2126.7764
#
#
#
# Elastic Compliance Matrix: (Units=1/GPa)
#
#
# Indices 1 2 3 4 5 6 
#
# 1 0.008305 -0.004091 -0.003425 0.000000 0.000000 0.000000
# 2 -0.004091 0.017304 -0.004495 0.000000 0.000000 0.000000
# 3 -0.003425 -0.004495 0.010326 0.000000 0.000000 0.000000
# 4 0.000000 0.000000 0.000000 0.463048 0.000000 0.000000
# 5 0.000000 0.000000 0.000000 0.000000 0.042174 0.000000
# 6 0.000000 0.000000 0.000000 0.000000 0.000000 -0.000470
#
#
# Mechanical properties :
#
#
# Convention : Reuss Voigt Hill
#
# Bulk Modulus (GPa) = 83.94676 99.98626 91.96651
# Shear Modulus (GPa) = 8.79230 -406.03166 -198.61968
#
# Velocity S-wave (km/s) = 2.25760 -15.34179 -10.73019
# Velocity P-wave (km/s) = 7.44704 15.99584 10.01021
#
# Compressibility (1/GPa) = 0.01191231
#
# Stress axis : x y z
#
# Youngs Moduli (GPa) = 120.41374 57.78905 96.84476
#
# Poissons Ratio (x) = 0.23641 0.33173
# Poissons Ratio (y) = 0.49260 0.43532
# Poissons Ratio (z) = 0.41246 0.25976
#
# Static dielectric constant tensor:
#      x y z
#    x 1.640250 0.000000 0.000000 
#    y 0.000000 1.558510 0.000000 
#    z 0.000000 0.000000 1.588980 
# 
# From -- ./inp_files/3749.got.cif
#   From: 2010.05.17/outbox.cif.g08.bks.cpg/sg69_2_cif.got.tgz:3749.got - 2010.06.03 19:29:58.
