data_PCOD9513446
_publ_section_title
;
Structure prediction by ZEFSAII (Michael W. Deem and Ramdas Pophale) SiO2 
 PCOD9513446
Probable space group: F M M M
;
_chemical_formula_sum "Si O2"
_cell_formula_units_Z 88
_cell_length_a 19.435223
_cell_length_b 14.508943
_cell_length_c 13.698351
_cell_angle_alpha 90.000000
_cell_angle_beta 90.000000
_cell_angle_gamma 90.000000
_cell_volume 3862.723242
_symmetry_space_group_name_H-M "F M M M"
_symmetry_group_IT_number 69
_symmetry_cell_setting 'orthorhombic'
loop_
_space_group_symop_operation_xyz
x,y,z
-x,-y,z
x,-y,-z
-x,y,-z
-x,-y,-z
x,y,-z
-x,y,z
x,-y,z
x,1/2+y,1/2+z
-x,1/2-y,1/2+z
x,1/2-y,1/2-z
-x,1/2+y,1/2-z
-x,1/2-y,1/2-z
x,1/2+y,1/2-z
-x,1/2+y,1/2+z
x,1/2-y,1/2+z
1/2+x,y,1/2+z
1/2-x,-y,1/2+z
1/2+x,-y,1/2-z
1/2-x,y,1/2-z
1/2-x,-y,1/2-z
1/2+x,y,1/2-z
1/2-x,y,1/2+z
1/2+x,-y,1/2+z
1/2+x,1/2+y,z
1/2-x,1/2-y,z
1/2+x,1/2-y,-z
1/2-x,1/2+y,-z
1/2-x,1/2-y,-z
1/2+x,1/2+y,-z
1/2-x,1/2+y,z
1/2+x,1/2-y,z
loop_
_atom_site_type_symbol
_atom_site_label
_atom_site_fract_x
_atom_site_fract_y
_atom_site_fract_z
Si Si1 0.916375 0.500000 0.112216
Si Si2 0.303791 0.334377 0.885536
Si Si3 0.579910 0.800349 0.880615
Si Si4 0.250000 0.500000 0.250000
O O1 0.893988 0.401718 0.154331
O O2 0.000000 0.500000 0.112198
O O3 0.893002 0.500000 0.000000
O O4 0.250000 0.250000 0.878306
O O5 0.375366 0.287148 0.852844
O O6 0.279215 0.419511 0.823922
O O7 0.309053 0.359073 0.000000
O O8 0.500000 0.791275 0.854655
O O9 0.582923 0.805591 0.000000
#
# Coordination Sequence:
#
# PCOD9513446 Si02
#       4
#    16  32  32   8
#     4   7  10  19  42  80 122 158 190 233 300 379
#     4  10  22  40  64  93 124 165 214 261 318 386
#     4   8  14  28  54  90 128 162 203 259 319 380
#     4  12  24  42  62  84 124 166 212 270 328 384
#
# _framework density 22.781853999999999
#
# number of rings (size 3 to 8) (size 9 to 14) (size 15 to 20)
#    0.000    3.091    0.000    3.273    0.000    1.455 
#    0.000    6.364    0.000   10.909    0.000    0.000 
#    0.000    5.818    0.000    0.000    0.000   31.636 
#
# Total GULP energy -122492.787549 kJ/mol
# GULP energy per Si atom -5567.853980 kJ/mol
# Density = 2.273000 g / cm^3
# Si number density = 22.781854 Si / 1000 Ang^3
#
#
#
# Elastic Constant Matrix: (Units=GPa)
#
#
# Indices 1 2 3 4 5 6 
#
# 1 88.7673 76.4618 38.4117 0.0000 0.0000 0.0000
# 2 76.4618 259.3320 111.0732 0.0000 0.0000 0.0000
# 3 38.4117 111.0732 119.3564 0.0000 0.0000 0.0000
# 4 0.0000 0.0000 0.0000 53.5741 0.0000 0.0000
# 5 0.0000 0.0000 0.0000 0.0000 13.5374 0.0000
# 6 0.0000 0.0000 0.0000 0.0000 0.0000 23.9558
#
#
#
# Elastic Compliance Matrix: (Units=1/GPa)
#
#
# Indices 1 2 3 4 5 6 
#
# 1 0.015203 -0.003969 -0.001199 0.000000 0.000000 0.000000
# 2 -0.003969 0.007448 -0.005654 0.000000 0.000000 0.000000
# 3 -0.001199 -0.005654 0.014025 0.000000 0.000000 0.000000
# 4 0.000000 0.000000 0.000000 0.018666 0.000000 0.000000
# 5 0.000000 0.000000 0.000000 0.000000 0.073870 0.000000
# 6 0.000000 0.000000 0.000000 0.000000 0.000000 0.041744
#
#
# Mechanical properties :
#
#
# Convention : Reuss Voigt Hill
#
# Bulk Modulus (GPa) = 66.52134 102.14991 84.33562
# Shear Modulus (GPa) = 25.30244 34.31405 29.80825
#
# Velocity S-wave (km/s) = 3.33624 3.88519 3.62113
# Velocity P-wave (km/s) = 6.64103 8.06610 7.38800
#
# Compressibility (1/GPa) = 0.01503277
#
# Stress axis : x y z
#
# Youngs Moduli (GPa) = 65.77647 134.27009 71.29897
#
# Poissons Ratio (x) = 0.53289 0.08551
# Poissons Ratio (y) = 0.26105 0.40309
# Poissons Ratio (z) = 0.07889 0.75910
#
# Static dielectric constant tensor:
#      x y z
#    x 1.937100 0.000000 0.000000 
#    y 0.000000 1.807890 0.000000 
#    z 0.000000 0.000000 1.880940 
# 
# From -- ./inp_files/17091.got.cif
#   From: 2010.05.17/outbox.cif.g08.bks.cpg/sg69_9_cif.got.tgz:17091.got - 2010.06.03 19:29:58.
