data_PCOD9513192
_publ_section_title
;
Structure prediction by ZEFSAII (Michael W. Deem and Ramdas Pophale) SiO2 
 PCOD9513192
Probable space group: F M M M
;
_chemical_formula_sum "Si O2"
_cell_formula_units_Z 160
_cell_length_a 18.829686
_cell_length_b 27.861526
_cell_length_c 14.567981
_cell_angle_alpha 90.000000
_cell_angle_beta 90.000000
_cell_angle_gamma 90.000000
_cell_volume 7642.709347
_symmetry_space_group_name_H-M "F M M M"
_symmetry_group_IT_number 69
_symmetry_cell_setting 'orthorhombic'
loop_
_space_group_symop_operation_xyz
x,y,z
-x,-y,z
x,-y,-z
-x,y,-z
-x,-y,-z
x,y,-z
-x,y,z
x,-y,z
x,1/2+y,1/2+z
-x,1/2-y,1/2+z
x,1/2-y,1/2-z
-x,1/2+y,1/2-z
-x,1/2-y,1/2-z
x,1/2+y,1/2-z
-x,1/2+y,1/2+z
x,1/2-y,1/2+z
1/2+x,y,1/2+z
1/2-x,-y,1/2+z
1/2+x,-y,1/2-z
1/2-x,y,1/2-z
1/2-x,-y,1/2-z
1/2+x,y,1/2-z
1/2-x,y,1/2+z
1/2+x,-y,1/2+z
1/2+x,1/2+y,z
1/2-x,1/2-y,z
1/2+x,1/2-y,-z
1/2-x,1/2+y,-z
1/2-x,1/2-y,-z
1/2+x,1/2+y,-z
1/2-x,1/2+y,z
1/2+x,1/2-y,z
loop_
_atom_site_type_symbol
_atom_site_label
_atom_site_fract_x
_atom_site_fract_y
_atom_site_fract_z
Si Si1 0.266799 0.943856 0.107867
Si Si2 0.916579 0.831151 0.000000
Si Si3 0.076477 0.557079 0.831903
Si Si4 0.830194 0.700685 0.793065
Si Si5 0.670008 0.768484 0.000000
Si Si6 0.132538 0.611874 0.321470
O O1 0.348458 0.928387 0.122952
O O2 0.209848 0.910885 0.159145
O O3 0.259980 0.000000 0.136434
O O4 0.250912 0.941267 0.000000
O O5 0.878013 0.779436 0.000000
O O6 0.894511 0.862852 0.912761
O O7 0.000000 0.822838 0.000000
O O8 0.074563 0.500000 0.844025
O O9 0.085469 0.570759 0.724984
O O10 0.000000 0.576243 0.865707
O O11 0.860353 0.750000 0.750000
O O12 0.750000 0.698397 0.750000
O O13 0.835953 0.703752 0.903076
O O14 0.867106 0.654273 0.752952
O O15 0.750000 0.750000 0.000000
#
# Coordination Sequence:
#
# PCOD9513192 Si02
#       6
#    32  16  32  32  16  32
#     4  10  21  38  65  98 129 169 225 280 329 392
#     4  12  26  42  67  98 132 172 217 276 338 396
#     4  10  22  40  62  91 133 177 215 270 339 401
#     4  11  21  37  63  98 123 165 212 268 325 377
#     4  12  22  42  66  91 130 165 222 272 318 393
#     4  12  22  42  64  97 130 173 225 271 326 399
#
# _framework density 20.934984
#
# number of rings (size 3 to 8) (size 9 to 14) (size 15 to 20)
#    0.000    1.000    5.000    3.000    0.000    2.000 
#    5.400    5.000    0.000    2.400    0.000    0.000 
#    0.000    0.000    0.000    0.000    0.000    0.000 
#
# Total GULP energy -223361.540785 kJ/mol
# GULP energy per Si atom -5584.038520 kJ/mol
# Density = 2.088734 g / cm^3
# Si number density = 20.934984 Si / 1000 Ang^3
#
#
#
# Elastic Constant Matrix: (Units=GPa)
#
#
# Indices 1 2 3 4 5 6 
#
# 1 133.1360 25.1470 11.1639 0.0000 0.0000 0.0000
# 2 25.1470 48.5832 14.1206 0.0000 0.0000 0.0000
# 3 11.1639 14.1206 126.0473 0.0000 0.0000 0.0000
# 4 0.0000 0.0000 0.0000 25.7740 0.0000 0.0000
# 5 0.0000 0.0000 0.0000 0.0000 5.3509 0.0000
# 6 0.0000 0.0000 0.0000 0.0000 0.0000 11.3234
#
#
#
# Elastic Compliance Matrix: (Units=1/GPa)
#
#
# Indices 1 2 3 4 5 6 
#
# 1 0.008333 -0.004237 -0.000263 0.000000 0.000000 0.000000
# 2 -0.004237 0.023430 -0.002250 0.000000 0.000000 0.000000
# 3 -0.000263 -0.002250 0.008209 0.000000 0.000000 0.000000
# 4 0.000000 0.000000 0.000000 0.038799 0.000000 0.000000
# 5 0.000000 0.000000 0.000000 0.000000 0.186885 0.000000
# 6 0.000000 0.000000 0.000000 0.000000 0.000000 0.088313
#
#
# Mechanical properties :
#
#
# Convention : Reuss Voigt Hill
#
# Bulk Modulus (GPa) = 37.77476 45.40330 41.58903
# Shear Modulus (GPa) = 13.28752 25.64533 19.46643
#
# Velocity S-wave (km/s) = 2.52207 3.50380 3.05265
# Velocity P-wave (km/s) = 5.15404 6.17281 5.68629
#
# Compressibility (1/GPa) = 0.02647270
#
# Stress axis : x y z
#
# Youngs Moduli (GPa) = 119.99796 42.68017 121.81944
#
# Poissons Ratio (x) = 0.18083 0.03209
# Poissons Ratio (y) = 0.50842 0.27404
# Poissons Ratio (z) = 0.03161 0.09601
#
# Static dielectric constant tensor:
#      x y z
#    x 1.775030 0.000000 0.000000 
#    y 0.000000 1.774390 0.000000 
#    z 0.000000 0.000000 1.574180 
# 
# From -- ./inp_files/15694.got.cif
#   From: 2010.05.17/outbox.cif.g08.bks.cpg/sg69_8_cif.got.tgz:15694.got - 2010.06.03 19:29:58.
