data_PCOD9513661
_publ_section_title
;
Structure prediction by ZEFSAII (Michael W. Deem and Ramdas Pophale) SiO2 
 PCOD9513661
Probable space group: F M M M
;
_chemical_formula_sum "Si O2"
_cell_formula_units_Z 120
_cell_length_a 32.012215
_cell_length_b 13.105574
_cell_length_c 14.563510
_cell_angle_alpha 90.000000
_cell_angle_beta 90.000000
_cell_angle_gamma 90.000000
_cell_volume 6109.952450
_symmetry_space_group_name_H-M "F M M M"
_symmetry_group_IT_number 69
_symmetry_cell_setting 'orthorhombic'
loop_
_space_group_symop_operation_xyz
x,y,z
-x,-y,z
x,-y,-z
-x,y,-z
-x,-y,-z
x,y,-z
-x,y,z
x,-y,z
x,1/2+y,1/2+z
-x,1/2-y,1/2+z
x,1/2-y,1/2-z
-x,1/2+y,1/2-z
-x,1/2-y,1/2-z
x,1/2+y,1/2-z
-x,1/2+y,1/2+z
x,1/2-y,1/2+z
1/2+x,y,1/2+z
1/2-x,-y,1/2+z
1/2+x,-y,1/2-z
1/2-x,y,1/2-z
1/2-x,-y,1/2-z
1/2+x,y,1/2-z
1/2-x,y,1/2+z
1/2+x,-y,1/2+z
1/2+x,1/2+y,z
1/2-x,1/2-y,z
1/2+x,1/2-y,-z
1/2-x,1/2+y,-z
1/2-x,1/2-y,-z
1/2+x,1/2+y,-z
1/2-x,1/2+y,z
1/2+x,1/2-y,z
loop_
_atom_site_type_symbol
_atom_site_label
_atom_site_fract_x
_atom_site_fract_y
_atom_site_fract_z
Si Si1 0.692993 0.292898 0.394659
Si Si2 0.739365 0.000000 0.889478
Si Si3 0.549629 0.877346 0.500000
Si Si4 0.337058 0.500000 0.113819
Si Si5 0.250000 0.750000 0.750000
Si Si6 0.610150 0.702205 0.152673
O O1 0.704023 0.271595 0.500000
O O2 0.712400 0.400642 0.363451
O O3 0.715739 0.215113 0.326043
O O4 0.643582 0.283745 0.386766
O O5 0.787821 0.000000 0.861013
O O6 0.740172 0.000000 0.000000
O O7 0.500000 0.864049 0.500000
O O8 0.571677 0.825145 0.412547
O O9 0.558211 0.000000 0.500000
O O10 0.362125 0.401697 0.151123
O O11 0.339168 0.500000 0.000000
O O12 0.597753 0.750000 0.250000
#
# Coordination Sequence:
#
# PCOD9513661 Si02
#       6
#    32  16  16  16   8  32
#     4  11  22  39  56  85 130 180 229 271 319 376
#     4   9  22  36  56  84 125 184 233 271 297 357
#     4  11  24  50  82 102 122 162 218 279 348 419
#     4  11  20  41  65  90 132 185 237 277 316 360
#     4  12  22  34  52  90 114 182 242 270 304 358
#     4  12  23  40  68 101 130 171 218 278 339 397
#
# _framework density 19.640089
#
# number of rings (size 3 to 8) (size 9 to 14) (size 15 to 20)
#    0.000    0.933    5.333    2.000    0.000    4.267 
#    0.000    0.000    0.000    0.000    0.000    3.733 
#    0.000    0.000    0.000    0.000    0.000    0.000 
#
# Total GULP energy -167183.742387 kJ/mol
# GULP energy per Si atom -5572.791413 kJ/mol
# Density = 1.959539 g / cm^3
# Si number density = 19.640089 Si / 1000 Ang^3
#
#
#
# Elastic Constant Matrix: (Units=GPa)
#
#
# Indices 1 2 3 4 5 6 
#
# 1 173.6550 63.0399 68.8716 0.0000 0.0000 0.0000
# 2 63.0399 121.4700 52.9887 0.0000 0.0000 0.0000
# 3 68.8716 52.9887 165.6872 0.0000 0.0000 0.0000
# 4 0.0000 0.0000 0.0000 22.1527 0.0000 0.0000
# 5 0.0000 0.0000 0.0000 0.0000 64.4527 0.0000
# 6 0.0000 0.0000 0.0000 0.0000 0.0000 29.7760
#
#
#
# Elastic Compliance Matrix: (Units=1/GPa)
#
#
# Indices 1 2 3 4 5 6 
#
# 1 0.007756 -0.003043 -0.002251 0.000000 0.000000 0.000000
# 2 -0.003043 0.010761 -0.002177 0.000000 0.000000 0.000000
# 3 -0.002251 -0.002177 0.007667 0.000000 0.000000 0.000000
# 4 0.000000 0.000000 0.000000 0.045141 0.000000 0.000000
# 5 0.000000 0.000000 0.000000 0.000000 0.015515 0.000000
# 6 0.000000 0.000000 0.000000 0.000000 0.000000 0.033584
#
#
# Mechanical properties :
#
#
# Convention : Reuss Voigt Hill
#
# Bulk Modulus (GPa) = 88.94187 92.29028 90.61608
# Shear Modulus (GPa) = 35.94176 41.67041 38.80609
#
# Velocity S-wave (km/s) = 4.28251 4.61119 4.44989
# Velocity P-wave (km/s) = 8.35688 8.68582 8.52294
#
# Compressibility (1/GPa) = 0.01124330
#
# Stress axis : x y z
#
# Youngs Moduli (GPa) = 128.93348 92.92474 130.42756
#
# Poissons Ratio (x) = 0.28280 0.29354
# Poissons Ratio (y) = 0.39239 0.28389
# Poissons Ratio (z) = 0.29018 0.20226
#
# Static dielectric constant tensor:
#      x y z
#    x 1.677230 0.000000 0.000000 
#    y 0.000000 1.988030 0.000000 
#    z 0.000000 0.000000 1.753970 
# 
# From -- ./inp_files/19330.got.cif
#   From: 2010.05.17/outbox.cif.g08.bks.cpg/sg69_10_cif.got.tgz:19330.got - 2010.06.03 19:29:58.
