data_PCOD9513541
_publ_section_title
;
Structure prediction by ZEFSAII (Michael W. Deem and Ramdas Pophale) SiO2 
 PCOD9513541
Probable space group: F M M M
;
_chemical_formula_sum "Si O2"
_cell_formula_units_Z 192
_cell_length_a 16.700611
_cell_length_b 33.552131
_cell_length_c 17.783583
_cell_angle_alpha 90.000000
_cell_angle_beta 90.000000
_cell_angle_gamma 90.000000
_cell_volume 9964.872248
_symmetry_space_group_name_H-M "F M M M"
_symmetry_group_IT_number 69
_symmetry_cell_setting 'orthorhombic'
loop_
_space_group_symop_operation_xyz
x,y,z
-x,-y,z
x,-y,-z
-x,y,-z
-x,-y,-z
x,y,-z
-x,y,z
x,-y,z
x,1/2+y,1/2+z
-x,1/2-y,1/2+z
x,1/2-y,1/2-z
-x,1/2+y,1/2-z
-x,1/2-y,1/2-z
x,1/2+y,1/2-z
-x,1/2+y,1/2+z
x,1/2-y,1/2+z
1/2+x,y,1/2+z
1/2-x,-y,1/2+z
1/2+x,-y,1/2-z
1/2-x,y,1/2-z
1/2-x,-y,1/2-z
1/2+x,y,1/2-z
1/2-x,y,1/2+z
1/2+x,-y,1/2+z
1/2+x,1/2+y,z
1/2-x,1/2-y,z
1/2+x,1/2-y,-z
1/2-x,1/2+y,-z
1/2-x,1/2-y,-z
1/2+x,1/2+y,-z
1/2-x,1/2+y,z
1/2+x,1/2-y,z
loop_
_atom_site_type_symbol
_atom_site_label
_atom_site_fract_x
_atom_site_fract_y
_atom_site_fract_z
Si Si1 0.662845 0.580158 0.659024
Si Si2 0.849056 0.409081 0.662560
Si Si3 0.828279 0.827116 0.087580
Si Si4 0.595708 0.000000 0.086903
Si Si5 0.863063 0.837795 0.586206
Si Si6 0.591858 0.252666 0.410589
Si Si7 0.500000 0.452568 0.088960
O O1 0.757760 0.580461 0.638333
O O2 0.651859 0.583771 0.748360
O O3 0.626350 0.539720 0.627485
O O4 0.623261 0.620070 0.625317
O O5 0.860814 0.363112 0.637994
O O6 0.919726 0.434229 0.625058
O O7 0.732537 0.830685 0.086675
O O8 0.853708 0.783606 0.116568
O O9 0.855655 0.831377 0.000000
O O10 0.500000 0.000000 0.088233
O O11 0.622690 0.000000 0.000000
O O12 0.891179 0.841319 0.500000
O O13 0.897828 0.797153 0.621016
O O14 0.610878 0.256738 0.500000
O O15 0.500000 0.240328 0.403159
O O16 0.500000 0.500000 0.100174
O O17 0.500000 0.444114 0.000000
#
# Coordination Sequence:
#
# PCOD9513541 Si02
#       7
#    32  32  32  16  32  32  16
#     4  10  23  41  64  87 119 160 200 246 306 362
#     4  10  23  40  62  90 122 159 200 240 303 365
#     4   9  17  32  55  81 113 152 196 242 290 349
#     4  11  26  43  64  93 117 152 201 248 296 350
#     4   9  17  33  55  81 110 149 198 247 295 348
#     4   9  17  28  48  79 113 149 192 244 296 346
#     4  11  26  42  62  94 125 158 202 250 305 361
#
# _framework density 19.267683999999999
#
# number of rings (size 3 to 8) (size 9 to 14) (size 15 to 20)
#    0.000    2.333    0.000    1.500    4.667    5.333 
#    0.000    2.500    0.000    5.000    0.000    0.000 
#    0.000    0.000    0.000    0.000    0.000    0.000 
#
# Total GULP energy -267763.928673 kJ/mol
# GULP energy per Si atom -5578.415181 kJ/mol
# Density = 1.922383 g / cm^3
# Si number density = 19.267684 Si / 1000 Ang^3
#
#
#
# Elastic Constant Matrix: (Units=GPa)
#
#
# Indices 1 2 3 4 5 6 
#
# 1 46.9372 43.9713 25.6720 0.0000 0.0000 0.0000
# 2 43.9713 148.7713 42.4250 0.0000 0.0000 0.0000
# 3 25.6720 42.4250 42.5657 0.0000 0.0000 0.0000
# 4 0.0000 0.0000 0.0000 -7.7690 0.0000 0.0000
# 5 0.0000 0.0000 0.0000 0.0000 19.3904 0.0000
# 6 0.0000 0.0000 0.0000 0.0000 0.0000 27.6501
#
#
#
# Elastic Compliance Matrix: (Units=1/GPa)
#
#
# Indices 1 2 3 4 5 6 
#
# 1 0.035361 -0.006105 -0.015242 0.000000 0.000000 0.000000
# 2 -0.006105 0.010445 -0.006728 0.000000 0.000000 0.000000
# 3 -0.015242 -0.006728 0.039392 0.000000 0.000000 0.000000
# 4 0.000000 0.000000 0.000000 -0.128717 0.000000 0.000000
# 5 0.000000 0.000000 0.000000 0.000000 0.051572 0.000000
# 6 0.000000 0.000000 0.000000 0.000000 0.000000 0.036166
#
#
# Mechanical properties :
#
#
# Convention : Reuss Voigt Hill
#
# Bulk Modulus (GPa) = 34.42683 51.37899 42.90291
# Shear Modulus (GPa) = 45.43351 16.26804 30.85077
#
# Velocity S-wave (km/s) = 4.86121 2.90887 4.00580
# Velocity P-wave (km/s) = 7.02957 6.16488 6.61138
#
# Compressibility (1/GPa) = 0.02904711
#
# Stress axis : x y z
#
# Youngs Moduli (GPa) = 28.28011 95.74131 25.38589
#
# Poissons Ratio (x) = 0.58448 0.38693
# Poissons Ratio (y) = 0.17264 0.17081
# Poissons Ratio (z) = 0.43104 0.64419
#
# Static dielectric constant tensor:
#      x y z
#    x 1.666380 0.000000 0.000000 
#    y 0.000000 1.672120 0.000000 
#    z 0.000000 0.000000 1.663960 
# 
# From -- ./inp_files/23759.got.cif
#   From: 2010.05.17/outbox.cif.g08.bks.cpg/sg69_12_cif.got.tgz:23759.got - 2010.06.03 19:29:58.
