data_PCOD9513405
_publ_section_title
;
Structure prediction by ZEFSAII (Michael W. Deem and Ramdas Pophale) SiO2 
 PCOD9513405
Probable space group: F M M M
;
_chemical_formula_sum "Si O2"
_cell_formula_units_Z 192
_cell_length_a 18.754874
_cell_length_b 28.032414
_cell_length_c 17.995083
_cell_angle_alpha 90.000000
_cell_angle_beta 90.000000
_cell_angle_gamma 90.000000
_cell_volume 9460.813980
_symmetry_space_group_name_H-M "F M M M"
_symmetry_group_IT_number 69
_symmetry_cell_setting 'orthorhombic'
loop_
_space_group_symop_operation_xyz
x,y,z
-x,-y,z
x,-y,-z
-x,y,-z
-x,-y,-z
x,y,-z
-x,y,z
x,-y,z
x,1/2+y,1/2+z
-x,1/2-y,1/2+z
x,1/2-y,1/2-z
-x,1/2+y,1/2-z
-x,1/2-y,1/2-z
x,1/2+y,1/2-z
-x,1/2+y,1/2+z
x,1/2-y,1/2+z
1/2+x,y,1/2+z
1/2-x,-y,1/2+z
1/2+x,-y,1/2-z
1/2-x,y,1/2-z
1/2-x,-y,1/2-z
1/2+x,y,1/2-z
1/2-x,y,1/2+z
1/2+x,-y,1/2+z
1/2+x,1/2+y,z
1/2-x,1/2-y,z
1/2+x,1/2-y,-z
1/2-x,1/2+y,-z
1/2-x,1/2-y,-z
1/2+x,1/2+y,-z
1/2-x,1/2+y,z
1/2+x,1/2-y,z
loop_
_atom_site_type_symbol
_atom_site_label
_atom_site_fract_x
_atom_site_fract_y
_atom_site_fract_z
Si Si1 0.500000 0.446282 0.249548
Si Si2 0.345221 0.373692 0.866805
Si Si3 0.170401 0.737287 0.663399
Si Si4 0.000000 0.412077 0.585790
Si Si5 0.652883 0.943855 0.229843
Si Si6 0.695815 0.598240 0.582561
Si Si7 0.081283 0.318279 0.088730
O O1 0.500000 0.500000 0.275748
O O2 0.500000 0.445410 0.159529
O O3 0.428105 0.425976 0.280289
O O4 0.344506 0.318536 0.844813
O O5 0.423329 0.385713 0.901210
O O6 0.326852 0.408147 0.796306
O O7 0.276659 0.382622 0.918117
O O8 0.169754 0.750000 0.750000
O O9 0.250000 0.750000 0.634353
O O10 0.111889 0.770027 0.623981
O O11 0.000000 0.430002 0.500000
O O12 0.689003 0.938571 0.150282
O O13 0.655481 0.000000 0.253162
O O14 0.677951 0.579902 0.500000
O O15 0.640369 0.640694 0.602003
O O16 0.000000 0.328685 0.114149
O O17 0.078796 0.312568 0.000000
#
# Coordination Sequence:
#
# PCOD9513405 Si02
#       7
#    16  32  32  16  32  32  32
#     4   8  18  39  63  91 122 160 207 249 309 372
#     4  11  23  41  64  91 125 164 206 256 313 374
#     4  11  23  40  63  90 120 163 207 256 303 363
#     4  10  22  39  61  92 125 157 200 256 310 368
#     4  10  22  41  66  92 123 164 207 257 312 372
#     4  11  23  39  62  91 126 166 208 256 308 366
#     4  10  23  41  60  88 126 167 205 248 305 366
#
# _framework density 20.294236000000001
#
# number of rings (size 3 to 8) (size 9 to 14) (size 15 to 20)
#    0.000    1.667    1.667    2.000    4.667    3.833 
#    3.000    0.000    0.000    4.500    0.000    0.000 
#    0.000    0.000    0.000    0.000    0.000    0.000 
#
# Total GULP energy -267384.095956 kJ/mol
# GULP energy per Si atom -5570.501999 kJ/mol
# Density = 2.024805 g / cm^3
# Si number density = 20.294236 Si / 1000 Ang^3
#
#
#
# Elastic Constant Matrix: (Units=GPa)
#
#
# Indices 1 2 3 4 5 6 
#
# 1 146.3842 30.0549 31.8981 0.0000 0.0000 0.0000
# 2 30.0549 76.4879 32.9313 0.0000 0.0000 0.0000
# 3 31.8981 32.9313 73.2473 0.0000 0.0000 0.0000
# 4 0.0000 0.0000 0.0000 23.8911 0.0000 0.0000
# 5 0.0000 0.0000 0.0000 0.0000 5.8625 0.0000
# 6 0.0000 0.0000 0.0000 0.0000 0.0000 -6.7172
#
#
#
# Elastic Compliance Matrix: (Units=1/GPa)
#
#
# Indices 1 2 3 4 5 6 
#
# 1 0.007783 -0.001983 -0.002498 0.000000 0.000000 0.000000
# 2 -0.001983 0.016717 -0.006652 0.000000 0.000000 0.000000
# 3 -0.002498 -0.006652 0.017731 0.000000 0.000000 0.000000
# 4 0.000000 0.000000 0.000000 0.041857 0.000000 0.000000
# 5 0.000000 0.000000 0.000000 0.000000 0.170576 0.000000
# 6 0.000000 0.000000 0.000000 0.000000 0.000000 -0.148872
#
#
# Mechanical properties :
#
#
# Convention : Reuss Voigt Hill
#
# Bulk Modulus (GPa) = 50.08780 53.98757 52.03769
# Shear Modulus (GPa) = 37.11606 18.02296 27.56951
#
# Velocity S-wave (km/s) = 4.28120 2.98330 3.68977
# Velocity P-wave (km/s) = 7.01232 6.20701 6.62192
#
# Compressibility (1/GPa) = 0.01996494
#
# Stress axis : x y z
#
# Youngs Moduli (GPa) = 128.48990 59.81863 56.39825
#
# Poissons Ratio (x) = 0.11860 0.14087
# Poissons Ratio (y) = 0.25475 0.37519
# Poissons Ratio (z) = 0.32095 0.39794
#
# Static dielectric constant tensor:
#      x y z
#    x 1.826690 0.000000 0.000000 
#    y 0.000000 1.700450 0.000000 
#    z 0.000000 0.000000 1.720970 
# 
# From -- ./inp_files/23704.got.cif
#   From: 2010.05.17/outbox.cif.g08.bks.cpg/sg69_12_cif.got.tgz:23704.got - 2010.06.03 19:29:58.
