data_PCOD9513780
_publ_section_title
;
Structure prediction by ZEFSAII (Michael W. Deem and Ramdas Pophale) SiO2 
 PCOD9513780
Probable space group: F M M M
;
_chemical_formula_sum "Si O2"
_cell_formula_units_Z 200
_cell_length_a 16.865940
_cell_length_b 21.875990
_cell_length_c 28.416754
_cell_angle_alpha 90.000000
_cell_angle_beta 90.000000
_cell_angle_gamma 90.000000
_cell_volume 10484.620969
_symmetry_space_group_name_H-M "F M M M"
_symmetry_group_IT_number 69
_symmetry_cell_setting 'orthorhombic'
loop_
_space_group_symop_operation_xyz
x,y,z
-x,-y,z
x,-y,-z
-x,y,-z
-x,-y,-z
x,y,-z
-x,y,z
x,-y,z
x,1/2+y,1/2+z
-x,1/2-y,1/2+z
x,1/2-y,1/2-z
-x,1/2+y,1/2-z
-x,1/2-y,1/2-z
x,1/2+y,1/2-z
-x,1/2+y,1/2+z
x,1/2-y,1/2+z
1/2+x,y,1/2+z
1/2-x,-y,1/2+z
1/2+x,-y,1/2-z
1/2-x,y,1/2-z
1/2-x,-y,1/2-z
1/2+x,y,1/2-z
1/2-x,y,1/2+z
1/2+x,-y,1/2+z
1/2+x,1/2+y,z
1/2-x,1/2-y,z
1/2+x,1/2-y,-z
1/2-x,1/2+y,-z
1/2-x,1/2-y,-z
1/2+x,1/2+y,-z
1/2-x,1/2+y,z
1/2+x,1/2-y,z
loop_
_atom_site_type_symbol
_atom_site_label
_atom_site_fract_x
_atom_site_fract_y
_atom_site_fract_z
Si Si1 0.908887 0.347540 0.648501
Si Si2 0.596101 0.660795 0.553452
Si Si3 0.637377 0.398571 0.349466
Si Si4 0.500000 0.000000 0.166285
Si Si5 0.210256 0.430658 0.298168
Si Si6 0.096753 0.696988 0.552198
Si Si7 0.342120 0.733465 0.695139
O O1 0.859973 0.389128 0.683710
O O2 0.876400 0.345062 0.595148
O O3 0.898838 0.278479 0.666407
O O4 0.000000 0.366143 0.648004
O O5 0.617435 0.641915 0.500000
O O6 0.500000 0.658752 0.556542
O O7 0.628948 0.620836 0.596042
O O8 0.620300 0.732042 0.558997
O O9 0.569227 0.446000 0.335656
O O10 0.721621 0.428020 0.337193
O O11 0.636906 0.335440 0.319317
O O12 0.183929 0.500000 0.289279
O O13 0.250000 0.407117 0.250000
O O14 0.122008 0.677767 0.500000
O O15 0.000000 0.696774 0.553227
O O16 0.351275 0.750000 0.750000
O O17 0.250000 0.750000 0.682927
#
# Coordination Sequence:
#
# PCOD9513780 Si02
#       7
#    32  32  32   8  32  32  32
#     4  11  22  38  63  98 123 161 212 265 329 379
#     4   9  17  32  58  90 127 166 206 257 313 375
#     4  12  22  42  64  90 133 167 218 260 317 388
#     4  12  28  40  65 100 126 188 222 254 313 402
#     4  11  25  47  64  83 123 174 213 264 326 391
#     4   8  15  30  55  89 125 159 197 252 321 382
#     4  11  23  40  64  92 128 167 207 274 339 376
#
# _framework density 19.075558000000001
#
# number of rings (size 3 to 8) (size 9 to 14) (size 15 to 20)
#    0.000    1.600    4.800    1.920    1.120    0.640 
#    4.320    1.600    0.000    4.320    0.000    2.240 
#    0.000    0.000    0.000    0.000    0.000    0.000 
#
# Total GULP energy -278550.062610 kJ/mol
# GULP energy per Si atom -5571.001252 kJ/mol
# Density = 1.903214 g / cm^3
# Si number density = 19.075558 Si / 1000 Ang^3
#
#
#
# Elastic Constant Matrix: (Units=GPa)
#
#
# Indices 1 2 3 4 5 6 
#
# 1 54.6237 35.6231 31.2637 0.0000 0.0000 0.0000
# 2 35.6231 105.2964 47.8872 0.0000 0.0000 0.0000
# 3 31.2637 47.8872 125.0245 0.0000 0.0000 0.0000
# 4 0.0000 0.0000 0.0000 13.7927 0.0000 0.0000
# 5 0.0000 0.0000 0.0000 0.0000 20.3104 0.0000
# 6 0.0000 0.0000 0.0000 0.0000 0.0000 25.0214
#
#
#
# Elastic Compliance Matrix: (Units=1/GPa)
#
#
# Indices 1 2 3 4 5 6 
#
# 1 0.024768 -0.006736 -0.003613 0.000000 0.000000 0.000000
# 2 -0.006736 0.013332 -0.003422 0.000000 0.000000 0.000000
# 3 -0.003613 -0.003422 0.010213 0.000000 0.000000 0.000000
# 4 0.000000 0.000000 0.000000 0.072502 0.000000 0.000000
# 5 0.000000 0.000000 0.000000 0.000000 0.049236 0.000000
# 6 0.000000 0.000000 0.000000 0.000000 0.000000 0.039966
#
#
# Mechanical properties :
#
#
# Convention : Reuss Voigt Hill
#
# Bulk Modulus (GPa) = 48.14667 57.16586 52.65626
# Shear Modulus (GPa) = 20.45126 23.16959 21.81043
#
# Velocity S-wave (km/s) = 3.27787 3.48892 3.38504
# Velocity P-wave (km/s) = 6.29450 6.80171 6.55302
#
# Compressibility (1/GPa) = 0.02076987
#
# Stress axis : x y z
#
# Youngs Moduli (GPa) = 40.37439 75.00630 97.91660
#
# Poissons Ratio (x) = 0.50524 0.35382
# Poissons Ratio (y) = 0.27196 0.33508
# Poissons Ratio (z) = 0.14589 0.25668
#
# Static dielectric constant tensor:
#      x y z
#    x 1.668320 0.000000 0.000000 
#    y 0.000000 1.662530 0.000000 
#    z 0.000000 0.000000 1.704290 
# 
# From -- ./inp_files/42011.got.cif
#   From: 2010.05.17/outbox.cif.g08.bks.cpg/sg69_22_cif.got.tgz:42011.got - 2010.06.03 19:29:58.
