data_PCOD9513449
_publ_section_title
;
Structure prediction by ZEFSAII (Michael W. Deem and Ramdas Pophale) SiO2 
 PCOD9513449
Probable space group: F M M M
;
_chemical_formula_sum "Si O2"
_cell_formula_units_Z 160
_cell_length_a 27.591602
_cell_length_b 14.934918
_cell_length_c 20.542147
_cell_angle_alpha 90.000000
_cell_angle_beta 90.000000
_cell_angle_gamma 90.000000
_cell_volume 8464.973289
_symmetry_space_group_name_H-M "F M M M"
_symmetry_group_IT_number 69
_symmetry_cell_setting 'orthorhombic'
loop_
_space_group_symop_operation_xyz
x,y,z
-x,-y,z
x,-y,-z
-x,y,-z
-x,-y,-z
x,y,-z
-x,y,z
x,-y,z
x,1/2+y,1/2+z
-x,1/2-y,1/2+z
x,1/2-y,1/2-z
-x,1/2+y,1/2-z
-x,1/2-y,1/2-z
x,1/2+y,1/2-z
-x,1/2+y,1/2+z
x,1/2-y,1/2+z
1/2+x,y,1/2+z
1/2-x,-y,1/2+z
1/2+x,-y,1/2-z
1/2-x,y,1/2-z
1/2-x,-y,1/2-z
1/2+x,y,1/2-z
1/2-x,y,1/2+z
1/2+x,-y,1/2+z
1/2+x,1/2+y,z
1/2-x,1/2-y,z
1/2+x,1/2-y,-z
1/2-x,1/2+y,-z
1/2-x,1/2-y,-z
1/2+x,1/2+y,-z
1/2-x,1/2+y,z
1/2+x,1/2-y,z
loop_
_atom_site_type_symbol
_atom_site_label
_atom_site_fract_x
_atom_site_fract_y
_atom_site_fract_z
Si Si1 0.555832 0.358069 0.249977
Si Si2 0.556092 0.192276 0.000000
Si Si3 0.885109 0.395753 0.879745
Si Si4 0.370874 0.903748 0.635943
Si Si5 0.692992 0.240070 0.171969
Si Si6 0.574927 0.900834 0.500000
O O1 0.500000 0.386086 0.245963
O O2 0.557439 0.250000 0.250000
O O3 0.580809 0.390796 0.315982
O O4 0.586566 0.390200 0.188478
O O5 0.586311 0.156623 0.062694
O O6 0.552416 0.300897 0.000000
O O7 0.500000 0.158573 0.000000
O O8 0.877288 0.500000 0.897312
O O9 0.835423 0.345497 0.857709
O O10 0.333505 0.824767 0.641922
O O11 0.393645 0.901956 0.565050
O O12 0.347616 0.000000 0.648870
O O13 0.685413 0.250000 0.250000
O O14 0.750000 0.250000 0.159462
O O15 0.550004 0.000000 0.500000
#
# Coordination Sequence:
#
# PCOD9513449 Si02
#       6
#    32  16  32  32  32  16
#     4  11  21  37  62  89 123 167 212 256 310 378
#     4  12  25  43  66  95 136 174 210 259 315 379
#     4  12  24  42  64  93 130 169 215 261 317 380
#     4  11  21  39  63  91 125 161 207 260 319 376
#     4  11  23  42  67  97 128 162 212 270 326 375
#     4  10  22  40  65  92 126 167 208 257 314 376
#
# _framework density 18.901419000000001
#
# number of rings (size 3 to 8) (size 9 to 14) (size 15 to 20)
#    0.000    0.800    6.000    1.500    0.000    6.600 
#    0.000    6.000    0.000    2.400    0.000    0.000 
#    0.000    0.000    0.000    0.000    0.000    0.000 
#
# Total GULP energy -223288.034244 kJ/mol
# GULP energy per Si atom -5582.200856 kJ/mol
# Density = 1.885840 g / cm^3
# Si number density = 18.901419 Si / 1000 Ang^3
#
#
#
# Elastic Constant Matrix: (Units=GPa)
#
#
# Indices 1 2 3 4 5 6 
#
# 1 138.0408 57.9448 58.8062 0.0000 0.0000 0.0000
# 2 57.9448 164.6075 32.8619 0.0000 0.0000 0.0000
# 3 58.8062 32.8619 138.1505 0.0000 0.0000 0.0000
# 4 0.0000 0.0000 0.0000 35.4287 0.0000 0.0000
# 5 0.0000 0.0000 0.0000 0.0000 -65.3717 0.0000
# 6 0.0000 0.0000 0.0000 0.0000 0.0000 -6.7176
#
#
#
# Elastic Compliance Matrix: (Units=1/GPa)
#
#
# Indices 1 2 3 4 5 6 
#
# 1 0.009932 -0.002784 -0.003565 0.000000 0.000000 0.000000
# 2 -0.002784 0.007159 -0.000518 0.000000 0.000000 0.000000
# 3 -0.003565 -0.000518 0.008879 0.000000 0.000000 0.000000
# 4 0.000000 0.000000 0.000000 0.028226 0.000000 0.000000
# 5 0.000000 0.000000 0.000000 0.000000 -0.015297 0.000000
# 6 0.000000 0.000000 0.000000 0.000000 0.000000 -0.148862
#
#
# Mechanical properties :
#
#
# Convention : Reuss Voigt Hill
#
# Bulk Modulus (GPa) = 81.73269 82.22496 81.97883
# Shear Modulus (GPa) = -54.25919 12.08027 -21.08946
#
# Velocity S-wave (km/s) = -5.36365 2.53082 -3.34392
# Velocity P-wave (km/s) = 2.23095 7.22056 5.34386
#
# Compressibility (1/GPa) = 0.01223501
#
# Stress axis : x y z
#
# Youngs Moduli (GPa) = 100.68561 139.69302 112.62210
#
# Poissons Ratio (x) = 0.38897 0.40154
# Poissons Ratio (y) = 0.28035 0.05829
# Poissons Ratio (z) = 0.35898 0.07230
#
# Static dielectric constant tensor:
#      x y z
#    x 1.631180 0.000000 0.000000 
#    y 0.000000 1.694340 0.000000 
#    z 0.000000 0.000000 1.631560 
# 
# From -- ./inp_files/27530.got.cif
#   From: 2010.05.17/outbox.cif.g08.bks.cpg/sg69_14_cif.got.tgz:27530.got - 2010.06.03 19:29:58.
