data_PCOD9513122
_publ_section_title
;
Structure prediction by ZEFSAII (Michael W. Deem and Ramdas Pophale) SiO2 
 PCOD9513122
Probable space group: F M M M
;
_chemical_formula_sum "Si O2"
_cell_formula_units_Z 160
_cell_length_a 27.570578
_cell_length_b 36.043084
_cell_length_c 10.951382
_cell_angle_alpha 90.000000
_cell_angle_beta 90.000000
_cell_angle_gamma 90.000000
_cell_volume 10882.702147
_symmetry_space_group_name_H-M "F M M M"
_symmetry_group_IT_number 69
_symmetry_cell_setting 'orthorhombic'
loop_
_space_group_symop_operation_xyz
x,y,z
-x,-y,z
x,-y,-z
-x,y,-z
-x,-y,-z
x,y,-z
-x,y,z
x,-y,z
x,1/2+y,1/2+z
-x,1/2-y,1/2+z
x,1/2-y,1/2-z
-x,1/2+y,1/2-z
-x,1/2-y,1/2-z
x,1/2+y,1/2-z
-x,1/2+y,1/2+z
x,1/2-y,1/2+z
1/2+x,y,1/2+z
1/2-x,-y,1/2+z
1/2+x,-y,1/2-z
1/2-x,y,1/2-z
1/2-x,-y,1/2-z
1/2+x,y,1/2-z
1/2-x,y,1/2+z
1/2+x,-y,1/2+z
1/2+x,1/2+y,z
1/2-x,1/2-y,z
1/2+x,1/2-y,-z
1/2-x,1/2+y,-z
1/2-x,1/2-y,-z
1/2+x,1/2+y,-z
1/2-x,1/2+y,z
1/2+x,1/2-y,z
loop_
_atom_site_type_symbol
_atom_site_label
_atom_site_fract_x
_atom_site_fract_y
_atom_site_fract_z
Si Si1 0.558779 0.723886 0.139493
Si Si2 0.056862 0.957869 0.500000
Si Si3 0.710075 0.544681 0.355482
Si Si4 0.944055 0.862312 0.854137
Si Si5 0.444347 0.000000 0.356162
Si Si6 0.605875 0.569796 0.264655
O O1 0.500000 0.726952 0.135966
O O2 0.576221 0.750000 0.250000
O O3 0.568855 0.680692 0.167658
O O4 0.575534 0.732413 0.000000
O O5 0.073981 0.935606 0.615724
O O6 0.000000 0.961497 0.500000
O O7 0.078296 0.000000 0.500000
O O8 0.720449 0.554341 0.500000
O O9 0.703200 0.500000 0.354540
O O10 0.750000 0.552909 0.250000
O O11 0.660729 0.563499 0.307943
O O12 0.907278 0.891296 0.795771
O O13 0.000000 0.868875 0.812497
O O14 0.944101 0.867586 0.000000
O O15 0.413872 0.036071 0.318452
O O16 0.500000 0.000000 0.303090
O O17 0.449469 0.000000 0.500000
#
# Coordination Sequence:
#
# PCOD9513122 Si02
#       6
#    32  16  32  32  16  32
#     4   8  14  27  45  64  90 125 162 198 234 275
#     4  11  20  30  46  64  92 130 160 187 236 290
#     4  10  21  38  54  69  89 118 161 213 259 300
#     4   9  18  31  46  67  98 131 162 198 238 284
#     4  11  22  31  44  67  94 126 164 199 231 286
#     4  12  20  33  48  66  94 124 160 201 245 290
#
# _framework density 14.702230999999999
#
# number of rings (size 3 to 8) (size 9 to 14) (size 15 to 20)
#    0.000    2.000    3.000    3.600    0.000    3.200 
#    1.800    0.000    0.000    0.000    0.000    0.000 
#    0.000    0.800    0.000    6.200    0.000    1.800 
#
# Total GULP energy -222728.389911 kJ/mol
# GULP energy per Si atom -5568.209748 kJ/mol
# Density = 1.466877 g / cm^3
# Si number density = 14.702231 Si / 1000 Ang^3
#
#
#
# Elastic Constant Matrix: (Units=GPa)
#
#
# Indices 1 2 3 4 5 6 
#
# 1 75.7503 31.5232 47.3958 0.0000 -0.0001 0.0000
# 2 31.5232 76.9581 63.5844 0.0000 0.0000 0.0000
# 3 47.3958 63.5844 109.9876 0.0001 0.0002 -0.0002
# 4 0.0000 0.0000 0.0001 21.2512 0.0000 0.0000
# 5 -0.0001 0.0000 0.0002 0.0000 36.7716 0.0001
# 6 0.0000 0.0000 -0.0002 0.0000 0.0001 9.4975
#
#
#
# Elastic Compliance Matrix: (Units=1/GPa)
#
#
# Indices 1 2 3 4 5 6 
#
# 1 0.018214 -0.001868 -0.006769 0.000000 0.000000 0.000000
# 2 -0.001868 0.025067 -0.013687 0.000000 0.000000 0.000000
# 3 -0.006769 -0.013687 0.019921 0.000000 0.000000 0.000000
# 4 0.000000 0.000000 0.000000 0.047056 0.000000 0.000000
# 5 0.000000 0.000000 0.000000 0.000000 0.027195 0.000000
# 6 0.000000 0.000000 0.000000 0.000000 0.000000 0.105291
#
#
# Mechanical properties :
#
#
# Convention : Reuss Voigt Hill
#
# Bulk Modulus (GPa) = 53.89298 60.85586 57.37442
# Shear Modulus (GPa) = 17.03134 21.51690 19.27412
#
# Velocity S-wave (km/s) = 3.40725 3.82974 3.62465
# Velocity P-wave (km/s) = 7.22600 7.81268 7.52506
#
# Compressibility (1/GPa) = 0.01855529
#
# Stress axis : x y z
#
# Youngs Moduli (GPa) = 54.90358 39.89237 50.19842
#
# Poissons Ratio (x) = 0.07453 0.33977
# Poissons Ratio (y) = 0.10257 0.68704
# Poissons Ratio (z) = 0.37162 0.54599
#
# Static dielectric constant tensor:
#      x y z
#    x 1.478350 0.000000 0.000000 
#    y 0.000000 0.575470 0.000000 
#    z 0.000000 0.000000 1.505800 
# 
# From -- ./inp_files/10563.got.cif
#   From: 2010.05.17/outbox.cif.g08.bks.cpg/sg69_6_cif.got.tgz:10563.got - 2010.06.03 19:29:58.
