data_PCOD9513491
_publ_section_title
;
Structure prediction by ZEFSAII (Michael W. Deem and Ramdas Pophale) SiO2 
 PCOD9513491
Probable space group: F M M M
;
_chemical_formula_sum "Si O2"
_cell_formula_units_Z 144
_cell_length_a 24.241244
_cell_length_b 30.625534
_cell_length_c 9.902502
_cell_angle_alpha 90.000000
_cell_angle_beta 90.000000
_cell_angle_gamma 90.000000
_cell_volume 7351.627806
_symmetry_space_group_name_H-M "F M M M"
_symmetry_group_IT_number 69
_symmetry_cell_setting 'orthorhombic'
loop_
_space_group_symop_operation_xyz
x,y,z
-x,-y,z
x,-y,-z
-x,y,-z
-x,-y,-z
x,y,-z
-x,y,z
x,-y,z
x,1/2+y,1/2+z
-x,1/2-y,1/2+z
x,1/2-y,1/2-z
-x,1/2+y,1/2-z
-x,1/2-y,1/2-z
x,1/2+y,1/2-z
-x,1/2+y,1/2+z
x,1/2-y,1/2+z
1/2+x,y,1/2+z
1/2-x,-y,1/2+z
1/2+x,-y,1/2-z
1/2-x,y,1/2-z
1/2-x,-y,1/2-z
1/2+x,y,1/2-z
1/2-x,y,1/2+z
1/2+x,-y,1/2+z
1/2+x,1/2+y,z
1/2-x,1/2-y,z
1/2+x,1/2-y,-z
1/2-x,1/2+y,-z
1/2-x,1/2-y,-z
1/2+x,1/2+y,-z
1/2-x,1/2+y,z
1/2+x,1/2-y,z
loop_
_atom_site_type_symbol
_atom_site_label
_atom_site_fract_x
_atom_site_fract_y
_atom_site_fract_z
Si Si1 0.750000 0.633319 0.250000
Si Si2 0.162238 0.772372 0.500000
Si Si3 0.641392 0.407769 0.344321
Si Si4 0.190963 0.500000 0.835040
Si Si5 0.563648 0.346620 0.842686
Si Si6 0.727159 0.182825 0.500000
Si Si7 0.590123 0.750000 0.750000
O O1 0.704989 0.607545 0.333463
O O2 0.784809 0.660284 0.359109
O O3 0.207062 0.809885 0.500000
O O4 0.196632 0.728129 0.500000
O O5 0.126077 0.771097 0.368170
O O6 0.622615 0.404935 0.500000
O O7 0.651878 0.458202 0.304177
O O8 0.602511 0.376907 0.251913
O O9 0.250000 0.500000 0.750000
O O10 0.202496 0.500000 0.000000
O O11 0.500000 0.361316 0.829012
O O12 0.563051 0.294217 0.809592
O O13 0.580996 0.350695 0.000000
#
# Coordination Sequence:
#
# PCOD9513491 Si02
#       7
#    16  16  32  16  32  16  16
#     4  12  22  34  60  90 124 168 208 257 312 383
#     4  11  22  36  55  80 120 172 213 265 322 376
#     4  11  24  42  67  98 133 170 216 263 322 389
#     4  10  22  42  65 104 139 171 212 258 318 391
#     4  11  26  46  68  93 125 171 222 275 328 383
#     4  11  22  34  50  83 126 164 216 259 312 377
#     4  12  23  41  60  88 124 165 220 272 321 380
#
# _framework density 19.587498
#
# number of rings (size 3 to 8) (size 9 to 14) (size 15 to 20)
#    0.000    0.889    3.333    4.333    3.111    3.111 
#    0.000    0.556    0.000    3.333    0.000    0.000 
#    0.000    0.000    0.000    0.000    0.000    0.000 
#
# Total GULP energy -200677.988689 kJ/mol
# GULP energy per Si atom -5574.388575 kJ/mol
# Density = 1.954292 g / cm^3
# Si number density = 19.587498 Si / 1000 Ang^3
#
#
#
# Elastic Constant Matrix: (Units=GPa)
#
#
# Indices 1 2 3 4 5 6 
#
# 1 81.0116 35.5240 39.6695 -0.0002 0.0002 0.0000
# 2 35.5240 135.6376 42.2130 -0.0001 0.0002 0.0000
# 3 39.6695 42.2130 119.2490 -0.0003 0.0005 0.0001
# 4 -0.0002 -0.0001 -0.0003 16.4314 0.0003 -0.0001
# 5 0.0002 0.0002 0.0005 0.0003 44.8418 -0.0001
# 6 0.0000 0.0000 0.0001 -0.0001 -0.0001 7.0821
#
#
#
# Elastic Compliance Matrix: (Units=1/GPa)
#
#
# Indices 1 2 3 4 5 6 
#
# 1 0.015627 -0.002781 -0.004214 0.000000 0.000000 0.000000
# 2 -0.002781 0.008780 -0.002183 0.000000 0.000000 0.000000
# 3 -0.004214 -0.002183 0.010560 0.000000 0.000000 0.000000
# 4 0.000000 0.000000 0.000000 0.060859 0.000000 0.000001
# 5 0.000000 0.000000 0.000000 0.000000 0.022301 0.000000
# 6 0.000000 0.000000 0.000000 0.000001 0.000000 0.141201
#
#
# Mechanical properties :
#
#
# Convention : Reuss Voigt Hill
#
# Bulk Modulus (GPa) = 60.19970 63.41237 61.80604
# Shear Modulus (GPa) = 17.65398 28.23718 22.94558
#
# Velocity S-wave (km/s) = 3.00540 3.80095 3.42634
# Velocity P-wave (km/s) = 6.54551 7.19077 6.87571
#
# Compressibility (1/GPa) = 0.01661138
#
# Stress axis : x y z
#
# Youngs Moduli (GPa) = 63.99183 113.89013 94.69359
#
# Poissons Ratio (x) = 0.31676 0.39903
# Poissons Ratio (y) = 0.17798 0.20671
# Poissons Ratio (z) = 0.26966 0.24862
#
# Static dielectric constant tensor:
#      x y z
#    x 1.706540 0.000000 0.000000 
#    y 0.000000 1.737100 0.000000 
#    z 0.000000 0.000000 1.664400 
# 
# From -- ./inp_files/5703.got.cif
#   From: 2010.05.17/outbox.cif.g08.bks.cpg/sg69_3_cif.got.tgz:5703.got - 2010.06.03 19:29:58.
