data_PCOD9513799
_publ_section_title
;
Structure prediction by ZEFSAII (Michael W. Deem and Ramdas Pophale) SiO2 
 PCOD9513799
Probable space group: F M M M
;
_chemical_formula_sum "Si O2"
_cell_formula_units_Z 136
_cell_length_a 17.912064
_cell_length_b 16.787672
_cell_length_c 23.700645
_cell_angle_alpha 90.000000
_cell_angle_beta 90.000000
_cell_angle_gamma 90.000000
_cell_volume 7126.827923
_symmetry_space_group_name_H-M "F M M M"
_symmetry_group_IT_number 69
_symmetry_cell_setting 'orthorhombic'
loop_
_space_group_symop_operation_xyz
x,y,z
-x,-y,z
x,-y,-z
-x,y,-z
-x,-y,-z
x,y,-z
-x,y,z
x,-y,z
x,1/2+y,1/2+z
-x,1/2-y,1/2+z
x,1/2-y,1/2-z
-x,1/2+y,1/2-z
-x,1/2-y,1/2-z
x,1/2+y,1/2-z
-x,1/2+y,1/2+z
x,1/2-y,1/2+z
1/2+x,y,1/2+z
1/2-x,-y,1/2+z
1/2+x,-y,1/2-z
1/2-x,y,1/2-z
1/2-x,-y,1/2-z
1/2+x,y,1/2-z
1/2-x,y,1/2+z
1/2+x,-y,1/2+z
1/2+x,1/2+y,z
1/2-x,1/2-y,z
1/2+x,1/2-y,-z
1/2-x,1/2+y,-z
1/2-x,1/2-y,-z
1/2+x,1/2+y,-z
1/2-x,1/2+y,z
1/2+x,1/2-y,z
loop_
_atom_site_type_symbol
_atom_site_label
_atom_site_fract_x
_atom_site_fract_y
_atom_site_fract_z
Si Si1 0.250000 0.250000 0.500000
Si Si2 0.316986 0.650483 0.104773
Si Si3 0.586210 0.236662 0.816432
Si Si4 0.652311 0.405463 0.378939
Si Si5 0.586485 0.000000 0.432188
Si Si6 0.585410 0.903732 0.000000
O O1 0.295387 0.200226 0.549487
O O2 0.357709 0.707736 0.148924
O O3 0.239127 0.614843 0.127743
O O4 0.371035 0.577785 0.089694
O O5 0.500000 0.254466 0.830958
O O6 0.595989 0.250000 0.750000
O O7 0.604766 0.146756 0.835758
O O8 0.639409 0.500000 0.374031
O O9 0.628237 0.380363 0.443069
O O10 0.500000 0.000000 0.414949
O O11 0.590162 0.000000 0.500000
O O12 0.500000 0.874662 0.000000
O O13 0.583252 0.000000 0.000000
#
# Coordination Sequence:
#
# PCOD9513799 Si02
#       6
#     8  32  32  32  16  16
#     4  12  22  38  68 102 134 174 210 262 340 396
#     4  12  23  42  67  97 135 173 221 275 332 400
#     4  11  26  47  66  90 131 181 232 281 329 389
#     4  11  22  39  68  98 131 169 214 280 339 397
#     4  11  24  40  64  97 136 180 222 268 331 403
#     4   9  19  34  58  95 132 167 206 257 327 398
#
# _framework density 19.082823999999999
#
# number of rings (size 3 to 8) (size 9 to 14) (size 15 to 20)
#    0.000    0.941    4.706    2.118    0.000    3.294 
#    2.118    1.176    0.000    0.000    0.000    0.000 
#    0.000    0.000    0.000    0.000    0.000    0.000 
#
# Total GULP energy -189592.611383 kJ/mol
# GULP energy per Si atom -5576.253276 kJ/mol
# Density = 1.903939 g / cm^3
# Si number density = 19.082824 Si / 1000 Ang^3
#
#
#
# Elastic Constant Matrix: (Units=GPa)
#
#
# Indices 1 2 3 4 5 6 
#
# 1 126.8063 47.1174 46.6422 0.0000 0.0000 0.0000
# 2 47.1174 120.0032 48.4723 0.0000 0.0000 0.0000
# 3 46.6422 48.4723 95.1737 0.0000 0.0000 0.0000
# 4 0.0000 0.0000 0.0000 15.3083 0.0000 0.0000
# 5 0.0000 0.0000 0.0000 0.0000 -5.3284 0.0000
# 6 0.0000 0.0000 0.0000 0.0000 0.0000 24.4333
#
#
#
# Elastic Compliance Matrix: (Units=1/GPa)
#
#
# Indices 1 2 3 4 5 6 
#
# 1 0.010181 -0.002495 -0.003719 0.000000 0.000000 0.000000
# 2 -0.002495 0.011103 -0.004432 0.000000 0.000000 0.000000
# 3 -0.003719 -0.004432 0.014587 0.000000 0.000000 0.000000
# 4 0.000000 0.000000 0.000000 0.065324 0.000000 0.000000
# 5 0.000000 0.000000 0.000000 0.000000 -0.187675 0.000000
# 6 0.000000 0.000000 0.000000 0.000000 0.000000 0.040928
#
#
# Mechanical properties :
#
#
# Convention : Reuss Voigt Hill
#
# Bulk Modulus (GPa) = 68.59159 69.60522 69.09841
# Shear Modulus (GPa) = -257.71902 20.19939 -118.75981
#
# Velocity S-wave (km/s) = -11.63383 3.25701 -7.89740
# Velocity P-wave (km/s) = 12.01829 7.12030 6.84619
#
# Compressibility (1/GPa) = 0.01457905
#
# Stress axis : x y z
#
# Youngs Moduli (GPa) = 98.22198 90.06543 68.55591
#
# Poissons Ratio (x) = 0.22475 0.25493
# Poissons Ratio (y) = 0.24510 0.30383
# Poissons Ratio (z) = 0.36524 0.39916
#
# Static dielectric constant tensor:
#      x y z
#    x 1.674030 0.000000 0.000000 
#    y 0.000000 1.695240 0.000000 
#    z 0.000000 0.000000 1.623330 
# 
# From -- ./inp_files/30544.got.cif
#   From: 2010.05.17/outbox.cif.g08.bks.cpg/sg69_16_cif.got.tgz:30544.got - 2010.06.03 19:29:58.
