data_PCOD9513715
_publ_section_title
;
Structure prediction by ZEFSAII (Michael W. Deem and Ramdas Pophale) SiO2 
 PCOD9513715
Probable space group: F M M M
;
_chemical_formula_sum "Si O2"
_cell_formula_units_Z 160
_cell_length_a 9.822538
_cell_length_b 26.484403
_cell_length_c 34.481557
_cell_angle_alpha 90.000000
_cell_angle_beta 90.000000
_cell_angle_gamma 90.000000
_cell_volume 8970.172056
_symmetry_space_group_name_H-M "F M M M"
_symmetry_group_IT_number 69
_symmetry_cell_setting 'orthorhombic'
loop_
_space_group_symop_operation_xyz
x,y,z
-x,-y,z
x,-y,-z
-x,y,-z
-x,-y,-z
x,y,-z
-x,y,z
x,-y,z
x,1/2+y,1/2+z
-x,1/2-y,1/2+z
x,1/2-y,1/2-z
-x,1/2+y,1/2-z
-x,1/2-y,1/2-z
x,1/2+y,1/2-z
-x,1/2+y,1/2+z
x,1/2-y,1/2+z
1/2+x,y,1/2+z
1/2-x,-y,1/2+z
1/2+x,-y,1/2-z
1/2-x,y,1/2-z
1/2-x,-y,1/2-z
1/2+x,y,1/2-z
1/2-x,y,1/2+z
1/2+x,-y,1/2+z
1/2+x,1/2+y,z
1/2-x,1/2-y,z
1/2+x,1/2-y,-z
1/2-x,1/2+y,-z
1/2-x,1/2-y,-z
1/2+x,1/2+y,-z
1/2-x,1/2+y,z
1/2+x,1/2-y,z
loop_
_atom_site_type_symbol
_atom_site_label
_atom_site_fract_x
_atom_site_fract_y
_atom_site_fract_z
Si Si1 0.836018 0.797932 0.615335
Si Si2 0.000000 0.559947 0.211236
Si Si3 0.766412 0.097084 0.344693
Si Si4 0.159128 0.164423 0.955343
Si Si5 0.839932 0.555769 0.577687
Si Si6 0.500000 0.061863 0.698070
O O1 0.750000 0.750000 0.630081
O O2 0.801752 0.846489 0.641706
O O3 0.766773 0.810313 0.573558
O O4 0.000000 0.790555 0.613209
O O5 0.125929 0.578731 0.186383
O O6 0.000000 0.500000 0.211284
O O7 0.000000 0.574511 0.256282
O O8 0.753180 0.065392 0.384680
O O9 0.626403 0.087189 0.323018
O O10 0.176448 0.103837 0.950121
O O11 0.000000 0.175719 0.944517
O O12 0.178573 0.178655 0.000000
O O13 0.814071 0.500000 0.561194
O O14 0.000000 0.556886 0.589852
O O15 0.500000 0.000000 0.693706
#
# Coordination Sequence:
#
# PCOD9513715 Si02
#       6
#    32  16  32  32  32  16
#     4  11  24  41  64  87 109 151 199 247 301 345
#     4  11  22  36  57  91 128 157 189 233 283 343
#     4  11  21  37  57  87 121 155 196 243 286 341
#     4   9  19  35  56  86 121 152 189 239 290 343
#     4   9  16  28  51  80 112 156 199 230 270 330
#     4  11  22  36  61  91 122 163 195 225 281 343
#
# _framework density 17.836893
#
# number of rings (size 3 to 8) (size 9 to 14) (size 15 to 20)
#    0.000    1.800    2.000    3.000    2.800    2.800 
#    0.000    2.000    0.000    3.600    0.000    2.800 
#    0.000    0.000    0.000    0.000    0.000    0.000 
#
# Total GULP energy -223007.705233 kJ/mol
# GULP energy per Si atom -5575.192631 kJ/mol
# Density = 1.779630 g / cm^3
# Si number density = 17.836893 Si / 1000 Ang^3
#
#
#
# Elastic Constant Matrix: (Units=GPa)
#
#
# Indices 1 2 3 4 5 6 
#
# 1 138.2432 29.5082 38.2253 0.0000 0.0000 0.0000
# 2 29.5082 77.8269 9.7424 0.0000 0.0000 0.0000
# 3 38.2253 9.7424 76.6760 0.0000 0.0000 0.0000
# 4 0.0000 0.0000 0.0000 -1.1800 0.0000 0.0000
# 5 0.0000 0.0000 0.0000 0.0000 -18.8342 0.0000
# 6 0.0000 0.0000 0.0000 0.0000 0.0000 22.6076
#
#
#
# Elastic Compliance Matrix: (Units=1/GPa)
#
#
# Indices 1 2 3 4 5 6 
#
# 1 0.008989 -0.002893 -0.004113 0.000000 0.000000 0.000000
# 2 -0.002893 0.013988 -0.000335 0.000000 0.000000 0.000000
# 3 -0.004113 -0.000335 0.015135 0.000000 0.000000 0.000000
# 4 0.000000 0.000000 0.000000 -0.847438 0.000000 0.000000
# 5 0.000000 0.000000 0.000000 0.000000 -0.053095 0.000000
# 6 0.000000 0.000000 0.000000 0.000000 0.000000 0.044233
#
#
# Mechanical properties :
#
#
# Convention : Reuss Voigt Hill
#
# Bulk Modulus (GPa) = 42.68314 49.74422 46.21368
# Shear Modulus (GPa) = -6.28381 14.87003 4.29311
#
# Velocity S-wave (km/s) = -1.87898 2.89046 1.55309
# Velocity P-wave (km/s) = 4.39024 6.25209 5.40198
#
# Compressibility (1/GPa) = 0.02342845
#
# Stress axis : x y z
#
# Youngs Moduli (GPa) = 111.25231 71.49041 66.07140
#
# Poissons Ratio (x) = 0.20683 0.27178
# Poissons Ratio (y) = 0.32186 0.02213
# Poissons Ratio (z) = 0.45763 0.02395
#
# Static dielectric constant tensor:
#      x y z
#    x 1.569420 0.000000 0.000000 
#    y 0.000000 1.625970 0.000000 
#    z 0.000000 0.000000 1.592350 
# 
# From -- ./inp_files/44593.got.cif
#   From: 2010.05.17/outbox.cif.g08.bks.cpg/sg69_23_cif.got.tgz:44593.got - 2010.06.03 19:29:58.
