data_PCOD9513321
_publ_section_title
;
Structure prediction by ZEFSAII (Michael W. Deem and Ramdas Pophale) SiO2 
 PCOD9513321
Probable space group: F M M M
;
_chemical_formula_sum "Si O2"
_cell_formula_units_Z 112
_cell_length_a 31.395664
_cell_length_b 17.986503
_cell_length_c 10.666498
_cell_angle_alpha 90.000000
_cell_angle_beta 90.000000
_cell_angle_gamma 90.000000
_cell_volume 6023.352271
_symmetry_space_group_name_H-M "F M M M"
_symmetry_group_IT_number 69
_symmetry_cell_setting 'orthorhombic'
loop_
_space_group_symop_operation_xyz
x,y,z
-x,-y,z
x,-y,-z
-x,y,-z
-x,-y,-z
x,y,-z
-x,y,z
x,-y,z
x,1/2+y,1/2+z
-x,1/2-y,1/2+z
x,1/2-y,1/2-z
-x,1/2+y,1/2-z
-x,1/2-y,1/2-z
x,1/2+y,1/2-z
-x,1/2+y,1/2+z
x,1/2-y,1/2+z
1/2+x,y,1/2+z
1/2-x,-y,1/2+z
1/2+x,-y,1/2-z
1/2-x,y,1/2-z
1/2-x,-y,1/2-z
1/2+x,y,1/2-z
1/2-x,y,1/2+z
1/2+x,-y,1/2+z
1/2+x,1/2+y,z
1/2-x,1/2-y,z
1/2+x,1/2-y,-z
1/2-x,1/2+y,-z
1/2-x,1/2-y,-z
1/2+x,1/2+y,-z
1/2-x,1/2+y,z
1/2+x,1/2-y,z
loop_
_atom_site_type_symbol
_atom_site_label
_atom_site_fract_x
_atom_site_fract_y
_atom_site_fract_z
Si Si1 0.216849 0.088629 0.642526
Si Si2 0.547867 0.660894 0.261086
Si Si3 0.133990 0.189196 0.360304
Si Si4 0.051319 0.083781 0.000000
O O1 0.232867 0.102506 0.500000
O O2 0.250000 0.111748 0.750000
O O3 0.172626 0.132064 0.656011
O O4 0.210012 0.000000 0.654655
O O5 0.500000 0.633339 0.294674
O O6 0.544176 0.750000 0.250000
O O7 0.588018 0.648911 0.350385
O O8 0.561181 0.627601 0.126677
O O9 0.137358 0.222764 0.500000
O O10 0.136100 0.250000 0.250000
O O11 0.000000 0.078885 0.000000
O O12 0.068768 0.000000 0.000000
#
# Coordination Sequence:
#
# PCOD9513321 Si02
#       4
#    32  32  32  16
#     4   9  19  38  60  81 107 141 182 229 283 343
#     4   9  19  33  54  80 113 153 196 235 280 338
#     4  10  22  36  55  82 116 150 186 235 283 333
#     4   9  18  34  54  80 113 148 191 247 296 335
#
# _framework density 18.594297000000001
#
# number of rings (size 3 to 8) (size 9 to 14) (size 15 to 20)
#    0.000    2.714    0.000    0.000    8.000    3.429 
#    0.000    2.857    0.000    0.000    0.000    8.000 
#    0.000    0.000    0.000    0.000    0.000    0.000 
#
# Total GULP energy -155916.552477 kJ/mol
# GULP energy per Si atom -5568.448303 kJ/mol
# Density = 1.855198 g / cm^3
# Si number density = 18.594297 Si / 1000 Ang^3
#
#
#
# Elastic Constant Matrix: (Units=GPa)
#
#
# Indices 1 2 3 4 5 6 
#
# 1 127.2428 21.3010 72.6787 0.0000 0.0000 0.0000
# 2 21.3010 53.7932 53.0613 0.0000 0.0000 0.0000
# 3 72.6787 53.0613 145.4976 0.0000 0.0000 0.0000
# 4 0.0000 0.0000 0.0000 23.1474 0.0000 0.0000
# 5 0.0000 0.0000 0.0000 0.0000 30.3632 0.0000
# 6 0.0000 0.0000 0.0000 0.0000 0.0000 28.0504
#
#
#
# Elastic Compliance Matrix: (Units=1/GPa)
#
#
# Indices 1 2 3 4 5 6 
#
# 1 0.011092 0.001676 -0.006152 0.000000 0.000000 0.000000
# 2 0.001676 0.029287 -0.011518 0.000000 0.000000 0.000000
# 3 -0.006152 -0.011518 0.014146 0.000000 0.000000 0.000000
# 4 0.000000 0.000000 0.000000 0.043201 0.000000 0.000000
# 5 0.000000 0.000000 0.000000 0.000000 0.032935 0.000000
# 6 0.000000 0.000000 0.000000 0.000000 0.000000 0.035650
#
#
# Mechanical properties :
#
#
# Convention : Reuss Voigt Hill
#
# Bulk Modulus (GPa) = 44.36914 68.95728 56.66321
# Shear Modulus (GPa) = 24.29390 28.27837 26.28614
#
# Velocity S-wave (km/s) = 3.61851 3.90399 3.76395
# Velocity P-wave (km/s) = 6.43208 7.58203 7.03060
#
# Compressibility (1/GPa) = 0.02253819
#
# Stress axis : x y z
#
# Youngs Moduli (GPa) = 90.15219 34.14448 70.68892
#
# Poissons Ratio (x) = -0.05723 0.43488
# Poissons Ratio (y) = -0.15110 0.81419
# Poissons Ratio (z) = 0.55462 0.39327
#
# Static dielectric constant tensor:
#      x y z
#    x 1.665640 0.000000 0.000000 
#    y 0.000000 1.636630 0.000000 
#    z 0.000000 0.000000 1.644430 
# 
# From -- ./inp_files/10986.got.cif
#   From: 2010.05.17/outbox.cif.g08.bks.cpg/sg69_6_cif.got.tgz:10986.got - 2010.06.03 19:29:58.
