data_PCOD9513749
_publ_section_title
;
Structure prediction by ZEFSAII (Michael W. Deem and Ramdas Pophale) SiO2 
 PCOD9513749
Probable space group: F M M M
;
_chemical_formula_sum "Si O2"
_cell_formula_units_Z 192
_cell_length_a 14.203519
_cell_length_b 29.995121
_cell_length_c 29.995111
_cell_angle_alpha 90.000000
_cell_angle_beta 90.000000
_cell_angle_gamma 90.000000
_cell_volume 12779.005240
_symmetry_space_group_name_H-M "F M M M"
_symmetry_group_IT_number 69
_symmetry_cell_setting 'orthorhombic'
loop_
_space_group_symop_operation_xyz
x,y,z
-x,-y,z
x,-y,-z
-x,y,-z
-x,-y,-z
x,y,-z
-x,y,z
x,-y,z
x,1/2+y,1/2+z
-x,1/2-y,1/2+z
x,1/2-y,1/2-z
-x,1/2+y,1/2-z
-x,1/2-y,1/2-z
x,1/2+y,1/2-z
-x,1/2+y,1/2+z
x,1/2-y,1/2+z
1/2+x,y,1/2+z
1/2-x,-y,1/2+z
1/2+x,-y,1/2-z
1/2-x,y,1/2-z
1/2-x,-y,1/2-z
1/2+x,y,1/2-z
1/2-x,y,1/2+z
1/2+x,-y,1/2+z
1/2+x,1/2+y,z
1/2-x,1/2-y,z
1/2+x,1/2-y,-z
1/2-x,1/2+y,-z
1/2-x,1/2-y,-z
1/2+x,1/2+y,-z
1/2-x,1/2+y,z
1/2+x,1/2-y,z
loop_
_atom_site_type_symbol
_atom_site_label
_atom_site_fract_x
_atom_site_fract_y
_atom_site_fract_z
Si Si1 0.250000 0.920388 0.579612
Si Si2 0.604767 0.445849 0.235763
Si Si3 0.895233 0.764237 0.445849
Si Si4 0.110904 0.000000 0.053946
Si Si5 0.217000 0.553910 0.822219
Si Si6 0.389096 0.553946 0.500000
Si Si7 0.717000 0.177781 0.553910
O O1 0.208346 0.926698 0.628790
O O2 0.168481 0.928521 0.542832
O O3 0.291654 0.871210 0.573302
O O4 0.331519 0.957168 0.571479
O O5 0.500000 0.429899 0.226196
O O6 0.604229 0.500000 0.235326
O O7 0.683015 0.432848 0.199749
O O8 0.639892 0.433168 0.285215
O O9 0.895771 0.764674 0.500000
O O10 0.816985 0.800251 0.432848
O O11 0.860108 0.714785 0.433168
O O12 0.000000 0.773804 0.429899
O O13 0.000000 0.000000 0.066489
O O14 0.116148 0.000000 0.000000
O O15 0.215123 0.500000 0.825947
O O16 0.383852 0.500000 0.500000
O O17 0.500000 0.566489 0.500000
O O18 0.715124 0.174053 0.500000
#
# Coordination Sequence:
#
# PCOD9513749 Si02
#       7
#    32  32  32  16  32  16  32
#     4  12  19  34  46  66 100 123 164 202 222 274
#     4   8  15  29  46  64  84 110 151 195 238 284
#     4   8  15  29  46  64  84 110 151 195 238 284
#     4  11  22  34  46  59  88 138 174 196 223 250
#     4   9  17  28  46  65  87 122 152 191 238 267
#     4  11  22  34  46  59  88 138 174 196 223 250
#     4   9  17  28  46  65  87 122 152 191 238 267
#
# _framework density 15.024644
#
# number of rings (size 3 to 8) (size 9 to 14) (size 15 to 20)
#    0.000    2.500    3.333    2.000    0.000    2.667 
#    0.000    3.333    0.000    0.000    0.000    0.000 
#    0.000   10.667    0.000   12.000    0.000    0.000 
#
# Total GULP energy -267332.226081 kJ/mol
# GULP energy per Si atom -5569.421377 kJ/mol
# Density = 1.499045 g / cm^3
# Si number density = 15.024644 Si / 1000 Ang^3
#
#
#
# Elastic Constant Matrix: (Units=GPa)
#
#
# Indices 1 2 3 4 5 6 
#
# 1 69.6785 5.5714 5.5713 0.0000 0.0000 0.0000
# 2 5.5714 68.4541 1.2209 0.0000 0.0000 0.0000
# 3 5.5713 1.2209 68.4540 0.0000 0.0000 0.0000
# 4 0.0000 0.0000 0.0000 8.0943 0.0000 0.0000
# 5 0.0000 0.0000 0.0000 0.0000 3.9293 0.0000
# 6 0.0000 0.0000 0.0000 0.0000 0.0000 3.9294
#
#
#
# Elastic Compliance Matrix: (Units=1/GPa)
#
#
# Indices 1 2 3 4 5 6 
#
# 1 0.014538 -0.001162 -0.001162 0.000000 0.000000 0.000000
# 2 -0.001162 0.014706 -0.000168 0.000000 0.000000 0.000000
# 3 -0.001162 -0.000168 0.014706 0.000000 0.000000 0.000000
# 4 0.000000 0.000000 0.000000 0.123544 0.000000 0.000000
# 5 0.000000 0.000000 0.000000 0.000000 0.254497 0.000000
# 6 0.000000 0.000000 0.000000 0.000000 0.000000 0.254489
#
#
# Mechanical properties :
#
#
# Convention : Reuss Voigt Hill
#
# Bulk Modulus (GPa) = 25.66453 25.70151 25.68302
# Shear Modulus (GPa) = 7.19991 16.13881 11.66936
#
# Velocity S-wave (km/s) = 2.19145 3.28099 2.78992
# Velocity P-wave (km/s) = 4.84995 5.61218 5.24493
#
# Compressibility (1/GPa) = 0.03896428
#
# Stress axis : x y z
#
# Youngs Moduli (GPa) = 68.78755 67.99977 67.99968
#
# Poissons Ratio (x) = 0.07905 0.07904
# Poissons Ratio (y) = 0.07996 0.01140
# Poissons Ratio (z) = 0.07996 0.01140
#
# Static dielectric constant tensor:
#      x y z
#    x 1.519650 0.000000 0.000000 
#    y 0.000000 1.481190 0.000000 
#    z 0.000000 0.000000 1.481190 
# 
# From -- ./inp_files/41308.got.cif
#   From: 2010.05.17/outbox.cif.g08.bks.cpg/sg69_21_cif.got.tgz:41308.got - 2010.06.03 19:29:58.
