data_PCOD9513319
_publ_section_title
;
Structure prediction by ZEFSAII (Michael W. Deem and Ramdas Pophale) SiO2 
 PCOD9513319
Probable space group: F M M M
;
_chemical_formula_sum "Si O2"
_cell_formula_units_Z 128
_cell_length_a 10.062634
_cell_length_b 25.732137
_cell_length_c 26.294771
_cell_angle_alpha 90.000000
_cell_angle_beta 90.000000
_cell_angle_gamma 90.000000
_cell_volume 6808.585955
_symmetry_space_group_name_H-M "F M M M"
_symmetry_group_IT_number 69
_symmetry_cell_setting 'orthorhombic'
loop_
_space_group_symop_operation_xyz
x,y,z
-x,-y,z
x,-y,-z
-x,y,-z
-x,-y,-z
x,y,-z
-x,y,z
x,-y,z
x,1/2+y,1/2+z
-x,1/2-y,1/2+z
x,1/2-y,1/2-z
-x,1/2+y,1/2-z
-x,1/2-y,1/2-z
x,1/2+y,1/2-z
-x,1/2+y,1/2+z
x,1/2-y,1/2+z
1/2+x,y,1/2+z
1/2-x,-y,1/2+z
1/2+x,-y,1/2-z
1/2-x,y,1/2-z
1/2-x,-y,1/2-z
1/2+x,y,1/2-z
1/2-x,y,1/2+z
1/2+x,-y,1/2+z
1/2+x,1/2+y,z
1/2-x,1/2-y,z
1/2+x,1/2-y,-z
1/2-x,1/2+y,-z
1/2-x,1/2-y,-z
1/2+x,1/2+y,-z
1/2-x,1/2+y,z
1/2+x,1/2-y,z
loop_
_atom_site_type_symbol
_atom_site_label
_atom_site_fract_x
_atom_site_fract_y
_atom_site_fract_z
Si Si1 0.842095 0.698643 0.885118
Si Si2 0.500000 0.437828 0.939547
Si Si3 0.746660 0.092064 0.624399
Si Si4 0.500000 0.061288 0.942213
Si Si5 0.161225 0.500000 0.699418
Si Si6 0.148572 0.203644 0.500000
O O1 0.750000 0.750000 0.879954
O O2 0.781097 0.649639 0.855394
O O3 0.000000 0.707622 0.874570
O O4 0.834946 0.679241 0.944443
O O5 0.500000 0.500000 0.926613
O O6 0.626015 0.410188 0.915224
O O7 0.500000 0.434081 0.000000
O O8 0.874043 0.074079 0.592394
O O9 0.704636 0.050743 0.667164
O O10 0.500000 0.000000 0.949351
O O11 0.500000 0.085000 0.000000
O O12 0.250000 0.500000 0.750000
O O13 0.000000 0.500000 0.707147
O O14 0.250000 0.250000 0.500000
O O15 0.000000 0.225525 0.500000
#
# Coordination Sequence:
#
# PCOD9513319 Si02
#       6
#    32  16  32  16  16  16
#     4  10  22  35  55  84 123 170 213 255 302 360
#     4  11  22  38  59  89 133 174 209 254 313 381
#     4  12  22  41  61  92 131 165 217 259 312 379
#     4  11  22  34  59  95 133 174 211 254 311 377
#     4  12  28  48  71  96 122 160 209 270 331 382
#     4   8  16  32  46  71 112 161 215 250 280 336
#
# _framework density 18.799790999999999
#
# number of rings (size 3 to 8) (size 9 to 14) (size 15 to 20)
#    0.000    1.250    5.000    0.750    7.000    2.000 
#    0.000    0.000    0.000    0.750    0.000    3.500 
#    0.000    0.000    0.000    0.000    0.000    0.000 
#
# Total GULP energy -178381.449754 kJ/mol
# GULP energy per Si atom -5574.420305 kJ/mol
# Density = 1.875700 g / cm^3
# Si number density = 18.799791 Si / 1000 Ang^3
#
#
#
# Elastic Constant Matrix: (Units=GPa)
#
#
# Indices 1 2 3 4 5 6 
#
# 1 188.7613 71.5743 53.3696 0.0000 0.0000 0.0000
# 2 71.5743 141.6184 33.4154 0.0000 0.0000 0.0000
# 3 53.3696 33.4154 72.2742 0.0000 0.0000 0.0000
# 4 0.0000 0.0000 0.0000 5.8305 0.0000 0.0000
# 5 0.0000 0.0000 0.0000 0.0000 5.0377 0.0000
# 6 0.0000 0.0000 0.0000 0.0000 0.0000 29.8691
#
#
#
# Elastic Compliance Matrix: (Units=1/GPa)
#
#
# Indices 1 2 3 4 5 6 
#
# 1 0.007580 -0.002818 -0.004295 0.000000 0.000000 0.000000
# 2 -0.002818 0.008973 -0.002068 0.000000 0.000000 0.000000
# 3 -0.004295 -0.002068 0.017964 0.000000 0.000000 0.000000
# 4 0.000000 0.000000 0.000000 0.171511 0.000000 0.000000
# 5 0.000000 0.000000 0.000000 0.000000 0.198503 0.000000
# 6 0.000000 0.000000 0.000000 0.000000 0.000000 0.033479
#
#
# Mechanical properties :
#
#
# Convention : Reuss Voigt Hill
#
# Bulk Modulus (GPa) = 61.89557 79.93028 70.91292
# Shear Modulus (GPa) = 10.82819 24.43379 17.63099
#
# Velocity S-wave (km/s) = 2.40255 3.60902 3.06572
# Velocity P-wave (km/s) = 6.37898 7.74439 7.09461
#
# Compressibility (1/GPa) = 0.01615625
#
# Stress axis : x y z
#
# Youngs Moduli (GPa) = 131.91818 111.44179 55.66757
#
# Poissons Ratio (x) = 0.31402 0.23909
# Poissons Ratio (y) = 0.37172 0.11512
# Poissons Ratio (z) = 0.56657 0.23046
#
# Static dielectric constant tensor:
#      x y z
#    x 1.625720 0.000000 0.000000 
#    y 0.000000 1.698880 0.000000 
#    z 0.000000 0.000000 1.666460 
# 
# From -- ./inp_files/44401.got.cif
#   From: 2010.05.17/outbox.cif.g08.bks.cpg/sg69_23_cif.got.tgz:44401.got - 2010.06.03 19:29:58.
