data_PCOD9514964
_publ_section_title
;
Structure prediction by ZEFSAII (Michael W. Deem and Ramdas Pophale) SiO2 
 PCOD9514964
Probable space group: F D D D
;
_chemical_formula_sum "Si O2"
_cell_formula_units_Z 200
_cell_length_a 28.541067
_cell_length_b 15.054377
_cell_length_c 20.989766
_cell_angle_alpha 90.000000
_cell_angle_beta 90.000000
_cell_angle_gamma 90.000000
_cell_volume 9018.630412
_symmetry_space_group_name_H-M "F D D D"
_symmetry_group_IT_number 70
_space_group.IT_coordinate_system_code '2'
_symmetry_cell_setting 'orthorhombic'
loop_
_space_group_symop_operation_xyz
x,y,z
1/4-x,1/4-y,z
x,1/4-y,1/4-z
1/4-x,y,1/4-z
-x,-y,-z
3/4+x,3/4+y,-z
-x,3/4+y,3/4+z
3/4+x,-y,3/4+z
x,1/2+y,1/2+z
1/4-x,3/4-y,1/2+z
x,3/4-y,3/4-z
1/4-x,1/2+y,3/4-z
-x,1/2-y,1/2-z
3/4+x,1/4+y,1/2-z
-x,1/4+y,1/4+z
3/4+x,1/2-y,1/4+z
1/2+x,y,1/2+z
3/4-x,1/4-y,1/2+z
1/2+x,1/4-y,3/4-z
3/4-x,y,3/4-z
1/2-x,-y,1/2-z
1/4+x,3/4+y,1/2-z
1/2-x,3/4+y,1/4+z
1/4+x,-y,1/4+z
1/2+x,1/2+y,z
3/4-x,3/4-y,z
1/2+x,3/4-y,1/4-z
3/4-x,1/2+y,1/4-z
1/2-x,1/2-y,-z
1/4+x,1/4+y,-z
1/2-x,1/4+y,3/4+z
1/4+x,1/2-y,3/4+z
loop_
_atom_site_type_symbol
_atom_site_label
_atom_site_fract_x
_atom_site_fract_y
_atom_site_fract_z
Si Si1 0.428617 0.849722 0.634321
Si Si2 0.560521 0.187492 0.012125
Si Si3 0.800677 0.697918 0.718589
Si Si4 0.143365 0.862889 0.300094
Si Si5 0.544975 0.528702 0.962629
Si Si6 0.176979 0.085727 0.061974
Si Si7 0.125000 0.125000 0.625000
O O1 0.375000 0.875000 0.617217
O O2 0.431649 0.857689 0.710632
O O3 0.440052 0.760444 0.594780
O O4 0.458936 0.934493 0.608716
O O5 0.505156 0.187361 0.027454
O O6 0.590649 0.176427 0.076338
O O7 0.580142 0.278177 0.979055
O O8 0.837476 0.617131 0.710286
O O9 0.816098 0.735830 0.789377
O O10 0.152645 0.875000 0.375000
O O11 0.165997 0.954717 0.274812
O O12 0.500000 0.500000 0.000000
O O13 0.555649 0.618616 0.998752
O O14 0.125000 0.125000 0.065751
O O15 0.201601 0.125000 0.125000
#
# Coordination Sequence:
#
# PCOD9514964 Si02
#       7
#    32  32  32  32  32  32   8
#     4  11  20  46  72  98 143 198 229 296 381 442
#     4  12  28  48  76 101 145 198 248 315 372 443
#     4  11  24  43  73 108 139 185 254 296 372 445
#     4  12  23  44  73 109 134 180 261 303 349 445
#     4  11  21  35  65 101 144 179 234 290 357 442
#     4  10  20  38  59  94 148 189 209 277 378 432
#     4  12  32  60  64 100 152 198 246 316 384 418
#
# _framework density 22.176316
#
# number of rings (size 3 to 8) (size 9 to 14) (size 15 to 20)
#    0.000    0.800    5.600    2.880    3.360    2.560 
#    2.880    1.600    0.000    0.000    0.000    0.000 
#    0.000    0.000    0.000    0.000    0.000    0.000 
#
# Total GULP energy -278377.654654 kJ/mol
# GULP energy per Si atom -5567.553093 kJ/mol
# Density = 2.212584 g / cm^3
# Si number density = 22.176316 Si / 1000 Ang^3
#
#
#
# Elastic Constant Matrix: (Units=GPa)
#
#
# Indices 1 2 3 4 5 6 
#
# 1 138.0375 8.2924 19.7468 0.0000 0.0000 0.0000
# 2 8.2924 40.9501 15.3472 0.0000 0.0000 0.0000
# 3 19.7468 15.3472 118.4734 0.0000 0.0000 0.0000
# 4 0.0000 0.0000 0.0000 20.4435 0.0000 0.0000
# 5 0.0000 0.0000 0.0000 0.0000 21.0487 0.0000
# 6 0.0000 0.0000 0.0000 0.0000 0.0000 13.5875
#
#
#
# Elastic Compliance Matrix: (Units=1/GPa)
#
#
# Indices 1 2 3 4 5 6 
#
# 1 0.007468 -0.001099 -0.001102 0.000000 0.000000 0.000000
# 2 -0.001099 0.025828 -0.003163 0.000000 0.000000 0.000000
# 3 -0.001102 -0.003163 0.009034 0.000000 0.000000 0.000000
# 4 0.000000 0.000000 0.000000 0.048915 0.000000 0.000000
# 5 0.000000 0.000000 0.000000 0.000000 0.047509 0.000000
# 6 0.000000 0.000000 0.000000 0.000000 0.000000 0.073597
#
#
# Mechanical properties :
#
#
# Convention : Reuss Voigt Hill
#
# Bulk Modulus (GPa) = 31.64366 42.69263 37.16815
# Shear Modulus (GPa) = 21.40286 27.95423 24.67855
#
# Velocity S-wave (km/s) = 3.11001 3.55427 3.33953
# Velocity P-wave (km/s) = 5.21501 6.01141 5.62731
#
# Compressibility (1/GPa) = 0.03160190
#
# Stress axis : x y z
#
# Youngs Moduli (GPa) = 133.90216 38.71797 110.69126
#
# Poissons Ratio (x) = 0.04256 0.12202
# Poissons Ratio (y) = 0.14718 0.35007
# Poissons Ratio (z) = 0.14761 0.12245
#
# Static dielectric constant tensor:
#      x y z
#    x 1.846240 0.000000 0.000000 
#    y 0.000000 1.915620 0.000000 
#    z 0.000000 0.000000 1.962840 
# 
# From -- ./inp_files/46974.got.cif
#   From: 2010.05.17/outbox.cif.g08.bks.cpg/sg70_24_cif.got.tgz:46974.got - 2010.06.03 15:57:51.
