data_PCOD9514921
_publ_section_title
;
Structure prediction by ZEFSAII (Michael W. Deem and Ramdas Pophale) SiO2 
 PCOD9514921
Probable space group: F D D D
;
_chemical_formula_sum "Si O2"
_cell_formula_units_Z 208
_cell_length_a 21.758047
_cell_length_b 28.420629
_cell_length_c 16.038017
_cell_angle_alpha 90.000000
_cell_angle_beta 90.000000
_cell_angle_gamma 90.000000
_cell_volume 9917.546958
_symmetry_space_group_name_H-M "F D D D"
_symmetry_group_IT_number 70
_space_group.IT_coordinate_system_code '2'
_symmetry_cell_setting 'orthorhombic'
loop_
_space_group_symop_operation_xyz
x,y,z
1/4-x,1/4-y,z
x,1/4-y,1/4-z
1/4-x,y,1/4-z
-x,-y,-z
3/4+x,3/4+y,-z
-x,3/4+y,3/4+z
3/4+x,-y,3/4+z
x,1/2+y,1/2+z
1/4-x,3/4-y,1/2+z
x,3/4-y,3/4-z
1/4-x,1/2+y,3/4-z
-x,1/2-y,1/2-z
3/4+x,1/4+y,1/2-z
-x,1/4+y,1/4+z
3/4+x,1/2-y,1/4+z
1/2+x,y,1/2+z
3/4-x,1/4-y,1/2+z
1/2+x,1/4-y,3/4-z
3/4-x,y,3/4-z
1/2-x,-y,1/2-z
1/4+x,3/4+y,1/2-z
1/2-x,3/4+y,1/4+z
1/4+x,-y,1/4+z
1/2+x,1/2+y,z
3/4-x,3/4-y,z
1/2+x,3/4-y,1/4-z
3/4-x,1/2+y,1/4-z
1/2-x,1/2-y,-z
1/4+x,1/4+y,-z
1/2-x,1/4+y,3/4+z
1/4+x,1/2-y,3/4+z
loop_
_atom_site_type_symbol
_atom_site_label
_atom_site_fract_x
_atom_site_fract_y
_atom_site_fract_z
Si Si1 0.543722 0.744530 0.993351
Si Si2 0.790934 0.819748 0.495635
Si Si3 0.625000 0.904471 0.625000
Si Si4 0.384105 0.928380 0.603698
Si Si5 0.196810 0.394025 0.464513
Si Si6 0.555551 0.982731 0.113047
Si Si7 0.484585 0.527634 0.916179
O O1 0.599849 0.714394 0.958116
O O2 0.552304 0.799398 0.968184
O O3 0.482557 0.727251 0.947382
O O4 0.534086 0.742681 0.091686
O O5 0.848134 0.819120 0.558333
O O6 0.764296 0.870854 0.474678
O O7 0.734148 0.794586 0.543851
O O8 0.805111 0.787072 0.417015
O O9 0.657540 0.879807 0.546453
O O10 0.572457 0.936577 0.581610
O O11 0.375000 0.875000 0.573580
O O12 0.454706 0.943375 0.610234
O O13 0.173475 0.375000 0.375000
O O14 0.625000 0.967562 0.125000
O O15 0.500000 0.500000 0.000000
#
# Coordination Sequence:
#
# PCOD9514921 Si02
#       7
#    32  32  16  32  32  32  32
#     4  10  22  41  64  95 129 171 223 271 329 402
#     4  10  22  38  62  97 132 172 213 263 336 401
#     4  10  24  40  62  94 127 168 231 274 336 404
#     4  11  23  43  68  95 137 174 220 282 341 404
#     4  11  21  42  67  94 133 176 219 277 335 413
#     4  10  20  37  59  96 134 171 207 264 322 397
#     4  11  22  43  67  93 128 178 220 282 339 397
#
# _framework density 20.972928
#
# number of rings (size 3 to 8) (size 9 to 14) (size 15 to 20)
#    0.000    1.538    1.538    4.615    1.077    0.000 
#    2.769    2.308    0.000    0.000    0.000    0.000 
#    0.000    0.000    0.000    0.000    0.000    0.000 
#
# Total GULP energy -290556.186444 kJ/mol
# GULP energy per Si atom -5587.618970 kJ/mol
# Density = 2.092519 g / cm^3
# Si number density = 20.972928 Si / 1000 Ang^3
#
#
#
# Elastic Constant Matrix: (Units=GPa)
#
#
# Indices 1 2 3 4 5 6 
#
# 1 132.0300 22.8428 13.0515 0.0000 0.0000 0.0000
# 2 22.8428 87.4759 11.9218 0.0000 0.0000 0.0000
# 3 13.0515 11.9218 116.6497 0.0000 0.0000 0.0000
# 4 0.0000 0.0000 0.0000 28.1035 0.0000 0.0000
# 5 0.0000 0.0000 0.0000 0.0000 8.7934 0.0000
# 6 0.0000 0.0000 0.0000 0.0000 0.0000 33.0033
#
#
#
# Elastic Compliance Matrix: (Units=1/GPa)
#
#
# Indices 1 2 3 4 5 6 
#
# 1 0.007987 -0.001992 -0.000690 0.000000 0.000000 0.000000
# 2 -0.001992 0.012090 -0.001013 0.000000 0.000000 0.000000
# 3 -0.000690 -0.001013 0.008753 0.000000 0.000000 0.000000
# 4 0.000000 0.000000 0.000000 0.035583 0.000000 0.000000
# 5 0.000000 0.000000 0.000000 0.000000 0.113722 0.000000
# 6 0.000000 0.000000 0.000000 0.000000 0.000000 0.030300
#
#
# Mechanical properties :
#
#
# Convention : Reuss Voigt Hill
#
# Bulk Modulus (GPa) = 46.63920 47.97643 47.30781
# Shear Modulus (GPa) = 22.42445 33.20268 27.81357
#
# Velocity S-wave (km/s) = 3.27342 3.98316 3.64561
# Velocity P-wave (km/s) = 6.04757 6.63921 6.35029
#
# Compressibility (1/GPa) = 0.02144119
#
# Stress axis : x y z
#
# Youngs Moduli (GPa) = 125.20627 82.71422 114.24146
#
# Poissons Ratio (x) = 0.16473 0.07883
# Poissons Ratio (y) = 0.24936 0.11570
# Poissons Ratio (z) = 0.08640 0.08377
#
# Static dielectric constant tensor:
#      x y z
#    x 1.741400 0.000000 0.000000 
#    y 0.000000 1.792060 0.000000 
#    z 0.000000 0.000000 1.762520 
# 
# From -- ./inp_files/36880.got.cif
#   From: 2010.05.17/outbox.cif.g08.bks.cpg/sg70_19_cif.got.tgz:36880.got - 2010.06.03 15:57:51.
