data_PCOD9514903
_publ_section_title
;
Structure prediction by ZEFSAII (Michael W. Deem and Ramdas Pophale) SiO2 
 PCOD9514903
Probable space group: F D D D
;
_chemical_formula_sum "Si O2"
_cell_formula_units_Z 176
_cell_length_a 19.042582
_cell_length_b 24.615536
_cell_length_c 15.821145
_cell_angle_alpha 90.000000
_cell_angle_beta 90.000000
_cell_angle_gamma 90.000000
_cell_volume 7416.056710
_symmetry_space_group_name_H-M "F D D D"
_symmetry_group_IT_number 70
_space_group.IT_coordinate_system_code '2'
_symmetry_cell_setting 'orthorhombic'
loop_
_space_group_symop_operation_xyz
x,y,z
1/4-x,1/4-y,z
x,1/4-y,1/4-z
1/4-x,y,1/4-z
-x,-y,-z
3/4+x,3/4+y,-z
-x,3/4+y,3/4+z
3/4+x,-y,3/4+z
x,1/2+y,1/2+z
1/4-x,3/4-y,1/2+z
x,3/4-y,3/4-z
1/4-x,1/2+y,3/4-z
-x,1/2-y,1/2-z
3/4+x,1/4+y,1/2-z
-x,1/4+y,1/4+z
3/4+x,1/2-y,1/4+z
1/2+x,y,1/2+z
3/4-x,1/4-y,1/2+z
1/2+x,1/4-y,3/4-z
3/4-x,y,3/4-z
1/2-x,-y,1/2-z
1/4+x,3/4+y,1/2-z
1/2-x,3/4+y,1/4+z
1/4+x,-y,1/4+z
1/2+x,1/2+y,z
3/4-x,3/4-y,z
1/2+x,3/4-y,1/4-z
3/4-x,1/2+y,1/4-z
1/2-x,1/2-y,-z
1/4+x,1/4+y,-z
1/2-x,1/4+y,3/4+z
1/4+x,1/2-y,3/4+z
loop_
_atom_site_type_symbol
_atom_site_label
_atom_site_fract_x
_atom_site_fract_y
_atom_site_fract_z
Si Si1 0.730333 0.930922 0.673514
Si Si2 0.109567 0.038259 0.029939
Si Si3 0.902904 0.230763 0.725749
Si Si4 0.508518 0.507651 0.760346
Si Si5 0.965972 0.313420 0.845969
Si Si6 0.625000 0.406330 0.625000
O O1 0.804653 0.928324 0.722460
O O2 0.740200 0.943478 0.573632
O O3 0.681812 0.878629 0.675914
O O4 0.682871 0.981426 0.706398
O O5 0.125000 0.059586 0.125000
O O6 0.187540 0.025833 0.994213
O O7 0.823258 0.228438 0.692656
O O8 0.932789 0.289440 0.759045
O O9 0.912682 0.193046 0.807012
O O10 0.952210 0.201072 0.659399
O O11 0.550656 0.527343 0.678168
O O12 0.952820 0.375000 0.875000
#
# Coordination Sequence:
#
# PCOD9514903 Si02
#       6
#    32  32  32  32  32  16
#     4  10  20  36  70  94 131 181 223 272 349 423
#     4   9  19  37  63 101 132 171 225 275 330 421
#     4  11  25  41  66  97 140 172 231 296 350 433
#     4  11  19  40  62  97 135 170 221 288 343 414
#     4  11  24  43  66  96 130 182 228 285 359 426
#     4  12  20  44  61  98 130 185 228 292 354 422
#
# _framework density 23.732289000000002
#
# number of rings (size 3 to 8) (size 9 to 14) (size 15 to 20)
#    0.000    1.455    4.545    2.182    0.000    1.455 
#    0.000    0.909    0.000    3.273    0.000    0.000 
#    0.000    0.000    0.000    0.000    0.000    0.000 
#
# Total GULP energy -245350.268992 kJ/mol
# GULP energy per Si atom -5576.142477 kJ/mol
# Density = 2.367827 g / cm^3
# Si number density = 23.732289 Si / 1000 Ang^3
#
#
#
# Elastic Constant Matrix: (Units=GPa)
#
#
# Indices 1 2 3 4 5 6 
#
# 1 167.4950 24.9149 3.0062 0.0000 0.0000 0.0000
# 2 24.9149 81.0211 10.6051 0.0000 0.0000 0.0000
# 3 3.0062 10.6051 38.4966 0.0000 0.0000 0.0000
# 4 0.0000 0.0000 0.0000 10.6933 0.0000 0.0000
# 5 0.0000 0.0000 0.0000 0.0000 46.5828 0.0000
# 6 0.0000 0.0000 0.0000 0.0000 0.0000 20.2516
#
#
#
# Elastic Compliance Matrix: (Units=1/GPa)
#
#
# Indices 1 2 3 4 5 6 
#
# 1 0.006257 -0.001930 0.000043 0.000000 0.000000 0.000000
# 2 -0.001930 0.013399 -0.003541 0.000000 0.000000 0.000000
# 3 0.000043 -0.003541 0.026948 0.000000 0.000000 0.000000
# 4 0.000000 0.000000 0.000000 0.093517 0.000000 0.000000
# 5 0.000000 0.000000 0.000000 0.000000 0.021467 0.000000
# 6 0.000000 0.000000 0.000000 0.000000 0.000000 0.049379
#
#
# Mechanical properties :
#
#
# Convention : Reuss Voigt Hill
#
# Bulk Modulus (GPa) = 27.97218 40.45168 34.21193
# Shear Modulus (GPa) = 21.39149 32.07131 26.73140
#
# Velocity S-wave (km/s) = 3.00553 3.68010 3.35979
# Velocity P-wave (km/s) = 4.88431 5.92786 5.43120
#
# Compressibility (1/GPa) = 0.03574981
#
# Stress axis : x y z
#
# Youngs Moduli (GPa) = 159.83167 74.63096 37.10810
#
# Poissons Ratio (x) = 0.14401 -0.00160
# Poissons Ratio (y) = 0.30841 0.13138
# Poissons Ratio (z) = -0.00687 0.26424
#
# Static dielectric constant tensor:
#      x y z
#    x 1.944670 0.000000 0.000000 
#    y 0.000000 1.937680 0.000000 
#    z 0.000000 0.000000 2.449700 
# 
# From -- ./inp_files/35237.got.cif
#   From: 2010.05.17/outbox.cif.g08.bks.cpg/sg70_18_cif.got.tgz:35237.got - 2010.06.03 15:57:51.
