data_PCOD9514389
_publ_section_title
;
Structure prediction by ZEFSAII (Michael W. Deem and Ramdas Pophale) SiO2 
 PCOD9514389
Probable space group: F D D D
;
_chemical_formula_sum "Si O2"
_cell_formula_units_Z 192
_cell_length_a 16.988963
_cell_length_b 21.778063
_cell_length_c 21.925266
_cell_angle_alpha 90.000000
_cell_angle_beta 90.000000
_cell_angle_gamma 90.000000
_cell_volume 8112.056957
_symmetry_space_group_name_H-M "F D D D"
_symmetry_group_IT_number 70
_space_group.IT_coordinate_system_code '2'
_symmetry_cell_setting 'orthorhombic'
loop_
_space_group_symop_operation_xyz
x,y,z
1/4-x,1/4-y,z
x,1/4-y,1/4-z
1/4-x,y,1/4-z
-x,-y,-z
3/4+x,3/4+y,-z
-x,3/4+y,3/4+z
3/4+x,-y,3/4+z
x,1/2+y,1/2+z
1/4-x,3/4-y,1/2+z
x,3/4-y,3/4-z
1/4-x,1/2+y,3/4-z
-x,1/2-y,1/2-z
3/4+x,1/4+y,1/2-z
-x,1/4+y,1/4+z
3/4+x,1/2-y,1/4+z
1/2+x,y,1/2+z
3/4-x,1/4-y,1/2+z
1/2+x,1/4-y,3/4-z
3/4-x,y,3/4-z
1/2-x,-y,1/2-z
1/4+x,3/4+y,1/2-z
1/2-x,3/4+y,1/4+z
1/4+x,-y,1/4+z
1/2+x,1/2+y,z
3/4-x,3/4-y,z
1/2+x,3/4-y,1/4-z
3/4-x,1/2+y,1/4-z
1/2-x,1/2-y,-z
1/4+x,1/4+y,-z
1/2-x,1/4+y,3/4+z
1/4+x,1/2-y,3/4+z
loop_
_atom_site_type_symbol
_atom_site_label
_atom_site_fract_x
_atom_site_fract_y
_atom_site_fract_z
Si Si1 0.607460 0.053052 0.190844
Si Si2 0.828019 0.279165 0.065140
Si Si3 0.599667 0.843695 0.436026
Si Si4 0.437560 0.701246 0.496437
Si Si5 0.556147 0.664673 0.992583
Si Si6 0.983099 0.896467 0.137301
O O1 0.625000 0.125000 0.188319
O O2 0.625000 0.025672 0.125000
O O3 0.663092 0.026203 0.242576
O O4 0.519796 0.049298 0.216335
O O5 0.837460 0.208667 0.083527
O O6 0.904544 0.315085 0.093465
O O7 0.762459 0.328664 0.081729
O O8 0.570794 0.875000 0.375000
O O9 0.637649 0.895171 0.478127
O O10 0.522466 0.819545 0.470089
O O11 0.405051 0.767966 0.515222
O O12 0.452447 0.686977 0.424244
O O13 0.625000 0.625000 0.023057
O O14 0.527813 0.624512 0.933318
#
# Coordination Sequence:
#
# PCOD9514389 Si02
#       6
#    32  32  32  32  32  32
#     4  10  19  36  67 104 147 176 209 268 348 442
#     4  10  18  43  67  98 140 181 218 289 357 421
#     4  12  28  44  68 105 142 185 245 303 353 428
#     4  11  25  44  69 108 146 181 241 291 357 450
#     4  12  26  48  74  96 135 197 247 307 367 407
#     4  10  20  43  74  98 137 183 228 289 361 442
#
# _framework density 23.668474
#
# number of rings (size 3 to 8) (size 9 to 14) (size 15 to 20)
#    0.000    1.167    8.333    1.000    2.333    3.667 
#    0.000    1.667    0.000    0.000    0.000    0.000 
#    0.000    0.000    0.000    0.000    0.000    0.000 
#
# Total GULP energy -267734.775290 kJ/mol
# GULP energy per Si atom -5577.807819 kJ/mol
# Density = 2.361460 g / cm^3
# Si number density = 23.668474 Si / 1000 Ang^3
#
#
#
# Elastic Constant Matrix: (Units=GPa)
#
#
# Indices 1 2 3 4 5 6 
#
# 1 41.9138 20.1420 -3.3598 0.0000 0.0000 0.0000
# 2 20.1420 147.3299 6.2365 0.0000 0.0000 0.0000
# 3 -3.3598 6.2365 84.0884 0.0000 0.0000 0.0000
# 4 0.0000 0.0000 0.0000 2.3614 0.0000 0.0000
# 5 0.0000 0.0000 0.0000 0.0000 21.1907 0.0000
# 6 0.0000 0.0000 0.0000 0.0000 0.0000 36.5462
#
#
#
# Elastic Compliance Matrix: (Units=1/GPa)
#
#
# Indices 1 2 3 4 5 6 
#
# 1 0.025675 -0.003565 0.001290 0.000000 0.000000 0.000000
# 2 -0.003565 0.007304 -0.000684 0.000000 0.000000 0.000000
# 3 0.001290 -0.000684 0.011995 0.000000 0.000000 0.000000
# 4 0.000000 0.000000 0.000000 0.423483 0.000000 0.000000
# 5 0.000000 0.000000 0.000000 0.000000 0.047190 0.000000
# 6 0.000000 0.000000 0.000000 0.000000 0.000000 0.027363
#
#
# Mechanical properties :
#
#
# Convention : Reuss Voigt Hill
#
# Bulk Modulus (GPa) = 25.60424 35.48550 30.54487
# Shear Modulus (GPa) = 8.89767 28.70722 18.80245
#
# Velocity S-wave (km/s) = 1.94099 3.48643 2.82158
# Velocity P-wave (km/s) = 3.98304 5.58858 4.85267
#
# Compressibility (1/GPa) = 0.03905603
#
# Stress axis : x y z
#
# Youngs Moduli (GPa) = 38.94848 136.91511 83.37126
#
# Poissons Ratio (x) = 0.48807 -0.10757
# Poissons Ratio (y) = 0.13884 0.05704
# Poissons Ratio (z) = -0.05025 0.09367
#
# Static dielectric constant tensor:
#      x y z
#    x 1.954430 0.000000 0.000000 
#    y 0.000000 1.887340 0.000000 
#    z 0.000000 0.000000 1.968950 
# 
# From -- ./inp_files/52997.got.cif
#   From: 2010.05.17/outbox.cif.g08.bks.cpg/sg70_27_cif.got.tgz:52997.got - 2010.06.03 15:57:51.
