data_PCOD9514558
_publ_section_title
;
Structure prediction by ZEFSAII (Michael W. Deem and Ramdas Pophale) SiO2 
 PCOD9514558
Probable space group: F D D D
;
_chemical_formula_sum "Si O2"
_cell_formula_units_Z 176
_cell_length_a 14.768421
_cell_length_b 19.780555
_cell_length_c 27.049172
_cell_angle_alpha 90.000000
_cell_angle_beta 90.000000
_cell_angle_gamma 90.000000
_cell_volume 7901.808721
_symmetry_space_group_name_H-M "F D D D"
_symmetry_group_IT_number 70
_space_group.IT_coordinate_system_code '2'
_symmetry_cell_setting 'orthorhombic'
loop_
_space_group_symop_operation_xyz
x,y,z
1/4-x,1/4-y,z
x,1/4-y,1/4-z
1/4-x,y,1/4-z
-x,-y,-z
3/4+x,3/4+y,-z
-x,3/4+y,3/4+z
3/4+x,-y,3/4+z
x,1/2+y,1/2+z
1/4-x,3/4-y,1/2+z
x,3/4-y,3/4-z
1/4-x,1/2+y,3/4-z
-x,1/2-y,1/2-z
3/4+x,1/4+y,1/2-z
-x,1/4+y,1/4+z
3/4+x,1/2-y,1/4+z
1/2+x,y,1/2+z
3/4-x,1/4-y,1/2+z
1/2+x,1/4-y,3/4-z
3/4-x,y,3/4-z
1/2-x,-y,1/2-z
1/4+x,3/4+y,1/2-z
1/2-x,3/4+y,1/4+z
1/4+x,-y,1/4+z
1/2+x,1/2+y,z
3/4-x,3/4-y,z
1/2+x,3/4-y,1/4-z
3/4-x,1/2+y,1/4-z
1/2-x,1/2-y,-z
1/4+x,1/4+y,-z
1/2-x,1/4+y,3/4+z
1/4+x,1/2-y,3/4+z
loop_
_atom_site_type_symbol
_atom_site_label
_atom_site_fract_x
_atom_site_fract_y
_atom_site_fract_z
Si Si1 0.959916 0.935629 0.707755
Si Si2 0.950787 0.956206 0.101673
Si Si3 0.494372 0.648441 0.455110
Si Si4 0.337160 0.753395 0.463882
Si Si5 0.875000 0.875000 0.291655
Si Si6 0.900112 0.230098 0.819992
O O1 0.965127 0.861580 0.682329
O O2 0.898030 0.978234 0.668277
O O3 0.061395 0.961525 0.711652
O O4 0.907330 0.944757 0.759956
O O5 0.956938 0.932545 0.157975
O O6 0.032720 0.007022 0.088074
O O7 0.398702 0.686353 0.460409
O O8 0.548854 0.653572 0.505208
O O9 0.480372 0.568533 0.446455
O O10 0.250000 0.750000 0.500000
O O11 0.914461 0.810270 0.319869
O O12 0.875000 0.207492 0.875000
#
# Coordination Sequence:
#
# PCOD9514558 Si02
#       6
#    32  32  32  32  16  32
#     4  10  19  36  59  91 121 154 203 259 306 359
#     4  10  20  37  65  93 116 161 209 258 306 368
#     4  12  22  40  63  92 122 160 219 260 308 390
#     4  10  20  35  61  93 121 152 199 260 316 359
#     4  12  27  40  58  90 128 166 206 268 323 382
#     4  12  23  41  61  86 123 169 211 258 320 377
#
# _framework density 22.273381000000001
#
# number of rings (size 3 to 8) (size 9 to 14) (size 15 to 20)
#    0.000    1.091    5.455    2.455    0.000    0.000 
#    0.000    0.000    0.000    0.000    0.000   48.364 
#    0.000    0.000    0.000    0.000    0.000    0.000 
#
# Total GULP energy -245179.483764 kJ/mol
# GULP energy per Si atom -5572.260995 kJ/mol
# Density = 2.222269 g / cm^3
# Si number density = 22.273381 Si / 1000 Ang^3
#
#
#
# Elastic Constant Matrix: (Units=GPa)
#
#
# Indices 1 2 3 4 5 6 
#
# 1 64.8075 -21.4701 2.9302 0.0000 0.0000 0.0000
# 2 -21.4701 59.0578 13.5674 0.0000 0.0000 0.0000
# 3 2.9302 13.5674 37.2469 0.0000 0.0000 0.0000
# 4 0.0000 0.0000 0.0000 30.8414 0.0000 0.0000
# 5 0.0000 0.0000 0.0000 0.0000 30.5381 0.0000
# 6 0.0000 0.0000 0.0000 0.0000 0.0000 23.9564
#
#
#
# Elastic Compliance Matrix: (Units=1/GPa)
#
#
# Indices 1 2 3 4 5 6 
#
# 1 0.018119 0.007546 -0.004174 0.000000 0.000000 0.000000
# 2 0.007546 0.021622 -0.008469 0.000000 0.000000 0.000000
# 3 -0.004174 -0.008469 0.030261 0.000000 0.000000 0.000000
# 4 0.000000 0.000000 0.000000 0.032424 0.000000 0.000000
# 5 0.000000 0.000000 0.000000 0.000000 0.032746 0.000000
# 6 0.000000 0.000000 0.000000 0.000000 0.000000 0.041743
#
#
# Mechanical properties :
#
#
# Convention : Reuss Voigt Hill
#
# Bulk Modulus (GPa) = 16.72055 16.79636 16.75845
# Shear Modulus (GPa) = 24.14935 28.13947 26.14441
#
# Velocity S-wave (km/s) = 3.29633 3.55824 3.42979
# Velocity P-wave (km/s) = 4.69159 4.94357 4.81922
#
# Compressibility (1/GPa) = 0.05980666
#
# Stress axis : x y z
#
# Youngs Moduli (GPa) = 55.19087 46.25020 33.04553
#
# Poissons Ratio (x) = -0.34900 0.13793
# Poissons Ratio (y) = -0.41647 0.27988
# Poissons Ratio (z) = 0.23037 0.39171
#
# Static dielectric constant tensor:
#      x y z
#    x 1.517430 0.000000 0.000000 
#    y 0.000000 1.877360 0.000000 
#    z 0.000000 0.000000 1.837560 
# 
# From -- ./inp_files/59458.got.cif
#   From: 2010.05.17/outbox.cif.g08.bks.cpg/sg70_30_cif.got.tgz:59458.got - 2010.06.03 15:57:51.
