data_PCOD9514733
_publ_section_title
;
Structure prediction by ZEFSAII (Michael W. Deem and Ramdas Pophale) SiO2 
 PCOD9514733
Probable space group: F D D D
;
_chemical_formula_sum "Si O2"
_cell_formula_units_Z 144
_cell_length_a 16.244610
_cell_length_b 34.499460
_cell_length_c 14.449202
_cell_angle_alpha 90.000000
_cell_angle_beta 90.000000
_cell_angle_gamma 90.000000
_cell_volume 8097.770220
_symmetry_space_group_name_H-M "F D D D"
_symmetry_group_IT_number 70
_space_group.IT_coordinate_system_code '2'
_symmetry_cell_setting 'orthorhombic'
loop_
_space_group_symop_operation_xyz
x,y,z
1/4-x,1/4-y,z
x,1/4-y,1/4-z
1/4-x,y,1/4-z
-x,-y,-z
3/4+x,3/4+y,-z
-x,3/4+y,3/4+z
3/4+x,-y,3/4+z
x,1/2+y,1/2+z
1/4-x,3/4-y,1/2+z
x,3/4-y,3/4-z
1/4-x,1/2+y,3/4-z
-x,1/2-y,1/2-z
3/4+x,1/4+y,1/2-z
-x,1/4+y,1/4+z
3/4+x,1/2-y,1/4+z
1/2+x,y,1/2+z
3/4-x,1/4-y,1/2+z
1/2+x,1/4-y,3/4-z
3/4-x,y,3/4-z
1/2-x,-y,1/2-z
1/4+x,3/4+y,1/2-z
1/2-x,3/4+y,1/4+z
1/4+x,-y,1/4+z
1/2+x,1/2+y,z
3/4-x,3/4-y,z
1/2+x,3/4-y,1/4-z
3/4-x,1/2+y,1/4-z
1/2-x,1/2-y,-z
1/4+x,1/4+y,-z
1/2-x,1/4+y,3/4+z
1/4+x,1/2-y,3/4+z
loop_
_atom_site_type_symbol
_atom_site_label
_atom_site_fract_x
_atom_site_fract_y
_atom_site_fract_z
Si Si1 0.805578 0.524782 0.627060
Si Si2 0.551372 0.332190 0.197807
Si Si3 0.874980 0.805773 0.578572
Si Si4 0.052251 0.921025 0.197900
Si Si5 0.875000 0.970760 0.375000
O O1 0.811309 0.553045 0.715593
O O2 0.866008 0.488603 0.637847
O O3 0.812911 0.549355 0.533350
O O4 0.711954 0.507625 0.627987
O O5 0.625000 0.326846 0.125000
O O6 0.461359 0.326524 0.150351
O O7 0.554831 0.376658 0.231905
O O8 0.876566 0.804901 0.466586
O O9 0.963753 0.822695 0.602109
O O10 0.125000 0.926833 0.125000
#
# Coordination Sequence:
#
# PCOD9514733 Si02
#       5
#    32  32  32  32  16
#     4  10  20  31  56  79 107 132 175 221 267 316
#     4  10  20  33  57  80 108 132 169 219 283 320
#     4  10  20  31  56  79 107 132 175 221 267 316
#     4  10  22  38  50  73 109 148 178 212 255 312
#     4   8  16  30  47  82 106 122 156 218 278 312
#
# _framework density 17.782674
#
# number of rings (size 3 to 8) (size 9 to 14) (size 15 to 20)
#    0.000    2.222    0.000    4.000    9.333    0.889 
#    0.000    6.667    0.000    0.000    0.000    6.222 
#    0.000    0.000    0.000    0.000    0.000    0.000 
#
# Total GULP energy -200623.170137 kJ/mol
# GULP energy per Si atom -5572.865837 kJ/mol
# Density = 1.774220 g / cm^3
# Si number density = 17.782674 Si / 1000 Ang^3
#
#
#
# Elastic Constant Matrix: (Units=GPa)
#
#
# Indices 1 2 3 4 5 6 
#
# 1 118.7925 33.4066 33.7162 0.0000 0.0000 0.0000
# 2 33.4066 104.2653 39.8833 0.0000 0.0000 0.0000
# 3 33.7162 39.8833 52.2953 0.0000 0.0000 0.0000
# 4 0.0000 0.0000 0.0000 -1.3229 0.0000 0.0000
# 5 0.0000 0.0000 0.0000 0.0000 24.2828 0.0000
# 6 0.0000 0.0000 0.0000 0.0000 0.0000 25.1197
#
#
#
# Elastic Compliance Matrix: (Units=1/GPa)
#
#
# Indices 1 2 3 4 5 6 
#
# 1 0.010389 -0.001082 -0.005873 0.000000 0.000000 0.000000
# 2 -0.001082 0.013654 -0.009716 0.000000 0.000000 0.000000
# 3 -0.005873 -0.009716 0.030318 0.000000 0.000000 0.000000
# 4 0.000000 0.000000 0.000000 -0.755894 0.000000 0.000000
# 5 0.000000 0.000000 0.000000 0.000000 0.041181 0.000000
# 6 0.000000 0.000000 0.000000 0.000000 0.000000 0.039809
#
#
# Mechanical properties :
#
#
# Convention : Reuss Voigt Hill
#
# Bulk Modulus (GPa) = 47.57341 54.37392 50.97367
# Shear Modulus (GPa) = -8.61782 20.83905 6.11062
#
# Velocity S-wave (km/s) = -2.20379 3.42698 1.85573
# Velocity P-wave (km/s) = 4.50945 6.80457 5.77223
#
# Compressibility (1/GPa) = 0.02102014
#
# Stress axis : x y z
#
# Youngs Moduli (GPa) = 96.25342 73.23827 32.98350
#
# Poissons Ratio (x) = 0.07926 0.19371
# Poissons Ratio (y) = 0.10417 0.32045
# Poissons Ratio (z) = 0.56528 0.71155
#
# Static dielectric constant tensor:
#      x y z
#    x 1.657470 0.000000 0.000000 
#    y 0.000000 1.632780 0.000000 
#    z 0.000000 0.000000 1.581330 
# 
# From -- ./inp_files/26608.got.cif
#   From: 2010.05.17/outbox.cif.g08.bks.cpg/sg70_14_cif.got.tgz:26608.got - 2010.06.03 15:57:51.
