data_PCOD9514818
_publ_section_title
;
Structure prediction by ZEFSAII (Michael W. Deem and Ramdas Pophale) SiO2 
 PCOD9514818
Probable space group: F D D D
;
_chemical_formula_sum "Si O2"
_cell_formula_units_Z 128
_cell_length_a 9.267567
_cell_length_b 28.163726
_cell_length_c 20.047309
_cell_angle_alpha 90.000000
_cell_angle_beta 90.000000
_cell_angle_gamma 90.000000
_cell_volume 5232.532439
_symmetry_space_group_name_H-M "F D D D"
_symmetry_group_IT_number 70
_space_group.IT_coordinate_system_code '2'
_symmetry_cell_setting 'orthorhombic'
loop_
_space_group_symop_operation_xyz
x,y,z
1/4-x,1/4-y,z
x,1/4-y,1/4-z
1/4-x,y,1/4-z
-x,-y,-z
3/4+x,3/4+y,-z
-x,3/4+y,3/4+z
3/4+x,-y,3/4+z
x,1/2+y,1/2+z
1/4-x,3/4-y,1/2+z
x,3/4-y,3/4-z
1/4-x,1/2+y,3/4-z
-x,1/2-y,1/2-z
3/4+x,1/4+y,1/2-z
-x,1/4+y,1/4+z
3/4+x,1/2-y,1/4+z
1/2+x,y,1/2+z
3/4-x,1/4-y,1/2+z
1/2+x,1/4-y,3/4-z
3/4-x,y,3/4-z
1/2-x,-y,1/2-z
1/4+x,3/4+y,1/2-z
1/2-x,3/4+y,1/4+z
1/4+x,-y,1/4+z
1/2+x,1/2+y,z
3/4-x,3/4-y,z
1/2+x,3/4-y,1/4-z
3/4-x,1/2+y,1/4-z
1/2-x,1/2-y,-z
1/4+x,1/4+y,-z
1/2-x,1/4+y,3/4+z
1/4+x,1/2-y,3/4+z
loop_
_atom_site_type_symbol
_atom_site_label
_atom_site_fract_x
_atom_site_fract_y
_atom_site_fract_z
Si Si1 0.365598 0.062810 0.999494
Si Si2 0.375000 0.375000 0.996932
Si Si3 0.811923 0.449982 0.004701
Si Si4 0.375000 0.721939 0.375000
Si Si5 0.322410 0.059231 0.155109
O O1 0.244405 0.094452 0.963910
O O2 0.531688 0.071964 0.982819
O O3 0.342028 0.072788 0.078293
O O4 0.336263 0.006700 0.993270
O O5 0.289391 0.338572 0.949484
O O6 0.726476 0.434822 0.939390
O O7 0.702236 0.444111 0.066037
O O8 0.500893 0.756573 0.345882
#
# Coordination Sequence:
#
# PCOD9514818 Si02
#       5
#    32  16  32  16  32
#     4  10  21  36  57  92 119 149 194 254 299 365
#     4  12  21  36  58  88 128 152 190 244 327 368
#     4  10  21  36  57  87 116 154 205 239 300 348
#     4  10  20  35  60  86 114 160 204 248 288 368
#     4  11  19  35  60  86 117 156 189 246 309 357
#
# _framework density 24.462340999999999
#
# number of rings (size 3 to 8) (size 9 to 14) (size 15 to 20)
#    0.000    1.500    5.000    3.000    0.000    1.000 
#    0.000    2.500    0.000    3.000    0.000    0.000 
#    0.000    0.000    0.000    0.000    0.000    0.000 
#
# Total GULP energy -179085.132993 kJ/mol
# GULP energy per Si atom -5596.410406 kJ/mol
# Density = 2.440666 g / cm^3
# Si number density = 24.462341 Si / 1000 Ang^3
#
#
#
# Elastic Constant Matrix: (Units=GPa)
#
#
# Indices 1 2 3 4 5 6 
#
# 1 170.8595 38.4347 30.8217 0.0000 0.0000 0.0000
# 2 38.4347 49.1176 3.2868 0.0000 0.0000 0.0000
# 3 30.8217 3.2868 16.9945 0.0000 0.0000 0.0000
# 4 0.0000 0.0000 0.0000 12.9524 0.0000 0.0000
# 5 0.0000 0.0000 0.0000 0.0000 28.8403 0.0000
# 6 0.0000 0.0000 0.0000 0.0000 0.0000 36.9776
#
#
#
# Elastic Compliance Matrix: (Units=1/GPa)
#
#
# Indices 1 2 3 4 5 6 
#
# 1 0.010729 -0.007186 -0.018068 0.000000 0.000000 0.000000
# 2 -0.007186 0.025440 0.008113 0.000000 0.000000 0.000000
# 3 -0.018068 0.008113 0.090042 0.000000 0.000000 0.000000
# 4 0.000000 0.000000 0.000000 0.077206 0.000000 0.000000
# 5 0.000000 0.000000 0.000000 0.000000 0.034674 0.000000
# 6 0.000000 0.000000 0.000000 0.000000 0.000000 0.027043
#
#
# Mechanical properties :
#
#
# Convention : Reuss Voigt Hill
#
# Bulk Modulus (GPa) = 10.87813 42.45088 26.66451
# Shear Modulus (GPa) = 15.14890 26.71597 20.93244
#
# Velocity S-wave (km/s) = 2.49122 3.30832 2.92841
# Velocity P-wave (km/s) = 3.56812 5.65549 4.72842
#
# Compressibility (1/GPa) = 0.09192754
#
# Stress axis : x y z
#
# Youngs Moduli (GPa) = 93.20934 39.30889 11.10598
#
# Poissons Ratio (x) = 0.28248 0.20066
# Poissons Ratio (y) = 0.66981 -0.09010
# Poissons Ratio (z) = 1.68408 -0.31890
#
# Static dielectric constant tensor:
#      x y z
#    x 1.961510 0.000000 0.000000 
#    y 0.000000 2.044580 0.000000 
#    z 0.000000 0.000000 1.922830 
# 
# From -- ./inp_files/56630.got.cif
#   From: 2010.05.17/outbox.cif.g08.bks.cpg/sg70_29_cif.got.tgz:56630.got - 2010.06.03 15:57:51.
