data_PCOD9514279
_publ_section_title
;
Structure prediction by ZEFSAII (Michael W. Deem and Ramdas Pophale) SiO2 
 PCOD9514279
Probable space group: F D D D
;
_chemical_formula_sum "Si O2"
_cell_formula_units_Z 112
_cell_length_a 25.081057
_cell_length_b 8.767867
_cell_length_c 19.557158
_cell_angle_alpha 90.000000
_cell_angle_beta 90.000000
_cell_angle_gamma 90.000000
_cell_volume 4300.763219
_symmetry_space_group_name_H-M "F D D D"
_symmetry_group_IT_number 70
_space_group.IT_coordinate_system_code '2'
_symmetry_cell_setting 'orthorhombic'
loop_
_space_group_symop_operation_xyz
x,y,z
1/4-x,1/4-y,z
x,1/4-y,1/4-z
1/4-x,y,1/4-z
-x,-y,-z
3/4+x,3/4+y,-z
-x,3/4+y,3/4+z
3/4+x,-y,3/4+z
x,1/2+y,1/2+z
1/4-x,3/4-y,1/2+z
x,3/4-y,3/4-z
1/4-x,1/2+y,3/4-z
-x,1/2-y,1/2-z
3/4+x,1/4+y,1/2-z
-x,1/4+y,1/4+z
3/4+x,1/2-y,1/4+z
1/2+x,y,1/2+z
3/4-x,1/4-y,1/2+z
1/2+x,1/4-y,3/4-z
3/4-x,y,3/4-z
1/2-x,-y,1/2-z
1/4+x,3/4+y,1/2-z
1/2-x,3/4+y,1/4+z
1/4+x,-y,1/4+z
1/2+x,1/2+y,z
3/4-x,3/4-y,z
1/2+x,3/4-y,1/4-z
3/4-x,1/2+y,1/4-z
1/2-x,1/2-y,-z
1/4+x,1/4+y,-z
1/2-x,1/4+y,3/4+z
1/4+x,1/2-y,3/4+z
loop_
_atom_site_type_symbol
_atom_site_label
_atom_site_fract_x
_atom_site_fract_y
_atom_site_fract_z
Si Si1 0.331833 0.635439 0.434854
Si Si2 0.375000 0.375000 0.713846
Si Si3 0.500169 0.125000 0.625000
Si Si4 0.263369 0.375000 0.375000
Si Si5 0.185180 0.634372 0.920630
O O1 0.375000 0.629240 0.375000
O O2 0.364440 0.720522 0.494916
O O3 0.287311 0.760813 0.416133
O O4 0.300807 0.475756 0.425067
O O5 0.326763 0.353978 0.661268
O O6 0.464266 0.222962 0.573373
O O7 0.226485 0.477894 0.324587
O O8 0.125000 0.625000 0.951196
#
# Coordination Sequence:
#
# PCOD9514279 Si02
#       5
#    32  16  16  16  32
#     4  11  20  40  62  87 123 168 207 251 308 379
#     4  10  21  38  68  88 128 160 208 262 303 356
#     4  10  18  34  66  82 114 172 208 226 316 380
#     4  10  22  36  66  90 120 170 206 242 318 370
#     4   9  21  38  64  89 125 159 209 256 301 367
#
# _framework density 26.041889999999999
#
# number of rings (size 3 to 8) (size 9 to 14) (size 15 to 20)
#    0.857    1.143    2.857    1.286    0.000    4.571 
#    0.000    1.429   18.857    0.000    0.000    0.000 
#    0.000    0.000    0.000    0.000    0.000    0.000 
#
# Total GULP energy -156432.943925 kJ/mol
# GULP energy per Si atom -5586.890854 kJ/mol
# Density = 2.598262 g / cm^3
# Si number density = 26.041890 Si / 1000 Ang^3
#
#
#
# Elastic Constant Matrix: (Units=GPa)
#
#
# Indices 1 2 3 4 5 6 
#
# 1 161.9372 78.0332 22.2000 0.0000 0.0000 0.0000
# 2 78.0332 180.9710 25.2132 0.0000 0.0000 0.0000
# 3 22.2000 25.2132 67.8904 0.0000 0.0000 0.0000
# 4 0.0000 0.0000 0.0000 12.4757 0.0000 0.0000
# 5 0.0000 0.0000 0.0000 0.0000 29.1183 0.0000
# 6 0.0000 0.0000 0.0000 0.0000 0.0000 53.2935
#
#
#
# Elastic Compliance Matrix: (Units=1/GPa)
#
#
# Indices 1 2 3 4 5 6 
#
# 1 0.007918 -0.003220 -0.001393 0.000000 0.000000 0.000000
# 2 -0.003220 0.007137 -0.001598 0.000000 0.000000 0.000000
# 3 -0.001393 -0.001598 0.015779 0.000000 0.000000 0.000000
# 4 0.000000 0.000000 0.000000 0.080156 0.000000 0.000000
# 5 0.000000 0.000000 0.000000 0.000000 0.034343 0.000000
# 6 0.000000 0.000000 0.000000 0.000000 0.000000 0.018764
#
#
# Mechanical properties :
#
#
# Convention : Reuss Voigt Hill
#
# Bulk Modulus (GPa) = 54.31378 73.52127 63.91753
# Shear Modulus (GPa) = 27.37407 38.00096 32.68751
#
# Velocity S-wave (km/s) = 3.24567 3.82412 3.54671
# Velocity P-wave (km/s) = 5.91163 6.91316 6.43192
#
# Compressibility (1/GPa) = 0.01841153
#
# Stress axis : x y z
#
# Youngs Moduli (GPa) = 126.29649 140.11960 63.37729
#
# Poissons Ratio (x) = 0.45119 0.08830
# Poissons Ratio (y) = 0.40668 0.10125
# Poissons Ratio (z) = 0.17597 0.22384
#
# Static dielectric constant tensor:
#      x y z
#    x 2.057230 0.000000 0.000000 
#    y 0.000000 2.144170 0.000000 
#    z 0.000000 0.000000 2.304060 
# 
# From -- ./inp_files/54770.got.cif
#   From: 2010.05.17/outbox.cif.g08.bks.cpg/sg70_28_cif.got.tgz:54770.got - 2010.06.03 15:57:51.
