data_PCOD9514019
_publ_section_title
;
Structure prediction by ZEFSAII (Michael W. Deem and Ramdas Pophale) SiO2 
 PCOD9514019
Probable space group: F M M M
;
_chemical_formula_sum "Si O2"
_cell_formula_units_Z 21
_cell_length_a 9.000000
_cell_length_b 21.000000
_cell_length_c 24.000000
_cell_angle_alpha 90.000000
_cell_angle_beta 90.000000
_cell_angle_gamma 90.000000
_cell_volume 4536.000000
_symmetry_space_group_name_H-M "F M M M"
_symmetry_group_IT_number 69
_symmetry_cell_setting 'orthorhombic'
loop_
_space_group_symop_operation_xyz
x,y,z
-x,-y,z
x,-y,-z
-x,y,-z
-x,-y,-z
x,y,-z
-x,y,z
x,-y,z
x,1/2+y,1/2+z
-x,1/2-y,1/2+z
x,1/2-y,1/2-z
-x,1/2+y,1/2-z
-x,1/2-y,1/2-z
x,1/2+y,1/2-z
-x,1/2+y,1/2+z
x,1/2-y,1/2+z
1/2+x,y,1/2+z
1/2-x,-y,1/2+z
1/2+x,-y,1/2-z
1/2-x,y,1/2-z
1/2-x,-y,1/2-z
1/2+x,y,1/2-z
1/2-x,y,1/2+z
1/2+x,-y,1/2+z
1/2+x,1/2+y,z
1/2-x,1/2-y,z
1/2+x,1/2-y,-z
1/2-x,1/2+y,-z
1/2-x,1/2-y,-z
1/2+x,1/2+y,-z
1/2-x,1/2+y,z
1/2+x,1/2-y,z
loop_
_atom_site_type_symbol
_atom_site_label
_atom_site_fract_x
_atom_site_fract_y
_atom_site_fract_z
Si Si1 0.500000 0.500000 0.500000
Si Si2 0.820771 0.680632 0.387527
Si Si3 0.678297 0.572074 0.311184
Si Si4 0.666456 0.866235 0.000000
O O1 0.627644 0.441921 0.500000
O O2 0.750000 0.750000 0.375275
O O3 0.759024 0.627242 0.345250
O O4 0.756826 0.656971 0.446628
O O5 0.000000 0.683808 0.386645
O O6 0.500000 0.582809 0.309277
O O7 0.699420 0.500000 0.334907
O O8 0.750000 0.571798 0.250000
O O9 0.500000 0.835718 0.000000
#
# Coordination Sequence:
#
# PCOD9514019 Si02
#       4
#     4  32  32  16
#     4   8  24  40  70  92 124 164 208 248 316 358
#     4  12  25  41  63  92 126 167 209 255 310 371
#     4  10  22  41  65  92 125 163 206 258 313 367
#     4  10  22  42  64  92 124 161 202 248 306 366
#
# _framework density 4.6296299999999997
#
# number of rings (size 3 to 8) (size 9 to 14) (size 15 to 20)
#    0.571    0.762    0.000    5.714    2.667    3.048 
#    0.000    4.762    0.000    0.000    0.000    0.000 
#    0.000    0.000    0.000    0.000    0.000    0.000 
#
# Total GULP energy -116995.447169 kJ/mol
# GULP energy per Si atom -5571.211770 kJ/mol
# Density = 0.461909 g / cm^3
# Si number density = 4.629630 Si / 1000 Ang^3
#
#
#
# Elastic Constant Matrix: (Units=GPa)
#
#
# Indices 1 2 3 4 5 6 
#
# 1 209.4764 104.2083 57.2056 0.0000 0.0000 0.0000
# 2 104.2083 194.4163 75.4463 0.0000 0.0000 0.0000
# 3 57.2056 75.4463 91.4111 0.0000 0.0000 0.0000
# 4 0.0000 0.0000 0.0000 49.1687 0.0000 0.0000
# 5 0.0000 0.0000 0.0000 0.0000 30.9400 0.0000
# 6 0.0000 0.0000 0.0000 0.0000 0.0000 41.5582
#
#
#
# Elastic Compliance Matrix: (Units=1/GPa)
#
#
# Indices 1 2 3 4 5 6 
#
# 1 0.006707 -0.002893 -0.001810 0.000000 0.000000 0.000000
# 2 -0.002893 0.008815 -0.005465 0.000000 0.000000 0.000000
# 3 -0.001810 -0.005465 0.016583 0.000000 0.000000 0.000000
# 4 0.000000 0.000000 0.000000 0.020338 0.000000 0.000000
# 5 0.000000 0.000000 0.000000 0.000000 0.032321 0.000000
# 6 0.000000 0.000000 0.000000 0.000000 0.000000 0.024063
#
#
# Mechanical properties :
#
#
# Convention : Reuss Voigt Hill
#
# Bulk Modulus (GPa) = 84.96533 107.66936 96.31734
# Shear Modulus (GPa) = 37.57003 41.56296 39.56649
#
# Velocity S-wave (km/s) = 4.50909 4.74265 4.62734
# Velocity P-wave (km/s) = 8.54927 9.39457 8.98187
#
# Compressibility (1/GPa) = 0.01176951
#
# Stress axis : x y z
#
# Youngs Moduli (GPa) = 149.09597 113.44371 60.30325
#
# Poissons Ratio (x) = 0.32816 0.10914
# Poissons Ratio (y) = 0.43129 0.32957
# Poissons Ratio (z) = 0.26984 0.61999
#
# Static dielectric constant tensor:
#      x y z
#    x 1.607680 0.000000 0.000000 
#    y 0.000000 1.634310 0.000000 
#    z 0.000000 0.000000 1.685880 
# 
# From -- ./inp_files/3344.got.cif
#   From: 2010.05.17/outbox.ucp.g08.bks.cvg/sg69_2_cif.got.tgz:3344.got - 2010.06.11 16:51:34.
