data_PCOD9514031
_publ_section_title
;
Structure prediction by ZEFSAII (Michael W. Deem and Ramdas Pophale) SiO2 
 PCOD9514031
Probable space group: F M M M
;
_chemical_formula_sum "Si O2"
_cell_formula_units_Z 36
_cell_length_a 21.000000
_cell_length_b 21.000000
_cell_length_c 18.000000
_cell_angle_alpha 90.000000
_cell_angle_beta 90.000000
_cell_angle_gamma 90.000000
_cell_volume 7938.000000
_symmetry_space_group_name_H-M "F M M M"
_symmetry_group_IT_number 69
_symmetry_cell_setting 'orthorhombic'
loop_
_space_group_symop_operation_xyz
x,y,z
-x,-y,z
x,-y,-z
-x,y,-z
-x,-y,-z
x,y,-z
-x,y,z
x,-y,z
x,1/2+y,1/2+z
-x,1/2-y,1/2+z
x,1/2-y,1/2-z
-x,1/2+y,1/2-z
-x,1/2-y,1/2-z
x,1/2+y,1/2-z
-x,1/2+y,1/2+z
x,1/2-y,1/2+z
1/2+x,y,1/2+z
1/2-x,-y,1/2+z
1/2+x,-y,1/2-z
1/2-x,y,1/2-z
1/2-x,-y,1/2-z
1/2+x,y,1/2-z
1/2-x,y,1/2+z
1/2+x,-y,1/2+z
1/2+x,1/2+y,z
1/2-x,1/2-y,z
1/2+x,1/2-y,-z
1/2-x,1/2+y,-z
1/2-x,1/2-y,-z
1/2+x,1/2+y,-z
1/2-x,1/2+y,z
1/2+x,1/2-y,z
loop_
_atom_site_type_symbol
_atom_site_label
_atom_site_fract_x
_atom_site_fract_y
_atom_site_fract_z
Si Si1 0.191135 0.000000 0.191615
Si Si2 0.721294 0.856739 0.353090
Si Si3 0.375657 0.137682 0.850649
Si Si4 0.652710 0.250000 0.750000
Si Si5 0.685794 0.292378 0.000000
Si Si6 0.073511 0.192165 0.500000
Si Si7 0.923333 0.500000 0.790778
O O1 0.250000 0.000000 0.250000
O O2 0.200707 0.070701 0.159512
O O3 0.117566 0.000000 0.215884
O O4 0.798331 0.858715 0.356290
O O5 0.694782 0.800841 0.298253
O O6 0.690937 0.835492 0.429089
O O7 0.388426 0.199801 0.798693
O O8 0.409228 0.151334 0.928014
O O9 0.398391 0.067214 0.826084
O O10 0.750000 0.250000 0.000000
O O11 0.623199 0.250047 0.000000
O O12 0.000000 0.211280 0.500000
O O13 0.000000 0.500000 0.787032
#
# Coordination Sequence:
#
# PCOD9514031 Si02
#       7
#    16  32  32  16  16  16  16
#     4  12  22  41  65  95 134 174 220 279 331 387
#     4  12  21  38  68 101 131 166 227 282 332 385
#     4  12  22  41  65  96 131 176 219 272 333 391
#     4  12  21  34  71 106 127 160 223 290 331 384
#     4  12  22  41  65  95 134 174 220 279 331 387
#     4  12  26  43  62  95 140 178 215 266 333 405
#     4  12  26  43  62  95 140 178 215 266 333 405
#
# _framework density 4.5351470000000003
#
# number of rings (size 3 to 8) (size 9 to 14) (size 15 to 20)
#    0.000    0.000    8.889    2.667    0.000    0.889 
#    0.000    8.889    0.000    0.000    0.000    1.556 
#    0.000    0.000    0.000    0.000    0.000    0.000 
#
# Total GULP energy -200476.515652 kJ/mol
# GULP energy per Si atom -5568.792101 kJ/mol
# Density = 0.452483 g / cm^3
# Si number density = 4.535147 Si / 1000 Ang^3
#
#
#
# Elastic Constant Matrix: (Units=GPa)
#
#
# Indices 1 2 3 4 5 6 
#
# 1 113.6917 42.4587 25.7127 0.0000 0.0000 0.0000
# 2 42.4587 188.9307 59.3900 0.0000 0.0000 0.0000
# 3 25.7127 59.3900 89.4243 0.0000 0.0000 0.0000
# 4 0.0000 0.0000 0.0000 23.7526 0.0000 0.0000
# 5 0.0000 0.0000 0.0000 0.0000 6.8990 0.0000
# 6 0.0000 0.0000 0.0000 0.0000 0.0000 22.2452
#
#
#
# Elastic Compliance Matrix: (Units=1/GPa)
#
#
# Indices 1 2 3 4 5 6 
#
# 1 0.009805 -0.001665 -0.001714 0.000000 0.000000 0.000000
# 2 -0.001665 0.006972 -0.004152 0.000000 0.000000 0.000000
# 3 -0.001714 -0.004152 0.014433 0.000000 0.000000 0.000000
# 4 0.000000 0.000000 0.000000 0.042101 0.000000 0.000000
# 5 0.000000 0.000000 0.000000 0.000000 0.144949 0.000000
# 6 0.000000 0.000000 0.000000 0.000000 0.000000 0.044953
#
#
# Mechanical properties :
#
#
# Convention : Reuss Voigt Hill
#
# Bulk Modulus (GPa) = 61.92158 71.90770 66.91464
# Shear Modulus (GPa) = 17.62692 28.21171 22.91932
#
# Velocity S-wave (km/s) = 3.12057 3.94784 3.55833
# Velocity P-wave (km/s) = 6.86966 7.77855 7.33819
#
# Compressibility (1/GPa) = 0.01614946
#
# Stress axis : x y z
#
# Youngs Moduli (GPa) = 101.98868 143.42689 69.28701
#
# Poissons Ratio (x) = 0.23878 0.11873
# Poissons Ratio (y) = 0.16979 0.28767
# Poissons Ratio (z) = 0.17477 0.59548
#
# Static dielectric constant tensor:
#      x y z
#    x 1.610360 0.000000 0.000000 
#    y 0.000000 1.574920 0.000000 
#    z 0.000000 0.000000 1.654760 
# 
# From -- ./inp_files/24535.got.cif
#   From: 2010.05.17/outbox.ucp.g08.bks.cvg/sg69_13_cif.got.tgz:24535.got - 2010.06.11 16:51:34.
