data_PCOD9514820
_publ_section_title
;
Structure prediction by ZEFSAII (Michael W. Deem and Ramdas Pophale) SiO2 
 PCOD9514820
Probable space group: F D D D
;
_chemical_formula_sum "Si O2"
_cell_formula_units_Z 160
_cell_length_a 29.120898
_cell_length_b 22.358633
_cell_length_c 12.709123
_cell_angle_alpha 90.000000
_cell_angle_beta 90.000000
_cell_angle_gamma 90.000000
_cell_volume 8274.954099
_symmetry_space_group_name_H-M "F D D D"
_symmetry_group_IT_number 70
_space_group.IT_coordinate_system_code '2'
_symmetry_cell_setting 'orthorhombic'
loop_
_space_group_symop_operation_xyz
x,y,z
1/4-x,1/4-y,z
x,1/4-y,1/4-z
1/4-x,y,1/4-z
-x,-y,-z
3/4+x,3/4+y,-z
-x,3/4+y,3/4+z
3/4+x,-y,3/4+z
x,1/2+y,1/2+z
1/4-x,3/4-y,1/2+z
x,3/4-y,3/4-z
1/4-x,1/2+y,3/4-z
-x,1/2-y,1/2-z
3/4+x,1/4+y,1/2-z
-x,1/4+y,1/4+z
3/4+x,1/2-y,1/4+z
1/2+x,y,1/2+z
3/4-x,1/4-y,1/2+z
1/2+x,1/4-y,3/4-z
3/4-x,y,3/4-z
1/2-x,-y,1/2-z
1/4+x,3/4+y,1/2-z
1/2-x,3/4+y,1/4+z
1/4+x,-y,1/4+z
1/2+x,1/2+y,z
3/4-x,3/4-y,z
1/2+x,3/4-y,1/4-z
3/4-x,1/2+y,1/4-z
1/2-x,1/2-y,-z
1/4+x,1/4+y,-z
1/2-x,1/4+y,3/4+z
1/4+x,1/2-y,3/4+z
loop_
_atom_site_type_symbol
_atom_site_label
_atom_site_fract_x
_atom_site_fract_y
_atom_site_fract_z
Si Si1 0.175324 0.316953 0.090158
Si Si2 0.755561 0.386078 0.499475
Si Si3 0.794920 0.875000 0.375000
Si Si4 0.503114 0.981467 0.759684
Si Si5 0.428515 0.783507 0.161807
Si Si6 0.375000 0.875000 0.704690
O O1 0.125000 0.335240 0.125000
O O2 0.205879 0.294950 0.188718
O O3 0.204733 0.368953 0.036957
O O4 0.171373 0.263482 0.004714
O O5 0.758646 0.375000 0.375000
O O6 0.767261 0.451875 0.541192
O O7 0.790105 0.337554 0.546487
O O8 0.764012 0.932664 0.405583
O O9 0.829964 0.866053 0.472627
O O10 0.459523 0.993376 0.681780
O O11 0.384171 0.816086 0.114714
#
# Coordination Sequence:
#
# PCOD9514820 Si02
#       6
#    32  32  16  32  32  16
#     4  11  23  38  56  93 123 152 207 263 305 367
#     4  11  19  38  62  86 116 165 195 242 326 368
#     4   9  20  42  62  84 126 166 200 244 300 381
#     4  10  20  41  62  81 121 163 202 243 308 378
#     4  10  20  35  61  86 116 152 204 251 300 361
#     4   9  20  36  59  94 112 150 211 252 294 351
#
# _framework density 19.335456000000001
#
# number of rings (size 3 to 8) (size 9 to 14) (size 15 to 20)
#    0.000    1.800    4.000    1.200    2.800    0.000 
#    9.000    9.000    0.000    0.000    0.000    0.000 
#    0.000    0.000    0.000    0.000    0.000    0.000 
#
# Total GULP energy -223190.014846 kJ/mol
# GULP energy per Si atom -5579.750371 kJ/mol
# Density = 1.929145 g / cm^3
# Si number density = 19.335456 Si / 1000 Ang^3
#
#
#
# Elastic Constant Matrix: (Units=GPa)
#
#
# Indices 1 2 3 4 5 6 
#
# 1 57.2984 2.3780 20.6359 0.0000 0.0000 0.0000
# 2 2.3780 73.9345 30.5781 0.0000 0.0000 0.0000
# 3 20.6359 30.5781 60.0691 0.0000 0.0000 0.0000
# 4 0.0000 0.0000 0.0000 31.7321 0.0000 0.0000
# 5 0.0000 0.0000 0.0000 0.0000 -2.0733 0.0000
# 6 0.0000 0.0000 0.0000 0.0000 0.0000 10.8098
#
#
#
# Elastic Compliance Matrix: (Units=1/GPa)
#
#
# Indices 1 2 3 4 5 6 
#
# 1 0.020376 0.002837 -0.008444 0.000000 0.000000 0.000000
# 2 0.002837 0.017527 -0.009897 0.000000 0.000000 0.000000
# 3 -0.008444 -0.009897 0.024586 0.000000 0.000000 0.000000
# 4 0.000000 0.000000 0.000000 0.031514 0.000000 0.000000
# 5 0.000000 0.000000 0.000000 0.000000 -0.482314 0.000000
# 6 0.000000 0.000000 0.000000 0.000000 0.000000 0.092508
#
#
# Mechanical properties :
#
#
# Convention : Reuss Voigt Hill
#
# Bulk Modulus (GPa) = 31.76449 33.16510 32.46480
# Shear Modulus (GPa) = -19.66182 17.27439 -1.19371
#
# Velocity S-wave (km/s) = -3.19231 2.99223 -0.78658
# Velocity P-wave (km/s) = 1.69586 5.39700 4.00022
#
# Compressibility (1/GPa) = 0.03148169
#
# Stress axis : x y z
#
# Youngs Moduli (GPa) = 49.07778 57.05334 40.67300
#
# Poissons Ratio (x) = -0.16186 0.34344
# Poissons Ratio (y) = -0.13923 0.40254
# Poissons Ratio (z) = 0.41441 0.56465
#
# Static dielectric constant tensor:
#      x y z
#    x 1.676880 0.000000 0.000000 
#    y 0.000000 1.675370 0.000000 
#    z 0.000000 0.000000 1.726780 
# 
# From -- ./inp_files/22204.got.cif
#   From: 2010.05.17/outbox.cif.g08.bks.cpg/sg70_12_cif.got.tgz:22204.got - 2010.06.03 15:57:51.
