data_PCOD9514155
_publ_section_title
;
Structure prediction by ZEFSAII (Michael W. Deem and Ramdas Pophale) SiO2 
 PCOD9514155
Probable space group: F D D D
;
_chemical_formula_sum "Si O2"
_cell_formula_units_Z 160
_cell_length_a 24.836747
_cell_length_b 12.775285
_cell_length_c 22.384132
_cell_angle_alpha 90.000000
_cell_angle_beta 90.000000
_cell_angle_gamma 90.000000
_cell_volume 7102.407218
_symmetry_space_group_name_H-M "F D D D"
_symmetry_group_IT_number 70
_space_group.IT_coordinate_system_code '2'
_symmetry_cell_setting 'orthorhombic'
loop_
_space_group_symop_operation_xyz
x,y,z
1/4-x,1/4-y,z
x,1/4-y,1/4-z
1/4-x,y,1/4-z
-x,-y,-z
3/4+x,3/4+y,-z
-x,3/4+y,3/4+z
3/4+x,-y,3/4+z
x,1/2+y,1/2+z
1/4-x,3/4-y,1/2+z
x,3/4-y,3/4-z
1/4-x,1/2+y,3/4-z
-x,1/2-y,1/2-z
3/4+x,1/4+y,1/2-z
-x,1/4+y,1/4+z
3/4+x,1/2-y,1/4+z
1/2+x,y,1/2+z
3/4-x,1/4-y,1/2+z
1/2+x,1/4-y,3/4-z
3/4-x,y,3/4-z
1/2-x,-y,1/2-z
1/4+x,3/4+y,1/2-z
1/2-x,3/4+y,1/4+z
1/4+x,-y,1/4+z
1/2+x,1/2+y,z
3/4-x,3/4-y,z
1/2+x,3/4-y,1/4-z
3/4-x,1/2+y,1/4-z
1/2-x,1/2-y,-z
1/4+x,1/4+y,-z
1/2-x,1/4+y,3/4+z
1/4+x,1/2-y,3/4+z
loop_
_atom_site_type_symbol
_atom_site_label
_atom_site_fract_x
_atom_site_fract_y
_atom_site_fract_z
Si Si1 0.740000 0.875000 0.875000
Si Si2 0.174955 0.321895 0.504158
Si Si3 0.375000 0.375000 0.526434
Si Si4 0.592438 0.023687 0.684213
Si Si5 0.246796 0.766683 0.896655
Si Si6 0.066169 0.087901 0.893677
O O1 0.782228 0.811970 0.832458
O O2 0.704791 0.780441 0.904648
O O3 0.133620 0.227902 0.511116
O O4 0.154724 0.435917 0.516720
O O5 0.197370 0.310723 0.437135
O O6 0.218271 0.296662 0.555345
O O7 0.423216 0.345328 0.571717
O O8 0.625000 0.125000 0.702460
O O9 0.625000 0.985253 0.625000
O O10 0.273514 0.875000 0.875000
O O11 0.226555 0.682641 0.847545
O O12 0.125000 0.125000 0.916599
#
# Coordination Sequence:
#
# PCOD9514155 Si02
#       6
#    16  32  16  32  32  32
#     4  10  17  36  60  80 118 154 187 242 290 352
#     4  10  19  39  59  82 125 149 195 254 297 355
#     4   8  20  34  53  88 112 152 188 246 297 354
#     4   9  20  36  62  87 114 158 199 240 300 357
#     4  10  21  36  59  86 112 155 196 240 302 358
#     4   9  19  33  55  84 110 152 191 230 298 351
#
# _framework density 22.527574000000001
#
# number of rings (size 3 to 8) (size 9 to 14) (size 15 to 20)
#    0.600    2.200    2.000    0.000    1.400    1.600 
#    0.000    3.000    0.000    3.600    0.000    0.000 
#    0.000    0.000    0.000    0.000    0.000    0.000 
#
# Total GULP energy -222704.867180 kJ/mol
# GULP energy per Si atom -5567.621680 kJ/mol
# Density = 2.247630 g / cm^3
# Si number density = 22.527574 Si / 1000 Ang^3
#
#
#
# Elastic Constant Matrix: (Units=GPa)
#
#
# Indices 1 2 3 4 5 6 
#
# 1 51.5496 1.8672 -2.9954 0.0000 0.0000 0.0000
# 2 1.8672 67.7356 -0.1357 0.0000 0.0000 0.0000
# 3 -2.9954 -0.1357 28.4087 0.0000 0.0000 0.0000
# 4 0.0000 0.0000 0.0000 2.7257 0.0000 0.0000
# 5 0.0000 0.0000 0.0000 0.0000 -6.7662 0.0000
# 6 0.0000 0.0000 0.0000 0.0000 0.0000 22.2363
#
#
#
# Elastic Compliance Matrix: (Units=1/GPa)
#
#
# Indices 1 2 3 4 5 6 
#
# 1 0.019538 -0.000534 0.002058 0.000000 0.000000 0.000000
# 2 -0.000534 0.014778 0.000014 0.000000 0.000000 0.000000
# 3 0.002058 0.000014 0.035418 0.000000 0.000000 0.000000
# 4 0.000000 0.000000 0.000000 0.366876 0.000000 0.000000
# 5 0.000000 0.000000 0.000000 0.000000 -0.147794 0.000000
# 6 0.000000 0.000000 0.000000 0.000000 0.000000 0.044972
#
#
# Mechanical properties :
#
#
# Convention : Reuss Voigt Hill
#
# Bulk Modulus (GPa) = 13.73478 16.12957 14.93217
# Shear Modulus (GPa) = 14.08525 13.56968 13.82747
#
# Velocity S-wave (km/s) = 2.50320 2.45696 2.48019
# Velocity P-wave (km/s) = 3.80326 3.90184 3.85287
#
# Compressibility (1/GPa) = 0.07280788
#
# Stress axis : x y z
#
# Youngs Moduli (GPa) = 51.18306 67.66795 28.23461
#
# Poissons Ratio (x) = 0.03617 -0.05809
# Poissons Ratio (y) = 0.02736 -0.00040
# Poissons Ratio (z) = -0.10531 -0.00096
#
# Static dielectric constant tensor:
#      x y z
#    x 1.938360 0.000000 0.000000 
#    y 0.000000 1.879680 0.000000 
#    z 0.000000 0.000000 1.893940 
# 
# From -- ./inp_files/68321.got.cif
#   From: 2010.05.17/outbox.cif.g08.bks.cpg/sg70_35_cif.got.tgz:68321.got - 2010.06.03 15:57:51.
