data_PCOD9514150
_publ_section_title
;
Structure prediction by ZEFSAII (Michael W. Deem and Ramdas Pophale) SiO2 
 PCOD9514150
Probable space group: F D D D
;
_chemical_formula_sum "Si O2"
_cell_formula_units_Z 240
_cell_length_a 26.020386
_cell_length_b 22.712377
_cell_length_c 18.226394
_cell_angle_alpha 90.000000
_cell_angle_beta 90.000000
_cell_angle_gamma 90.000000
_cell_volume 10771.522114
_symmetry_space_group_name_H-M "F D D D"
_symmetry_group_IT_number 70
_space_group.IT_coordinate_system_code '2'
_symmetry_cell_setting 'orthorhombic'
loop_
_space_group_symop_operation_xyz
x,y,z
1/4-x,1/4-y,z
x,1/4-y,1/4-z
1/4-x,y,1/4-z
-x,-y,-z
3/4+x,3/4+y,-z
-x,3/4+y,3/4+z
3/4+x,-y,3/4+z
x,1/2+y,1/2+z
1/4-x,3/4-y,1/2+z
x,3/4-y,3/4-z
1/4-x,1/2+y,3/4-z
-x,1/2-y,1/2-z
3/4+x,1/4+y,1/2-z
-x,1/4+y,1/4+z
3/4+x,1/2-y,1/4+z
1/2+x,y,1/2+z
3/4-x,1/4-y,1/2+z
1/2+x,1/4-y,3/4-z
3/4-x,y,3/4-z
1/2-x,-y,1/2-z
1/4+x,3/4+y,1/2-z
1/2-x,3/4+y,1/4+z
1/4+x,-y,1/4+z
1/2+x,1/2+y,z
3/4-x,3/4-y,z
1/2+x,3/4-y,1/4-z
3/4-x,1/2+y,1/4-z
1/2-x,1/2-y,-z
1/4+x,1/4+y,-z
1/2-x,1/4+y,3/4+z
1/4+x,1/2-y,3/4+z
loop_
_atom_site_type_symbol
_atom_site_label
_atom_site_fract_x
_atom_site_fract_y
_atom_site_fract_z
Si Si1 0.804619 0.655809 0.740313
Si Si2 0.441469 0.231742 0.240061
Si Si3 0.564415 0.232046 0.414611
Si Si4 0.160397 0.676856 0.457082
Si Si5 0.265186 0.405486 0.971248
Si Si6 0.257940 0.524766 0.879393
Si Si7 0.625000 0.300343 0.125000
Si Si8 0.827898 0.598467 0.283457
O O1 0.803273 0.587619 0.724015
O O2 0.792982 0.702797 0.677676
O O3 0.768697 0.678143 0.806148
O O4 0.864438 0.663162 0.760851
O O5 0.500000 0.250000 0.250000
O O6 0.421044 0.268557 0.170406
O O7 0.404468 0.235208 0.311250
O O8 0.614047 0.222170 0.466720
O O9 0.524152 0.185924 0.448414
O O10 0.125000 0.625000 0.420147
O O11 0.189136 0.643490 0.524517
O O12 0.204128 0.708563 0.409084
O O13 0.211455 0.371112 0.971614
O O14 0.263928 0.459577 0.914132
O O15 0.301661 0.541970 0.820616
O O16 0.584499 0.345610 0.088111
#
# Coordination Sequence:
#
# PCOD9514150 Si02
#       8
#    32  32  32  32  32  32  16  32
#     4  10  21  36  59  87 119 158 210 256 315 385
#     4  11  22  36  61  90 127 163 213 261 317 385
#     4  10  21  38  58  86 119 164 201 259 320 379
#     4   9  20  35  57  84 119 156 212 249 315 392
#     4   9  20  34  57  85 116 157 212 255 312 386
#     4  10  18  34  58  86 114 158 205 261 313 367
#     4  10  20  34  58  86 117 161 212 258 304 388
#     4  10  17  35  58  85 117 158 207 257 307 387
#
# _framework density 22.280972999999999
#
# number of rings (size 3 to 8) (size 9 to 14) (size 15 to 20)
#    0.000    2.133    2.667    1.200    7.467    0.000 
#    0.000    2.667    0.000    4.000    0.000    8.400 
#    0.000    0.000    0.000    0.000    0.000    0.000 
#
# Total GULP energy -334268.651596 kJ/mol
# GULP energy per Si atom -5571.144193 kJ/mol
# Density = 2.223026 g / cm^3
# Si number density = 22.280973 Si / 1000 Ang^3
#
#
#
# Elastic Constant Matrix: (Units=GPa)
#
#
# Indices 1 2 3 4 5 6 
#
# 1 93.8821 20.2411 7.2640 0.0000 0.0000 0.0000
# 2 20.2411 80.6040 41.0677 0.0000 0.0000 0.0000
# 3 7.2640 41.0677 57.7090 0.0000 0.0000 0.0000
# 4 0.0000 0.0000 0.0000 25.3519 0.0000 0.0000
# 5 0.0000 0.0000 0.0000 0.0000 7.4155 0.0000
# 6 0.0000 0.0000 0.0000 0.0000 0.0000 15.8080
#
#
#
# Elastic Compliance Matrix: (Units=1/GPa)
#
#
# Indices 1 2 3 4 5 6 
#
# 1 0.011293 -0.003313 0.000936 0.000000 0.000000 0.000000
# 2 -0.003313 0.020435 -0.014125 0.000000 0.000000 0.000000
# 3 0.000936 -0.014125 0.027263 0.000000 0.000000 0.000000
# 4 0.000000 0.000000 0.000000 0.039445 0.000000 0.000000
# 5 0.000000 0.000000 0.000000 0.000000 0.134852 0.000000
# 6 0.000000 0.000000 0.000000 0.000000 0.000000 0.063259
#
#
# Mechanical properties :
#
#
# Convention : Reuss Voigt Hill
#
# Bulk Modulus (GPa) = 38.48113 41.03786 39.75950
# Shear Modulus (GPa) = 14.78357 20.62325 17.70341
#
# Velocity S-wave (km/s) = 2.57866 3.04567 2.82184
# Velocity P-wave (km/s) = 5.11608 5.55216 5.33857
#
# Compressibility (1/GPa) = 0.02598676
#
# Stress axis : x y z
#
# Youngs Moduli (GPa) = 88.54653 48.93540 36.68039
#
# Poissons Ratio (x) = 0.16212 -0.03433
# Poissons Ratio (y) = 0.29335 0.51812
# Poissons Ratio (z) = -0.08288 0.69123
#
# Static dielectric constant tensor:
#      x y z
#    x 1.820510 0.000000 0.000000 
#    y 0.000000 1.932420 0.000000 
#    z 0.000000 0.000000 1.897040 
# 
# From -- ./inp_files/47121.got.cif
#   From: 2010.05.17/outbox.cif.g08.bks.cpg/sg70_24_cif.got.tgz:47121.got - 2010.06.03 15:57:51.
