data_PCOD9514101
_publ_section_title
;
Structure prediction by ZEFSAII (Michael W. Deem and Ramdas Pophale) SiO2 
 PCOD9514101
Probable space group: F D D D
;
_chemical_formula_sum "Si O2"
_cell_formula_units_Z 216
_cell_length_a 19.341411
_cell_length_b 18.022007
_cell_length_c 23.898256
_cell_angle_alpha 90.000000
_cell_angle_beta 90.000000
_cell_angle_gamma 90.000000
_cell_volume 8330.240054
_symmetry_space_group_name_H-M "F D D D"
_symmetry_group_IT_number 70
_space_group.IT_coordinate_system_code '2'
_symmetry_cell_setting 'orthorhombic'
loop_
_space_group_symop_operation_xyz
x,y,z
1/4-x,1/4-y,z
x,1/4-y,1/4-z
1/4-x,y,1/4-z
-x,-y,-z
3/4+x,3/4+y,-z
-x,3/4+y,3/4+z
3/4+x,-y,3/4+z
x,1/2+y,1/2+z
1/4-x,3/4-y,1/2+z
x,3/4-y,3/4-z
1/4-x,1/2+y,3/4-z
-x,1/2-y,1/2-z
3/4+x,1/4+y,1/2-z
-x,1/4+y,1/4+z
3/4+x,1/2-y,1/4+z
1/2+x,y,1/2+z
3/4-x,1/4-y,1/2+z
1/2+x,1/4-y,3/4-z
3/4-x,y,3/4-z
1/2-x,-y,1/2-z
1/4+x,3/4+y,1/2-z
1/2-x,3/4+y,1/4+z
1/4+x,-y,1/4+z
1/2+x,1/2+y,z
3/4-x,3/4-y,z
1/2+x,3/4-y,1/4-z
3/4-x,1/2+y,1/4-z
1/2-x,1/2-y,-z
1/4+x,1/4+y,-z
1/2-x,1/4+y,3/4+z
1/4+x,1/2-y,3/4+z
loop_
_atom_site_type_symbol
_atom_site_label
_atom_site_fract_x
_atom_site_fract_y
_atom_site_fract_z
Si Si1 0.659589 0.203180 0.450729
Si Si2 0.892973 0.125000 0.125000
Si Si3 0.949900 0.011475 0.376020
Si Si4 0.730853 0.979977 0.490911
Si Si5 0.847831 0.276267 0.087672
Si Si6 0.760256 0.890631 0.790559
Si Si7 0.625000 0.125000 0.625000
Si Si8 0.206260 0.572821 0.235029
O O1 0.625000 0.125000 0.467979
O O2 0.599852 0.258996 0.473821
O O3 0.654549 0.201733 0.383430
O O4 0.731596 0.184345 0.482073
O O5 0.847935 0.187246 0.094795
O O6 0.943845 0.090566 0.078030
O O7 0.875000 0.050405 0.375000
O O8 0.971470 0.992237 0.313457
O O9 0.940330 0.942468 0.419745
O O10 0.021049 0.052244 0.394514
O O11 0.743403 0.050906 0.531784
O O12 0.749939 0.894779 0.502748
O O13 0.859127 0.304408 0.025384
O O14 0.823062 0.914422 0.831709
O O15 0.250000 0.500000 0.250000
#
# Coordination Sequence:
#
# PCOD9514101 Si02
#       8
#    32  16  32  32  32  32   8  32
#     4   9  19  40  69  99 138 187 233 302 367 432
#     4  11  26  41  67 104 145 196 248 298 375 448
#     4  10  23  42  67  95 131 188 239 293 372 432
#     4  10  20  39  69 105 138 187 238 295 369 446
#     4  10  24  43  66  96 145 187 243 303 360 438
#     4  10  21  41  72 108 141 190 245 298 371 448
#     4  10  16  40  72 104 142 184 230 298 372 436
#     4  10  23  40  66 100 140 182 235 297 367 440
#
# _framework density 25.929625000000001
#
# number of rings (size 3 to 8) (size 9 to 14) (size 15 to 20)
#    0.000    2.074    2.222    0.444   10.370    2.963 
#    0.000    0.000    6.519    0.000    0.000    0.000 
#    0.000    0.000    0.000    0.000    0.000    0.000 
#
# Total GULP energy -300850.379156 kJ/mol
# GULP energy per Si atom -5571.303318 kJ/mol
# Density = 2.587061 g / cm^3
# Si number density = 25.929625 Si / 1000 Ang^3
#
#
#
# Elastic Constant Matrix: (Units=GPa)
#
#
# Indices 1 2 3 4 5 6 
#
# 1 121.2506 48.1460 39.1871 0.0000 0.0000 0.0000
# 2 48.1460 124.8632 30.7448 0.0000 0.0000 0.0000
# 3 39.1871 30.7448 154.3385 0.0000 0.0000 0.0000
# 4 0.0000 0.0000 0.0000 17.7743 0.0000 0.0000
# 5 0.0000 0.0000 0.0000 0.0000 39.4372 0.0000
# 6 0.0000 0.0000 0.0000 0.0000 0.0000 30.2608
#
#
#
# Elastic Compliance Matrix: (Units=1/GPa)
#
#
# Indices 1 2 3 4 5 6 
#
# 1 0.010246 -0.003481 -0.001908 0.000000 0.000000 0.000000
# 2 -0.003481 0.009604 -0.001029 0.000000 0.000000 0.000000
# 3 -0.001908 -0.001029 0.007169 0.000000 0.000000 0.000000
# 4 0.000000 0.000000 0.000000 0.056261 0.000000 0.000000
# 5 0.000000 0.000000 0.000000 0.000000 0.025357 0.000000
# 6 0.000000 0.000000 0.000000 0.000000 0.000000 0.033046
#
#
# Mechanical properties :
#
#
# Convention : Reuss Voigt Hill
#
# Bulk Modulus (GPa) = 70.50965 70.73421 70.62193
# Shear Modulus (GPa) = 31.39753 36.31942 33.85848
#
# Velocity S-wave (km/s) = 3.48354 3.74664 3.61748
# Velocity P-wave (km/s) = 6.59028 6.78638 6.68905
#
# Compressibility (1/GPa) = 0.01418246
#
# Stress axis : x y z
#
# Youngs Moduli (GPa) = 97.59597 104.11796 139.49319
#
# Poissons Ratio (x) = 0.36244 0.26617
# Poissons Ratio (y) = 0.33974 0.14359
# Poissons Ratio (z) = 0.18623 0.10718
#
# Static dielectric constant tensor:
#      x y z
#    x 2.175130 0.000000 0.000000 
#    y 0.000000 2.452800 0.000000 
#    z 0.000000 0.000000 2.174590 
# 
# From -- ./inp_files/60599.got.cif
#   From: 2010.05.17/outbox.cif.g08.bks.cpg/sg70_31_cif.got.tgz:60599.got - 2010.06.03 15:57:51.
