data_PCOD9514189
_publ_section_title
;
Structure prediction by ZEFSAII (Michael W. Deem and Ramdas Pophale) SiO2 
 PCOD9514189
Probable space group: F D D D
;
_chemical_formula_sum "Si O2"
_cell_formula_units_Z 128
_cell_length_a 22.857740
_cell_length_b 28.576167
_cell_length_c 7.590926
_cell_angle_alpha 90.000000
_cell_angle_beta 90.000000
_cell_angle_gamma 90.000000
_cell_volume 4958.291111
_symmetry_space_group_name_H-M "F D D D"
_symmetry_group_IT_number 70
_space_group.IT_coordinate_system_code '2'
_symmetry_cell_setting 'orthorhombic'
loop_
_space_group_symop_operation_xyz
x,y,z
1/4-x,1/4-y,z
x,1/4-y,1/4-z
1/4-x,y,1/4-z
-x,-y,-z
3/4+x,3/4+y,-z
-x,3/4+y,3/4+z
3/4+x,-y,3/4+z
x,1/2+y,1/2+z
1/4-x,3/4-y,1/2+z
x,3/4-y,3/4-z
1/4-x,1/2+y,3/4-z
-x,1/2-y,1/2-z
3/4+x,1/4+y,1/2-z
-x,1/4+y,1/4+z
3/4+x,1/2-y,1/4+z
1/2+x,y,1/2+z
3/4-x,1/4-y,1/2+z
1/2+x,1/4-y,3/4-z
3/4-x,y,3/4-z
1/2-x,-y,1/2-z
1/4+x,3/4+y,1/2-z
1/2-x,3/4+y,1/4+z
1/4+x,-y,1/4+z
1/2+x,1/2+y,z
3/4-x,3/4-y,z
1/2+x,3/4-y,1/4-z
3/4-x,1/2+y,1/4-z
1/2-x,1/2-y,-z
1/4+x,1/4+y,-z
1/2-x,1/4+y,3/4+z
1/4+x,1/2-y,3/4+z
loop_
_atom_site_type_symbol
_atom_site_label
_atom_site_fract_x
_atom_site_fract_y
_atom_site_fract_z
Si Si1 0.160346 0.321719 0.900113
Si Si2 0.041208 0.798762 0.458995
Si Si3 0.060519 0.648012 0.885508
Si Si4 0.524442 0.196001 0.521221
O O1 0.177748 0.375000 0.875000
O O2 0.206653 0.290653 0.797091
O O3 0.093226 0.319286 0.841471
O O4 0.181114 0.309360 0.098045
O O5 0.048129 0.743120 0.437535
O O6 0.977070 0.822208 0.472195
O O7 0.125000 0.625000 0.918199
O O8 0.056415 0.680202 0.705724
O O9 0.026460 0.600314 0.843546
#
# Coordination Sequence:
#
# PCOD9514189 Si02
#       4
#    32  32  32  32
#     4  10  18  33  50  74 106 135 174 215 253 319
#     4  10  21  30  52  78 103 142 170 212 275 303
#     4  10  19  30  47  77 112 133 158 218 271 316
#     4  10  18  31  48  80 105 129 173 215 274 310
#
# _framework density 25.815346000000002
#
# number of rings (size 3 to 8) (size 9 to 14) (size 15 to 20)
#    0.000    2.000    5.000    4.500   10.500    0.000 
#    0.000    0.000    0.000    2.250    6.500    0.000 
#    0.000    0.000    0.000    0.000    0.000    0.000 
#
# Total GULP energy -178257.266132 kJ/mol
# GULP energy per Si atom -5570.539567 kJ/mol
# Density = 2.575659 g / cm^3
# Si number density = 25.815346 Si / 1000 Ang^3
#
#
#
# Elastic Constant Matrix: (Units=GPa)
#
#
# Indices 1 2 3 4 5 6 
#
# 1 188.0645 21.8777 6.8240 -0.3690 0.0273 0.0040
# 2 21.8777 133.3488 -2.4759 -0.0543 -0.0103 -0.0015
# 3 6.8240 -2.4759 56.6148 -0.5928 0.0471 0.0169
# 4 -0.3690 -0.0543 -0.5928 416.4894 0.9373 0.2935
# 5 0.0273 -0.0103 0.0471 0.9373 -0.3909 -0.0228
# 6 0.0040 -0.0015 0.0169 0.2935 -0.0228 29.3898
#
#
#
# Elastic Compliance Matrix: (Units=1/GPa)
#
#
# Indices 1 2 3 4 5 6 
#
# 1 0.005448 -0.000907 -0.000697 0.000003 0.000328 0.000000
# 2 -0.000907 0.007656 0.000444 0.000001 -0.000209 0.000000
# 3 -0.000697 0.000444 0.017765 0.000020 0.002128 -0.000009
# 4 0.000003 0.000001 0.000020 0.002388 0.005730 -0.000019
# 5 0.000328 -0.000209 0.002128 0.005730 -2.544103 -0.002031
# 6 0.000000 0.000000 -0.000009 -0.000019 -0.002031 0.034024
#
#
# Mechanical properties :
#
#
# Convention : Reuss Voigt Hill
#
# Bulk Modulus (GPa) = 35.02477 47.83108 41.42792
# Shear Modulus (GPa) = -2.02841 112.55114 55.26136
#
# Velocity S-wave (km/s) = -0.88738 6.61008 4.63172
# Velocity P-wave (km/s) = 3.54217 8.76504 6.68479
#
# Compressibility (1/GPa) = 0.02855122
#
# Stress axis : x y z
#
# Youngs Moduli (GPa) = 183.55231 130.61433 56.29023
#
# Poissons Ratio (x) = 0.11843 0.03921
# Poissons Ratio (y) = 0.16643 -0.02501
# Poissons Ratio (z) = 0.12786 -0.05803
#
# Static dielectric constant tensor:
#      x y z
#    x 2.506940 -0.000020 0.000000 
#    y -0.000020 1.919980 0.000000 
#    z 0.000000 0.000000 2.172920 
# 
# From -- ./inp_files/18798.got.cif
#   From: 2010.05.17/outbox.cif.g08.bks.cpg/sg70_10_cif.got.tgz:18798.got - 2010.06.03 15:57:51.
