data_PCOD9514503
_publ_section_title
;
Structure prediction by ZEFSAII (Michael W. Deem and Ramdas Pophale) SiO2 
 PCOD9514503
Probable space group: F D D D
;
_chemical_formula_sum "Si O2"
_cell_formula_units_Z 208
_cell_length_a 18.422090
_cell_length_b 25.151041
_cell_length_c 18.336787
_cell_angle_alpha 90.000000
_cell_angle_beta 90.000000
_cell_angle_gamma 90.000000
_cell_volume 8496.070454
_symmetry_space_group_name_H-M "F D D D"
_symmetry_group_IT_number 70
_space_group.IT_coordinate_system_code '2'
_symmetry_cell_setting 'orthorhombic'
loop_
_space_group_symop_operation_xyz
x,y,z
1/4-x,1/4-y,z
x,1/4-y,1/4-z
1/4-x,y,1/4-z
-x,-y,-z
3/4+x,3/4+y,-z
-x,3/4+y,3/4+z
3/4+x,-y,3/4+z
x,1/2+y,1/2+z
1/4-x,3/4-y,1/2+z
x,3/4-y,3/4-z
1/4-x,1/2+y,3/4-z
-x,1/2-y,1/2-z
3/4+x,1/4+y,1/2-z
-x,1/4+y,1/4+z
3/4+x,1/2-y,1/4+z
1/2+x,y,1/2+z
3/4-x,1/4-y,1/2+z
1/2+x,1/4-y,3/4-z
3/4-x,y,3/4-z
1/2-x,-y,1/2-z
1/4+x,3/4+y,1/2-z
1/2-x,3/4+y,1/4+z
1/4+x,-y,1/4+z
1/2+x,1/2+y,z
3/4-x,3/4-y,z
1/2+x,3/4-y,1/4-z
3/4-x,1/2+y,1/4-z
1/2-x,1/2-y,-z
1/4+x,1/4+y,-z
1/2-x,1/4+y,3/4+z
1/4+x,1/2-y,3/4+z
loop_
_atom_site_type_symbol
_atom_site_label
_atom_site_fract_x
_atom_site_fract_y
_atom_site_fract_z
Si Si1 0.452620 0.141810 0.778749
Si Si2 0.118241 0.734530 0.328831
Si Si3 0.419639 0.697434 0.806398
Si Si4 0.484611 0.674094 0.091389
Si Si5 0.731876 0.601793 0.433907
Si Si6 0.339611 0.529366 0.017535
Si Si7 0.125000 0.213020 0.125000
O O1 0.384382 0.102403 0.791514
O O2 0.505304 0.101162 0.737027
O O3 0.483802 0.162353 0.854651
O O4 0.417638 0.190982 0.736001
O O5 0.078872 0.761238 0.259606
O O6 0.189685 0.773078 0.332131
O O7 0.153121 0.676385 0.317885
O O8 0.080788 0.747951 0.406758
O O9 0.375000 0.722494 0.875000
O O10 0.496307 0.665190 0.814099
O O11 0.438251 0.625000 0.125000
O O12 0.553337 0.680810 0.143034
O O13 0.775670 0.571413 0.498930
O O14 0.347276 0.493762 0.945568
#
# Coordination Sequence:
#
# PCOD9514503 Si02
#       7
#    32  32  32  32  32  32  16
#     4   9  17  31  49  72 109 160 190 229 285 360
#     4  11  21  33  59  87 110 157 209 254 306 380
#     4   8  18  35  56  82 114 152 198 253 316 382
#     4  11  21  32  46  73 114 157 199 228 291 362
#     4  10  19  35  54  81 117 155 198 252 306 366
#     4  11  19  33  54  78 115 151 202 243 296 375
#     4  12  23  34  46  80 122 162 186 244 300 370
#
# _framework density 24.481905999999999
#
# number of rings (size 3 to 8) (size 9 to 14) (size 15 to 20)
#    0.000    1.846    4.615    1.154    2.154    1.231 
#    0.000    0.000    0.000    0.923    4.000    0.000 
#    0.000    0.000    0.000    0.000    0.000    0.000 
#
# Total GULP energy -289746.413636 kJ/mol
# GULP energy per Si atom -5572.046416 kJ/mol
# Density = 2.442618 g / cm^3
# Si number density = 24.481906 Si / 1000 Ang^3
#
#
#
# Elastic Constant Matrix: (Units=GPa)
#
#
# Indices 1 2 3 4 5 6 
#
# 1 76.0467 12.0414 13.7988 0.0000 0.0000 0.0000
# 2 12.0414 114.1382 51.6704 0.0000 0.0000 0.0000
# 3 13.7988 51.6704 143.3300 0.0000 0.0000 0.0000
# 4 0.0000 0.0000 0.0000 39.5645 0.0000 0.0000
# 5 0.0000 0.0000 0.0000 0.0000 22.0873 0.0000
# 6 0.0000 0.0000 0.0000 0.0000 0.0000 18.6711
#
#
#
# Elastic Compliance Matrix: (Units=1/GPa)
#
#
# Indices 1 2 3 4 5 6 
#
# 1 0.013478 -0.000997 -0.000938 0.000000 0.000000 0.000000
# 2 -0.000997 0.010544 -0.003705 0.000000 0.000000 0.000000
# 3 -0.000938 -0.003705 0.008403 0.000000 0.000000 0.000000
# 4 0.000000 0.000000 0.000000 0.025275 0.000000 0.000000
# 5 0.000000 0.000000 0.000000 0.000000 0.045275 0.000000
# 6 0.000000 0.000000 0.000000 0.000000 0.000000 0.053559
#
#
# Mechanical properties :
#
#
# Convention : Reuss Voigt Hill
#
# Bulk Modulus (GPa) = 47.29488 54.28181 50.78835
# Shear Modulus (GPa) = 28.59399 33.13154 30.86277
#
# Velocity S-wave (km/s) = 3.42126 3.68272 3.55440
# Velocity P-wave (km/s) = 5.91328 6.34851 6.13476
#
# Compressibility (1/GPa) = 0.02114394
#
# Stress axis : x y z
#
# Youngs Moduli (GPa) = 74.19540 94.84267 119.00697
#
# Poissons Ratio (x) = 0.09458 0.11164
# Poissons Ratio (y) = 0.07399 0.44092
# Poissons Ratio (z) = 0.06960 0.35139
#
# Static dielectric constant tensor:
#      x y z
#    x 2.112280 0.000000 0.000000 
#    y 0.000000 1.993120 0.000000 
#    z 0.000000 0.000000 2.158990 
# 
# From -- ./inp_files/37730.got.cif
#   From: 2010.05.17/outbox.cif.g08.bks.cpg/sg70_19_cif.got.tgz:37730.got - 2010.06.03 15:57:51.
