data_PCOD9514652
_publ_section_title
;
Structure prediction by ZEFSAII (Michael W. Deem and Ramdas Pophale) SiO2 
 PCOD9514652
Probable space group: F D D D
;
_chemical_formula_sum "Si O2"
_cell_formula_units_Z 168
_cell_length_a 15.901899
_cell_length_b 21.064509
_cell_length_c 21.749869
_cell_angle_alpha 90.000000
_cell_angle_beta 90.000000
_cell_angle_gamma 90.000000
_cell_volume 7285.459977
_symmetry_space_group_name_H-M "F D D D"
_symmetry_group_IT_number 70
_space_group.IT_coordinate_system_code '2'
_symmetry_cell_setting 'orthorhombic'
loop_
_space_group_symop_operation_xyz
x,y,z
1/4-x,1/4-y,z
x,1/4-y,1/4-z
1/4-x,y,1/4-z
-x,-y,-z
3/4+x,3/4+y,-z
-x,3/4+y,3/4+z
3/4+x,-y,3/4+z
x,1/2+y,1/2+z
1/4-x,3/4-y,1/2+z
x,3/4-y,3/4-z
1/4-x,1/2+y,3/4-z
-x,1/2-y,1/2-z
3/4+x,1/4+y,1/2-z
-x,1/4+y,1/4+z
3/4+x,1/2-y,1/4+z
1/2+x,y,1/2+z
3/4-x,1/4-y,1/2+z
1/2+x,1/4-y,3/4-z
3/4-x,y,3/4-z
1/2-x,-y,1/2-z
1/4+x,3/4+y,1/2-z
1/2-x,3/4+y,1/4+z
1/4+x,-y,1/4+z
1/2+x,1/2+y,z
3/4-x,3/4-y,z
1/2+x,3/4-y,1/4-z
3/4-x,1/2+y,1/4-z
1/2-x,1/2-y,-z
1/4+x,1/4+y,-z
1/2-x,1/4+y,3/4+z
1/4+x,1/2-y,3/4+z
loop_
_atom_site_type_symbol
_atom_site_label
_atom_site_fract_x
_atom_site_fract_y
_atom_site_fract_z
Si Si1 0.077742 0.730038 0.327094
Si Si2 0.972597 0.351777 0.569848
Si Si3 0.464809 0.910282 0.317825
Si Si4 0.125000 0.125000 0.625000
Si Si5 0.770661 0.148156 0.024201
Si Si6 0.771126 0.193923 0.327618
O O1 0.035345 0.714332 0.392822
O O2 0.020390 0.691845 0.279297
O O3 0.169932 0.700871 0.321215
O O4 0.080816 0.803735 0.310632
O O5 0.875000 0.375000 0.568357
O O6 0.003115 0.344891 0.500446
O O7 0.027452 0.400271 0.611288
O O8 0.508937 0.875000 0.375000
O O9 0.375000 0.875000 0.312590
O O10 0.450138 0.983956 0.332807
O O11 0.197955 0.130985 0.571566
O O12 0.804379 0.089333 0.984364
#
# Coordination Sequence:
#
# PCOD9514652 Si02
#       6
#    32  32  32   8  32  32
#     4   9  18  36  56  85 120 149 182 217 274 355
#     4   8  17  35  59  81 108 150 180 225 289 345
#     4  10  22  40  59  80 108 147 198 252 288 314
#     4  12  20  32  52  92 124 148 168 224 282 344
#     4  10  20  33  57  89 122 150 176 220 281 346
#     4  10  19  39  58  80 117 150 191 230 279 343
#
# _framework density 23.059628
#
# number of rings (size 3 to 8) (size 9 to 14) (size 15 to 20)
#    0.000    2.476    1.905    1.143    2.667    0.762 
#    1.714    3.810    0.000    4.571    0.000    0.000 
#    0.000    0.000    0.000    0.000    0.000    0.000 
#
# Total GULP energy -233926.744391 kJ/mol
# GULP energy per Si atom -5569.684390 kJ/mol
# Density = 2.300714 g / cm^3
# Si number density = 23.059628 Si / 1000 Ang^3
#
#
#
# Elastic Constant Matrix: (Units=GPa)
#
#
# Indices 1 2 3 4 5 6 
#
# 1 29.8591 18.2953 18.6894 0.0000 0.0000 0.0000
# 2 18.2953 155.2335 82.3976 0.0000 0.0000 0.0000
# 3 18.6894 82.3976 224.7057 0.0000 0.0000 0.0000
# 4 0.0000 0.0000 0.0000 -47.5620 0.0000 0.0000
# 5 0.0000 0.0000 0.0000 0.0000 79.3954 0.0000
# 6 0.0000 0.0000 0.0000 0.0000 0.0000 10.8631
#
#
#
# Elastic Compliance Matrix: (Units=1/GPa)
#
#
# Indices 1 2 3 4 5 6 
#
# 1 0.036687 -0.003358 -0.001820 0.000000 0.000000 0.000000
# 2 -0.003358 0.008306 -0.002766 0.000000 0.000000 0.000000
# 3 -0.001820 -0.002766 0.005616 0.000000 0.000000 0.000000
# 4 0.000000 0.000000 0.000000 -0.021025 0.000000 0.000000
# 5 0.000000 0.000000 0.000000 0.000000 0.012595 0.000000
# 6 0.000000 0.000000 0.000000 0.000000 0.000000 0.092055
#
#
# Mechanical properties :
#
#
# Convention : Reuss Voigt Hill
#
# Bulk Modulus (GPa) = 28.80125 72.06252 50.43188
# Shear Modulus (GPa) = 30.92210 27.90037 29.41123
#
# Velocity S-wave (km/s) = 3.66589 3.48217 3.57521
# Velocity P-wave (km/s) = 5.51682 6.89099 6.24184
#
# Compressibility (1/GPa) = 0.03472072
#
# Stress axis : x y z
#
# Youngs Moduli (GPa) = 27.25747 120.39367 178.05946
#
# Poissons Ratio (x) = 0.40425 0.32409
# Poissons Ratio (y) = 0.09152 0.49260
# Poissons Ratio (z) = 0.04961 0.33307
#
# Static dielectric constant tensor:
#      x y z
#    x 1.896300 0.000000 0.000000 
#    y 0.000000 1.899770 0.000000 
#    z 0.000000 0.000000 1.898480 
# 
# From -- ./inp_files/44921.got.cif
#   From: 2010.05.17/outbox.cif.g08.bks.cpg/sg70_23_cif.got.tgz:44921.got - 2010.06.03 15:57:51.
