data_PCOD9514580
_publ_section_title
;
Structure prediction by ZEFSAII (Michael W. Deem and Ramdas Pophale) SiO2 
 PCOD9514580
Probable space group: F D D D
;
_chemical_formula_sum "Si O2"
_cell_formula_units_Z 184
_cell_length_a 20.378433
_cell_length_b 23.040563
_cell_length_c 17.119060
_cell_angle_alpha 90.000000
_cell_angle_beta 90.000000
_cell_angle_gamma 90.000000
_cell_volume 8037.921989
_symmetry_space_group_name_H-M "F D D D"
_symmetry_group_IT_number 70
_space_group.IT_coordinate_system_code '2'
_symmetry_cell_setting 'orthorhombic'
loop_
_space_group_symop_operation_xyz
x,y,z
1/4-x,1/4-y,z
x,1/4-y,1/4-z
1/4-x,y,1/4-z
-x,-y,-z
3/4+x,3/4+y,-z
-x,3/4+y,3/4+z
3/4+x,-y,3/4+z
x,1/2+y,1/2+z
1/4-x,3/4-y,1/2+z
x,3/4-y,3/4-z
1/4-x,1/2+y,3/4-z
-x,1/2-y,1/2-z
3/4+x,1/4+y,1/2-z
-x,1/4+y,1/4+z
3/4+x,1/2-y,1/4+z
1/2+x,y,1/2+z
3/4-x,1/4-y,1/2+z
1/2+x,1/4-y,3/4-z
3/4-x,y,3/4-z
1/2-x,-y,1/2-z
1/4+x,3/4+y,1/2-z
1/2-x,3/4+y,1/4+z
1/4+x,-y,1/4+z
1/2+x,1/2+y,z
3/4-x,3/4-y,z
1/2+x,3/4-y,1/4-z
3/4-x,1/2+y,1/4-z
1/2-x,1/2-y,-z
1/4+x,1/4+y,-z
1/2-x,1/4+y,3/4+z
1/4+x,1/2-y,3/4+z
loop_
_atom_site_type_symbol
_atom_site_label
_atom_site_fract_x
_atom_site_fract_y
_atom_site_fract_z
Si Si1 0.125000 0.433053 0.625000
Si Si2 0.915603 0.548900 0.052154
Si Si3 0.715533 0.086648 0.752048
Si Si4 0.349070 0.020980 0.211556
Si Si5 0.625000 0.125000 0.625000
Si Si6 0.549402 0.920435 0.184012
Si Si7 0.189297 0.537137 0.170206
O O1 0.133321 0.469480 0.545750
O O2 0.184971 0.386987 0.632826
O O3 0.888791 0.544772 0.139149
O O4 0.991513 0.569534 0.063579
O O5 0.859013 0.578146 0.997563
O O6 0.920946 0.487692 0.005682
O O7 0.782976 0.057654 0.725279
O O8 0.670868 0.086901 0.677390
O O9 0.731116 0.152276 0.777148
O O10 0.676751 0.043547 0.808621
O O11 0.546819 0.978765 0.133252
O O12 0.125000 0.561962 0.125000
#
# Coordination Sequence:
#
# PCOD9514580 Si02
#       7
#    16  32  32  32   8  32  32
#     4  10  19  38  62  83 128 160 207 258 308 365
#     4  10  19  36  66  88 120 167 213 253 322 378
#     4  10  23  37  57  86 131 155 213 248 310 378
#     4  10  22  40  57  93 122 166 206 262 308 372
#     4  12  22  36  56  88 116 172 192 256 296 378
#     4  10  19  40  60  90 125 169 209 259 308 382
#     4   9  19  37  60  95 122 158 214 265 311 372
#
# _framework density 22.891489
#
# number of rings (size 3 to 8) (size 9 to 14) (size 15 to 20)
#    0.000    2.087    2.609    1.565    2.435    2.087 
#   18.783    0.000    0.000    0.000    0.000    8.522 
#    0.000    0.000    0.000    0.000    0.000    0.000 
#
# Total GULP energy -256160.608299 kJ/mol
# GULP energy per Si atom -5568.708876 kJ/mol
# Density = 2.283939 g / cm^3
# Si number density = 22.891489 Si / 1000 Ang^3
#
#
#
# Elastic Constant Matrix: (Units=GPa)
#
#
# Indices 1 2 3 4 5 6 
#
# 1 91.0094 12.9743 30.5048 0.0000 0.0000 0.0000
# 2 12.9743 70.7052 17.2736 0.0000 0.0000 0.0000
# 3 30.5048 17.2736 123.6368 0.0000 0.0000 0.0000
# 4 0.0000 0.0000 0.0000 7.5749 0.0000 0.0000
# 5 0.0000 0.0000 0.0000 0.0000 40.8451 0.0000
# 6 0.0000 0.0000 0.0000 0.0000 0.0000 16.7614
#
#
#
# Elastic Compliance Matrix: (Units=1/GPa)
#
#
# Indices 1 2 3 4 5 6 
#
# 1 0.012140 -0.001549 -0.002779 0.000000 0.000000 0.000000
# 2 -0.001549 0.014841 -0.001691 0.000000 0.000000 0.000000
# 3 -0.002779 -0.001691 0.009010 0.000000 0.000000 0.000000
# 4 0.000000 0.000000 0.000000 0.132014 0.000000 0.000000
# 5 0.000000 0.000000 0.000000 0.000000 0.024483 0.000000
# 6 0.000000 0.000000 0.000000 0.000000 0.000000 0.059661
#
#
# Mechanical properties :
#
#
# Convention : Reuss Voigt Hill
#
# Bulk Modulus (GPa) = 41.74867 45.20631 43.47749
# Shear Modulus (GPa) = 18.37080 28.00954 23.19017
#
# Velocity S-wave (km/s) = 2.83595 3.50176 3.18629
# Velocity P-wave (km/s) = 5.38523 6.01172 5.70708
#
# Compressibility (1/GPa) = 0.02395286
#
# Stress axis : x y z
#
# Youngs Moduli (GPa) = 82.37149 67.38265 110.98597
#
# Poissons Ratio (x) = 0.10436 0.30842
# Poissons Ratio (y) = 0.12758 0.18771
# Poissons Ratio (z) = 0.22891 0.11396
#
# Static dielectric constant tensor:
#      x y z
#    x 2.010200 0.000000 0.000000 
#    y 0.000000 1.790210 0.000000 
#    z 0.000000 0.000000 1.928010 
# 
# From -- ./inp_files/36828.got.cif
#   From: 2010.05.17/outbox.cif.g08.bks.cpg/sg70_19_cif.got.tgz:36828.got - 2010.06.03 15:57:51.
