data_PCOD9514281
_publ_section_title
;
Structure prediction by ZEFSAII (Michael W. Deem and Ramdas Pophale) SiO2 
 PCOD9514281
Probable space group: F D D D
;
_chemical_formula_sum "Si O2"
_cell_formula_units_Z 176
_cell_length_a 21.067937
_cell_length_b 14.748856
_cell_length_c 27.178767
_cell_angle_alpha 90.000000
_cell_angle_beta 90.000000
_cell_angle_gamma 90.000000
_cell_volume 8445.203071
_symmetry_space_group_name_H-M "F D D D"
_symmetry_group_IT_number 70
_space_group.IT_coordinate_system_code '2'
_symmetry_cell_setting 'orthorhombic'
loop_
_space_group_symop_operation_xyz
x,y,z
1/4-x,1/4-y,z
x,1/4-y,1/4-z
1/4-x,y,1/4-z
-x,-y,-z
3/4+x,3/4+y,-z
-x,3/4+y,3/4+z
3/4+x,-y,3/4+z
x,1/2+y,1/2+z
1/4-x,3/4-y,1/2+z
x,3/4-y,3/4-z
1/4-x,1/2+y,3/4-z
-x,1/2-y,1/2-z
3/4+x,1/4+y,1/2-z
-x,1/4+y,1/4+z
3/4+x,1/2-y,1/4+z
1/2+x,y,1/2+z
3/4-x,1/4-y,1/2+z
1/2+x,1/4-y,3/4-z
3/4-x,y,3/4-z
1/2-x,-y,1/2-z
1/4+x,3/4+y,1/2-z
1/2-x,3/4+y,1/4+z
1/4+x,-y,1/4+z
1/2+x,1/2+y,z
3/4-x,3/4-y,z
1/2+x,3/4-y,1/4-z
3/4-x,1/2+y,1/4-z
1/2-x,1/2-y,-z
1/4+x,1/4+y,-z
1/2-x,1/4+y,3/4+z
1/4+x,1/2-y,3/4+z
loop_
_atom_site_type_symbol
_atom_site_label
_atom_site_fract_x
_atom_site_fract_y
_atom_site_fract_z
Si Si1 0.202833 0.668439 0.993241
Si Si2 0.143864 0.723680 0.497604
Si Si3 0.579755 0.498306 0.719594
Si Si4 0.280217 0.034571 0.428720
Si Si5 0.732040 0.358945 0.458096
Si Si6 0.625000 0.395882 0.625000
O O1 0.134673 0.717834 0.992690
O O2 0.204280 0.595009 0.038048
O O3 0.250000 0.750000 0.000000
O O4 0.229556 0.606396 0.949322
O O5 0.125000 0.625000 0.477428
O O6 0.086421 0.765214 0.530297
O O7 0.204423 0.699183 0.532422
O O8 0.171922 0.792337 0.457198
O O9 0.535339 0.422937 0.744256
O O10 0.612959 0.457319 0.672334
O O11 0.315346 0.080912 0.383754
O O12 0.247745 0.937880 0.419359
#
# Coordination Sequence:
#
# PCOD9514281 Si02
#       6
#    32  32  32  32  32  16
#     4  10  18  35  52  82 111 151 198 233 292 360
#     4   9  16  30  55  80 105 144 207 247 278 347
#     4  10  21  32  57  84 114 151 197 245 294 360
#     4  10  20  32  54  84 114 152 184 255 296 355
#     4   9  17  33  52  81 111 151 201 236 292 358
#     4  12  20  35  51  88 124 142 188 260 313 337
#
# _framework density 20.840233000000001
#
# number of rings (size 3 to 8) (size 9 to 14) (size 15 to 20)
#    0.000    2.182    3.636    0.000    0.000    1.455 
#    0.000    4.091    0.000    0.000   47.273    7.636 
#    0.000    0.000    0.000    0.000    0.000    0.000 
#
# Total GULP energy -244976.193321 kJ/mol
# GULP energy per Si atom -5567.640757 kJ/mol
# Density = 2.079280 g / cm^3
# Si number density = 20.840233 Si / 1000 Ang^3
#
#
#
# Elastic Constant Matrix: (Units=GPa)
#
#
# Indices 1 2 3 4 5 6 
#
# 1 96.5392 44.1268 27.0917 0.0000 0.0000 0.0000
# 2 44.1268 141.2809 28.2651 0.0000 0.0000 0.0000
# 3 27.0917 28.2651 25.9806 0.0000 0.0000 0.0000
# 4 0.0000 0.0000 0.0000 20.2013 0.0000 0.0000
# 5 0.0000 0.0000 0.0000 0.0000 19.8435 0.0000
# 6 0.0000 0.0000 0.0000 0.0000 0.0000 57.0481
#
#
#
# Elastic Compliance Matrix: (Units=1/GPa)
#
#
# Indices 1 2 3 4 5 6 
#
# 1 0.015072 -0.001998 -0.013543 0.000000 0.000000 0.000000
# 2 -0.001998 0.009312 -0.008047 0.000000 0.000000 0.000000
# 3 -0.013543 -0.008047 0.061367 0.000000 0.000000 0.000000
# 4 0.000000 0.000000 0.000000 0.049502 0.000000 0.000000
# 5 0.000000 0.000000 0.000000 0.000000 0.050394 0.000000
# 6 0.000000 0.000000 0.000000 0.000000 0.000000 0.017529
#
#
# Mechanical properties :
#
#
# Convention : Reuss Voigt Hill
#
# Bulk Modulus (GPa) = 25.92370 51.41864 38.67117
# Shear Modulus (GPa) = 18.99605 30.37307 24.68456
#
# Velocity S-wave (km/s) = 3.02240 3.82176 3.44534
# Velocity P-wave (km/s) = 4.96448 6.64837 5.86715
#
# Compressibility (1/GPa) = 0.03857474
#
# Stress axis : x y z
#
# Youngs Moduli (GPa) = 66.34648 107.38633 16.29528
#
# Poissons Ratio (x) = 0.21457 0.22069
# Poissons Ratio (y) = 0.13257 0.13113
# Poissons Ratio (z) = 0.89854 0.86418
#
# Static dielectric constant tensor:
#      x y z
#    x 1.855960 0.000000 0.000000 
#    y 0.000000 1.810520 0.000000 
#    z 0.000000 0.000000 1.756860 
# 
# From -- ./inp_files/67895.got.cif
#   From: 2010.05.17/outbox.cif.g08.bks.cpg/sg70_34_cif.got.tgz:67895.got - 2010.06.03 15:57:51.
