data_PCOD9514362
_publ_section_title
;
Structure prediction by ZEFSAII (Michael W. Deem and Ramdas Pophale) SiO2 
 PCOD9514362
Probable space group: F D D D
;
_chemical_formula_sum "Si O2"
_cell_formula_units_Z 160
_cell_length_a 18.401687
_cell_length_b 20.373127
_cell_length_c 20.469210
_cell_angle_alpha 90.000000
_cell_angle_beta 90.000000
_cell_angle_gamma 90.000000
_cell_volume 7673.904910
_symmetry_space_group_name_H-M "F D D D"
_symmetry_group_IT_number 70
_space_group.IT_coordinate_system_code '2'
_symmetry_cell_setting 'orthorhombic'
loop_
_space_group_symop_operation_xyz
x,y,z
1/4-x,1/4-y,z
x,1/4-y,1/4-z
1/4-x,y,1/4-z
-x,-y,-z
3/4+x,3/4+y,-z
-x,3/4+y,3/4+z
3/4+x,-y,3/4+z
x,1/2+y,1/2+z
1/4-x,3/4-y,1/2+z
x,3/4-y,3/4-z
1/4-x,1/2+y,3/4-z
-x,1/2-y,1/2-z
3/4+x,1/4+y,1/2-z
-x,1/4+y,1/4+z
3/4+x,1/2-y,1/4+z
1/2+x,y,1/2+z
3/4-x,1/4-y,1/2+z
1/2+x,1/4-y,3/4-z
3/4-x,y,3/4-z
1/2-x,-y,1/2-z
1/4+x,3/4+y,1/2-z
1/2-x,3/4+y,1/4+z
1/4+x,-y,1/4+z
1/2+x,1/2+y,z
3/4-x,3/4-y,z
1/2+x,3/4-y,1/4-z
3/4-x,1/2+y,1/4-z
1/2-x,1/2-y,-z
1/4+x,1/4+y,-z
1/2-x,1/4+y,3/4+z
1/4+x,1/2-y,3/4+z
loop_
_atom_site_type_symbol
_atom_site_label
_atom_site_fract_x
_atom_site_fract_y
_atom_site_fract_z
Si Si1 0.520062 0.174777 0.184899
Si Si2 0.175961 0.261344 0.888439
Si Si3 0.207005 0.688233 0.921126
Si Si4 0.451588 0.666409 0.347718
Si Si5 0.853512 0.641257 0.218479
O O1 0.537876 0.125000 0.125000
O O2 0.511719 0.249905 0.162329
O O3 0.564571 0.178360 0.252611
O O4 0.438162 0.159048 0.210480
O O5 0.112786 0.208977 0.871632
O O6 0.245891 0.226566 0.918057
O O7 0.188853 0.302283 0.821425
O O8 0.150853 0.319601 0.935609
O O9 0.250721 0.624947 0.898620
O O10 0.375000 0.690732 0.375000
O O11 0.429772 0.618065 0.289241
#
# Coordination Sequence:
#
# PCOD9514362 Si02
#       5
#    32  32  32  32  32
#     4  10  18  38  69  92 126 163 210 257 327 385
#     4  10  22  42  65  89 128 168 212 262 321 375
#     4  10  21  37  64  95 125 164 211 264 317 386
#     4  12  24  37  60  95 128 164 215 259 312 381
#     4  10  20  41  64  90 124 173 206 258 321 377
#
# _framework density 20.849879999999999
#
# number of rings (size 3 to 8) (size 9 to 14) (size 15 to 20)
#    0.000    1.600    6.000    1.200    0.000    3.200 
#    0.000    4.000    0.000    0.000    0.000    0.000 
#    0.000    0.000    0.000    0.000    0.000    0.000 
#
# Total GULP energy -223100.021845 kJ/mol
# GULP energy per Si atom -5577.500546 kJ/mol
# Density = 2.080243 g / cm^3
# Si number density = 20.849880 Si / 1000 Ang^3
#
#
#
# Elastic Constant Matrix: (Units=GPa)
#
#
# Indices 1 2 3 4 5 6 
#
# 1 68.4551 19.0880 -10.0607 0.0000 0.0000 0.0000
# 2 19.0880 71.2689 -14.7473 0.0000 0.0000 0.0000
# 3 -10.0607 -14.7473 50.5095 0.0000 0.0000 0.0000
# 4 0.0000 0.0000 0.0000 20.8829 0.0000 0.0000
# 5 0.0000 0.0000 0.0000 0.0000 -35.0301 0.0000
# 6 0.0000 0.0000 0.0000 0.0000 0.0000 18.5265
#
#
#
# Elastic Compliance Matrix: (Units=1/GPa)
#
#
# Indices 1 2 3 4 5 6 
#
# 1 0.015986 -0.003856 0.002058 0.000000 0.000000 0.000000
# 2 -0.003856 0.015863 0.003864 0.000000 0.000000 0.000000
# 3 0.002058 0.003864 0.021336 0.000000 0.000000 0.000000
# 4 0.000000 0.000000 0.000000 0.047886 0.000000 0.000000
# 5 0.000000 0.000000 0.000000 0.000000 -0.028547 0.000000
# 6 0.000000 0.000000 0.000000 0.000000 0.000000 0.053977
#
#
# Mechanical properties :
#
#
# Convention : Reuss Voigt Hill
#
# Bulk Modulus (GPa) = 17.44629 19.86593 18.65611
# Shear Modulus (GPa) = 35.34202 13.93942 24.64072
#
# Velocity S-wave (km/s) = 4.12159 2.58846 3.44148
# Velocity P-wave (km/s) = 5.57097 4.29910 4.97584
#
# Compressibility (1/GPa) = 0.05731879
#
# Stress axis : x y z
#
# Youngs Moduli (GPa) = 62.55586 63.03780 46.86833
#
# Poissons Ratio (x) = 0.24304 -0.09647
# Poissons Ratio (y) = 0.24119 -0.18109
# Poissons Ratio (z) = -0.12876 -0.24356
#
# Static dielectric constant tensor:
#      x y z
#    x 1.758490 0.000000 0.000000 
#    y 0.000000 1.734090 0.000000 
#    z 0.000000 0.000000 1.802890 
# 
# From -- ./inp_files/36299.got.cif
#   From: 2010.05.17/outbox.cif.g08.bks.cpg/sg70_19_cif.got.tgz:36299.got - 2010.06.03 15:57:51.
