data_PCOD9515167
_publ_section_title
;
Structure prediction by ZEFSAII (Michael W. Deem and Ramdas Pophale) SiO2 
 PCOD9515167
Probable space group: F D D D
;
_chemical_formula_sum "Si O2"
_cell_formula_units_Z 176
_cell_length_a 26.001652
_cell_length_b 30.087406
_cell_length_c 11.218105
_cell_angle_alpha 90.000000
_cell_angle_beta 90.000000
_cell_angle_gamma 90.000000
_cell_volume 8776.173261
_symmetry_space_group_name_H-M "F D D D"
_symmetry_group_IT_number 70
_space_group.IT_coordinate_system_code '2'
_symmetry_cell_setting 'orthorhombic'
loop_
_space_group_symop_operation_xyz
x,y,z
1/4-x,1/4-y,z
x,1/4-y,1/4-z
1/4-x,y,1/4-z
-x,-y,-z
3/4+x,3/4+y,-z
-x,3/4+y,3/4+z
3/4+x,-y,3/4+z
x,1/2+y,1/2+z
1/4-x,3/4-y,1/2+z
x,3/4-y,3/4-z
1/4-x,1/2+y,3/4-z
-x,1/2-y,1/2-z
3/4+x,1/4+y,1/2-z
-x,1/4+y,1/4+z
3/4+x,1/2-y,1/4+z
1/2+x,y,1/2+z
3/4-x,1/4-y,1/2+z
1/2+x,1/4-y,3/4-z
3/4-x,y,3/4-z
1/2-x,-y,1/2-z
1/4+x,3/4+y,1/2-z
1/2-x,3/4+y,1/4+z
1/4+x,-y,1/4+z
1/2+x,1/2+y,z
3/4-x,3/4-y,z
1/2+x,3/4-y,1/4-z
3/4-x,1/2+y,1/4-z
1/2-x,1/2-y,-z
1/4+x,1/4+y,-z
1/2-x,1/4+y,3/4+z
1/4+x,1/2-y,3/4+z
loop_
_atom_site_type_symbol
_atom_site_label
_atom_site_fract_x
_atom_site_fract_y
_atom_site_fract_z
Si Si1 0.887975 0.823492 0.748242
Si Si2 0.375000 0.675603 0.875000
Si Si3 0.199645 0.198720 0.432735
Si Si4 0.281491 0.122905 0.481059
Si Si5 0.453659 0.249401 0.422200
Si Si6 0.009988 0.541842 0.410329
O O1 0.875000 0.875000 0.752260
O O2 0.851646 0.804435 0.644778
O O3 0.948437 0.820338 0.730769
O O4 0.875000 0.801583 0.875000
O O5 0.335778 0.646274 0.951280
O O6 0.414093 0.709126 0.940295
O O7 0.232207 0.152946 0.441862
O O8 0.187567 0.218345 0.563607
O O9 0.240525 0.231262 0.368829
O O10 0.277626 0.125000 0.625000
O O11 0.279259 0.076675 0.404884
O O12 0.460652 0.273136 0.545827
O O13 0.000000 0.500000 0.500000
#
# Coordination Sequence:
#
# PCOD9515167 Si02
#       6
#    32  16  32  32  32  32
#     4  11  23  40  63  92 129 176 219 276 352 426
#     4  10  24  42  66  97 136 178 233 290 366 418
#     4  10  20  41  69  92 130 172 232 285 351 421
#     4  11  23  45  68  99 137 189 237 296 356 441
#     4  10  21  40  66  97 127 175 224 296 345 422
#     4  12  25  43  65 102 138 176 234 293 362 420
#
# _framework density 20.054297999999999
#
# number of rings (size 3 to 8) (size 9 to 14) (size 15 to 20)
#    0.000    1.273    3.636    2.182    0.000    1.455 
#    8.182    1.818    0.000    0.000    0.000    0.000 
#    0.000    0.000    0.000    0.000    0.000    0.000 
#
# Total GULP energy -245090.273008 kJ/mol
# GULP energy per Si atom -5570.233477 kJ/mol
# Density = 2.000865 g / cm^3
# Si number density = 20.054298 Si / 1000 Ang^3
#
#
#
# Elastic Constant Matrix: (Units=GPa)
#
#
# Indices 1 2 3 4 5 6 
#
# 1 78.3653 28.0683 21.4273 0.0001 -0.0001 0.0000
# 2 28.0683 86.9192 32.7597 0.0000 -0.0001 0.0000
# 3 21.4273 32.7597 104.0666 0.0003 -0.0003 0.0002
# 4 0.0001 0.0000 0.0003 5.9934 -0.0001 0.0001
# 5 -0.0001 -0.0001 -0.0003 -0.0001 7.3739 0.0000
# 6 0.0000 0.0000 0.0002 0.0001 0.0000 21.8684
#
#
#
# Elastic Compliance Matrix: (Units=1/GPa)
#
#
# Indices 1 2 3 4 5 6 
#
# 1 0.014702 -0.004092 -0.001739 0.000000 0.000000 0.000000
# 2 -0.004092 0.014193 -0.003625 0.000000 0.000000 0.000000
# 3 -0.001739 -0.003625 0.011108 -0.000001 0.000000 0.000000
# 4 0.000000 0.000000 -0.000001 0.166849 0.000003 -0.000001
# 5 0.000000 0.000000 0.000000 0.000003 0.135613 0.000000
# 6 0.000000 0.000000 0.000000 -0.000001 0.000000 0.045728
#
#
# Mechanical properties :
#
#
# Convention : Reuss Voigt Hill
#
# Bulk Modulus (GPa) = 47.41481 48.20685 47.81083
# Shear Modulus (GPa) = 12.07333 19.52021 15.79677
#
# Velocity S-wave (km/s) = 2.45630 3.12327 2.80964
# Velocity P-wave (km/s) = 5.63374 6.09071 5.86668
#
# Compressibility (1/GPa) = 0.02109045
#
# Stress axis : x y z
#
# Youngs Moduli (GPa) = 68.01820 70.45856 90.02135
#
# Poissons Ratio (x) = 0.28833 0.15654
# Poissons Ratio (y) = 0.27834 0.32635
# Poissons Ratio (z) = 0.11828 0.25543
#
# Static dielectric constant tensor:
#      x y z
#    x 1.761680 0.000000 0.000000 
#    y 0.000000 1.744530 0.000000 
#    z 0.000000 0.000000 1.739090 
# 
# From -- ./inp_files/20991.got.cif
#   From: 2010.05.17/outbox.cif.g08.bks.cpg/sg70_11_cif.got.tgz:20991.got - 2010.06.03 15:57:51.
