data_PCOD9515245
_publ_section_title
;
Structure prediction by ZEFSAII (Michael W. Deem and Ramdas Pophale) SiO2 
 PCOD9515245
Probable space group: F D D D
;
_chemical_formula_sum "Si O2"
_cell_formula_units_Z 136
_cell_length_a 13.872664
_cell_length_b 23.957595
_cell_length_c 16.149241
_cell_angle_alpha 90.000000
_cell_angle_beta 90.000000
_cell_angle_gamma 90.000000
_cell_volume 5367.291743
_symmetry_space_group_name_H-M "F D D D"
_symmetry_group_IT_number 70
_space_group.IT_coordinate_system_code '2'
_symmetry_cell_setting 'orthorhombic'
loop_
_space_group_symop_operation_xyz
x,y,z
1/4-x,1/4-y,z
x,1/4-y,1/4-z
1/4-x,y,1/4-z
-x,-y,-z
3/4+x,3/4+y,-z
-x,3/4+y,3/4+z
3/4+x,-y,3/4+z
x,1/2+y,1/2+z
1/4-x,3/4-y,1/2+z
x,3/4-y,3/4-z
1/4-x,1/2+y,3/4-z
-x,1/2-y,1/2-z
3/4+x,1/4+y,1/2-z
-x,1/4+y,1/4+z
3/4+x,1/2-y,1/4+z
1/2+x,y,1/2+z
3/4-x,1/4-y,1/2+z
1/2+x,1/4-y,3/4-z
3/4-x,y,3/4-z
1/2-x,-y,1/2-z
1/4+x,3/4+y,1/2-z
1/2-x,3/4+y,1/4+z
1/4+x,-y,1/4+z
1/2+x,1/2+y,z
3/4-x,3/4-y,z
1/2+x,3/4-y,1/4-z
3/4-x,1/2+y,1/4-z
1/2-x,1/2-y,-z
1/4+x,1/4+y,-z
1/2-x,1/4+y,3/4+z
1/4+x,1/2-y,3/4+z
loop_
_atom_site_type_symbol
_atom_site_label
_atom_site_fract_x
_atom_site_fract_y
_atom_site_fract_z
Si Si1 0.375000 0.875000 0.612980
Si Si2 0.375000 0.537072 0.875000
Si Si3 0.624436 0.730119 0.272278
Si Si4 0.625000 0.125000 0.125000
Si Si5 0.560109 0.315322 0.915938
Si Si6 0.479359 0.124078 0.259560
O O1 0.417104 0.922541 0.556584
O O2 0.452247 0.846260 0.673136
O O3 0.431894 0.575395 0.812110
O O4 0.479777 0.462559 0.771448
O O5 0.430014 0.752430 0.311568
O O6 0.649110 0.836422 0.472684
O O7 0.549394 0.098299 0.189256
O O8 0.524950 0.375000 0.875000
O O9 0.612915 0.275534 0.846290
#
# Coordination Sequence:
#
# PCOD9515245 Si02
#       6
#    16  16  32   8  32  32
#     4  11  28  46  76 125 158 216 262 337 396 492
#     4  12  24  47  78 117 156 215 253 346 390 480
#     4  12  29  46  81 118 166 206 275 324 412 467
#     4  10  20  44  80 112 152 216 250 338 396 476
#     4  12  27  53  83 123 157 218 264 340 393 489
#     4  11  23  48  79 113 165 202 274 326 407 469
#
# _framework density 25.338664000000001
#
# number of rings (size 3 to 8) (size 9 to 14) (size 15 to 20)
#    0.000    0.471    3.529    2.824    3.294    2.824 
#    0.000    7.059    0.000    0.000    0.000    0.000 
#    0.000    0.000    0.000    0.000    0.000    0.000 
#
# Total GULP energy -189625.568199 kJ/mol
# GULP energy per Si atom -5577.222594 kJ/mol
# Density = 2.528099 g / cm^3
# Si number density = 25.338664 Si / 1000 Ang^3
#
#
#
# Elastic Constant Matrix: (Units=GPa)
#
#
# Indices 1 2 3 4 5 6 
#
# 1 157.3284 46.8893 84.8432 0.0000 0.0000 0.0000
# 2 46.8893 140.1983 80.4246 0.0000 0.0000 0.0000
# 3 84.8432 80.4246 209.1167 0.0000 0.0000 0.0000
# 4 0.0000 0.0000 0.0000 60.2985 0.0000 0.0000
# 5 0.0000 0.0000 0.0000 0.0000 54.9491 0.0000
# 6 0.0000 0.0000 0.0000 0.0000 0.0000 15.4344
#
#
#
# Elastic Compliance Matrix: (Units=1/GPa)
#
#
# Indices 1 2 3 4 5 6 
#
# 1 0.008261 -0.001078 -0.002937 0.000000 0.000000 0.000000
# 2 -0.001078 0.009293 -0.003136 0.000000 0.000000 0.000000
# 3 -0.002937 -0.003136 0.007180 0.000000 0.000000 0.000000
# 4 0.000000 0.000000 0.000000 0.016584 0.000000 0.000000
# 5 0.000000 0.000000 0.000000 0.000000 0.018199 0.000000
# 6 0.000000 0.000000 0.000000 0.000000 0.000000 0.064790
#
#
# Mechanical properties :
#
#
# Convention : Reuss Voigt Hill
#
# Bulk Modulus (GPa) = 95.87335 103.43974 99.65655
# Shear Modulus (GPa) = 35.18964 45.76882 40.47923
#
# Velocity S-wave (km/s) = 3.73067 4.25465 4.00125
# Velocity P-wave (km/s) = 7.51506 8.06521 7.79499
#
# Compressibility (1/GPa) = 0.01043043
#
# Stress axis : x y z
#
# Youngs Moduli (GPa) = 121.04481 107.61333 139.27670
#
# Poissons Ratio (x) = 0.11602 0.40908
# Poissons Ratio (y) = 0.13050 0.43683
# Poissons Ratio (z) = 0.35553 0.33752
#
# Static dielectric constant tensor:
#      x y z
#    x 2.207850 0.000000 0.000000 
#    y 0.000000 2.092240 0.000000 
#    z 0.000000 0.000000 2.046590 
# 
# From -- ./inp_files/33830.got.cif
#   From: 2010.05.17/outbox.cif.g08.bks.cpg/sg70_17_cif.got.tgz:33830.got - 2010.06.03 15:57:51.
