data_PCOD9515212
_publ_section_title
;
Structure prediction by ZEFSAII (Michael W. Deem and Ramdas Pophale) SiO2 
 PCOD9515212
Probable space group: F D D D
;
_chemical_formula_sum "Si O2"
_cell_formula_units_Z 192
_cell_length_a 26.090133
_cell_length_b 23.714208
_cell_length_c 13.453486
_cell_angle_alpha 90.000000
_cell_angle_beta 90.000000
_cell_angle_gamma 90.000000
_cell_volume 8323.763820
_symmetry_space_group_name_H-M "F D D D"
_symmetry_group_IT_number 70
_space_group.IT_coordinate_system_code '2'
_symmetry_cell_setting 'orthorhombic'
loop_
_space_group_symop_operation_xyz
x,y,z
1/4-x,1/4-y,z
x,1/4-y,1/4-z
1/4-x,y,1/4-z
-x,-y,-z
3/4+x,3/4+y,-z
-x,3/4+y,3/4+z
3/4+x,-y,3/4+z
x,1/2+y,1/2+z
1/4-x,3/4-y,1/2+z
x,3/4-y,3/4-z
1/4-x,1/2+y,3/4-z
-x,1/2-y,1/2-z
3/4+x,1/4+y,1/2-z
-x,1/4+y,1/4+z
3/4+x,1/2-y,1/4+z
1/2+x,y,1/2+z
3/4-x,1/4-y,1/2+z
1/2+x,1/4-y,3/4-z
3/4-x,y,3/4-z
1/2-x,-y,1/2-z
1/4+x,3/4+y,1/2-z
1/2-x,3/4+y,1/4+z
1/4+x,-y,1/4+z
1/2+x,1/2+y,z
3/4-x,3/4-y,z
1/2+x,3/4-y,1/4-z
3/4-x,1/2+y,1/4-z
1/2-x,1/2-y,-z
1/4+x,1/4+y,-z
1/2-x,1/4+y,3/4+z
1/4+x,1/2-y,3/4+z
loop_
_atom_site_type_symbol
_atom_site_label
_atom_site_fract_x
_atom_site_fract_y
_atom_site_fract_z
Si Si1 0.684921 0.692911 0.927773
Si Si2 0.779855 0.614822 0.918836
Si Si3 0.784103 0.447214 0.716250
Si Si4 0.625000 0.434817 0.125000
Si Si5 0.375000 0.875000 0.739372
Si Si6 0.668933 0.716890 0.244048
Si Si7 0.727244 0.940060 0.899451
O O1 0.734004 0.655889 0.957941
O O2 0.661456 0.665003 0.828212
O O3 0.636879 0.688476 0.001581
O O4 0.702991 0.757304 0.908498
O O5 0.759348 0.598966 0.810441
O O6 0.831545 0.647914 0.922481
O O7 0.788807 0.558877 0.983922
O O8 0.750000 0.500000 0.750000
O O9 0.830968 0.419053 0.780097
O O10 0.809546 0.461132 0.606913
O O11 0.596029 0.471256 0.207942
O O12 0.711707 0.697265 0.165755
O O13 0.713185 0.875000 0.875000
#
# Coordination Sequence:
#
# PCOD9515212 Si02
#       7
#    32  32  32  16  16  32  32
#     4  10  20  43  62  89 135 167 220 274 331 413
#     4  10  23  39  61  91 132 172 212 278 344 397
#     4   9  19  41  66  93 127 173 226 285 335 404
#     4  12  22  38  59  94 132 171 210 276 338 408
#     4   8  18  36  70  92 118 176 224 274 342 390
#     4  10  23  38  62  92 126 173 220 263 335 410
#     4  11  23  39  62  96 130 170 215 275 343 408
#
# _framework density 23.066489000000001
#
# number of rings (size 3 to 8) (size 9 to 14) (size 15 to 20)
#    0.000    2.000    1.667    2.000    2.333    4.000 
#    0.000    2.500    0.000    4.000    0.000    0.000 
#    0.000    0.000    0.000    0.000    0.000    0.000 
#
# Total GULP energy -267219.953832 kJ/mol
# GULP energy per Si atom -5567.082371 kJ/mol
# Density = 2.301399 g / cm^3
# Si number density = 23.066489 Si / 1000 Ang^3
#
#
#
# Elastic Constant Matrix: (Units=GPa)
#
#
# Indices 1 2 3 4 5 6 
#
# 1 128.0229 62.6981 27.8983 -0.0001 0.0000 0.0000
# 2 62.6981 129.2739 19.6577 0.0000 0.0000 0.0000
# 3 27.8983 19.6577 28.0057 -0.0001 0.0000 0.0000
# 4 -0.0001 0.0000 -0.0001********** 0.0001 0.0000
# 5 0.0000 0.0000 0.0000 0.0001 25.6453 0.0000
# 6 0.0000 0.0000 0.0000 0.0000 0.0000 49.2668
#
#
#
# Elastic Compliance Matrix: (Units=1/GPa)
#
#
# Indices 1 2 3 4 5 6 
#
# 1 0.011886 -0.004438 -0.008725 0.000000 0.000000 0.000000
# 2 -0.004438 0.010317 -0.002821 0.000000 0.000000 0.000000
# 3 -0.008725 -0.002821 0.046379 0.000000 0.000000 0.000000
# 4 0.000000 0.000000 0.000000 -0.000069 0.000000 0.000000
# 5 0.000000 0.000000 0.000000 0.000000 0.038993 0.000000
# 6 0.000000 0.000000 0.000000 0.000000 0.000000 0.020298
#
#
# Mechanical properties :
#
#
# Convention : Reuss Voigt Hill
#
# Bulk Modulus (GPa) = 27.31219 56.20116 41.75668
# Shear Modulus (GPa) = 29.07383 -2883.36933 -1427.14775
#
# Velocity S-wave (km/s) = 3.55411 -35.39405 -24.90088
# Velocity P-wave (km/s) = 5.35804 40.56970 28.43582
#
# Compressibility (1/GPa) = 0.03661369
#
# Stress axis : x y z
#
# Youngs Moduli (GPa) = 84.13329 96.92902 21.56165
#
# Poissons Ratio (x) = 0.43016 0.18813
# Poissons Ratio (y) = 0.37338 0.06082
# Poissons Ratio (z) = 0.73408 0.27341
#
# Static dielectric constant tensor:
#      x y z
#    x 1.882670 0.000000 0.000000 
#    y 0.000000 1.817710 0.000000 
#    z 0.000000 0.000000 1.977040 
# 
# From -- ./inp_files/28996.got.cif
#   From: 2010.05.17/outbox.cif.g08.bks.cpg/sg70_15_cif.got.tgz:28996.got - 2010.06.03 15:57:51.
