data_PCOD9515882
_publ_section_title
;
Structure prediction by ZEFSAII (Michael W. Deem and Ramdas Pophale) SiO2 
 PCOD9515882
Probable space group: F D D D
;
_chemical_formula_sum "Si O2"
_cell_formula_units_Z 144
_cell_length_a 26.745065
_cell_length_b 17.403425
_cell_length_c 13.536104
_cell_angle_alpha 90.000000
_cell_angle_beta 90.000000
_cell_angle_gamma 90.000000
_cell_volume 6300.457207
_symmetry_space_group_name_H-M "F D D D"
_symmetry_group_IT_number 70
_space_group.IT_coordinate_system_code '2'
_symmetry_cell_setting 'orthorhombic'
loop_
_space_group_symop_operation_xyz
x,y,z
1/4-x,1/4-y,z
x,1/4-y,1/4-z
1/4-x,y,1/4-z
-x,-y,-z
3/4+x,3/4+y,-z
-x,3/4+y,3/4+z
3/4+x,-y,3/4+z
x,1/2+y,1/2+z
1/4-x,3/4-y,1/2+z
x,3/4-y,3/4-z
1/4-x,1/2+y,3/4-z
-x,1/2-y,1/2-z
3/4+x,1/4+y,1/2-z
-x,1/4+y,1/4+z
3/4+x,1/2-y,1/4+z
1/2+x,y,1/2+z
3/4-x,1/4-y,1/2+z
1/2+x,1/4-y,3/4-z
3/4-x,y,3/4-z
1/2-x,-y,1/2-z
1/4+x,3/4+y,1/2-z
1/2-x,3/4+y,1/4+z
1/4+x,-y,1/4+z
1/2+x,1/2+y,z
3/4-x,3/4-y,z
1/2+x,3/4-y,1/4-z
3/4-x,1/2+y,1/4-z
1/2-x,1/2-y,-z
1/4+x,1/4+y,-z
1/2-x,1/4+y,3/4+z
1/4+x,1/2-y,3/4+z
loop_
_atom_site_type_symbol
_atom_site_label
_atom_site_fract_x
_atom_site_fract_y
_atom_site_fract_z
Si Si1 0.220148 0.743909 0.392381
Si Si2 0.125000 0.907156 0.125000
Si Si3 0.188000 0.699623 0.689190
Si Si4 0.323755 0.911371 0.661447
Si Si5 0.616245 0.308132 0.312041
O O1 0.250000 0.750000 0.500000
O O2 0.252707 0.793308 0.316933
O O3 0.216324 0.656333 0.351359
O O4 0.163275 0.775618 0.378104
O O5 0.136300 0.851003 0.215544
O O6 0.081802 0.969175 0.149065
O O7 0.175223 0.625000 0.625000
O O8 0.168601 0.685980 0.797694
O O9 0.375000 0.875000 0.701408
O O10 0.324856 0.993675 0.714215
O O11 0.590762 0.375000 0.375000
#
# Coordination Sequence:
#
# PCOD9515882 Si02
#       5
#    32  16  32  32  32
#     4  11  23  39  65  97 129 167 223 286 340 395
#     4  12  25  40  69  96 134 188 220 270 339 426
#     4  12  22  36  64  99 131 161 217 286 350 394
#     4  10  22  42  61  91 131 170 212 277 341 402
#     4  11  23  43  65  95 134 176 226 274 338 418
#
# _framework density 22.855483
#
# number of rings (size 3 to 8) (size 9 to 14) (size 15 to 20)
#    0.000    0.889    4.444    3.667    3.111    0.000 
#    0.000    6.111    4.889    0.000    0.000    0.000 
#    0.000    0.000    0.000    0.000    0.000    0.000 
#
# Total GULP energy -200451.563585 kJ/mol
# GULP energy per Si atom -5568.098988 kJ/mol
# Density = 2.280346 g / cm^3
# Si number density = 22.855483 Si / 1000 Ang^3
#
#
#
# Elastic Constant Matrix: (Units=GPa)
#
#
# Indices 1 2 3 4 5 6 
#
# 1 72.8644 26.0379 -10.8918 0.0000 0.0000 0.0000
# 2 26.0379 153.6457 15.8828 0.0000 0.0000 0.0000
# 3 -10.8918 15.8828 45.6676 0.0000 0.0000 0.0000
# 4 0.0000 0.0000 0.0000 35.0781 0.0000 0.0000
# 5 0.0000 0.0000 0.0000 0.0000 -14.5178 0.0000
# 6 0.0000 0.0000 0.0000 0.0000 0.0000 46.1459
#
#
#
# Elastic Compliance Matrix: (Units=1/GPa)
#
#
# Indices 1 2 3 4 5 6 
#
# 1 0.015562 -0.003133 0.004801 0.000000 0.000000 0.000000
# 2 -0.003133 0.007382 -0.003315 0.000000 0.000000 0.000000
# 3 0.004801 -0.003315 0.024195 0.000000 0.000000 0.000000
# 4 0.000000 0.000000 0.000000 0.028508 0.000000 0.000000
# 5 0.000000 0.000000 0.000000 0.000000 -0.068881 0.000000
# 6 0.000000 0.000000 0.000000 0.000000 0.000000 0.021670
#
#
# Mechanical properties :
#
#
# Convention : Reuss Voigt Hill
#
# Bulk Modulus (GPa) = 22.80762 37.13726 29.97244
# Shear Modulus (GPa) = 107.88590 29.41783 68.65187
#
# Velocity S-wave (km/s) = 6.87793 3.59154 5.48658
# Velocity P-wave (km/s) = 8.54841 5.78644 7.29926
#
# Compressibility (1/GPa) = 0.04384500
#
# Stress axis : x y z
#
# Youngs Moduli (GPa) = 64.26092 135.46169 41.33029
#
# Poissons Ratio (x) = 0.42447 -0.19844
# Poissons Ratio (y) = 0.20136 0.13700
# Poissons Ratio (z) = -0.30853 0.44903
#
# Static dielectric constant tensor:
#      x y z
#    x 1.890090 0.000000 0.000000 
#    y 0.000000 -3.635440 0.000000 
#    z 0.000000 0.000000 1.896290 
# 
# From -- ./inp_files/30859.got.cif
#   From: 2010.05.17/outbox.cif.g08.bks.cpg/sg70_16_cif.got.tgz:30859.got - 2010.06.03 15:57:51.
