data_PCOD9515349
_publ_section_title
;
Structure prediction by ZEFSAII (Michael W. Deem and Ramdas Pophale) SiO2 
 PCOD9515349
Probable space group: F D D D
;
_chemical_formula_sum "Si O2"
_cell_formula_units_Z 120
_cell_length_a 23.207955
_cell_length_b 7.365542
_cell_length_c 28.651074
_cell_angle_alpha 90.000000
_cell_angle_beta 90.000000
_cell_angle_gamma 90.000000
_cell_volume 4897.590731
_symmetry_space_group_name_H-M "F D D D"
_symmetry_group_IT_number 70
_space_group.IT_coordinate_system_code '2'
_symmetry_cell_setting 'orthorhombic'
loop_
_space_group_symop_operation_xyz
x,y,z
1/4-x,1/4-y,z
x,1/4-y,1/4-z
1/4-x,y,1/4-z
-x,-y,-z
3/4+x,3/4+y,-z
-x,3/4+y,3/4+z
3/4+x,-y,3/4+z
x,1/2+y,1/2+z
1/4-x,3/4-y,1/2+z
x,3/4-y,3/4-z
1/4-x,1/2+y,3/4-z
-x,1/2-y,1/2-z
3/4+x,1/4+y,1/2-z
-x,1/4+y,1/4+z
3/4+x,1/2-y,1/4+z
1/2+x,y,1/2+z
3/4-x,1/4-y,1/2+z
1/2+x,1/4-y,3/4-z
3/4-x,y,3/4-z
1/2-x,-y,1/2-z
1/4+x,3/4+y,1/2-z
1/2-x,3/4+y,1/4+z
1/4+x,-y,1/4+z
1/2+x,1/2+y,z
3/4-x,3/4-y,z
1/2+x,3/4-y,1/4-z
3/4-x,1/2+y,1/4-z
1/2-x,1/2-y,-z
1/4+x,1/4+y,-z
1/2-x,1/4+y,3/4+z
1/4+x,1/2-y,3/4+z
loop_
_atom_site_type_symbol
_atom_site_label
_atom_site_fract_x
_atom_site_fract_y
_atom_site_fract_z
Si Si1 0.978371 0.081878 0.423060
Si Si2 0.086515 0.290775 0.278160
Si Si3 0.689834 0.375000 0.375000
Si Si4 0.875000 0.375000 0.875000
Si Si5 0.497203 0.744463 0.978799
O O1 0.017786 0.209070 0.390630
O O2 0.974402 0.183819 0.473164
O O3 0.918166 0.012917 0.402035
O O4 0.006673 0.892712 0.439430
O O5 0.125000 0.125000 0.261223
O O6 0.101430 0.353269 0.329875
O O7 0.069187 0.449672 0.242682
O O8 0.025564 0.190669 0.287798
#
# Coordination Sequence:
#
# PCOD9515349 Si02
#       5
#    32  32  16   8  32
#     4  10  22  40  60  88 129 167 209 276 326 393
#     4  10  21  37  64  90 119 170 215 261 319 402
#     4  10  22  41  57  92 132 166 209 283 336 362
#     4  12  24  34  66 100 116 170 230 268 334 404
#     4   9  21  42  59  86 133 168 208 269 332 382
#
# _framework density 24.501842
#
# number of rings (size 3 to 8) (size 9 to 14) (size 15 to 20)
#    0.000    2.133    0.000    1.600    3.733    2.667 
#    0.000    0.000    0.000    0.000    0.000    0.000 
#    0.000    0.000    0.000    0.000    0.000    0.000 
#
# Total GULP energy -167225.617668 kJ/mol
# GULP energy per Si atom -5574.187256 kJ/mol
# Density = 2.444607 g / cm^3
# Si number density = 24.501842 Si / 1000 Ang^3
#
#
#
# Elastic Constant Matrix: (Units=GPa)
#
#
# Indices 1 2 3 4 5 6 
#
# 1 83.8869 32.2854 31.4510 0.0000 0.0000 0.0003
# 2 32.2854 116.8975 25.6188 0.0000 0.0001 0.0007
# 3 31.4510 25.6188 61.4286 0.0000 0.0000 -0.0002
# 4 0.0000 0.0000 0.0000 34.7538 0.0000 0.0000
# 5 0.0000 0.0001 0.0000 0.0000 8.3068 0.0000
# 6 0.0003 0.0007 -0.0002 0.0000 0.0000 34.6893
#
#
#
# Elastic Compliance Matrix: (Units=1/GPa)
#
#
# Indices 1 2 3 4 5 6 
#
# 1 0.015546 -0.002806 -0.006789 0.000000 0.000000 0.000000
# 2 -0.002806 0.009921 -0.002701 0.000000 0.000000 0.000000
# 3 -0.006789 -0.002701 0.020882 0.000000 0.000000 0.000000
# 4 0.000000 0.000000 0.000000 0.028774 0.000000 0.000000
# 5 0.000000 0.000000 0.000000 0.000000 0.120383 0.000000
# 6 0.000000 0.000000 0.000000 0.000000 0.000000 0.028827
#
#
# Mechanical properties :
#
#
# Convention : Reuss Voigt Hill
#
# Bulk Modulus (GPa) = 45.96297 48.99148 47.47722
# Shear Modulus (GPa) = 19.51769 27.07384 23.29577
#
# Velocity S-wave (km/s) = 2.82544 3.32772 3.08681
# Velocity P-wave (km/s) = 5.42622 5.89944 5.66777
#
# Compressibility (1/GPa) = 0.02175665
#
# Stress axis : x y z
#
# Youngs Moduli (GPa) = 64.32470 100.79239 47.88873
#
# Poissons Ratio (x) = 0.28279 0.32514
# Poissons Ratio (y) = 0.18047 0.12936
# Poissons Ratio (z) = 0.43673 0.27226
#
# Static dielectric constant tensor:
#      x y z
#    x 2.012990 0.000000 0.000000 
#    y 0.000000 1.952300 0.000000 
#    z 0.000000 0.000000 2.066120 
# 
# From -- ./inp_files/9806.got.cif
#   From: 2010.05.17/outbox.cif.g08.bks.cpg/sg70_5_cif.got.tgz:9806.got - 2010.06.03 15:57:51.
