data_PCOD9515443
_publ_section_title
;
Structure prediction by ZEFSAII (Michael W. Deem and Ramdas Pophale) SiO2 
 PCOD9515443
Probable space group: F D D D
;
_chemical_formula_sum "Si O2"
_cell_formula_units_Z 128
_cell_length_a 28.592726
_cell_length_b 20.833247
_cell_length_c 8.010196
_cell_angle_alpha 90.000000
_cell_angle_beta 90.000000
_cell_angle_gamma 90.000000
_cell_volume 4771.508132
_symmetry_space_group_name_H-M "F D D D"
_symmetry_group_IT_number 70
_space_group.IT_coordinate_system_code '2'
_symmetry_cell_setting 'orthorhombic'
loop_
_space_group_symop_operation_xyz
x,y,z
1/4-x,1/4-y,z
x,1/4-y,1/4-z
1/4-x,y,1/4-z
-x,-y,-z
3/4+x,3/4+y,-z
-x,3/4+y,3/4+z
3/4+x,-y,3/4+z
x,1/2+y,1/2+z
1/4-x,3/4-y,1/2+z
x,3/4-y,3/4-z
1/4-x,1/2+y,3/4-z
-x,1/2-y,1/2-z
3/4+x,1/4+y,1/2-z
-x,1/4+y,1/4+z
3/4+x,1/2-y,1/4+z
1/2+x,y,1/2+z
3/4-x,1/4-y,1/2+z
1/2+x,1/4-y,3/4-z
3/4-x,y,3/4-z
1/2-x,-y,1/2-z
1/4+x,3/4+y,1/2-z
1/2-x,3/4+y,1/4+z
1/4+x,-y,1/4+z
1/2+x,1/2+y,z
3/4-x,3/4-y,z
1/2+x,3/4-y,1/4-z
3/4-x,1/2+y,1/4-z
1/2-x,1/2-y,-z
1/4+x,1/4+y,-z
1/2-x,1/4+y,3/4+z
1/4+x,1/2-y,3/4+z
loop_
_atom_site_type_symbol
_atom_site_label
_atom_site_fract_x
_atom_site_fract_y
_atom_site_fract_z
Si Si1 0.944987 0.875000 0.875000
Si Si2 0.875000 0.375000 0.103385
Si Si3 0.566859 0.300578 0.827385
Si Si4 0.905547 0.238426 0.722282
Si Si5 0.013794 0.755227 0.502310
O O1 0.912682 0.845500 0.731434
O O2 0.971707 0.818360 0.964144
O O3 0.901030 0.433950 0.015304
O O4 0.564074 0.375000 0.875000
O O5 0.621470 0.282964 0.820752
O O6 0.541597 0.252961 0.966626
O O7 0.536740 0.292279 0.658763
O O8 0.958303 0.221962 0.663171
O O9 0.875000 0.209522 0.875000
#
# Coordination Sequence:
#
# PCOD9515443 Si02
#       5
#    16  16  32  32  32
#     4   9  14  32  62  88 112 156 214 284 330 398
#     4   9  17  32  58  88 120 158 220 284 340 404
#     4  11  23  40  65  96 130 175 233 284 351 418
#     4  11  23  37  59  92 132 175 219 280 350 416
#     4  10  21  39  65  92 125 171 226 284 339 416
#
# _framework density 26.825900000000001
#
# number of rings (size 3 to 8) (size 9 to 14) (size 15 to 20)
#    0.000    1.750    3.750    1.125    0.000    3.000 
#    0.000    0.000    0.000    3.000    0.000    0.000 
#    0.000    0.000    0.000    0.000    0.000    0.000 
#
# Total GULP energy -178533.517776 kJ/mol
# GULP energy per Si atom -5579.172430 kJ/mol
# Density = 2.676484 g / cm^3
# Si number density = 26.825900 Si / 1000 Ang^3
#
#
#
# Elastic Constant Matrix: (Units=GPa)
#
#
# Indices 1 2 3 4 5 6 
#
# 1 151.8057 -2.0873 14.6971 0.0000 0.0000 0.0000
# 2 -2.0873 79.3489 -2.1763 0.0000 0.0000 0.0000
# 3 14.6971 -2.1763 100.9077 0.0005 -0.0002 0.0000
# 4 0.0000 0.0000 0.0005 29.6232 -0.0001 0.0000
# 5 0.0000 0.0000 -0.0002 -0.0001 40.8129 0.0000
# 6 0.0000 0.0000 0.0000 0.0000 0.0000 27.6293
#
#
#
# Elastic Compliance Matrix: (Units=1/GPa)
#
#
# Indices 1 2 3 4 5 6 
#
# 1 0.006683 0.000149 -0.000970 0.000000 0.000000 0.000000
# 2 0.000149 0.012613 0.000250 0.000000 0.000000 0.000000
# 3 -0.000970 0.000250 0.010057 0.000000 0.000000 0.000000
# 4 0.000000 0.000000 0.000000 0.033757 0.000000 0.000000
# 5 0.000000 0.000000 0.000000 0.000000 0.024502 0.000000
# 6 0.000000 0.000000 0.000000 0.000000 0.000000 0.036193
#
#
# Mechanical properties :
#
#
# Convention : Reuss Voigt Hill
#
# Bulk Modulus (GPa) = 35.44582 39.21435 37.33008
# Shear Modulus (GPa) = 37.21575 41.05500 39.13538
#
# Velocity S-wave (km/s) = 3.72870 3.91631 3.82365
# Velocity P-wave (km/s) = 5.63734 5.92451 5.78270
#
# Compressibility (1/GPa) = 0.02821207
#
# Stress axis : x y z
#
# Youngs Moduli (GPa) = 149.62557 79.28102 99.43563
#
# Poissons Ratio (x) = -0.01183 0.09647
# Poissons Ratio (y) = -0.02232 -0.02489
# Poissons Ratio (z) = 0.14517 -0.01984
#
# Static dielectric constant tensor:
#      x y z
#    x 2.161160 0.000000 0.000000 
#    y 0.000000 2.009650 0.000000 
#    z 0.000000 0.000000 2.304200 
# 
# From -- ./inp_files/12038.got.cif
#   From: 2010.05.17/outbox.cif.g08.bks.cpg/sg70_7_cif.got.tgz:12038.got - 2010.06.03 15:57:51.
