data_PCOD9515756
_publ_section_title
;
Structure prediction by ZEFSAII (Michael W. Deem and Ramdas Pophale) SiO2 
 PCOD9515756
Probable space group: F D D D
;
_chemical_formula_sum "Si O2"
_cell_formula_units_Z 120
_cell_length_a 33.439295
_cell_length_b 15.694771
_cell_length_c 11.609290
_cell_angle_alpha 90.000000
_cell_angle_beta 90.000000
_cell_angle_gamma 90.000000
_cell_volume 6092.811695
_symmetry_space_group_name_H-M "F D D D"
_symmetry_group_IT_number 70
_space_group.IT_coordinate_system_code '2'
_symmetry_cell_setting 'orthorhombic'
loop_
_space_group_symop_operation_xyz
x,y,z
1/4-x,1/4-y,z
x,1/4-y,1/4-z
1/4-x,y,1/4-z
-x,-y,-z
3/4+x,3/4+y,-z
-x,3/4+y,3/4+z
3/4+x,-y,3/4+z
x,1/2+y,1/2+z
1/4-x,3/4-y,1/2+z
x,3/4-y,3/4-z
1/4-x,1/2+y,3/4-z
-x,1/2-y,1/2-z
3/4+x,1/4+y,1/2-z
-x,1/4+y,1/4+z
3/4+x,1/2-y,1/4+z
1/2+x,y,1/2+z
3/4-x,1/4-y,1/2+z
1/2+x,1/4-y,3/4-z
3/4-x,y,3/4-z
1/2-x,-y,1/2-z
1/4+x,3/4+y,1/2-z
1/2-x,3/4+y,1/4+z
1/4+x,-y,1/4+z
1/2+x,1/2+y,z
3/4-x,3/4-y,z
1/2+x,3/4-y,1/4-z
3/4-x,1/2+y,1/4-z
1/2-x,1/2-y,-z
1/4+x,1/4+y,-z
1/2-x,1/4+y,3/4+z
1/4+x,1/2-y,3/4+z
loop_
_atom_site_type_symbol
_atom_site_label
_atom_site_fract_x
_atom_site_fract_y
_atom_site_fract_z
Si Si1 0.043255 0.875019 0.607166
Si Si2 0.592357 0.480473 0.970227
Si Si3 0.125000 0.125000 0.125000
Si Si4 0.586822 0.875000 0.875000
Si Si5 0.985702 0.534910 0.682864
O O1 0.079033 0.843012 0.690256
O O2 0.060205 0.900571 0.484108
O O3 0.020557 0.945767 0.682342
O O4 0.015637 0.791605 0.591397
O O5 0.633665 0.451246 0.912945
O O6 0.556582 0.486347 0.878529
O O7 0.598709 0.565065 0.043393
O O8 0.998768 0.625000 0.625000
#
# Coordination Sequence:
#
# PCOD9515756 Si02
#       5
#    32  32   8  16  32
#     4  11  23  38  64  91 130 168 216 262 324 383
#     4  11  22  38  64  95 125 168 215 269 322 379
#     4  12  24  36  66  98 120 158 228 272 302 390
#     4  12  22  40  63  96 132 181 205 262 340 395
#     4  10  22  39  63  93 129 165 214 270 318 380
#
# _framework density 19.695340999999999
#
# number of rings (size 3 to 8) (size 9 to 14) (size 15 to 20)
#    0.000    1.067    6.667    3.200    5.600    1.067 
#    0.000    0.000    0.000    1.600    0.000    0.000 
#    0.000    0.000    0.000    0.000    0.000    0.000 
#
# Total GULP energy -167686.034156 kJ/mol
# GULP energy per Si atom -5589.534472 kJ/mol
# Density = 1.965051 g / cm^3
# Si number density = 19.695341 Si / 1000 Ang^3
#
#
#
# Elastic Constant Matrix: (Units=GPa)
#
#
# Indices 1 2 3 4 5 6 
#
# 1 68.4721 27.4963 62.2417 0.0000 0.0000 0.0000
# 2 27.4963 70.8353 37.6309 0.0000 0.0000 0.0000
# 3 62.2417 37.6309 154.8760 0.0000 0.0000 0.0000
# 4 0.0000 0.0000 0.0000 40.9316 0.0000 0.0000
# 5 0.0000 0.0000 0.0000 0.0000 24.2938 0.0000
# 6 0.0000 0.0000 0.0000 0.0000 0.0000 31.3662
#
#
#
# Elastic Compliance Matrix: (Units=1/GPa)
#
#
# Indices 1 2 3 4 5 6 
#
# 1 0.024404 -0.004895 -0.008618 0.000000 0.000000 0.000000
# 2 -0.004895 0.017191 -0.002210 0.000000 0.000000 0.000000
# 3 -0.008618 -0.002210 0.010457 0.000000 0.000000 0.000000
# 4 0.000000 0.000000 0.000000 0.024431 0.000000 0.000000
# 5 0.000000 0.000000 0.000000 0.000000 0.041163 0.000000
# 6 0.000000 0.000000 0.000000 0.000000 0.000000 0.031881
#
#
# Mechanical properties :
#
#
# Convention : Reuss Voigt Hill
#
# Bulk Modulus (GPa) = 48.52741 60.99122 54.75932
# Shear Modulus (GPa) = 26.61802 30.43927 28.52865
#
# Velocity S-wave (km/s) = 3.68025 3.93556 3.81004
# Velocity P-wave (km/s) = 6.53846 7.18930 6.87159
#
# Compressibility (1/GPa) = 0.02060691
#
# Stress axis : x y z
#
# Youngs Moduli (GPa) = 40.97671 58.16911 95.62726
#
# Poissons Ratio (x) = 0.28471 0.82414
# Poissons Ratio (y) = 0.20056 0.21134
# Poissons Ratio (z) = 0.35315 0.12855
#
# Static dielectric constant tensor:
#      x y z
#    x 1.717390 0.000000 0.000000 
#    y 0.000000 1.675720 0.000000 
#    z 0.000000 0.000000 1.723280 
# 
# From -- ./inp_files/16523.got.cif
#   From: 2010.05.17/outbox.cif.g08.bks.cpg/sg70_9_cif.got.tgz:16523.got - 2010.06.03 15:57:51.
