data_PCOD9515329
_publ_section_title
;
Structure prediction by ZEFSAII (Michael W. Deem and Ramdas Pophale) SiO2 
 PCOD9515329
Probable space group: F D D D
;
_chemical_formula_sum "Si O2"
_cell_formula_units_Z 208
_cell_length_a 18.334794
_cell_length_b 31.763193
_cell_length_c 18.542791
_cell_angle_alpha 90.000000
_cell_angle_beta 90.000000
_cell_angle_gamma 90.000000
_cell_volume 10798.794871
_symmetry_space_group_name_H-M "F D D D"
_symmetry_group_IT_number 70
_space_group.IT_coordinate_system_code '2'
_symmetry_cell_setting 'orthorhombic'
loop_
_space_group_symop_operation_xyz
x,y,z
1/4-x,1/4-y,z
x,1/4-y,1/4-z
1/4-x,y,1/4-z
-x,-y,-z
3/4+x,3/4+y,-z
-x,3/4+y,3/4+z
3/4+x,-y,3/4+z
x,1/2+y,1/2+z
1/4-x,3/4-y,1/2+z
x,3/4-y,3/4-z
1/4-x,1/2+y,3/4-z
-x,1/2-y,1/2-z
3/4+x,1/4+y,1/2-z
-x,1/4+y,1/4+z
3/4+x,1/2-y,1/4+z
1/2+x,y,1/2+z
3/4-x,1/4-y,1/2+z
1/2+x,1/4-y,3/4-z
3/4-x,y,3/4-z
1/2-x,-y,1/2-z
1/4+x,3/4+y,1/2-z
1/2-x,3/4+y,1/4+z
1/4+x,-y,1/4+z
1/2+x,1/2+y,z
3/4-x,3/4-y,z
1/2+x,3/4-y,1/4-z
3/4-x,1/2+y,1/4-z
1/2-x,1/2-y,-z
1/4+x,1/4+y,-z
1/2-x,1/4+y,3/4+z
1/4+x,1/2-y,3/4+z
loop_
_atom_site_type_symbol
_atom_site_label
_atom_site_fract_x
_atom_site_fract_y
_atom_site_fract_z
Si Si1 0.314235 0.838218 0.477171
Si Si2 0.781296 0.995780 0.129297
Si Si3 0.625000 0.454081 0.625000
Si Si4 0.151139 0.577870 0.889749
Si Si5 0.502585 0.980605 0.722145
Si Si6 0.120569 0.446992 0.281913
Si Si7 0.625000 0.515847 0.125000
Si Si8 0.941369 0.125000 0.125000
O O1 0.375000 0.875000 0.469692
O O2 0.308477 0.829175 0.562078
O O3 0.341641 0.796930 0.435428
O O4 0.243217 0.855152 0.436594
O O5 0.697190 0.982418 0.133599
O O6 0.832777 0.954273 0.130747
O O7 0.809782 0.026261 0.192209
O O8 0.787487 0.018381 0.051439
O O9 0.622379 0.429797 0.700418
O O10 0.125000 0.625000 0.905604
O O11 0.203789 0.559227 0.950822
O O12 0.447712 0.020665 0.717184
O O13 0.563800 0.988163 0.662670
O O14 0.105886 0.410812 0.338404
#
# Coordination Sequence:
#
# PCOD9515329 Si02
#       8
#    32  32  16  32  32  32  16  16
#     4  11  19  31  56  87 126 166 198 229 292 376
#     4  10  21  42  64  88 116 159 209 260 309 359
#     4  10  22  40  67  85 106 157 221 254 301 369
#     4  10  23  38  59  88 128 163 200 256 310 365
#     4  10  21  37  59  89 122 161 206 244 303 373
#     4  10  22  39  62  89 120 159 205 257 301 359
#     4  12  17  32  57  86 124 165 195 232 292 368
#     4  12  21  36  58  95 128 162 196 242 296 369
#
# _framework density 19.261407999999999
#
# number of rings (size 3 to 8) (size 9 to 14) (size 15 to 20)
#    0.000    1.538    4.615    0.462    6.462    1.846 
#    2.769    0.769    0.000    0.000    0.000    0.000 
#    0.000    0.000    0.000    0.000    0.000    0.000 
#
# Total GULP energy -290365.685266 kJ/mol
# GULP energy per Si atom -5583.955486 kJ/mol
# Density = 1.921757 g / cm^3
# Si number density = 19.261408 Si / 1000 Ang^3
#
#
#
# Elastic Constant Matrix: (Units=GPa)
#
#
# Indices 1 2 3 4 5 6 
#
# 1 76.2648 18.0263 20.1551 0.0000 0.0000 0.0000
# 2 18.0263 81.5748 40.2624 0.0000 0.0000 0.0000
# 3 20.1551 40.2624 88.6557 0.0000 0.0000 0.0000
# 4 0.0000 0.0000 0.0000 27.7094 0.0000 0.0000
# 5 0.0000 0.0000 0.0000 0.0000 8.3868 0.0000
# 6 0.0000 0.0000 0.0000 0.0000 0.0000 13.5698
#
#
#
# Elastic Compliance Matrix: (Units=1/GPa)
#
#
# Indices 1 2 3 4 5 6 
#
# 1 0.014197 -0.001990 -0.002324 0.000000 0.000000 0.000000
# 2 -0.001990 0.016079 -0.006850 0.000000 0.000000 0.000000
# 3 -0.002324 -0.006850 0.014919 0.000000 0.000000 0.000000
# 4 0.000000 0.000000 0.000000 0.036089 0.000000 0.000000
# 5 0.000000 0.000000 0.000000 0.000000 0.119235 0.000000
# 6 0.000000 0.000000 0.000000 0.000000 0.000000 0.073693
#
#
# Mechanical properties :
#
#
# Convention : Reuss Voigt Hill
#
# Bulk Modulus (GPa) = 43.73081 44.82031 44.27556
# Shear Modulus (GPa) = 16.43859 21.13661 18.78760
#
# Velocity S-wave (km/s) = 2.92455 3.31623 3.12653
# Velocity P-wave (km/s) = 5.84441 6.16305 6.00584
#
# Compressibility (1/GPa) = 0.02286717
#
# Stress axis : x y z
#
# Youngs Moduli (GPa) = 70.43877 62.19158 67.03016
#
# Poissons Ratio (x) = 0.12378 0.15575
# Poissons Ratio (y) = 0.14020 0.45915
# Poissons Ratio (z) = 0.16367 0.42600
#
# Static dielectric constant tensor:
#      x y z
#    x 1.672320 0.000000 0.000000 
#    y 0.000000 1.642960 0.000000 
#    z 0.000000 0.000000 1.711980 
# 
# From -- ./inp_files/43972.got.cif
#   From: 2010.05.17/outbox.cif.g08.bks.cpg/sg70_22_cif.got.tgz:43972.got - 2010.06.03 15:57:51.
