data_PCOD9515668
_publ_section_title
;
Structure prediction by ZEFSAII (Michael W. Deem and Ramdas Pophale) SiO2 
 PCOD9515668
Probable space group: F D D D
;
_chemical_formula_sum "Si O2"
_cell_formula_units_Z 176
_cell_length_a 20.460026
_cell_length_b 21.826405
_cell_length_c 15.870693
_cell_angle_alpha 90.000000
_cell_angle_beta 90.000000
_cell_angle_gamma 90.000000
_cell_volume 7087.356547
_symmetry_space_group_name_H-M "F D D D"
_symmetry_group_IT_number 70
_space_group.IT_coordinate_system_code '2'
_symmetry_cell_setting 'orthorhombic'
loop_
_space_group_symop_operation_xyz
x,y,z
1/4-x,1/4-y,z
x,1/4-y,1/4-z
1/4-x,y,1/4-z
-x,-y,-z
3/4+x,3/4+y,-z
-x,3/4+y,3/4+z
3/4+x,-y,3/4+z
x,1/2+y,1/2+z
1/4-x,3/4-y,1/2+z
x,3/4-y,3/4-z
1/4-x,1/2+y,3/4-z
-x,1/2-y,1/2-z
3/4+x,1/4+y,1/2-z
-x,1/4+y,1/4+z
3/4+x,1/2-y,1/4+z
1/2+x,y,1/2+z
3/4-x,1/4-y,1/2+z
1/2+x,1/4-y,3/4-z
3/4-x,y,3/4-z
1/2-x,-y,1/2-z
1/4+x,3/4+y,1/2-z
1/2-x,3/4+y,1/4+z
1/4+x,-y,1/4+z
1/2+x,1/2+y,z
3/4-x,3/4-y,z
1/2+x,3/4-y,1/4-z
3/4-x,1/2+y,1/4-z
1/2-x,1/2-y,-z
1/4+x,1/4+y,-z
1/2-x,1/4+y,3/4+z
1/4+x,1/2-y,3/4+z
loop_
_atom_site_type_symbol
_atom_site_label
_atom_site_fract_x
_atom_site_fract_y
_atom_site_fract_z
Si Si1 0.374417 0.743805 0.643696
Si Si2 0.527474 0.650140 0.394263
Si Si3 0.748474 0.676804 0.555928
Si Si4 0.347372 0.035433 0.457349
Si Si5 0.875000 0.494584 0.875000
Si Si6 0.188691 0.903999 0.508384
O O1 0.343514 0.811041 0.656066
O O2 0.440719 0.723136 0.690452
O O3 0.394236 0.746011 0.545842
O O4 0.323061 0.688026 0.667742
O O5 0.513596 0.598636 0.463234
O O6 0.474761 0.699732 0.427412
O O7 0.504629 0.624308 0.302091
O O8 0.767544 0.625000 0.625000
O O9 0.679994 0.702215 0.586413
O O10 0.375000 0.002156 0.375000
O O11 0.386488 0.099647 0.473337
O O12 0.915695 0.538912 0.814693
#
# Coordination Sequence:
#
# PCOD9515668 Si02
#       6
#    32  32  32  32  16  32
#     4  12  24  44  79 107 154 215 249 328 408 459
#     4  11  24  45  74 116 156 201 270 323 388 495
#     4  12  24  45  73 111 155 203 263 326 400 482
#     4  10  21  45  72 106 154 191 256 320 379 470
#     4  12  25  44  74 106 156 206 245 334 410 458
#     4  11  22  44  70 106 151 200 260 318 390 470
#
# _framework density 24.832954000000001
#
# number of rings (size 3 to 8) (size 9 to 14) (size 15 to 20)
#    0.000    0.727    6.364    1.909    0.000    5.818 
#    0.000    4.545    0.000    0.000    0.000    0.000 
#    0.000    0.000    0.000    0.000    0.000    0.000 
#
# Total GULP energy -245843.040517 kJ/mol
# GULP energy per Si atom -5587.341830 kJ/mol
# Density = 2.477643 g / cm^3
# Si number density = 24.832954 Si / 1000 Ang^3
#
#
#
# Elastic Constant Matrix: (Units=GPa)
#
#
# Indices 1 2 3 4 5 6 
#
# 1 140.6598 64.8411 39.2811 0.0000 0.0000 0.0000
# 2 64.8411 92.3501 19.4788 0.0000 0.0000 0.0000
# 3 39.2811 19.4788 111.4961 0.0000 0.0000 0.0000
# 4 0.0000 0.0000 0.0000 9.4654 0.0000 0.0000
# 5 0.0000 0.0000 0.0000 0.0000 24.5048 0.0000
# 6 0.0000 0.0000 0.0000 0.0000 0.0000 56.1910
#
#
#
# Elastic Compliance Matrix: (Units=1/GPa)
#
#
# Indices 1 2 3 4 5 6 
#
# 1 0.011232 -0.007322 -0.002678 0.000000 0.000000 0.000000
# 2 -0.007322 0.016015 -0.000218 0.000000 0.000000 0.000000
# 3 -0.002678 -0.000218 0.009951 0.000000 0.000000 0.000000
# 4 0.000000 0.000000 0.000000 0.105648 0.000000 0.000000
# 5 0.000000 0.000000 0.000000 0.000000 0.040808 0.000000
# 6 0.000000 0.000000 0.000000 0.000000 0.000000 0.017796
#
#
# Mechanical properties :
#
#
# Convention : Reuss Voigt Hill
#
# Bulk Modulus (GPa) = 59.65984 65.74535 62.70260
# Shear Modulus (GPa) = 21.98049 32.75923 27.36986
#
# Velocity S-wave (km/s) = 2.97835 3.63600 3.32348
# Velocity P-wave (km/s) = 5.99200 6.64529 6.32708
#
# Compressibility (1/GPa) = 0.01676169
#
# Stress axis : x y z
#
# Youngs Moduli (GPa) = 89.02843 62.44108 100.49625
#
# Poissons Ratio (x) = 0.45717 0.26914
# Poissons Ratio (y) = 0.65183 0.02195
# Poissons Ratio (z) = 0.23843 0.01364
#
# Static dielectric constant tensor:
#      x y z
#    x 2.025100 0.000000 0.000000 
#    y 0.000000 1.959220 0.000000 
#    z 0.000000 0.000000 2.081900 
# 
# From -- ./inp_files/30121.got.cif
#   From: 2010.05.17/outbox.cif.g08.bks.cpg/sg70_16_cif.got.tgz:30121.got - 2010.06.03 15:57:51.
