data_PCOD9515862
_publ_section_title
;
Structure prediction by ZEFSAII (Michael W. Deem and Ramdas Pophale) SiO2 
 PCOD9515862
Probable space group: F D D D
;
_chemical_formula_sum "Si O2"
_cell_formula_units_Z 112
_cell_length_a 10.421552
_cell_length_b 29.172088
_cell_length_c 16.876939
_cell_angle_alpha 90.000000
_cell_angle_beta 90.000000
_cell_angle_gamma 90.000000
_cell_volume 5130.900532
_symmetry_space_group_name_H-M "F D D D"
_symmetry_group_IT_number 70
_space_group.IT_coordinate_system_code '2'
_symmetry_cell_setting 'orthorhombic'
loop_
_space_group_symop_operation_xyz
x,y,z
1/4-x,1/4-y,z
x,1/4-y,1/4-z
1/4-x,y,1/4-z
-x,-y,-z
3/4+x,3/4+y,-z
-x,3/4+y,3/4+z
3/4+x,-y,3/4+z
x,1/2+y,1/2+z
1/4-x,3/4-y,1/2+z
x,3/4-y,3/4-z
1/4-x,1/2+y,3/4-z
-x,1/2-y,1/2-z
3/4+x,1/4+y,1/2-z
-x,1/4+y,1/4+z
3/4+x,1/2-y,1/4+z
1/2+x,y,1/2+z
3/4-x,1/4-y,1/2+z
1/2+x,1/4-y,3/4-z
3/4-x,y,3/4-z
1/2-x,-y,1/2-z
1/4+x,3/4+y,1/2-z
1/2-x,3/4+y,1/4+z
1/4+x,-y,1/4+z
1/2+x,1/2+y,z
3/4-x,3/4-y,z
1/2+x,3/4-y,1/4-z
3/4-x,1/2+y,1/4-z
1/2-x,1/2-y,-z
1/4+x,1/4+y,-z
1/2-x,1/4+y,3/4+z
1/4+x,1/2-y,3/4+z
loop_
_atom_site_type_symbol
_atom_site_label
_atom_site_fract_x
_atom_site_fract_y
_atom_site_fract_z
Si Si1 0.125000 0.125000 0.806577
Si Si2 0.004194 0.944434 0.077154
Si Si3 0.772632 0.545262 0.153904
Si Si4 0.232422 0.704538 0.054816
O O1 0.208992 0.154095 0.867513
O O2 0.188889 0.087109 0.750902
O O3 0.125000 0.962222 0.125000
O O4 0.030986 0.929508 0.988165
O O5 0.928125 0.992663 0.074491
O O6 0.625000 0.551394 0.125000
O O7 0.880046 0.559217 0.091661
O O8 0.125000 0.711004 0.125000
O O9 0.250000 0.750000 0.000000
#
# Coordination Sequence:
#
# PCOD9515862 Si02
#       4
#    16  32  32  32
#     4  12  25  46  71 110 148 194 260 316 369 464
#     4  10  22  41  68 100 146 187 242 309 371 439
#     4  10  23  45  73 103 143 196 245 302 383 450
#     4  12  27  47  75 109 150 205 256 314 388 457
#
# _framework density 21.828526
#
# number of rings (size 3 to 8) (size 9 to 14) (size 15 to 20)
#    0.000    1.143    2.857    2.143    8.000    3.429 
#    0.000    3.571    0.000    0.000    0.000    0.000 
#    0.000    0.000    0.000    0.000    0.000    0.000 
#
# Total GULP energy -156051.157978 kJ/mol
# GULP energy per Si atom -5573.255642 kJ/mol
# Density = 2.177884 g / cm^3
# Si number density = 21.828526 Si / 1000 Ang^3
#
#
#
# Elastic Constant Matrix: (Units=GPa)
#
#
# Indices 1 2 3 4 5 6 
#
# 1 116.0316 34.3141 88.3532 0.0000 0.0000 0.0000
# 2 34.3141 123.2158 81.5271 0.0000 0.0000 0.0000
# 3 88.3532 81.5271 219.4501 0.0000 0.0000 0.0000
# 4 0.0000 0.0000 0.0000 39.4155 0.0000 0.0000
# 5 0.0000 0.0000 0.0000 0.0000 41.3658 0.0000
# 6 0.0000 0.0000 0.0000 0.0000 0.0000 56.8150
#
#
#
# Elastic Compliance Matrix: (Units=1/GPa)
#
#
# Indices 1 2 3 4 5 6 
#
# 1 0.012432 -0.000199 -0.004931 0.000000 0.000000 0.000000
# 2 -0.000199 0.010764 -0.003919 0.000000 0.000000 0.000000
# 3 -0.004931 -0.003919 0.007998 0.000000 0.000000 0.000000
# 4 0.000000 0.000000 0.000000 0.025371 0.000000 0.000000
# 5 0.000000 0.000000 0.000000 0.000000 0.024175 0.000000
# 6 0.000000 0.000000 0.000000 0.000000 0.000000 0.017601
#
#
# Mechanical properties :
#
#
# Convention : Reuss Voigt Hill
#
# Bulk Modulus (GPa) = 76.36040 96.34290 86.35165
# Shear Modulus (GPa) = 41.38902 44.48612 42.93757
#
# Velocity S-wave (km/s) = 4.35914 4.51930 4.43994
# Velocity P-wave (km/s) = 7.77136 8.45365 8.11967
#
# Compressibility (1/GPa) = 0.01309579
#
# Stress axis : x y z
#
# Youngs Moduli (GPa) = 80.43561 92.90035 125.03002
#
# Poissons Ratio (x) = 0.01852 0.61656
# Poissons Ratio (y) = 0.01604 0.48996
# Poissons Ratio (z) = 0.39665 0.36405
#
# Static dielectric constant tensor:
#      x y z
#    x 1.832990 0.000000 0.000000 
#    y 0.000000 1.556480 0.000000 
#    z 0.000000 0.000000 1.987520 
# 
# From -- ./inp_files/15057.got.cif
#   From: 2010.05.17/outbox.cif.g08.bks.cpg/sg70_8_cif.got.tgz:15057.got - 2010.06.03 15:57:51.
