data_PCOD9515783
_publ_section_title
;
Structure prediction by ZEFSAII (Michael W. Deem and Ramdas Pophale) SiO2 
 PCOD9515783
Probable space group: F D D D
;
_chemical_formula_sum "Si O2"
_cell_formula_units_Z 128
_cell_length_a 21.741748
_cell_length_b 10.469416
_cell_length_c 25.922511
_cell_angle_alpha 90.000000
_cell_angle_beta 90.000000
_cell_angle_gamma 90.000000
_cell_volume 5900.570204
_symmetry_space_group_name_H-M "F D D D"
_symmetry_group_IT_number 70
_space_group.IT_coordinate_system_code '2'
_symmetry_cell_setting 'orthorhombic'
loop_
_space_group_symop_operation_xyz
x,y,z
1/4-x,1/4-y,z
x,1/4-y,1/4-z
1/4-x,y,1/4-z
-x,-y,-z
3/4+x,3/4+y,-z
-x,3/4+y,3/4+z
3/4+x,-y,3/4+z
x,1/2+y,1/2+z
1/4-x,3/4-y,1/2+z
x,3/4-y,3/4-z
1/4-x,1/2+y,3/4-z
-x,1/2-y,1/2-z
3/4+x,1/4+y,1/2-z
-x,1/4+y,1/4+z
3/4+x,1/2-y,1/4+z
1/2+x,y,1/2+z
3/4-x,1/4-y,1/2+z
1/2+x,1/4-y,3/4-z
3/4-x,y,3/4-z
1/2-x,-y,1/2-z
1/4+x,3/4+y,1/2-z
1/2-x,3/4+y,1/4+z
1/4+x,-y,1/4+z
1/2+x,1/2+y,z
3/4-x,3/4-y,z
1/2+x,3/4-y,1/4-z
3/4-x,1/2+y,1/4-z
1/2-x,1/2-y,-z
1/4+x,1/4+y,-z
1/2-x,1/4+y,3/4+z
1/4+x,1/2-y,3/4+z
loop_
_atom_site_type_symbol
_atom_site_label
_atom_site_fract_x
_atom_site_fract_y
_atom_site_fract_z
Si Si1 0.357369 0.147482 0.320149
Si Si2 0.062752 0.448652 0.973769
Si Si3 0.875000 0.875000 0.961713
Si Si4 0.786912 0.402739 0.551807
Si Si5 0.875000 0.875000 0.139022
O O1 0.375000 0.207649 0.375000
O O2 0.388147 0.208089 0.269976
O O3 0.284791 0.144276 0.311863
O O4 0.384712 0.003469 0.319576
O O5 0.053401 0.303647 0.953787
O O6 0.089907 0.527018 0.926012
O O7 0.000000 0.500000 0.000000
O O8 0.816551 0.849488 0.999143
O O9 0.822341 0.332798 0.598567
#
# Coordination Sequence:
#
# PCOD9515783 Si02
#       5
#    32  32  16  32  16
#     4  11  22  38  61  89 122 159 204 259 313 380
#     4  11  23  41  63  91 125 164 209 258 319 389
#     4   9  21  40  61  86 119 156 203 255 316 384
#     4  10  22  40  62  90 121 159 207 257 318 386
#     4  11  22  40  62  88 124 164 208 261 316 382
#
# _framework density 21.692817999999999
#
# number of rings (size 3 to 8) (size 9 to 14) (size 15 to 20)
#    0.000    1.500    0.000    4.875    0.000    2.000 
#    0.000   16.875    0.000    0.000    0.000    0.000 
#    0.000    0.000    0.000    0.000    0.000    0.000 
#
# Total GULP energy -178694.649292 kJ/mol
# GULP energy per Si atom -5584.207790 kJ/mol
# Density = 2.164344 g / cm^3
# Si number density = 21.692818 Si / 1000 Ang^3
#
#
#
# Elastic Constant Matrix: (Units=GPa)
#
#
# Indices 1 2 3 4 5 6 
#
# 1 168.4257 -18.3938 47.8404 0.0000 0.0000 0.0000
# 2 -18.3938 51.3854 6.6238 0.0000 0.0000 0.0000
# 3 47.8404 6.6238 140.2717 0.0000 0.0000 0.0000
# 4 0.0000 0.0000 0.0000 18.0679 0.0000 0.0000
# 5 0.0000 0.0000 0.0000 0.0000 13.5942 0.0000
# 6 0.0000 0.0000 0.0000 0.0000 0.0000 24.9622
#
#
#
# Elastic Compliance Matrix: (Units=1/GPa)
#
#
# Indices 1 2 3 4 5 6 
#
# 1 0.006956 0.002813 -0.002505 0.000000 0.000000 0.000000
# 2 0.002813 0.020717 -0.001938 0.000000 0.000000 0.000000
# 3 -0.002505 -0.001938 0.008075 0.000000 0.000000 0.000000
# 4 0.000000 0.000000 0.000000 0.055347 0.000000 0.000000
# 5 0.000000 0.000000 0.000000 0.000000 0.073561 0.000000
# 6 0.000000 0.000000 0.000000 0.000000 0.000000 0.040061
#
#
# Mechanical properties :
#
#
# Convention : Reuss Voigt Hill
#
# Bulk Modulus (GPa) = 30.78005 48.02485 39.40245
# Shear Modulus (GPa) = 22.85127 32.92568 27.88848
#
# Velocity S-wave (km/s) = 3.24914 3.90014 3.58943
# Velocity P-wave (km/s) = 5.31937 6.51676 5.94827
#
# Compressibility (1/GPa) = 0.03248857
#
# Stress axis : x y z
#
# Youngs Moduli (GPa) = 143.75777 48.26847 123.83968
#
# Poissons Ratio (x) = -0.13578 0.31025
# Poissons Ratio (y) = -0.40438 0.23996
# Poissons Ratio (z) = 0.36015 0.09353
#
# Static dielectric constant tensor:
#      x y z
#    x 1.764720 0.000000 0.000000 
#    y 0.000000 1.822670 0.000000 
#    z 0.000000 0.000000 1.779520 
# 
# From -- ./inp_files/18875.got.cif
#   From: 2010.05.17/outbox.cif.g08.bks.cpg/sg70_10_cif.got.tgz:18875.got - 2010.06.03 15:57:51.
