data_PCOD9515434
_publ_section_title
;
Structure prediction by ZEFSAII (Michael W. Deem and Ramdas Pophale) SiO2 
 PCOD9515434
Probable space group: F D D D
;
_chemical_formula_sum "Si O2"
_cell_formula_units_Z 144
_cell_length_a 21.899814
_cell_length_b 17.466412
_cell_length_c 17.499568
_cell_angle_alpha 90.000000
_cell_angle_beta 90.000000
_cell_angle_gamma 90.000000
_cell_volume 6693.780301
_symmetry_space_group_name_H-M "F D D D"
_symmetry_group_IT_number 70
_space_group.IT_coordinate_system_code '2'
_symmetry_cell_setting 'orthorhombic'
loop_
_space_group_symop_operation_xyz
x,y,z
1/4-x,1/4-y,z
x,1/4-y,1/4-z
1/4-x,y,1/4-z
-x,-y,-z
3/4+x,3/4+y,-z
-x,3/4+y,3/4+z
3/4+x,-y,3/4+z
x,1/2+y,1/2+z
1/4-x,3/4-y,1/2+z
x,3/4-y,3/4-z
1/4-x,1/2+y,3/4-z
-x,1/2-y,1/2-z
3/4+x,1/4+y,1/2-z
-x,1/4+y,1/4+z
3/4+x,1/2-y,1/4+z
1/2+x,y,1/2+z
3/4-x,1/4-y,1/2+z
1/2+x,1/4-y,3/4-z
3/4-x,y,3/4-z
1/2-x,-y,1/2-z
1/4+x,3/4+y,1/2-z
1/2-x,3/4+y,1/4+z
1/4+x,-y,1/4+z
1/2+x,1/2+y,z
3/4-x,3/4-y,z
1/2+x,3/4-y,1/4-z
3/4-x,1/2+y,1/4-z
1/2-x,1/2-y,-z
1/4+x,1/4+y,-z
1/2-x,1/4+y,3/4+z
1/4+x,1/2-y,3/4+z
loop_
_atom_site_type_symbol
_atom_site_label
_atom_site_fract_x
_atom_site_fract_y
_atom_site_fract_z
Si Si1 0.557650 0.943374 0.934072
Si Si2 0.988288 0.625000 0.625000
Si Si3 0.540095 0.464295 0.163886
Si Si4 0.148709 0.896519 0.233738
Si Si5 0.808024 0.896632 0.224862
O O1 0.571637 0.875000 0.875000
O O2 0.606765 0.928859 0.002627
O O3 0.563190 0.032660 0.914622
O O4 0.488653 0.928087 0.961459
O O5 0.945407 0.647329 0.696523
O O6 0.028406 0.550909 0.642064
O O7 0.594065 0.458705 0.226437
O O8 0.477538 0.426642 0.192481
O O9 0.563311 0.411847 0.093221
O O10 0.875000 0.875000 0.251520
#
# Coordination Sequence:
#
# PCOD9515434 Si02
#       5
#    32  16  32  32  32
#     4  10  21  39  63  88 126 171 209 272 328 380
#     4  12  22  43  70  98 135 180 226 278 346 406
#     4  10  24  42  65  99 135 178 222 280 347 400
#     4  10  22  42  63  93 136 170 221 282 329 404
#     4  10  22  39  60  93 125 165 222 264 324 397
#
# _framework density 21.512508
#
# number of rings (size 3 to 8) (size 9 to 14) (size 15 to 20)
#    0.000    1.778    1.111    2.000    0.000    7.556 
#    0.000    4.444    0.000    0.000    0.000    0.000 
#    0.000    0.000    0.000    0.000    0.000    0.000 
#
# Total GULP energy -200610.903737 kJ/mol
# GULP energy per Si atom -5572.525104 kJ/mol
# Density = 2.146355 g / cm^3
# Si number density = 21.512508 Si / 1000 Ang^3
#
#
#
# Elastic Constant Matrix: (Units=GPa)
#
#
# Indices 1 2 3 4 5 6 
#
# 1 99.6799 -1.2837 6.3962 0.0000 0.0000 0.0000
# 2 -1.2837 84.7506 -1.2747 0.0000 0.0000 0.0000
# 3 6.3962 -1.2747 59.9471 0.0000 0.0000 0.0000
# 4 0.0000 0.0000 0.0000 17.0261 0.0000 0.0000
# 5 0.0000 0.0000 0.0000 0.0000 32.7172 0.0000
# 6 0.0000 0.0000 0.0000 0.0000 0.0000 4.8504
#
#
#
# Elastic Compliance Matrix: (Units=1/GPa)
#
#
# Indices 1 2 3 4 5 6 
#
# 1 0.010103 0.000137 -0.001075 0.000000 0.000000 0.000000
# 2 0.000137 0.011805 0.000236 0.000000 0.000000 0.000000
# 3 -0.001075 0.000236 0.016801 0.000000 0.000000 0.000000
# 4 0.000000 0.000000 0.000000 0.058733 0.000000 0.000000
# 5 0.000000 0.000000 0.000000 0.000000 0.030565 0.000000
# 6 0.000000 0.000000 0.000000 0.000000 0.000000 0.206167
#
#
# Mechanical properties :
#
#
# Convention : Reuss Voigt Hill
#
# Bulk Modulus (GPa) = 26.80577 28.00590 27.40584
# Shear Modulus (GPa) = 14.36727 26.95474 20.66101
#
# Velocity S-wave (km/s) = 2.58710 3.54359 3.10242
# Velocity P-wave (km/s) = 4.62728 5.45796 5.05970
#
# Compressibility (1/GPa) = 0.03730540
#
# Stress axis : x y z
#
# Youngs Moduli (GPa) = 98.98186 84.71018 59.51990
#
# Poissons Ratio (x) = -0.01159 0.06399
# Poissons Ratio (y) = -0.01355 -0.01407
# Poissons Ratio (z) = 0.10641 -0.02003
#
# Static dielectric constant tensor:
#      x y z
#    x 1.775420 0.000000 0.000000 
#    y 0.000000 1.796000 0.000000 
#    z 0.000000 0.000000 1.910060 
# 
# From -- ./inp_files/45785.got.cif
#   From: 2010.05.17/outbox.cif.g08.bks.cpg/sg70_23_cif.got.tgz:45785.got - 2010.06.03 15:57:51.
