data_PCOD9515271
_publ_section_title
;
Structure prediction by ZEFSAII (Michael W. Deem and Ramdas Pophale) SiO2 
 PCOD9515271
Probable space group: F D D D
;
_chemical_formula_sum "Si O2"
_cell_formula_units_Z 208
_cell_length_a 19.141996
_cell_length_b 17.407577
_cell_length_c 24.142629
_cell_angle_alpha 90.000000
_cell_angle_beta 90.000000
_cell_angle_gamma 90.000000
_cell_volume 8044.704695
_symmetry_space_group_name_H-M "F D D D"
_symmetry_group_IT_number 70
_space_group.IT_coordinate_system_code '2'
_symmetry_cell_setting 'orthorhombic'
loop_
_space_group_symop_operation_xyz
x,y,z
1/4-x,1/4-y,z
x,1/4-y,1/4-z
1/4-x,y,1/4-z
-x,-y,-z
3/4+x,3/4+y,-z
-x,3/4+y,3/4+z
3/4+x,-y,3/4+z
x,1/2+y,1/2+z
1/4-x,3/4-y,1/2+z
x,3/4-y,3/4-z
1/4-x,1/2+y,3/4-z
-x,1/2-y,1/2-z
3/4+x,1/4+y,1/2-z
-x,1/4+y,1/4+z
3/4+x,1/2-y,1/4+z
1/2+x,y,1/2+z
3/4-x,1/4-y,1/2+z
1/2+x,1/4-y,3/4-z
3/4-x,y,3/4-z
1/2-x,-y,1/2-z
1/4+x,3/4+y,1/2-z
1/2-x,3/4+y,1/4+z
1/4+x,-y,1/4+z
1/2+x,1/2+y,z
3/4-x,3/4-y,z
1/2+x,3/4-y,1/4-z
3/4-x,1/2+y,1/4-z
1/2-x,1/2-y,-z
1/4+x,1/4+y,-z
1/2-x,1/4+y,3/4+z
1/4+x,1/2-y,3/4+z
loop_
_atom_site_type_symbol
_atom_site_label
_atom_site_fract_x
_atom_site_fract_y
_atom_site_fract_z
Si Si1 0.925407 0.651092 0.686026
Si Si2 0.875000 0.375000 0.754591
Si Si3 0.983651 0.439198 0.129973
Si Si4 0.365155 0.290981 0.733368
Si Si5 0.016108 0.410171 0.930881
Si Si6 0.910652 0.208061 0.974571
Si Si7 0.929733 0.077912 0.825238
O O1 0.950369 0.625000 0.625000
O O2 0.928693 0.737662 0.709515
O O3 0.841282 0.631612 0.685850
O O4 0.953901 0.597023 0.734549
O O5 0.953462 0.353712 0.777493
O O6 0.895491 0.464322 0.742871
O O7 0.925227 0.441691 0.176377
O O8 0.969803 0.501341 0.082921
O O9 0.049515 0.467926 0.166680
O O10 0.999124 0.355519 0.104556
O O11 0.375000 0.375000 0.759037
O O12 0.326874 0.237446 0.779175
O O13 0.984633 0.375000 0.875000
O O14 0.844820 0.157289 0.954698
O O15 0.875000 0.060843 0.875000
#
# Coordination Sequence:
#
# PCOD9515271 Si02
#       7
#    32  16  32  32  32  32  32
#     4  10  21  43  56  84 134 176 207 266 340 383
#     4  12  19  30  56 100 130 170 218 254 301 412
#     4  11  20  41  64  97 128 170 213 275 330 397
#     4  11  23  43  68  91 125 178 220 268 335 399
#     4  11  19  32  62  89 137 172 203 254 336 390
#     4  10  21  34  60  90 129 172 217 262 324 392
#     4   9  21  41  65  91 127 167 219 272 324 376
#
# _framework density 25.855516999999999
#
# number of rings (size 3 to 8) (size 9 to 14) (size 15 to 20)
#    0.000    1.538    6.154    0.231    0.000    0.923 
#    6.923    6.923    0.000    0.000    0.000    0.000 
#    0.000    0.000    0.000    0.000    0.000    0.000 
#
# Total GULP energy -289850.180673 kJ/mol
# GULP energy per Si atom -5574.041936 kJ/mol
# Density = 2.579667 g / cm^3
# Si number density = 25.855517 Si / 1000 Ang^3
#
#
#
# Elastic Constant Matrix: (Units=GPa)
#
#
# Indices 1 2 3 4 5 6 
#
# 1 50.2714 20.9556 15.6055 0.0000 0.0000 0.0000
# 2 20.9556 197.8361 61.8733 0.0000 0.0000 0.0000
# 3 15.6055 61.8733 129.1805 0.0000 0.0000 0.0000
# 4 0.0000 0.0000 0.0000 36.2200 0.0000 0.0000
# 5 0.0000 0.0000 0.0000 0.0000 14.5183 0.0000
# 6 0.0000 0.0000 0.0000 0.0000 0.0000 21.7836
#
#
#
# Elastic Compliance Matrix: (Units=1/GPa)
#
#
# Indices 1 2 3 4 5 6 
#
# 1 0.021139 -0.001694 -0.001742 0.000000 0.000000 0.000000
# 2 -0.001694 0.006081 -0.002708 0.000000 0.000000 0.000000
# 3 -0.001742 -0.002708 0.009249 0.000000 0.000000 0.000000
# 4 0.000000 0.000000 0.000000 0.027609 0.000000 0.000000
# 5 0.000000 0.000000 0.000000 0.000000 0.068879 0.000000
# 6 0.000000 0.000000 0.000000 0.000000 0.000000 0.045906
#
#
# Mechanical properties :
#
#
# Convention : Reuss Voigt Hill
#
# Bulk Modulus (GPa) = 41.35658 63.79518 52.57588
# Shear Modulus (GPa) = 25.09898 33.09463 29.09680
#
# Velocity S-wave (km/s) = 3.11905 3.58157 3.35828
# Velocity P-wave (km/s) = 5.38528 6.46767 5.95114
#
# Compressibility (1/GPa) = 0.02417995
#
# Stress axis : x y z
#
# Youngs Moduli (GPa) = 47.30568 164.44480 108.12452
#
# Poissons Ratio (x) = 0.27861 0.18837
# Poissons Ratio (y) = 0.08015 0.29280
# Poissons Ratio (z) = 0.08241 0.44531
#
# Static dielectric constant tensor:
#      x y z
#    x 2.088700 0.000000 0.000000 
#    y 0.000000 2.085390 0.000000 
#    z 0.000000 0.000000 2.126560 
# 
# From -- ./inp_files/61249.got.cif
#   From: 2010.05.17/outbox.cif.g08.bks.cpg/sg70_31_cif.got.tgz:61249.got - 2010.06.03 15:57:51.
