data_PCOD9515761
_publ_section_title
;
Structure prediction by ZEFSAII (Michael W. Deem and Ramdas Pophale) SiO2 
 PCOD9515761
Probable space group: F D D D
;
_chemical_formula_sum "Si O2"
_cell_formula_units_Z 160
_cell_length_a 24.475492
_cell_length_b 13.770004
_cell_length_c 24.286244
_cell_angle_alpha 90.000000
_cell_angle_beta 90.000000
_cell_angle_gamma 90.000000
_cell_volume 8185.135081
_symmetry_space_group_name_H-M "F D D D"
_symmetry_group_IT_number 70
_space_group.IT_coordinate_system_code '2'
_symmetry_cell_setting 'orthorhombic'
loop_
_space_group_symop_operation_xyz
x,y,z
1/4-x,1/4-y,z
x,1/4-y,1/4-z
1/4-x,y,1/4-z
-x,-y,-z
3/4+x,3/4+y,-z
-x,3/4+y,3/4+z
3/4+x,-y,3/4+z
x,1/2+y,1/2+z
1/4-x,3/4-y,1/2+z
x,3/4-y,3/4-z
1/4-x,1/2+y,3/4-z
-x,1/2-y,1/2-z
3/4+x,1/4+y,1/2-z
-x,1/4+y,1/4+z
3/4+x,1/2-y,1/4+z
1/2+x,y,1/2+z
3/4-x,1/4-y,1/2+z
1/2+x,1/4-y,3/4-z
3/4-x,y,3/4-z
1/2-x,-y,1/2-z
1/4+x,3/4+y,1/2-z
1/2-x,3/4+y,1/4+z
1/4+x,-y,1/4+z
1/2+x,1/2+y,z
3/4-x,3/4-y,z
1/2+x,3/4-y,1/4-z
3/4-x,1/2+y,1/4-z
1/2-x,1/2-y,-z
1/4+x,1/4+y,-z
1/2-x,1/4+y,3/4+z
1/4+x,1/2-y,3/4+z
loop_
_atom_site_type_symbol
_atom_site_label
_atom_site_fract_x
_atom_site_fract_y
_atom_site_fract_z
Si Si1 0.536665 0.276122 0.902962
Si Si2 0.265657 0.736931 0.231043
Si Si3 0.354318 0.480816 0.436930
Si Si4 0.368425 0.625214 0.030891
Si Si5 0.798110 0.951421 0.714019
O O1 0.512427 0.375000 0.875000
O O2 0.596290 0.310753 0.925750
O O3 0.539173 0.204845 0.851692
O O4 0.504959 0.233343 0.955327
O O5 0.210868 0.738110 0.194643
O O6 0.305987 0.653355 0.210125
O O7 0.297547 0.839237 0.229053
O O8 0.375000 0.491531 0.375000
O O9 0.375000 0.375000 0.456689
O O10 0.378346 0.565035 0.474744
O O11 0.401666 0.524161 0.026034
O O12 0.750000 0.000000 0.750000
#
# Coordination Sequence:
#
# PCOD9515761 Si02
#       5
#    32  32  32  32  32
#     4   9  19  38  58  91 131 164 207 269 319 382
#     4  11  22  39  69  94 130 177 212 275 335 388
#     4  10  23  44  61  90 131 168 222 273 315 393
#     4  10  22  39  64  95 128 163 222 263 333 397
#     4  11  19  39  65  96 134 164 211 274 327 391
#
# _framework density 19.547630999999999
#
# number of rings (size 3 to 8) (size 9 to 14) (size 15 to 20)
#    0.000    1.800    6.000    0.600    2.800    0.800 
#   10.800   20.000    0.000    0.000    0.000    0.000 
#    0.000    0.000    0.000    0.000    0.000    0.000 
#
# Total GULP energy -222926.167491 kJ/mol
# GULP energy per Si atom -5573.154187 kJ/mol
# Density = 1.950314 g / cm^3
# Si number density = 19.547631 Si / 1000 Ang^3
#
#
#
# Elastic Constant Matrix: (Units=GPa)
#
#
# Indices 1 2 3 4 5 6 
#
# 1 55.2304 13.0050 46.7414 0.0000 0.0000 0.0000
# 2 13.0050 35.8542 36.2063 0.0000 0.0000 0.0000
# 3 46.7414 36.2063 119.6404 0.0000 0.0000 0.0000
# 4 0.0000 0.0000 0.0000 -3.8715 0.0000 0.0000
# 5 0.0000 0.0000 0.0000 0.0000 0.6592 0.0000
# 6 0.0000 0.0000 0.0000 0.0000 0.0000 25.9773
#
#
#
# Elastic Compliance Matrix: (Units=1/GPa)
#
#
# Indices 1 2 3 4 5 6 
#
# 1 0.027088 0.001241 -0.010958 0.000000 0.000000 0.000000
# 2 0.001241 0.040222 -0.012657 0.000000 0.000000 0.000000
# 3 -0.010958 -0.012657 0.016470 0.000000 0.000000 0.000000
# 4 0.000000 0.000000 0.000000 -0.258299 0.000000 0.000000
# 5 0.000000 0.000000 0.000000 0.000000 1.517097 0.000000
# 6 0.000000 0.000000 0.000000 0.000000 0.000000 0.038495
#
#
# Mechanical properties :
#
#
# Convention : Reuss Voigt Hill
#
# Bulk Modulus (GPa) = 25.62091 44.73672 35.17882
# Shear Modulus (GPa) = 3.47504 12.20448 7.83976
#
# Velocity S-wave (km/s) = 1.33476 2.50140 2.00482
# Velocity P-wave (km/s) = 3.93838 5.59271 4.83680
#
# Compressibility (1/GPa) = 0.03903062
#
# Stress axis : x y z
#
# Youngs Moduli (GPa) = 36.91710 24.86199 60.71703
#
# Poissons Ratio (x) = -0.03084 0.66534
# Poissons Ratio (y) = -0.04580 0.76849
# Poissons Ratio (z) = 0.40454 0.31468
#
# Static dielectric constant tensor:
#      x y z
#    x 1.723050 0.000000 0.000000 
#    y 0.000000 1.669960 0.000000 
#    z 0.000000 0.000000 1.705330 
# 
# From -- ./inp_files/29932.got.cif
#   From: 2010.05.17/outbox.cif.g08.bks.cpg/sg70_15_cif.got.tgz:29932.got - 2010.06.03 15:57:51.
