data_PCOD9515213
_publ_section_title
;
Structure prediction by ZEFSAII (Michael W. Deem and Ramdas Pophale) SiO2 
 PCOD9515213
Probable space group: F D D D
;
_chemical_formula_sum "Si O2"
_cell_formula_units_Z 240
_cell_length_a 27.107331
_cell_length_b 20.356959
_cell_length_c 19.539705
_cell_angle_alpha 90.000000
_cell_angle_beta 90.000000
_cell_angle_gamma 90.000000
_cell_volume 10782.455228
_symmetry_space_group_name_H-M "F D D D"
_symmetry_group_IT_number 70
_space_group.IT_coordinate_system_code '2'
_symmetry_cell_setting 'orthorhombic'
loop_
_space_group_symop_operation_xyz
x,y,z
1/4-x,1/4-y,z
x,1/4-y,1/4-z
1/4-x,y,1/4-z
-x,-y,-z
3/4+x,3/4+y,-z
-x,3/4+y,3/4+z
3/4+x,-y,3/4+z
x,1/2+y,1/2+z
1/4-x,3/4-y,1/2+z
x,3/4-y,3/4-z
1/4-x,1/2+y,3/4-z
-x,1/2-y,1/2-z
3/4+x,1/4+y,1/2-z
-x,1/4+y,1/4+z
3/4+x,1/2-y,1/4+z
1/2+x,y,1/2+z
3/4-x,1/4-y,1/2+z
1/2+x,1/4-y,3/4-z
3/4-x,y,3/4-z
1/2-x,-y,1/2-z
1/4+x,3/4+y,1/2-z
1/2-x,3/4+y,1/4+z
1/4+x,-y,1/4+z
1/2+x,1/2+y,z
3/4-x,3/4-y,z
1/2+x,3/4-y,1/4-z
3/4-x,1/2+y,1/4-z
1/2-x,1/2-y,-z
1/4+x,1/4+y,-z
1/2-x,1/4+y,3/4+z
1/4+x,1/2-y,3/4+z
loop_
_atom_site_type_symbol
_atom_site_label
_atom_site_fract_x
_atom_site_fract_y
_atom_site_fract_z
Si Si1 0.219339 0.679433 0.067458
Si Si2 0.598749 0.542588 0.049743
Si Si3 0.166859 0.829886 0.942283
Si Si4 0.985799 0.191460 0.898664
Si Si5 0.921207 0.602171 0.485960
Si Si6 0.415225 0.928080 0.070222
Si Si7 0.983901 0.125000 0.125000
Si Si8 0.798108 0.431000 0.475393
O O1 0.214824 0.625000 0.125000
O O2 0.275384 0.675794 0.037804
O O3 0.215222 0.749044 0.105032
O O4 0.179540 0.670321 0.009064
O O5 0.625000 0.553148 0.125000
O O6 0.575741 0.472562 0.037935
O O7 0.564966 0.603275 0.024705
O O8 0.649815 0.537301 0.007424
O O9 0.164980 0.875000 0.875000
O O10 0.150741 0.755211 0.923404
O O11 0.131630 0.865089 0.996967
O O12 0.033983 0.164610 0.860259
O O13 0.945115 0.141128 0.923016
O O14 0.009859 0.211203 0.971529
O O15 0.951592 0.609155 0.557925
O O16 0.375000 0.875000 0.091237
O O17 0.020228 0.183182 0.097933
#
# Coordination Sequence:
#
# PCOD9515213 Si02
#       8
#    32  32  32  32  32  32  16  32
#     4  10  24  47  73  99 137 188 230 295 364 418
#     4  11  23  40  64  96 133 186 232 279 354 413
#     4  10  22  44  71  97 143 184 231 285 359 415
#     4  10  24  43  65 103 140 178 231 294 350 423
#     4  11  25  40  68 107 136 185 230 300 340 431
#     4  11  26  47  73 105 136 188 236 295 350 437
#     4  10  20  43  62  94 140 174 231 282 352 402
#     4  10  21  42  66  91 138 185 226 282 343 429
#
# _framework density 22.258382000000001
#
# number of rings (size 3 to 8) (size 9 to 14) (size 15 to 20)
#    0.000    1.600    2.000    2.000    9.333    4.533 
#    2.400    0.000    0.000    0.000    0.000    0.000 
#    0.000    0.000    0.000    0.000    0.000    0.000 
#
# Total GULP energy -334758.598570 kJ/mol
# GULP energy per Si atom -5579.309976 kJ/mol
# Density = 2.220772 g / cm^3
# Si number density = 22.258382 Si / 1000 Ang^3
#
#
#
# Elastic Constant Matrix: (Units=GPa)
#
#
# Indices 1 2 3 4 5 6 
#
# 1 33.9037 36.9085 10.2647 0.0000 0.0000 0.0000
# 2 36.9085 106.8218 28.6182 0.0000 0.0000 0.0000
# 3 10.2647 28.6182 82.3324 0.0000 0.0000 0.0000
# 4 0.0000 0.0000 0.0000 22.6403 0.0000 0.0000
# 5 0.0000 0.0000 0.0000 0.0000 -43.3965 0.0000
# 6 0.0000 0.0000 0.0000 0.0000 0.0000 19.7930
#
#
#
# Elastic Compliance Matrix: (Units=1/GPa)
#
#
# Indices 1 2 3 4 5 6 
#
# 1 0.047283 -0.016273 -0.000239 0.000000 0.000000 0.000000
# 2 -0.016273 0.015923 -0.003506 0.000000 0.000000 0.000000
# 3 -0.000239 -0.003506 0.013394 0.000000 0.000000 0.000000
# 4 0.000000 0.000000 0.000000 0.044169 0.000000 0.000000
# 5 0.000000 0.000000 0.000000 0.000000 -0.023043 0.000000
# 6 0.000000 0.000000 0.000000 0.000000 0.000000 0.050523
#
#
# Mechanical properties :
#
#
# Convention : Reuss Voigt Hill
#
# Bulk Modulus (GPa) = 27.34839 41.62676 34.48757
# Shear Modulus (GPa) = 24.94108 9.62512 17.28310
#
# Velocity S-wave (km/s) = 3.35106 2.08174 2.78956
# Velocity P-wave (km/s) = 5.22362 4.95181 5.08953
#
# Compressibility (1/GPa) = 0.03656523
#
# Stress axis : x y z
#
# Youngs Moduli (GPa) = 21.14932 62.80132 74.65867
#
# Poissons Ratio (x) = 1.02197 0.01781
# Poissons Ratio (y) = 0.34416 0.26175
# Poissons Ratio (z) = 0.00505 0.22018
#
# Static dielectric constant tensor:
#      x y z
#    x 1.924340 0.000000 0.000000 
#    y 0.000000 2.072860 0.000000 
#    z 0.000000 0.000000 1.925010 
# 
# From -- ./inp_files/47833.got.cif
#   From: 2010.05.17/outbox.cif.g08.bks.cpg/sg70_24_cif.got.tgz:47833.got - 2010.06.03 15:57:51.
