data_PCOD9515341
_publ_section_title
;
Structure prediction by ZEFSAII (Michael W. Deem and Ramdas Pophale) SiO2 
 PCOD9515341
Probable space group: F D D D
;
_chemical_formula_sum "Si O2"
_cell_formula_units_Z 208
_cell_length_a 28.868646
_cell_length_b 18.108015
_cell_length_c 18.029070
_cell_angle_alpha 90.000000
_cell_angle_beta 90.000000
_cell_angle_gamma 90.000000
_cell_volume 9424.766201
_symmetry_space_group_name_H-M "F D D D"
_symmetry_group_IT_number 70
_space_group.IT_coordinate_system_code '2'
_symmetry_cell_setting 'orthorhombic'
loop_
_space_group_symop_operation_xyz
x,y,z
1/4-x,1/4-y,z
x,1/4-y,1/4-z
1/4-x,y,1/4-z
-x,-y,-z
3/4+x,3/4+y,-z
-x,3/4+y,3/4+z
3/4+x,-y,3/4+z
x,1/2+y,1/2+z
1/4-x,3/4-y,1/2+z
x,3/4-y,3/4-z
1/4-x,1/2+y,3/4-z
-x,1/2-y,1/2-z
3/4+x,1/4+y,1/2-z
-x,1/4+y,1/4+z
3/4+x,1/2-y,1/4+z
1/2+x,y,1/2+z
3/4-x,1/4-y,1/2+z
1/2+x,1/4-y,3/4-z
3/4-x,y,3/4-z
1/2-x,-y,1/2-z
1/4+x,3/4+y,1/2-z
1/2-x,3/4+y,1/4+z
1/4+x,-y,1/4+z
1/2+x,1/2+y,z
3/4-x,3/4-y,z
1/2+x,3/4-y,1/4-z
3/4-x,1/2+y,1/4-z
1/2-x,1/2-y,-z
1/4+x,1/4+y,-z
1/2-x,1/4+y,3/4+z
1/4+x,1/2-y,3/4+z
loop_
_atom_site_type_symbol
_atom_site_label
_atom_site_fract_x
_atom_site_fract_y
_atom_site_fract_z
Si Si1 0.791603 0.275927 0.938804
Si Si2 0.168699 0.749048 0.783515
Si Si3 0.783421 0.125000 0.125000
Si Si4 0.768083 0.226045 0.359943
Si Si5 0.337518 0.591817 0.768291
Si Si6 0.039759 0.087910 0.412170
Si Si7 0.717099 0.875000 0.875000
Si Si8 0.125000 0.289902 0.625000
O O1 0.752754 0.337988 0.930424
O O2 0.759960 0.204358 0.920420
O O3 0.831631 0.264149 0.880383
O O4 0.814471 0.298009 0.017534
O O5 0.185229 0.816632 0.834645
O O6 0.200454 0.753153 0.710653
O O7 0.117031 0.770402 0.758279
O O8 0.182418 0.680671 0.836646
O O9 0.799723 0.184627 0.421145
O O10 0.725376 0.172826 0.336835
O O11 0.747708 0.302678 0.388499
O O12 0.313858 0.630639 0.698414
O O13 0.370782 0.653068 0.806476
#
# Coordination Sequence:
#
# PCOD9515341 Si02
#       8
#    32  32  16  32  32  32  16  16
#     4  10  21  37  63 104 140 179 215 272 340 420
#     4  11  22  39  72 100 133 176 230 279 344 410
#     4  10  21  37  64 104 143 181 220 268 345 435
#     4  12  23  50  67  99 131 185 228 282 345 406
#     4  12  25  46  68 101 133 179 226 288 340 397
#     4  10  21  39  69 100 136 176 226 273 338 417
#     4  12  31  44  73  94 135 179 236 287 336 415
#     4  12  24  39  68 101 146 176 220 278 346 409
#
# _framework density 22.069513000000001
#
# number of rings (size 3 to 8) (size 9 to 14) (size 15 to 20)
#    0.000    0.923    4.615    1.846    8.615    0.308 
#    0.000    3.846    0.000    0.000    0.000    0.000 
#    0.000    0.000    0.000    0.000    0.000    0.000 
#
# Total GULP energy -290052.143888 kJ/mol
# GULP energy per Si atom -5577.925844 kJ/mol
# Density = 2.201928 g / cm^3
# Si number density = 22.069513 Si / 1000 Ang^3
#
#
#
# Elastic Constant Matrix: (Units=GPa)
#
#
# Indices 1 2 3 4 5 6 
#
# 1 33.3624 2.8686 2.0471 0.0000 0.0000 0.0000
# 2 2.8686 57.3693 -14.8799 0.0000 0.0000 0.0000
# 3 2.0471 -14.8799 87.5534 0.0000 0.0000 0.0000
# 4 0.0000 0.0000 0.0000 20.7850 0.0000 0.0000
# 5 0.0000 0.0000 0.0000 0.0000 29.7660 0.0000
# 6 0.0000 0.0000 0.0000 0.0000 0.0000 24.4142
#
#
#
# Elastic Compliance Matrix: (Units=1/GPa)
#
#
# Indices 1 2 3 4 5 6 
#
# 1 0.030188 -0.001771 -0.001007 0.000000 0.000000 0.000000
# 2 -0.001771 0.018339 0.003158 0.000000 0.000000 0.000000
# 3 -0.001007 0.003158 0.011982 0.000000 0.000000 0.000000
# 4 0.000000 0.000000 0.000000 0.048112 0.000000 0.000000
# 5 0.000000 0.000000 0.000000 0.000000 0.033595 0.000000
# 6 0.000000 0.000000 0.000000 0.000000 0.000000 0.040960
#
#
# Mechanical properties :
#
#
# Convention : Reuss Voigt Hill
#
# Bulk Modulus (GPa) = 16.32123 17.59517 16.95820
# Shear Modulus (GPa) = 24.65036 27.54299 26.09668
#
# Velocity S-wave (km/s) = 3.34569 3.53655 3.44245
# Velocity P-wave (km/s) = 4.72613 4.96651 4.84781
#
# Compressibility (1/GPa) = 0.06126989
#
# Stress axis : x y z
#
# Youngs Moduli (GPa) = 33.12588 54.52986 83.45942
#
# Poissons Ratio (x) = 0.09655 0.08402
# Poissons Ratio (y) = 0.05865 -0.26357
# Poissons Ratio (z) = 0.03335 -0.17221
#
# Static dielectric constant tensor:
#      x y z
#    x 1.795080 0.000000 0.000000 
#    y 0.000000 1.914790 0.000000 
#    z 0.000000 0.000000 1.897020 
# 
# From -- ./inp_files/38778.got.cif
#   From: 2010.05.17/outbox.cif.g08.bks.cpg/sg70_20_cif.got.tgz:38778.got - 2010.06.03 15:57:51.
