data_PCOD9515437
_publ_section_title
;
Structure prediction by ZEFSAII (Michael W. Deem and Ramdas Pophale) SiO2 
 PCOD9515437
Probable space group: F D D D
;
_chemical_formula_sum "Si O2"
_cell_formula_units_Z 176
_cell_length_a 15.820935
_cell_length_b 21.290254
_cell_length_c 26.693955
_cell_angle_alpha 90.000000
_cell_angle_beta 90.000000
_cell_angle_gamma 90.000000
_cell_volume 8991.370901
_symmetry_space_group_name_H-M "F D D D"
_symmetry_group_IT_number 70
_space_group.IT_coordinate_system_code '2'
_symmetry_cell_setting 'orthorhombic'
loop_
_space_group_symop_operation_xyz
x,y,z
1/4-x,1/4-y,z
x,1/4-y,1/4-z
1/4-x,y,1/4-z
-x,-y,-z
3/4+x,3/4+y,-z
-x,3/4+y,3/4+z
3/4+x,-y,3/4+z
x,1/2+y,1/2+z
1/4-x,3/4-y,1/2+z
x,3/4-y,3/4-z
1/4-x,1/2+y,3/4-z
-x,1/2-y,1/2-z
3/4+x,1/4+y,1/2-z
-x,1/4+y,1/4+z
3/4+x,1/2-y,1/4+z
1/2+x,y,1/2+z
3/4-x,1/4-y,1/2+z
1/2+x,1/4-y,3/4-z
3/4-x,y,3/4-z
1/2-x,-y,1/2-z
1/4+x,3/4+y,1/2-z
1/2-x,3/4+y,1/4+z
1/4+x,-y,1/4+z
1/2+x,1/2+y,z
3/4-x,3/4-y,z
1/2+x,3/4-y,1/4-z
3/4-x,1/2+y,1/4-z
1/2-x,1/2-y,-z
1/4+x,1/4+y,-z
1/2-x,1/4+y,3/4+z
1/4+x,1/2-y,3/4+z
loop_
_atom_site_type_symbol
_atom_site_label
_atom_site_fract_x
_atom_site_fract_y
_atom_site_fract_z
Si Si1 0.049809 0.432488 0.559534
Si Si2 0.064053 0.273325 0.816260
Si Si3 0.300320 0.825237 0.456181
Si Si4 0.662264 0.875000 0.875000
Si Si5 0.057704 0.079399 0.843455
Si Si6 0.189921 0.828917 0.044019
O O1 0.084715 0.503668 0.551292
O O2 0.108605 0.369997 0.560066
O O3 0.986951 0.422737 0.512559
O O4 0.006570 0.438911 0.613502
O O5 0.096983 0.321940 0.856869
O O6 0.141099 0.224649 0.817184
O O7 0.063816 0.307547 0.763048
O O8 0.977426 0.232769 0.822979
O O9 0.375000 0.875000 0.449461
O O10 0.224456 0.845516 0.417840
O O11 0.125000 0.125000 0.870065
O O12 0.012555 0.119897 0.801463
#
# Coordination Sequence:
#
# PCOD9515437 Si02
#       6
#    32  32  32  16  32  32
#     4  11  22  40  61  97 131 168 219 264 326 389
#     4  10  22  42  62  93 126 176 218 267 335 386
#     4  11  25  38  62  98 136 173 208 266 333 407
#     4  12  21  42  66  94 135 176 212 274 333 404
#     4  10  21  39  64  90 125 165 213 271 326 383
#     4  10  22  39  64  90 125 171 223 263 318 398
#
# _framework density 19.574323
#
# number of rings (size 3 to 8) (size 9 to 14) (size 15 to 20)
#    0.000    1.455    3.636    1.364    2.545    1.455 
#    0.000    5.455    0.000    2.182    0.000    0.000 
#    0.000    0.000    0.000    0.000    0.000    0.000 
#
# Total GULP energy -244978.033768 kJ/mol
# GULP energy per Si atom -5567.682586 kJ/mol
# Density = 1.952977 g / cm^3
# Si number density = 19.574323 Si / 1000 Ang^3
#
#
#
# Elastic Constant Matrix: (Units=GPa)
#
#
# Indices 1 2 3 4 5 6 
#
# 1 83.0948 59.1889 41.9414 0.0000 0.0000 0.0000
# 2 59.1889 116.3818 54.3217 0.0000 0.0000 0.0000
# 3 41.9414 54.3217 87.2618 0.0000 0.0000 0.0000
# 4 0.0000 0.0000 0.0000 20.2286 0.0000 0.0000
# 5 0.0000 0.0000 0.0000 0.0000 19.6199 0.0000
# 6 0.0000 0.0000 0.0000 0.0000 0.0000 29.2836
#
#
#
# Elastic Compliance Matrix: (Units=1/GPa)
#
#
# Indices 1 2 3 4 5 6 
#
# 1 0.020128 -0.008064 -0.004654 0.000000 0.000000 0.000000
# 2 -0.008064 0.015342 -0.005675 0.000000 0.000000 0.000000
# 3 -0.004654 -0.005675 0.017229 0.000000 0.000000 0.000000
# 4 0.000000 0.000000 0.000000 0.049435 0.000000 0.000000
# 5 0.000000 0.000000 0.000000 0.000000 0.050969 0.000000
# 6 0.000000 0.000000 0.000000 0.000000 0.000000 0.034149
#
#
# Mechanical properties :
#
#
# Convention : Reuss Voigt Hill
#
# Bulk Modulus (GPa) = 62.84092 66.40472 64.62282
# Shear Modulus (GPa) = 21.80143 22.57885 22.19014
#
# Velocity S-wave (km/s) = 3.34095 3.40000 3.37060
# Velocity P-wave (km/s) = 6.85974 7.02932 6.94505
#
# Compressibility (1/GPa) = 0.01591320
#
# Stress axis : x y z
#
# Youngs Moduli (GPa) = 49.68285 65.17881 58.04011
#
# Poissons Ratio (x) = 0.52561 0.27013
# Poissons Ratio (y) = 0.40065 0.32938
# Poissons Ratio (z) = 0.23123 0.36989
#
# Static dielectric constant tensor:
#      x y z
#    x 1.729490 0.000000 0.000000 
#    y 0.000000 4.249220 0.000000 
#    z 0.000000 0.000000 1.658710 
# 
# From -- ./inp_files/58593.got.cif
#   From: 2010.05.17/outbox.cif.g08.bks.cpg/sg70_30_cif.got.tgz:58593.got - 2010.06.03 15:57:51.
