data_PCOD9516328
_publ_section_title
;
Structure prediction by ZEFSAII (Michael W. Deem and Ramdas Pophale) SiO2 
 PCOD9516328
Probable space group: F D D D
;
_chemical_formula_sum "Si O2"
_cell_formula_units_Z 112
_cell_length_a 24.875502
_cell_length_b 31.379844
_cell_length_c 6.505673
_cell_angle_alpha 90.000000
_cell_angle_beta 90.000000
_cell_angle_gamma 90.000000
_cell_volume 5078.259203
_symmetry_space_group_name_H-M "F D D D"
_symmetry_group_IT_number 70
_space_group.IT_coordinate_system_code '2'
_symmetry_cell_setting 'orthorhombic'
loop_
_space_group_symop_operation_xyz
x,y,z
1/4-x,1/4-y,z
x,1/4-y,1/4-z
1/4-x,y,1/4-z
-x,-y,-z
3/4+x,3/4+y,-z
-x,3/4+y,3/4+z
3/4+x,-y,3/4+z
x,1/2+y,1/2+z
1/4-x,3/4-y,1/2+z
x,3/4-y,3/4-z
1/4-x,1/2+y,3/4-z
-x,1/2-y,1/2-z
3/4+x,1/4+y,1/2-z
-x,1/4+y,1/4+z
3/4+x,1/2-y,1/4+z
1/2+x,y,1/2+z
3/4-x,1/4-y,1/2+z
1/2+x,1/4-y,3/4-z
3/4-x,y,3/4-z
1/2-x,-y,1/2-z
1/4+x,3/4+y,1/2-z
1/2-x,3/4+y,1/4+z
1/4+x,-y,1/4+z
1/2+x,1/2+y,z
3/4-x,3/4-y,z
1/2+x,3/4-y,1/4-z
3/4-x,1/2+y,1/4-z
1/2-x,1/2-y,-z
1/4+x,1/4+y,-z
1/2-x,1/4+y,3/4+z
1/4+x,1/2-y,3/4+z
loop_
_atom_site_type_symbol
_atom_site_label
_atom_site_fract_x
_atom_site_fract_y
_atom_site_fract_z
Si Si1 0.434553 0.663621 0.968854
Si Si2 0.625000 0.191192 0.625000
Si Si3 0.571549 0.009290 0.263494
Si Si4 0.705045 0.663507 0.486213
O O1 0.375000 0.665592 0.875000
O O2 0.484566 0.652716 0.825819
O O3 0.432599 0.625000 0.125000
O O4 0.448964 0.711444 0.047431
O O5 0.662798 0.219600 0.478669
O O6 0.665386 0.168390 0.788474
O O7 0.625000 0.004961 0.125000
O O8 0.540214 0.043492 0.123794
O O9 0.684057 0.625000 0.625000
#
# Coordination Sequence:
#
# PCOD9516328 Si02
#       4
#    32  16  32  32
#     4  11  25  46  69  99 138 183 231 282 339 413
#     4  10  24  45  72 104 134 176 232 278 353 398
#     4   9  22  44  71  99 137 178 225 289 340 408
#     4  11  25  45  70 103 139 181 225 286 348 408
#
# _framework density 22.054801000000001
#
# number of rings (size 3 to 8) (size 9 to 14) (size 15 to 20)
#    0.000    1.714    0.000    1.714    6.000    7.429 
#    5.143    0.000    0.000    0.000    0.000    0.000 
#    0.000    0.000    0.000    0.000    0.000    0.000 
#
# Total GULP energy -156283.680149 kJ/mol
# GULP energy per Si atom -5581.560005 kJ/mol
# Density = 2.200460 g / cm^3
# Si number density = 22.054801 Si / 1000 Ang^3
#
#
#
# Elastic Constant Matrix: (Units=GPa)
#
#
# Indices 1 2 3 4 5 6 
#
# 1 124.6502 46.4577 60.6678 -0.0164 0.0257 0.0155
# 2 46.4577 161.3644 91.1941 -0.0258 0.0203 0.0052
# 3 60.6678 91.1941 160.4552 -0.0842 0.0795 0.0346
# 4 -0.0164 -0.0258 -0.0842 13.0862 0.0643 0.0563
# 5 0.0257 0.0203 0.0795 0.0643 26.3401 -0.0401
# 6 0.0155 0.0052 0.0346 0.0563 -0.0401 24.1718
#
#
#
# Elastic Compliance Matrix: (Units=1/GPa)
#
#
# Indices 1 2 3 4 5 6 
#
# 1 0.009960 -0.001089 -0.003147 -0.000010 0.000001 -0.000002
# 2 -0.001089 0.009249 -0.004845 -0.000014 0.000009 0.000006
# 3 -0.003147 -0.004845 0.010176 0.000052 -0.000024 -0.000012
# 4 -0.000010 -0.000014 0.000052 0.076418 -0.000187 -0.000178
# 5 0.000001 0.000009 -0.000024 -0.000187 0.037966 0.000063
# 6 -0.000002 0.000006 -0.000012 -0.000178 0.000063 0.041371
#
#
# Mechanical properties :
#
#
# Convention : Reuss Voigt Hill
#
# Bulk Modulus (GPa) = 89.10322 93.67876 91.39099
# Shear Modulus (GPa) = 24.14976 29.26297 26.70636
#
# Velocity S-wave (km/s) = 3.31265 3.64652 3.48359
# Velocity P-wave (km/s) = 7.42429 7.76512 7.59662
#
# Compressibility (1/GPa) = 0.01122294
#
# Stress axis : x y z
#
# Youngs Moduli (GPa) = 100.40212 108.12414 98.27464
#
# Poissons Ratio (x) = 0.11776 0.30926
# Poissons Ratio (y) = 0.10935 0.47611
# Poissons Ratio (z) = 0.31595 0.52382
#
# Static dielectric constant tensor:
#      x y z
#    x 1.769270 0.000010 0.000030 
#    y 0.000010 1.865340 0.000010 
#    z 0.000030 0.000010 1.817470 
# 
# From -- ./inp_files/4065.got.cif
#   From: 2010.05.17/outbox.cif.g08.bks.cpg/sg70_3_cif.got.tgz:4065.got - 2010.06.03 15:57:51.
