data_PCOD9516893
_publ_section_title
;
Structure prediction by ZEFSAII (Michael W. Deem and Ramdas Pophale) SiO2 
 PCOD9516893
Probable space group: F D D D
;
_chemical_formula_sum "Si O2"
_cell_formula_units_Z 64
_cell_length_a 25.450332
_cell_length_b 20.406528
_cell_length_c 4.839469
_cell_angle_alpha 90.000000
_cell_angle_beta 90.000000
_cell_angle_gamma 90.000000
_cell_volume 2513.392320
_symmetry_space_group_name_H-M "F D D D"
_symmetry_group_IT_number 70
_space_group.IT_coordinate_system_code '2'
_symmetry_cell_setting 'orthorhombic'
loop_
_space_group_symop_operation_xyz
x,y,z
1/4-x,1/4-y,z
x,1/4-y,1/4-z
1/4-x,y,1/4-z
-x,-y,-z
3/4+x,3/4+y,-z
-x,3/4+y,3/4+z
3/4+x,-y,3/4+z
x,1/2+y,1/2+z
1/4-x,3/4-y,1/2+z
x,3/4-y,3/4-z
1/4-x,1/2+y,3/4-z
-x,1/2-y,1/2-z
3/4+x,1/4+y,1/2-z
-x,1/4+y,1/4+z
3/4+x,1/2-y,1/4+z
1/2+x,y,1/2+z
3/4-x,1/4-y,1/2+z
1/2+x,1/4-y,3/4-z
3/4-x,y,3/4-z
1/2-x,-y,1/2-z
1/4+x,3/4+y,1/2-z
1/2-x,3/4+y,1/4+z
1/4+x,-y,1/4+z
1/2+x,1/2+y,z
3/4-x,3/4-y,z
1/2+x,3/4-y,1/4-z
3/4-x,1/2+y,1/4-z
1/2-x,1/2-y,-z
1/4+x,1/4+y,-z
1/2-x,1/4+y,3/4+z
1/4+x,1/2-y,3/4+z
loop_
_atom_site_type_symbol
_atom_site_label
_atom_site_fract_x
_atom_site_fract_y
_atom_site_fract_z
Si Si1 0.232299 0.442553 0.473284
Si Si2 0.087810 0.029160 0.889127
O O1 0.207170 0.375000 0.375000
O O2 0.250000 0.500000 0.250000
O O3 0.194262 0.470082 0.711482
O O4 0.289616 0.423028 0.584219
O O5 0.125000 0.014259 0.625000
O O6 0.125000 0.054550 0.125000
#
# Coordination Sequence:
#
# PCOD9516893 Si02
#       2
#    32  32
#     4  11  26  51  76 111 159 202 254 326 386 458
#     4  11  24  50  75 115 150 203 256 313 384 467
#
# _framework density 25.463591999999998
#
# number of rings (size 3 to 8) (size 9 to 14) (size 15 to 20)
#    0.000    1.000    5.000    0.000    0.000    9.000 
#   18.000    0.000    0.000    0.000    0.000    0.000 
#    0.000    0.000    0.000    0.000    0.000    0.000 
#
# Total GULP energy -89247.694773 kJ/mol
# GULP energy per Si atom -5577.980923 kJ/mol
# Density = 2.540564 g / cm^3
# Si number density = 25.463592 Si / 1000 Ang^3
#
#
#
# Elastic Constant Matrix: (Units=GPa)
#
#
# Indices 1 2 3 4 5 6 
#
# 1 164.7559 25.5509 69.2486 0.0283 0.0021 0.0025
# 2 25.5509 120.4408 74.8151 -0.0360 0.0054 0.0007
# 3 69.2486 74.8151 192.2634 0.1099 -0.0003 -0.0039
# 4 0.0283 -0.0360 0.1099 -162.7330 0.0340 0.0513
# 5 0.0021 0.0054 -0.0003 0.0340 67.3968 0.0071
# 6 0.0025 0.0007 -0.0039 0.0513 0.0071 -9.4776
#
#
#
# Elastic Compliance Matrix: (Units=1/GPa)
#
#
# Indices 1 2 3 4 5 6 
#
# 1 0.007153 0.000109 -0.002619 -0.000001 0.000000 0.000003
# 2 0.000109 0.010951 -0.004301 -0.000005 -0.000001 0.000003
# 3 -0.002619 -0.004301 0.007818 0.000006 0.000000 -0.000004
# 4 -0.000001 -0.000005 0.000006 -0.006145 0.000003 -0.000033
# 5 0.000000 -0.000001 0.000000 0.000003 0.014838 0.000011
# 6 0.000003 0.000003 -0.000004 -0.000033 0.000011 -0.105512
#
#
# Mechanical properties :
#
#
# Convention : Reuss Voigt Hill
#
# Bulk Modulus (GPa) = 81.28962 90.74325 86.01644
# Shear Modulus (GPa) = -94.02857 -0.43973 -47.23415
#
# Velocity S-wave (km/s) = -6.08332 -0.41601 -4.31161
# Velocity P-wave (km/s) = 4.16525 5.95677 3.01113
#
# Compressibility (1/GPa) = 0.01230169
#
# Stress axis : x y z
#
# Youngs Moduli (GPa) = 139.79295 91.31423 127.90894
#
# Poissons Ratio (x) = -0.00998 0.33500
# Poissons Ratio (y) = -0.01528 0.55011
# Poissons Ratio (z) = 0.36612 0.39272
#
# Static dielectric constant tensor:
#      x y z
#    x 2.172680 -0.000010 -0.000010 
#    y -0.000010 2.073830 0.000010 
#    z -0.000010 0.000010 2.198850 
# 
# From -- ./inp_files/1562.got.cif
#   From: 2010.05.17/outbox.cif.g08.bks.cpg/sg70_1_cif.got.tgz:1562.got - 2010.06.03 15:57:51.
