data_PCOD9516797
_publ_section_title
;
Structure prediction by ZEFSAII (Michael W. Deem and Ramdas Pophale) SiO2 
 PCOD9516797
Probable space group: F D D D
;
_chemical_formula_sum "Si O2"
_cell_formula_units_Z 112
_cell_length_a 25.258209
_cell_length_b 16.557131
_cell_length_c 11.184020
_cell_angle_alpha 90.000000
_cell_angle_beta 90.000000
_cell_angle_gamma 90.000000
_cell_volume 4677.196031
_symmetry_space_group_name_H-M "F D D D"
_symmetry_group_IT_number 70
_space_group.IT_coordinate_system_code '2'
_symmetry_cell_setting 'orthorhombic'
loop_
_space_group_symop_operation_xyz
x,y,z
1/4-x,1/4-y,z
x,1/4-y,1/4-z
1/4-x,y,1/4-z
-x,-y,-z
3/4+x,3/4+y,-z
-x,3/4+y,3/4+z
3/4+x,-y,3/4+z
x,1/2+y,1/2+z
1/4-x,3/4-y,1/2+z
x,3/4-y,3/4-z
1/4-x,1/2+y,3/4-z
-x,1/2-y,1/2-z
3/4+x,1/4+y,1/2-z
-x,1/4+y,1/4+z
3/4+x,1/2-y,1/4+z
1/2+x,y,1/2+z
3/4-x,1/4-y,1/2+z
1/2+x,1/4-y,3/4-z
3/4-x,y,3/4-z
1/2-x,-y,1/2-z
1/4+x,3/4+y,1/2-z
1/2-x,3/4+y,1/4+z
1/4+x,-y,1/4+z
1/2+x,1/2+y,z
3/4-x,3/4-y,z
1/2+x,3/4-y,1/4-z
3/4-x,1/2+y,1/4-z
1/2-x,1/2-y,-z
1/4+x,1/4+y,-z
1/2-x,1/4+y,3/4+z
1/4+x,1/2-y,3/4+z
loop_
_atom_site_type_symbol
_atom_site_label
_atom_site_fract_x
_atom_site_fract_y
_atom_site_fract_z
Si Si1 0.074655 0.577099 0.345749
Si Si2 0.125000 0.769877 0.125000
Si Si3 0.968819 0.127674 0.483322
Si Si4 0.437254 0.965488 0.401846
O O1 0.125000 0.625000 0.395521
O O2 0.096489 0.532246 0.228483
O O3 0.056899 0.520276 0.455676
O O4 0.028503 0.640119 0.310816
O O5 0.078226 0.824296 0.180259
O O6 0.966854 0.125000 0.625000
O O7 0.962007 0.218302 0.434118
O O8 0.457006 0.875000 0.375000
O O9 0.375000 0.969753 0.375000
#
# Coordination Sequence:
#
# PCOD9516797 Si02
#       4
#    32  16  32  32
#     4  12  27  49  76 115 154 202 258 320 398 470
#     4  12  29  46  79 112 152 198 266 320 395 470
#     4  12  28  49  78 110 155 201 260 324 390 459
#     4  11  23  47  77 104 149 200 248 310 380 459
#
# _framework density 23.945971
#
# number of rings (size 3 to 8) (size 9 to 14) (size 15 to 20)
#    0.000    0.286    4.286    4.714    4.000    2.286 
#    0.000    0.000    0.000    0.000    0.000    0.000 
#    0.000    0.000    0.000    0.000    0.000    0.000 
#
# Total GULP energy -156874.958092 kJ/mol
# GULP energy per Si atom -5602.677075 kJ/mol
# Density = 2.389147 g / cm^3
# Si number density = 23.945971 Si / 1000 Ang^3
#
#
#
# Elastic Constant Matrix: (Units=GPa)
#
#
# Indices 1 2 3 4 5 6 
#
# 1 154.0831 22.4224 56.2164 0.0000 0.0000 0.0000
# 2 22.4224 61.8020 40.4138 0.0000 0.0000 0.0000
# 3 56.2164 40.4138 215.2329 0.0000 0.0000 0.0000
# 4 0.0000 0.0000 0.0000 36.0677 0.0000 0.0000
# 5 0.0000 0.0000 0.0000 0.0000 31.3410 0.0000
# 6 0.0000 0.0000 0.0000 0.0000 0.0000 20.9645
#
#
#
# Elastic Compliance Matrix: (Units=1/GPa)
#
#
# Indices 1 2 3 4 5 6 
#
# 1 0.007310 -0.001600 -0.001609 0.000000 0.000000 0.000000
# 2 -0.001600 0.018796 -0.003111 0.000000 0.000000 0.000000
# 3 -0.001609 -0.003111 0.005651 0.000000 0.000000 0.000000
# 4 0.000000 0.000000 0.000000 0.027726 0.000000 0.000000
# 5 0.000000 0.000000 0.000000 0.000000 0.031907 0.000000
# 6 0.000000 0.000000 0.000000 0.000000 0.000000 0.047700
#
#
# Mechanical properties :
#
#
# Convention : Reuss Voigt Hill
#
# Bulk Modulus (GPa) = 52.31277 74.35813 63.33545
# Shear Modulus (GPa) = 31.62538 38.47899 35.05218
#
# Velocity S-wave (km/s) = 3.63808 4.01298 3.83012
# Velocity P-wave (km/s) = 6.28817 7.25202 6.78723
#
# Compressibility (1/GPa) = 0.01911579
#
# Stress axis : x y z
#
# Youngs Moduli (GPa) = 136.80252 53.20343 176.97421
#
# Poissons Ratio (x) = 0.08513 0.28472
# Poissons Ratio (y) = 0.21889 0.55063
# Poissons Ratio (z) = 0.22009 0.16553
#
# Static dielectric constant tensor:
#      x y z
#    x 1.961360 0.000000 0.000000 
#    y 0.000000 1.917940 0.000000 
#    z 0.000000 0.000000 1.896150 
# 
# From -- ./inp_files/20243.got.cif
#   From: 2010.05.17/outbox.cif.g08.bks.cpg/sg70_11_cif.got.tgz:20243.got - 2010.06.03 15:57:51.
