data_PCOD9516695
_publ_section_title
;
Structure prediction by ZEFSAII (Michael W. Deem and Ramdas Pophale) SiO2 
 PCOD9516695
Probable space group: F D D D
;
_chemical_formula_sum "Si O2"
_cell_formula_units_Z 104
_cell_length_a 12.158650
_cell_length_b 24.927264
_cell_length_c 13.273973
_cell_angle_alpha 90.000000
_cell_angle_beta 90.000000
_cell_angle_gamma 90.000000
_cell_volume 4023.100671
_symmetry_space_group_name_H-M "F D D D"
_symmetry_group_IT_number 70
_space_group.IT_coordinate_system_code '2'
_symmetry_cell_setting 'orthorhombic'
loop_
_space_group_symop_operation_xyz
x,y,z
1/4-x,1/4-y,z
x,1/4-y,1/4-z
1/4-x,y,1/4-z
-x,-y,-z
3/4+x,3/4+y,-z
-x,3/4+y,3/4+z
3/4+x,-y,3/4+z
x,1/2+y,1/2+z
1/4-x,3/4-y,1/2+z
x,3/4-y,3/4-z
1/4-x,1/2+y,3/4-z
-x,1/2-y,1/2-z
3/4+x,1/4+y,1/2-z
-x,1/4+y,1/4+z
3/4+x,1/2-y,1/4+z
1/2+x,y,1/2+z
3/4-x,1/4-y,1/2+z
1/2+x,1/4-y,3/4-z
3/4-x,y,3/4-z
1/2-x,-y,1/2-z
1/4+x,3/4+y,1/2-z
1/2-x,3/4+y,1/4+z
1/4+x,-y,1/4+z
1/2+x,1/2+y,z
3/4-x,3/4-y,z
1/2+x,3/4-y,1/4-z
3/4-x,1/2+y,1/4-z
1/2-x,1/2-y,-z
1/4+x,1/4+y,-z
1/2-x,1/4+y,3/4+z
1/4+x,1/2-y,3/4+z
loop_
_atom_site_type_symbol
_atom_site_label
_atom_site_fract_x
_atom_site_fract_y
_atom_site_fract_z
Si Si1 0.479275 0.318886 0.816659
Si Si2 0.775998 0.528481 0.584491
Si Si3 0.614960 0.065534 0.344259
Si Si4 0.875000 0.875000 0.375000
O O1 0.494980 0.375000 0.875000
O O2 0.375000 0.293264 0.875000
O O3 0.595237 0.289574 0.818159
O O4 0.443747 0.326652 0.701055
O O5 0.711567 0.531776 0.479930
O O6 0.776445 0.469332 0.633159
O O7 0.720135 0.576721 0.645131
O O8 0.625000 0.125000 0.294567
#
# Coordination Sequence:
#
# PCOD9516695 Si02
#       4
#    32  32  32   8
#     4  11  22  45  79 112 156 209 266 335 401 481
#     4  12  27  50  78 117 166 214 275 339 412 490
#     4  12  26  48  77 117 161 217 269 336 409 487
#     4  12  28  52  78 116 162 220 276 336 412 496
#
# _framework density 25.850707
#
# number of rings (size 3 to 8) (size 9 to 14) (size 15 to 20)
#    0.000    0.308    6.154    3.692    0.000    1.231 
#    5.538    0.000    0.000    0.000    0.000    0.000 
#    0.000    0.000    0.000    0.000    0.000    0.000 
#
# Total GULP energy -145320.696959 kJ/mol
# GULP energy per Si atom -5589.257575 kJ/mol
# Density = 2.579187 g / cm^3
# Si number density = 25.850707 Si / 1000 Ang^3
#
#
#
# Elastic Constant Matrix: (Units=GPa)
#
#
# Indices 1 2 3 4 5 6 
#
# 1 140.1431 40.7134 31.3836 0.0000 0.0000 0.0000
# 2 40.7134 193.8675 53.0332 0.0000 0.0000 0.0000
# 3 31.3836 53.0332 141.3784 0.0000 0.0000 0.0000
# 4 0.0000 0.0000 0.0000 50.9088 0.0000 0.0000
# 5 0.0000 0.0000 0.0000 0.0000 46.7110 0.0000
# 6 0.0000 0.0000 0.0000 0.0000 0.0000 54.2799
#
#
#
# Elastic Compliance Matrix: (Units=1/GPa)
#
#
# Indices 1 2 3 4 5 6 
#
# 1 0.007790 -0.001296 -0.001243 0.000000 0.000000 0.000000
# 2 -0.001296 0.005964 -0.001949 0.000000 0.000000 0.000000
# 3 -0.001243 -0.001949 0.008080 0.000000 0.000000 0.000000
# 4 0.000000 0.000000 0.000000 0.019643 0.000000 0.000000
# 5 0.000000 0.000000 0.000000 0.000000 0.021408 0.000000
# 6 0.000000 0.000000 0.000000 0.000000 0.000000 0.018423
#
#
# Mechanical properties :
#
#
# Convention : Reuss Voigt Hill
#
# Bulk Modulus (GPa) = 77.77618 80.62772 79.20195
# Shear Modulus (GPa) = 52.87004 53.73053 53.30028
#
# Velocity S-wave (km/s) = 4.52730 4.56400 4.54569
# Velocity P-wave (km/s) = 7.58160 7.68316 7.63254
#
# Compressibility (1/GPa) = 0.01285741
#
# Stress axis : x y z
#
# Youngs Moduli (GPa) = 128.36210 167.68465 123.75596
#
# Poissons Ratio (x) = 0.21731 0.15386
# Poissons Ratio (y) = 0.16635 0.24124
# Poissons Ratio (z) = 0.15958 0.32688
#
# Static dielectric constant tensor:
#      x y z
#    x 1.943900 0.000000 0.000000 
#    y 0.000000 2.151600 0.000000 
#    z 0.000000 0.000000 1.898160 
# 
# From -- ./inp_files/33013.got.cif
#   From: 2010.05.17/outbox.cif.g08.bks.cpg/sg70_17_cif.got.tgz:33013.got - 2010.06.03 15:57:51.
