data_PCOD9516149
_publ_section_title
;
Structure prediction by ZEFSAII (Michael W. Deem and Ramdas Pophale) SiO2 
 PCOD9516149
Probable space group: F D D D
;
_chemical_formula_sum "Si O2"
_cell_formula_units_Z 112
_cell_length_a 11.951964
_cell_length_b 27.894562
_cell_length_c 15.703272
_cell_angle_alpha 90.000000
_cell_angle_beta 90.000000
_cell_angle_gamma 90.000000
_cell_volume 5235.389241
_symmetry_space_group_name_H-M "F D D D"
_symmetry_group_IT_number 70
_space_group.IT_coordinate_system_code '2'
_symmetry_cell_setting 'orthorhombic'
loop_
_space_group_symop_operation_xyz
x,y,z
1/4-x,1/4-y,z
x,1/4-y,1/4-z
1/4-x,y,1/4-z
-x,-y,-z
3/4+x,3/4+y,-z
-x,3/4+y,3/4+z
3/4+x,-y,3/4+z
x,1/2+y,1/2+z
1/4-x,3/4-y,1/2+z
x,3/4-y,3/4-z
1/4-x,1/2+y,3/4-z
-x,1/2-y,1/2-z
3/4+x,1/4+y,1/2-z
-x,1/4+y,1/4+z
3/4+x,1/2-y,1/4+z
1/2+x,y,1/2+z
3/4-x,1/4-y,1/2+z
1/2+x,1/4-y,3/4-z
3/4-x,y,3/4-z
1/2-x,-y,1/2-z
1/4+x,3/4+y,1/2-z
1/2-x,3/4+y,1/4+z
1/4+x,-y,1/4+z
1/2+x,1/2+y,z
3/4-x,3/4-y,z
1/2+x,3/4-y,1/4-z
3/4-x,1/2+y,1/4-z
1/2-x,1/2-y,-z
1/4+x,1/4+y,-z
1/2-x,1/4+y,3/4+z
1/4+x,1/2-y,3/4+z
loop_
_atom_site_type_symbol
_atom_site_label
_atom_site_fract_x
_atom_site_fract_y
_atom_site_fract_z
Si Si1 0.625000 0.811617 0.625000
Si Si2 0.453530 0.705766 0.458511
Si Si3 0.156143 0.858753 0.962857
Si Si4 0.578668 0.258400 0.360535
O O1 0.586010 0.843098 0.544760
O O2 0.522099 0.778204 0.647636
O O3 0.375000 0.702497 0.375000
O O4 0.477673 0.652495 0.497601
O O5 0.397300 0.732032 0.539533
O O6 0.563151 0.735888 0.434179
O O7 0.096902 0.875000 0.875000
O O8 0.209466 0.809180 0.929946
#
# Coordination Sequence:
#
# PCOD9516149 Si02
#       4
#    16  32  32  32
#     4  12  22  46  67  98 144 174 231 294 352 410
#     4  11  23  44  69  97 140 183 233 287 355 419
#     4  10  23  43  66 101 134 177 237 281 347 428
#     4  11  24  43  70  99 137 185 229 293 353 420
#
# _framework density 21.392869000000001
#
# number of rings (size 3 to 8) (size 9 to 14) (size 15 to 20)
#    0.000    1.143    4.286    1.714    0.000    1.143 
#    5.143    0.000    0.000    0.000    0.000    0.000 
#    0.000    0.000    0.000    0.000    0.000    0.000 
#
# Total GULP energy -155946.624750 kJ/mol
# GULP energy per Si atom -5569.522313 kJ/mol
# Density = 2.134418 g / cm^3
# Si number density = 21.392869 Si / 1000 Ang^3
#
#
#
# Elastic Constant Matrix: (Units=GPa)
#
#
# Indices 1 2 3 4 5 6 
#
# 1 38.3666 39.1119 33.9272 0.0000 0.0000 0.0000
# 2 39.1119 125.4533 62.6679 0.0000 0.0000 0.0000
# 3 33.9272 62.6679 192.7112 0.0000 0.0000 0.0000
# 4 0.0000 0.0000 0.0000 45.4041 0.0000 0.0000
# 5 0.0000 0.0000 0.0000 0.0000 27.5320 0.0000
# 6 0.0000 0.0000 0.0000 0.0000 0.0000 -324.4003
#
#
#
# Elastic Compliance Matrix: (Units=1/GPa)
#
#
# Indices 1 2 3 4 5 6 
#
# 1 0.040177 -0.010736 -0.003582 0.000000 0.000000 0.000000
# 2 -0.010736 0.012386 -0.002138 0.000000 0.000000 0.000000
# 3 -0.003582 -0.002138 0.006515 0.000000 0.000000 0.000000
# 4 0.000000 0.000000 0.000000 0.022024 0.000000 0.000000
# 5 0.000000 0.000000 0.000000 0.000000 0.036321 0.000000
# 6 0.000000 0.000000 0.000000 0.000000 0.000000 -0.003083
#
#
# Mechanical properties :
#
#
# Convention : Reuss Voigt Hill
#
# Bulk Modulus (GPa) = 38.21771 69.77167 53.99469
# Shear Modulus (GPa) = 32.05643 -35.57123 -1.75740
#
# Velocity S-wave (km/s) = 3.87520 -4.08212 -0.90734
# Velocity P-wave (km/s) = 6.15844 3.23527 4.91901
#
# Compressibility (1/GPa) = 0.02616588
#
# Stress axis : x y z
#
# Youngs Moduli (GPa) = 24.89000 80.73501 153.49540
#
# Poissons Ratio (x) = 0.86681 0.54979
# Poissons Ratio (y) = 0.26723 0.32813
# Poissons Ratio (z) = 0.08915 0.17259
#
# Static dielectric constant tensor:
#      x y z
#    x 1.700670 0.000000 0.000000 
#    y 0.000000 1.840010 0.000000 
#    z 0.000000 0.000000 1.518370 
# 
# From -- ./inp_files/15014.got.cif
#   From: 2010.05.17/outbox.cif.g08.bks.cpg/sg70_8_cif.got.tgz:15014.got - 2010.06.03 15:57:51.
