data_PCOD9516588
_publ_section_title
;
Structure prediction by ZEFSAII (Michael W. Deem and Ramdas Pophale) SiO2 
 PCOD9516588
Probable space group: F D D D
;
_chemical_formula_sum "Si O2"
_cell_formula_units_Z 72
_cell_length_a 24.900852
_cell_length_b 4.738480
_cell_length_c 23.009430
_cell_angle_alpha 90.000000
_cell_angle_beta 90.000000
_cell_angle_gamma 90.000000
_cell_volume 2714.933018
_symmetry_space_group_name_H-M "F D D D"
_symmetry_group_IT_number 70
_space_group.IT_coordinate_system_code '2'
_symmetry_cell_setting 'orthorhombic'
loop_
_space_group_symop_operation_xyz
x,y,z
1/4-x,1/4-y,z
x,1/4-y,1/4-z
1/4-x,y,1/4-z
-x,-y,-z
3/4+x,3/4+y,-z
-x,3/4+y,3/4+z
3/4+x,-y,3/4+z
x,1/2+y,1/2+z
1/4-x,3/4-y,1/2+z
x,3/4-y,3/4-z
1/4-x,1/2+y,3/4-z
-x,1/2-y,1/2-z
3/4+x,1/4+y,1/2-z
-x,1/4+y,1/4+z
3/4+x,1/2-y,1/4+z
1/2+x,y,1/2+z
3/4-x,1/4-y,1/2+z
1/2+x,1/4-y,3/4-z
3/4-x,y,3/4-z
1/2-x,-y,1/2-z
1/4+x,3/4+y,1/2-z
1/2-x,3/4+y,1/4+z
1/4+x,-y,1/4+z
1/2+x,1/2+y,z
3/4-x,3/4-y,z
1/2+x,3/4-y,1/4-z
3/4-x,1/2+y,1/4-z
1/2-x,1/2-y,-z
1/4+x,1/4+y,-z
1/2-x,1/4+y,3/4+z
1/4+x,1/2-y,3/4+z
loop_
_atom_site_type_symbol
_atom_site_label
_atom_site_fract_x
_atom_site_fract_y
_atom_site_fract_z
Si Si1 0.375000 0.375000 0.875000
Si Si2 0.049189 0.604548 0.414409
Si Si3 0.292624 0.038360 0.466825
O O1 0.337811 0.178164 0.832865
O O2 0.079802 0.375000 0.375000
O O3 0.072915 0.689549 0.475516
O O4 0.995631 0.442381 0.436138
O O5 0.036793 0.875000 0.375000
O O6 0.250000 0.250000 0.500000
#
# Coordination Sequence:
#
# PCOD9516588 Si02
#       3
#     8  32  32
#     4  12  24  48  78 124 166 224 306 330 434 554
#     4  11  21  42  74 102 153 220 263 344 441 474
#     4  11  23  43  74 116 160 221 280 360 426 506
#
# _framework density 26.519992999999999
#
# number of rings (size 3 to 8) (size 9 to 14) (size 15 to 20)
#    0.000    0.889    6.667    0.000    0.000    0.000 
#    0.000   30.000    0.000    0.000    0.000    0.000 
#    0.000    0.000    0.000    0.000    0.000    0.000 
#
# Total GULP energy -100265.830103 kJ/mol
# GULP energy per Si atom -5570.323895 kJ/mol
# Density = 2.645963 g / cm^3
# Si number density = 26.519993 Si / 1000 Ang^3
#
#
#
# Elastic Constant Matrix: (Units=GPa)
#
#
# Indices 1 2 3 4 5 6 
#
# 1 176.7274 68.1600 87.2937 -0.0001 -0.0007 -0.0022
# 2 68.1600 165.3138 90.8964 -0.0123 -0.0066 -0.0223
# 3 87.2937 90.8964 308.1023 -0.0012 -0.0005 -0.0037
# 4 -0.0001 -0.0123 -0.0012 56.5084 -0.0011 -0.0062
# 5 -0.0007 -0.0066 -0.0005 -0.0011 61.1345 -0.0030
# 6 -0.0022 -0.0223 -0.0037 -0.0062 -0.0030 -13.4456
#
#
#
# Elastic Compliance Matrix: (Units=1/GPa)
#
#
# Indices 1 2 3 4 5 6 
#
# 1 0.007194 -0.002203 -0.001388 0.000000 0.000000 0.000003
# 2 -0.002203 0.007895 -0.001705 0.000002 0.000001 -0.000012
# 3 -0.001388 -0.001705 0.004142 0.000000 0.000000 0.000002
# 4 0.000000 0.000002 0.000000 0.017696 0.000000 -0.000008
# 5 0.000000 0.000001 0.000000 0.000000 0.016357 -0.000004
# 6 0.000003 -0.000012 0.000002 -0.000008 -0.000004 -0.074374
#
#
# Mechanical properties :
#
#
# Convention : Reuss Voigt Hill
#
# Bulk Modulus (GPa) = 115.76143 126.98263 121.37203
# Shear Modulus (GPa) = -656.36704 47.75901 -304.30401
#
# Velocity S-wave (km/s) = -15.74917 4.24827 -10.72354
# Velocity P-wave (km/s) = 16.94018 8.48820 10.36629
#
# Compressibility (1/GPa) = 0.00863846
#
# Stress axis : x y z
#
# Youngs Moduli (GPa) = 139.01025 126.66611 241.42604
#
# Poissons Ratio (x) = 0.27900 0.33518
# Poissons Ratio (y) = 0.30619 0.41164
# Poissons Ratio (z) = 0.19299 0.21597
#
# Static dielectric constant tensor:
#      x y z
#    x 2.220890 -0.000020 -0.000010 
#    y -0.000020 2.184260 0.000000 
#    z -0.000010 0.000000 2.112930 
# 
# From -- ./inp_files/48226.got.cif
#   From: 2010.05.17/outbox.cif.g08.bks.cpg/sg70_25_cif.got.tgz:48226.got - 2010.06.03 15:57:51.
