data_PCOD9516990
_publ_section_title
;
Structure prediction by ZEFSAII (Michael W. Deem and Ramdas Pophale) SiO2 
 PCOD9516990
Probable space group: F D D D
;
_chemical_formula_sum "Si O2"
_cell_formula_units_Z 216
_cell_length_a 14.517369
_cell_length_b 29.786750
_cell_length_c 22.477794
_cell_angle_alpha 90.000000
_cell_angle_beta 90.000000
_cell_angle_gamma 90.000000
_cell_volume 9719.965489
_symmetry_space_group_name_H-M "F D D D"
_symmetry_group_IT_number 70
_space_group.IT_coordinate_system_code '2'
_symmetry_cell_setting 'orthorhombic'
loop_
_space_group_symop_operation_xyz
x,y,z
1/4-x,1/4-y,z
x,1/4-y,1/4-z
1/4-x,y,1/4-z
-x,-y,-z
3/4+x,3/4+y,-z
-x,3/4+y,3/4+z
3/4+x,-y,3/4+z
x,1/2+y,1/2+z
1/4-x,3/4-y,1/2+z
x,3/4-y,3/4-z
1/4-x,1/2+y,3/4-z
-x,1/2-y,1/2-z
3/4+x,1/4+y,1/2-z
-x,1/4+y,1/4+z
3/4+x,1/2-y,1/4+z
1/2+x,y,1/2+z
3/4-x,1/4-y,1/2+z
1/2+x,1/4-y,3/4-z
3/4-x,y,3/4-z
1/2-x,-y,1/2-z
1/4+x,3/4+y,1/2-z
1/2-x,3/4+y,1/4+z
1/4+x,-y,1/4+z
1/2+x,1/2+y,z
3/4-x,3/4-y,z
1/2+x,3/4-y,1/4-z
3/4-x,1/2+y,1/4-z
1/2-x,1/2-y,-z
1/4+x,1/4+y,-z
1/2-x,1/4+y,3/4+z
1/4+x,1/2-y,3/4+z
loop_
_atom_site_type_symbol
_atom_site_label
_atom_site_fract_x
_atom_site_fract_y
_atom_site_fract_z
Si Si1 0.874138 0.103750 0.749699
Si Si2 0.373843 0.504759 0.589113
Si Si3 0.510020 0.676622 0.025535
Si Si4 0.687959 0.043388 0.177421
Si Si5 0.806308 0.125000 0.125000
Si Si6 0.819180 0.335224 0.712008
Si Si7 0.875000 0.375000 0.375000
Si Si8 0.395122 0.245868 0.729714
O O1 0.789776 0.137388 0.764143
O O2 0.880976 0.108934 0.678732
O O3 0.976590 0.112770 0.772550
O O4 0.875464 0.050868 0.763041
O O5 0.321088 0.542791 0.552111
O O6 0.478827 0.507604 0.564483
O O7 0.319852 0.458381 0.578684
O O8 0.369970 0.512131 0.659622
O O9 0.563613 0.654522 0.080598
O O10 0.581870 0.711361 0.995645
O O11 0.625000 0.023974 0.125000
O O12 0.741509 0.085723 0.149130
O O13 0.622158 0.064065 0.229268
O O14 0.875000 0.375000 0.681921
O O15 0.500000 0.250000 0.750000
#
# Coordination Sequence:
#
# PCOD9516990 Si02
#       8
#    32  32  32  32  16  32   8  32
#     4  12  22  42  70 103 137 181 239 300 351 432
#     4  12  25  44  68 102 145 183 237 297 361 448
#     4  12  24  44  75 107 138 188 243 306 367 429
#     4  12  21  36  69 101 136 180 229 290 356 425
#     4  12  18  34  67  97 132 174 232 292 346 403
#     4  12  23  42  63  98 146 188 227 285 360 430
#     4  12  26  44  74 104 130 172 248 314 350 410
#     4  12  26  47  73 101 142 186 243 306 375 434
#
# _framework density 22.222301000000002
#
# number of rings (size 3 to 8) (size 9 to 14) (size 15 to 20)
#    0.000    0.000    7.407    3.778    0.000    0.000 
#    4.000    0.000    0.000    0.000    0.000    0.000 
#    0.000    0.000    0.000    0.000    0.000    0.000 
#
# Total GULP energy -301079.328823 kJ/mol
# GULP energy per Si atom -5575.543126 kJ/mol
# Density = 2.217172 g / cm^3
# Si number density = 22.222301 Si / 1000 Ang^3
#
#
#
# Elastic Constant Matrix: (Units=GPa)
#
#
# Indices 1 2 3 4 5 6 
#
# 1 122.0717 32.0790 20.3768 0.0000 0.0000 0.0000
# 2 32.0790 112.3045 9.0390 0.0000 0.0000 0.0000
# 3 20.3768 9.0390 27.2322 0.0000 0.0000 0.0000
# 4 0.0000 0.0000 0.0000 24.6213 0.0000 0.0000
# 5 0.0000 0.0000 0.0000 0.0000 15.8142 0.0000
# 6 0.0000 0.0000 0.0000 0.0000 0.0000 39.7662
#
#
#
# Elastic Compliance Matrix: (Units=1/GPa)
#
#
# Indices 1 2 3 4 5 6 
#
# 1 0.009905 -0.002294 -0.006650 0.000000 0.000000 0.000000
# 2 -0.002294 0.009680 -0.001497 0.000000 0.000000 0.000000
# 3 -0.006650 -0.001497 0.042194 0.000000 0.000000 0.000000
# 4 0.000000 0.000000 0.000000 0.040615 0.000000 0.000000
# 5 0.000000 0.000000 0.000000 0.000000 0.063234 0.000000
# 6 0.000000 0.000000 0.000000 0.000000 0.000000 0.025147
#
#
# Mechanical properties :
#
#
# Convention : Reuss Voigt Hill
#
# Bulk Modulus (GPa) = 24.45118 42.73311 33.59214
# Shear Modulus (GPa) = 22.19372 29.38123 25.78747
#
# Velocity S-wave (km/s) = 3.16367 3.64008 3.41021
# Velocity P-wave (km/s) = 4.93680 6.07771 5.53672
#
# Compressibility (1/GPa) = 0.04089783
#
# Stress axis : x y z
#
# Youngs Moduli (GPa) = 100.96129 103.30490 23.70008
#
# Poissons Ratio (x) = 0.23698 0.15760
# Poissons Ratio (y) = 0.23161 0.03547
# Poissons Ratio (z) = 0.67139 0.15460
#
# Static dielectric constant tensor:
#      x y z
#    x 2.273470 0.000000 0.000000 
#    y 0.000000 0.644970 0.000000 
#    z 0.000000 0.000000 1.775190 
# 
# From -- ./inp_files/51606.got.cif
#   From: 2010.05.17/outbox.cif.g08.bks.cpg/sg70_26_cif.got.tgz:51606.got - 2010.06.03 15:57:51.
