data_PCOD9516714
_publ_section_title
;
Structure prediction by ZEFSAII (Michael W. Deem and Ramdas Pophale) SiO2 
 PCOD9516714
Probable space group: F D D D
;
_chemical_formula_sum "Si O2"
_cell_formula_units_Z 176
_cell_length_a 24.888571
_cell_length_b 29.141178
_cell_length_c 11.850590
_cell_angle_alpha 90.000000
_cell_angle_beta 90.000000
_cell_angle_gamma 90.000000
_cell_volume 8595.022907
_symmetry_space_group_name_H-M "F D D D"
_symmetry_group_IT_number 70
_space_group.IT_coordinate_system_code '2'
_symmetry_cell_setting 'orthorhombic'
loop_
_space_group_symop_operation_xyz
x,y,z
1/4-x,1/4-y,z
x,1/4-y,1/4-z
1/4-x,y,1/4-z
-x,-y,-z
3/4+x,3/4+y,-z
-x,3/4+y,3/4+z
3/4+x,-y,3/4+z
x,1/2+y,1/2+z
1/4-x,3/4-y,1/2+z
x,3/4-y,3/4-z
1/4-x,1/2+y,3/4-z
-x,1/2-y,1/2-z
3/4+x,1/4+y,1/2-z
-x,1/4+y,1/4+z
3/4+x,1/2-y,1/4+z
1/2+x,y,1/2+z
3/4-x,1/4-y,1/2+z
1/2+x,1/4-y,3/4-z
3/4-x,y,3/4-z
1/2-x,-y,1/2-z
1/4+x,3/4+y,1/2-z
1/2-x,3/4+y,1/4+z
1/4+x,-y,1/4+z
1/2+x,1/2+y,z
3/4-x,3/4-y,z
1/2+x,3/4-y,1/4-z
3/4-x,1/2+y,1/4-z
1/2-x,1/2-y,-z
1/4+x,1/4+y,-z
1/2-x,1/4+y,3/4+z
1/4+x,1/2-y,3/4+z
loop_
_atom_site_type_symbol
_atom_site_label
_atom_site_fract_x
_atom_site_fract_y
_atom_site_fract_z
Si Si1 0.625000 0.125000 0.949920
Si Si2 0.669902 0.526690 0.812624
Si Si3 0.326105 0.643279 0.445051
Si Si4 0.340642 0.053638 0.086933
Si Si5 0.247556 0.145786 0.740796
Si Si6 0.774984 0.994562 0.417088
O O1 0.637086 0.177303 0.904008
O O2 0.684289 0.117402 0.003526
O O3 0.641378 0.479790 0.852841
O O4 0.729884 0.526369 0.861443
O O5 0.681940 0.521288 0.678246
O O6 0.375000 0.664166 0.375000
O O7 0.349127 0.597343 0.505023
O O8 0.314685 0.677212 0.548586
O O9 0.278555 0.633567 0.356139
O O10 0.301583 0.021705 0.016969
O O11 0.271133 0.125000 0.625000
O O12 0.250504 0.199645 0.720805
#
# Coordination Sequence:
#
# PCOD9516714 Si02
#       6
#    16  32  32  32  32  32
#     4  12  23  42  68 105 140 177 234 300 365 404
#     4  11  23  40  66 104 136 180 233 297 348 424
#     4  11  26  44  67  97 138 186 232 287 351 422
#     4  11  24  43  66  95 136 175 230 286 352 415
#     4  12  25  41  70 105 140 179 234 297 353 422
#     4  11  23  39  67 100 138 178 231 288 355 414
#
# _framework density 20.476966999999998
#
# number of rings (size 3 to 8) (size 9 to 14) (size 15 to 20)
#    0.000    0.727    3.636    4.091    7.636    0.727 
#    0.000    0.000    0.000    7.636    0.000    0.000 
#    0.000    0.000    0.000    0.000    0.000    0.000 
#
# Total GULP energy -245292.241641 kJ/mol
# GULP energy per Si atom -5574.823674 kJ/mol
# Density = 2.043036 g / cm^3
# Si number density = 20.476967 Si / 1000 Ang^3
#
#
#
# Elastic Constant Matrix: (Units=GPa)
#
#
# Indices 1 2 3 4 5 6 
#
# 1 88.2752 2.0082 32.1017 0.0000 0.0000 0.0000
# 2 2.0082 79.9978 8.0597 0.0000 0.0000 0.0000
# 3 32.1017 8.0597 92.9107 0.0002 0.0000 0.0000
# 4 0.0000 0.0000 0.0002 -50.9629 -0.0001 -0.0001
# 5 0.0000 0.0000 0.0000 -0.0001 20.5141 0.0000
# 6 0.0000 0.0000 0.0000 -0.0001 0.0000 -45.5452
#
#
#
# Elastic Compliance Matrix: (Units=1/GPa)
#
#
# Indices 1 2 3 4 5 6 
#
# 1 0.012957 0.000127 -0.004488 0.000000 0.000000 0.000000
# 2 0.000127 0.012612 -0.001138 0.000000 0.000000 0.000000
# 3 -0.004488 -0.001138 0.012412 0.000000 0.000000 0.000000
# 4 0.000000 0.000000 0.000000 -0.019622 0.000000 0.000000
# 5 0.000000 0.000000 0.000000 0.000000 0.048747 0.000000
# 6 0.000000 0.000000 0.000000 0.000000 0.000000 -0.021956
#
#
# Mechanical properties :
#
#
# Convention : Reuss Voigt Hill
#
# Bulk Modulus (GPa) = 37.05941 38.39144 37.72543
# Shear Modulus (GPa) = 76.75468 -0.59788 38.07840
#
# Velocity S-wave (km/s) = 6.12901 -0.54093 4.31695
# Velocity P-wave (km/s) = 8.25977 4.28942 6.58114
#
# Compressibility (1/GPa) = 0.02698370
#
# Stress axis : x y z
#
# Youngs Moduli (GPa) = 77.17610 79.29083 80.56482
#
# Poissons Ratio (x) = -0.01006 0.36157
# Poissons Ratio (y) = -0.00979 0.09167
# Poissons Ratio (z) = 0.34636 0.09022
#
# Static dielectric constant tensor:
#      x y z
#    x 1.777970 0.000000 0.000000 
#    y 0.000000 1.534610 0.000000 
#    z 0.000000 0.000000 1.739440 
# 
# From -- ./inp_files/19612.got.cif
#   From: 2010.05.17/outbox.cif.g08.bks.cpg/sg70_10_cif.got.tgz:19612.got - 2010.06.03 15:57:51.
