data_PCOD9516216
_publ_section_title
;
Structure prediction by ZEFSAII (Michael W. Deem and Ramdas Pophale) SiO2 
 PCOD9516216
Probable space group: F D D D
;
_chemical_formula_sum "Si O2"
_cell_formula_units_Z 136
_cell_length_a 14.677619
_cell_length_b 13.518117
_cell_length_c 28.080356
_cell_angle_alpha 90.000000
_cell_angle_beta 90.000000
_cell_angle_gamma 90.000000
_cell_volume 5571.529323
_symmetry_space_group_name_H-M "F D D D"
_symmetry_group_IT_number 70
_space_group.IT_coordinate_system_code '2'
_symmetry_cell_setting 'orthorhombic'
loop_
_space_group_symop_operation_xyz
x,y,z
1/4-x,1/4-y,z
x,1/4-y,1/4-z
1/4-x,y,1/4-z
-x,-y,-z
3/4+x,3/4+y,-z
-x,3/4+y,3/4+z
3/4+x,-y,3/4+z
x,1/2+y,1/2+z
1/4-x,3/4-y,1/2+z
x,3/4-y,3/4-z
1/4-x,1/2+y,3/4-z
-x,1/2-y,1/2-z
3/4+x,1/4+y,1/2-z
-x,1/4+y,1/4+z
3/4+x,1/2-y,1/4+z
1/2+x,y,1/2+z
3/4-x,1/4-y,1/2+z
1/2+x,1/4-y,3/4-z
3/4-x,y,3/4-z
1/2-x,-y,1/2-z
1/4+x,3/4+y,1/2-z
1/2-x,3/4+y,1/4+z
1/4+x,-y,1/4+z
1/2+x,1/2+y,z
3/4-x,3/4-y,z
1/2+x,3/4-y,1/4-z
3/4-x,1/2+y,1/4-z
1/2-x,1/2-y,-z
1/4+x,1/4+y,-z
1/2-x,1/4+y,3/4+z
1/4+x,1/2-y,3/4+z
loop_
_atom_site_type_symbol
_atom_site_label
_atom_site_fract_x
_atom_site_fract_y
_atom_site_fract_z
Si Si1 0.233201 0.335605 0.624151
Si Si2 0.360120 0.590654 0.727013
Si Si3 0.512497 0.263217 0.551626
Si Si4 0.375000 0.875000 0.375000
Si Si5 0.302180 0.125000 0.625000
Si Si6 0.625000 0.125000 0.794672
O O1 0.125000 0.357724 0.625000
O O2 0.282581 0.412836 0.589170
O O3 0.244938 0.221225 0.611082
O O4 0.287076 0.350105 0.673255
O O5 0.437797 0.592119 0.766944
O O6 0.294037 0.685029 0.729853
O O7 0.389173 0.598647 0.671533
O O8 0.341213 0.472437 0.733125
O O9 0.569125 0.193422 0.588205
#
# Coordination Sequence:
#
# PCOD9516216 Si02
#       6
#    32  32  32   8  16  16
#     4  11  23  44  74 103 139 196 256 316 395 470
#     4  11  26  44  72 107 151 197 258 322 402 475
#     4  12  26  42  72 111 148 201 257 327 399 480
#     4  12  24  44  72 100 156 188 266 320 392 466
#     4  10  24  48  72 100 148 200 251 320 391 487
#     4  10  23  46  72  95 148 193 256 318 393 468
#
# _framework density 24.409813
#
# number of rings (size 3 to 8) (size 9 to 14) (size 15 to 20)
#    0.000    0.941    1.176    6.000    6.588    2.824 
#    0.000    0.000    0.000    0.000    0.000    0.000 
#    0.000    0.000    0.000    0.000    0.000    0.000 
#
# Total GULP energy -189681.708540 kJ/mol
# GULP energy per Si atom -5578.873781 kJ/mol
# Density = 2.435426 g / cm^3
# Si number density = 24.409813 Si / 1000 Ang^3
#
#
#
# Elastic Constant Matrix: (Units=GPa)
#
#
# Indices 1 2 3 4 5 6 
#
# 1 99.5078 35.9038 20.8605 0.0000 0.0000 0.0000
# 2 35.9038 157.7245 13.9449 0.0000 0.0000 0.0000
# 3 20.8605 13.9449 115.4332 0.0000 0.0000 0.0000
# 4 0.0000 0.0000 0.0000 40.0671 0.0000 0.0000
# 5 0.0000 0.0000 0.0000 0.0000 8.1622 0.0000
# 6 0.0000 0.0000 0.0000 0.0000 0.0000 -16.1772
#
#
#
# Elastic Compliance Matrix: (Units=1/GPa)
#
#
# Indices 1 2 3 4 5 6 
#
# 1 0.011287 -0.002415 -0.001748 0.000000 0.000000 0.000000
# 2 -0.002415 0.006925 -0.000400 0.000000 0.000000 0.000000
# 3 -0.001748 -0.000400 0.009027 0.000000 0.000000 0.000000
# 4 0.000000 0.000000 0.000000 0.024958 0.000000 0.000000
# 5 0.000000 0.000000 0.000000 0.000000 0.122516 0.000000
# 6 0.000000 0.000000 0.000000 0.000000 0.000000 -0.061816
#
#
# Mechanical properties :
#
#
# Convention : Reuss Voigt Hill
#
# Bulk Modulus (GPa) = 55.20721 57.12042 56.16382
# Shear Modulus (GPa) = 39.04349 26.54085 32.79217
#
# Velocity S-wave (km/s) = 4.00371 3.30100 3.66922
# Velocity P-wave (km/s) = 6.63618 6.16281 6.40387
#
# Compressibility (1/GPa) = 0.01811358
#
# Stress axis : x y z
#
# Youngs Moduli (GPa) = 88.59577 144.39906 110.77559
#
# Poissons Ratio (x) = 0.34870 0.19364
# Poissons Ratio (y) = 0.21394 0.04433
# Poissons Ratio (z) = 0.15487 0.05779
#
# Static dielectric constant tensor:
#      x y z
#    x 2.158510 0.000000 0.000000 
#    y 0.000000 1.974040 0.000000 
#    z 0.000000 0.000000 1.959230 
# 
# From -- ./inp_files/59324.got.cif
#   From: 2010.05.17/outbox.cif.g08.bks.cpg/sg70_30_cif.got.tgz:59324.got - 2010.06.03 15:57:51.
