data_PCOD9516939
_publ_section_title
;
Structure prediction by ZEFSAII (Michael W. Deem and Ramdas Pophale) SiO2 
 PCOD9516939
Probable space group: F D D D
;
_chemical_formula_sum "Si O2"
_cell_formula_units_Z 160
_cell_length_a 23.909495
_cell_length_b 17.824904
_cell_length_c 16.759513
_cell_angle_alpha 90.000000
_cell_angle_beta 90.000000
_cell_angle_gamma 90.000000
_cell_volume 7142.643882
_symmetry_space_group_name_H-M "F D D D"
_symmetry_group_IT_number 70
_space_group.IT_coordinate_system_code '2'
_symmetry_cell_setting 'orthorhombic'
loop_
_space_group_symop_operation_xyz
x,y,z
1/4-x,1/4-y,z
x,1/4-y,1/4-z
1/4-x,y,1/4-z
-x,-y,-z
3/4+x,3/4+y,-z
-x,3/4+y,3/4+z
3/4+x,-y,3/4+z
x,1/2+y,1/2+z
1/4-x,3/4-y,1/2+z
x,3/4-y,3/4-z
1/4-x,1/2+y,3/4-z
-x,1/2-y,1/2-z
3/4+x,1/4+y,1/2-z
-x,1/4+y,1/4+z
3/4+x,1/2-y,1/4+z
1/2+x,y,1/2+z
3/4-x,1/4-y,1/2+z
1/2+x,1/4-y,3/4-z
3/4-x,y,3/4-z
1/2-x,-y,1/2-z
1/4+x,3/4+y,1/2-z
1/2-x,3/4+y,1/4+z
1/4+x,-y,1/4+z
1/2+x,1/2+y,z
3/4-x,3/4-y,z
1/2+x,3/4-y,1/4-z
3/4-x,1/2+y,1/4-z
1/2-x,1/2-y,-z
1/4+x,1/4+y,-z
1/2-x,1/4+y,3/4+z
1/4+x,1/2-y,3/4+z
loop_
_atom_site_type_symbol
_atom_site_label
_atom_site_fract_x
_atom_site_fract_y
_atom_site_fract_z
Si Si1 0.265392 0.334488 0.590019
Si Si2 0.125000 0.125000 0.919826
Si Si3 0.657045 0.011194 0.706651
Si Si4 0.185046 0.423042 0.295239
Si Si5 0.936690 0.655527 0.489716
Si Si6 0.259671 0.875000 0.375000
O O1 0.318331 0.382703 0.619351
O O2 0.230466 0.364131 0.514233
O O3 0.291303 0.254086 0.567963
O O4 0.220960 0.324019 0.661265
O O5 0.119523 0.197577 0.977161
O O6 0.625000 0.992093 0.625000
O O7 0.701784 0.073372 0.680344
O O8 0.682422 0.935256 0.739735
O O9 0.175666 0.375000 0.375000
O O10 0.126643 0.432516 0.248543
O O11 0.971737 0.675760 0.568023
#
# Coordination Sequence:
#
# PCOD9516939 Si02
#       6
#    32  16  32  32  32  16
#     4  11  26  43  68  99 133 175 241 282 345 414
#     4  12  23  40  65 102 138 182 218 306 351 421
#     4  12  22  42  66 103 147 176 224 282 356 435
#     4  11  25  48  67  95 132 182 237 293 342 422
#     4  12  25  44  71 101 139 189 224 285 364 427
#     4  12  23  40  66 104 140 175 226 278 352 444
#
# _framework density 22.400668
#
# number of rings (size 3 to 8) (size 9 to 14) (size 15 to 20)
#    0.000    0.400    5.000    3.600    0.000    3.200 
#    0.000    2.500    0.000    0.000    0.000    0.000 
#    0.000    0.000    0.000    0.000    0.000    0.000 
#
# Total GULP energy -223944.856473 kJ/mol
# GULP energy per Si atom -5598.621412 kJ/mol
# Density = 2.234968 g / cm^3
# Si number density = 22.400668 Si / 1000 Ang^3
#
#
#
# Elastic Constant Matrix: (Units=GPa)
#
#
# Indices 1 2 3 4 5 6 
#
# 1 135.9969 15.2895 58.7945 0.0000 0.0000 0.0000
# 2 15.2895 50.9957 0.7218 0.0000 0.0000 0.0000
# 3 58.7945 0.7218 105.4623 0.0000 0.0000 0.0000
# 4 0.0000 0.0000 0.0000 23.9513 0.0000 0.0000
# 5 0.0000 0.0000 0.0000 0.0000 36.6753 0.0000
# 6 0.0000 0.0000 0.0000 0.0000 0.0000 -58.0209
#
#
#
# Elastic Compliance Matrix: (Units=1/GPa)
#
#
# Indices 1 2 3 4 5 6 
#
# 1 0.010114 -0.002953 -0.005618 0.000000 0.000000 0.000000
# 2 -0.002953 0.020473 0.001506 0.000000 0.000000 0.000000
# 3 -0.005618 0.001506 0.012604 0.000000 0.000000 0.000000
# 4 0.000000 0.000000 0.000000 0.041751 0.000000 0.000000
# 5 0.000000 0.000000 0.000000 0.000000 0.027266 0.000000
# 6 0.000000 0.000000 0.000000 0.000000 0.000000 -0.017235
#
#
# Mechanical properties :
#
#
# Convention : Reuss Voigt Hill
#
# Bulk Modulus (GPa) = 34.41002 49.11848 41.76425
# Shear Modulus (GPa) = 42.09072 15.03109 28.56090
#
# Velocity S-wave (km/s) = 4.33944 2.59320 3.57459
# Velocity P-wave (km/s) = 6.36413 5.56247 5.97676
#
# Compressibility (1/GPa) = 0.02906130
#
# Stress axis : x y z
#
# Youngs Moduli (GPa) = 98.87305 48.84364 79.34052
#
# Poissons Ratio (x) = 0.14423 0.44576
# Poissons Ratio (y) = 0.29196 -0.11949
# Poissons Ratio (z) = 0.55549 -0.07356
#
# Static dielectric constant tensor:
#      x y z
#    x 1.854390 0.000000 0.000000 
#    y 0.000000 1.798690 0.000000 
#    z 0.000000 0.000000 1.861430 
# 
# From -- ./inp_files/36335.got.cif
#   From: 2010.05.17/outbox.cif.g08.bks.cpg/sg70_19_cif.got.tgz:36335.got - 2010.06.03 15:57:51.
