data_PCOD9516676
_publ_section_title
;
Structure prediction by ZEFSAII (Michael W. Deem and Ramdas Pophale) SiO2 
 PCOD9516676
Probable space group: F D D D
;
_chemical_formula_sum "Si O2"
_cell_formula_units_Z 136
_cell_length_a 11.576241
_cell_length_b 25.361049
_cell_length_c 21.148145
_cell_angle_alpha 90.000000
_cell_angle_beta 90.000000
_cell_angle_gamma 90.000000
_cell_volume 6208.791161
_symmetry_space_group_name_H-M "F D D D"
_symmetry_group_IT_number 70
_space_group.IT_coordinate_system_code '2'
_symmetry_cell_setting 'orthorhombic'
loop_
_space_group_symop_operation_xyz
x,y,z
1/4-x,1/4-y,z
x,1/4-y,1/4-z
1/4-x,y,1/4-z
-x,-y,-z
3/4+x,3/4+y,-z
-x,3/4+y,3/4+z
3/4+x,-y,3/4+z
x,1/2+y,1/2+z
1/4-x,3/4-y,1/2+z
x,3/4-y,3/4-z
1/4-x,1/2+y,3/4-z
-x,1/2-y,1/2-z
3/4+x,1/4+y,1/2-z
-x,1/4+y,1/4+z
3/4+x,1/2-y,1/4+z
1/2+x,y,1/2+z
3/4-x,1/4-y,1/2+z
1/2+x,1/4-y,3/4-z
3/4-x,y,3/4-z
1/2-x,-y,1/2-z
1/4+x,3/4+y,1/2-z
1/2-x,3/4+y,1/4+z
1/4+x,-y,1/4+z
1/2+x,1/2+y,z
3/4-x,3/4-y,z
1/2+x,3/4-y,1/4-z
3/4-x,1/2+y,1/4-z
1/2-x,1/2-y,-z
1/4+x,1/4+y,-z
1/2-x,1/4+y,3/4+z
1/4+x,1/2-y,3/4+z
loop_
_atom_site_type_symbol
_atom_site_label
_atom_site_fract_x
_atom_site_fract_y
_atom_site_fract_z
Si Si1 0.774905 0.200247 0.416018
Si Si2 0.844405 0.313733 0.060773
Si Si3 0.125000 0.625000 0.625000
Si Si4 0.858275 0.508311 0.942116
Si Si5 0.144943 0.551690 0.517691
O O1 0.875000 0.172261 0.375000
O O2 0.674491 0.212615 0.365031
O O3 0.837941 0.250802 0.447554
O O4 0.708799 0.173491 0.474935
O O5 0.875000 0.375000 0.062222
O O6 0.708939 0.301885 0.066207
O O7 0.872267 0.285269 0.995409
O O8 0.190156 0.587297 0.575513
O O9 0.875000 0.480004 0.875000
O O10 0.742761 0.535692 0.967932
#
# Coordination Sequence:
#
# PCOD9516676 Si02
#       5
#    32  32   8  32  32
#     4  11  22  44  68  94 140 186 232 290 365 412
#     4  11  25  42  69 104 136 187 243 288 357 435
#     4  12  24  44  68 108 126 164 250 284 368 406
#     4  11  23  47  68  97 149 185 225 297 362 420
#     4  11  24  42  70 102 135 184 228 304 352 429
#
# _framework density 21.904423999999999
#
# number of rings (size 3 to 8) (size 9 to 14) (size 15 to 20)
#    0.000    0.941    5.882    0.000    1.647    3.294 
#    0.000    0.000    0.000    0.000    0.000    0.000 
#    0.000    0.000    0.000    0.000    0.000    0.000 
#
# Total GULP energy -189390.489145 kJ/mol
# GULP energy per Si atom -5570.308504 kJ/mol
# Density = 2.185457 g / cm^3
# Si number density = 21.904424 Si / 1000 Ang^3
#
#
#
# Elastic Constant Matrix: (Units=GPa)
#
#
# Indices 1 2 3 4 5 6 
#
# 1 133.4292 37.5390 77.5143 0.0000 0.0000 0.0000
# 2 37.5390 41.9372 18.6145 0.0000 0.0000 0.0000
# 3 77.5143 18.6145 180.5041 0.0000 0.0000 0.0000
# 4 0.0000 0.0000 0.0000 21.9045 0.0000 0.0000
# 5 0.0000 0.0000 0.0000 0.0000 50.8822 0.0000
# 6 0.0000 0.0000 0.0000 0.0000 0.0000 -34.3878
#
#
#
# Elastic Compliance Matrix: (Units=1/GPa)
#
#
# Indices 1 2 3 4 5 6 
#
# 1 0.012767 -0.009426 -0.004510 0.000000 0.000000 0.000000
# 2 -0.009426 0.031948 0.000753 0.000000 0.000000 0.000000
# 3 -0.004510 0.000753 0.007399 0.000000 0.000000 0.000000
# 4 0.000000 0.000000 0.000000 0.045653 0.000000 0.000000
# 5 0.000000 0.000000 0.000000 0.000000 0.019653 0.000000
# 6 0.000000 0.000000 0.000000 0.000000 0.000000 -0.029080
#
#
# Mechanical properties :
#
#
# Convention : Reuss Voigt Hill
#
# Bulk Modulus (GPa) = 38.83808 69.24515 54.04161
# Shear Modulus (GPa) = 40.55515 22.49330 31.52422
#
# Velocity S-wave (km/s) = 4.30753 3.20798 3.79776
# Velocity P-wave (km/s) = 6.51989 6.73814 6.62991
#
# Compressibility (1/GPa) = 0.02574792
#
# Stress axis : x y z
#
# Youngs Moduli (GPa) = 78.32851 31.30073 135.14795
#
# Poissons Ratio (x) = 0.29503 0.60957
# Poissons Ratio (y) = 0.73831 -0.10178
# Poissons Ratio (z) = 0.35329 -0.02357
#
# Static dielectric constant tensor:
#      x y z
#    x 1.866670 0.000000 0.000000 
#    y 0.000000 1.811330 0.000000 
#    z 0.000000 0.000000 1.869770 
# 
# From -- ./inp_files/17678.got.cif
#   From: 2010.05.17/outbox.cif.g08.bks.cpg/sg70_9_cif.got.tgz:17678.got - 2010.06.03 15:57:51.
