data_PCOD9516482
_publ_section_title
;
Structure prediction by ZEFSAII (Michael W. Deem and Ramdas Pophale) SiO2 
 PCOD9516482
Probable space group: F D D D
;
_chemical_formula_sum "Si O2"
_cell_formula_units_Z 176
_cell_length_a 28.229547
_cell_length_b 10.650590
_cell_length_c 24.656818
_cell_angle_alpha 90.000000
_cell_angle_beta 90.000000
_cell_angle_gamma 90.000000
_cell_volume 7413.351718
_symmetry_space_group_name_H-M "F D D D"
_symmetry_group_IT_number 70
_space_group.IT_coordinate_system_code '2'
_symmetry_cell_setting 'orthorhombic'
loop_
_space_group_symop_operation_xyz
x,y,z
1/4-x,1/4-y,z
x,1/4-y,1/4-z
1/4-x,y,1/4-z
-x,-y,-z
3/4+x,3/4+y,-z
-x,3/4+y,3/4+z
3/4+x,-y,3/4+z
x,1/2+y,1/2+z
1/4-x,3/4-y,1/2+z
x,3/4-y,3/4-z
1/4-x,1/2+y,3/4-z
-x,1/2-y,1/2-z
3/4+x,1/4+y,1/2-z
-x,1/4+y,1/4+z
3/4+x,1/2-y,1/4+z
1/2+x,y,1/2+z
3/4-x,1/4-y,1/2+z
1/2+x,1/4-y,3/4-z
3/4-x,y,3/4-z
1/2-x,-y,1/2-z
1/4+x,3/4+y,1/2-z
1/2-x,3/4+y,1/4+z
1/4+x,-y,1/4+z
1/2+x,1/2+y,z
3/4-x,3/4-y,z
1/2+x,3/4-y,1/4-z
3/4-x,1/2+y,1/4-z
1/2-x,1/2-y,-z
1/4+x,1/4+y,-z
1/2-x,1/4+y,3/4+z
1/4+x,1/2-y,3/4+z
loop_
_atom_site_type_symbol
_atom_site_label
_atom_site_fract_x
_atom_site_fract_y
_atom_site_fract_z
Si Si1 0.049648 0.694272 0.227248
Si Si2 0.534533 0.907502 0.237799
Si Si3 0.635025 0.830571 0.257029
Si Si4 0.707815 0.688707 0.180700
Si Si5 0.583477 0.875000 0.875000
Si Si6 0.497426 0.555441 0.383460
O O1 0.052814 0.551656 0.246063
O O2 0.092385 0.783604 0.243444
O O3 0.040879 0.716572 0.163436
O O4 0.000000 0.750000 0.250000
O O5 0.581323 0.823831 0.237333
O O6 0.497885 0.868108 0.284378
O O7 0.509307 0.923753 0.180179
O O8 0.667793 0.734912 0.222950
O O9 0.638474 0.825563 0.322438
O O10 0.690542 0.625000 0.125000
O O11 0.736348 0.811336 0.160060
O O12 0.547884 0.761846 0.858117
#
# Coordination Sequence:
#
# PCOD9516482 Si02
#       6
#    32  32  32  32  16  32
#     4  11  17  37  64 102 136 172 225 301 366 418
#     4  12  22  40  66 105 133 184 245 285 359 438
#     4  11  24  38  68 103 139 181 238 301 360 421
#     4  11  25  45  67  94 144 194 235 288 360 433
#     4  12  18  42  70  99 142 174 232 317 362 418
#     4  11  20  39  73  96 133 185 228 286 372 420
#
# _framework density 23.740949000000001
#
# number of rings (size 3 to 8) (size 9 to 14) (size 15 to 20)
#    0.000    0.727    9.091    0.545    1.273    3.636 
#    0.000    5.455    0.000    0.000    0.000    0.000 
#    0.000    0.000    0.000    0.000    0.000    0.000 
#
# Total GULP energy -245984.583676 kJ/mol
# GULP energy per Si atom -5590.558720 kJ/mol
# Density = 2.368691 g / cm^3
# Si number density = 23.740949 Si / 1000 Ang^3
#
#
#
# Elastic Constant Matrix: (Units=GPa)
#
#
# Indices 1 2 3 4 5 6 
#
# 1 95.2218 5.6820 28.1167 0.0000 0.0000 0.0000
# 2 5.6820 70.8470 12.8600 0.0000 0.0000 0.0000
# 3 28.1167 12.8600 156.5325 0.0000 0.0000 0.0000
# 4 0.0000 0.0000 0.0000 39.1521 0.0000 0.0000
# 5 0.0000 0.0000 0.0000 0.0000 -0.6493 0.0000
# 6 0.0000 0.0000 0.0000 0.0000 0.0000 25.3519
#
#
#
# Elastic Compliance Matrix: (Units=1/GPa)
#
#
# Indices 1 2 3 4 5 6 
#
# 1 0.011110 -0.000537 -0.001952 0.000000 0.000000 0.000000
# 2 -0.000537 0.014355 -0.001083 0.000000 0.000000 0.000000
# 3 -0.001952 -0.001083 0.006828 0.000000 0.000000 0.000000
# 4 0.000000 0.000000 0.000000 0.025541 0.000000 0.000000
# 5 0.000000 0.000000 0.000000 0.000000 -1.540057 0.000000
# 6 0.000000 0.000000 0.000000 0.000000 0.000000 0.039445
#
#
# Mechanical properties :
#
#
# Convention : Reuss Voigt Hill
#
# Bulk Modulus (GPa) = 39.76120 46.21320 42.98720
# Shear Modulus (GPa) = -3.50323 31.16711 13.83194
#
# Velocity S-wave (km/s) = -1.21606 3.62719 2.41637
# Velocity P-wave (km/s) = 3.84871 6.08686 5.09227
#
# Compressibility (1/GPa) = 0.02515015
#
# Stress axis : x y z
#
# Youngs Moduli (GPa) = 90.00845 69.66443 146.45683
#
# Poissons Ratio (x) = 0.03740 0.28581
# Poissons Ratio (y) = 0.04832 0.15859
# Poissons Ratio (z) = 0.17565 0.07544
#
# Static dielectric constant tensor:
#      x y z
#    x 1.833240 0.000000 0.000000 
#    y 0.000000 2.096720 0.000000 
#    z 0.000000 0.000000 1.975690 
# 
# From -- ./inp_files/54984.got.cif
#   From: 2010.05.17/outbox.cif.g08.bks.cpg/sg70_28_cif.got.tgz:54984.got - 2010.06.03 15:57:51.
