data_PCOD9516347
_publ_section_title
;
Structure prediction by ZEFSAII (Michael W. Deem and Ramdas Pophale) SiO2 
 PCOD9516347
Probable space group: F D D D
;
_chemical_formula_sum "Si O2"
_cell_formula_units_Z 192
_cell_length_a 22.604957
_cell_length_b 11.274825
_cell_length_c 32.770100
_cell_angle_alpha 90.000000
_cell_angle_beta 90.000000
_cell_angle_gamma 90.000000
_cell_volume 8352.014924
_symmetry_space_group_name_H-M "F D D D"
_symmetry_group_IT_number 70
_space_group.IT_coordinate_system_code '2'
_symmetry_cell_setting 'orthorhombic'
loop_
_space_group_symop_operation_xyz
x,y,z
1/4-x,1/4-y,z
x,1/4-y,1/4-z
1/4-x,y,1/4-z
-x,-y,-z
3/4+x,3/4+y,-z
-x,3/4+y,3/4+z
3/4+x,-y,3/4+z
x,1/2+y,1/2+z
1/4-x,3/4-y,1/2+z
x,3/4-y,3/4-z
1/4-x,1/2+y,3/4-z
-x,1/2-y,1/2-z
3/4+x,1/4+y,1/2-z
-x,1/4+y,1/4+z
3/4+x,1/2-y,1/4+z
1/2+x,y,1/2+z
3/4-x,1/4-y,1/2+z
1/2+x,1/4-y,3/4-z
3/4-x,y,3/4-z
1/2-x,-y,1/2-z
1/4+x,3/4+y,1/2-z
1/2-x,3/4+y,1/4+z
1/4+x,-y,1/4+z
1/2+x,1/2+y,z
3/4-x,3/4-y,z
1/2+x,3/4-y,1/4-z
3/4-x,1/2+y,1/4-z
1/2-x,1/2-y,-z
1/4+x,1/4+y,-z
1/2-x,1/4+y,3/4+z
1/4+x,1/2-y,3/4+z
loop_
_atom_site_type_symbol
_atom_site_label
_atom_site_fract_x
_atom_site_fract_y
_atom_site_fract_z
Si Si1 0.303491 0.098241 0.473910
Si Si2 0.546079 0.984242 0.942504
Si Si3 0.022587 0.975865 0.907003
Si Si4 0.375000 0.875000 0.115668
Si Si5 0.922054 0.087661 0.319000
Si Si6 0.460012 0.875000 0.875000
Si Si7 0.016225 0.367570 0.487301
O O1 0.314163 0.158407 0.518001
O O2 0.241269 0.152704 0.458621
O O3 0.355282 0.126073 0.442024
O O4 0.292017 0.959521 0.479154
O O5 0.598843 0.026040 0.914148
O O6 0.501131 0.920361 0.911825
O O7 0.006674 0.875000 0.875000
O O8 0.046997 0.897872 0.944815
O O9 0.072732 0.067037 0.892066
O O10 0.964435 0.055064 0.916352
O O11 0.948916 0.055388 0.274129
O O12 0.926729 0.981837 0.351510
O O13 0.000000 0.500000 0.500000
#
# Coordination Sequence:
#
# PCOD9516347 Si02
#       7
#    32  32  32  16  32  16  32
#     4  11  26  49  74 114 151 206 256 331 404 486
#     4  11  27  45  78 107 153 197 266 328 403 468
#     4  11  26  46  75 114 151 205 262 323 403 479
#     4  12  26  46  76 118 148 205 263 344 388 474
#     4  11  26  47  80 112 157 206 266 334 404 487
#     4  12  24  51  74 120 144 214 267 332 408 478
#     4  10  24  46  71 107 154 203 255 310 392 479
#
# _framework density 22.988464
#
# number of rings (size 3 to 8) (size 9 to 14) (size 15 to 20)
#    0.000    1.000    3.333    1.000    5.833    7.333 
#    0.000    2.500    0.000    0.000    0.000    0.000 
#    0.000    0.000    0.000    0.000    0.000    0.000 
#
# Total GULP energy -268366.553067 kJ/mol
# GULP energy per Si atom -5590.969856 kJ/mol
# Density = 2.293614 g / cm^3
# Si number density = 22.988464 Si / 1000 Ang^3
#
#
#
# Elastic Constant Matrix: (Units=GPa)
#
#
# Indices 1 2 3 4 5 6 
#
# 1 101.1229 64.4508 40.2848 0.0000 0.0000 0.0000
# 2 64.4508 133.9577 61.9482 0.0000 0.0000 0.0000
# 3 40.2848 61.9482 130.6843 0.0000 0.0000 0.0000
# 4 0.0000 0.0000 0.0000 35.6413 0.0000 0.0000
# 5 0.0000 0.0000 0.0000 0.0000 45.7174 0.0000
# 6 0.0000 0.0000 0.0000 0.0000 0.0000 10.3313
#
#
#
# Elastic Compliance Matrix: (Units=1/GPa)
#
#
# Indices 1 2 3 4 5 6 
#
# 1 0.014485 -0.006281 -0.001488 0.000000 0.000000 0.000000
# 2 -0.006281 0.012285 -0.003887 0.000000 0.000000 0.000000
# 3 -0.001488 -0.003887 0.009953 0.000000 0.000000 0.000000
# 4 0.000000 0.000000 0.000000 0.028057 0.000000 0.000000
# 5 0.000000 0.000000 0.000000 0.000000 0.021873 0.000000
# 6 0.000000 0.000000 0.000000 0.000000 0.000000 0.096794
#
#
# Mechanical properties :
#
#
# Convention : Reuss Voigt Hill
#
# Bulk Modulus (GPa) = 74.56562 77.68139 76.12351
# Shear Modulus (GPa) = 23.67097 31.61007 27.64052
#
# Velocity S-wave (km/s) = 3.21236 3.71218 3.47127
# Velocity P-wave (km/s) = 6.80188 7.22762 7.01798
#
# Compressibility (1/GPa) = 0.01341101
#
# Stress axis : x y z
#
# Youngs Moduli (GPa) = 69.03749 81.40266 100.47022
#
# Poissons Ratio (x) = 0.51130 0.14947
# Poissons Ratio (y) = 0.43363 0.39053
# Poissons Ratio (z) = 0.10271 0.31642
#
# Static dielectric constant tensor:
#      x y z
#    x 1.834340 0.000000 0.000000 
#    y 0.000000 1.868570 0.000000 
#    z 0.000000 0.000000 1.981490 
# 
# From -- ./inp_files/62233.got.cif
#   From: 2010.05.17/outbox.cif.g08.bks.cpg/sg70_32_cif.got.tgz:62233.got - 2010.06.03 15:57:51.
