data_PCOD9516502
_publ_section_title
;
Structure prediction by ZEFSAII (Michael W. Deem and Ramdas Pophale) SiO2 
 PCOD9516502
Probable space group: F D D D
;
_chemical_formula_sum "Si O2"
_cell_formula_units_Z 144
_cell_length_a 14.787760
_cell_length_b 28.283936
_cell_length_c 13.070947
_cell_angle_alpha 90.000000
_cell_angle_beta 90.000000
_cell_angle_gamma 90.000000
_cell_volume 5467.002759
_symmetry_space_group_name_H-M "F D D D"
_symmetry_group_IT_number 70
_space_group.IT_coordinate_system_code '2'
_symmetry_cell_setting 'orthorhombic'
loop_
_space_group_symop_operation_xyz
x,y,z
1/4-x,1/4-y,z
x,1/4-y,1/4-z
1/4-x,y,1/4-z
-x,-y,-z
3/4+x,3/4+y,-z
-x,3/4+y,3/4+z
3/4+x,-y,3/4+z
x,1/2+y,1/2+z
1/4-x,3/4-y,1/2+z
x,3/4-y,3/4-z
1/4-x,1/2+y,3/4-z
-x,1/2-y,1/2-z
3/4+x,1/4+y,1/2-z
-x,1/4+y,1/4+z
3/4+x,1/2-y,1/4+z
1/2+x,y,1/2+z
3/4-x,1/4-y,1/2+z
1/2+x,1/4-y,3/4-z
3/4-x,y,3/4-z
1/2-x,-y,1/2-z
1/4+x,3/4+y,1/2-z
1/2-x,3/4+y,1/4+z
1/4+x,-y,1/4+z
1/2+x,1/2+y,z
3/4-x,3/4-y,z
1/2+x,3/4-y,1/4-z
3/4-x,1/2+y,1/4-z
1/2-x,1/2-y,-z
1/4+x,1/4+y,-z
1/2-x,1/4+y,3/4+z
1/4+x,1/2-y,3/4+z
loop_
_atom_site_type_symbol
_atom_site_label
_atom_site_fract_x
_atom_site_fract_y
_atom_site_fract_z
Si Si1 0.560263 0.690244 0.018755
Si Si2 0.375000 0.725329 0.375000
Si Si3 0.222002 0.099019 0.528787
Si Si4 0.473401 0.746666 0.865609
Si Si5 0.757335 0.596542 0.284508
O O1 0.549498 0.712717 0.908457
O O2 0.663204 0.671303 0.016199
O O3 0.488000 0.647836 0.018854
O O4 0.549766 0.736889 0.088025
O O5 0.415402 0.693450 0.283075
O O6 0.125000 0.125000 0.523914
O O7 0.271875 0.125000 0.625000
O O8 0.216202 0.045415 0.570516
O O9 0.251775 0.101990 0.409295
O O10 0.500000 0.750000 0.750000
O O11 0.375000 0.723522 0.875000
#
# Coordination Sequence:
#
# PCOD9516502 Si02
#       5
#    32  16  32  32  32
#     4  11  25  45  74 101 153 195 255 328 392 464
#     4  12  26  47  76 106 154 206 267 322 398 478
#     4  11  19  39  69  98 141 192 240 306 389 452
#     4  12  24  41  71 111 147 193 255 322 396 471
#     4  11  24  47  69 106 145 205 256 313 390 481
#
# _framework density 26.339842999999998
#
# number of rings (size 3 to 8) (size 9 to 14) (size 15 to 20)
#    0.000    0.667    6.667    3.333    1.556    1.778 
#    0.000    0.000    0.000    0.000    0.000    0.000 
#    0.000    0.000    0.000    0.000    0.000    0.000 
#
# Total GULP energy -200773.392648 kJ/mol
# GULP energy per Si atom -5577.038685 kJ/mol
# Density = 2.627989 g / cm^3
# Si number density = 26.339843 Si / 1000 Ang^3
#
#
#
# Elastic Constant Matrix: (Units=GPa)
#
#
# Indices 1 2 3 4 5 6 
#
# 1 64.7383 42.2705 -5.2304 0.0000 0.0000 0.0000
# 2 42.2705 171.9591 13.0448 0.0000 0.0000 0.0000
# 3 -5.2304 13.0448 60.8914 0.0000 0.0000 0.0000
# 4 0.0000 0.0000 0.0000 52.9284 0.0000 0.0000
# 5 0.0000 0.0000 0.0000 0.0000 37.4952 0.0000
# 6 0.0000 0.0000 0.0000 0.0000 0.0000 32.5914
#
#
#
# Elastic Compliance Matrix: (Units=1/GPa)
#
#
# Indices 1 2 3 4 5 6 
#
# 1 0.018811 -0.004825 0.002650 0.000000 0.000000 0.000000
# 2 -0.004825 0.007149 -0.001946 0.000000 0.000000 0.000000
# 3 0.002650 -0.001946 0.017067 0.000000 0.000000 0.000000
# 4 0.000000 0.000000 0.000000 0.018893 0.000000 0.000000
# 5 0.000000 0.000000 0.000000 0.000000 0.026670 0.000000
# 6 0.000000 0.000000 0.000000 0.000000 0.000000 0.030683
#
#
# Mechanical properties :
#
#
# Convention : Reuss Voigt Hill
#
# Bulk Modulus (GPa) = 28.74852 44.19539 36.47195
# Shear Modulus (GPa) = 35.94219 41.10325 38.52272
#
# Velocity S-wave (km/s) = 3.69800 3.95460 3.82845
# Velocity P-wave (km/s) = 5.40109 6.13736 5.78095
#
# Compressibility (1/GPa) = 0.03478440
#
# Stress axis : x y z
#
# Youngs Moduli (GPa) = 53.15914 139.87835 58.59204
#
# Poissons Ratio (x) = 0.67494 -0.15524
# Poissons Ratio (y) = 0.25650 0.11402
# Poissons Ratio (z) = -0.14085 0.27221
#
# Static dielectric constant tensor:
#      x y z
#    x 2.070520 0.000000 0.000000 
#    y 0.000000 2.104870 0.000000 
#    z 0.000000 0.000000 2.126880 
# 
# From -- ./inp_files/26590.got.cif
#   From: 2010.05.17/outbox.cif.g08.bks.cpg/sg70_14_cif.got.tgz:26590.got - 2010.06.03 15:57:51.
