data_PCOD9516389
_publ_section_title
;
Structure prediction by ZEFSAII (Michael W. Deem and Ramdas Pophale) SiO2 
 PCOD9516389
Probable space group: F D D D
;
_chemical_formula_sum "Si O2"
_cell_formula_units_Z 88
_cell_length_a 12.660329
_cell_length_b 18.658071
_cell_length_c 14.697106
_cell_angle_alpha 90.000000
_cell_angle_beta 90.000000
_cell_angle_gamma 90.000000
_cell_volume 3471.710952
_symmetry_space_group_name_H-M "F D D D"
_symmetry_group_IT_number 70
_space_group.IT_coordinate_system_code '2'
_symmetry_cell_setting 'orthorhombic'
loop_
_space_group_symop_operation_xyz
x,y,z
1/4-x,1/4-y,z
x,1/4-y,1/4-z
1/4-x,y,1/4-z
-x,-y,-z
3/4+x,3/4+y,-z
-x,3/4+y,3/4+z
3/4+x,-y,3/4+z
x,1/2+y,1/2+z
1/4-x,3/4-y,1/2+z
x,3/4-y,3/4-z
1/4-x,1/2+y,3/4-z
-x,1/2-y,1/2-z
3/4+x,1/4+y,1/2-z
-x,1/4+y,1/4+z
3/4+x,1/2-y,1/4+z
1/2+x,y,1/2+z
3/4-x,1/4-y,1/2+z
1/2+x,1/4-y,3/4-z
3/4-x,y,3/4-z
1/2-x,-y,1/2-z
1/4+x,3/4+y,1/2-z
1/2-x,3/4+y,1/4+z
1/4+x,-y,1/4+z
1/2+x,1/2+y,z
3/4-x,3/4-y,z
1/2+x,3/4-y,1/4-z
3/4-x,1/2+y,1/4-z
1/2-x,1/2-y,-z
1/4+x,1/4+y,-z
1/2-x,1/4+y,3/4+z
1/4+x,1/2-y,3/4+z
loop_
_atom_site_type_symbol
_atom_site_label
_atom_site_fract_x
_atom_site_fract_y
_atom_site_fract_z
Si Si1 0.436487 0.307045 0.687864
Si Si2 0.125000 0.625000 0.125000
Si Si3 0.375000 0.605501 0.375000
Si Si4 0.668245 0.941893 0.318415
O O1 0.500000 0.250000 0.750000
O O2 0.375000 0.375000 0.732315
O O3 0.523763 0.342831 0.623030
O O4 0.356009 0.261565 0.626616
O O5 0.207438 0.672358 0.067626
O O6 0.378185 0.562091 0.281744
O O7 0.619887 0.875000 0.375000
#
# Coordination Sequence:
#
# PCOD9516389 Si02
#       4
#    32   8  16  32
#     4  12  29  53  87 123 168 232 289 366 447 537
#     4   8  20  50  88 110 168 212 282 352 418 518
#     4  12  28  49  82 124 171 224 288 362 447 522
#     4  10  24  51  83 122 167 222 282 363 431 533
#
# _framework density 25.347732000000001
#
# number of rings (size 3 to 8) (size 9 to 14) (size 15 to 20)
#    1.091    0.000    3.636    0.000    7.636    2.909 
#    0.000    0.909    8.000    0.000    0.000    0.000 
#    0.000    0.000    0.000    0.000    0.000    0.000 
#
# Total GULP energy -123137.944098 kJ/mol
# GULP energy per Si atom -5597.179277 kJ/mol
# Density = 2.529004 g / cm^3
# Si number density = 25.347732 Si / 1000 Ang^3
#
#
#
# Elastic Constant Matrix: (Units=GPa)
#
#
# Indices 1 2 3 4 5 6 
#
# 1 144.9801 56.8947 40.2374 0.0000 0.0000 0.0000
# 2 56.8947 192.3174 74.3085 0.0000 0.0000 0.0000
# 3 40.2374 74.3085 163.4809 0.0000 0.0000 0.0000
# 4 0.0000 0.0000 0.0000 34.6811 0.0000 0.0000
# 5 0.0000 0.0000 0.0000 0.0000 39.9597 0.0000
# 6 0.0000 0.0000 0.0000 0.0000 0.0000 25.0223
#
#
#
# Elastic Compliance Matrix: (Units=1/GPa)
#
#
# Indices 1 2 3 4 5 6 
#
# 1 0.007957 -0.001938 -0.001078 0.000000 0.000000 0.000000
# 2 -0.001938 0.006779 -0.002605 0.000000 0.000000 0.000000
# 3 -0.001078 -0.002605 0.007566 0.000000 0.000000 0.000000
# 4 0.000000 0.000000 0.000000 0.028834 0.000000 0.000000
# 5 0.000000 0.000000 0.000000 0.000000 0.025025 0.000000
# 6 0.000000 0.000000 0.000000 0.000000 0.000000 0.039964
#
#
# Mechanical properties :
#
#
# Convention : Reuss Voigt Hill
#
# Bulk Modulus (GPa) = 90.39463 93.73995 92.06729
# Shear Modulus (GPa) = 38.15238 41.88846 40.02042
#
# Velocity S-wave (km/s) = 3.88385 4.06957 3.97779
# Velocity P-wave (km/s) = 7.47339 7.69050 7.58272
#
# Compressibility (1/GPa) = 0.01106260
#
# Stress axis : x y z
#
# Youngs Moduli (GPa) = 125.67600 147.50777 132.16906
#
# Poissons Ratio (x) = 0.28580 0.14245
# Poissons Ratio (y) = 0.24350 0.34424
# Poissons Ratio (z) = 0.13545 0.38419
#
# Static dielectric constant tensor:
#      x y z
#    x 2.080230 0.000000 0.000000 
#    y 0.000000 2.079780 0.000000 
#    z 0.000000 0.000000 1.972540 
# 
# From -- ./inp_files/24920.got.cif
#   From: 2010.05.17/outbox.cif.g08.bks.cpg/sg70_13_cif.got.tgz:24920.got - 2010.06.03 15:57:51.
