data_PCOD9516137
_publ_section_title
;
Structure prediction by ZEFSAII (Michael W. Deem and Ramdas Pophale) SiO2 
 PCOD9516137
Probable space group: F D D D
;
_chemical_formula_sum "Si O2"
_cell_formula_units_Z 112
_cell_length_a 12.223991
_cell_length_b 14.632965
_cell_length_c 24.567897
_cell_angle_alpha 90.000000
_cell_angle_beta 90.000000
_cell_angle_gamma 90.000000
_cell_volume 4394.539151
_symmetry_space_group_name_H-M "F D D D"
_symmetry_group_IT_number 70
_space_group.IT_coordinate_system_code '2'
_symmetry_cell_setting 'orthorhombic'
loop_
_space_group_symop_operation_xyz
x,y,z
1/4-x,1/4-y,z
x,1/4-y,1/4-z
1/4-x,y,1/4-z
-x,-y,-z
3/4+x,3/4+y,-z
-x,3/4+y,3/4+z
3/4+x,-y,3/4+z
x,1/2+y,1/2+z
1/4-x,3/4-y,1/2+z
x,3/4-y,3/4-z
1/4-x,1/2+y,3/4-z
-x,1/2-y,1/2-z
3/4+x,1/4+y,1/2-z
-x,1/4+y,1/4+z
3/4+x,1/2-y,1/4+z
1/2+x,y,1/2+z
3/4-x,1/4-y,1/2+z
1/2+x,1/4-y,3/4-z
3/4-x,y,3/4-z
1/2-x,-y,1/2-z
1/4+x,3/4+y,1/2-z
1/2-x,3/4+y,1/4+z
1/4+x,-y,1/4+z
1/2+x,1/2+y,z
3/4-x,3/4-y,z
1/2+x,3/4-y,1/4-z
3/4-x,1/2+y,1/4-z
1/2-x,1/2-y,-z
1/4+x,1/4+y,-z
1/2-x,1/4+y,3/4+z
1/4+x,1/2-y,3/4+z
loop_
_atom_site_type_symbol
_atom_site_label
_atom_site_fract_x
_atom_site_fract_y
_atom_site_fract_z
Si Si1 0.511029 0.240960 0.658449
Si Si2 0.678246 0.875000 0.375000
Si Si3 0.756150 0.896898 0.492809
Si Si4 0.773032 0.145992 0.760453
O O1 0.625000 0.236881 0.625000
O O2 0.406070 0.210670 0.623483
O O3 0.505518 0.167502 0.708474
O O4 0.493303 0.338786 0.686193
O O5 0.749523 0.878186 0.428639
O O6 0.875000 0.875000 0.515163
O O7 0.654142 0.841976 0.516399
O O8 0.726200 0.003884 0.498203
#
# Coordination Sequence:
#
# PCOD9516137 Si02
#       4
#    32  16  32  32
#     4  10  23  42  71 102 142 178 238 296 358 427
#     4  10  24  38  68  96 136 180 220 296 356 428
#     4  11  24  46  67  98 142 188 230 296 362 433
#     4  10  25  43  72 105 137 187 237 296 358 435
#
# _framework density 25.486176
#
# number of rings (size 3 to 8) (size 9 to 14) (size 15 to 20)
#    0.000    1.714    0.000    1.714   12.000   11.429 
#    0.000    0.000    0.000    0.000    0.000    0.000 
#    0.000    0.000    0.000    0.000    0.000    0.000 
#
# Total GULP energy -156870.667637 kJ/mol
# GULP energy per Si atom -5602.523844 kJ/mol
# Density = 2.542817 g / cm^3
# Si number density = 25.486176 Si / 1000 Ang^3
#
#
#
# Elastic Constant Matrix: (Units=GPa)
#
#
# Indices 1 2 3 4 5 6 
#
# 1 155.9487 -10.7915 12.5432 0.0000 0.0000 0.0000
# 2 -10.7915 65.2813 19.8645 0.0000 0.0000 0.0000
# 3 12.5432 19.8645 69.7251 0.0000 0.0000 0.0000
# 4 0.0000 0.0000 0.0000 30.4442 0.0000 0.0000
# 5 0.0000 0.0000 0.0000 0.0000 30.6094 0.0000
# 6 0.0000 0.0000 0.0000 0.0000 0.0000 -4.8634
#
#
#
# Elastic Compliance Matrix: (Units=1/GPa)
#
#
# Indices 1 2 3 4 5 6 
#
# 1 0.006656 0.001604 -0.001654 0.000000 0.000000 0.000000
# 2 0.001604 0.017159 -0.005177 0.000000 0.000000 0.000000
# 3 -0.001654 -0.005177 0.016115 0.000000 0.000000 0.000000
# 4 0.000000 0.000000 0.000000 0.032847 0.000000 0.000000
# 5 0.000000 0.000000 0.000000 0.000000 0.032670 0.000000
# 6 0.000000 0.000000 0.000000 0.000000 0.000000 -0.205619
#
#
# Mechanical properties :
#
#
# Convention : Reuss Voigt Hill
#
# Bulk Modulus (GPa) = 33.92760 37.13195 35.52978
# Shear Modulus (GPa) = -62.58423 29.19397 -16.69513
#
# Velocity S-wave (km/s) = -4.96079 3.38817 -2.56220
# Velocity P-wave (km/s) = 4.41266 5.46876 2.28427
#
# Compressibility (1/GPa) = 0.02947453
#
# Stress axis : x y z
#
# Youngs Moduli (GPa) = 150.23114 58.27924 62.05566
#
# Poissons Ratio (x) = -0.09347 0.10266
# Poissons Ratio (y) = -0.24094 0.32126
# Poissons Ratio (z) = 0.24854 0.30171
#
# Static dielectric constant tensor:
#      x y z
#    x 2.056200 0.000000 0.000000 
#    y 0.000000 1.978360 0.000000 
#    z 0.000000 0.000000 1.993170 
# 
# From -- ./inp_files/64384.got.cif
#   From: 2010.05.17/outbox.cif.g08.bks.cpg/sg70_33_cif.got.tgz:64384.got - 2010.06.03 15:57:51.
