data_PCOD9516962
_publ_section_title
;
Structure prediction by ZEFSAII (Michael W. Deem and Ramdas Pophale) SiO2 
 PCOD9516962
Probable space group: F D D D
;
_chemical_formula_sum "Si O2"
_cell_formula_units_Z 112
_cell_length_a 16.035714
_cell_length_b 13.106945
_cell_length_c 22.555453
_cell_angle_alpha 90.000000
_cell_angle_beta 90.000000
_cell_angle_gamma 90.000000
_cell_volume 4740.687551
_symmetry_space_group_name_H-M "F D D D"
_symmetry_group_IT_number 70
_space_group.IT_coordinate_system_code '2'
_symmetry_cell_setting 'orthorhombic'
loop_
_space_group_symop_operation_xyz
x,y,z
1/4-x,1/4-y,z
x,1/4-y,1/4-z
1/4-x,y,1/4-z
-x,-y,-z
3/4+x,3/4+y,-z
-x,3/4+y,3/4+z
3/4+x,-y,3/4+z
x,1/2+y,1/2+z
1/4-x,3/4-y,1/2+z
x,3/4-y,3/4-z
1/4-x,1/2+y,3/4-z
-x,1/2-y,1/2-z
3/4+x,1/4+y,1/2-z
-x,1/4+y,1/4+z
3/4+x,1/2-y,1/4+z
1/2+x,y,1/2+z
3/4-x,1/4-y,1/2+z
1/2+x,1/4-y,3/4-z
3/4-x,y,3/4-z
1/2-x,-y,1/2-z
1/4+x,3/4+y,1/2-z
1/2-x,3/4+y,1/4+z
1/4+x,-y,1/4+z
1/2+x,1/2+y,z
3/4-x,3/4-y,z
1/2+x,3/4-y,1/4-z
3/4-x,1/2+y,1/4-z
1/2-x,1/2-y,-z
1/4+x,1/4+y,-z
1/2-x,1/4+y,3/4+z
1/4+x,1/2-y,3/4+z
loop_
_atom_site_type_symbol
_atom_site_label
_atom_site_fract_x
_atom_site_fract_y
_atom_site_fract_z
Si Si1 0.735180 0.315406 0.680060
Si Si2 0.625000 0.125000 0.020997
Si Si3 0.098037 0.241148 0.266769
Si Si4 0.875000 0.212608 0.875000
Si Si5 0.080631 0.375000 0.375000
O O1 0.795983 0.367162 0.727714
O O2 0.650788 0.279998 0.711325
O O3 0.707926 0.394476 0.629834
O O4 0.777449 0.214720 0.654676
O O5 0.624830 0.220402 0.065589
O O6 0.125000 0.125000 0.279328
O O7 0.123923 0.315176 0.321260
O O8 0.000000 0.250000 0.250000
#
# Coordination Sequence:
#
# PCOD9516962 Si02
#       5
#    32  16  32  16  16
#     4  12  27  49  77 115 153 201 264 318 389 469
#     4  11  28  50  72 114 158 206 258 317 388 474
#     4  12  27  51  79 115 157 202 263 328 387 466
#     4  11  26  47  76 106 160 207 250 321 388 464
#     4  12  28  47  84 115 154 208 254 331 394 464
#
# _framework density 23.625264999999999
#
# number of rings (size 3 to 8) (size 9 to 14) (size 15 to 20)
#    0.000    0.286    2.857    4.286    6.000    3.429 
#    0.000    0.000    0.000    0.000    0.000    0.000 
#    0.000    0.000    0.000    0.000    0.000    0.000 
#
# Total GULP energy -156933.649335 kJ/mol
# GULP energy per Si atom -5604.773191 kJ/mol
# Density = 2.357149 g / cm^3
# Si number density = 23.625265 Si / 1000 Ang^3
#
#
#
# Elastic Constant Matrix: (Units=GPa)
#
#
# Indices 1 2 3 4 5 6 
#
# 1 74.6109 34.4554 12.1838 0.0000 0.0000 0.0000
# 2 34.4554 173.3584 57.1809 0.0000 0.0000 0.0000
# 3 12.1838 57.1809 98.9635 0.0000 0.0000 0.0000
# 4 0.0000 0.0000 0.0000 31.3568 0.0000 0.0000
# 5 0.0000 0.0000 0.0000 0.0000 21.4596 0.0000
# 6 0.0000 0.0000 0.0000 0.0000 0.0000 44.0706
#
#
#
# Elastic Compliance Matrix: (Units=1/GPa)
#
#
# Indices 1 2 3 4 5 6 
#
# 1 0.014759 -0.002884 -0.000151 0.000000 0.000000 0.000000
# 2 -0.002884 0.007690 -0.004088 0.000000 0.000000 0.000000
# 3 -0.000151 -0.004088 0.012486 0.000000 0.000000 0.000000
# 4 0.000000 0.000000 0.000000 0.031891 0.000000 0.000000
# 5 0.000000 0.000000 0.000000 0.000000 0.046599 0.000000
# 6 0.000000 0.000000 0.000000 0.000000 0.000000 0.022691
#
#
# Mechanical properties :
#
#
# Convention : Reuss Voigt Hill
#
# Bulk Modulus (GPa) = 48.33466 61.61923 54.97694
# Shear Modulus (GPa) = 31.79492 35.58490 33.68991
#
# Velocity S-wave (km/s) = 3.67250 3.88522 3.78035
# Velocity P-wave (km/s) = 6.20373 6.80185 6.50966
#
# Compressibility (1/GPa) = 0.02068909
#
# Stress axis : x y z
#
# Youngs Moduli (GPa) = 67.75441 130.03880 80.09289
#
# Poissons Ratio (x) = 0.37499 0.01209
# Poissons Ratio (y) = 0.19538 0.32744
# Poissons Ratio (z) = 0.01022 0.53163
#
# Static dielectric constant tensor:
#      x y z
#    x 1.869060 0.000000 0.000000 
#    y 0.000000 1.897670 0.000000 
#    z 0.000000 0.000000 1.873520 
# 
# From -- ./inp_files/28303.got.cif
#   From: 2010.05.17/outbox.cif.g08.bks.cpg/sg70_15_cif.got.tgz:28303.got - 2010.06.03 15:57:51.
