data_PCOD9516068
_publ_section_title
;
Structure prediction by ZEFSAII (Michael W. Deem and Ramdas Pophale) SiO2 
 PCOD9516068
Probable space group: F D D D
;
_chemical_formula_sum "Si O2"
_cell_formula_units_Z 112
_cell_length_a 25.243445
_cell_length_b 14.784711
_cell_length_c 12.558036
_cell_angle_alpha 90.000000
_cell_angle_beta 90.000000
_cell_angle_gamma 90.000000
_cell_volume 4686.873011
_symmetry_space_group_name_H-M "F D D D"
_symmetry_group_IT_number 70
_space_group.IT_coordinate_system_code '2'
_symmetry_cell_setting 'orthorhombic'
loop_
_space_group_symop_operation_xyz
x,y,z
1/4-x,1/4-y,z
x,1/4-y,1/4-z
1/4-x,y,1/4-z
-x,-y,-z
3/4+x,3/4+y,-z
-x,3/4+y,3/4+z
3/4+x,-y,3/4+z
x,1/2+y,1/2+z
1/4-x,3/4-y,1/2+z
x,3/4-y,3/4-z
1/4-x,1/2+y,3/4-z
-x,1/2-y,1/2-z
3/4+x,1/4+y,1/2-z
-x,1/4+y,1/4+z
3/4+x,1/2-y,1/4+z
1/2+x,y,1/2+z
3/4-x,1/4-y,1/2+z
1/2+x,1/4-y,3/4-z
3/4-x,y,3/4-z
1/2-x,-y,1/2-z
1/4+x,3/4+y,1/2-z
1/2-x,3/4+y,1/4+z
1/4+x,-y,1/4+z
1/2+x,1/2+y,z
3/4-x,3/4-y,z
1/2+x,3/4-y,1/4-z
3/4-x,1/2+y,1/4-z
1/2-x,1/2-y,-z
1/4+x,1/4+y,-z
1/2-x,1/4+y,3/4+z
1/4+x,1/2-y,3/4+z
loop_
_atom_site_type_symbol
_atom_site_label
_atom_site_fract_x
_atom_site_fract_y
_atom_site_fract_z
Si Si1 0.200520 0.486779 0.012420
Si Si2 0.875000 0.516588 0.375000
Si Si3 0.496822 0.625000 0.625000
Si Si4 0.589754 0.311986 0.248834
Si Si5 0.967044 0.375000 0.375000
O O1 0.223072 0.587078 0.023246
O O2 0.183307 0.469948 0.135508
O O3 0.143353 0.482740 0.958785
O O4 0.243002 0.418085 0.962943
O O5 0.893103 0.584743 0.280821
O O6 0.925768 0.455167 0.406250
O O7 0.456395 0.699591 0.667398
#
# Coordination Sequence:
#
# PCOD9516068 Si02
#       5
#    32  16  16  32  16
#     4  10  23  39  66  93 129 174 216 277 337 393
#     4   9  20  38  62  95 130 158 226 287 316 406
#     4  12  21  45  63  92 135 181 211 280 340 394
#     4  10  23  41  61  96 130 168 228 273 323 417
#     4  11  19  40  65  98 125 174 217 283 348 376
#
# _framework density 23.896531
#
# number of rings (size 3 to 8) (size 9 to 14) (size 15 to 20)
#    0.000    2.000    2.857    1.714    0.000    6.857 
#    5.143    0.000    0.000    0.000    0.000    0.000 
#    0.000    0.000    0.000    0.000    0.000    0.000 
#
# Total GULP energy -156054.335149 kJ/mol
# GULP energy per Si atom -5573.369112 kJ/mol
# Density = 2.384214 g / cm^3
# Si number density = 23.896531 Si / 1000 Ang^3
#
#
#
# Elastic Constant Matrix: (Units=GPa)
#
#
# Indices 1 2 3 4 5 6 
#
# 1 179.7768 50.7559 16.2744 0.0000 0.0000 0.0000
# 2 50.7559 59.5373 -2.7402 0.0000 0.0000 0.0000
# 3 16.2744 -2.7402 39.7484 0.0000 0.0000 0.0000
# 4 0.0000 0.0000 0.0000 0.2658 0.0000 0.0000
# 5 0.0000 0.0000 0.0000 0.0000 29.7849 0.0000
# 6 0.0000 0.0000 0.0000 0.0000 0.0000 15.1640
#
#
#
# Elastic Compliance Matrix: (Units=1/GPa)
#
#
# Indices 1 2 3 4 5 6 
#
# 1 0.007827 -0.006842 -0.003676 0.000000 0.000000 0.000000
# 2 -0.006842 0.022830 0.004375 0.000000 0.000000 0.000000
# 3 -0.003676 0.004375 0.026965 0.000000 0.000000 0.000000
# 4 0.000000 0.000000 0.000000 3.762863 0.000000 0.000000
# 5 0.000000 0.000000 0.000000 0.000000 0.033574 0.000000
# 6 0.000000 0.000000 0.000000 0.000000 0.000000 0.065946
#
#
# Mechanical properties :
#
#
# Convention : Reuss Voigt Hill
#
# Bulk Modulus (GPa) = 22.05735 45.29365 33.67550
# Shear Modulus (GPa) = 1.26666 23.36108 12.31387
#
# Velocity S-wave (km/s) = 0.72884 3.13004 2.27248
# Velocity P-wave (km/s) = 3.15574 5.66199 4.58349
#
# Compressibility (1/GPa) = 0.04533637
#
# Stress axis : x y z
#
# Youngs Moduli (GPa) = 127.76575 43.80189 37.08504
#
# Poissons Ratio (x) = 0.29968 0.13633
# Poissons Ratio (y) = 0.87412 -0.16225
# Poissons Ratio (z) = 0.46970 -0.19164
#
# Static dielectric constant tensor:
#      x y z
#    x 2.039040 0.000000 0.000000 
#    y 0.000000 2.097950 0.000000 
#    z 0.000000 0.000000 1.899540 
# 
# From -- ./inp_files/26345.got.cif
#   From: 2010.05.17/outbox.cif.g08.bks.cpg/sg70_14_cif.got.tgz:26345.got - 2010.06.03 15:57:51.
