data_PCOD9516563
_publ_section_title
;
Structure prediction by ZEFSAII (Michael W. Deem and Ramdas Pophale) SiO2 
 PCOD9516563
Probable space group: F D D D
;
_chemical_formula_sum "Si O2"
_cell_formula_units_Z 176
_cell_length_a 25.117476
_cell_length_b 18.586068
_cell_length_c 19.239089
_cell_angle_alpha 90.000000
_cell_angle_beta 90.000000
_cell_angle_gamma 90.000000
_cell_volume 8981.482363
_symmetry_space_group_name_H-M "F D D D"
_symmetry_group_IT_number 70
_space_group.IT_coordinate_system_code '2'
_symmetry_cell_setting 'orthorhombic'
loop_
_space_group_symop_operation_xyz
x,y,z
1/4-x,1/4-y,z
x,1/4-y,1/4-z
1/4-x,y,1/4-z
-x,-y,-z
3/4+x,3/4+y,-z
-x,3/4+y,3/4+z
3/4+x,-y,3/4+z
x,1/2+y,1/2+z
1/4-x,3/4-y,1/2+z
x,3/4-y,3/4-z
1/4-x,1/2+y,3/4-z
-x,1/2-y,1/2-z
3/4+x,1/4+y,1/2-z
-x,1/4+y,1/4+z
3/4+x,1/2-y,1/4+z
1/2+x,y,1/2+z
3/4-x,1/4-y,1/2+z
1/2+x,1/4-y,3/4-z
3/4-x,y,3/4-z
1/2-x,-y,1/2-z
1/4+x,3/4+y,1/2-z
1/2-x,3/4+y,1/4+z
1/4+x,-y,1/4+z
1/2+x,1/2+y,z
3/4-x,3/4-y,z
1/2+x,3/4-y,1/4-z
3/4-x,1/2+y,1/4-z
1/2-x,1/2-y,-z
1/4+x,1/4+y,-z
1/2-x,1/4+y,3/4+z
1/4+x,1/2-y,3/4+z
loop_
_atom_site_type_symbol
_atom_site_label
_atom_site_fract_x
_atom_site_fract_y
_atom_site_fract_z
Si Si1 0.380669 0.613676 0.793735
Si Si2 0.965805 0.021265 0.722079
Si Si3 0.940703 0.762570 0.277073
Si Si4 0.722148 0.125000 0.125000
Si Si5 0.360231 0.453718 0.139187
Si Si6 0.699823 0.319364 0.314448
O O1 0.375000 0.600125 0.875000
O O2 0.414535 0.548528 0.763334
O O3 0.414797 0.686094 0.787931
O O4 0.330488 0.633004 0.744621
O O5 0.993875 0.091416 0.688111
O O6 0.939810 0.980695 0.656262
O O7 0.005639 0.976482 0.771932
O O8 0.939772 0.808324 0.346511
O O9 0.910132 0.804974 0.217499
O O10 0.000000 0.750000 0.250000
O O11 0.375000 0.375000 0.111678
O O12 0.407539 0.513424 0.148457
O O13 0.718349 0.375000 0.375000
#
# Coordination Sequence:
#
# PCOD9516563 Si02
#       6
#    32  32  32  16  32  32
#     4  11  24  42  64  98 134 174 231 290 344 423
#     4  12  23  42  71  92 134 187 229 290 360 409
#     4  11  21  37  64  93 133 172 215 274 362 420
#     4  12  20  36  67 100 128 168 220 276 357 426
#     4  11  24  42  64  98 134 174 231 290 344 423
#     4  11  24  45  69  98 139 189 232 284 361 432
#
# _framework density 19.595874999999999
#
# number of rings (size 3 to 8) (size 9 to 14) (size 15 to 20)
#    0.000    0.727    5.455    3.273    0.000    1.455 
#    3.273    5.455    0.000    0.000    0.000    0.000 
#    0.000    0.000    0.000    0.000    0.000    0.000 
#
# Total GULP energy -245508.877047 kJ/mol
# GULP energy per Si atom -5579.747206 kJ/mol
# Density = 1.955127 g / cm^3
# Si number density = 19.595875 Si / 1000 Ang^3
#
#
#
# Elastic Constant Matrix: (Units=GPa)
#
#
# Indices 1 2 3 4 5 6 
#
# 1 54.7075 20.9672 15.8631 0.0000 0.0000 0.0000
# 2 20.9672 55.1738 19.1718 0.0000 0.0000 0.0000
# 3 15.8631 19.1718 95.6189 0.0000 0.0000 0.0000
# 4 0.0000 0.0000 0.0000 42.6047 0.0000 0.0000
# 5 0.0000 0.0000 0.0000 0.0000 38.3910 0.0000
# 6 0.0000 0.0000 0.0000 0.0000 0.0000 19.9370
#
#
#
# Elastic Compliance Matrix: (Units=1/GPa)
#
#
# Indices 1 2 3 4 5 6 
#
# 1 0.021781 -0.007547 -0.002100 0.000000 0.000000 0.000000
# 2 -0.007547 0.022097 -0.003178 0.000000 0.000000 0.000000
# 3 -0.002100 -0.003178 0.011444 0.000000 0.000000 0.000000
# 4 0.000000 0.000000 0.000000 0.023472 0.000000 0.000000
# 5 0.000000 0.000000 0.000000 0.000000 0.026048 0.000000
# 6 0.000000 0.000000 0.000000 0.000000 0.000000 0.050158
#
#
# Mechanical properties :
#
#
# Convention : Reuss Voigt Hill
#
# Bulk Modulus (GPa) = 33.70429 35.27829 34.49129
# Shear Modulus (GPa) = 26.24111 30.15307 28.19709
#
# Velocity S-wave (km/s) = 3.66336 3.92694 3.79744
# Velocity P-wave (km/s) = 5.92711 6.21314 6.07181
#
# Compressibility (1/GPa) = 0.02966981
#
# Stress axis : x y z
#
# Youngs Moduli (GPa) = 45.91246 45.25477 87.38300
#
# Poissons Ratio (x) = 0.34155 0.18352
# Poissons Ratio (y) = 0.34652 0.27774
# Poissons Ratio (z) = 0.09642 0.14384
#
# Static dielectric constant tensor:
#      x y z
#    x 1.722420 0.000000 0.000000 
#    y 0.000000 1.806470 0.000000 
#    z 0.000000 0.000000 1.650100 
# 
# From -- ./inp_files/35254.got.cif
#   From: 2010.05.17/outbox.cif.g08.bks.cpg/sg70_18_cif.got.tgz:35254.got - 2010.06.03 15:57:51.
