data_PCOD9516091
_publ_section_title
;
Structure prediction by ZEFSAII (Michael W. Deem and Ramdas Pophale) SiO2 
 PCOD9516091
Probable space group: F D D D
;
_chemical_formula_sum "Si O2"
_cell_formula_units_Z 96
_cell_length_a 15.520207
_cell_length_b 9.802492
_cell_length_c 24.505307
_cell_angle_alpha 90.000000
_cell_angle_beta 90.000000
_cell_angle_gamma 90.000000
_cell_volume 3728.156661
_symmetry_space_group_name_H-M "F D D D"
_symmetry_group_IT_number 70
_space_group.IT_coordinate_system_code '2'
_symmetry_cell_setting 'orthorhombic'
loop_
_space_group_symop_operation_xyz
x,y,z
1/4-x,1/4-y,z
x,1/4-y,1/4-z
1/4-x,y,1/4-z
-x,-y,-z
3/4+x,3/4+y,-z
-x,3/4+y,3/4+z
3/4+x,-y,3/4+z
x,1/2+y,1/2+z
1/4-x,3/4-y,1/2+z
x,3/4-y,3/4-z
1/4-x,1/2+y,3/4-z
-x,1/2-y,1/2-z
3/4+x,1/4+y,1/2-z
-x,1/4+y,1/4+z
3/4+x,1/2-y,1/4+z
1/2+x,y,1/2+z
3/4-x,1/4-y,1/2+z
1/2+x,1/4-y,3/4-z
3/4-x,y,3/4-z
1/2-x,-y,1/2-z
1/4+x,3/4+y,1/2-z
1/2-x,3/4+y,1/4+z
1/4+x,-y,1/4+z
1/2+x,1/2+y,z
3/4-x,3/4-y,z
1/2+x,3/4-y,1/4-z
3/4-x,1/2+y,1/4-z
1/2-x,1/2-y,-z
1/4+x,1/4+y,-z
1/2-x,1/4+y,3/4+z
1/4+x,1/2-y,3/4+z
loop_
_atom_site_type_symbol
_atom_site_label
_atom_site_fract_x
_atom_site_fract_y
_atom_site_fract_z
Si Si1 0.945134 0.486994 0.147307
Si Si2 0.314253 0.554101 0.925422
Si Si3 0.680327 0.488724 0.502608
O O1 0.904223 0.625000 0.125000
O O2 0.875000 0.375000 0.163004
O O3 0.005384 0.422660 0.100531
O O4 0.008966 0.522355 0.196138
O O5 0.375000 0.512953 0.875000
O O6 0.371063 0.618088 0.974278
O O7 0.245831 0.452915 0.953527
O O8 0.625000 0.625000 0.489739
#
# Coordination Sequence:
#
# PCOD9516091 Si02
#       3
#    32  32  32
#     4  11  24  42  69 109 149 186 237 296 355 425
#     4  10  23  40  70 105 139 183 252 292 347 430
#     4  11  21  40  72 104 133 194 250 288 344 432
#
# _framework density 25.74999
#
# number of rings (size 3 to 8) (size 9 to 14) (size 15 to 20)
#    0.000    1.333    3.333    2.000    4.667    0.000 
#    0.000    6.667    0.000    2.000    0.000    0.000 
#    0.000    0.000    0.000    0.000    0.000    0.000 
#
# Total GULP energy -134428.724701 kJ/mol
# GULP energy per Si atom -5601.196863 kJ/mol
# Density = 2.569138 g / cm^3
# Si number density = 25.749990 Si / 1000 Ang^3
#
#
#
# Elastic Constant Matrix: (Units=GPa)
#
#
# Indices 1 2 3 4 5 6 
#
# 1 152.3670 45.5351 81.7294 0.0000 0.0000 0.0000
# 2 45.5351 77.5751 12.7908 0.0000 0.0000 0.0000
# 3 81.7294 12.7908 124.3402 0.0000 0.0000 0.0000
# 4 0.0000 0.0000 0.0000 -17.9932 0.0000 0.0000
# 5 0.0000 0.0000 0.0000 0.0000 21.1607 0.0000
# 6 0.0000 0.0000 0.0000 0.0000 0.0000-1235.4097
#
#
#
# Elastic Compliance Matrix: (Units=1/GPa)
#
#
# Indices 1 2 3 4 5 6 
#
# 1 0.012412 -0.006043 -0.007537 0.000000 0.000000 0.000000
# 2 -0.006043 0.016055 0.002320 0.000000 0.000000 0.000000
# 3 -0.007537 0.002320 0.012758 0.000000 0.000000 0.000000
# 4 0.000000 0.000000 0.000000 -0.055577 0.000000 0.000000
# 5 0.000000 0.000000 0.000000 0.000000 0.047257 0.000000
# 6 0.000000 0.000000 0.000000 0.000000 0.000000 -0.000809
#
#
# Mechanical properties :
#
#
# Convention : Reuss Voigt Hill
#
# Bulk Modulus (GPa) = 53.45784 70.48809 61.97297
# Shear Modulus (GPa) = 82.17081 -232.16662 -74.99790
#
# Velocity S-wave (km/s) = 5.65511 -9.50566 -5.40265
# Velocity P-wave (km/s) = 7.96529 9.64590 3.84692
#
# Compressibility (1/GPa) = 0.01870633
#
# Stress axis : x y z
#
# Youngs Moduli (GPa) = 80.57000 62.28554 78.38478
#
# Poissons Ratio (x) = 0.37637 0.59075
# Poissons Ratio (y) = 0.48686 -0.18188
# Poissons Ratio (z) = 0.60722 -0.14452
#
# Static dielectric constant tensor:
#      x y z
#    x 1.915130 0.000000 0.000000 
#    y 0.000000 1.925090 0.000000 
#    z 0.000000 0.000000 2.021710 
# 
# From -- ./inp_files/15864.got.cif
#   From: 2010.05.17/outbox.cif.g08.bks.cpg/sg70_8_cif.got.tgz:15864.got - 2010.06.03 15:57:51.
