data_PCOD9516959
_publ_section_title
;
Structure prediction by ZEFSAII (Michael W. Deem and Ramdas Pophale) SiO2 
 PCOD9516959
Probable space group: F D D D
;
_chemical_formula_sum "Si O2"
_cell_formula_units_Z 112
_cell_length_a 27.191044
_cell_length_b 21.581695
_cell_length_c 8.550543
_cell_angle_alpha 90.000000
_cell_angle_beta 90.000000
_cell_angle_gamma 90.000000
_cell_volume 5017.705045
_symmetry_space_group_name_H-M "F D D D"
_symmetry_group_IT_number 70
_space_group.IT_coordinate_system_code '2'
_symmetry_cell_setting 'orthorhombic'
loop_
_space_group_symop_operation_xyz
x,y,z
1/4-x,1/4-y,z
x,1/4-y,1/4-z
1/4-x,y,1/4-z
-x,-y,-z
3/4+x,3/4+y,-z
-x,3/4+y,3/4+z
3/4+x,-y,3/4+z
x,1/2+y,1/2+z
1/4-x,3/4-y,1/2+z
x,3/4-y,3/4-z
1/4-x,1/2+y,3/4-z
-x,1/2-y,1/2-z
3/4+x,1/4+y,1/2-z
-x,1/4+y,1/4+z
3/4+x,1/2-y,1/4+z
1/2+x,y,1/2+z
3/4-x,1/4-y,1/2+z
1/2+x,1/4-y,3/4-z
3/4-x,y,3/4-z
1/2-x,-y,1/2-z
1/4+x,3/4+y,1/2-z
1/2-x,3/4+y,1/4+z
1/4+x,-y,1/4+z
1/2+x,1/2+y,z
3/4-x,3/4-y,z
1/2+x,3/4-y,1/4-z
3/4-x,1/2+y,1/4-z
1/2-x,1/2-y,-z
1/4+x,1/4+y,-z
1/2-x,1/4+y,3/4+z
1/4+x,1/2-y,3/4+z
loop_
_atom_site_type_symbol
_atom_site_label
_atom_site_fract_x
_atom_site_fract_y
_atom_site_fract_z
Si Si1 0.513121 0.278024 0.001750
Si Si2 0.439043 0.556087 0.576704
Si Si3 0.899105 0.756780 0.714280
Si Si4 0.813675 0.875000 0.875000
O O1 0.543052 0.302805 0.149635
O O2 0.483750 0.217023 0.060963
O O3 0.549852 0.268564 0.855678
O O4 0.471224 0.327390 0.964717
O O5 0.423799 0.625000 0.625000
O O6 0.393741 0.508788 0.593574
O O7 0.908759 0.828358 0.756154
O O8 0.875000 0.729639 0.875000
#
# Coordination Sequence:
#
# PCOD9516959 Si02
#       4
#    32  32  32  16
#     4  11  26  47  74 106 147 195 247 312 377 440
#     4  11  26  47  72 107 147 193 248 309 376 449
#     4  12  26  44  74 109 143 194 250 303 373 441
#     4  12  25  48  78 106 144 196 248 308 361 462
#
# _framework density 22.320961
#
# number of rings (size 3 to 8) (size 9 to 14) (size 15 to 20)
#    0.000    0.571    2.857    3.857    6.000    0.000 
#    0.000    0.000    6.286    0.000    0.000    0.000 
#    0.000    0.000    0.000    0.000    0.000    0.000 
#
# Total GULP energy -156447.724702 kJ/mol
# GULP energy per Si atom -5587.418739 kJ/mol
# Density = 2.227016 g / cm^3
# Si number density = 22.320961 Si / 1000 Ang^3
#
#
#
# Elastic Constant Matrix: (Units=GPa)
#
#
# Indices 1 2 3 4 5 6 
#
# 1 119.9313 62.3619 48.1807 0.0000 -0.0001 0.0000
# 2 62.3619 133.5299 55.0748 -0.0002 -0.0001 0.0000
# 3 48.1807 55.0748 88.7898 -0.0007 -0.0003 0.0001
# 4 0.0000 -0.0002 -0.0007 13.7219 -0.0001 0.0000
# 5 -0.0001 -0.0001 -0.0003 -0.0001 151.3847 0.0001
# 6 0.0000 0.0000 0.0001 0.0000 0.0001 47.5947
#
#
#
# Elastic Compliance Matrix: (Units=1/GPa)
#
#
# Indices 1 2 3 4 5 6 
#
# 1 0.012023 -0.003930 -0.004087 0.000000 0.000000 0.000000
# 2 -0.003930 0.011348 -0.004907 0.000000 0.000000 0.000000
# 3 -0.004087 -0.004907 0.016524 0.000001 0.000000 0.000000
# 4 0.000000 0.000000 0.000001 0.072876 0.000000 0.000000
# 5 0.000000 0.000000 0.000000 0.000000 0.006606 0.000000
# 6 0.000000 0.000000 0.000000 0.000000 0.000000 0.021011
#
#
# Mechanical properties :
#
#
# Convention : Reuss Voigt Hill
#
# Bulk Modulus (GPa) = 71.17992 74.83174 73.00583
# Shear Modulus (GPa) = 29.25414 54.31585 41.78499
#
# Velocity S-wave (km/s) = 3.62417 4.93830 4.33136
# Velocity P-wave (km/s) = 7.03358 8.13104 7.60214
#
# Compressibility (1/GPa) = 0.01404891
#
# Stress axis : x y z
#
# Youngs Moduli (GPa) = 83.17246 88.12222 60.51917
#
# Poissons Ratio (x) = 0.34628 0.24733
# Poissons Ratio (y) = 0.32683 0.29694
# Poissons Ratio (z) = 0.33991 0.43238
#
# Static dielectric constant tensor:
#      x y z
#    x 1.926630 0.000000 0.000000 
#    y 0.000000 1.814490 0.000000 
#    z 0.000000 0.000000 1.860780 
# 
# From -- ./inp_files/10693.got.cif
#   From: 2010.05.17/outbox.cif.g08.bks.cpg/sg70_6_cif.got.tgz:10693.got - 2010.06.03 15:57:51.
