data_PCOD9516008
_publ_section_title
;
Structure prediction by ZEFSAII (Michael W. Deem and Ramdas Pophale) SiO2 
 PCOD9516008
Probable space group: F D D D
;
_chemical_formula_sum "Si O2"
_cell_formula_units_Z 168
_cell_length_a 13.315464
_cell_length_b 25.744730
_cell_length_c 20.634912
_cell_angle_alpha 90.000000
_cell_angle_beta 90.000000
_cell_angle_gamma 90.000000
_cell_volume 7073.710265
_symmetry_space_group_name_H-M "F D D D"
_symmetry_group_IT_number 70
_space_group.IT_coordinate_system_code '2'
_symmetry_cell_setting 'orthorhombic'
loop_
_space_group_symop_operation_xyz
x,y,z
1/4-x,1/4-y,z
x,1/4-y,1/4-z
1/4-x,y,1/4-z
-x,-y,-z
3/4+x,3/4+y,-z
-x,3/4+y,3/4+z
3/4+x,-y,3/4+z
x,1/2+y,1/2+z
1/4-x,3/4-y,1/2+z
x,3/4-y,3/4-z
1/4-x,1/2+y,3/4-z
-x,1/2-y,1/2-z
3/4+x,1/4+y,1/2-z
-x,1/4+y,1/4+z
3/4+x,1/2-y,1/4+z
1/2+x,y,1/2+z
3/4-x,1/4-y,1/2+z
1/2+x,1/4-y,3/4-z
3/4-x,y,3/4-z
1/2-x,-y,1/2-z
1/4+x,3/4+y,1/2-z
1/2-x,3/4+y,1/4+z
1/4+x,-y,1/4+z
1/2+x,1/2+y,z
3/4-x,3/4-y,z
1/2+x,3/4-y,1/4-z
3/4-x,1/2+y,1/4-z
1/2-x,1/2-y,-z
1/4+x,1/4+y,-z
1/2-x,1/4+y,3/4+z
1/4+x,1/2-y,3/4+z
loop_
_atom_site_type_symbol
_atom_site_label
_atom_site_fract_x
_atom_site_fract_y
_atom_site_fract_z
Si Si1 0.625000 0.125000 0.625000
Si Si2 0.800940 0.712230 0.656416
Si Si3 0.863698 0.797944 0.249263
Si Si4 0.024372 0.334080 0.264761
Si Si5 0.651424 0.564730 0.360124
Si Si6 0.332797 0.570629 0.238016
O O1 0.696302 0.094178 0.675956
O O2 0.701710 0.689531 0.688555
O O3 0.888457 0.701010 0.706903
O O4 0.808276 0.774290 0.645349
O O5 0.826501 0.684149 0.589722
O O6 0.804962 0.801454 0.181190
O O7 0.890641 0.737386 0.260637
O O8 0.967294 0.829610 0.240941
O O9 0.082142 0.387750 0.245735
O O10 0.972532 0.309960 0.201976
O O11 0.625000 0.625000 0.359615
#
# Coordination Sequence:
#
# PCOD9516008 Si02
#       6
#     8  32  32  32  32  32
#     4  12  24  44  72  90 132 184 230 276 352 418
#     4  11  23  43  70 105 132 183 240 289 344 421
#     4  10  24  42  68 100 144 178 227 294 352 418
#     4  12  24  43  70  98 132 183 236 285 340 417
#     4  11  25  43  64 100 142 182 226 283 356 411
#     4  10  22  45  69 100 136 188 233 280 357 420
#
# _framework density 23.749912999999999
#
# number of rings (size 3 to 8) (size 9 to 14) (size 15 to 20)
#    0.000    1.143    2.857    2.286    2.667    0.762 
#    0.000    3.810    0.000    0.000    0.000    0.000 
#    0.000    0.000    0.000    0.000    0.000    0.000 
#
# Total GULP energy -234823.515397 kJ/mol
# GULP energy per Si atom -5591.036081 kJ/mol
# Density = 2.369586 g / cm^3
# Si number density = 23.749913 Si / 1000 Ang^3
#
#
#
# Elastic Constant Matrix: (Units=GPa)
#
#
# Indices 1 2 3 4 5 6 
#
# 1 71.9061 6.1531 36.1824 0.0000 0.0000 0.0000
# 2 6.1531 70.2551 -10.6907 0.0000 0.0000 0.0000
# 3 36.1824 -10.6907 90.3448 0.0000 0.0000 0.0000
# 4 0.0000 0.0000 0.0000 30.3266 0.0000 0.0000
# 5 0.0000 0.0000 0.0000 0.0000 39.7815 0.0000
# 6 0.0000 0.0000 0.0000 0.0000 0.0000 20.1003
#
#
#
# Elastic Compliance Matrix: (Units=1/GPa)
#
#
# Indices 1 2 3 4 5 6 
#
# 1 0.017909 -0.002709 -0.007493 0.000000 0.000000 0.000000
# 2 -0.002709 0.014905 0.002849 0.000000 0.000000 0.000000
# 3 -0.007493 0.002849 0.014407 0.000000 0.000000 0.000000
# 4 0.000000 0.000000 0.000000 0.032974 0.000000 0.000000
# 5 0.000000 0.000000 0.000000 0.000000 0.025137 0.000000
# 6 0.000000 0.000000 0.000000 0.000000 0.000000 0.049751
#
#
# Mechanical properties :
#
#
# Convention : Reuss Voigt Hill
#
# Bulk Modulus (GPa) = 30.75605 32.86617 31.81111
# Shear Modulus (GPa) = 27.68133 31.43243 29.55688
#
# Velocity S-wave (km/s) = 3.41770 3.64191 3.53158
# Velocity P-wave (km/s) = 5.34343 5.61722 5.48203
#
# Compressibility (1/GPa) = 0.03251393
#
# Stress axis : x y z
#
# Youngs Moduli (GPa) = 55.83715 67.09366 69.41225
#
# Poissons Ratio (x) = 0.18174 0.52011
# Poissons Ratio (y) = 0.15125 -0.19772
# Poissons Ratio (z) = 0.41839 -0.19112
#
# Static dielectric constant tensor:
#      x y z
#    x 1.918720 0.000000 0.000000 
#    y 0.000000 1.950310 0.000000 
#    z 0.000000 0.000000 1.911750 
# 
# From -- ./inp_files/42833.got.cif
#   From: 2010.05.17/outbox.cif.g08.bks.cpg/sg70_22_cif.got.tgz:42833.got - 2010.06.03 15:57:51.
