data_PCOD9516201
_publ_section_title
;
Structure prediction by ZEFSAII (Michael W. Deem and Ramdas Pophale) SiO2 
 PCOD9516201
Probable space group: F D D D
;
_chemical_formula_sum "Si O2"
_cell_formula_units_Z 208
_cell_length_a 27.907053
_cell_length_b 20.673422
_cell_length_c 16.658781
_cell_angle_alpha 90.000000
_cell_angle_beta 90.000000
_cell_angle_gamma 90.000000
_cell_volume 9611.021879
_symmetry_space_group_name_H-M "F D D D"
_symmetry_group_IT_number 70
_space_group.IT_coordinate_system_code '2'
_symmetry_cell_setting 'orthorhombic'
loop_
_space_group_symop_operation_xyz
x,y,z
1/4-x,1/4-y,z
x,1/4-y,1/4-z
1/4-x,y,1/4-z
-x,-y,-z
3/4+x,3/4+y,-z
-x,3/4+y,3/4+z
3/4+x,-y,3/4+z
x,1/2+y,1/2+z
1/4-x,3/4-y,1/2+z
x,3/4-y,3/4-z
1/4-x,1/2+y,3/4-z
-x,1/2-y,1/2-z
3/4+x,1/4+y,1/2-z
-x,1/4+y,1/4+z
3/4+x,1/2-y,1/4+z
1/2+x,y,1/2+z
3/4-x,1/4-y,1/2+z
1/2+x,1/4-y,3/4-z
3/4-x,y,3/4-z
1/2-x,-y,1/2-z
1/4+x,3/4+y,1/2-z
1/2-x,3/4+y,1/4+z
1/4+x,-y,1/4+z
1/2+x,1/2+y,z
3/4-x,3/4-y,z
1/2+x,3/4-y,1/4-z
3/4-x,1/2+y,1/4-z
1/2-x,1/2-y,-z
1/4+x,1/4+y,-z
1/2-x,1/4+y,3/4+z
1/4+x,1/2-y,3/4+z
loop_
_atom_site_type_symbol
_atom_site_label
_atom_site_fract_x
_atom_site_fract_y
_atom_site_fract_z
Si Si1 0.591776 0.069788 0.359010
Si Si2 0.820112 0.042217 0.728844
Si Si3 0.742891 0.943494 0.529242
Si Si4 0.525657 0.625000 0.625000
Si Si5 0.101888 0.886742 0.538494
Si Si6 0.846482 0.279855 0.958310
Si Si7 0.470459 0.303692 0.859096
O O1 0.625000 0.125000 0.397581
O O2 0.536521 0.083232 0.334992
O O3 0.617870 0.054992 0.275585
O O4 0.591335 0.007284 0.414329
O O5 0.856342 0.101822 0.738306
O O6 0.768119 0.063475 0.695743
O O7 0.811377 0.998005 0.808620
O O8 0.751396 0.926585 0.435643
O O9 0.693466 0.908556 0.546754
O O10 0.736539 0.017519 0.558756
O O11 0.554942 0.670112 0.687120
O O12 0.125000 0.894596 0.625000
O O13 0.083559 0.957651 0.513624
O O14 0.875000 0.277119 0.875000
O O15 0.449572 0.375000 0.875000
#
# Coordination Sequence:
#
# PCOD9516201 Si02
#       7
#    32  32  32  16  32  32  32
#     4  11  22  43  69 100 137 184 234 291 349 423
#     4  10  24  43  66 101 132 179 243 289 346 424
#     4  11  24  43  68 101 142 182 233 292 351 434
#     4  12  23  44  72 108 142 182 240 282 367 438
#     4  11  25  45  66  97 141 184 226 293 353 416
#     4  11  22  41  73  99 139 187 222 282 360 430
#     4  10  23  45  72  98 134 183 238 297 357 418
#
# _framework density 21.641819000000002
#
# number of rings (size 3 to 8) (size 9 to 14) (size 15 to 20)
#    0.000    1.231    4.615    0.231    4.308    3.077 
#    2.769    0.769    0.000    0.000    0.000    0.000 
#    0.000    0.000    0.000    0.000    0.000    0.000 
#
# Total GULP energy -290147.847440 kJ/mol
# GULP energy per Si atom -5579.766297 kJ/mol
# Density = 2.159256 g / cm^3
# Si number density = 21.641819 Si / 1000 Ang^3
#
#
#
# Elastic Constant Matrix: (Units=GPa)
#
#
# Indices 1 2 3 4 5 6 
#
# 1 59.2680 25.2522 6.3037 0.0000 0.0000 0.0000
# 2 25.2522 113.3702 30.8047 0.0000 0.0000 0.0000
# 3 6.3037 30.8047 90.9753 0.0000 0.0000 0.0000
# 4 0.0000 0.0000 0.0000 56.7180 0.0000 0.0000
# 5 0.0000 0.0000 0.0000 0.0000 8.7006 0.0000
# 6 0.0000 0.0000 0.0000 0.0000 0.0000 2.3200
#
#
#
# Elastic Compliance Matrix: (Units=1/GPa)
#
#
# Indices 1 2 3 4 5 6 
#
# 1 0.018643 -0.004187 0.000126 0.000000 0.000000 0.000000
# 2 -0.004187 0.010655 -0.003318 0.000000 0.000000 0.000000
# 3 0.000126 -0.003318 0.012107 0.000000 0.000000 0.000000
# 4 0.000000 0.000000 0.000000 0.017631 0.000000 0.000000
# 5 0.000000 0.000000 0.000000 0.000000 0.114935 0.000000
# 6 0.000000 0.000000 0.000000 0.000000 0.000000 0.431037
#
#
# Mechanical properties :
#
#
# Convention : Reuss Voigt Hill
#
# Bulk Modulus (GPa) = 37.52729 43.14830 40.33780
# Shear Modulus (GPa) = 7.95359 26.96457 17.45908
#
# Velocity S-wave (km/s) = 1.91914 3.53363 2.84338
# Velocity P-wave (km/s) = 4.72108 6.05223 5.42762
#
# Compressibility (1/GPa) = 0.02664727
#
# Stress axis : x y z
#
# Youngs Moduli (GPa) = 53.63950 93.85543 82.59933
#
# Poissons Ratio (x) = 0.39295 -0.01040
# Poissons Ratio (y) = 0.22458 0.27403
# Poissons Ratio (z) = -0.00675 0.31138
#
# Static dielectric constant tensor:
#      x y z
#    x 1.331200 0.000000 0.000000 
#    y 0.000000 1.867980 0.000000 
#    z 0.000000 0.000000 1.801860 
# 
# From -- ./inp_files/38729.got.cif
#   From: 2010.05.17/outbox.cif.g08.bks.cpg/sg70_20_cif.got.tgz:38729.got - 2010.06.03 15:57:51.
