data_PCOD9516107
_publ_section_title
;
Structure prediction by ZEFSAII (Michael W. Deem and Ramdas Pophale) SiO2 
 PCOD9516107
Probable space group: F D D D
;
_chemical_formula_sum "Si O2"
_cell_formula_units_Z 208
_cell_length_a 31.318654
_cell_length_b 21.095822
_cell_length_c 15.250482
_cell_angle_alpha 90.000000
_cell_angle_beta 90.000000
_cell_angle_gamma 90.000000
_cell_volume 10075.882892
_symmetry_space_group_name_H-M "F D D D"
_symmetry_group_IT_number 70
_space_group.IT_coordinate_system_code '2'
_symmetry_cell_setting 'orthorhombic'
loop_
_space_group_symop_operation_xyz
x,y,z
1/4-x,1/4-y,z
x,1/4-y,1/4-z
1/4-x,y,1/4-z
-x,-y,-z
3/4+x,3/4+y,-z
-x,3/4+y,3/4+z
3/4+x,-y,3/4+z
x,1/2+y,1/2+z
1/4-x,3/4-y,1/2+z
x,3/4-y,3/4-z
1/4-x,1/2+y,3/4-z
-x,1/2-y,1/2-z
3/4+x,1/4+y,1/2-z
-x,1/4+y,1/4+z
3/4+x,1/2-y,1/4+z
1/2+x,y,1/2+z
3/4-x,1/4-y,1/2+z
1/2+x,1/4-y,3/4-z
3/4-x,y,3/4-z
1/2-x,-y,1/2-z
1/4+x,3/4+y,1/2-z
1/2-x,3/4+y,1/4+z
1/4+x,-y,1/4+z
1/2+x,1/2+y,z
3/4-x,3/4-y,z
1/2+x,3/4-y,1/4-z
3/4-x,1/2+y,1/4-z
1/2-x,1/2-y,-z
1/4+x,1/4+y,-z
1/2-x,1/4+y,3/4+z
1/4+x,1/2-y,3/4+z
loop_
_atom_site_type_symbol
_atom_site_label
_atom_site_fract_x
_atom_site_fract_y
_atom_site_fract_z
Si Si1 0.038243 0.953070 0.249065
Si Si2 0.356220 0.701057 0.113086
Si Si3 0.325759 0.104486 0.892931
Si Si4 0.032272 0.196027 0.145625
Si Si5 0.812589 0.043418 0.716166
Si Si6 0.724072 0.625000 0.625000
Si Si7 0.952395 0.753990 0.291109
O O1 0.076997 0.977016 0.308564
O O2 0.055813 0.901546 0.179706
O O3 0.004392 0.917545 0.311710
O O4 0.024551 0.012397 0.191197
O O5 0.351718 0.625000 0.125000
O O6 0.404870 0.718213 0.136372
O O7 0.333148 0.726549 0.025733
O O8 0.375000 0.091919 0.875000
O O9 0.325311 0.142210 0.983528
O O10 0.300484 0.039635 0.877869
O O11 0.047287 0.125000 0.125000
O O12 0.985705 0.194088 0.188843
O O13 0.062000 0.236000 0.212972
O O14 0.696710 0.576610 0.682488
O O15 0.000000 0.750000 0.250000
#
# Coordination Sequence:
#
# PCOD9516107 Si02
#       7
#    32  32  32  32  32  16  32
#     4  11  20  39  68  96 128 162 228 270 327 389
#     4  12  20  41  70 100 120 170 231 282 316 384
#     4  11  20  38  70  97 122 169 222 288 322 384
#     4  10  24  42  64  97 133 175 208 271 337 403
#     4  10  23  41  68  97 128 165 229 275 326 378
#     4  12  24  44  65  98 136 180 216 270 338 417
#     4  12  23  39  67  98 135 172 221 271 340 398
#
# _framework density 20.643352
#
# number of rings (size 3 to 8) (size 9 to 14) (size 15 to 20)
#    0.000    0.923    6.923    0.462    2.154    0.000 
#    2.769    1.923    0.000    0.000    0.000    0.000 
#    0.000    0.000    0.000    0.000    0.000    0.000 
#
# Total GULP energy -290381.447844 kJ/mol
# GULP energy per Si atom -5584.258612 kJ/mol
# Density = 2.059637 g / cm^3
# Si number density = 20.643352 Si / 1000 Ang^3
#
#
#
# Elastic Constant Matrix: (Units=GPa)
#
#
# Indices 1 2 3 4 5 6 
#
# 1 72.0720 34.5345 25.4328 0.0000 0.0000 0.0000
# 2 34.5345 130.9869 38.3520 0.0000 0.0000 0.0000
# 3 25.4328 38.3520 70.6005 0.0000 0.0000 0.0000
# 4 0.0000 0.0000 0.0000 16.1476 0.0000 0.0000
# 5 0.0000 0.0000 0.0000 0.0000 30.7896 0.0000
# 6 0.0000 0.0000 0.0000 0.0000 0.0000 6.2578
#
#
#
# Elastic Compliance Matrix: (Units=1/GPa)
#
#
# Indices 1 2 3 4 5 6 
#
# 1 0.016945 -0.003187 -0.004373 0.000000 0.000000 0.000000
# 2 -0.003187 0.009678 -0.004109 0.000000 0.000000 0.000000
# 3 -0.004373 -0.004109 0.017972 0.000000 0.000000 0.000000
# 4 0.000000 0.000000 0.000000 0.061929 0.000000 0.000000
# 5 0.000000 0.000000 0.000000 0.000000 0.032479 0.000000
# 6 0.000000 0.000000 0.000000 0.000000 0.000000 0.159802
#
#
# Mechanical properties :
#
#
# Convention : Reuss Voigt Hill
#
# Bulk Modulus (GPa) = 47.04487 52.25532 49.65010
# Shear Modulus (GPa) = 15.18707 22.32833 18.75770
#
# Velocity S-wave (km/s) = 2.71530 3.29237 3.01766
# Velocity P-wave (km/s) = 5.71571 6.31041 6.02041
#
# Compressibility (1/GPa) = 0.02125630
#
# Stress axis : x y z
#
# Youngs Moduli (GPa) = 59.01318 103.32962 55.64328
#
# Poissons Ratio (x) = 0.32934 0.24332
# Poissons Ratio (y) = 0.18809 0.22864
# Poissons Ratio (z) = 0.25806 0.42459
#
# Static dielectric constant tensor:
#      x y z
#    x 1.725450 0.000000 0.000000 
#    y 0.000000 1.782860 0.000000 
#    z 0.000000 0.000000 1.811490 
# 
# From -- ./inp_files/38753.got.cif
#   From: 2010.05.17/outbox.cif.g08.bks.cpg/sg70_20_cif.got.tgz:38753.got - 2010.06.03 15:57:51.
