data_PCOD9516332
_publ_section_title
;
Structure prediction by ZEFSAII (Michael W. Deem and Ramdas Pophale) SiO2 
 PCOD9516332
Probable space group: F D D D
;
_chemical_formula_sum "Si O2"
_cell_formula_units_Z 208
_cell_length_a 20.105153
_cell_length_b 24.228152
_cell_length_c 17.117434
_cell_angle_alpha 90.000000
_cell_angle_beta 90.000000
_cell_angle_gamma 90.000000
_cell_volume 8338.085307
_symmetry_space_group_name_H-M "F D D D"
_symmetry_group_IT_number 70
_space_group.IT_coordinate_system_code '2'
_symmetry_cell_setting 'orthorhombic'
loop_
_space_group_symop_operation_xyz
x,y,z
1/4-x,1/4-y,z
x,1/4-y,1/4-z
1/4-x,y,1/4-z
-x,-y,-z
3/4+x,3/4+y,-z
-x,3/4+y,3/4+z
3/4+x,-y,3/4+z
x,1/2+y,1/2+z
1/4-x,3/4-y,1/2+z
x,3/4-y,3/4-z
1/4-x,1/2+y,3/4-z
-x,1/2-y,1/2-z
3/4+x,1/4+y,1/2-z
-x,1/4+y,1/4+z
3/4+x,1/2-y,1/4+z
1/2+x,y,1/2+z
3/4-x,1/4-y,1/2+z
1/2+x,1/4-y,3/4-z
3/4-x,y,3/4-z
1/2-x,-y,1/2-z
1/4+x,3/4+y,1/2-z
1/2-x,3/4+y,1/4+z
1/4+x,-y,1/4+z
1/2+x,1/2+y,z
3/4-x,3/4-y,z
1/2+x,3/4-y,1/4-z
3/4-x,1/2+y,1/4-z
1/2-x,1/2-y,-z
1/4+x,1/4+y,-z
1/2-x,1/4+y,3/4+z
1/4+x,1/2-y,3/4+z
loop_
_atom_site_type_symbol
_atom_site_label
_atom_site_fract_x
_atom_site_fract_y
_atom_site_fract_z
Si Si1 0.265330 0.409576 0.762246
Si Si2 0.468686 0.996673 0.106172
Si Si3 0.977517 0.715598 0.500946
Si Si4 0.125000 0.625000 0.125000
Si Si5 0.046887 0.942047 0.147959
Si Si6 0.266663 0.901755 0.750581
Si Si7 0.625000 0.125000 0.625000
Si Si8 0.888039 0.685236 0.631928
O O1 0.260690 0.344254 0.745733
O O2 0.249961 0.437931 0.679640
O O3 0.329802 0.412970 0.817599
O O4 0.202915 0.426034 0.816484
O O5 0.483451 0.048329 0.050313
O O6 0.410492 0.018351 0.162486
O O7 0.530744 0.986648 0.162973
O O8 0.447980 0.940448 0.064485
O O9 0.020203 0.755642 0.555082
O O10 0.909601 0.705887 0.546730
O O11 0.066879 0.619158 0.193481
O O12 0.125000 0.942976 0.125000
O O13 0.031666 0.889315 0.203913
O O14 0.855882 0.625000 0.625000
#
# Coordination Sequence:
#
# PCOD9516332 Si02
#       8
#    32  32  32   8  32  32   8  32
#     4  11  25  48  70 111 150 202 250 319 394 452
#     4  11  25  46  75 105 144 201 260 314 386 458
#     4  11  24  45  71 111 145 196 256 306 395 456
#     4  12  28  50  74 108 166 198 252 318 392 474
#     4  12  28  47  80 114 154 199 267 326 388 473
#     4  11  28  46  71 111 148 205 251 323 389 451
#     4  12  24  46  78  92 170 194 240 322 380 462
#     4  10  24  45  74 105 148 197 250 316 381 459
#
# _framework density 24.945775000000001
#
# number of rings (size 3 to 8) (size 9 to 14) (size 15 to 20)
#    0.000    0.923    3.846    1.846   12.923    2.462 
#    2.769    0.000    0.000    0.000    0.000    0.000 
#    0.000    0.000    0.000    0.000    0.000    0.000 
#
# Total GULP energy -290340.961983 kJ/mol
# GULP energy per Si atom -5583.480038 kJ/mol
# Density = 2.488900 g / cm^3
# Si number density = 24.945775 Si / 1000 Ang^3
#
#
#
# Elastic Constant Matrix: (Units=GPa)
#
#
# Indices 1 2 3 4 5 6 
#
# 1 68.0693 8.3719 25.2060 0.0000 0.0000 0.0000
# 2 8.3719 81.1830 13.5845 0.0000 0.0000 0.0000
# 3 25.2060 13.5845 126.7607 0.0000 0.0000 0.0000
# 4 0.0000 0.0000 0.0000 47.1086 0.0000 0.0000
# 5 0.0000 0.0000 0.0000 0.0000 28.6661 0.0000
# 6 0.0000 0.0000 0.0000 0.0000 0.0000 23.7546
#
#
#
# Elastic Compliance Matrix: (Units=1/GPa)
#
#
# Indices 1 2 3 4 5 6 
#
# 1 0.015961 -0.001135 -0.003052 0.000000 0.000000 0.000000
# 2 -0.001135 0.012624 -0.001127 0.000000 0.000000 0.000000
# 3 -0.003052 -0.001127 0.008617 0.000000 0.000000 0.000000
# 4 0.000000 0.000000 0.000000 0.021228 0.000000 0.000000
# 5 0.000000 0.000000 0.000000 0.000000 0.034884 0.000000
# 6 0.000000 0.000000 0.000000 0.000000 0.000000 0.042097
#
#
# Mechanical properties :
#
#
# Convention : Reuss Voigt Hill
#
# Bulk Modulus (GPa) = 37.63355 41.14863 39.39109
# Shear Modulus (GPa) = 32.27973 35.16257 33.72115
#
# Velocity S-wave (km/s) = 3.60112 3.75848 3.68064
# Velocity P-wave (km/s) = 5.69295 5.94693 5.82132
#
# Compressibility (1/GPa) = 0.02657203
#
# Stress axis : x y z
#
# Youngs Moduli (GPa) = 62.65384 79.21723 116.05554
#
# Poissons Ratio (x) = 0.08993 0.35421
# Poissons Ratio (y) = 0.07113 0.13080
# Poissons Ratio (z) = 0.19122 0.08928
#
# Static dielectric constant tensor:
#      x y z
#    x 1.996990 0.000000 0.000000 
#    y 0.000000 1.991900 0.000000 
#    z 0.000000 0.000000 2.031420 
# 
# From -- ./inp_files/37754.got.cif
#   From: 2010.05.17/outbox.cif.g08.bks.cpg/sg70_19_cif.got.tgz:37754.got - 2010.06.03 15:57:51.
