data_PCOD9516159
_publ_section_title
;
Structure prediction by ZEFSAII (Michael W. Deem and Ramdas Pophale) SiO2 
 PCOD9516159
Probable space group: F D D D
;
_chemical_formula_sum "Si O2"
_cell_formula_units_Z 208
_cell_length_a 28.063374
_cell_length_b 22.575207
_cell_length_c 15.739692
_cell_angle_alpha 90.000000
_cell_angle_beta 90.000000
_cell_angle_gamma 90.000000
_cell_volume 9971.669021
_symmetry_space_group_name_H-M "F D D D"
_symmetry_group_IT_number 70
_space_group.IT_coordinate_system_code '2'
_symmetry_cell_setting 'orthorhombic'
loop_
_space_group_symop_operation_xyz
x,y,z
1/4-x,1/4-y,z
x,1/4-y,1/4-z
1/4-x,y,1/4-z
-x,-y,-z
3/4+x,3/4+y,-z
-x,3/4+y,3/4+z
3/4+x,-y,3/4+z
x,1/2+y,1/2+z
1/4-x,3/4-y,1/2+z
x,3/4-y,3/4-z
1/4-x,1/2+y,3/4-z
-x,1/2-y,1/2-z
3/4+x,1/4+y,1/2-z
-x,1/4+y,1/4+z
3/4+x,1/2-y,1/4+z
1/2+x,y,1/2+z
3/4-x,1/4-y,1/2+z
1/2+x,1/4-y,3/4-z
3/4-x,y,3/4-z
1/2-x,-y,1/2-z
1/4+x,3/4+y,1/2-z
1/2-x,3/4+y,1/4+z
1/4+x,-y,1/4+z
1/2+x,1/2+y,z
3/4-x,3/4-y,z
1/2+x,3/4-y,1/4-z
3/4-x,1/2+y,1/4-z
1/2-x,1/2-y,-z
1/4+x,1/4+y,-z
1/2-x,1/4+y,3/4+z
1/4+x,1/2-y,3/4+z
loop_
_atom_site_type_symbol
_atom_site_label
_atom_site_fract_x
_atom_site_fract_y
_atom_site_fract_z
Si Si1 0.875000 0.056337 0.875000
Si Si2 0.701973 0.613674 0.271378
Si Si3 0.968502 0.198732 0.791673
Si Si4 0.480329 0.573713 0.832587
Si Si5 0.874418 0.187777 0.073296
Si Si6 0.021954 0.455715 0.247066
Si Si7 0.129420 0.219171 0.277088
O O1 0.821640 0.084417 0.869696
O O2 0.888004 0.017196 0.794290
O O3 0.729362 0.580653 0.346242
O O4 0.741996 0.648682 0.221285
O O5 0.667849 0.668559 0.296391
O O6 0.666297 0.564794 0.237434
O O7 0.986242 0.131648 0.774011
O O8 0.916317 0.197485 0.748049
O O9 0.974121 0.207331 0.893918
O O10 0.000000 0.250000 0.750000
O O11 0.494185 0.513663 0.782775
O O12 0.868768 0.125000 0.125000
O O13 0.874219 0.242017 0.139141
O O14 0.925478 0.194437 0.030327
#
# Coordination Sequence:
#
# PCOD9516159 Si02
#       7
#    16  32  32  32  32  32  32
#     4  12  26  41  70 102 140 183 242 288 364 424
#     4  10  23  43  69  95 144 179 230 281 353 421
#     4  11  27  45  73 101 142 186 238 295 358 433
#     4  11  24  45  71 101 142 182 234 298 357 417
#     4  12  26  43  73 106 142 183 240 296 362 421
#     4  11  24  47  70 108 138 188 236 295 358 432
#     4  11  24  45  66  99 138 191 227 293 352 431
#
# _framework density 20.859095
#
# number of rings (size 3 to 8) (size 9 to 14) (size 15 to 20)
#    0.000    0.923    3.077    3.231   10.769    3.077 
#    0.000    0.000    0.000    1.846    0.000    0.000 
#    0.000    0.000    0.000    0.000    0.000    0.000 
#
# Total GULP energy -289583.671203 kJ/mol
# GULP energy per Si atom -5568.916754 kJ/mol
# Density = 2.081162 g / cm^3
# Si number density = 20.859095 Si / 1000 Ang^3
#
#
#
# Elastic Constant Matrix: (Units=GPa)
#
#
# Indices 1 2 3 4 5 6 
#
# 1 128.3681 18.4856 22.8216 0.0000 0.0000 0.0000
# 2 18.4856 74.5597 14.3573 0.0000 0.0000 0.0000
# 3 22.8216 14.3573 70.6604 0.0000 0.0000 0.0000
# 4 0.0000 0.0000 0.0000 37.9081 0.0000 0.0000
# 5 0.0000 0.0000 0.0000 0.0000 -64.7403 0.0000
# 6 0.0000 0.0000 0.0000 0.0000 0.0000 31.7687
#
#
#
# Elastic Compliance Matrix: (Units=1/GPa)
#
#
# Indices 1 2 3 4 5 6 
#
# 1 0.008452 -0.001634 -0.002398 0.000000 0.000000 0.000000
# 2 -0.001634 0.014274 -0.002373 0.000000 0.000000 0.000000
# 3 -0.002398 -0.002373 0.015409 0.000000 0.000000 0.000000
# 4 0.000000 0.000000 0.000000 0.026380 0.000000 0.000000
# 5 0.000000 0.000000 0.000000 0.000000 -0.015446 0.000000
# 6 0.000000 0.000000 0.000000 0.000000 0.000000 0.031477
#
#
# Mechanical properties :
#
#
# Convention : Reuss Voigt Hill
#
# Bulk Modulus (GPa) = 39.48484 42.76857 41.12671
# Shear Modulus (GPa) = 49.11821 15.51556 32.31689
#
# Velocity S-wave (km/s) = 4.85785 2.73028 3.94038
# Velocity P-wave (km/s) = 7.10179 5.52153 6.36092
#
# Compressibility (1/GPa) = 0.02532617
#
# Stress axis : x y z
#
# Youngs Moduli (GPa) = 118.32035 70.05748 64.89845
#
# Poissons Ratio (x) = 0.11445 0.15561
# Poissons Ratio (y) = 0.19330 0.15398
# Poissons Ratio (z) = 0.28370 0.16622
#
# Static dielectric constant tensor:
#      x y z
#    x 1.804830 0.000000 0.000000 
#    y 0.000000 1.826020 0.000000 
#    z 0.000000 0.000000 1.695050 
# 
# From -- ./inp_files/38718.got.cif
#   From: 2010.05.17/outbox.cif.g08.bks.cpg/sg70_20_cif.got.tgz:38718.got - 2010.06.03 15:57:51.
