data_PCOD9516247
_publ_section_title
;
Structure prediction by ZEFSAII (Michael W. Deem and Ramdas Pophale) SiO2 
 PCOD9516247
Probable space group: F D D D
;
_chemical_formula_sum "Si O2"
_cell_formula_units_Z 112
_cell_length_a 16.041544
_cell_length_b 28.957272
_cell_length_c 10.647113
_cell_angle_alpha 90.000000
_cell_angle_beta 90.000000
_cell_angle_gamma 90.000000
_cell_volume 4945.790041
_symmetry_space_group_name_H-M "F D D D"
_symmetry_group_IT_number 70
_space_group.IT_coordinate_system_code '2'
_symmetry_cell_setting 'orthorhombic'
loop_
_space_group_symop_operation_xyz
x,y,z
1/4-x,1/4-y,z
x,1/4-y,1/4-z
1/4-x,y,1/4-z
-x,-y,-z
3/4+x,3/4+y,-z
-x,3/4+y,3/4+z
3/4+x,-y,3/4+z
x,1/2+y,1/2+z
1/4-x,3/4-y,1/2+z
x,3/4-y,3/4-z
1/4-x,1/2+y,3/4-z
-x,1/2-y,1/2-z
3/4+x,1/4+y,1/2-z
-x,1/4+y,1/4+z
3/4+x,1/2-y,1/4+z
1/2+x,y,1/2+z
3/4-x,1/4-y,1/2+z
1/2+x,1/4-y,3/4-z
3/4-x,y,3/4-z
1/2-x,-y,1/2-z
1/4+x,3/4+y,1/2-z
1/2-x,3/4+y,1/4+z
1/4+x,-y,1/4+z
1/2+x,1/2+y,z
3/4-x,3/4-y,z
1/2+x,3/4-y,1/4-z
3/4-x,1/2+y,1/4-z
1/2-x,1/2-y,-z
1/4+x,1/4+y,-z
1/2-x,1/4+y,3/4+z
1/4+x,1/2-y,3/4+z
loop_
_atom_site_type_symbol
_atom_site_label
_atom_site_fract_x
_atom_site_fract_y
_atom_site_fract_z
Si Si1 0.146609 0.676208 0.977004
Si Si2 0.375000 0.006363 0.375000
Si Si3 0.915228 0.095982 0.495150
Si Si4 0.940129 0.231025 0.110992
O O1 0.125000 0.625000 0.928334
O O2 0.245896 0.677418 0.967279
O O3 0.094293 0.717223 0.914055
O O4 0.125000 0.678025 0.125000
O O5 0.344245 0.031761 0.249339
O O6 0.289578 0.978993 0.403601
O O7 0.923922 0.125000 0.625000
O O8 0.875000 0.121785 0.375000
O O9 0.851985 0.054517 0.519225
#
# Coordination Sequence:
#
# PCOD9516247 Si02
#       4
#    32  16  32  32
#     4  11  22  43  70  99 130 185 244 290 336 419
#     4  10  24  40  67 100 138 192 216 288 355 414
#     4  12  26  43  70 105 140 184 234 293 354 419
#     4  11  23  43  68 100 142 184 232 285 354 416
#
# _framework density 22.645522
#
# number of rings (size 3 to 8) (size 9 to 14) (size 15 to 20)
#    0.000    0.857    2.857    5.143    2.000    2.286 
#    0.000    1.429    0.000    0.000    0.000    0.000 
#    0.000    0.000    0.000    0.000    0.000    0.000 
#
# Total GULP energy -156411.239673 kJ/mol
# GULP energy per Si atom -5586.115703 kJ/mol
# Density = 2.259398 g / cm^3
# Si number density = 22.645522 Si / 1000 Ang^3
#
#
#
# Elastic Constant Matrix: (Units=GPa)
#
#
# Indices 1 2 3 4 5 6 
#
# 1 244.2895 46.2464 54.3545 0.0000 0.0000 0.0000
# 2 46.2464 112.0025 12.6459 0.0000 0.0000 0.0000
# 3 54.3545 12.6459 69.9388 0.0000 0.0000 0.0000
# 4 0.0000 0.0000 0.0000 18.6673 0.0000 0.0000
# 5 0.0000 0.0000 0.0000 0.0000 30.4898 0.0000
# 6 0.0000 0.0000 0.0000 0.0000 0.0000 50.9010
#
#
#
# Elastic Compliance Matrix: (Units=1/GPa)
#
#
# Indices 1 2 3 4 5 6 
#
# 1 0.005264 -0.001747 -0.003775 0.000000 0.000000 0.000000
# 2 -0.001747 0.009694 -0.000395 0.000000 0.000000 0.000000
# 3 -0.003775 -0.000395 0.017304 0.000000 0.000000 0.000000
# 4 0.000000 0.000000 0.000000 0.053570 0.000000 0.000000
# 5 0.000000 0.000000 0.000000 0.000000 0.032798 0.000000
# 6 0.000000 0.000000 0.000000 0.000000 0.000000 0.019646
#
#
# Mechanical properties :
#
#
# Convention : Reuss Voigt Hill
#
# Bulk Modulus (GPa) = 48.95410 72.52492 60.73951
# Shear Modulus (GPa) = 31.86334 40.87722 36.37028
#
# Velocity S-wave (km/s) = 3.75513 4.25324 4.01193
# Velocity P-wave (km/s) = 6.36128 7.49772 6.95276
#
# Compressibility (1/GPa) = 0.02042730
#
# Stress axis : x y z
#
# Youngs Moduli (GPa) = 189.95824 103.15162 57.79111
#
# Poissons Ratio (x) = 0.18025 0.21818
# Poissons Ratio (y) = 0.33193 0.02282
# Poissons Ratio (z) = 0.71715 0.04073
#
# Static dielectric constant tensor:
#      x y z
#    x 1.655870 0.000000 0.000000 
#    y 0.000000 1.805710 0.000000 
#    z 0.000000 0.000000 1.952960 
# 
# From -- ./inp_files/14992.got.cif
#   From: 2010.05.17/outbox.cif.g08.bks.cpg/sg70_8_cif.got.tgz:14992.got - 2010.06.03 15:57:51.
