data_PCOD9517991
_publ_section_title
;
Structure prediction by ZEFSAII (Michael W. Deem and Ramdas Pophale) SiO2 
 PCOD9517991
Probable space group: I M M M
;
_chemical_formula_sum "Si O2"
_cell_formula_units_Z 104
_cell_length_a 14.680181
_cell_length_b 33.078742
_cell_length_c 14.518110
_cell_angle_alpha 90.000000
_cell_angle_beta 90.000000
_cell_angle_gamma 90.000000
_cell_volume 7050.022088
_symmetry_space_group_name_H-M "I M M M"
_symmetry_group_IT_number 71
_symmetry_cell_setting 'orthorhombic'
loop_
_space_group_symop_operation_xyz
x,y,z
-x,-y,z
x,-y,-z
-x,y,-z
-x,-y,-z
x,y,-z
-x,y,z
x,-y,z
1/2+x,1/2+y,1/2+z
1/2-x,1/2-y,1/2+z
1/2+x,1/2-y,1/2-z
1/2-x,1/2+y,1/2-z
1/2-x,1/2-y,1/2-z
1/2+x,1/2+y,1/2-z
1/2-x,1/2+y,1/2+z
1/2+x,1/2-y,1/2+z
loop_
_atom_site_type_symbol
_atom_site_label
_atom_site_fract_x
_atom_site_fract_y
_atom_site_fract_z
Si Si1 0.889777 0.887946 0.603786
Si Si2 0.892727 0.264183 0.393813
Si Si3 0.390874 0.312500 0.767388
Si Si4 0.760945 0.428151 0.609831
Si Si5 0.252729 0.665534 0.392056
Si Si6 0.893827 0.952472 0.247206
Si Si7 0.395749 0.000000 0.111875
O O1 0.853870 0.888066 0.500000
O O2 0.866071 0.848064 0.661004
O O3 0.863701 0.926573 0.664522
O O4 0.000000 0.888341 0.597986
O O5 0.878833 0.249528 0.500000
O O6 0.871141 0.229548 0.319548
O O7 0.830436 0.303323 0.380498
O O8 0.000000 0.273816 0.385456
O O9 0.500000 0.314496 0.750298
O O10 0.333420 0.320510 0.675519
O O11 0.749981 0.432709 0.500000
O O12 0.776839 0.380662 0.628666
O O13 0.669364 0.440648 0.662210
O O14 0.839814 0.459675 0.638949
O O15 0.280391 0.666666 0.500000
O O16 0.000000 0.942714 0.228392
O O17 0.887007 0.000000 0.264988
O O18 0.500000 0.000000 0.144757
O O19 0.398560 0.000000 0.000000
#
# Coordination Sequence:
#
# PCOD9517991 Si02
#       7
#    16  16  16  16  16  16   8
#     4   9  17  29  45  66  91 121 155 187 223 266
#     4   9  18  32  49  69  92 120 156 195 234 272
#     4  10  18  30  48  68  94 127 156 185 222 272
#     4  10  19  31  46  66  95 126 155 189 226 272
#     4  10  20  31  46  69  96 124 152 189 233 275
#     4  10  19  30  45  66  95 128 155 184 224 272
#     4   9  18  32  49  67  88 119 159 199 235 266
#
# _framework density 14.751727000000001
#
# number of rings (size 3 to 8) (size 9 to 14) (size 15 to 20)
#    0.000    2.385    2.308    0.923    0.000    3.385 
#    0.000    6.923    0.000    0.000    0.000    0.000 
#    0.000    2.462    0.000    0.000    0.000    0.000 
#
# Total GULP energy -289625.313047 kJ/mol
# GULP energy per Si atom -5569.717559 kJ/mol
# Density = 1.471815 g / cm^3
# Si number density = 14.751727 Si / 1000 Ang^3
#
#
#
# Elastic Constant Matrix: (Units=GPa)
#
#
# Indices 1 2 3 4 5 6 
#
# 1 68.8821 61.6589 50.5582 0.0000 0.0000 0.0000
# 2 61.6589 123.7249 60.7866 0.0000 0.0000 0.0000
# 3 50.5582 60.7866 72.9907 0.0002 0.0002 0.0000
# 4 0.0000 0.0000 0.0002 21.8256 0.0000 0.0000
# 5 0.0000 0.0000 0.0002 0.0000 16.8850 0.0000
# 6 0.0000 0.0000 0.0000 0.0000 0.0000 20.2450
#
#
#
# Elastic Compliance Matrix: (Units=1/GPa)
#
#
# Indices 1 2 3 4 5 6 
#
# 1 0.034926 -0.009343 -0.016412 0.000000 0.000000 0.000000
# 2 -0.009343 0.016179 -0.007002 0.000000 0.000000 0.000000
# 3 -0.016412 -0.007002 0.030900 0.000000 0.000000 0.000000
# 4 0.000000 0.000000 0.000000 0.045818 0.000000 0.000000
# 5 0.000000 0.000000 0.000000 0.000000 0.059224 0.000000
# 6 0.000000 0.000000 0.000000 0.000000 0.000000 0.049395
#
#
# Mechanical properties :
#
#
# Convention : Reuss Voigt Hill
#
# Bulk Modulus (GPa) = 60.63746 67.95613 64.29679
# Shear Modulus (GPa) = 16.26268 17.96405 17.11336
#
# Velocity S-wave (km/s) = 3.32388 3.49343 3.40971
# Velocity P-wave (km/s) = 7.47833 7.90181 7.69299
#
# Compressibility (1/GPa) = 0.01649146
#
# Stress axis : x y z
#
# Youngs Moduli (GPa) = 28.63157 61.81008 32.36256
#
# Poissons Ratio (x) = 0.57746 0.53113
# Poissons Ratio (y) = 0.26749 0.22661
# Poissons Ratio (z) = 0.46990 0.43281
#
# Static dielectric constant tensor:
#      x y z
#    x 1.466920 0.000000 0.000000 
#    y 0.000000 1.497910 0.000000 
#    z 0.000000 0.000000 1.479980 
# 
# From -- ./inp_files/22698.got.cif
#   From: 2010.05.17/outbox.cif.g08.bks.cpg/sg71_12_cif.got.tgz:22698.got - 2010.06.03 16:22:01.
