data_PCOD9517611
_publ_section_title
;
Structure prediction by ZEFSAII (Michael W. Deem and Ramdas Pophale) SiO2 
 PCOD9517611
Probable space group: I M M M
;
_chemical_formula_sum "Si O2"
_cell_formula_units_Z 72
_cell_length_a 7.462529
_cell_length_b 14.464542
_cell_length_c 39.175242
_cell_angle_alpha 90.000000
_cell_angle_beta 90.000000
_cell_angle_gamma 90.000000
_cell_volume 4228.656485
_symmetry_space_group_name_H-M "I M M M"
_symmetry_group_IT_number 71
_symmetry_cell_setting 'orthorhombic'
loop_
_space_group_symop_operation_xyz
x,y,z
-x,-y,z
x,-y,-z
-x,y,-z
-x,-y,-z
x,y,-z
-x,y,z
x,-y,z
1/2+x,1/2+y,1/2+z
1/2-x,1/2-y,1/2+z
1/2+x,1/2-y,1/2-z
1/2-x,1/2+y,1/2-z
1/2-x,1/2-y,1/2-z
1/2+x,1/2+y,1/2-z
1/2-x,1/2+y,1/2+z
1/2+x,1/2-y,1/2+z
loop_
_atom_site_type_symbol
_atom_site_label
_atom_site_fract_x
_atom_site_fract_y
_atom_site_fract_z
Si Si1 0.217198 0.391592 0.229818
Si Si2 0.000000 0.888053 0.461299
Si Si3 0.787569 0.389795 0.094319
Si Si4 0.789964 0.291216 0.162656
Si Si5 0.783811 0.605538 0.305903
O O1 0.257901 0.500000 0.225242
O O2 0.286805 0.335179 0.197489
O O3 0.280047 0.365031 0.267828
O O4 0.000000 0.383251 0.230515
O O5 0.173346 0.863010 0.438814
O O6 0.000000 0.852548 0.500000
O O7 0.000000 0.000000 0.463254
O O8 0.763636 0.500000 0.100406
O O9 0.721039 0.334717 0.127670
O O10 0.000000 0.373736 0.089266
O O11 0.772336 0.181581 0.166857
O O12 0.000000 0.315837 0.162538
O O13 0.724609 0.500000 0.311986
O O14 0.000000 0.604219 0.305122
#
# Coordination Sequence:
#
# PCOD9517611 Si02
#       5
#    16   8  16  16  16
#     4   8  14  26  42  59  82 114 152 190 232 281
#     4   9  18  32  50  72  99 131 159 183 220 272
#     4   9  18  31  47  71 100 126 155 189 226 272
#     4  10  18  27  44  65  85 116 152 191 238 276
#     4   9  18  30  42  57  81 117 157 196 237 278
#
# _framework density 17.026683999999999
#
# number of rings (size 3 to 8) (size 9 to 14) (size 15 to 20)
#    0.000    3.000    0.000    2.667    1.556    3.556 
#    0.000    2.222    0.000    1.333    0.000    0.000 
#    0.000    1.778    0.000    4.889    0.000    0.222 
#
# Total GULP energy -200716.329931 kJ/mol
# GULP energy per Si atom -5575.453609 kJ/mol
# Density = 1.698793 g / cm^3
# Si number density = 17.026684 Si / 1000 Ang^3
#
#
#
# Elastic Constant Matrix: (Units=GPa)
#
#
# Indices 1 2 3 4 5 6 
#
# 1 62.2645 13.4420 35.4665 0.0000 0.0000 0.0000
# 2 13.4420 52.6925 65.0403 0.0000 0.0000 0.0000
# 3 35.4665 65.0403 136.8675 0.0000 0.0000 0.0000
# 4 0.0000 0.0000 0.0000 17.6655 0.0000 0.0000
# 5 0.0000 0.0000 0.0000 0.0000 0.6933 0.0000
# 6 0.0000 0.0000 0.0000 0.0000 0.0000 12.6291
#
#
#
# Elastic Compliance Matrix: (Units=1/GPa)
#
#
# Indices 1 2 3 4 5 6 
#
# 1 0.019033 0.002981 -0.006349 0.000000 0.000000 0.000000
# 2 0.002981 0.046370 -0.022808 0.000000 0.000000 0.000000
# 3 -0.006349 -0.022808 0.019790 0.000000 0.000000 0.000000
# 4 0.000000 0.000000 0.000000 0.056608 0.000000 0.000000
# 5 0.000000 0.000000 0.000000 0.000000 1.442481 0.000000
# 6 0.000000 0.000000 0.000000 0.000000 0.000000 0.079182
#
#
# Mechanical properties :
#
#
# Convention : Reuss Voigt Hill
#
# Bulk Modulus (GPa) = 30.44860 53.30244 41.87552
# Shear Modulus (GPa) = 2.89559 15.38929 9.14244
#
# Velocity S-wave (km/s) = 1.30549 3.00964 2.31973
# Velocity P-wave (km/s) = 4.49379 6.59170 5.64113
#
# Compressibility (1/GPa) = 0.03284223
#
# Stress axis : x y z
#
# Youngs Moduli (GPa) = 52.53965 21.56560 50.53086
#
# Poissons Ratio (x) = -0.06429 0.32080
# Poissons Ratio (y) = -0.15662 1.15250
# Poissons Ratio (z) = 0.33356 0.49186
#
# Static dielectric constant tensor:
#      x y z
#    x 1.644970 0.000000 0.000000 
#    y 0.000000 1.571180 0.000000 
#    z 0.000000 0.000000 1.570200 
# 
# From -- ./inp_files/6426.got.cif
#   From: 2010.05.17/outbox.cif.g08.bks.cpg/sg71_4_cif.got.tgz:6426.got - 2010.06.03 16:22:01.
