data_PCOD9517767
_publ_section_title
;
Structure prediction by ZEFSAII (Michael W. Deem and Ramdas Pophale) SiO2 
 PCOD9517767
Probable space group: I M M M
;
_chemical_formula_sum "Si O2"
_cell_formula_units_Z 116
_cell_length_a 7.726030
_cell_length_b 27.219809
_cell_length_c 31.824321
_cell_angle_alpha 90.000000
_cell_angle_beta 90.000000
_cell_angle_gamma 90.000000
_cell_volume 6692.688470
_symmetry_space_group_name_H-M "I M M M"
_symmetry_group_IT_number 71
_symmetry_cell_setting 'orthorhombic'
loop_
_space_group_symop_operation_xyz
x,y,z
-x,-y,z
x,-y,-z
-x,y,-z
-x,-y,-z
x,y,-z
-x,y,z
x,-y,z
1/2+x,1/2+y,1/2+z
1/2-x,1/2-y,1/2+z
1/2+x,1/2-y,1/2-z
1/2-x,1/2+y,1/2-z
1/2-x,1/2-y,1/2-z
1/2+x,1/2+y,1/2-z
1/2-x,1/2+y,1/2+z
1/2+x,1/2-y,1/2+z
loop_
_atom_site_type_symbol
_atom_site_label
_atom_site_fract_x
_atom_site_fract_y
_atom_site_fract_z
Si Si1 0.296593 0.864358 0.631573
Si Si2 0.500000 0.323461 0.500000
Si Si3 0.291166 0.360989 0.739547
Si Si4 0.292404 0.055235 0.695464
Si Si5 0.299322 0.206116 0.064301
Si Si6 0.207553 0.820083 0.452564
Si Si7 0.198971 0.218024 0.306145
Si Si8 0.802025 0.181199 0.156590
O O1 0.500000 0.858914 0.641121
O O2 0.234483 0.913995 0.654342
O O3 0.272531 0.858072 0.582129
O O4 0.202824 0.819255 0.654498
O O5 0.345071 0.320503 0.536397
O O6 0.500000 0.357075 0.738694
O O7 0.247963 0.410350 0.764643
O O8 0.229436 0.314754 0.767850
O O9 0.229202 0.355972 0.691737
O O10 0.500000 0.051794 0.692918
O O11 0.222450 0.000000 0.698034
O O12 0.500000 0.201643 0.049897
O O13 0.250405 0.264167 0.061101
O O14 0.291482 0.188606 0.112506
O O15 0.272754 0.827552 0.500000
O O16 0.000000 0.823335 0.453236
O O17 0.298600 0.266471 0.319357
O O18 0.000000 0.231585 0.297513
O O19 0.000000 0.167850 0.147125
#
# Coordination Sequence:
#
# PCOD9517767 Si02
#       8
#    16   4  16  16  16  16  16  16
#     4  10  19  29  47  70  91 119 161 207 253 305
#     4  12  22  36  52  70  96 140 188 220 252 294
#     4   9  20  33  47  70  98 128 166 206 248 303
#     4   9  19  36  54  72  94 122 159 206 259 313
#     4  11  22  34  49  71  99 139 179 218 256 298
#     4  10  20  32  45  64  93 124 161 209 254 299
#     4  10  18  29  44  64  95 132 166 205 246 295
#     4  11  20  31  45  68 101 137 171 207 250 295
#
# _framework density 17.332348
#
# number of rings (size 3 to 8) (size 9 to 14) (size 15 to 20)
#    0.000    1.931    2.759    1.862    0.966    2.759 
#    0.000    0.000    0.000    0.414    0.000    2.897 
#    0.000    0.000    0.000    1.241    0.000    5.241 
#
# Total GULP energy -322982.115755 kJ/mol
# GULP energy per Si atom -5568.657168 kJ/mol
# Density = 1.729290 g / cm^3
# Si number density = 17.332348 Si / 1000 Ang^3
#
#
#
# Elastic Constant Matrix: (Units=GPa)
#
#
# Indices 1 2 3 4 5 6 
#
# 1 55.8372 2.6443 16.1794 0.0000 0.0000 0.0000
# 2 2.6443 38.3393 45.5143 0.0000 0.0000 0.0000
# 3 16.1794 45.5143 151.3029 0.0000 0.0000 0.0000
# 4 0.0000 0.0000 0.0000 4.0450 0.0000 0.0000
# 5 0.0000 0.0000 0.0000 0.0000 20.7992 0.0000
# 6 0.0000 0.0000 0.0000 0.0000 0.0000 12.0833
#
#
#
# Elastic Compliance Matrix: (Units=1/GPa)
#
#
# Indices 1 2 3 4 5 6 
#
# 1 0.018551 0.001673 -0.002487 0.000000 0.000000 0.000000
# 2 0.001673 0.040722 -0.012429 0.000000 0.000000 0.000000
# 3 -0.002487 -0.012429 0.010614 0.000000 0.000000 0.000000
# 4 0.000000 0.000000 0.000000 0.247219 0.000000 0.000000
# 5 0.000000 0.000000 0.000000 0.000000 0.048079 0.000000
# 6 0.000000 0.000000 0.000000 0.000000 0.000000 0.082759
#
#
# Mechanical properties :
#
#
# Convention : Reuss Voigt Hill
#
# Bulk Modulus (GPa) = 23.04083 41.57281 32.30682
# Shear Modulus (GPa) = 10.22712 19.46159 14.84435
#
# Velocity S-wave (km/s) = 2.43175 3.35453 2.92970
# Velocity P-wave (km/s) = 4.60510 6.24832 5.48856
#
# Compressibility (1/GPa) = 0.04340121
#
# Stress axis : x y z
#
# Youngs Moduli (GPa) = 53.90660 24.55657 94.21539
#
# Poissons Ratio (x) = -0.04108 0.23431
# Poissons Ratio (y) = -0.09018 1.17098
# Poissons Ratio (z) = 0.13406 0.30521
#
# Static dielectric constant tensor:
#      x y z
#    x 1.634780 0.000000 0.000000 
#    y 0.000000 1.568060 0.000000 
#    z 0.000000 0.000000 1.634820 
# 
# From -- ./inp_files/68611.got.cif
#   From: 2010.05.17/outbox.cif.g08.bks.cpg/sg71_35_cif.got.tgz:68611.got - 2010.06.03 16:22:01.
