data_PCOD9517339
_publ_section_title
;
Structure prediction by ZEFSAII (Michael W. Deem and Ramdas Pophale) SiO2 
 PCOD9517339
Probable space group: I M M M
;
_chemical_formula_sum "Si O2"
_cell_formula_units_Z 104
_cell_length_a 17.207765
_cell_length_b 22.394963
_cell_length_c 22.523299
_cell_angle_alpha 90.000000
_cell_angle_beta 90.000000
_cell_angle_gamma 90.000000
_cell_volume 8679.742033
_symmetry_space_group_name_H-M "I M M M"
_symmetry_group_IT_number 71
_symmetry_cell_setting 'orthorhombic'
loop_
_space_group_symop_operation_xyz
x,y,z
-x,-y,z
x,-y,-z
-x,y,-z
-x,-y,-z
x,y,-z
-x,y,z
x,-y,z
1/2+x,1/2+y,1/2+z
1/2-x,1/2-y,1/2+z
1/2+x,1/2-y,1/2-z
1/2-x,1/2+y,1/2-z
1/2-x,1/2-y,1/2-z
1/2+x,1/2+y,1/2-z
1/2-x,1/2+y,1/2+z
1/2+x,1/2-y,1/2+z
loop_
_atom_site_type_symbol
_atom_site_label
_atom_site_fract_x
_atom_site_fract_y
_atom_site_fract_z
Si Si1 0.657008 0.363806 0.428670
Si Si2 0.592708 0.233409 0.569687
Si Si3 0.911981 0.427756 0.500000
Si Si4 0.908815 0.428895 0.731114
Si Si5 0.405223 0.000000 0.431416
Si Si6 0.308761 0.928338 0.113660
Si Si7 0.094280 0.616483 0.141454
Si Si8 0.500000 0.431805 0.572044
O O1 0.668335 0.373047 0.500000
O O2 0.640326 0.293826 0.419321
O O3 0.729980 0.391509 0.394792
O O4 0.578380 0.398108 0.410482
O O5 0.601174 0.217068 0.500000
O O6 0.500000 0.245311 0.578494
O O7 0.617260 0.178491 0.611036
O O8 0.916150 0.500000 0.500000
O O9 0.864932 0.411501 0.558911
O O10 0.000000 0.404841 0.500000
O O11 0.905026 0.500000 0.744785
O O12 0.854608 0.417349 0.674721
O O13 0.884249 0.393441 0.790035
O O14 0.000000 0.416211 0.717745
O O15 0.379584 0.940411 0.397210
O O16 0.500000 0.000000 0.430667
O O17 0.381200 0.000000 0.500000
O O18 0.293062 0.000000 0.109552
O O19 0.000000 0.615368 0.140129
O O20 0.500000 0.500000 0.592412
O O21 0.500000 0.431735 0.500000
#
# Coordination Sequence:
#
# PCOD9517339 Si02
#       8
#    16  16   8  16   8  16  16   8
#     4  10  17  27  38  54  77 100 130 163 198 233
#     4   9  16  26  39  55  76 104 130 154 189 232
#     4   9  16  26  38  55  75  95 123 163 204 231
#     4   9  16  27  40  55  76 103 130 156 191 231
#     4   9  14  20  34  58  80  95 121 162 191 217
#     4  10  18  26  39  56  75  99 130 166 198 230
#     4   9  15  24  38  55  76 101 129 156 186 226
#     4   9  16  24  38  54  72  97 125 163 203 234
#
# _framework density 11.981923
#
# number of rings (size 3 to 8) (size 9 to 14) (size 15 to 20)
#    0.000    2.692    2.308    1.385    0.000    4.308 
#    0.000    0.769    0.000    0.000    0.000    0.000 
#    0.000    0.000    0.000    0.000    0.000    0.000 
#
# Total GULP energy -289480.404301 kJ/mol
# GULP energy per Si atom -5566.930852 kJ/mol
# Density = 1.195465 g / cm^3
# Si number density = 11.981923 Si / 1000 Ang^3
#
#
#
# Elastic Constant Matrix: (Units=GPa)
#
#
# Indices 1 2 3 4 5 6 
#
# 1 69.7135 41.3321 44.1323 0.0000 0.0000 0.0000
# 2 41.3321 76.6841 54.7088 0.0000 0.0000 0.0000
# 3 44.1323 54.7088 88.4350 0.0000 0.0000 0.0000
# 4 0.0000 0.0000 0.0000 14.4089 0.0000 0.0000
# 5 0.0000 0.0000 0.0000 0.0000 6.8465 0.0000
# 6 0.0000 0.0000 0.0000 0.0000 0.0000 10.6094
#
#
#
# Elastic Compliance Matrix: (Units=1/GPa)
#
#
# Indices 1 2 3 4 5 6 
#
# 1 0.023205 -0.007600 -0.006878 0.000000 0.000000 0.000000
# 2 -0.007600 0.025832 -0.012188 0.000000 0.000000 0.000000
# 3 -0.006878 -0.012188 0.022280 0.000000 0.000000 0.000000
# 4 0.000000 0.000000 0.000000 0.069402 0.000000 0.000000
# 5 0.000000 0.000000 0.000000 0.000000 0.146059 0.000000
# 6 0.000000 0.000000 0.000000 0.000000 0.000000 0.094256
#
#
# Mechanical properties :
#
#
# Convention : Reuss Voigt Hill
#
# Bulk Modulus (GPa) = 55.60367 57.24210 56.42289
# Shear Modulus (GPa) = 11.35432 12.68359 12.01896
#
# Velocity S-wave (km/s) = 3.08169 3.25708 3.17060
# Velocity P-wave (km/s) = 7.69217 7.87542 7.78433
#
# Compressibility (1/GPa) = 0.01798442
#
# Stress axis : x y z
#
# Youngs Moduli (GPa) = 43.09472 38.71163 44.88291
#
# Poissons Ratio (x) = 0.29420 0.30873
# Poissons Ratio (y) = 0.32751 0.54703
# Poissons Ratio (z) = 0.29643 0.47182
#
# Static dielectric constant tensor:
#      x y z
#    x 1.371460 0.000000 0.000000 
#    y 0.000000 1.385560 0.000000 
#    z 0.000000 0.000000 1.385600 
# 
# From -- ./inp_files/53399.got.cif
#   From: 2010.05.17/outbox.cif.g08.bks.cpg/sg71_27_cif.got.tgz:53399.got - 2010.06.03 16:22:01.
