data_PCOD9517852
_publ_section_title
;
Structure prediction by ZEFSAII (Michael W. Deem and Ramdas Pophale) SiO2 
 PCOD9517852
Probable space group: I M M M
;
_chemical_formula_sum "Si O2"
_cell_formula_units_Z 88
_cell_length_a 19.231337
_cell_length_b 7.412780
_cell_length_c 27.970082
_cell_angle_alpha 90.000000
_cell_angle_beta 90.000000
_cell_angle_gamma 90.000000
_cell_volume 3987.349728
_symmetry_space_group_name_H-M "I M M M"
_symmetry_group_IT_number 71
_symmetry_cell_setting 'orthorhombic'
loop_
_space_group_symop_operation_xyz
x,y,z
-x,-y,z
x,-y,-z
-x,y,-z
-x,-y,-z
x,y,-z
-x,y,z
x,-y,z
1/2+x,1/2+y,1/2+z
1/2-x,1/2-y,1/2+z
1/2+x,1/2-y,1/2-z
1/2-x,1/2+y,1/2-z
1/2-x,1/2-y,1/2-z
1/2+x,1/2+y,1/2-z
1/2-x,1/2+y,1/2+z
1/2+x,1/2-y,1/2+z
loop_
_atom_site_type_symbol
_atom_site_label
_atom_site_fract_x
_atom_site_fract_y
_atom_site_fract_z
Si Si1 0.924131 0.713493 0.246036
Si Si2 0.204860 0.705629 0.812712
Si Si3 0.158903 0.788673 0.447493
Si Si4 0.816523 0.782733 0.080514
Si Si5 0.143904 0.782103 0.658233
Si Si6 0.421546 0.720130 0.500000
O O1 0.924635 0.500000 0.235080
O O2 0.855092 0.789391 0.220211
O O3 0.913185 0.736494 0.302652
O O4 0.000000 0.786031 0.231786
O O5 0.215858 0.500000 0.795701
O O6 0.176442 0.706408 0.866619
O O7 0.282026 0.786018 0.820136
O O8 0.140001 0.712570 0.500000
O O9 0.242400 0.773862 0.441390
O O10 0.132410 0.715907 0.396143
O O11 0.140057 0.000000 0.448751
O O12 0.815922 0.000000 0.083590
O O13 0.878184 0.724365 0.046203
O O14 0.150065 0.000000 0.654881
O O15 0.422022 0.500000 0.500000
O O16 0.500000 0.783086 0.500000
#
# Coordination Sequence:
#
# PCOD9517852 Si02
#       6
#    16  16  16  16  16   8
#     4  10  21  36  53  73 101 136 169 207 257 306
#     4   9  19  35  52  72 100 132 167 209 254 298
#     4   9  17  31  52  75 102 130 157 199 253 300
#     4  10  18  29  47  71  96 125 166 209 247 290
#     4   9  18  32  52  78 102 129 166 207 251 299
#     4   9  18  30  41  59  95 135 164 199 246 291
#
# _framework density 22.069797000000001
#
# number of rings (size 3 to 8) (size 9 to 14) (size 15 to 20)
#    0.000    2.636    0.909    2.182    0.000    4.727 
#    0.000    0.000    0.000    4.364    0.000    3.818 
#    0.000    0.000    0.000    0.000    0.000    0.000 
#
# Total GULP energy -245417.412842 kJ/mol
# GULP energy per Si atom -5577.668474 kJ/mol
# Density = 2.201957 g / cm^3
# Si number density = 22.069797 Si / 1000 Ang^3
#
#
#
# Elastic Constant Matrix: (Units=GPa)
#
#
# Indices 1 2 3 4 5 6 
#
# 1 32.8094 -2.8211 21.6820 0.0000 0.0000 0.0000
# 2 -2.8211 79.8151 -3.7501 0.0000 0.0000 0.0000
# 3 21.6820 -3.7501 116.5206 0.0000 0.0000 0.0000
# 4 0.0000 0.0000 0.0000 10.3122 0.0000 0.0000
# 5 0.0000 0.0000 0.0000 0.0000 1.4648 0.0000
# 6 0.0000 0.0000 0.0000 0.0000 0.0000 29.4215
#
#
#
# Elastic Compliance Matrix: (Units=1/GPa)
#
#
# Indices 1 2 3 4 5 6 
#
# 1 0.034821 0.000928 -0.006450 0.000000 0.000000 0.000000
# 2 0.000928 0.012573 0.000232 0.000000 0.000000 0.000000
# 3 -0.006450 0.000232 0.009790 0.000000 0.000000 0.000000
# 4 0.000000 0.000000 0.000000 0.096972 0.000000 0.000000
# 5 0.000000 0.000000 0.000000 0.000000 0.682706 0.000000
# 6 0.000000 0.000000 0.000000 0.000000 0.000000 0.033989
#
#
# Mechanical properties :
#
#
# Convention : Reuss Voigt Hill
#
# Bulk Modulus (GPa) = 21.45750 28.81850 25.13800
# Shear Modulus (GPa) = 5.57435 22.50865 14.04150
#
# Velocity S-wave (km/s) = 1.59100 3.19703 2.52510
# Velocity P-wave (km/s) = 3.62197 5.16858 4.46279
#
# Compressibility (1/GPa) = 0.04660376
#
# Stress axis : x y z
#
# Youngs Moduli (GPa) = 28.71826 79.53771 102.14739
#
# Poissons Ratio (x) = -0.07379 0.65881
# Poissons Ratio (y) = -0.02664 -0.02370
# Poissons Ratio (z) = 0.18522 -0.01845
#
# Static dielectric constant tensor:
#      x y z
#    x 1.787260 0.000000 0.000000 
#    y 0.000000 1.829140 0.000000 
#    z 0.000000 0.000000 1.788040 
# 
# From -- ./inp_files/8830.got.cif
#   From: 2010.05.17/outbox.cif.g08.bks.cpg/sg71_5_cif.got.tgz:8830.got - 2010.06.03 16:22:01.
