data_PCOD9517760
_publ_section_title
;
Structure prediction by ZEFSAII (Michael W. Deem and Ramdas Pophale) SiO2 
 PCOD9517760
Probable space group: I M M M
;
_chemical_formula_sum "Si O2"
_cell_formula_units_Z 96
_cell_length_a 7.359608
_cell_length_b 22.035486
_cell_length_c 31.802853
_cell_angle_alpha 90.000000
_cell_angle_beta 90.000000
_cell_angle_gamma 90.000000
_cell_volume 5157.549420
_symmetry_space_group_name_H-M "I M M M"
_symmetry_group_IT_number 71
_symmetry_cell_setting 'orthorhombic'
loop_
_space_group_symop_operation_xyz
x,y,z
-x,-y,z
x,-y,-z
-x,y,-z
-x,-y,-z
x,y,-z
-x,y,z
x,-y,z
1/2+x,1/2+y,1/2+z
1/2-x,1/2-y,1/2+z
1/2+x,1/2-y,1/2-z
1/2-x,1/2+y,1/2-z
1/2-x,1/2-y,1/2-z
1/2+x,1/2+y,1/2-z
1/2-x,1/2+y,1/2+z
1/2+x,1/2-y,1/2+z
loop_
_atom_site_type_symbol
_atom_site_label
_atom_site_fract_x
_atom_site_fract_y
_atom_site_fract_z
Si Si1 0.778352 0.799613 0.954446
Si Si2 0.790394 0.565655 0.246239
Si Si3 0.781204 0.098015 0.160515
Si Si4 0.278985 0.266016 0.637057
Si Si5 0.217755 0.695690 0.783383
Si Si6 0.721053 0.565004 0.432686
O O1 0.719260 0.766310 0.911618
O O2 0.721427 0.870484 0.951356
O O3 0.000000 0.799505 0.953563
O O4 0.721949 0.775234 0.000000
O O5 0.709648 0.500000 0.234329
O O6 0.789359 0.570157 0.296803
O O7 0.710659 0.629820 0.230646
O O8 0.000000 0.564606 0.232228
O O9 0.728451 0.168480 0.156202
O O10 0.728927 0.067889 0.116563
O O11 0.000000 0.094968 0.162661
O O12 0.500000 0.264440 0.636281
O O13 0.216970 0.216337 0.670522
O O14 0.250000 0.750000 0.750000
O O15 0.000000 0.690778 0.785342
O O16 0.500000 0.565591 0.435376
O O17 0.781368 0.500000 0.450166
#
# Coordination Sequence:
#
# PCOD9517760 Si02
#       6
#    16  16  16  16  16  16
#     4   8  13  20  30  46  70  96 120 153 196 234
#     4  10  20  29  37  55  82 106 130 164 200 230
#     4   9  15  25  40  55  73 101 135 164 191 226
#     4   8  14  24  38  55  73  96 129 164 194 228
#     4  10  18  29  44  59  79 106 135 165 195 233
#     4   8  13  19  28  45  68  95 126 155 186 225
#
# _framework density 18.613492000000001
#
# number of rings (size 3 to 8) (size 9 to 14) (size 15 to 20)
#    0.000    3.167    1.667    2.500    0.000    1.333 
#    0.000    1.667    0.000    0.000    0.000    0.000 
#    0.000   17.333    0.000   46.000    0.000   30.667 
#
# Total GULP energy -267545.045312 kJ/mol
# GULP energy per Si atom -5573.855111 kJ/mol
# Density = 1.857113 g / cm^3
# Si number density = 18.613492 Si / 1000 Ang^3
#
#
#
# Elastic Constant Matrix: (Units=GPa)
#
#
# Indices 1 2 3 4 5 6 
#
# 1 66.5695 7.2620 1.2710 0.0000 0.0000 0.0000
# 2 7.2620 122.0490 72.3391 0.0000 0.0000 0.0000
# 3 1.2710 72.3391 135.6974 0.0000 0.0000 0.0000
# 4 0.0000 0.0000 0.0000 -3.2444 0.0000 0.0000
# 5 0.0000 0.0000 0.0000 0.0000 -35.9861 0.0000
# 6 0.0000 0.0000 0.0000 0.0000 0.0000 -0.8532
#
#
#
# Elastic Compliance Matrix: (Units=1/GPa)
#
#
# Indices 1 2 3 4 5 6 
#
# 1 0.015143 -0.001194 0.000495 0.000000 0.000000 0.000000
# 2 -0.001194 0.012072 -0.006424 0.000000 0.000000 0.000000
# 3 0.000495 -0.006424 0.010790 0.000000 0.000000 0.000000
# 4 0.000000 0.000000 0.000000 -0.308223 0.000000 0.000000
# 5 0.000000 0.000000 0.000000 0.000000 -0.027788 0.000000
# 6 0.000000 0.000000 0.000000 0.000000 0.000000 -1.172066
#
#
# Mechanical properties :
#
#
# Convention : Reuss Voigt Hill
#
# Bulk Modulus (GPa) = 42.09333 54.00667 48.05000
# Shear Modulus (GPa) = -3.45326 8.21284 2.37979
#
# Velocity S-wave (km/s) = -1.36355 2.10283 1.13195
# Velocity P-wave (km/s) = 4.49271 5.91385 5.25158
#
# Compressibility (1/GPa) = 0.02375673
#
# Stress axis : x y z
#
# Youngs Moduli (GPa) = 66.03827 82.83428 92.68249
#
# Poissons Ratio (x) = 0.09893 -0.04586
# Poissons Ratio (y) = 0.07887 0.59543
# Poissons Ratio (z) = -0.03268 0.53216
#
# Static dielectric constant tensor:
#      x y z
#    x 1.768160 0.000000 0.000000 
#    y 0.000000 1.659760 0.000000 
#    z 0.000000 0.000000 1.654590 
# 
# From -- ./inp_files/64882.got.cif
#   From: 2010.05.17/outbox.cif.g08.bks.cpg/sg71_33_cif.got.tgz:64882.got - 2010.06.03 16:22:01.
