data_PCOD9517646
_publ_section_title
;
Structure prediction by ZEFSAII (Michael W. Deem and Ramdas Pophale) SiO2 
 PCOD9517646
Probable space group: I M M M
;
_chemical_formula_sum "Si O2"
_cell_formula_units_Z 104
_cell_length_a 7.591048
_cell_length_b 23.663210
_cell_length_c 25.401688
_cell_angle_alpha 90.000000
_cell_angle_beta 90.000000
_cell_angle_gamma 90.000000
_cell_volume 4562.868712
_symmetry_space_group_name_H-M "I M M M"
_symmetry_group_IT_number 71
_symmetry_cell_setting 'orthorhombic'
loop_
_space_group_symop_operation_xyz
x,y,z
-x,-y,z
x,-y,-z
-x,y,-z
-x,-y,-z
x,y,-z
-x,y,z
x,-y,z
1/2+x,1/2+y,1/2+z
1/2-x,1/2-y,1/2+z
1/2+x,1/2-y,1/2-z
1/2-x,1/2+y,1/2-z
1/2-x,1/2-y,1/2-z
1/2+x,1/2+y,1/2-z
1/2-x,1/2+y,1/2+z
1/2+x,1/2-y,1/2+z
loop_
_atom_site_type_symbol
_atom_site_label
_atom_site_fract_x
_atom_site_fract_y
_atom_site_fract_z
Si Si1 0.716388 0.384010 0.116160
Si Si2 0.802004 0.715804 0.699378
Si Si3 0.303175 0.401983 0.333042
Si Si4 0.214761 0.000000 0.439525
Si Si5 0.785624 0.936640 0.721811
Si Si6 0.799038 0.234033 0.586015
Si Si7 0.791921 0.860720 0.057293
O O1 0.500000 0.380567 0.116264
O O2 0.769412 0.442091 0.088321
O O3 0.771067 0.391533 0.177579
O O4 0.779067 0.328854 0.083900
O O5 0.750000 0.750000 0.750000
O O6 0.683363 0.662447 0.687222
O O7 0.799816 0.755532 0.648715
O O8 0.000000 0.693539 0.705058
O O9 0.500000 0.426320 0.340213
O O10 0.219538 0.430866 0.281810
O O11 0.218817 0.392816 0.390893
O O12 0.268815 0.000000 0.500000
O O13 0.000000 0.000000 0.437446
O O14 0.000000 0.931967 0.724884
O O15 0.745923 0.000000 0.702771
O O16 0.722756 0.292492 0.563716
O O17 0.000000 0.232221 0.566346
O O18 0.000000 0.872998 0.057318
O O19 0.718320 0.876208 0.000000
#
# Coordination Sequence:
#
# PCOD9517646 Si02
#       7
#    16  16  16   8  16  16  16
#     4   9  15  25  39  60  89 117 145 183 228 265
#     4  10  18  28  42  64  93 122 150 184 231 281
#     4   9  17  29  46  67  89 117 154 191 231 281
#     4   9  16  24  34  52  83 119 146 172 218 271
#     4   9  15  25  44  67  90 118 153 192 230 271
#     4   9  18  29  44  66  90 115 149 191 226 264
#     4   9  18  32  47  64  90 122 152 184 229 285
#
# _framework density 22.792679
#
# number of rings (size 3 to 8) (size 9 to 14) (size 15 to 20)
#    0.000    2.846    0.769    1.385    0.000    4.000 
#    0.000    1.538    0.000    0.923    0.000    3.769 
#    0.000    1.846    0.000    7.692    0.000    8.000 
#
# Total GULP energy -289750.179842 kJ/mol
# GULP energy per Si atom -5572.118843 kJ/mol
# Density = 2.274080 g / cm^3
# Si number density = 22.792679 Si / 1000 Ang^3
#
#
#
# Elastic Constant Matrix: (Units=GPa)
#
#
# Indices 1 2 3 4 5 6 
#
# 1 58.0798 -2.0089 -0.3808 0.0000 0.0000 0.0000
# 2 -2.0089 42.3457 -6.4395 0.0000 0.0000 0.0000
# 3 -0.3808 -6.4395 131.9913 0.0000 0.0000 0.0000
# 4 0.0000 0.0000 0.0000 18.8410 0.0000 0.0000
# 5 0.0000 0.0000 0.0000 0.0000 -4.3824 0.0000
# 6 0.0000 0.0000 0.0000 0.0000 0.0000 2.1806
#
#
#
# Elastic Compliance Matrix: (Units=1/GPa)
#
#
# Indices 1 2 3 4 5 6 
#
# 1 0.017247 0.000832 0.000090 0.000000 0.000000 0.000000
# 2 0.000832 0.023832 0.001165 0.000000 0.000000 0.000000
# 3 0.000090 0.001165 0.007633 0.000000 0.000000 0.000000
# 4 0.000000 0.000000 0.000000 0.053076 0.000000 0.000000
# 5 0.000000 0.000000 0.000000 0.000000 -0.228187 0.000000
# 6 0.000000 0.000000 0.000000 0.000000 0.000000 0.458592
#
#
# Mechanical properties :
#
#
# Convention : Reuss Voigt Hill
#
# Bulk Modulus (GPa) = 18.90826 23.86205 21.38516
# Shear Modulus (GPa) = 14.46562 19.41090 16.93826
#
# Velocity S-wave (km/s) = 2.52198 2.92143 2.72903
# Velocity P-wave (km/s) = 4.09808 4.67671 4.39692
#
# Compressibility (1/GPa) = 0.05288693
#
# Stress axis : x y z
#
# Youngs Moduli (GPa) = 57.98093 41.96075 131.00392
#
# Poissons Ratio (x) = -0.03491 -0.01184
# Poissons Ratio (y) = -0.04824 -0.15263
# Poissons Ratio (z) = -0.00524 -0.04889
#
# Static dielectric constant tensor:
#      x y z
#    x 2.004760 0.000000 0.000000 
#    y 0.000000 1.871830 0.000000 
#    z 0.000000 0.000000 1.886520 
# 
# From -- ./inp_files/15310.got.cif
#   From: 2010.05.17/outbox.cif.g08.bks.cpg/sg71_8_cif.got.tgz:15310.got - 2010.06.03 16:22:01.
