data_PCOD9517093
_publ_section_title
;
Structure prediction by ZEFSAII (Michael W. Deem and Ramdas Pophale) SiO2 
 PCOD9517093
Probable space group: F D D D
;
_chemical_formula_sum "Si O2"
_cell_formula_units_Z 120
_cell_length_a 17.490609
_cell_length_b 12.884560
_cell_length_c 25.433308
_cell_angle_alpha 90.000000
_cell_angle_beta 90.000000
_cell_angle_gamma 90.000000
_cell_volume 5731.619799
_symmetry_space_group_name_H-M "F D D D"
_symmetry_group_IT_number 70
_space_group.IT_coordinate_system_code '2'
_symmetry_cell_setting 'orthorhombic'
loop_
_space_group_symop_operation_xyz
x,y,z
1/4-x,1/4-y,z
x,1/4-y,1/4-z
1/4-x,y,1/4-z
-x,-y,-z
3/4+x,3/4+y,-z
-x,3/4+y,3/4+z
3/4+x,-y,3/4+z
x,1/2+y,1/2+z
1/4-x,3/4-y,1/2+z
x,3/4-y,3/4-z
1/4-x,1/2+y,3/4-z
-x,1/2-y,1/2-z
3/4+x,1/4+y,1/2-z
-x,1/4+y,1/4+z
3/4+x,1/2-y,1/4+z
1/2+x,y,1/2+z
3/4-x,1/4-y,1/2+z
1/2+x,1/4-y,3/4-z
3/4-x,y,3/4-z
1/2-x,-y,1/2-z
1/4+x,3/4+y,1/2-z
1/2-x,3/4+y,1/4+z
1/4+x,-y,1/4+z
1/2+x,1/2+y,z
3/4-x,3/4-y,z
1/2+x,3/4-y,1/4-z
3/4-x,1/2+y,1/4-z
1/2-x,1/2-y,-z
1/4+x,1/4+y,-z
1/2-x,1/4+y,3/4+z
1/4+x,1/2-y,3/4+z
loop_
_atom_site_type_symbol
_atom_site_label
_atom_site_fract_x
_atom_site_fract_y
_atom_site_fract_z
Si Si1 0.446884 0.951679 0.047036
Si Si2 0.190114 0.417478 0.770699
Si Si3 0.708892 0.269486 0.705715
Si Si4 0.875000 0.875000 0.875000
Si Si5 0.871290 0.625000 0.625000
O O1 0.375000 0.875000 0.030835
O O2 0.501958 0.866315 0.072328
O O3 0.422754 0.041072 0.088261
O O4 0.500000 0.000000 0.000000
O O5 0.250000 0.500000 0.750000
O O6 0.228727 0.303485 0.764356
O O7 0.109865 0.437690 0.741628
O O8 0.172547 0.433407 0.832156
O O9 0.674294 0.195250 0.662762
#
# Coordination Sequence:
#
# PCOD9517093 Si02
#       5
#    32  32  32   8  16
#     4  12  26  51  75 108 156 202 260 317 387 471
#     4  12  25  46  75 110 147 196 254 306 383 457
#     4  12  25  46  73 107 152 191 251 317 373 455
#     4  12  26  44  72 114 146 188 258 316 378 448
#     4  12  27  48  80 108 153 206 252 310 403 442
#
# _framework density 20.936489999999999
#
# number of rings (size 3 to 8) (size 9 to 14) (size 15 to 20)
#    0.000    0.000    8.000    0.800    0.000    4.267 
#    4.800    0.000    0.000    0.000    0.000    0.000 
#    0.000    0.000    0.000    0.000    0.000    0.000 
#
# Total GULP energy -167314.516242 kJ/mol
# GULP energy per Si atom -5577.150541 kJ/mol
# Density = 2.088884 g / cm^3
# Si number density = 20.936490 Si / 1000 Ang^3
#
#
#
# Elastic Constant Matrix: (Units=GPa)
#
#
# Indices 1 2 3 4 5 6 
#
# 1 131.6364 88.4270 82.0482 0.0000 0.0000 0.0000
# 2 88.4270 170.3035 67.9674 0.0000 0.0000 0.0000
# 3 82.0482 67.9674 124.6945 0.0000 0.0000 0.0000
# 4 0.0000 0.0000 0.0000 28.6803 0.0000 0.0000
# 5 0.0000 0.0000 0.0000 0.0000 43.2880 0.0000
# 6 0.0000 0.0000 0.0000 0.0000 0.0000 134.1271
#
#
#
# Elastic Compliance Matrix: (Units=1/GPa)
#
#
# Indices 1 2 3 4 5 6 
#
# 1 0.015794 -0.005180 -0.007569 0.000000 0.000000 0.000000
# 2 -0.005180 0.009203 -0.001608 0.000000 0.000000 0.000000
# 3 -0.007569 -0.001608 0.013876 0.000000 0.000000 0.000000
# 4 0.000000 0.000000 0.000000 0.034867 0.000000 0.000000
# 5 0.000000 0.000000 0.000000 0.000000 0.023101 0.000000
# 6 0.000000 0.000000 0.000000 0.000000 0.000000 0.007456
#
#
# Mechanical properties :
#
#
# Convention : Reuss Voigt Hill
#
# Bulk Modulus (GPa) = 98.42720 100.39107 99.40913
# Shear Modulus (GPa) = 36.65748 53.76521 45.21135
#
# Velocity S-wave (km/s) = 4.18890 5.07306 4.65203
# Velocity P-wave (km/s) = 8.39704 9.07573 8.74297
#
# Compressibility (1/GPa) = 0.01015979
#
# Stress axis : x y z
#
# Youngs Moduli (GPa) = 63.31514 108.65716 72.06515
#
# Poissons Ratio (x) = 0.56285 0.54545
# Poissons Ratio (y) = 0.32798 0.11588
# Poissons Ratio (z) = 0.47922 0.17472
#
# Static dielectric constant tensor:
#      x y z
#    x 1.856070 0.000000 0.000000 
#    y 0.000000 1.697140 0.000000 
#    z 0.000000 0.000000 1.719610 
# 
# From -- ./inp_files/17419.got.cif
#   From: 2010.05.17/outbox.cif.g08.bks.cpg/sg70_9_cif.got.tgz:17419.got - 2010.06.03 15:57:51.
