data_PCOD9517769
_publ_section_title
;
Structure prediction by ZEFSAII (Michael W. Deem and Ramdas Pophale) SiO2 
 PCOD9517769
Probable space group: I M M M
;
_chemical_formula_sum "Si O2"
_cell_formula_units_Z 40
_cell_length_a 5.534215
_cell_length_b 13.138452
_cell_length_c 28.301564
_cell_angle_alpha 90.000000
_cell_angle_beta 90.000000
_cell_angle_gamma 90.000000
_cell_volume 2057.835533
_symmetry_space_group_name_H-M "I M M M"
_symmetry_group_IT_number 71
_symmetry_cell_setting 'orthorhombic'
loop_
_space_group_symop_operation_xyz
x,y,z
-x,-y,z
x,-y,-z
-x,y,-z
-x,-y,-z
x,y,-z
-x,y,z
x,-y,z
1/2+x,1/2+y,1/2+z
1/2-x,1/2-y,1/2+z
1/2+x,1/2-y,1/2-z
1/2-x,1/2+y,1/2-z
1/2-x,1/2-y,1/2-z
1/2+x,1/2+y,1/2-z
1/2-x,1/2+y,1/2+z
1/2+x,1/2-y,1/2+z
loop_
_atom_site_type_symbol
_atom_site_label
_atom_site_fract_x
_atom_site_fract_y
_atom_site_fract_z
Si Si1 0.000000 0.000000 0.629200
Si Si2 0.500000 0.880735 0.765060
Si Si3 0.500000 0.778009 0.586695
Si Si4 0.000000 0.819912 0.552546
Si Si5 0.000000 0.798299 0.808144
Si Si6 0.500000 0.000000 0.367323
O O1 0.000000 0.903376 0.594402
O O2 0.755492 0.000000 0.658640
O O3 0.250506 0.851448 0.792248
O O4 0.500000 0.811191 0.718145
O O5 0.500000 0.000000 0.756830
O O6 0.749937 0.759700 0.559484
O O7 0.500000 0.719673 0.636118
O O8 0.500000 0.899283 0.599957
O O9 0.000000 0.865976 0.500000
#
# Coordination Sequence:
#
# PCOD9517769 Si02
#       6
#     4   8   8   8   8   4
#     4   8  15  26  38  56  88 130 176 210 240 294
#     4  10  21  38  58  80 110 142 174 219 271 322
#     4  10  19  31  47  71 103 135 178 218 251 311
#     4  10  18  29  44  66  99 139 176 214 258 301
#     4  10  21  36  56  83 109 141 179 220 264 315
#     4   8  16  26  41  64  90 134 170 206 254 286
#
# _framework density 19.437898000000001
#
# number of rings (size 3 to 8) (size 9 to 14) (size 15 to 20)
#    0.000    2.400    0.000    2.700    1.400    0.000 
#    0.000    6.000    0.000    0.000    0.000    0.000 
#    0.000   56.000    0.000    0.000    0.000    0.000 
#
# Total GULP energy -111464.104425 kJ/mol
# GULP energy per Si atom -5573.205221 kJ/mol
# Density = 1.939366 g / cm^3
# Si number density = 19.437898 Si / 1000 Ang^3
#
#
#
# Elastic Constant Matrix: (Units=GPa)
#
#
# Indices 1 2 3 4 5 6 
#
# 1 249.0306 39.1679 44.8848 0.0000 0.0000 0.0000
# 2 39.1679 80.9834 25.7660 0.0000 0.0000 0.0000
# 3 44.8848 25.7660 72.0610 0.0000 0.0000 0.0000
# 4 0.0000 0.0000 0.0000 9.7489 0.0000 0.0000
# 5 0.0000 0.0000 0.0000 0.0000 6.4213 0.0000
# 6 0.0000 0.0000 0.0000 0.0000 0.0000 12.2705
#
#
#
# Elastic Compliance Matrix: (Units=1/GPa)
#
#
# Indices 1 2 3 4 5 6 
#
# 1 0.004681 -0.001508 -0.002377 0.000000 0.000000 0.000000
# 2 -0.001508 0.014419 -0.004216 0.000000 0.000000 0.000000
# 3 -0.002377 -0.004216 0.016865 0.000000 0.000000 0.000000
# 4 0.000000 0.000000 0.000000 0.102576 0.000000 0.000000
# 5 0.000000 0.000000 0.000000 0.000000 0.155731 0.000000
# 6 0.000000 0.000000 0.000000 0.000000 0.000000 0.081496
#
#
# Mechanical properties :
#
#
# Convention : Reuss Voigt Hill
#
# Bulk Modulus (GPa) = 50.59857 69.07918 59.83887
# Shear Modulus (GPa) = 12.54523 25.17189 18.85856
#
# Velocity S-wave (km/s) = 2.54323 3.60250 3.11818
# Velocity P-wave (km/s) = 5.89164 7.27458 6.61933
#
# Compressibility (1/GPa) = 0.01976341
#
# Stress axis : x y z
#
# Youngs Moduli (GPa) = 213.62592 69.35288 59.29428
#
# Poissons Ratio (x) = 0.10458 0.14092
# Poissons Ratio (y) = 0.32212 0.25001
# Poissons Ratio (z) = 0.50769 0.29242
#
# Static dielectric constant tensor:
#      x y z
#    x 1.790450 0.000000 0.000000 
#    y 0.000000 1.685540 0.000000 
#    z 0.000000 0.000000 1.644660 
# 
# From -- ./inp_files/62480.got.cif
#   From: 2010.05.17/outbox.cif.g08.bks.cpg/sg71_32_cif.got.tgz:62480.got - 2010.06.03 16:22:01.
