data_PCOD9517247
_publ_section_title
;
Structure prediction by ZEFSAII (Michael W. Deem and Ramdas Pophale) SiO2 
 PCOD9517247
Probable space group: I M M M
;
_chemical_formula_sum "Si O2"
_cell_formula_units_Z 80
_cell_length_a 28.470408
_cell_length_b 10.826435
_cell_length_c 20.089957
_cell_angle_alpha 90.000000
_cell_angle_beta 90.000000
_cell_angle_gamma 90.000000
_cell_volume 6192.388151
_symmetry_space_group_name_H-M "I M M M"
_symmetry_group_IT_number 71
_symmetry_cell_setting 'orthorhombic'
loop_
_space_group_symop_operation_xyz
x,y,z
-x,-y,z
x,-y,-z
-x,y,-z
-x,-y,-z
x,y,-z
-x,y,z
x,-y,z
1/2+x,1/2+y,1/2+z
1/2-x,1/2-y,1/2+z
1/2+x,1/2-y,1/2-z
1/2-x,1/2+y,1/2-z
1/2-x,1/2-y,1/2-z
1/2+x,1/2+y,1/2-z
1/2-x,1/2+y,1/2+z
1/2+x,1/2-y,1/2+z
loop_
_atom_site_type_symbol
_atom_site_label
_atom_site_fract_x
_atom_site_fract_y
_atom_site_fract_z
Si Si1 0.221656 0.000000 0.677173
Si Si2 0.308069 0.000000 0.579161
Si Si3 0.695085 0.746112 0.226617
Si Si4 0.554150 0.353181 0.579383
Si Si5 0.716612 0.000000 0.185874
Si Si6 0.701644 0.500000 0.422138
Si Si7 0.148093 0.757000 0.130639
O O1 0.191663 0.124444 0.681916
O O2 0.258038 0.000000 0.616812
O O3 0.253109 0.000000 0.745185
O O4 0.334234 0.874081 0.601877
O O5 0.303229 0.000000 0.500000
O O6 0.750000 0.750000 0.250000
O O7 0.687420 0.874150 0.188600
O O8 0.663961 0.737680 0.292587
O O9 0.561347 0.335250 0.500000
O O10 0.500000 0.322011 0.594490
O O11 0.560415 0.500000 0.592115
O O12 0.592989 0.276607 0.618572
O O13 0.752952 0.000000 0.125293
O O14 0.712858 0.500000 0.500000
O O15 0.672793 0.624770 0.404760
#
# Coordination Sequence:
#
# PCOD9517247 Si02
#       7
#     8   8  16  16   8   8  16
#     4  10  16  30  40  54  80 106 131 165 198 243
#     4  12  22  28  39  61  86 108 134 172 207 242
#     4  10  16  27  44  57  76 106 133 167 196 246
#     4   9  18  31  44  58  78 103 134 177 219 242
#     4  10  16  30  40  54  82 108 131 167 200 245
#     4  12  20  26  43  65  80 102 144 186 201 226
#     4  12  19  30  44  61  80 105 142 177 208 241
#
# _framework density 12.919086
#
# number of rings (size 3 to 8) (size 9 to 14) (size 15 to 20)
#    0.000    1.400    9.000    2.400    0.000    0.000 
#    0.000    0.500    0.000    1.800    0.000    0.000 
#    0.000    0.000    0.000    0.000    0.000    6.000 
#
# Total GULP energy -222824.421293 kJ/mol
# GULP energy per Si atom -5570.610532 kJ/mol
# Density = 1.288968 g / cm^3
# Si number density = 12.919086 Si / 1000 Ang^3
#
#
#
# Elastic Constant Matrix: (Units=GPa)
#
#
# Indices 1 2 3 4 5 6 
#
# 1 73.7737 39.0849 52.4040 0.0000 0.0000 0.0000
# 2 39.0849 127.6123 33.5153 0.0000 0.0000 0.0000
# 3 52.4040 33.5153 51.0733 0.0000 0.0000 0.0000
# 4 0.0000 0.0000 0.0000 14.1224 0.0000 0.0000
# 5 0.0000 0.0000 0.0000 0.0000 19.1231 0.0000
# 6 0.0000 0.0000 0.0000 0.0000 0.0000 12.4173
#
#
#
# Elastic Compliance Matrix: (Units=1/GPa)
#
#
# Indices 1 2 3 4 5 6 
#
# 1 0.050517 -0.002246 -0.050359 0.000000 0.000000 0.000000
# 2 -0.002246 0.009568 -0.003974 0.000000 0.000000 0.000000
# 3 -0.050359 -0.003974 0.073858 0.000000 0.000000 0.000000
# 4 0.000000 0.000000 0.000000 0.070810 0.000000 0.000000
# 5 0.000000 0.000000 0.000000 0.000000 0.052293 0.000000
# 6 0.000000 0.000000 0.000000 0.000000 0.000000 0.080533
#
#
# Mechanical properties :
#
#
# Convention : Reuss Voigt Hill
#
# Bulk Modulus (GPa) = 48.11154 55.82973 51.97064
# Shear Modulus (GPa) = 10.92505 17.62956 14.27730
#
# Velocity S-wave (km/s) = 2.91116 3.69807 3.32796
# Velocity P-wave (km/s) = 6.97290 7.84494 7.42174
#
# Compressibility (1/GPa) = 0.02078503
#
# Stress axis : x y z
#
# Youngs Moduli (GPa) = 19.79551 104.51633 13.53946
#
# Poissons Ratio (x) = 0.23477 0.68183
# Poissons Ratio (y) = 0.04447 0.05380
# Poissons Ratio (z) = 0.99688 0.41533
#
# Static dielectric constant tensor:
#      x y z
#    x 1.395090 0.000000 0.000000 
#    y 0.000000 1.561790 0.000000 
#    z 0.000000 0.000000 1.398700 
# 
# From -- ./inp_files/48729.got.cif
#   From: 2010.05.17/outbox.cif.g08.bks.cpg/sg71_25_cif.got.tgz:48729.got - 2010.06.03 16:22:01.
