data_PCOD9517117
_publ_section_title
;
Structure prediction by ZEFSAII (Michael W. Deem and Ramdas Pophale) SiO2 
 PCOD9517117
Probable space group: F D D D
;
_chemical_formula_sum "Si O2"
_cell_formula_units_Z 72
_cell_length_a 4.823339
_cell_length_b 17.681580
_cell_length_c 36.314367
_cell_angle_alpha 90.000000
_cell_angle_beta 90.000000
_cell_angle_gamma 90.000000
_cell_volume 3097.043713
_symmetry_space_group_name_H-M "F D D D"
_symmetry_group_IT_number 70
_space_group.IT_coordinate_system_code '2'
_symmetry_cell_setting 'orthorhombic'
loop_
_space_group_symop_operation_xyz
x,y,z
1/4-x,1/4-y,z
x,1/4-y,1/4-z
1/4-x,y,1/4-z
-x,-y,-z
3/4+x,3/4+y,-z
-x,3/4+y,3/4+z
3/4+x,-y,3/4+z
x,1/2+y,1/2+z
1/4-x,3/4-y,1/2+z
x,3/4-y,3/4-z
1/4-x,1/2+y,3/4-z
-x,1/2-y,1/2-z
3/4+x,1/4+y,1/2-z
-x,1/4+y,1/4+z
3/4+x,1/2-y,1/4+z
1/2+x,y,1/2+z
3/4-x,1/4-y,1/2+z
1/2+x,1/4-y,3/4-z
3/4-x,y,3/4-z
1/2-x,-y,1/2-z
1/4+x,3/4+y,1/2-z
1/2-x,3/4+y,1/4+z
1/4+x,-y,1/4+z
1/2+x,1/2+y,z
3/4-x,3/4-y,z
1/2+x,3/4-y,1/4-z
3/4-x,1/2+y,1/4-z
1/2-x,1/2-y,-z
1/4+x,1/4+y,-z
1/2-x,1/4+y,3/4+z
1/4+x,1/2-y,3/4+z
loop_
_atom_site_type_symbol
_atom_site_label
_atom_site_fract_x
_atom_site_fract_y
_atom_site_fract_z
Si Si1 0.375000 0.875000 0.875000
Si Si2 0.257901 0.497292 0.661893
Si Si3 0.230769 0.210315 0.460676
O O1 0.578899 0.928957 0.851956
O O2 0.488618 0.456972 0.686834
O O3 0.125000 0.459441 0.625000
O O4 0.993194 0.508201 0.687550
O O5 0.125000 0.125000 0.465037
O O6 0.250000 0.250000 0.500000
#
# Coordination Sequence:
#
# PCOD9517117 Si02
#       3
#     8  32  32
#     4  12  26  48  82 116 150 204 256 324 386 472
#     4  12  26  49  79 112 152 203 258 316 385 465
#     4  12  29  50  78 114 158 206 258 324 390 464
#
# _framework density 23.247976999999999
#
# number of rings (size 3 to 8) (size 9 to 14) (size 15 to 20)
#    0.000    0.000    4.444    3.333    3.111    3.556 
#    4.000    0.000    0.000    0.000    0.000    0.000 
#    0.000    0.000    0.000    0.000    0.000    0.000 
#
# Total GULP energy -100758.870539 kJ/mol
# GULP energy per Si atom -5597.715030 kJ/mol
# Density = 2.319506 g / cm^3
# Si number density = 23.247977 Si / 1000 Ang^3
#
#
#
# Elastic Constant Matrix: (Units=GPa)
#
#
# Indices 1 2 3 4 5 6 
#
# 1 198.5489 34.9610 108.0797 0.0000 0.0000 0.0000
# 2 34.9610 88.2241 60.0423 0.0000 0.0000 0.0000
# 3 108.0797 60.0423 230.1999 0.0000 0.0000 0.0000
# 4 0.0000 0.0000 0.0000 13.0764 0.0000 0.0000
# 5 0.0000 0.0000 0.0000 0.0000 29.2944 0.0000
# 6 0.0000 0.0000 0.0000 0.0000 0.0000 48.3884
#
#
#
# Elastic Compliance Matrix: (Units=1/GPa)
#
#
# Indices 1 2 3 4 5 6 
#
# 1 0.006795 -0.000634 -0.003025 0.000000 0.000000 0.000000
# 2 -0.000634 0.013840 -0.003312 0.000000 0.000000 0.000000
# 3 -0.003025 -0.003312 0.006628 0.000000 0.000000 0.000000
# 4 0.000000 0.000000 0.000000 0.076474 0.000000 0.000000
# 5 0.000000 0.000000 0.000000 0.000000 0.034136 0.000000
# 6 0.000000 0.000000 0.000000 0.000000 0.000000 0.020666
#
#
# Mechanical properties :
#
#
# Convention : Reuss Voigt Hill
#
# Bulk Modulus (GPa) = 75.06948 102.57100 88.82024
# Shear Modulus (GPa) = 28.26110 39.07783 33.66946
#
# Velocity S-wave (km/s) = 3.49038 4.10434 3.80975
# Velocity P-wave (km/s) = 6.97170 8.16560 7.59215
#
# Compressibility (1/GPa) = 0.01332099
#
# Stress axis : x y z
#
# Youngs Moduli (GPa) = 147.17330 72.25328 150.87263
#
# Poissons Ratio (x) = 0.04581 0.45636
# Poissons Ratio (y) = 0.09331 0.49972
# Poissons Ratio (z) = 0.44517 0.23932
#
# Static dielectric constant tensor:
#      x y z
#    x 1.876590 0.000000 0.000000 
#    y 0.000000 1.905510 0.000000 
#    z 0.000000 0.000000 1.675950 
# 
# From -- ./inp_files/55620.got.cif
#   From: 2010.05.17/outbox.cif.g08.bks.cpg/sg70_28_cif.got.tgz:55620.got - 2010.06.03 15:57:51.
