data_PCOD9517788
_publ_section_title
;
Structure prediction by ZEFSAII (Michael W. Deem and Ramdas Pophale) SiO2 
 PCOD9517788
Probable space group: I M M M
;
_chemical_formula_sum "Si O2"
_cell_formula_units_Z 88
_cell_length_a 19.644280
_cell_length_b 29.114354
_cell_length_c 7.363680
_cell_angle_alpha 90.000000
_cell_angle_beta 90.000000
_cell_angle_gamma 90.000000
_cell_volume 4211.513346
_symmetry_space_group_name_H-M "I M M M"
_symmetry_group_IT_number 71
_symmetry_cell_setting 'orthorhombic'
loop_
_space_group_symop_operation_xyz
x,y,z
-x,-y,z
x,-y,-z
-x,y,-z
-x,-y,-z
x,y,-z
-x,y,z
x,-y,z
1/2+x,1/2+y,1/2+z
1/2-x,1/2-y,1/2+z
1/2+x,1/2-y,1/2-z
1/2-x,1/2+y,1/2-z
1/2-x,1/2-y,1/2-z
1/2+x,1/2+y,1/2-z
1/2-x,1/2+y,1/2+z
1/2+x,1/2-y,1/2+z
loop_
_atom_site_type_symbol
_atom_site_label
_atom_site_fract_x
_atom_site_fract_y
_atom_site_fract_z
Si Si1 0.582746 0.219574 0.210253
Si Si2 0.657180 0.590416 0.783821
Si Si3 0.578446 0.881064 0.777420
Si Si4 0.421503 0.500000 0.778000
Si Si5 0.695746 0.947862 0.782952
Si Si6 0.079251 0.180113 0.277669
O O1 0.500000 0.219708 0.212317
O O2 0.601905 0.169751 0.285640
O O3 0.602338 0.269266 0.286586
O O4 0.604728 0.219454 0.000000
O O5 0.616647 0.545810 0.715032
O O6 0.736377 0.581197 0.752481
O O7 0.626008 0.638149 0.715763
O O8 0.646375 0.591330 0.000000
O O9 0.500000 0.888530 0.723660
O O10 0.629681 0.920496 0.716827
O O11 0.578704 0.879922 0.000000
O O12 0.500000 0.500000 0.724623
O O13 0.419455 0.500000 0.000000
O O14 0.702688 0.000000 0.712638
O O15 0.689033 0.951133 0.000000
O O16 0.080004 0.181665 0.500000
O O17 0.000000 0.172610 0.227103
#
# Coordination Sequence:
#
# PCOD9517788 Si02
#       6
#    16  16  16   8  16  16
#     4   7  10  19  37  62  89 110 132 173 224 260
#     4  10  18  29  45  65  89 117 146 177 215 260
#     4   8  14  26  45  66  85 109 144 182 219 260
#     4   9  16  26  43  65  84 107 146 188 213 235
#     4  10  20  32  45  62  88 119 146 179 222 262
#     4   8  13  22  40  66  90 111 141 182 219 249
#
# _framework density 20.895102999999999
#
# number of rings (size 3 to 8) (size 9 to 14) (size 15 to 20)
#    0.000    3.364    0.909    2.727    0.000    2.545 
#    0.000    2.727    0.000    3.273    0.000    1.273 
#    0.000    4.364    0.000    0.000    0.000    0.000 
#
# Total GULP energy -245316.060281 kJ/mol
# GULP energy per Si atom -5575.365006 kJ/mol
# Density = 2.084754 g / cm^3
# Si number density = 20.895103 Si / 1000 Ang^3
#
#
#
# Elastic Constant Matrix: (Units=GPa)
#
#
# Indices 1 2 3 4 5 6 
#
# 1 100.1394 64.0381 -6.1501 0.0000 0.0000 0.0000
# 2 64.0381 128.3399 1.7228 0.0000 0.0000 0.0000
# 3 -6.1501 1.7228 74.9103 0.0000 0.0000 0.0002
# 4 0.0000 0.0000 0.0000 -11.5719 0.0000 0.0000
# 5 0.0000 0.0000 0.0000 0.0000 9.4644 0.0001
# 6 0.0000 0.0000 0.0002 0.0000 0.0001 -358.5824
#
#
#
# Elastic Compliance Matrix: (Units=1/GPa)
#
#
# Indices 1 2 3 4 5 6 
#
# 1 0.014808 -0.007408 0.001386 0.000000 0.000000 0.000000
# 2 -0.007408 0.011500 -0.000873 0.000000 0.000000 0.000000
# 3 0.001386 -0.000873 0.013483 0.000000 0.000000 0.000000
# 4 0.000000 0.000000 0.000000 -0.086416 0.000000 0.000000
# 5 0.000000 0.000000 0.000000 0.000000 0.105659 0.000000
# 6 0.000000 0.000000 0.000000 0.000000 0.000000 -0.002789
#
#
# Mechanical properties :
#
#
# Convention : Reuss Voigt Hill
#
# Bulk Modulus (GPa) = 38.45706 46.95679 42.70692
# Shear Modulus (GPa) = 63.53211 -55.88605 3.82303
#
# Velocity S-wave (km/s) = 5.52008 -5.17726 1.35410
# Velocity P-wave (km/s) = 7.68590 3.63557 4.78831
#
# Compressibility (1/GPa) = 0.02600303
#
# Stress axis : x y z
#
# Youngs Moduli (GPa) = 67.53001 86.95904 74.16651
#
# Poissons Ratio (x) = 0.64415 -0.10280
# Poissons Ratio (y) = 0.50023 0.06472
# Poissons Ratio (z) = -0.09360 0.07588
#
# Static dielectric constant tensor:
#      x y z
#    x 1.691510 0.000000 0.000000 
#    y 0.000000 1.783970 0.000000 
#    z 0.000000 0.000000 1.844000 
# 
# From -- ./inp_files/8727.got.cif
#   From: 2010.05.17/outbox.cif.g08.bks.cpg/sg71_5_cif.got.tgz:8727.got - 2010.06.03 16:22:01.
