data_PCOD9517303
_publ_section_title
;
Structure prediction by ZEFSAII (Michael W. Deem and Ramdas Pophale) SiO2 
 PCOD9517303
Probable space group: I M M M
;
_chemical_formula_sum "Si O2"
_cell_formula_units_Z 104
_cell_length_a 34.433157
_cell_length_b 7.565538
_cell_length_c 22.849112
_cell_angle_alpha 90.000000
_cell_angle_beta 90.000000
_cell_angle_gamma 90.000000
_cell_volume 5952.316096
_symmetry_space_group_name_H-M "I M M M"
_symmetry_group_IT_number 71
_symmetry_cell_setting 'orthorhombic'
loop_
_space_group_symop_operation_xyz
x,y,z
-x,-y,z
x,-y,-z
-x,y,-z
-x,-y,-z
x,y,-z
-x,y,z
x,-y,z
1/2+x,1/2+y,1/2+z
1/2-x,1/2-y,1/2+z
1/2+x,1/2-y,1/2-z
1/2-x,1/2+y,1/2-z
1/2-x,1/2-y,1/2-z
1/2+x,1/2+y,1/2-z
1/2-x,1/2+y,1/2+z
1/2+x,1/2-y,1/2+z
loop_
_atom_site_type_symbol
_atom_site_label
_atom_site_fract_x
_atom_site_fract_y
_atom_site_fract_z
Si Si1 0.326999 0.787649 0.933330
Si Si2 0.044460 0.784496 0.273108
Si Si3 0.454934 0.716448 0.000000
Si Si4 0.817966 0.500000 0.071216
Si Si5 0.241354 0.202587 0.928712
Si Si6 0.409273 0.289220 0.884803
Si Si7 0.592250 0.000000 0.570193
Si Si8 0.046322 0.790559 0.860350
O O1 0.284404 0.729077 0.912329
O O2 0.363815 0.742698 0.894259
O O3 0.324363 0.000000 0.936618
O O4 0.333872 0.721776 0.000000
O O5 0.072673 0.721330 0.324345
O O6 0.054805 0.734540 0.206802
O O7 0.000000 0.730089 0.285225
O O8 0.044461 0.000000 0.272954
O O9 0.432497 0.777668 0.058155
O O10 0.454151 0.500000 0.000000
O O11 0.500000 0.768721 0.000000
O O12 0.793296 0.329302 0.090230
O O13 0.862643 0.500000 0.089117
O O14 0.817809 0.500000 0.000000
O O15 0.236198 0.000000 0.909439
O O16 0.241937 0.201175 0.000000
O O17 0.415180 0.500000 0.884277
O O18 0.570544 0.170814 0.595909
O O19 0.590604 0.000000 0.500000
O O20 0.000000 0.766216 0.869024
O O21 0.054388 0.000000 0.866643
#
# Coordination Sequence:
#
# PCOD9517303 Si02
#       8
#    16  16   8   8  16  16   8  16
#     4   9  17  28  40  59  95 133 164 213 267 311
#     4   8  15  30  50  69  94 130 176 221 252 286
#     4   9  16  24  35  59  95 131 167 211 271 325
#     4   9  18  31  48  75 104 134 159 196 242 310
#     4   8  15  28  45  65  94 135 171 201 247 300
#     4  10  17  25  42  68  92 124 172 222 266 305
#     4  11  23  36  55  88 120 133 156 200 258 305
#     4   9  19  37  58  78 106 145 180 208 241 288
#
# _framework density 17.472190000000001
#
# number of rings (size 3 to 8) (size 9 to 14) (size 15 to 20)
#    0.000    3.000    0.769    2.538    1.077    3.385 
#    1.385    2.308    0.000    1.846    0.000    1.077 
#    0.000    0.000    0.000    0.000    0.000    0.000 
#
# Total GULP energy -289862.581858 kJ/mol
# GULP energy per Si atom -5574.280420 kJ/mol
# Density = 1.743242 g / cm^3
# Si number density = 17.472190 Si / 1000 Ang^3
#
#
#
# Elastic Constant Matrix: (Units=GPa)
#
#
# Indices 1 2 3 4 5 6 
#
# 1 134.6785 51.7342 73.4115 0.0000 0.0000 0.0000
# 2 51.7342 65.0138 32.5280 0.0000 0.0000 0.0000
# 3 73.4115 32.5280 80.2728 0.0000 0.0000 0.0000
# 4 0.0000 0.0000 0.0000 1.3394 0.0000 0.0000
# 5 0.0000 0.0000 0.0000 0.0000 11.0591 0.0000
# 6 0.0000 0.0000 0.0000 0.0000 0.0000 24.4736
#
#
#
# Elastic Compliance Matrix: (Units=1/GPa)
#
#
# Indices 1 2 3 4 5 6 
#
# 1 0.017178 -0.007286 -0.012757 0.000000 0.000000 0.000000
# 2 -0.007286 0.022384 -0.002407 0.000000 0.000000 0.000000
# 3 -0.012757 -0.002407 0.025099 0.000000 0.000000 0.000000
# 4 0.000000 0.000000 0.000000 0.746628 0.000000 0.000000
# 5 0.000000 0.000000 0.000000 0.000000 0.090424 0.000000
# 6 0.000000 0.000000 0.000000 0.000000 0.000000 0.040860
#
#
# Mechanical properties :
#
#
# Convention : Reuss Voigt Hill
#
# Bulk Modulus (GPa) = 50.60557 66.14586 58.37572
# Shear Modulus (GPa) = 5.02988 15.52716 10.27852
#
# Velocity S-wave (km/s) = 1.69854 2.98431 2.42808
# Velocity P-wave (km/s) = 5.73351 7.05796 6.42992
#
# Compressibility (1/GPa) = 0.01976067
#
# Stress axis : x y z
#
# Youngs Moduli (GPa) = 58.21551 44.67569 39.84207
#
# Poissons Ratio (x) = 0.32552 0.50825
# Poissons Ratio (y) = 0.42418 0.09589
# Poissons Ratio (z) = 0.74264 0.10752
#
# Static dielectric constant tensor:
#      x y z
#    x 1.589920 0.000000 0.000000 
#    y 0.000000 1.642640 0.000000 
#    z 0.000000 0.000000 1.576030 
# 
# From -- ./inp_files/62346.got.cif
#   From: 2010.05.17/outbox.cif.g08.bks.cpg/sg71_32_cif.got.tgz:62346.got - 2010.06.03 16:22:01.
