data_PCOD9517962
_publ_section_title
;
Structure prediction by ZEFSAII (Michael W. Deem and Ramdas Pophale) SiO2 
 PCOD9517962
Probable space group: I M M M
;
_chemical_formula_sum "Si O2"
_cell_formula_units_Z 104
_cell_length_a 29.555880
_cell_length_b 7.473523
_cell_length_c 25.148814
_cell_angle_alpha 90.000000
_cell_angle_beta 90.000000
_cell_angle_gamma 90.000000
_cell_volume 5555.034735
_symmetry_space_group_name_H-M "I M M M"
_symmetry_group_IT_number 71
_symmetry_cell_setting 'orthorhombic'
loop_
_space_group_symop_operation_xyz
x,y,z
-x,-y,z
x,-y,-z
-x,y,-z
-x,-y,-z
x,y,-z
-x,y,z
x,-y,z
1/2+x,1/2+y,1/2+z
1/2-x,1/2-y,1/2+z
1/2+x,1/2-y,1/2-z
1/2-x,1/2+y,1/2-z
1/2-x,1/2-y,1/2-z
1/2+x,1/2+y,1/2-z
1/2-x,1/2+y,1/2+z
1/2+x,1/2-y,1/2+z
loop_
_atom_site_type_symbol
_atom_site_label
_atom_site_fract_x
_atom_site_fract_y
_atom_site_fract_z
Si Si1 0.052010 0.281566 0.356174
Si Si2 0.825875 0.712195 0.939438
Si Si3 0.372218 0.781490 0.938182
Si Si4 0.726995 0.785216 0.061372
Si Si5 0.000000 0.785880 0.061036
Si Si6 0.052364 0.281844 0.236555
Si Si7 0.090469 0.288432 0.872463
O O1 0.052054 0.500000 0.356847
O O2 0.087460 0.220449 0.400310
O O3 0.065202 0.226515 0.296206
O O4 0.000000 0.226649 0.365942
O O5 0.833351 0.500000 0.944061
O O6 0.775615 0.734878 0.915459
O O7 0.866451 0.786611 0.903883
O O8 0.826636 0.785687 0.000000
O O9 0.322117 0.725997 0.918100
O O10 0.372949 0.000000 0.938097
O O11 0.377404 0.727819 0.000000
O O12 0.725947 0.000000 0.060866
O O13 0.728456 0.722063 0.000000
O O14 0.954968 0.730013 0.092542
O O15 0.000000 0.000000 0.059412
O O16 0.000000 0.719618 0.000000
O O17 0.053300 0.500000 0.236121
O O18 0.081068 0.216076 0.186576
O O19 0.000000 0.230567 0.227988
O O20 0.098594 0.500000 0.865696
#
# Coordination Sequence:
#
# PCOD9517962 Si02
#       7
#    16  16  16  16   8  16  16
#     4   8  13  20  33  57  87 111 135 173 210 241
#     4   9  17  27  40  60  80  99 133 178 216 248
#     4   8  13  21  34  55  84 116 143 164 200 256
#     4   8  14  25  40  56  78 110 141 167 201 250
#     4  11  23  33  41  61  91 115 136 169 214 260
#     4   8  13  23  39  58  77 101 138 177 207 240
#     4  10  18  30  47  62  80 110 144 178 212 250
#
# _framework density 18.721755000000002
#
# number of rings (size 3 to 8) (size 9 to 14) (size 15 to 20)
#    0.000    3.308    0.769    2.538    0.000    2.154 
#    0.000    3.077    0.000    0.923    0.000    1.077 
#    0.000    0.000    0.000    6.000    0.000    6.154 
#
# Total GULP energy -289654.304822 kJ/mol
# GULP energy per Si atom -5570.275093 kJ/mol
# Density = 1.867914 g / cm^3
# Si number density = 18.721755 Si / 1000 Ang^3
#
#
#
# Elastic Constant Matrix: (Units=GPa)
#
#
# Indices 1 2 3 4 5 6 
#
# 1 174.5954 -0.3049 104.5039 0.0000 0.0000 0.0000
# 2 -0.3049 51.7068 2.9418 0.0000 0.0000 0.0000
# 3 104.5039 2.9418 122.9876 0.0000 0.0000 0.0000
# 4 0.0000 0.0000 0.0000 -7.4022 0.0000 0.0000
# 5 0.0000 0.0000 0.0000 0.0000 12.4212 0.0000
# 6 0.0000 0.0000 0.0000 0.0000 0.0000 13.2692
#
#
#
# Elastic Compliance Matrix: (Units=1/GPa)
#
#
# Indices 1 2 3 4 5 6 
#
# 1 0.011676 0.000634 -0.009936 0.000000 0.000000 0.000000
# 2 0.000634 0.019401 -0.001003 0.000000 0.000000 0.000000
# 3 -0.009936 -0.001003 0.016598 0.000000 0.000000 0.000000
# 4 0.000000 0.000000 0.000000 -0.135095 0.000000 0.000000
# 5 0.000000 0.000000 0.000000 0.000000 0.080507 0.000000
# 6 0.000000 0.000000 0.000000 0.000000 0.000000 0.075362
#
#
# Mechanical properties :
#
#
# Convention : Reuss Voigt Hill
#
# Bulk Modulus (GPa) = 36.94902 62.61904 49.78403
# Shear Modulus (GPa) = 50.97797 19.80091 35.38944
#
# Velocity S-wave (km/s) = 5.22383 3.25567 4.35246
# Velocity P-wave (km/s) = 7.49421 6.90307 7.20470
#
# Compressibility (1/GPa) = 0.02706432
#
# Stress axis : x y z
#
# Youngs Moduli (GPa) = 85.64500 51.54472 60.24811
#
# Poissons Ratio (x) = -0.03269 0.59865
# Poissons Ratio (y) = -0.05431 0.06042
# Poissons Ratio (z) = 0.85101 0.05169
#
# Static dielectric constant tensor:
#      x y z
#    x 1.659830 0.000000 0.000000 
#    y 0.000000 1.726820 0.000000 
#    z 0.000000 0.000000 1.641520 
# 
# From -- ./inp_files/15525.got.cif
#   From: 2010.05.17/outbox.cif.g08.bks.cpg/sg71_8_cif.got.tgz:15525.got - 2010.06.03 16:22:01.
