data_PCOD9517886
_publ_section_title
;
Structure prediction by ZEFSAII (Michael W. Deem and Ramdas Pophale) SiO2 
 PCOD9517886
Probable space group: I M M M
;
_chemical_formula_sum "Si O2"
_cell_formula_units_Z 96
_cell_length_a 16.427887
_cell_length_b 23.691208
_cell_length_c 13.676412
_cell_angle_alpha 90.000000
_cell_angle_beta 90.000000
_cell_angle_gamma 90.000000
_cell_volume 5322.811518
_symmetry_space_group_name_H-M "I M M M"
_symmetry_group_IT_number 71
_symmetry_cell_setting 'orthorhombic'
loop_
_space_group_symop_operation_xyz
x,y,z
-x,-y,z
x,-y,-z
-x,y,-z
-x,-y,-z
x,y,-z
-x,y,z
x,-y,z
1/2+x,1/2+y,1/2+z
1/2-x,1/2-y,1/2+z
1/2+x,1/2-y,1/2-z
1/2-x,1/2+y,1/2-z
1/2-x,1/2-y,1/2-z
1/2+x,1/2+y,1/2-z
1/2-x,1/2+y,1/2+z
1/2+x,1/2-y,1/2+z
loop_
_atom_site_type_symbol
_atom_site_label
_atom_site_fract_x
_atom_site_fract_y
_atom_site_fract_z
Si Si1 0.093139 0.153979 0.756910
Si Si2 0.681711 0.066777 0.280822
Si Si3 0.653560 0.432941 0.889647
Si Si4 0.500000 0.162092 0.110814
Si Si5 0.850887 0.251659 0.387108
Si Si6 0.257247 0.645085 0.385760
Si Si7 0.500000 0.933688 0.729536
O O1 0.098739 0.099192 0.688006
O O2 0.134279 0.202710 0.690330
O O3 0.149890 0.142308 0.849880
O O4 0.000000 0.168292 0.779204
O O5 0.752321 0.078703 0.359630
O O6 0.705015 0.104753 0.186542
O O7 0.589174 0.076612 0.317961
O O8 0.687925 0.000000 0.255923
O O9 0.641683 0.500000 0.884253
O O10 0.637328 0.414291 0.000000
O O11 0.423021 0.202733 0.124323
O O12 0.500000 0.108945 0.180451
O O13 0.500000 0.141504 0.000000
O O14 0.853228 0.231008 0.500000
O O15 0.771539 0.290074 0.372989
O O16 0.245860 0.630622 0.500000
O O17 0.500000 0.000000 0.756603
#
# Coordination Sequence:
#
# PCOD9517886 Si02
#       7
#    16  16  16   8  16  16   8
#     4  11  22  35  54  78 101 130 169 214 259 301
#     4   9  18  32  51  77 106 136 170 206 248 298
#     4   9  19  36  55  75 102 133 166 210 261 307
#     4  10  18  29  48  77 108 136 164 205 255 297
#     4  10  19  33  53  77 103 131 166 205 251 304
#     4  10  21  36  53  73 102 139 173 205 248 302
#     4  10  18  29  49  78 108 138 172 208 244 290
#
# _framework density 18.035581000000001
#
# number of rings (size 3 to 8) (size 9 to 14) (size 15 to 20)
#    0.000    2.167    2.500    1.000    0.000    2.167 
#    0.000    2.917    0.000    2.500    0.000    4.667 
#    0.000    0.000    0.000    0.000    0.000    0.000 
#
# Total GULP energy -267479.150060 kJ/mol
# GULP energy per Si atom -5572.482293 kJ/mol
# Density = 1.799453 g / cm^3
# Si number density = 18.035581 Si / 1000 Ang^3
#
#
#
# Elastic Constant Matrix: (Units=GPa)
#
#
# Indices 1 2 3 4 5 6 
#
# 1 77.3665 4.8670 9.4628 0.0000 0.0000 0.0000
# 2 4.8670 26.5238 -1.7685 0.0000 0.0000 0.0000
# 3 9.4628 -1.7685 23.7145 0.0000 0.0000 0.0000
# 4 0.0000 0.0000 0.0000 23.4189 0.0000 0.0000
# 5 0.0000 0.0000 0.0000 0.0000 10.4545 0.0000
# 6 0.0000 0.0000 0.0000 0.0000 0.0000 -34.5038
#
#
#
# Elastic Compliance Matrix: (Units=1/GPa)
#
#
# Indices 1 2 3 4 5 6 
#
# 1 0.013809 -0.002916 -0.005728 0.000000 0.000000 0.000000
# 2 -0.002916 0.038506 0.004035 0.000000 0.000000 0.000000
# 3 -0.005728 0.004035 0.044755 0.000000 0.000000 0.000000
# 4 0.000000 0.000000 0.000000 0.042701 0.000000 0.000000
# 5 0.000000 0.000000 0.000000 0.000000 0.095653 0.000000
# 6 0.000000 0.000000 0.000000 0.000000 0.000000 -0.028982
#
#
# Mechanical properties :
#
#
# Convention : Reuss Voigt Hill
#
# Bulk Modulus (GPa) = 11.38264 16.96970 14.17617
# Shear Modulus (GPa) = 20.41293 7.54349 13.97821
#
# Velocity S-wave (km/s) = 3.36789 2.04735 2.78697
# Velocity P-wave (km/s) = 4.63126 3.87534 4.27006
#
# Compressibility (1/GPa) = 0.08785310
#
# Stress axis : x y z
#
# Youngs Moduli (GPa) = 72.41396 25.96995 22.34403
#
# Poissons Ratio (x) = 0.07573 0.12798
# Poissons Ratio (y) = 0.21115 -0.09016
# Poissons Ratio (z) = 0.41477 -0.10479
#
# Static dielectric constant tensor:
#      x y z
#    x 1.728650 0.000000 0.000000 
#    y 0.000000 1.611770 0.000000 
#    z 0.000000 0.000000 1.587210 
# 
# From -- ./inp_files/34764.got.cif
#   From: 2010.05.17/outbox.cif.g08.bks.cpg/sg71_18_cif.got.tgz:34764.got - 2010.06.03 16:22:01.
