data_PCOD9517959
_publ_section_title
;
Structure prediction by ZEFSAII (Michael W. Deem and Ramdas Pophale) SiO2 
 PCOD9517959
Probable space group: I M M M
;
_chemical_formula_sum "Si O2"
_cell_formula_units_Z 120
_cell_length_a 20.529303
_cell_length_b 14.503060
_cell_length_c 21.048831
_cell_angle_alpha 90.000000
_cell_angle_beta 90.000000
_cell_angle_gamma 90.000000
_cell_volume 6267.030807
_symmetry_space_group_name_H-M "I M M M"
_symmetry_group_IT_number 71
_symmetry_cell_setting 'orthorhombic'
loop_
_space_group_symop_operation_xyz
x,y,z
-x,-y,z
x,-y,-z
-x,y,-z
-x,-y,-z
x,y,-z
-x,y,z
x,-y,z
1/2+x,1/2+y,1/2+z
1/2-x,1/2-y,1/2+z
1/2+x,1/2-y,1/2-z
1/2-x,1/2+y,1/2-z
1/2-x,1/2-y,1/2-z
1/2+x,1/2+y,1/2-z
1/2-x,1/2+y,1/2+z
1/2+x,1/2-y,1/2+z
loop_
_atom_site_type_symbol
_atom_site_label
_atom_site_fract_x
_atom_site_fract_y
_atom_site_fract_z
Si Si1 0.422371 0.291235 0.877431
Si Si2 0.897851 0.892973 0.246932
Si Si3 0.866598 0.392553 0.205885
Si Si4 0.075674 0.598166 0.660518
Si Si5 0.425506 0.729404 0.627702
Si Si6 0.420106 0.395099 0.000000
Si Si7 0.189781 0.111031 0.072861
Si Si8 0.749869 0.108304 0.795316
O O1 0.500000 0.281160 0.886857
O O2 0.414005 0.350485 0.814508
O O3 0.394021 0.189345 0.868622
O O4 0.396033 0.343731 0.937833
O O5 0.928668 0.832274 0.191614
O O6 0.820559 0.885513 0.236134
O O7 0.916665 0.000000 0.242746
O O8 0.856349 0.500000 0.186044
O O9 0.918834 0.394079 0.263387
O O10 0.891486 0.324885 0.150904
O O11 0.803503 0.354227 0.245267
O O12 0.104651 0.500000 0.640691
O O13 0.000000 0.596176 0.643617
O O14 0.500000 0.742744 0.604494
O O15 0.376165 0.670834 0.583421
O O16 0.399353 0.500000 0.000000
O O17 0.500000 0.395047 0.000000
O O18 0.237789 0.138993 0.131481
O O19 0.176750 0.000000 0.081636
O O20 0.212809 0.123386 0.000000
O O21 0.732551 0.000000 0.799274
#
# Coordination Sequence:
#
# PCOD9517959 Si02
#       8
#    16  16  16  16  16   8  16  16
#     4  10  18  30  46  67  95 129 167 207 252 308
#     4  10  19  30  46  72 103 131 163 211 265 314
#     4  10  19  33  54  77 104 137 174 222 274 316
#     4   9  17  30  48  70  97 128 164 211 264 312
#     4  11  21  32  50  81 112 139 178 222 270 333
#     4   9  18  30  45  65  91 129 170 202 240 300
#     4   9  19  36  56  79 112 150 182 220 272 329
#     4   8  17  33  53  78 103 134 176 219 264 321
#
# _framework density 19.147824
#
# number of rings (size 3 to 8) (size 9 to 14) (size 15 to 20)
#    0.000    2.467    1.333    2.400    0.000    5.600 
#    0.000    1.000    1.467    2.400    0.000    0.933 
#    0.000    0.000    0.000    0.267    0.000    0.000 
#
# Total GULP energy -334192.451610 kJ/mol
# GULP energy per Si atom -5569.874194 kJ/mol
# Density = 1.910424 g / cm^3
# Si number density = 19.147824 Si / 1000 Ang^3
#
#
#
# Elastic Constant Matrix: (Units=GPa)
#
#
# Indices 1 2 3 4 5 6 
#
# 1 78.4732 3.5173 -18.0068 0.0000 0.0000 0.0000
# 2 3.5173 99.0202 11.9802 0.0000 0.0000 0.0000
# 3 -18.0068 11.9802 35.3362 0.0000 0.0000 0.0000
# 4 0.0000 0.0000 0.0000 21.4404 0.0000 0.0000
# 5 0.0000 0.0000 0.0000 0.0000 5.8762 0.0000
# 6 0.0000 0.0000 0.0000 0.0000 0.0000 14.5682
#
#
#
# Elastic Compliance Matrix: (Units=1/GPa)
#
#
# Indices 1 2 3 4 5 6 
#
# 1 0.014637 -0.001483 0.007961 0.000000 0.000000 0.000000
# 2 -0.001483 0.010681 -0.004377 0.000000 0.000000 0.000000
# 3 0.007961 -0.004377 0.033841 0.000000 0.000000 0.000000
# 4 0.000000 0.000000 0.000000 0.046641 0.000000 0.000000
# 5 0.000000 0.000000 0.000000 0.000000 0.170179 0.000000
# 6 0.000000 0.000000 0.000000 0.000000 0.000000 0.068643
#
#
# Mechanical properties :
#
#
# Convention : Reuss Voigt Hill
#
# Bulk Modulus (GPa) = 15.78266 23.09012 19.43639
# Shear Modulus (GPa) = 13.82979 22.73289 18.28134
#
# Velocity S-wave (km/s) = 2.69041 3.44936 3.09325
# Velocity P-wave (km/s) = 4.23220 5.28670 4.78856
#
# Compressibility (1/GPa) = 0.06336067
#
# Stress axis : x y z
#
# Youngs Moduli (GPa) = 68.32221 93.62239 29.55030
#
# Poissons Ratio (x) = 0.13885 -0.23526
# Poissons Ratio (y) = 0.10133 0.12934
# Poissons Ratio (z) = -0.54394 0.40979
#
# Static dielectric constant tensor:
#      x y z
#    x 1.716780 0.000000 0.000000 
#    y 0.000000 1.713740 0.000000 
#    z 0.000000 0.000000 1.639580 
# 
# From -- ./inp_files/55139.got.cif
#   From: 2010.05.17/outbox.cif.g08.bks.cpg/sg71_28_cif.got.tgz:55139.got - 2010.06.03 16:22:01.
