data_PCOD9517979
_publ_section_title
;
Structure prediction by ZEFSAII (Michael W. Deem and Ramdas Pophale) SiO2 
 PCOD9517979
Probable space group: I M M M
;
_chemical_formula_sum "Si O2"
_cell_formula_units_Z 88
_cell_length_a 23.161215
_cell_length_b 17.174149
_cell_length_c 15.717774
_cell_angle_alpha 90.000000
_cell_angle_beta 90.000000
_cell_angle_gamma 90.000000
_cell_volume 6252.124310
_symmetry_space_group_name_H-M "I M M M"
_symmetry_group_IT_number 71
_symmetry_cell_setting 'orthorhombic'
loop_
_space_group_symop_operation_xyz
x,y,z
-x,-y,z
x,-y,-z
-x,y,-z
-x,-y,-z
x,y,-z
-x,y,z
x,-y,z
1/2+x,1/2+y,1/2+z
1/2-x,1/2-y,1/2+z
1/2+x,1/2-y,1/2-z
1/2-x,1/2+y,1/2-z
1/2-x,1/2-y,1/2-z
1/2+x,1/2+y,1/2-z
1/2-x,1/2+y,1/2+z
1/2+x,1/2-y,1/2+z
loop_
_atom_site_type_symbol
_atom_site_label
_atom_site_fract_x
_atom_site_fract_y
_atom_site_fract_z
Si Si1 0.126961 0.093371 0.324532
Si Si2 0.249884 0.091533 0.599992
Si Si3 0.070045 0.184669 0.168673
Si Si4 0.930354 0.912246 0.000000
Si Si5 0.127186 0.339799 0.897636
Si Si6 0.934296 0.094368 0.500000
Si Si7 0.934091 0.500000 0.103197
O O1 0.195132 0.106067 0.340077
O O2 0.098049 0.141391 0.249002
O O3 0.097141 0.116889 0.413388
O O4 0.118103 0.000000 0.311721
O O5 0.233005 0.100146 0.500000
O O6 0.304678 0.146255 0.616203
O O7 0.266828 0.000000 0.608974
O O8 0.084932 0.133955 0.084991
O O9 0.098178 0.268738 0.151641
O O10 0.000000 0.189419 0.176083
O O11 0.000000 0.916639 0.000000
O O12 0.907282 0.000000 0.000000
O O13 0.097159 0.420722 0.871566
O O14 0.118308 0.328935 0.000000
O O15 0.000000 0.121696 0.500000
O O16 0.934266 0.000000 0.500000
O O17 0.000000 0.500000 0.131878
O O18 0.933411 0.500000 0.000000
#
# Coordination Sequence:
#
# PCOD9517979 Si02
#       7
#    16  16  16   8  16   8   8
#     4  10  19  31  48  70  93 126 161 199 238 282
#     4   9  16  30  50  70  94 120 158 196 240 293
#     4  11  21  31  45  68  98 128 163 199 232 280
#     4   9  18  32  45  57  85 131 168 192 218 262
#     4  10  18  30  47  69  94 127 159 196 240 285
#     4   9  16  28  45  66  90 117 152 195 241 282
#     4   9  16  26  44  68  92 121 155 193 242 292
#
# _framework density 14.075215999999999
#
# number of rings (size 3 to 8) (size 9 to 14) (size 15 to 20)
#    0.000    2.273    2.727    1.636    0.000    3.273 
#    0.000    0.000    0.000    0.000    0.000    0.000 
#    0.000    0.727    0.000    3.636    0.000    0.000 
#
# Total GULP energy -245122.787587 kJ/mol
# GULP energy per Si atom -5570.972445 kJ/mol
# Density = 1.404318 g / cm^3
# Si number density = 14.075216 Si / 1000 Ang^3
#
#
#
# Elastic Constant Matrix: (Units=GPa)
#
#
# Indices 1 2 3 4 5 6 
#
# 1 96.0834 57.8068 54.1893 0.0000 0.0000 0.0000
# 2 57.8068 103.5115 56.9923 0.0000 0.0000 0.0000
# 3 54.1893 56.9923 96.2464 0.0000 0.0000 0.0000
# 4 0.0000 0.0000 0.0000 19.1630 0.0000 0.0000
# 5 0.0000 0.0000 0.0000 0.0000 16.9739 0.0000
# 6 0.0000 0.0000 0.0000 0.0000 0.0000 18.5906
#
#
#
# Elastic Compliance Matrix: (Units=1/GPa)
#
#
# Indices 1 2 3 4 5 6 
#
# 1 0.017828 -0.006572 -0.006146 0.000000 0.000000 0.000000
# 2 -0.006572 0.016757 -0.006222 0.000000 0.000000 0.000000
# 3 -0.006146 -0.006222 0.017535 0.000000 0.000000 0.000000
# 4 0.000000 0.000000 0.000000 0.052184 0.000000 0.000000
# 5 0.000000 0.000000 0.000000 0.000000 0.058914 0.000000
# 6 0.000000 0.000000 0.000000 0.000000 0.000000 0.053791
#
#
# Mechanical properties :
#
#
# Convention : Reuss Voigt Hill
#
# Bulk Modulus (GPa) = 70.23007 70.42422 70.32714
# Shear Modulus (GPa) = 19.25779 19.40236 19.33008
#
# Velocity S-wave (km/s) = 3.70294 3.71681 3.70988
# Velocity P-wave (km/s) = 8.26359 8.28024 8.27192
#
# Compressibility (1/GPa) = 0.01423892
#
# Stress axis : x y z
#
# Youngs Moduli (GPa) = 56.09214 59.67637 57.02958
#
# Poissons Ratio (x) = 0.39221 0.35049
# Poissons Ratio (y) = 0.36865 0.35486
# Poissons Ratio (z) = 0.34473 0.37133
#
# Static dielectric constant tensor:
#      x y z
#    x 1.474580 0.000000 0.000000 
#    y 0.000000 1.453700 0.000000 
#    z 0.000000 0.000000 1.443690 
# 
# From -- ./inp_files/34717.got.cif
#   From: 2010.05.17/outbox.cif.g08.bks.cpg/sg71_18_cif.got.tgz:34717.got - 2010.06.03 16:22:01.
