data_PCOD9517432
_publ_section_title
;
Structure prediction by ZEFSAII (Michael W. Deem and Ramdas Pophale) SiO2 
 PCOD9517432
Probable space group: I M M M
;
_chemical_formula_sum "Si O2"
_cell_formula_units_Z 104
_cell_length_a 26.647308
_cell_length_b 19.330065
_cell_length_c 13.548134
_cell_angle_alpha 90.000000
_cell_angle_beta 90.000000
_cell_angle_gamma 90.000000
_cell_volume 6978.565186
_symmetry_space_group_name_H-M "I M M M"
_symmetry_group_IT_number 71
_symmetry_cell_setting 'orthorhombic'
loop_
_space_group_symop_operation_xyz
x,y,z
-x,-y,z
x,-y,-z
-x,y,-z
-x,-y,-z
x,y,-z
-x,y,z
x,-y,z
1/2+x,1/2+y,1/2+z
1/2-x,1/2-y,1/2+z
1/2+x,1/2-y,1/2-z
1/2-x,1/2+y,1/2-z
1/2-x,1/2-y,1/2-z
1/2+x,1/2+y,1/2-z
1/2-x,1/2+y,1/2+z
1/2+x,1/2-y,1/2+z
loop_
_atom_site_type_symbol
_atom_site_label
_atom_site_fract_x
_atom_site_fract_y
_atom_site_fract_z
Si Si1 0.350921 0.917660 0.307061
Si Si2 0.000000 0.078632 0.880164
Si Si3 0.292312 0.918028 0.888805
Si Si4 0.558350 0.828288 0.618654
Si Si5 0.094377 0.171644 0.881170
Si Si6 0.297484 0.671813 0.696327
Si Si7 0.265400 0.179416 0.385269
O O1 0.334169 0.903972 0.193897
O O2 0.403515 0.882200 0.332747
O O3 0.306891 0.880401 0.369699
O O4 0.351974 0.000000 0.323833
O O5 0.049496 0.120777 0.852040
O O6 0.000000 0.000000 0.844751
O O7 0.000000 0.077473 0.000000
O O8 0.242588 0.876127 0.860015
O O9 0.281575 0.000000 0.884462
O O10 0.307900 0.900367 0.000000
O O11 0.560978 0.837000 0.500000
O O12 0.500000 0.835892 0.647694
O O13 0.577356 0.750383 0.639801
O O14 0.145670 0.153025 0.826785
O O15 0.102229 0.166947 0.000000
O O16 0.289939 0.749316 0.654074
O O17 0.281048 0.668231 0.810787
O O18 0.252246 0.185304 0.500000
#
# Coordination Sequence:
#
# PCOD9517432 Si02
#       7
#    16   8  16  16  16  16  16
#     4  10  20  32  48  70  94 124 159 192 231 279
#     4   9  18  30  46  70  96 124 156 189 230 280
#     4   9  18  32  48  69  98 126 152 187 232 279
#     4  10  19  31  47  66  91 123 155 192 239 282
#     4  10  17  29  47  67  95 125 152 187 233 281
#     4  10  19  29  47  71  93 124 160 190 225 277
#     4  10  19  31  46  68  97 125 155 192 233 274
#
# _framework density 14.902775999999999
#
# number of rings (size 3 to 8) (size 9 to 14) (size 15 to 20)
#    0.000    2.231    2.308    1.846    0.000    2.154 
#    0.000    2.308    0.000    0.462    0.000    2.692 
#    0.000    0.615    0.000    0.000    0.000    0.000 
#
# Total GULP energy -289881.523570 kJ/mol
# GULP energy per Si atom -5574.644684 kJ/mol
# Density = 1.486886 g / cm^3
# Si number density = 14.902776 Si / 1000 Ang^3
#
#
#
# Elastic Constant Matrix: (Units=GPa)
#
#
# Indices 1 2 3 4 5 6 
#
# 1 133.3200 57.1722 43.5363 0.0000 0.0000 0.0000
# 2 57.1722 77.5457 34.1691 0.0000 0.0000 0.0000
# 3 43.5363 34.1691 83.9079 0.0000 0.0000 0.0000
# 4 0.0000 0.0000 0.0000 15.1240 0.0000 0.0000
# 5 0.0000 0.0000 0.0000 0.0000 18.1717 0.0000
# 6 0.0000 0.0000 0.0000 0.0000 0.0000 25.9430
#
#
#
# Elastic Compliance Matrix: (Units=1/GPa)
#
#
# Indices 1 2 3 4 5 6 
#
# 1 0.011590 -0.007184 -0.003088 0.000000 0.000000 0.000000
# 2 -0.007184 0.020169 -0.004486 0.000000 0.000000 0.000000
# 3 -0.003088 -0.004486 0.015347 0.000000 0.000000 0.000000
# 4 0.000000 0.000000 0.000000 0.066120 0.000000 0.000000
# 5 0.000000 0.000000 0.000000 0.000000 0.055031 0.000000
# 6 0.000000 0.000000 0.000000 0.000000 0.000000 0.038546
#
#
# Mechanical properties :
#
#
# Convention : Reuss Voigt Hill
#
# Bulk Modulus (GPa) = 56.85088 62.72541 59.78814
# Shear Modulus (GPa) = 20.64568 22.50747 21.57657
#
# Velocity S-wave (km/s) = 3.72608 3.89046 3.80915
# Velocity P-wave (km/s) = 7.53274 7.89696 7.71700
#
# Compressibility (1/GPa) = 0.01758988
#
# Stress axis : x y z
#
# Youngs Moduli (GPa) = 86.28097 49.58123 65.16075
#
# Poissons Ratio (x) = 0.35621 0.20121
# Poissons Ratio (y) = 0.61987 0.29228
# Poissons Ratio (z) = 0.26643 0.22240
#
# Static dielectric constant tensor:
#      x y z
#    x 1.475240 0.000000 0.000000 
#    y 0.000000 1.501420 0.000000 
#    z 0.000000 0.000000 1.492830 
# 
# From -- ./inp_files/40484.got.cif
#   From: 2010.05.17/outbox.cif.g08.bks.cpg/sg71_21_cif.got.tgz:40484.got - 2010.06.03 16:22:01.
