data_PCOD9517963
_publ_section_title
;
Structure prediction by ZEFSAII (Michael W. Deem and Ramdas Pophale) SiO2 
 PCOD9517963
Probable space group: I M M M
;
_chemical_formula_sum "Si O2"
_cell_formula_units_Z 120
_cell_length_a 28.992531
_cell_length_b 9.050581
_cell_length_c 30.469672
_cell_angle_alpha 90.000000
_cell_angle_beta 90.000000
_cell_angle_gamma 90.000000
_cell_volume 7995.219087
_symmetry_space_group_name_H-M "I M M M"
_symmetry_group_IT_number 71
_symmetry_cell_setting 'orthorhombic'
loop_
_space_group_symop_operation_xyz
x,y,z
-x,-y,z
x,-y,-z
-x,y,-z
-x,-y,-z
x,y,-z
-x,y,z
x,-y,z
1/2+x,1/2+y,1/2+z
1/2-x,1/2-y,1/2+z
1/2+x,1/2-y,1/2-z
1/2-x,1/2+y,1/2-z
1/2-x,1/2-y,1/2-z
1/2+x,1/2+y,1/2-z
1/2-x,1/2+y,1/2+z
1/2+x,1/2-y,1/2+z
loop_
_atom_site_type_symbol
_atom_site_label
_atom_site_fract_x
_atom_site_fract_y
_atom_site_fract_z
Si Si1 0.943975 0.829389 0.790776
Si Si2 0.000000 0.676352 0.447810
Si Si3 0.376367 0.321227 0.551314
Si Si4 0.412930 0.679200 0.899464
Si Si5 0.726264 0.329620 0.553299
Si Si6 0.054254 0.323872 0.881026
Si Si7 0.053339 0.179622 0.305326
Si Si8 0.320208 0.322572 0.050999
O O1 0.931065 0.734880 0.833033
O O2 0.929187 0.772644 0.742678
O O3 0.000000 0.830209 0.788569
O O4 0.929266 0.000000 0.796730
O O5 0.045050 0.748887 0.426012
O O6 0.000000 0.500000 0.440616
O O7 0.000000 0.703855 0.500000
O O8 0.382608 0.281109 0.500000
O O9 0.377846 0.500000 0.553735
O O10 0.324674 0.274855 0.566095
O O11 0.414912 0.251258 0.581866
O O12 0.417029 0.500000 0.902424
O O13 0.418301 0.721437 0.848355
O O14 0.364190 0.723374 0.920464
O O15 0.725533 0.327461 0.500000
O O16 0.730980 0.500000 0.566969
O O17 0.771343 0.240387 0.566985
O O18 0.058471 0.500000 0.882981
O O19 0.000000 0.285544 0.886740
O O20 0.000000 0.227346 0.311446
O O21 0.052556 0.000000 0.303362
O O22 0.317983 0.500000 0.051656
O O23 0.326977 0.276690 0.000000
#
# Coordination Sequence:
#
# PCOD9517963 Si02
#       8
#    16   8  16  16  16  16  16  16
#     4   8  14  26  45  64  83 111 148 185 218 254
#     4  11  23  33  39  55  87 123 157 189 224 271
#     4   9  18  32  49  68  89 117 154 186 212 249
#     4  10  18  30  47  64  85 115 151 188 226 271
#     4   8  15  29  47  64  83 110 144 183 223 258
#     4  10  20  31  43  65  97 126 149 173 210 259
#     4   8  13  24  44  66  83 106 145 189 225 259
#     4   9  17  27  41  64  89 113 145 182 221 267
#
# _framework density 15.00897
#
# number of rings (size 3 to 8) (size 9 to 14) (size 15 to 20)
#    0.000    3.000    0.667    2.600    0.000    3.467 
#    0.000    4.667    0.000    0.000    0.000    0.933 
#    0.000    0.000    0.000    0.000    0.000    0.000 
#
# Total GULP energy -334036.484527 kJ/mol
# GULP energy per Si atom -5567.274742 kJ/mol
# Density = 1.497481 g / cm^3
# Si number density = 15.008970 Si / 1000 Ang^3
#
#
#
# Elastic Constant Matrix: (Units=GPa)
#
#
# Indices 1 2 3 4 5 6 
#
# 1 105.8021 35.7153 71.7024 0.0000 0.0000 0.0000
# 2 35.7153 21.2674 34.1772 0.0000 0.0000 0.0000
# 3 71.7024 34.1772 112.7992 0.0000 0.0000 0.0000
# 4 0.0000 0.0000 0.0000 12.1450 0.0000 0.0000
# 5 0.0000 0.0000 0.0000 0.0000 4.1381 0.0000
# 6 0.0000 0.0000 0.0000 0.0000 0.0000 21.4008
#
#
#
# Elastic Compliance Matrix: (Units=1/GPa)
#
#
# Indices 1 2 3 4 5 6 
#
# 1 0.023648 -0.030319 -0.005846 0.000000 0.000000 0.000000
# 2 -0.030319 0.130513 -0.020272 0.000000 0.000000 0.000000
# 3 -0.005846 -0.020272 0.018724 0.000000 0.000000 0.000000
# 4 0.000000 0.000000 0.000000 0.082339 0.000000 0.000000
# 5 0.000000 0.000000 0.000000 0.000000 0.241657 0.000000
# 6 0.000000 0.000000 0.000000 0.000000 0.000000 0.046727
#
#
# Mechanical properties :
#
#
# Convention : Reuss Voigt Hill
#
# Bulk Modulus (GPa) = 16.66337 58.11762 37.39049
# Shear Modulus (GPa) = 7.39115 14.08836 10.73976
#
# Velocity S-wave (km/s) = 2.22153 3.06708 2.67789
# Velocity P-wave (km/s) = 4.20792 7.16580 5.87602
#
# Compressibility (1/GPa) = 0.06001188
#
# Stress axis : x y z
#
# Youngs Moduli (GPa) = 42.28700 7.66205 53.40869
#
# Poissons Ratio (x) = 0.23230 0.31222
# Poissons Ratio (y) = 1.28208 1.08270
# Poissons Ratio (z) = 0.24720 0.15533
#
# Static dielectric constant tensor:
#      x y z
#    x 1.485610 0.000000 0.000000 
#    y 0.000000 1.501520 0.000000 
#    z 0.000000 0.000000 1.503820 
# 
# From -- ./inp_files/67162.got.cif
#   From: 2010.05.17/outbox.cif.g08.bks.cpg/sg71_34_cif.got.tgz:67162.got - 2010.06.03 16:22:01.
