data_PCOD9517086
_publ_section_title
;
Structure prediction by ZEFSAII (Michael W. Deem and Ramdas Pophale) SiO2 
 PCOD9517086
Probable space group: F D D D
;
_chemical_formula_sum "Si O2"
_cell_formula_units_Z 48
_cell_length_a 13.110785
_cell_length_b 4.782776
_cell_length_c 25.843915
_cell_angle_alpha 90.000000
_cell_angle_beta 90.000000
_cell_angle_gamma 90.000000
_cell_volume 1620.567186
_symmetry_space_group_name_H-M "F D D D"
_symmetry_group_IT_number 70
_space_group.IT_coordinate_system_code '2'
_symmetry_cell_setting 'orthorhombic'
loop_
_space_group_symop_operation_xyz
x,y,z
1/4-x,1/4-y,z
x,1/4-y,1/4-z
1/4-x,y,1/4-z
-x,-y,-z
3/4+x,3/4+y,-z
-x,3/4+y,3/4+z
3/4+x,-y,3/4+z
x,1/2+y,1/2+z
1/4-x,3/4-y,1/2+z
x,3/4-y,3/4-z
1/4-x,1/2+y,3/4-z
-x,1/2-y,1/2-z
3/4+x,1/4+y,1/2-z
-x,1/4+y,1/4+z
3/4+x,1/2-y,1/4+z
1/2+x,y,1/2+z
3/4-x,1/4-y,1/2+z
1/2+x,1/4-y,3/4-z
3/4-x,y,3/4-z
1/2-x,-y,1/2-z
1/4+x,3/4+y,1/2-z
1/2-x,3/4+y,1/4+z
1/4+x,-y,1/4+z
1/2+x,1/2+y,z
3/4-x,3/4-y,z
1/2+x,3/4-y,1/4-z
3/4-x,1/2+y,1/4-z
1/2-x,1/2-y,-z
1/4+x,1/4+y,-z
1/2-x,1/4+y,3/4+z
1/4+x,1/2-y,3/4+z
loop_
_atom_site_type_symbol
_atom_site_label
_atom_site_fract_x
_atom_site_fract_y
_atom_site_fract_z
Si Si1 0.699499 0.388001 0.697601
Si Si2 0.376260 0.125000 0.625000
O O1 0.625000 0.625000 0.679006
O O2 0.750000 0.500000 0.750000
O O3 0.788057 0.361880 0.654100
O O4 0.625000 0.125000 0.702974
O O5 0.375000 0.375000 0.670664
#
# Coordination Sequence:
#
# PCOD9517086 Si02
#       2
#    32  16
#     4  12  25  45  71 104 143 190 241 301 364 433
#     4  12  25  44  69 102 142 190 242 300 363 434
#
# _framework density 29.619257000000001
#
# number of rings (size 3 to 8) (size 9 to 14) (size 15 to 20)
#    0.000    0.000    0.000   11.000    0.000    2.667 
#    0.000    0.000    0.000    0.000    0.000    0.000 
#    0.000    0.000    0.000    0.000    0.000    0.000 
#
# Total GULP energy -67087.411171 kJ/mol
# GULP energy per Si atom -5590.617598 kJ/mol
# Density = 2.955184 g / cm^3
# Si number density = 29.619257 Si / 1000 Ang^3
#
#
#
# Elastic Constant Matrix: (Units=GPa)
#
#
# Indices 1 2 3 4 5 6 
#
# 1 312.6818 106.1307 147.7460 0.0000 0.0000 0.0000
# 2 106.1307 416.8818 58.4135 0.0000 0.0000 0.0000
# 3 147.7460 58.4135 238.1258 0.0000 0.0000 0.0000
# 4 0.0000 0.0000 0.0000 44.7669 0.0000 0.0000
# 5 0.0000 0.0000 0.0000 0.0000 173.0921 0.0000
# 6 0.0000 0.0000 0.0000 0.0000 0.0000 88.0578
#
#
#
# Elastic Compliance Matrix: (Units=1/GPa)
#
#
# Indices 1 2 3 4 5 6 
#
# 1 0.004787 -0.000831 -0.002767 0.000000 0.000000 0.000000
# 2 -0.000831 0.002628 -0.000129 0.000000 0.000000 0.000000
# 3 -0.002767 -0.000129 0.005948 0.000000 0.000000 0.000000
# 4 0.000000 0.000000 0.000000 0.022338 0.000000 0.000000
# 5 0.000000 0.000000 0.000000 0.000000 0.005777 0.000000
# 6 0.000000 0.000000 0.000000 0.000000 0.000000 0.011356
#
#
# Mechanical properties :
#
#
# Convention : Reuss Voigt Hill
#
# Bulk Modulus (GPa) = 169.20381 176.91887 173.06134
# Shear Modulus (GPa) = 80.31043 104.87665 92.59354
#
# Velocity S-wave (km/s) = 5.21278 5.95694 5.59724
# Velocity P-wave (km/s) = 9.66856 10.35250 10.01637
#
# Compressibility (1/GPa) = 0.00591003
#
# Stress axis : x y z
#
# Youngs Moduli (GPa) = 208.87896 380.45298 168.13465
#
# Poissons Ratio (x) = 0.31622 0.46515
# Poissons Ratio (y) = 0.17361 0.02170
# Poissons Ratio (z) = 0.57787 0.04911
#
# Static dielectric constant tensor:
#      x y z
#    x 2.234840 0.000000 0.000000 
#    y 0.000000 2.661230 0.000000 
#    z 0.000000 0.000000 2.257730 
# 
# From -- ./inp_files/373.got.cif
#   From: 2010.05.17/outbox.cif.g08.bks.cpg/sg70_1_cif.got.tgz:373.got - 2010.06.03 15:57:51.
