data_PCOD9517751
_publ_section_title
;
Structure prediction by ZEFSAII (Michael W. Deem and Ramdas Pophale) SiO2 
 PCOD9517751
Probable space group: I M M M
;
_chemical_formula_sum "Si O2"
_cell_formula_units_Z 88
_cell_length_a 8.557085
_cell_length_b 31.202570
_cell_length_c 24.965828
_cell_angle_alpha 90.000000
_cell_angle_beta 90.000000
_cell_angle_gamma 90.000000
_cell_volume 6665.952065
_symmetry_space_group_name_H-M "I M M M"
_symmetry_group_IT_number 71
_symmetry_cell_setting 'orthorhombic'
loop_
_space_group_symop_operation_xyz
x,y,z
-x,-y,z
x,-y,-z
-x,y,-z
-x,-y,-z
x,y,-z
-x,y,z
x,-y,z
1/2+x,1/2+y,1/2+z
1/2-x,1/2-y,1/2+z
1/2+x,1/2-y,1/2-z
1/2-x,1/2+y,1/2-z
1/2-x,1/2-y,1/2-z
1/2+x,1/2+y,1/2-z
1/2-x,1/2+y,1/2+z
1/2+x,1/2-y,1/2+z
loop_
_atom_site_type_symbol
_atom_site_label
_atom_site_fract_x
_atom_site_fract_y
_atom_site_fract_z
Si Si1 0.690790 0.248026 0.381884
Si Si2 0.190725 0.000000 0.562655
Si Si3 0.686518 0.408257 0.895427
Si Si4 0.313422 0.161224 0.680997
Si Si5 0.312850 0.293061 0.721824
Si Si6 0.315854 0.759860 0.500000
Si Si7 0.316819 0.137378 0.500000
O O1 0.500000 0.246133 0.384008
O O2 0.739717 0.202070 0.356016
O O3 0.732988 0.285578 0.340077
O O4 0.749752 0.254166 0.442345
O O5 0.240518 0.956823 0.592952
O O6 0.240958 0.000000 0.500000
O O7 0.000000 0.000000 0.561354
O O8 0.500000 0.408632 0.890712
O O9 0.756159 0.382569 0.845486
O O10 0.736289 0.381704 0.947801
O O11 0.500000 0.162390 0.680978
O O12 0.253432 0.169388 0.741156
O O13 0.500000 0.293833 0.724539
O O14 0.250000 0.250000 0.750000
O O15 0.500000 0.747895 0.500000
O O16 0.307456 0.811426 0.500000
O O17 0.500000 0.125793 0.500000
#
# Coordination Sequence:
#
# PCOD9517751 Si02
#       7
#    16   8  16  16  16   8   8
#     4   8  14  23  37  55  76  99 125 154 191 233
#     4   9  18  32  44  56  78 104 126 157 204 253
#     4  11  20  31  45  58  74  99 132 166 203 245
#     4  10  18  29  42  57  75  98 129 166 203 238
#     4   9  16  26  39  57  77 100 128 160 195 234
#     4   9  14  23  38  56  77 102 124 155 197 232
#     4  11  19  28  42  57  78 102 128 162 201 241
#
# _framework density 13.201415000000001
#
# number of rings (size 3 to 8) (size 9 to 14) (size 15 to 20)
#    0.000    2.455    2.727    3.000    0.000    0.000 
#    0.000    2.273    0.000    0.000    0.000    0.000 
#    0.000    0.000    0.000    0.000    0.000    0.909 
#
# Total GULP energy -244962.746057 kJ/mol
# GULP energy per Si atom -5567.335138 kJ/mol
# Density = 1.317137 g / cm^3
# Si number density = 13.201415 Si / 1000 Ang^3
#
#
#
# Elastic Constant Matrix: (Units=GPa)
#
#
# Indices 1 2 3 4 5 6 
#
# 1 27.3929 18.1046 22.1955 0.0000 0.0000 0.0000
# 2 18.1046 60.1636 51.2356 0.0000 0.0000 0.0000
# 3 22.1955 51.2356 115.6932 0.0000 0.0000 0.0000
# 4 0.0000 0.0000 0.0000 18.2927 0.0000 0.0000
# 5 0.0000 0.0000 0.0000 0.0000 15.7818 0.0000
# 6 0.0000 0.0000 0.0000 0.0000 0.0000 12.5859
#
#
#
# Elastic Compliance Matrix: (Units=1/GPa)
#
#
# Indices 1 2 3 4 5 6 
#
# 1 0.046932 -0.010364 -0.004414 0.000000 0.000000 0.000000
# 2 -0.010364 0.028974 -0.010843 0.000000 0.000000 0.000000
# 3 -0.004414 -0.010843 0.014292 0.000000 0.000000 0.000000
# 4 0.000000 0.000000 0.000000 0.054667 0.000000 0.000000
# 5 0.000000 0.000000 0.000000 0.000000 0.063364 0.000000
# 6 0.000000 0.000000 0.000000 0.000000 0.000000 0.079454
#
#
# Mechanical properties :
#
#
# Convention : Reuss Voigt Hill
#
# Bulk Modulus (GPa) = 25.66969 42.92456 34.29713
# Shear Modulus (GPa) = 14.20812 16.77967 15.49389
#
# Velocity S-wave (km/s) = 3.28420 3.56905 3.42958
# Velocity P-wave (km/s) = 5.81963 7.04059 6.45902
#
# Compressibility (1/GPa) = 0.03895644
#
# Stress axis : x y z
#
# Youngs Moduli (GPa) = 21.30735 34.51352 69.96738
#
# Poissons Ratio (x) = 0.35769 0.30885
# Poissons Ratio (y) = 0.22083 0.75867
# Poissons Ratio (z) = 0.09405 0.37424
#
# Static dielectric constant tensor:
#      x y z
#    x 1.449460 0.000000 0.000000 
#    y 0.000000 1.419020 0.000000 
#    z 0.000000 0.000000 1.462340 
# 
# From -- ./inp_files/17193.got.cif
#   From: 2010.05.17/outbox.cif.g08.bks.cpg/sg71_9_cif.got.tgz:17193.got - 2010.06.03 16:22:01.
