data_PCOD9517447
_publ_section_title
;
Structure prediction by ZEFSAII (Michael W. Deem and Ramdas Pophale) SiO2 
 PCOD9517447
Probable space group: I M M M
;
_chemical_formula_sum "Si O2"
_cell_formula_units_Z 88
_cell_length_a 25.212296
_cell_length_b 23.511255
_cell_length_c 8.516063
_cell_angle_alpha 90.000000
_cell_angle_beta 90.000000
_cell_angle_gamma 90.000000
_cell_volume 5048.089832
_symmetry_space_group_name_H-M "I M M M"
_symmetry_group_IT_number 71
_symmetry_cell_setting 'orthorhombic'
loop_
_space_group_symop_operation_xyz
x,y,z
-x,-y,z
x,-y,-z
-x,y,-z
-x,-y,-z
x,y,-z
-x,y,z
x,-y,z
1/2+x,1/2+y,1/2+z
1/2-x,1/2-y,1/2+z
1/2+x,1/2-y,1/2-z
1/2-x,1/2+y,1/2-z
1/2-x,1/2-y,1/2-z
1/2+x,1/2+y,1/2-z
1/2-x,1/2+y,1/2+z
1/2+x,1/2-y,1/2+z
loop_
_atom_site_type_symbol
_atom_site_label
_atom_site_fract_x
_atom_site_fract_y
_atom_site_fract_z
Si Si1 0.438963 0.781036 0.187850
Si Si2 0.263758 0.065929 0.691039
Si Si3 0.060852 0.843576 0.187799
Si Si4 0.438888 0.000000 0.308605
Si Si5 0.144480 0.065953 0.689679
Si Si6 0.125740 0.387535 0.809933
O O1 0.500000 0.791645 0.240463
O O2 0.423689 0.718582 0.248576
O O3 0.401385 0.830602 0.249468
O O4 0.438217 0.780677 0.000000
O O5 0.263659 0.066821 0.500000
O O6 0.204395 0.082158 0.741359
O O7 0.313522 0.103288 0.743162
O O8 0.272953 0.000000 0.735844
O O9 0.100559 0.891871 0.245630
O O10 0.000000 0.854508 0.240507
O O11 0.061259 0.841897 0.000000
O O12 0.408081 0.057001 0.259700
O O13 0.500000 0.000000 0.256517
O O14 0.438829 0.000000 0.500000
O O15 0.143360 0.067982 0.500000
O O16 0.135567 0.000000 0.735501
O O17 0.125265 0.386588 0.000000
#
# Coordination Sequence:
#
# PCOD9517447 Si02
#       6
#    16  16  16   8  16  16
#     4  10  21  36  52  71 100 137 173 211 259 311
#     4   8  14  28  50  76 104 136 172 209 249 293
#     4  10  21  37  56  77 101 130 167 211 256 303
#     4   9  16  24  41  73 105 131 166 213 254 290
#     4   9  18  33  55  81 108 136 166 201 247 305
#     4  10  17  29  51  76 102 134 175 216 252 294
#
# _framework density 17.432337
#
# number of rings (size 3 to 8) (size 9 to 14) (size 15 to 20)
#    0.000    2.636    0.909    2.727    0.000    3.636 
#    0.000    4.091    0.000    2.727    0.000    0.000 
#    0.000    0.000    0.000    0.000    0.000    0.000 
#
# Total GULP energy -245361.066686 kJ/mol
# GULP energy per Si atom -5576.387879 kJ/mol
# Density = 1.739266 g / cm^3
# Si number density = 17.432337 Si / 1000 Ang^3
#
#
#
# Elastic Constant Matrix: (Units=GPa)
#
#
# Indices 1 2 3 4 5 6 
#
# 1 150.8907 120.4259 29.2141 0.0000 0.0000 0.0000
# 2 120.4259 145.4105 30.2141 0.0000 0.0000 0.0000
# 3 29.2141 30.2141 15.9003 0.0000 0.0000 0.0000
# 4 0.0000 0.0000 0.0000 27.0554 0.0000 0.0000
# 5 0.0000 0.0000 0.0000 0.0000 19.1108 0.0000
# 6 0.0000 0.0000 0.0000 0.0000 0.0000 26.0394
#
#
#
# Elastic Compliance Matrix: (Units=1/GPa)
#
#
# Indices 1 2 3 4 5 6 
#
# 1 0.020271 -0.014954 -0.008830 0.000000 0.000000 0.000000
# 2 -0.014954 0.022395 -0.015081 0.000000 0.000000 0.000000
# 3 -0.008830 -0.015081 0.107772 0.000000 0.000000 0.000000
# 4 0.000000 0.000000 0.000000 0.036961 0.000000 0.000000
# 5 0.000000 0.000000 0.000000 0.000000 0.052326 0.000000
# 6 0.000000 0.000000 0.000000 0.000000 0.000000 0.038403
#
#
# Mechanical properties :
#
#
# Convention : Reuss Voigt Hill
#
# Bulk Modulus (GPa) = 13.75325 74.65663 44.20494
# Shear Modulus (GPa) = 13.15462 23.26427 18.20945
#
# Velocity S-wave (km/s) = 2.75000 3.65711 3.23550
# Velocity P-wave (km/s) = 4.24146 7.79436 6.27463
#
# Compressibility (1/GPa) = 0.07271006
#
# Stress axis : x y z
#
# Youngs Moduli (GPa) = 49.33077 44.65319 9.27882
#
# Poissons Ratio (x) = 0.66772 0.08193
# Poissons Ratio (y) = 0.73767 0.13993
# Poissons Ratio (z) = 0.43559 0.67340
#
# Static dielectric constant tensor:
#      x y z
#    x 1.604800 0.000000 0.000000 
#    y 0.000000 1.553320 0.000000 
#    z 0.000000 0.000000 1.601190 
# 
# From -- ./inp_files/12505.got.cif
#   From: 2010.05.17/outbox.cif.g08.bks.cpg/sg71_7_cif.got.tgz:12505.got - 2010.06.03 16:22:01.
