data_PCOD9517982
_publ_section_title
;
Structure prediction by ZEFSAII (Michael W. Deem and Ramdas Pophale) SiO2 
 PCOD9517982
Probable space group: I M M M
;
_chemical_formula_sum "Si O2"
_cell_formula_units_Z 72
_cell_length_a 21.158950
_cell_length_b 7.333662
_cell_length_c 20.485920
_cell_angle_alpha 90.000000
_cell_angle_beta 90.000000
_cell_angle_gamma 90.000000
_cell_volume 3178.853215
_symmetry_space_group_name_H-M "I M M M"
_symmetry_group_IT_number 71
_symmetry_cell_setting 'orthorhombic'
loop_
_space_group_symop_operation_xyz
x,y,z
-x,-y,z
x,-y,-z
-x,y,-z
-x,-y,-z
x,y,-z
-x,y,z
x,-y,z
1/2+x,1/2+y,1/2+z
1/2-x,1/2-y,1/2+z
1/2+x,1/2-y,1/2-z
1/2-x,1/2+y,1/2-z
1/2-x,1/2-y,1/2-z
1/2+x,1/2+y,1/2-z
1/2-x,1/2+y,1/2+z
1/2+x,1/2-y,1/2+z
loop_
_atom_site_type_symbol
_atom_site_label
_atom_site_fract_x
_atom_site_fract_y
_atom_site_fract_z
Si Si1 0.861009 0.777402 0.074259
Si Si2 0.500000 0.290282 0.612007
Si Si3 0.074791 0.294133 0.500000
Si Si4 0.500000 0.779220 0.764709
Si Si5 0.612566 0.776269 0.140116
Si Si6 0.747945 0.717134 0.672810
O O1 0.932786 0.713512 0.088166
O O2 0.811379 0.714868 0.129897
O O3 0.862128 0.000000 0.077171
O O4 0.842322 0.728264 0.000000
O O5 0.500000 0.500000 0.589236
O O6 0.500000 0.285501 0.690565
O O7 0.102748 0.500000 0.500000
O O8 0.092756 0.211667 0.568745
O O9 0.000000 0.309388 0.500000
O O10 0.437658 0.720504 0.804721
O O11 0.500000 0.000000 0.762815
O O12 0.683916 0.715681 0.149984
O O13 0.610331 0.000000 0.141023
O O14 0.747336 0.500000 0.663339
O O15 0.750000 0.750000 0.750000
#
# Coordination Sequence:
#
# PCOD9517982 Si02
#       6
#    16   8   8   8  16  16
#     4   9  18  32  51  74  96 122 162 207 243 277
#     4  10  19  32  51  71  93 123 160 200 241 280
#     4   9  14  24  42  68  98 121 149 195 240 278
#     4  10  18  30  47  71 100 127 154 188 234 288
#     4   9  17  27  44  70  97 123 154 194 238 279
#     4  10  20  33  50  73 100 128 159 197 241 286
#
# _framework density 22.649678999999999
#
# number of rings (size 3 to 8) (size 9 to 14) (size 15 to 20)
#    0.000    2.556    1.111    1.667    1.556    1.333 
#    0.000    0.000    0.000    3.333    0.000    3.111 
#    0.000    0.000    0.000    0.000    0.000    0.000 
#
# Total GULP energy -200987.728242 kJ/mol
# GULP energy per Si atom -5582.992451 kJ/mol
# Density = 2.259813 g / cm^3
# Si number density = 22.649679 Si / 1000 Ang^3
#
#
#
# Elastic Constant Matrix: (Units=GPa)
#
#
# Indices 1 2 3 4 5 6 
#
# 1 180.6855 7.2038 85.9560 0.0000 0.0000 0.0000
# 2 7.2038 88.0520 -7.5624 0.0000 0.0000 0.0000
# 3 85.9560 -7.5624 168.1898 0.0000 0.0000 0.0000
# 4 0.0000 0.0000 0.0000 21.3441 0.0000 0.0000
# 5 0.0000 0.0000 0.0000 0.0000 6.6737 0.0000
# 6 0.0000 0.0000 0.0000 0.0000 0.0000 -16.5924
#
#
#
# Elastic Compliance Matrix: (Units=1/GPa)
#
#
# Indices 1 2 3 4 5 6 
#
# 1 0.007388 -0.000932 -0.003818 0.000000 0.000000 0.000000
# 2 -0.000932 0.011519 0.000994 0.000000 0.000000 0.000000
# 3 -0.003818 0.000994 0.007941 0.000000 0.000000 0.000000
# 4 0.000000 0.000000 0.000000 0.046851 0.000000 0.000000
# 5 0.000000 0.000000 0.000000 0.000000 0.149842 0.000000
# 6 0.000000 0.000000 0.000000 0.000000 0.000000 -0.060269
#
#
# Mechanical properties :
#
#
# Convention : Reuss Voigt Hill
#
# Bulk Modulus (GPa) = 51.71477 67.56911 59.64194
# Shear Modulus (GPa) = 28.21209 25.70707 26.95958
#
# Velocity S-wave (km/s) = 3.53311 3.37261 3.45379
# Velocity P-wave (km/s) = 6.28696 6.71290 6.50342
#
# Compressibility (1/GPa) = 0.01933684
#
# Stress axis : x y z
#
# Youngs Moduli (GPa) = 135.35957 86.81607 125.92265
#
# Poissons Ratio (x) = 0.08094 0.48071
# Poissons Ratio (y) = 0.12619 -0.12521
# Poissons Ratio (z) = 0.51674 -0.08633
#
# Static dielectric constant tensor:
#      x y z
#    x 1.776070 0.000000 0.000000 
#    y 0.000000 1.907970 0.000000 
#    z 0.000000 0.000000 1.782090 
# 
# From -- ./inp_files/23754.got.cif
#   From: 2010.05.17/outbox.cif.g08.bks.cpg/sg71_12_cif.got.tgz:23754.got - 2010.06.03 16:22:01.
