data_PCOD9517132
_publ_section_title
;
Structure prediction by ZEFSAII (Michael W. Deem and Ramdas Pophale) SiO2 
 PCOD9517132
Probable space group: F D D D
;
_chemical_formula_sum "Si O2"
_cell_formula_units_Z 104
_cell_length_a 10.264244
_cell_length_b 16.447292
_cell_length_c 27.240979
_cell_angle_alpha 90.000000
_cell_angle_beta 90.000000
_cell_angle_gamma 90.000000
_cell_volume 4598.795330
_symmetry_space_group_name_H-M "F D D D"
_symmetry_group_IT_number 70
_space_group.IT_coordinate_system_code '2'
_symmetry_cell_setting 'orthorhombic'
loop_
_space_group_symop_operation_xyz
x,y,z
1/4-x,1/4-y,z
x,1/4-y,1/4-z
1/4-x,y,1/4-z
-x,-y,-z
3/4+x,3/4+y,-z
-x,3/4+y,3/4+z
3/4+x,-y,3/4+z
x,1/2+y,1/2+z
1/4-x,3/4-y,1/2+z
x,3/4-y,3/4-z
1/4-x,1/2+y,3/4-z
-x,1/2-y,1/2-z
3/4+x,1/4+y,1/2-z
-x,1/4+y,1/4+z
3/4+x,1/2-y,1/4+z
1/2+x,y,1/2+z
3/4-x,1/4-y,1/2+z
1/2+x,1/4-y,3/4-z
3/4-x,y,3/4-z
1/2-x,-y,1/2-z
1/4+x,3/4+y,1/2-z
1/2-x,3/4+y,1/4+z
1/4+x,-y,1/4+z
1/2+x,1/2+y,z
3/4-x,3/4-y,z
1/2+x,3/4-y,1/4-z
3/4-x,1/2+y,1/4-z
1/2-x,1/2-y,-z
1/4+x,1/4+y,-z
1/2-x,1/4+y,3/4+z
1/4+x,1/2-y,3/4+z
loop_
_atom_site_type_symbol
_atom_site_label
_atom_site_fract_x
_atom_site_fract_y
_atom_site_fract_z
Si Si1 0.875000 0.375000 0.875000
Si Si2 0.502217 0.818898 0.290835
Si Si3 0.811875 0.037703 0.201810
Si Si4 0.774056 0.443436 0.123593
O O1 0.789091 0.434018 0.840277
O O2 0.500000 0.750000 0.250000
O O3 0.375000 0.875000 0.291442
O O4 0.619517 0.879571 0.282073
O O5 0.520649 0.772495 0.341977
O O6 0.750000 0.000000 0.250000
O O7 0.917817 0.976237 0.177760
O O8 0.625000 0.412165 0.125000
O O9 0.875000 0.375000 0.141669
#
# Coordination Sequence:
#
# PCOD9517132 Si02
#       4
#     8  32  32  32
#     4  12  28  48  78 116 164 216 276 348 416 518
#     4  12  27  50  82 117 160 215 281 350 435 509
#     4  12  30  50  80 119 169 221 280 355 433 513
#     4  12  28  51  81 119 165 219 284 356 432 520
#
# _framework density 22.614618
#
# number of rings (size 3 to 8) (size 9 to 14) (size 15 to 20)
#    0.000    0.000    6.154    0.923   12.923    0.000 
#    0.000    0.000    0.000    0.000    0.000    0.000 
#    0.000    0.000    0.000    0.000    0.000    0.000 
#
# Total GULP energy -145694.027053 kJ/mol
# GULP energy per Si atom -5603.616425 kJ/mol
# Density = 2.256315 g / cm^3
# Si number density = 22.614618 Si / 1000 Ang^3
#
#
#
# Elastic Constant Matrix: (Units=GPa)
#
#
# Indices 1 2 3 4 5 6 
#
# 1 186.8523 97.6697 86.7343 0.0000 0.0000 0.0000
# 2 97.6697 150.8268 64.0309 0.0000 0.0000 0.0000
# 3 86.7343 64.0309 149.0501 0.0000 0.0000 0.0000
# 4 0.0000 0.0000 0.0000 46.6761 0.0000 0.0000
# 5 0.0000 0.0000 0.0000 0.0000 32.5940 0.0000
# 6 0.0000 0.0000 0.0000 0.0000 0.0000 65.6857
#
#
#
# Elastic Compliance Matrix: (Units=1/GPa)
#
#
# Indices 1 2 3 4 5 6 
#
# 1 0.009364 -0.004587 -0.003479 0.000000 0.000000 0.000000
# 2 -0.004587 0.010356 -0.001780 0.000000 0.000000 0.000000
# 3 -0.003479 -0.001780 0.009498 0.000000 0.000000 0.000000
# 4 0.000000 0.000000 0.000000 0.021424 0.000000 0.000000
# 5 0.000000 0.000000 0.000000 0.000000 0.030681 0.000000
# 6 0.000000 0.000000 0.000000 0.000000 0.000000 0.015224
#
#
# Mechanical properties :
#
#
# Convention : Reuss Voigt Hill
#
# Bulk Modulus (GPa) = 104.95825 109.28877 107.12351
# Shear Modulus (GPa) = 41.87127 44.87744 43.37436
#
# Velocity S-wave (km/s) = 4.30759 4.45954 4.38422
# Velocity P-wave (km/s) = 8.44114 8.65726 8.54989
#
# Compressibility (1/GPa) = 0.00952760
#
# Stress axis : x y z
#
# Youngs Moduli (GPa) = 106.78842 96.56152 105.28668
#
# Poissons Ratio (x) = 0.44295 0.36625
# Poissons Ratio (y) = 0.48986 0.18736
# Poissons Ratio (z) = 0.37147 0.17184
#
# Static dielectric constant tensor:
#      x y z
#    x 1.871150 0.000000 0.000000 
#    y 0.000000 1.808020 0.000000 
#    z 0.000000 0.000000 1.922890 
# 
# From -- ./inp_files/57065.got.cif
#   From: 2010.05.17/outbox.cif.g08.bks.cpg/sg70_29_cif.got.tgz:57065.got - 2010.06.03 15:57:51.
