data_PCOD9517011
_publ_section_title
;
Structure prediction by ZEFSAII (Michael W. Deem and Ramdas Pophale) SiO2 
 PCOD9517011
Probable space group: F D D D
;
_chemical_formula_sum "Si O2"
_cell_formula_units_Z 136
_cell_length_a 18.578318
_cell_length_b 10.453546
_cell_length_c 31.882385
_cell_angle_alpha 90.000000
_cell_angle_beta 90.000000
_cell_angle_gamma 90.000000
_cell_volume 6191.855731
_symmetry_space_group_name_H-M "F D D D"
_symmetry_group_IT_number 70
_space_group.IT_coordinate_system_code '2'
_symmetry_cell_setting 'orthorhombic'
loop_
_space_group_symop_operation_xyz
x,y,z
1/4-x,1/4-y,z
x,1/4-y,1/4-z
1/4-x,y,1/4-z
-x,-y,-z
3/4+x,3/4+y,-z
-x,3/4+y,3/4+z
3/4+x,-y,3/4+z
x,1/2+y,1/2+z
1/4-x,3/4-y,1/2+z
x,3/4-y,3/4-z
1/4-x,1/2+y,3/4-z
-x,1/2-y,1/2-z
3/4+x,1/4+y,1/2-z
-x,1/4+y,1/4+z
3/4+x,1/2-y,1/4+z
1/2+x,y,1/2+z
3/4-x,1/4-y,1/2+z
1/2+x,1/4-y,3/4-z
3/4-x,y,3/4-z
1/2-x,-y,1/2-z
1/4+x,3/4+y,1/2-z
1/2-x,3/4+y,1/4+z
1/4+x,-y,1/4+z
1/2+x,1/2+y,z
3/4-x,3/4-y,z
1/2+x,3/4-y,1/4-z
3/4-x,1/2+y,1/4-z
1/2-x,1/2-y,-z
1/4+x,1/4+y,-z
1/2-x,1/4+y,3/4+z
1/4+x,1/2-y,3/4+z
loop_
_atom_site_type_symbol
_atom_site_label
_atom_site_fract_x
_atom_site_fract_y
_atom_site_fract_z
Si Si1 0.749427 0.960088 0.121192
Si Si2 0.375000 0.875000 0.680803
Si Si3 0.271148 0.293278 0.915584
Si Si4 0.639436 0.336777 0.806434
Si Si5 0.875000 0.375000 0.875000
Si Si6 0.375000 0.875000 0.262562
O O1 0.804039 0.883993 0.151420
O O2 0.711620 0.854270 0.092365
O O3 0.798318 0.047469 0.089745
O O4 0.684448 0.031365 0.145480
O O5 0.382264 0.737999 0.703606
O O6 0.292240 0.375000 0.875000
O O7 0.185682 0.302486 0.921548
O O8 0.309157 0.342330 0.957125
O O9 0.645038 0.244702 0.766711
#
# Coordination Sequence:
#
# PCOD9517011 Si02
#       6
#    32  16  32  32   8  16
#     4  12  23  43  74 113 148 199 254 316 375 458
#     4  12  21  44  77 111 141 206 261 293 376 480
#     4  12  24  45  77 105 144 200 263 314 373 460
#     4  12  23  45  76 107 149 200 255 307 384 463
#     4  12  28  40  68 124 158 174 252 336 372 424
#     4  12  28  44  70 117 151 196 254 334 382 440
#
# _framework density 21.964337
#
# number of rings (size 3 to 8) (size 9 to 14) (size 15 to 20)
#    0.000    0.000    9.412    1.059    3.294    0.000 
#    0.000    2.353    0.000    0.000    0.000    0.000 
#    0.000    0.000    0.000    0.000    0.000    0.000 
#
# Total GULP energy -189727.384552 kJ/mol
# GULP energy per Si atom -5580.217193 kJ/mol
# Density = 2.191434 g / cm^3
# Si number density = 21.964337 Si / 1000 Ang^3
#
#
#
# Elastic Constant Matrix: (Units=GPa)
#
#
# Indices 1 2 3 4 5 6 
#
# 1 136.9965 44.6644 42.7055 0.0000 0.0000 0.0000
# 2 44.6644 181.0135 64.4239 0.0000 0.0000 0.0000
# 3 42.7055 64.4239 114.7185 0.0000 0.0000 0.0000
# 4 0.0000 0.0000 0.0000 28.1359 0.0000 0.0000
# 5 0.0000 0.0000 0.0000 0.0000 -3.7497 0.0000
# 6 0.0000 0.0000 0.0000 0.0000 0.0000 33.2097
#
#
#
# Elastic Compliance Matrix: (Units=1/GPa)
#
#
# Indices 1 2 3 4 5 6 
#
# 1 0.008464 -0.001209 -0.002472 0.000000 0.000000 0.000000
# 2 -0.001209 0.007077 -0.003524 0.000000 0.000000 0.000000
# 3 -0.002472 -0.003524 0.011617 0.000000 0.000000 0.000000
# 4 0.000000 0.000000 0.000000 0.035542 0.000000 0.000000
# 5 0.000000 0.000000 0.000000 0.000000 -0.266688 0.000000
# 6 0.000000 0.000000 0.000000 0.000000 0.000000 0.030112
#
#
# Mechanical properties :
#
#
# Convention : Reuss Voigt Hill
#
# Bulk Modulus (GPa) = 78.44787 81.81293 80.13040
# Shear Modulus (GPa) = -32.21293 30.24817 -0.98238
#
# Velocity S-wave (km/s) = -3.83378 3.71502 -0.66950
# Velocity P-wave (km/s) = 4.02448 7.46531 5.99697
#
# Compressibility (1/GPa) = 0.01274732
#
# Stress axis : x y z
#
# Youngs Moduli (GPa) = 118.14553 141.30202 86.08425
#
# Poissons Ratio (x) = 0.17078 0.21281
# Poissons Ratio (y) = 0.14280 0.30340
# Poissons Ratio (z) = 0.29207 0.49801
#
# Static dielectric constant tensor:
#      x y z
#    x 1.810190 0.000000 0.000000 
#    y 0.000000 2.037100 0.000000 
#    z 0.000000 0.000000 1.759370 
# 
# From -- ./inp_files/67114.got.cif
#   From: 2010.05.17/outbox.cif.g08.bks.cpg/sg70_34_cif.got.tgz:67114.got - 2010.06.03 15:57:51.
