data_PCOD9517741
_publ_section_title
;
Structure prediction by ZEFSAII (Michael W. Deem and Ramdas Pophale) SiO2 
 PCOD9517741
Probable space group: I M M M
;
_chemical_formula_sum "Si O2"
_cell_formula_units_Z 128
_cell_length_a 18.623963
_cell_length_b 20.577638
_cell_length_c 21.842732
_cell_angle_alpha 90.000000
_cell_angle_beta 90.000000
_cell_angle_gamma 90.000000
_cell_volume 8370.946769
_symmetry_space_group_name_H-M "I M M M"
_symmetry_group_IT_number 71
_symmetry_cell_setting 'orthorhombic'
loop_
_space_group_symop_operation_xyz
x,y,z
-x,-y,z
x,-y,-z
-x,y,-z
-x,-y,-z
x,y,-z
-x,y,z
x,-y,z
1/2+x,1/2+y,1/2+z
1/2-x,1/2-y,1/2+z
1/2+x,1/2-y,1/2-z
1/2-x,1/2+y,1/2-z
1/2-x,1/2-y,1/2-z
1/2+x,1/2+y,1/2-z
1/2-x,1/2+y,1/2+z
1/2+x,1/2-y,1/2+z
loop_
_atom_site_type_symbol
_atom_site_label
_atom_site_fract_x
_atom_site_fract_y
_atom_site_fract_z
Si Si1 0.582142 0.765370 0.359598
Si Si2 0.685272 0.428250 0.237412
Si Si3 0.416407 0.390707 0.656768
Si Si4 0.177599 0.570992 0.672222
Si Si5 0.797198 0.784596 0.305739
Si Si6 0.415021 0.811989 0.224903
Si Si7 0.782603 0.744484 0.068016
Si Si8 0.712362 0.599425 0.568733
O O1 0.500000 0.774988 0.378155
O O2 0.590072 0.688477 0.342181
O O3 0.596660 0.807341 0.298508
O O4 0.638139 0.779501 0.412968
O O5 0.682097 0.500000 0.207786
O O6 0.615513 0.418077 0.280185
O O7 0.754752 0.428059 0.281667
O O8 0.695790 0.361804 0.200763
O O9 0.500000 0.406410 0.646888
O O10 0.361133 0.416137 0.605132
O O11 0.142932 0.500000 0.674885
O O12 0.124045 0.627234 0.693194
O O13 0.217520 0.579853 0.607303
O O14 0.750000 0.750000 0.250000
O O15 0.874589 0.751165 0.300588
O O16 0.764223 0.770551 0.372095
O O17 0.500000 0.811684 0.214411
O O18 0.785779 0.822470 0.065655
O O19 0.760896 0.721423 0.000000
O O20 0.712138 0.574106 0.500000
#
# Coordination Sequence:
#
# PCOD9517741 Si02
#       8
#    16  16  16  16  16  16  16  16
#     4   9  16  27  45  71 102 132 162 197 244 297
#     4  10  19  29  48  74  97 128 166 203 249 302
#     4   9  16  27  42  67 103 135 162 201 248 296
#     4  10  19  32  47  67  96 127 165 215 258 290
#     4  12  17  33  56  72  99 135 166 208 253 299
#     4  11  20  31  52  77  96 126 167 208 253 302
#     4  10  18  28  48  74  98 131 171 208 247 294
#     4   9  17  29  45  67  93 131 178 212 244 295
#
# _framework density 15.290982
#
# number of rings (size 3 to 8) (size 9 to 14) (size 15 to 20)
#    0.000    2.000    5.000    0.750    0.000    1.250 
#    0.000    2.500    0.000    1.875    0.000    4.375 
#    0.000    0.000    0.000   13.000    0.000    0.375 
#
# Total GULP energy -356338.306815 kJ/mol
# GULP energy per Si atom -5567.786044 kJ/mol
# Density = 1.525618 g / cm^3
# Si number density = 15.290982 Si / 1000 Ang^3
#
#
#
# Elastic Constant Matrix: (Units=GPa)
#
#
# Indices 1 2 3 4 5 6 
#
# 1 70.2467 32.1884 36.5797 0.0000 0.0000 0.0000
# 2 32.1884 79.2219 34.2146 0.0000 0.0000 0.0000
# 3 36.5797 34.2146 89.7610 0.0000 0.0000 0.0000
# 4 0.0000 0.0000 0.0000 -3.6612 0.0000 0.0000
# 5 0.0000 0.0000 0.0000 0.0000 14.7528 0.0000
# 6 0.0000 0.0000 0.0000 0.0000 0.0000 1.8657
#
#
#
# Elastic Compliance Matrix: (Units=1/GPa)
#
#
# Indices 1 2 3 4 5 6 
#
# 1 0.019877 -0.005480 -0.006012 0.000000 0.000000 0.000000
# 2 -0.005480 0.016621 -0.004102 0.000000 0.000000 0.000000
# 3 -0.006012 -0.004102 0.015154 0.000000 0.000000 0.000000
# 4 0.000000 0.000000 0.000000 -0.273132 0.000000 0.000000
# 5 0.000000 0.000000 0.000000 0.000000 0.067784 0.000000
# 6 0.000000 0.000000 0.000000 0.000000 0.000000 0.535987
#
#
# Mechanical properties :
#
#
# Convention : Reuss Voigt Hill
#
# Bulk Modulus (GPa) = 48.86457 49.46613 49.16535
# Shear Modulus (GPa) = 11.89627 11.67458 11.78543
#
# Velocity S-wave (km/s) = 2.79228 2.76614 2.77924
# Velocity P-wave (km/s) = 6.51319 6.52856 6.52088
#
# Compressibility (1/GPa) = 0.02046473
#
# Stress axis : x y z
#
# Youngs Moduli (GPa) = 50.30959 60.16480 65.98811
#
# Poissons Ratio (x) = 0.32969 0.39669
# Poissons Ratio (y) = 0.27569 0.27071
# Poissons Ratio (z) = 0.30244 0.24682
#
# Static dielectric constant tensor:
#      x y z
#    x 1.511910 0.000000 0.000000 
#    y 0.000000 1.537970 0.000000 
#    z 0.000000 0.000000 1.517010 
# 
# From -- ./inp_files/47747.got.cif
#   From: 2010.05.17/outbox.cif.g08.bks.cpg/sg71_24_cif.got.tgz:47747.got - 2010.06.03 16:22:01.
