data_PCOD9517121
_publ_section_title
;
Structure prediction by ZEFSAII (Michael W. Deem and Ramdas Pophale) SiO2 
 PCOD9517121
Probable space group: F D D D
;
_chemical_formula_sum "Si O2"
_cell_formula_units_Z 112
_cell_length_a 13.413542
_cell_length_b 35.045011
_cell_length_c 10.427843
_cell_angle_alpha 90.000000
_cell_angle_beta 90.000000
_cell_angle_gamma 90.000000
_cell_volume 4901.896734
_symmetry_space_group_name_H-M "F D D D"
_symmetry_group_IT_number 70
_space_group.IT_coordinate_system_code '2'
_symmetry_cell_setting 'orthorhombic'
loop_
_space_group_symop_operation_xyz
x,y,z
1/4-x,1/4-y,z
x,1/4-y,1/4-z
1/4-x,y,1/4-z
-x,-y,-z
3/4+x,3/4+y,-z
-x,3/4+y,3/4+z
3/4+x,-y,3/4+z
x,1/2+y,1/2+z
1/4-x,3/4-y,1/2+z
x,3/4-y,3/4-z
1/4-x,1/2+y,3/4-z
-x,1/2-y,1/2-z
3/4+x,1/4+y,1/2-z
-x,1/4+y,1/4+z
3/4+x,1/2-y,1/4+z
1/2+x,y,1/2+z
3/4-x,1/4-y,1/2+z
1/2+x,1/4-y,3/4-z
3/4-x,y,3/4-z
1/2-x,-y,1/2-z
1/4+x,3/4+y,1/2-z
1/2-x,3/4+y,1/4+z
1/4+x,-y,1/4+z
1/2+x,1/2+y,z
3/4-x,3/4-y,z
1/2+x,3/4-y,1/4-z
3/4-x,1/2+y,1/4-z
1/2-x,1/2-y,-z
1/4+x,1/4+y,-z
1/2-x,1/4+y,3/4+z
1/4+x,1/2-y,3/4+z
loop_
_atom_site_type_symbol
_atom_site_label
_atom_site_fract_x
_atom_site_fract_y
_atom_site_fract_z
Si Si1 0.451538 0.971589 0.259599
Si Si2 0.296286 0.905498 0.672992
Si Si3 0.125000 0.398334 0.625000
Si Si4 0.165357 0.799654 0.871115
O O1 0.375000 0.979179 0.375000
O O2 0.409818 0.937264 0.171989
O O3 0.559328 0.959569 0.313010
O O4 0.460878 0.009639 0.175458
O O5 0.375000 0.875000 0.723251
O O6 0.216923 0.879617 0.596966
O O7 0.237187 0.928073 0.782310
O O8 0.101662 0.424152 0.747093
#
# Coordination Sequence:
#
# PCOD9517121 Si02
#       4
#    32  32  16  32
#     4  12  26  50  80 111 155 207 254 316 391 471
#     4  12  28  49  77 115 153 203 259 331 388 454
#     4  12  26  50  74 108 155 198 261 320 386 458
#     4  12  27  50  75 111 158 199 264 314 386 476
#
# _framework density 22.848299000000001
#
# number of rings (size 3 to 8) (size 9 to 14) (size 15 to 20)
#    0.000    0.000    4.286    4.286    4.000    5.143 
#    0.000    0.000    0.000    0.000    0.000    0.000 
#    0.000    0.000    0.000    0.000    0.000    0.000 
#
# Total GULP energy -157051.647548 kJ/mol
# GULP energy per Si atom -5608.987412 kJ/mol
# Density = 2.279630 g / cm^3
# Si number density = 22.848299 Si / 1000 Ang^3
#
#
#
# Elastic Constant Matrix: (Units=GPa)
#
#
# Indices 1 2 3 4 5 6 
#
# 1 74.0769 21.4100 4.7000 0.0000 0.0000 0.0000
# 2 21.4100 150.7026 32.6807 0.0000 0.0000 0.0000
# 3 4.7000 32.6807 71.3234 0.0000 0.0000 0.0000
# 4 0.0000 0.0000 0.0000 28.2280 0.0000 0.0000
# 5 0.0000 0.0000 0.0000 0.0000 25.0975 0.0000
# 6 0.0000 0.0000 0.0000 0.0000 0.0000 31.1789
#
#
#
# Elastic Compliance Matrix: (Units=1/GPa)
#
#
# Indices 1 2 3 4 5 6 
#
# 1 0.014078 -0.001997 -0.000013 0.000000 0.000000 0.000000
# 2 -0.001997 0.007651 -0.003374 0.000000 0.000000 0.000000
# 3 -0.000013 -0.003374 0.015568 0.000000 0.000000 0.000000
# 4 0.000000 0.000000 0.000000 0.035426 0.000000 0.000000
# 5 0.000000 0.000000 0.000000 0.000000 0.039845 0.000000
# 6 0.000000 0.000000 0.000000 0.000000 0.000000 0.032073
#
#
# Mechanical properties :
#
#
# Convention : Reuss Voigt Hill
#
# Bulk Modulus (GPa) = 37.69560 45.96492 41.83026
# Shear Modulus (GPa) = 30.44142 32.72172 31.58157
#
# Velocity S-wave (km/s) = 3.65407 3.78845 3.72187
# Velocity P-wave (km/s) = 5.85977 6.26878 6.06773
#
# Compressibility (1/GPa) = 0.02652830
#
# Stress axis : x y z
#
# Youngs Moduli (GPa) = 71.03523 130.70140 64.23631
#
# Poissons Ratio (x) = 0.26104 0.00080
# Poissons Ratio (y) = 0.14187 0.21674
# Poissons Ratio (z) = 0.00089 0.44100
#
# Static dielectric constant tensor:
#      x y z
#    x 1.875260 0.000000 0.000000 
#    y 0.000000 1.802930 0.000000 
#    z 0.000000 0.000000 1.822150 
# 
# From -- ./inp_files/15047.got.cif
#   From: 2010.05.17/outbox.cif.g08.bks.cpg/sg70_8_cif.got.tgz:15047.got - 2010.06.03 15:57:51.
