data_PCOD9518849
_publ_section_title
;
Structure prediction by ZEFSAII (Michael W. Deem and Ramdas Pophale) SiO2 
 PCOD9518849
Probable space group: I M M M
;
_chemical_formula_sum "Si O2"
_cell_formula_units_Z 120
_cell_length_a 7.388199
_cell_length_b 19.931525
_cell_length_c 33.483433
_cell_angle_alpha 90.000000
_cell_angle_beta 90.000000
_cell_angle_gamma 90.000000
_cell_volume 4930.705823
_symmetry_space_group_name_H-M "I M M M"
_symmetry_group_IT_number 71
_symmetry_cell_setting 'orthorhombic'
loop_
_space_group_symop_operation_xyz
x,y,z
-x,-y,z
x,-y,-z
-x,y,-z
-x,-y,-z
x,y,-z
-x,y,z
x,-y,z
1/2+x,1/2+y,1/2+z
1/2-x,1/2-y,1/2+z
1/2+x,1/2-y,1/2-z
1/2-x,1/2+y,1/2-z
1/2-x,1/2-y,1/2-z
1/2+x,1/2+y,1/2-z
1/2-x,1/2+y,1/2+z
1/2+x,1/2-y,1/2+z
loop_
_atom_site_type_symbol
_atom_site_label
_atom_site_fract_x
_atom_site_fract_y
_atom_site_fract_z
Si Si1 0.215958 0.425345 0.256647
Si Si2 0.221665 0.711379 0.871874
Si Si3 0.790807 0.071627 0.547933
Si Si4 0.217416 0.080260 0.000000
Si Si5 0.704241 0.776857 0.544239
Si Si6 0.284693 0.341383 0.334616
Si Si7 0.779086 0.078855 0.087390
Si Si8 0.779217 0.575704 0.833941
O O1 0.283936 0.500000 0.267277
O O2 0.252568 0.374704 0.292132
O O3 0.277758 0.409310 0.211734
O O4 0.000000 0.429377 0.253415
O O5 0.286713 0.743574 0.913735
O O6 0.276261 0.764561 0.838303
O O7 0.282333 0.636294 0.861905
O O8 0.000000 0.709429 0.873766
O O9 0.792911 0.065721 0.500000
O O10 0.694996 0.142573 0.552763
O O11 0.000000 0.077507 0.560588
O O12 0.716521 0.000000 0.563360
O O13 0.280624 0.105943 0.956540
O O14 0.000000 0.087894 0.000000
O O15 0.253750 0.000000 0.000000
O O16 0.785309 0.767368 0.500000
O O17 0.500000 0.749823 0.542218
O O18 0.500000 0.340315 0.339840
O O19 0.215452 0.384246 0.372545
O O20 0.000000 0.081672 0.086905
O O21 0.730788 0.000000 0.089572
O O22 0.720006 0.500000 0.843763
O O23 0.000000 0.575386 0.835332
#
# Coordination Sequence:
#
# PCOD9518849 Si02
#       8
#    16  16  16   8  16  16  16  16
#     4   9  18  33  53  75  95 120 160 202 236 281
#     4   9  18  31  45  68 101 130 161 200 242 290
#     4   8  14  25  41  61  84 110 144 190 243 292
#     4   7  10  18  32  52  81 115 152 188 214 251
#     4   9  17  29  44  63  91 126 162 200 238 276
#     4  10  19  30  46  72 103 130 154 191 245 296
#     4   8  13  22  37  59  88 120 152 185 223 271
#     4   8  15  30  51  70  91 126 167 200 234 285
#
# _framework density 24.337285999999999
#
# number of rings (size 3 to 8) (size 9 to 14) (size 15 to 20)
#    0.000    3.400    0.000    2.400    0.000    2.133 
#    1.200    3.333    0.000    0.800    0.000    0.467 
#    0.000    2.667    0.000    0.000    0.000    0.000 
#
# Total GULP energy -334669.253357 kJ/mol
# GULP energy per Si atom -5577.820889 kJ/mol
# Density = 2.428189 g / cm^3
# Si number density = 24.337286 Si / 1000 Ang^3
#
#
#
# Elastic Constant Matrix: (Units=GPa)
#
#
# Indices 1 2 3 4 5 6 
#
# 1 79.5430 1.0329 -0.0666 0.0000 0.0000 0.0000
# 2 1.0329 86.1796 77.1593 0.0000 0.0000 0.0000
# 3 -0.0666 77.1593 181.9117 0.0000 0.0000 0.0000
# 4 0.0000 0.0000 0.0000 38.2263 0.0000 0.0000
# 5 0.0000 0.0000 0.0000 0.0000 9.4440 0.0000
# 6 0.0000 0.0000 0.0000 0.0000 0.0000 1.4576
#
#
#
# Elastic Compliance Matrix: (Units=1/GPa)
#
#
# Indices 1 2 3 4 5 6 
#
# 1 0.012575 -0.000250 0.000110 0.000000 0.000000 0.000000
# 2 -0.000250 0.018713 -0.007938 0.000000 0.000000 0.000000
# 3 0.000110 -0.007938 0.008864 0.000000 0.000000 0.000000
# 4 0.000000 0.000000 0.000000 0.026160 0.000000 0.000000
# 5 0.000000 0.000000 0.000000 0.000000 0.105887 0.000000
# 6 0.000000 0.000000 0.000000 0.000000 0.000000 0.686080
#
#
# Mechanical properties :
#
#
# Convention : Reuss Voigt Hill
#
# Bulk Modulus (GPa) = 41.66814 55.98730 48.82772
# Shear Modulus (GPa) = 5.66616 27.79281 16.72949
#
# Velocity S-wave (km/s) = 1.52749 3.38299 2.62468
# Velocity P-wave (km/s) = 4.50214 6.18985 5.41218
#
# Compressibility (1/GPa) = 0.02399915
#
# Stress axis : x y z
#
# Youngs Moduli (GPa) = 79.52195 53.43773 112.81625
#
# Poissons Ratio (x) = 0.01334 -0.01246
# Poissons Ratio (y) = 0.01985 0.89548
# Poissons Ratio (z) = -0.00879 0.42416
#
# Static dielectric constant tensor:
#      x y z
#    x 2.321810 0.000000 0.000000 
#    y 0.000000 1.975390 0.000000 
#    z 0.000000 0.000000 1.943040 
# 
# From -- ./inp_files/69570.got.cif
#   From: 2010.05.17/outbox.cif.g08.bks.cpg/sg71_35_cif.got.tgz:69570.got - 2010.06.03 16:22:01.
