data_PCOD9518215
_publ_section_title
;
Structure prediction by ZEFSAII (Michael W. Deem and Ramdas Pophale) SiO2 
 PCOD9518215
Probable space group: I M M M
;
_chemical_formula_sum "Si O2"
_cell_formula_units_Z 100
_cell_length_a 13.308879
_cell_length_b 20.788142
_cell_length_c 18.320344
_cell_angle_alpha 90.000000
_cell_angle_beta 90.000000
_cell_angle_gamma 90.000000
_cell_volume 5068.632168
_symmetry_space_group_name_H-M "I M M M"
_symmetry_group_IT_number 71
_symmetry_cell_setting 'orthorhombic'
loop_
_space_group_symop_operation_xyz
x,y,z
-x,-y,z
x,-y,-z
-x,y,-z
-x,-y,-z
x,y,-z
-x,y,z
x,-y,z
1/2+x,1/2+y,1/2+z
1/2-x,1/2-y,1/2+z
1/2+x,1/2-y,1/2-z
1/2-x,1/2+y,1/2-z
1/2-x,1/2-y,1/2-z
1/2+x,1/2+y,1/2-z
1/2-x,1/2+y,1/2+z
1/2+x,1/2-y,1/2+z
loop_
_atom_site_type_symbol
_atom_site_label
_atom_site_fract_x
_atom_site_fract_y
_atom_site_fract_z
Si Si1 0.112772 0.075752 0.381263
Si Si2 0.114224 0.114774 0.788759
Si Si3 0.118578 0.703016 0.383058
Si Si4 0.000000 0.500000 0.697818
Si Si5 0.684370 0.931234 0.865854
Si Si6 0.260723 0.816717 0.422372
Si Si7 0.383338 0.230265 0.714278
O O1 0.116863 0.091577 0.294930
O O2 0.199185 0.117512 0.416958
O O3 0.000000 0.094203 0.406045
O O4 0.125148 0.000000 0.392719
O O5 0.207333 0.081929 0.829878
O O6 0.127670 0.192169 0.790698
O O7 0.000000 0.100657 0.816178
O O8 0.153592 0.632764 0.408044
O O9 0.179159 0.759747 0.420083
O O10 0.143506 0.708963 0.296252
O O11 0.000000 0.711279 0.392123
O O12 0.090886 0.555133 0.690036
O O13 0.687706 0.000000 0.906616
O O14 0.316546 0.813433 0.500000
O O15 0.324799 0.805240 0.349804
O O16 0.500000 0.216097 0.704770
#
# Coordination Sequence:
#
# PCOD9518215 Si02
#       7
#    16  16  16   4  16  16  16
#     4  10  21  37  56  85 121 152 189 241 303 359
#     4  10  18  32  56  87 114 146 191 250 305 351
#     4  11  19  35  59  83 113 145 191 246 296 351
#     4   8  20  32  42  84 113 160 173 222 304 350
#     4  10  18  31  50  79 117 147 181 226 292 357
#     4  12  24  37  57  84 116 160 202 237 292 357
#     4  10  21  36  59  85 114 150 193 252 306 344
#
# _framework density 19.729188000000001
#
# number of rings (size 3 to 8) (size 9 to 14) (size 15 to 20)
#    0.480    1.120    4.000    2.400    0.000    2.880 
#    0.000    0.800    0.000    0.960    0.000    2.800 
#    0.000    2.560    0.000    0.000    0.000    0.000 
#
# Total GULP energy -278433.094131 kJ/mol
# GULP energy per Si atom -5568.661883 kJ/mol
# Density = 1.968428 g / cm^3
# Si number density = 19.729188 Si / 1000 Ang^3
#
#
#
# Elastic Constant Matrix: (Units=GPa)
#
#
# Indices 1 2 3 4 5 6 
#
# 1 120.0966 20.7541 25.9542 0.0000 0.0000 0.0000
# 2 20.7541 87.8904 17.9639 0.0000 0.0000 0.0000
# 3 25.9542 17.9639 69.0123 0.0000 0.0000 0.0000
# 4 0.0000 0.0000 0.0000 -22.0385 0.0000 0.0000
# 5 0.0000 0.0000 0.0000 0.0000 9.5427 0.0000
# 6 0.0000 0.0000 0.0000 0.0000 0.0000 37.2926
#
#
#
# Elastic Compliance Matrix: (Units=1/GPa)
#
#
# Indices 1 2 3 4 5 6 
#
# 1 0.009261 -0.001558 -0.003077 0.000000 0.000000 0.000000
# 2 -0.001558 0.012279 -0.002610 0.000000 0.000000 0.000000
# 3 -0.003077 -0.002610 0.016327 0.000000 0.000000 0.000000
# 4 0.000000 0.000000 0.000000 -0.045375 0.000000 0.000000
# 5 0.000000 0.000000 0.000000 0.000000 0.104792 0.000000
# 6 0.000000 0.000000 0.000000 0.000000 0.000000 0.026815
#
#
# Mechanical properties :
#
#
# Convention : Reuss Voigt Hill
#
# Bulk Modulus (GPa) = 42.77909 45.14930 43.96420
# Shear Modulus (GPa) = 34.15725 19.11451 26.63588
#
# Velocity S-wave (km/s) = 4.16541 3.11600 3.67832
# Velocity P-wave (km/s) = 6.69809 5.99001 6.35392
#
# Compressibility (1/GPa) = 0.02337591
#
# Stress axis : x y z
#
# Youngs Moduli (GPa) = 107.98091 81.43848 61.24832
#
# Poissons Ratio (x) = 0.12687 0.18848
# Poissons Ratio (y) = 0.16822 0.15988
# Poissons Ratio (z) = 0.33229 0.21259
#
# Static dielectric constant tensor:
#      x y z
#    x 1.696310 0.000000 0.000000 
#    y 0.000000 1.715570 0.000000 
#    z 0.000000 0.000000 1.725570 
# 
# From -- ./inp_files/44961.got.cif
#   From: 2010.05.17/outbox.cif.g08.bks.cpg/sg71_23_cif.got.tgz:44961.got - 2010.06.03 16:22:01.
