data_PCOD9518836
_publ_section_title
;
Structure prediction by ZEFSAII (Michael W. Deem and Ramdas Pophale) SiO2 
 PCOD9518836
Probable space group: I M M M
;
_chemical_formula_sum "Si O2"
_cell_formula_units_Z 96
_cell_length_a 21.174510
_cell_length_b 14.984614
_cell_length_c 14.940009
_cell_angle_alpha 90.000000
_cell_angle_beta 90.000000
_cell_angle_gamma 90.000000
_cell_volume 4740.343229
_symmetry_space_group_name_H-M "I M M M"
_symmetry_group_IT_number 71
_symmetry_cell_setting 'orthorhombic'
loop_
_space_group_symop_operation_xyz
x,y,z
-x,-y,z
x,-y,-z
-x,y,-z
-x,-y,-z
x,y,-z
-x,y,z
x,-y,z
1/2+x,1/2+y,1/2+z
1/2-x,1/2-y,1/2+z
1/2+x,1/2-y,1/2-z
1/2-x,1/2+y,1/2-z
1/2-x,1/2-y,1/2-z
1/2+x,1/2+y,1/2-z
1/2-x,1/2+y,1/2+z
1/2+x,1/2-y,1/2+z
loop_
_atom_site_type_symbol
_atom_site_label
_atom_site_fract_x
_atom_site_fract_y
_atom_site_fract_z
Si Si1 0.252695 0.108733 0.098912
Si Si2 0.568162 0.602846 0.204791
Si Si3 0.072480 0.649300 0.100413
Si Si4 0.895089 0.855996 0.901423
Si Si5 0.307977 0.609507 0.896477
Si Si6 0.310350 0.106362 0.718854
O O1 0.180929 0.142983 0.108776
O O2 0.295744 0.139526 0.181184
O O3 0.248123 0.000000 0.101262
O O4 0.275806 0.134043 0.000000
O O5 0.500000 0.645435 0.184742
O O6 0.565269 0.500000 0.174700
O O7 0.578052 0.601624 0.311586
O O8 0.629929 0.641248 0.156788
O O9 0.078229 0.756167 0.097232
O O10 0.121855 0.621957 0.175678
O O11 0.000000 0.623498 0.117530
O O12 0.090193 0.616269 0.000000
O O13 0.908895 0.895575 0.000000
O O14 0.307396 0.500000 0.893438
O O15 0.244495 0.640969 0.847251
O O16 0.309125 0.635326 0.000000
O O17 0.302196 0.000000 0.722998
#
# Coordination Sequence:
#
# PCOD9518836 Si02
#       6
#    16  16  16  16  16  16
#     4   9  17  31  54  83 111 135 165 209 256 304
#     4  10  19  30  46  70 100 135 174 213 253 299
#     4  10  22  37  52  75 106 138 173 215 264 312
#     4  10  19  33  52  73 103 139 170 205 253 305
#     4   9  17  30  47  69  97 129 168 212 255 300
#     4  10  19  34  57  79 100 131 170 214 265 312
#
# _framework density 20.251698000000001
#
# number of rings (size 3 to 8) (size 9 to 14) (size 15 to 20)
#    0.000    2.333    1.667    1.500    0.000    4.333 
#    0.000    3.333    0.000    0.500    0.000    2.333 
#    0.000    0.000    0.000    0.000    0.000    0.000 
#
# Total GULP energy -267817.090382 kJ/mol
# GULP energy per Si atom -5579.522716 kJ/mol
# Density = 2.020560 g / cm^3
# Si number density = 20.251698 Si / 1000 Ang^3
#
#
#
# Elastic Constant Matrix: (Units=GPa)
#
#
# Indices 1 2 3 4 5 6 
#
# 1 132.6595 -0.1855 94.5252 0.0000 0.0000 0.0000
# 2 -0.1855 23.4063 5.0526 0.0000 0.0000 0.0000
# 3 94.5252 5.0526 150.1627 0.0000 0.0000 0.0000
# 4 0.0000 0.0000 0.0000 1.2887 0.0000 0.0000
# 5 0.0000 0.0000 0.0000 0.0000 24.7827 0.0000
# 6 0.0000 0.0000 0.0000 0.0000 0.0000 10.0066
#
#
#
# Elastic Compliance Matrix: (Units=1/GPa)
#
#
# Indices 1 2 3 4 5 6 
#
# 1 0.013761 0.001993 -0.008729 0.000000 0.000000 0.000000
# 2 0.001993 0.043325 -0.002713 0.000000 0.000000 0.000000
# 3 -0.008729 -0.002713 0.012246 0.000000 0.000000 0.000000
# 4 0.000000 0.000000 0.000000 0.775981 0.000000 0.000000
# 5 0.000000 0.000000 0.000000 0.000000 0.040351 0.000000
# 6 0.000000 0.000000 0.000000 0.000000 0.000000 0.099934
#
#
# Mechanical properties :
#
#
# Convention : Reuss Voigt Hill
#
# Bulk Modulus (GPa) = 19.82774 56.11256 37.97015
# Shear Modulus (GPa) = 4.89569 21.00469 12.95019
#
# Velocity S-wave (km/s) = 1.55649 3.22402 2.53150
# Velocity P-wave (km/s) = 3.61139 6.45189 5.22824
#
# Compressibility (1/GPa) = 0.05043439
#
# Stress axis : x y z
#
# Youngs Moduli (GPa) = 72.66967 23.08145 81.66123
#
# Poissons Ratio (x) = -0.04601 0.71285
# Poissons Ratio (y) = -0.14486 0.22151
# Poissons Ratio (z) = 0.63436 0.06261
#
# Static dielectric constant tensor:
#      x y z
#    x 1.717000 0.000000 0.000000 
#    y 0.000000 1.771460 0.000000 
#    z 0.000000 0.000000 1.728400 
# 
# From -- ./inp_files/34505.got.cif
#   From: 2010.05.17/outbox.cif.g08.bks.cpg/sg71_18_cif.got.tgz:34505.got - 2010.06.03 16:22:01.
