data_PCOD9518261
_publ_section_title
;
Structure prediction by ZEFSAII (Michael W. Deem and Ramdas Pophale) SiO2 
 PCOD9518261
Probable space group: I M M M
;
_chemical_formula_sum "Si O2"
_cell_formula_units_Z 88
_cell_length_a 8.005171
_cell_length_b 21.199365
_cell_length_c 24.028111
_cell_angle_alpha 90.000000
_cell_angle_beta 90.000000
_cell_angle_gamma 90.000000
_cell_volume 4077.679570
_symmetry_space_group_name_H-M "I M M M"
_symmetry_group_IT_number 71
_symmetry_cell_setting 'orthorhombic'
loop_
_space_group_symop_operation_xyz
x,y,z
-x,-y,z
x,-y,-z
-x,y,-z
-x,-y,-z
x,y,-z
-x,y,z
x,-y,z
1/2+x,1/2+y,1/2+z
1/2-x,1/2-y,1/2+z
1/2+x,1/2-y,1/2-z
1/2-x,1/2+y,1/2-z
1/2-x,1/2-y,1/2-z
1/2+x,1/2+y,1/2-z
1/2-x,1/2+y,1/2+z
1/2+x,1/2-y,1/2+z
loop_
_atom_site_type_symbol
_atom_site_label
_atom_site_fract_x
_atom_site_fract_y
_atom_site_fract_z
Si Si1 0.192766 0.794072 0.584549
Si Si2 0.682398 0.654268 0.434387
Si Si3 0.691000 0.198265 0.707400
Si Si4 0.299314 0.568315 0.917245
Si Si5 0.301139 0.567521 0.216659
Si Si6 0.000000 0.426008 0.431695
O O1 0.282406 0.729201 0.569412
O O2 0.200261 0.798506 0.651567
O O3 0.262263 0.862375 0.564524
O O4 0.000000 0.788937 0.566625
O O5 0.674365 0.639505 0.500000
O O6 0.500000 0.640548 0.409210
O O7 0.836026 0.612639 0.412174
O O8 0.500000 0.207794 0.690470
O O9 0.750000 0.250000 0.750000
O O10 0.711727 0.130200 0.735811
O O11 0.500000 0.568965 0.927314
O O12 0.235713 0.500000 0.937901
O O13 0.275799 0.566486 0.850426
O O14 0.500000 0.572822 0.225762
O O15 0.243176 0.500000 0.238827
O O16 0.000000 0.500000 0.416213
O O17 0.000000 0.423993 0.500000
#
# Coordination Sequence:
#
# PCOD9518261 Si02
#       6
#    16  16  16  16  16   8
#     4  10  18  31  52  75 103 139 174 213 268 316
#     4  10  20  34  54  82 112 141 176 217 265 321
#     4  11  21  32  47  71 101 132 172 216 260 309
#     4   7  11  21  40  67  95 125 165 208 247 294
#     4   8  14  27  46  66  90 121 158 202 252 300
#     4   9  18  34  56  82 109 137 173 217 264 316
#
# _framework density 21.580901999999998
#
# number of rings (size 3 to 8) (size 9 to 14) (size 15 to 20)
#    0.000    2.818    0.909    4.364    0.000    0.727 
#    0.000    1.818    0.000    3.273    0.000    3.818 
#    0.000    0.000    0.000    0.000    0.000    0.000 
#
# Total GULP energy -245242.504949 kJ/mol
# GULP energy per Si atom -5573.693294 kJ/mol
# Density = 2.153178 g / cm^3
# Si number density = 21.580902 Si / 1000 Ang^3
#
#
#
# Elastic Constant Matrix: (Units=GPa)
#
#
# Indices 1 2 3 4 5 6 
#
# 1 104.1767 72.7988 -4.2424 0.0000 0.0000 0.0000
# 2 72.7988 183.1044 25.8466 0.0000 0.0000 0.0000
# 3 -4.2424 25.8466 25.4445 0.0000 0.0000 0.0000
# 4 0.0000 0.0000 0.0000 17.8950 0.0000 0.0000
# 5 0.0000 0.0000 0.0000 0.0000 50.9017 0.0000
# 6 0.0000 0.0000 0.0000 0.0000 0.0000 16.9425
#
#
#
# Elastic Compliance Matrix: (Units=1/GPa)
#
#
# Indices 1 2 3 4 5 6 
#
# 1 0.015253 -0.007498 0.010160 0.000000 0.000000 0.000000
# 2 -0.007498 0.010062 -0.011471 0.000000 0.000000 0.000000
# 3 0.010160 -0.011471 0.052647 0.000000 0.000000 0.000000
# 4 0.000000 0.000000 0.000000 0.055882 0.000000 0.000000
# 5 0.000000 0.000000 0.000000 0.000000 0.019646 0.000000
# 6 0.000000 0.000000 0.000000 0.000000 0.000000 0.059023
#
#
# Mechanical properties :
#
#
# Convention : Reuss Voigt Hill
#
# Bulk Modulus (GPa) = 16.57193 55.72573 36.14883
# Shear Modulus (GPa) = 19.98040 31.70269 25.84154
#
# Velocity S-wave (km/s) = 3.04606 3.83693 3.46414
# Velocity P-wave (km/s) = 4.47961 6.74591 5.72600
#
# Compressibility (1/GPa) = 0.06034302
#
# Stress axis : x y z
#
# Youngs Moduli (GPa) = 65.56238 99.38612 18.99431
#
# Poissons Ratio (x) = 0.74523 -0.19298
# Poissons Ratio (y) = 0.49161 0.21788
# Poissons Ratio (z) = -0.66611 1.14005
#
# Static dielectric constant tensor:
#      x y z
#    x 1.796990 0.000000 0.000000 
#    y 0.000000 1.812320 0.000000 
#    z 0.000000 0.000000 1.787310 
# 
# From -- ./inp_files/57570.got.cif
#   From: 2010.05.17/outbox.cif.g08.bks.cpg/sg71_29_cif.got.tgz:57570.got - 2010.06.03 16:22:01.
