data_PCOD9518543
_publ_section_title
;
Structure prediction by ZEFSAII (Michael W. Deem and Ramdas Pophale) SiO2 
 PCOD9518543
Probable space group: I M M M
;
_chemical_formula_sum "Si O2"
_cell_formula_units_Z 88
_cell_length_a 15.919889
_cell_length_b 18.162182
_cell_length_c 15.921147
_cell_angle_alpha 90.000000
_cell_angle_beta 90.000000
_cell_angle_gamma 90.000000
_cell_volume 4603.439193
_symmetry_space_group_name_H-M "I M M M"
_symmetry_group_IT_number 71
_symmetry_cell_setting 'orthorhombic'
loop_
_space_group_symop_operation_xyz
x,y,z
-x,-y,z
x,-y,-z
-x,y,-z
-x,-y,-z
x,y,-z
-x,y,z
x,-y,z
1/2+x,1/2+y,1/2+z
1/2-x,1/2-y,1/2+z
1/2+x,1/2-y,1/2-z
1/2-x,1/2+y,1/2-z
1/2-x,1/2-y,1/2-z
1/2+x,1/2+y,1/2-z
1/2-x,1/2+y,1/2+z
1/2+x,1/2-y,1/2+z
loop_
_atom_site_type_symbol
_atom_site_label
_atom_site_fract_x
_atom_site_fract_y
_atom_site_fract_z
Si Si1 0.784631 0.581162 0.257904
Si Si2 0.402821 0.889081 0.091631
Si Si3 0.500000 0.413929 0.600532
Si Si4 0.593987 0.718474 0.863320
Si Si5 0.278339 0.166274 0.404467
Si Si6 0.142689 0.810094 0.823520
O O1 0.745906 0.500000 0.253299
O O2 0.857253 0.580376 0.327021
O O3 0.808865 0.608298 0.165230
O O4 0.721088 0.642144 0.292367
O O5 0.500000 0.910535 0.092200
O O6 0.399854 0.800469 0.100082
O O7 0.366168 0.909454 0.000000
O O8 0.500000 0.500000 0.629482
O O9 0.500000 0.415256 0.500000
O O10 0.420590 0.366563 0.632290
O O11 0.500000 0.689314 0.883796
O O12 0.676779 0.675459 0.894328
O O13 0.602004 0.721871 0.761953
O O14 0.297440 0.146785 0.500000
O O15 0.322222 0.243949 0.380289
#
# Coordination Sequence:
#
# PCOD9518543 Si02
#       6
#    16  16   8  16  16  16
#     4  11  23  39  59  85 120 160 198 243 302 362
#     4  10  20  35  58  89 120 148 188 241 300 361
#     4  11  24  38  56  86 122 158 197 246 302 356
#     4  10  18  34  61  89 115 146 191 245 297 349
#     4  11  22  38  62  89 119 155 202 252 293 350
#     4  11  20  39  59  86 113 153 205 244 294 347
#
# _framework density 19.116142
#
# number of rings (size 3 to 8) (size 9 to 14) (size 15 to 20)
#    0.000    1.364    4.545    2.727    0.000    2.909 
#    0.000    0.909    0.000    0.000    0.000    3.818 
#    0.000    0.000    0.000    0.000    0.000    0.000 
#
# Total GULP energy -245542.443168 kJ/mol
# GULP energy per Si atom -5580.510072 kJ/mol
# Density = 1.907263 g / cm^3
# Si number density = 19.116142 Si / 1000 Ang^3
#
#
#
# Elastic Constant Matrix: (Units=GPa)
#
#
# Indices 1 2 3 4 5 6 
#
# 1 63.9704 8.8765 37.8800 0.0000 0.0000 0.0000
# 2 8.8765 46.7694 29.7486 0.0000 0.0000 0.0000
# 3 37.8800 29.7486 159.5139 0.0000 0.0000 0.0000
# 4 0.0000 0.0000 0.0000 5.4209 0.0000 0.0000
# 5 0.0000 0.0000 0.0000 0.0000 23.0498 0.0000
# 6 0.0000 0.0000 0.0000 0.0000 0.0000 -11.9824
#
#
#
# Elastic Compliance Matrix: (Units=1/GPa)
#
#
# Indices 1 2 3 4 5 6 
#
# 1 0.018216 -0.000801 -0.004177 0.000000 0.000000 0.000000
# 2 -0.000801 0.024294 -0.004341 0.000000 0.000000 0.000000
# 3 -0.004177 -0.004341 0.008070 0.000000 0.000000 0.000000
# 4 0.000000 0.000000 0.000000 0.184471 0.000000 0.000000
# 5 0.000000 0.000000 0.000000 0.000000 0.043384 0.000000
# 6 0.000000 0.000000 0.000000 0.000000 0.000000 -0.083456
#
#
# Mechanical properties :
#
#
# Convention : Reuss Voigt Hill
#
# Bulk Modulus (GPa) = 31.30347 47.02933 39.16640
# Shear Modulus (GPa) = 22.29503 16.21425 19.25464
#
# Velocity S-wave (km/s) = 3.41881 2.91554 3.17716
# Velocity P-wave (km/s) = 5.65644 5.99909 5.83028
#
# Compressibility (1/GPa) = 0.03194534
#
# Stress axis : x y z
#
# Youngs Moduli (GPa) = 54.89533 41.16171 123.91006
#
# Poissons Ratio (x) = 0.03296 0.51752
# Poissons Ratio (y) = 0.04396 0.53785
# Poissons Ratio (z) = 0.22927 0.17867
#
# Static dielectric constant tensor:
#      x y z
#    x 1.688020 0.000000 0.000000 
#    y 0.000000 1.651640 0.000000 
#    z 0.000000 0.000000 1.688630 
# 
# From -- ./inp_files/36392.got.cif
#   From: 2010.05.17/outbox.cif.g08.bks.cpg/sg71_19_cif.got.tgz:36392.got - 2010.06.03 16:22:01.
