data_PCOD9518517
_publ_section_title
;
Structure prediction by ZEFSAII (Michael W. Deem and Ramdas Pophale) SiO2 
 PCOD9518517
Probable space group: I M M M
;
_chemical_formula_sum "Si O2"
_cell_formula_units_Z 104
_cell_length_a 12.501268
_cell_length_b 18.352488
_cell_length_c 26.329539
_cell_angle_alpha 90.000000
_cell_angle_beta 90.000000
_cell_angle_gamma 90.000000
_cell_volume 6040.769570
_symmetry_space_group_name_H-M "I M M M"
_symmetry_group_IT_number 71
_symmetry_cell_setting 'orthorhombic'
loop_
_space_group_symop_operation_xyz
x,y,z
-x,-y,z
x,-y,-z
-x,y,-z
-x,-y,-z
x,y,-z
-x,y,z
x,-y,z
1/2+x,1/2+y,1/2+z
1/2-x,1/2-y,1/2+z
1/2+x,1/2-y,1/2-z
1/2-x,1/2+y,1/2-z
1/2-x,1/2-y,1/2-z
1/2+x,1/2+y,1/2-z
1/2-x,1/2+y,1/2+z
1/2+x,1/2-y,1/2+z
loop_
_atom_site_type_symbol
_atom_site_label
_atom_site_fract_x
_atom_site_fract_y
_atom_site_fract_z
Si Si1 0.375175 0.580498 0.586282
Si Si2 0.258740 0.723867 0.833225
Si Si3 0.374960 0.636641 0.700627
Si Si4 0.000000 0.743798 0.664876
Si Si5 0.734904 0.786749 0.055434
Si Si6 0.706708 0.081337 0.277072
Si Si7 0.500000 0.772301 0.945311
Si Si8 0.500000 0.916585 0.204190
O O1 0.500000 0.584242 0.572695
O O2 0.334531 0.500000 0.574133
O O3 0.367694 0.594758 0.646794
O O4 0.311710 0.644923 0.560344
O O5 0.189277 0.787817 0.807323
O O6 0.383419 0.731541 0.815419
O O7 0.252242 0.738420 0.893908
O O8 0.212136 0.646388 0.817236
O O9 0.500000 0.648644 0.711813
O O10 0.312410 0.591384 0.742800
O O11 0.000000 0.772217 0.606643
O O12 0.000000 0.654847 0.668139
O O13 0.611823 0.814016 0.056757
O O14 0.751099 0.751100 0.000000
O O15 0.604929 0.089716 0.239662
O O16 0.702354 0.000000 0.298889
O O17 0.500000 0.732753 0.000000
O O18 0.500000 0.000000 0.182484
#
# Coordination Sequence:
#
# PCOD9518517 Si02
#       8
#    16  16  16   8  16  16   8   8
#     4   9  18  32  48  71 104 137 165 195 242 299
#     4  10  21  34  54  77 100 133 169 212 250 299
#     4  10  20  33  53  76 104 138 168 204 246 294
#     4  10  18  34  55  77 100 132 176 209 244 296
#     4   9  18  34  53  73  95 125 167 210 253 296
#     4  11  23  36  51  74 105 136 168 206 252 301
#     4   8  16  32  50  70  97 125 158 206 253 287
#     4  10  22  36  52  74 102 138 172 206 248 298
#
# _framework density 17.216349999999998
#
# number of rings (size 3 to 8) (size 9 to 14) (size 15 to 20)
#    0.000    2.308    1.538    0.923    2.154    1.538 
#    0.000    1.154    0.000    3.000    0.000    0.000 
#    0.000    8.000    0.000    0.000    0.000    0.000 
#
# Total GULP energy -289624.218938 kJ/mol
# GULP energy per Si atom -5569.696518 kJ/mol
# Density = 1.717716 g / cm^3
# Si number density = 17.216350 Si / 1000 Ang^3
#
#
#
# Elastic Constant Matrix: (Units=GPa)
#
#
# Indices 1 2 3 4 5 6 
#
# 1 69.5559 4.8066 10.2777 0.0000 0.0000 0.0000
# 2 4.8066 77.0372 18.6436 0.0000 0.0000 0.0000
# 3 10.2777 18.6436 61.5527 0.0000 0.0000 0.0000
# 4 0.0000 0.0000 0.0000 5.0936 0.0000 0.0000
# 5 0.0000 0.0000 0.0000 0.0000 14.4674 0.0000
# 6 0.0000 0.0000 0.0000 0.0000 0.0000 14.0585
#
#
#
# Elastic Compliance Matrix: (Units=1/GPa)
#
#
# Indices 1 2 3 4 5 6 
#
# 1 0.014749 -0.000350 -0.002357 0.000000 0.000000 0.000000
# 2 -0.000350 0.014016 -0.004187 0.000000 0.000000 0.000000
# 3 -0.002357 -0.004187 0.017908 0.000000 0.000000 0.000000
# 4 0.000000 0.000000 0.000000 0.196325 0.000000 0.000000
# 5 0.000000 0.000000 0.000000 0.000000 0.069121 0.000000
# 6 0.000000 0.000000 0.000000 0.000000 0.000000 0.071131
#
#
# Mechanical properties :
#
#
# Convention : Reuss Voigt Hill
#
# Bulk Modulus (GPa) = 30.40799 30.62240 30.51520
# Shear Modulus (GPa) = 12.25491 18.35176 15.30333
#
# Velocity S-wave (km/s) = 2.67089 3.26843 2.98465
# Velocity P-wave (km/s) = 5.21653 5.66294 5.44431
#
# Compressibility (1/GPa) = 0.03288609
#
# Stress axis : x y z
#
# Youngs Moduli (GPa) = 67.79966 71.34792 55.84121
#
# Poissons Ratio (x) = 0.02496 0.13161
# Poissons Ratio (y) = 0.02372 0.23380
# Poissons Ratio (z) = 0.15979 0.29872
#
# Static dielectric constant tensor:
#      x y z
#    x 1.602970 0.000000 0.000000 
#    y 0.000000 1.560540 0.000000 
#    z 0.000000 0.000000 1.632520 
# 
# From -- ./inp_files/69460.got.cif
#   From: 2010.05.17/outbox.cif.g08.bks.cpg/sg71_35_cif.got.tgz:69460.got - 2010.06.03 16:22:01.
