data_PCOD9518942
_publ_section_title
;
Structure prediction by ZEFSAII (Michael W. Deem and Ramdas Pophale) SiO2 
 PCOD9518942
Probable space group: I M M M
;
_chemical_formula_sum "Si O2"
_cell_formula_units_Z 120
_cell_length_a 15.407423
_cell_length_b 27.784437
_cell_length_c 15.732026
_cell_angle_alpha 90.000000
_cell_angle_beta 90.000000
_cell_angle_gamma 90.000000
_cell_volume 6734.669107
_symmetry_space_group_name_H-M "I M M M"
_symmetry_group_IT_number 71
_symmetry_cell_setting 'orthorhombic'
loop_
_space_group_symop_operation_xyz
x,y,z
-x,-y,z
x,-y,-z
-x,y,-z
-x,-y,-z
x,y,-z
-x,y,z
x,-y,z
1/2+x,1/2+y,1/2+z
1/2-x,1/2-y,1/2+z
1/2+x,1/2-y,1/2-z
1/2-x,1/2+y,1/2-z
1/2-x,1/2-y,1/2-z
1/2+x,1/2+y,1/2-z
1/2-x,1/2+y,1/2+z
1/2+x,1/2-y,1/2+z
loop_
_atom_site_type_symbol
_atom_site_label
_atom_site_fract_x
_atom_site_fract_y
_atom_site_fract_z
Si Si1 0.100514 0.500000 0.397073
Si Si2 0.595931 0.686745 0.210163
Si Si3 0.898081 0.914063 0.777202
Si Si4 0.755059 0.710537 0.901408
Si Si5 0.903531 0.295548 0.769658
Si Si6 0.397017 0.557630 0.090325
Si Si7 0.748031 0.925391 0.901837
Si Si8 0.682714 0.182890 0.095783
O O1 0.094421 0.500000 0.500000
O O2 0.161036 0.454081 0.373952
O O3 0.000000 0.500000 0.365960
O O4 0.500000 0.680977 0.171605
O O5 0.606038 0.643940 0.277341
O O6 0.667805 0.687737 0.137403
O O7 0.599488 0.737924 0.256191
O O8 0.865735 0.925300 0.681585
O O9 0.831709 0.935828 0.844364
O O10 0.000000 0.928567 0.786679
O O11 0.831839 0.693495 0.839962
O O12 0.741061 0.768807 0.894824
O O13 0.768263 0.699175 0.000000
O O14 0.881111 0.315685 0.676185
O O15 0.000000 0.309943 0.795415
O O16 0.500000 0.568594 0.090114
O O17 0.388777 0.500000 0.089899
O O18 0.360455 0.575954 0.000000
O O19 0.730806 0.868108 0.899506
O O20 0.764390 0.938728 0.000000
O O21 0.643559 0.186126 0.000000
#
# Coordination Sequence:
#
# PCOD9518942 Si02
#       8
#     8  16  16  16  16  16  16  16
#     4   9  20  38  55  71  94 125 161 209 261 294
#     4   9  18  32  48  69  97 130 165 205 250 291
#     4  10  19  30  49  74 103 136 164 192 236 296
#     4  10  19  31  48  69  99 136 169 204 245 292
#     4  10  19  31  48  69  98 130 164 208 251 293
#     4   8  15  28  44  63  90 124 161 198 231 266
#     4  10  20  34  52  74 101 130 163 202 246 303
#     4   9  18  33  52  71  93 127 169 211 252 292
#
# _framework density 17.818247
#
# number of rings (size 3 to 8) (size 9 to 14) (size 15 to 20)
#    0.000    2.600    0.000    3.600    0.933    2.133 
#    0.000    5.333    0.000    6.000    0.000    0.000 
#    0.000    1.067    0.000    0.000    0.000    0.133 
#
# Total GULP energy -334105.514757 kJ/mol
# GULP energy per Si atom -5568.425246 kJ/mol
# Density = 1.777769 g / cm^3
# Si number density = 17.818247 Si / 1000 Ang^3
#
#
#
# Elastic Constant Matrix: (Units=GPa)
#
#
# Indices 1 2 3 4 5 6 
#
# 1 131.9571 21.6516 88.7495 0.0000 0.0000 0.0000
# 2 21.6516 31.9270 16.4815 0.0000 0.0000 0.0000
# 3 88.7495 16.4815 92.9928 -0.0001 0.0000 0.0000
# 4 0.0000 0.0000 -0.0001 12.6590 0.0000 0.0000
# 5 0.0000 0.0000 0.0000 0.0000 10.7683 0.0000
# 6 0.0000 0.0000 0.0000 0.0000 0.0000 14.3118
#
#
#
# Elastic Compliance Matrix: (Units=1/GPa)
#
#
# Indices 1 2 3 4 5 6 
#
# 1 0.021716 -0.004434 -0.019940 0.000000 0.000000 0.000000
# 2 -0.004434 0.035381 -0.002039 0.000000 0.000000 0.000000
# 3 -0.019940 -0.002039 0.030145 0.000000 0.000000 0.000000
# 4 0.000000 0.000000 0.000000 0.078995 0.000000 0.000000
# 5 0.000000 0.000000 0.000000 0.000000 0.092865 0.000000
# 6 0.000000 0.000000 0.000000 0.000000 0.000000 0.069872
#
#
# Mechanical properties :
#
#
# Convention : Reuss Voigt Hill
#
# Bulk Modulus (GPa) = 29.05564 56.73801 42.89683
# Shear Modulus (GPa) = 12.71385 16.21412 14.46398
#
# Velocity S-wave (km/s) = 2.67410 3.01985 2.85222
# Velocity P-wave (km/s) = 5.08689 6.63861 5.91386
#
# Compressibility (1/GPa) = 0.03441672
#
# Stress axis : x y z
#
# Youngs Moduli (GPa) = 46.04819 28.26377 33.17334
#
# Poissons Ratio (x) = 0.12532 0.66146
# Poissons Ratio (y) = 0.20417 0.06765
# Poissons Ratio (z) = 0.91818 0.05764
#
# Static dielectric constant tensor:
#      x y z
#    x 1.612170 0.000000 0.000000 
#    y 0.000000 1.647630 0.000000 
#    z 0.000000 0.000000 1.621430 
# 
# From -- ./inp_files/35471.got.cif
#   From: 2010.05.17/outbox.cif.g08.bks.cpg/sg71_18_cif.got.tgz:35471.got - 2010.06.03 16:22:01.
