data_PCOD9518619
_publ_section_title
;
Structure prediction by ZEFSAII (Michael W. Deem and Ramdas Pophale) SiO2 
 PCOD9518619
Probable space group: I M M M
;
_chemical_formula_sum "Si O2"
_cell_formula_units_Z 88
_cell_length_a 14.121733
_cell_length_b 19.799907
_cell_length_c 20.327615
_cell_angle_alpha 90.000000
_cell_angle_beta 90.000000
_cell_angle_gamma 90.000000
_cell_volume 5683.784104
_symmetry_space_group_name_H-M "I M M M"
_symmetry_group_IT_number 71
_symmetry_cell_setting 'orthorhombic'
loop_
_space_group_symop_operation_xyz
x,y,z
-x,-y,z
x,-y,-z
-x,y,-z
-x,-y,-z
x,y,-z
-x,y,z
x,-y,z
1/2+x,1/2+y,1/2+z
1/2-x,1/2-y,1/2+z
1/2+x,1/2-y,1/2-z
1/2-x,1/2+y,1/2-z
1/2-x,1/2-y,1/2-z
1/2+x,1/2+y,1/2-z
1/2-x,1/2+y,1/2+z
1/2+x,1/2-y,1/2+z
loop_
_atom_site_type_symbol
_atom_site_label
_atom_site_fract_x
_atom_site_fract_y
_atom_site_fract_z
Si Si1 0.387636 0.078418 0.829176
Si Si2 0.114376 0.924227 0.500000
Si Si3 0.109827 0.581865 0.927486
Si Si4 0.614860 0.198704 0.924699
Si Si5 0.113476 0.841834 0.367509
Si Si6 0.766233 0.419457 0.197890
O O1 0.500000 0.087725 0.814496
O O2 0.360294 0.130602 0.886187
O O3 0.325932 0.090673 0.764076
O O4 0.375368 0.000000 0.848715
O O5 0.136940 0.884810 0.433422
O O6 0.000000 0.929030 0.500000
O O7 0.154748 0.000000 0.500000
O O8 0.110288 0.500000 0.927499
O O9 0.170155 0.602292 0.864683
O O10 0.000000 0.602489 0.920869
O O11 0.144492 0.603788 0.000000
O O12 0.500000 0.200986 0.928138
O O13 0.642333 0.265147 0.883724
O O14 0.649428 0.201349 0.000000
O O15 0.170963 0.876314 0.308810
O O16 0.000000 0.844455 0.357778
O O17 0.746383 0.500000 0.192143
#
# Coordination Sequence:
#
# PCOD9518619 Si02
#       6
#    16   8  16  16  16  16
#     4   9  18  32  49  69  91 115 146 187 234 278
#     4   9  16  26  40  58  82 114 150 184 214 243
#     4   8  14  24  37  54  78 110 148 186 220 255
#     4   9  17  31  49  67  90 118 148 185 229 277
#     4  10  19  30  43  62  90 123 154 184 219 262
#     4  10  19  28  42  63  90 121 153 187 222 264
#
# _framework density 15.482642999999999
#
# number of rings (size 3 to 8) (size 9 to 14) (size 15 to 20)
#    0.000    2.818    0.909    1.636    1.273    4.364 
#    0.000    1.818    0.000    0.000    0.000    0.000 
#    0.000    2.182    0.000    4.000    0.000    0.182 
#
# Total GULP energy -245126.246404 kJ/mol
# GULP energy per Si atom -5571.051055 kJ/mol
# Density = 1.544740 g / cm^3
# Si number density = 15.482643 Si / 1000 Ang^3
#
#
#
# Elastic Constant Matrix: (Units=GPa)
#
#
# Indices 1 2 3 4 5 6 
#
# 1 47.8215 29.9924 26.1841 0.0000 0.0000 0.0000
# 2 29.9924 85.7199 42.1001 0.0000 0.0000 0.0000
# 3 26.1841 42.1001 51.2222 0.0000 0.0000 0.0000
# 4 0.0000 0.0000 0.0000 20.8366 0.0000 0.0000
# 5 0.0000 0.0000 0.0000 0.0000 13.4931 0.0000
# 6 0.0000 0.0000 0.0000 0.0000 0.0000 13.2991
#
#
#
# Elastic Compliance Matrix: (Units=1/GPa)
#
#
# Indices 1 2 3 4 5 6 
#
# 1 0.030273 -0.005017 -0.011352 0.000000 0.000000 0.000000
# 2 -0.005017 0.020394 -0.014198 0.000000 0.000000 0.000000
# 3 -0.011352 -0.014198 0.036995 0.000000 0.000000 0.000000
# 4 0.000000 0.000000 0.000000 0.047992 0.000000 0.000000
# 5 0.000000 0.000000 0.000000 0.000000 0.074112 0.000000
# 6 0.000000 0.000000 0.000000 0.000000 0.000000 0.075193
#
#
# Mechanical properties :
#
#
# Convention : Reuss Voigt Hill
#
# Bulk Modulus (GPa) = 37.69383 42.36851 40.03117
# Shear Modulus (GPa) = 14.08708 15.29157 14.68933
#
# Velocity S-wave (km/s) = 3.01967 3.14611 3.08354
# Velocity P-wave (km/s) = 6.04620 6.37353 6.21202
#
# Compressibility (1/GPa) = 0.02652954
#
# Stress axis : x y z
#
# Youngs Moduli (GPa) = 33.03265 49.03341 27.03085
#
# Poissons Ratio (x) = 0.24600 0.30684
# Poissons Ratio (y) = 0.16572 0.38377
# Poissons Ratio (z) = 0.37498 0.69616
#
# Static dielectric constant tensor:
#      x y z
#    x 1.539700 0.000000 0.000000 
#    y 0.000000 1.514590 0.000000 
#    z 0.000000 0.000000 1.507510 
# 
# From -- ./inp_files/38001.got.cif
#   From: 2010.05.17/outbox.cif.g08.bks.cpg/sg71_20_cif.got.tgz:38001.got - 2010.06.03 16:22:01.
