data_PCOD9518964
_publ_section_title
;
Structure prediction by ZEFSAII (Michael W. Deem and Ramdas Pophale) SiO2 
 PCOD9518964
Probable space group: I M M M
;
_chemical_formula_sum "Si O2"
_cell_formula_units_Z 96
_cell_length_a 30.116525
_cell_length_b 20.706474
_cell_length_c 7.660637
_cell_angle_alpha 90.000000
_cell_angle_beta 90.000000
_cell_angle_gamma 90.000000
_cell_volume 4777.227179
_symmetry_space_group_name_H-M "I M M M"
_symmetry_group_IT_number 71
_symmetry_cell_setting 'orthorhombic'
loop_
_space_group_symop_operation_xyz
x,y,z
-x,-y,z
x,-y,-z
-x,y,-z
-x,-y,-z
x,y,-z
-x,y,z
x,-y,z
1/2+x,1/2+y,1/2+z
1/2-x,1/2-y,1/2+z
1/2+x,1/2-y,1/2-z
1/2-x,1/2+y,1/2-z
1/2-x,1/2-y,1/2-z
1/2+x,1/2+y,1/2-z
1/2-x,1/2+y,1/2+z
1/2+x,1/2-y,1/2+z
loop_
_atom_site_type_symbol
_atom_site_label
_atom_site_fract_x
_atom_site_fract_y
_atom_site_fract_z
Si Si1 0.197840 0.293811 0.797633
Si Si2 0.448831 0.673008 0.213440
Si Si3 0.052476 0.429937 0.209340
Si Si4 0.715023 0.649387 0.199751
Si Si5 0.371534 0.425225 0.786343
Si Si6 0.100668 0.302077 0.699454
O O1 0.234880 0.343649 0.726362
O O2 0.199957 0.224255 0.705998
O O3 0.147359 0.315167 0.790101
O O4 0.209742 0.282121 0.000000
O O5 0.500000 0.665383 0.271397
O O6 0.414207 0.617248 0.267592
O O7 0.427620 0.741576 0.270013
O O8 0.450053 0.673071 0.000000
O O9 0.070119 0.500000 0.267222
O O10 0.073199 0.367370 0.293270
O O11 0.000000 0.429449 0.242200
O O12 0.058712 0.425612 0.000000
O O13 0.674690 0.607470 0.276271
O O14 0.719520 0.626613 0.000000
O O15 0.374615 0.500000 0.734775
O O16 0.371033 0.422863 0.000000
O O17 0.111504 0.285136 0.500000
#
# Coordination Sequence:
#
# PCOD9518964 Si02
#       6
#    16  16  16  16  16  16
#     4  10  19  30  50  75 100 130 169 213 262 314
#     4   9  17  28  44  71 104 133 166 211 257 298
#     4   9  19  36  55  75 103 138 174 213 258 311
#     4   9  17  32  50  73 100 128 168 214 259 311
#     4   9  16  28  48  72 101 135 169 209 259 311
#     4  11  20  32  51  76 108 139 171 215 259 306
#
# _framework density 20.09534
#
# number of rings (size 3 to 8) (size 9 to 14) (size 15 to 20)
#    0.000    2.500    1.667    2.000    0.000    2.333 
#    0.000    3.333    0.000    3.500    0.000    0.000 
#    0.000    1.333    0.000    0.000    0.000    0.000 
#
# Total GULP energy -267549.540530 kJ/mol
# GULP energy per Si atom -5573.948761 kJ/mol
# Density = 2.004960 g / cm^3
# Si number density = 20.095340 Si / 1000 Ang^3
#
#
#
# Elastic Constant Matrix: (Units=GPa)
#
#
# Indices 1 2 3 4 5 6 
#
# 1 160.9682 95.0391 14.7541 0.0000 0.0000 0.0000
# 2 95.0391 144.7701 6.3932 0.0000 0.0000 0.0000
# 3 14.7541 6.3932 34.2996 0.0000 0.0000 0.0000
# 4 0.0000 0.0000 0.0000 10.7885 0.0000 0.0000
# 5 0.0000 0.0000 0.0000 0.0000 13.0958 0.0000
# 6 0.0000 0.0000 0.0000 0.0000 0.0000 30.3737
#
#
#
# Elastic Compliance Matrix: (Units=1/GPa)
#
#
# Indices 1 2 3 4 5 6 
#
# 1 0.010493 -0.006745 -0.003257 0.000000 0.000000 0.000000
# 2 -0.006745 0.011300 0.000795 0.000000 0.000000 0.000000
# 3 -0.003257 0.000795 0.030408 0.000000 0.000000 0.000000
# 4 0.000000 0.000000 0.000000 0.092691 0.000000 0.000000
# 5 0.000000 0.000000 0.000000 0.000000 0.076361 0.000000
# 6 0.000000 0.000000 0.000000 0.000000 0.000000 0.032923
#
#
# Mechanical properties :
#
#
# Convention : Reuss Voigt Hill
#
# Bulk Modulus (GPa) = 29.59598 63.60118 46.59858
# Shear Modulus (GPa) = 17.61486 25.77502 21.69494
#
# Velocity S-wave (km/s) = 2.96389 3.58528 3.28929
# Velocity P-wave (km/s) = 5.14516 6.98981 6.13718
#
# Compressibility (1/GPa) = 0.03378837
#
# Stress axis : x y z
#
# Youngs Moduli (GPa) = 95.30031 88.49396 32.88661
#
# Poissons Ratio (x) = 0.59687 0.10710
# Poissons Ratio (y) = 0.64278 -0.02615
# Poissons Ratio (z) = 0.31035 -0.07035
#
# Static dielectric constant tensor:
#      x y z
#    x 1.735570 0.000000 0.000000 
#    y 0.000000 1.673730 0.000000 
#    z 0.000000 0.000000 1.807700 
# 
# From -- ./inp_files/14849.got.cif
#   From: 2010.05.17/outbox.cif.g08.bks.cpg/sg71_8_cif.got.tgz:14849.got - 2010.06.03 16:22:01.
