data_PCOD9518821
_publ_section_title
;
Structure prediction by ZEFSAII (Michael W. Deem and Ramdas Pophale) SiO2 
 PCOD9518821
Probable space group: I M M M
;
_chemical_formula_sum "Si O2"
_cell_formula_units_Z 104
_cell_length_a 22.968639
_cell_length_b 7.627186
_cell_length_c 30.211791
_cell_angle_alpha 90.000000
_cell_angle_beta 90.000000
_cell_angle_gamma 90.000000
_cell_volume 5292.685290
_symmetry_space_group_name_H-M "I M M M"
_symmetry_group_IT_number 71
_symmetry_cell_setting 'orthorhombic'
loop_
_space_group_symop_operation_xyz
x,y,z
-x,-y,z
x,-y,-z
-x,y,-z
-x,-y,-z
x,y,-z
-x,y,z
x,-y,z
1/2+x,1/2+y,1/2+z
1/2-x,1/2-y,1/2+z
1/2+x,1/2-y,1/2-z
1/2-x,1/2+y,1/2-z
1/2-x,1/2-y,1/2-z
1/2+x,1/2+y,1/2-z
1/2-x,1/2+y,1/2+z
1/2+x,1/2-y,1/2+z
loop_
_atom_site_type_symbol
_atom_site_label
_atom_site_fract_x
_atom_site_fract_y
_atom_site_fract_z
Si Si1 0.933952 0.712380 0.715542
Si Si2 0.243373 0.789766 0.697297
Si Si3 0.928617 0.000000 0.949984
Si Si4 0.370186 0.787081 0.698195
Si Si5 0.569230 0.804240 0.611844
Si Si6 0.567280 0.714130 0.948831
Si Si7 0.638668 0.297112 0.134733
O O1 0.930413 0.500000 0.712995
O O2 0.889934 0.776059 0.753703
O O3 0.915195 0.787559 0.668712
O O4 0.000000 0.757458 0.727456
O O5 0.250000 0.750000 0.750000
O O6 0.307091 0.730832 0.681429
O O7 0.191704 0.720536 0.665356
O O8 0.238491 0.000000 0.695296
O O9 0.908204 0.170599 0.924138
O O10 0.000000 0.000000 0.949303
O O11 0.909674 0.000000 0.000000
O O12 0.416508 0.740990 0.661017
O O13 0.369041 0.000000 0.701802
O O14 0.500000 0.813504 0.607148
O O15 0.593355 0.000000 0.606512
O O16 0.500000 0.767337 0.938955
O O17 0.567715 0.500000 0.947341
O O18 0.613715 0.776219 0.911725
O O19 0.580007 0.764176 0.000000
O O20 0.654174 0.500000 0.125964
#
# Coordination Sequence:
#
# PCOD9518821 Si02
#       7
#    16  16   8  16  16  16  16
#     4  10  19  30  46  67  95 133 165 193 240 295
#     4  10  19  32  48  67  95 129 165 202 243 292
#     4   9  18  32  50  76 106 130 164 214 258 310
#     4   9  17  31  48  64  93 129 166 203 239 299
#     4   9  17  31  51  73 100 135 171 210 262 314
#     4   8  14  26  45  68  95 126 156 193 248 303
#     4  10  19  30  47  72  98 122 160 210 248 287
#
# _framework density 19.649761999999999
#
# number of rings (size 3 to 8) (size 9 to 14) (size 15 to 20)
#    0.000    2.692    1.538    1.385    0.000    3.077 
#    2.769    1.538    0.000    1.385    0.000    6.462 
#    0.000    0.000    0.000    0.000    0.000    0.000 
#
# Total GULP energy -289579.881439 kJ/mol
# GULP energy per Si atom -5568.843874 kJ/mol
# Density = 1.960504 g / cm^3
# Si number density = 19.649762 Si / 1000 Ang^3
#
#
#
# Elastic Constant Matrix: (Units=GPa)
#
#
# Indices 1 2 3 4 5 6 
#
# 1 77.1901 7.1294 38.3298 0.0000 0.0000 0.0000
# 2 7.1294 41.5204 22.3762 0.0000 0.0000 0.0000
# 3 38.3298 22.3762 145.1805 0.0000 0.0000 0.0000
# 4 0.0000 0.0000 0.0000 15.4859 0.0000 0.0000
# 5 0.0000 0.0000 0.0000 0.0000 25.4810 0.0000
# 6 0.0000 0.0000 0.0000 0.0000 0.0000 8.3660
#
#
#
# Elastic Compliance Matrix: (Units=1/GPa)
#
#
# Indices 1 2 3 4 5 6 
#
# 1 0.014918 -0.000479 -0.003865 0.000000 0.000000 0.000000
# 2 -0.000479 0.026282 -0.003924 0.000000 0.000000 0.000000
# 3 -0.003865 -0.003924 0.008513 0.000000 0.000000 0.000000
# 4 0.000000 0.000000 0.000000 0.064575 0.000000 0.000000
# 5 0.000000 0.000000 0.000000 0.000000 0.039245 0.000000
# 6 0.000000 0.000000 0.000000 0.000000 0.000000 0.119531
#
#
# Mechanical properties :
#
#
# Convention : Reuss Voigt Hill
#
# Bulk Modulus (GPa) = 30.14103 44.39576 37.26839
# Shear Modulus (GPa) = 16.63015 22.93696 19.78355
#
# Velocity S-wave (km/s) = 2.91233 3.42027 3.17647
# Velocity P-wave (km/s) = 5.16539 6.18387 5.69744
#
# Compressibility (1/GPa) = 0.03317737
#
# Stress axis : x y z
#
# Youngs Moduli (GPa) = 67.03128 38.04938 117.46456
#
# Poissons Ratio (x) = 0.01822 0.45399
# Poissons Ratio (y) = 0.03209 0.46097
# Poissons Ratio (z) = 0.25907 0.14932
#
# Static dielectric constant tensor:
#      x y z
#    x 1.728070 0.000000 0.000000 
#    y 0.000000 1.742020 0.000000 
#    z 0.000000 0.000000 1.688780 
# 
# From -- ./inp_files/17268.got.cif
#   From: 2010.05.17/outbox.cif.g08.bks.cpg/sg71_9_cif.got.tgz:17268.got - 2010.06.03 16:22:01.
