data_PCOD9518066
_publ_section_title
;
Structure prediction by ZEFSAII (Michael W. Deem and Ramdas Pophale) SiO2 
 PCOD9518066
Probable space group: I M M M
;
_chemical_formula_sum "Si O2"
_cell_formula_units_Z 120
_cell_length_a 7.446987
_cell_length_b 29.757055
_cell_length_c 25.001751
_cell_angle_alpha 90.000000
_cell_angle_beta 90.000000
_cell_angle_gamma 90.000000
_cell_volume 5540.398066
_symmetry_space_group_name_H-M "I M M M"
_symmetry_group_IT_number 71
_symmetry_cell_setting 'orthorhombic'
loop_
_space_group_symop_operation_xyz
x,y,z
-x,-y,z
x,-y,-z
-x,y,-z
-x,-y,-z
x,y,-z
-x,y,z
x,-y,z
1/2+x,1/2+y,1/2+z
1/2-x,1/2-y,1/2+z
1/2+x,1/2-y,1/2-z
1/2-x,1/2+y,1/2-z
1/2-x,1/2-y,1/2-z
1/2+x,1/2+y,1/2-z
1/2-x,1/2+y,1/2+z
1/2+x,1/2-y,1/2+z
loop_
_atom_site_type_symbol
_atom_site_label
_atom_site_fract_x
_atom_site_fract_y
_atom_site_fract_z
Si Si1 0.283211 0.408909 0.118092
Si Si2 0.220414 0.225989 0.938302
Si Si3 0.281043 0.500000 0.061581
Si Si4 0.711756 0.648766 0.358629
Si Si5 0.219722 0.049946 0.845205
Si Si6 0.210414 0.687711 0.126474
Si Si7 0.716925 0.550108 0.777503
Si Si8 0.712688 0.196568 0.745708
O O1 0.500000 0.409822 0.117837
O O2 0.220609 0.453276 0.087585
O O3 0.228046 0.360288 0.098212
O O4 0.217705 0.414810 0.179281
O O5 0.282344 0.185063 0.900723
O O6 0.281584 0.271680 0.909159
O O7 0.000000 0.225985 0.938534
O O8 0.276500 0.222974 0.000000
O O9 0.500000 0.500000 0.066098
O O10 0.232650 0.500000 0.000000
O O11 0.500000 0.645560 0.368585
O O12 0.781639 0.597985 0.367539
O O13 0.725937 0.668323 0.297821
O O14 0.277074 0.053262 0.783064
O O15 0.000000 0.049509 0.846585
O O16 0.275381 0.000000 0.865094
O O17 0.287605 0.684323 0.186788
O O18 0.000000 0.697603 0.133846
O O19 0.500000 0.553267 0.775554
O O20 0.759374 0.500000 0.797509
O O21 0.500000 0.189855 0.745676
O O22 0.750000 0.250000 0.750000
#
# Coordination Sequence:
#
# PCOD9518066 Si02
#       8
#    16  16   8  16  16  16  16  16
#     4  10  18  30  50  71  92 126 169 208 254 305
#     4   9  18  34  53  70  95 136 178 209 246 304
#     4   9  18  32  49  71  99 129 167 221 272 307
#     4  10  18  32  54  79 104 136 177 212 251 305
#     4   8  14  23  41  72 104 127 155 201 246 290
#     4  10  21  35  49  72 103 131 167 212 258 307
#     4   8  12  21  38  62  90 119 152 186 226 283
#     4  11  21  34  53  78 108 137 168 208 261 316
#
# _framework density 21.659094
#
# number of rings (size 3 to 8) (size 9 to 14) (size 15 to 20)
#    0.000    2.600    2.000    2.000    0.000    2.667 
#    0.000    0.333    0.000    2.400    0.000    2.800 
#    0.000    0.000    0.000    1.200    0.000    1.333 
#
# Total GULP energy -334623.470213 kJ/mol
# GULP energy per Si atom -5577.057837 kJ/mol
# Density = 2.160980 g / cm^3
# Si number density = 21.659094 Si / 1000 Ang^3
#
#
#
# Elastic Constant Matrix: (Units=GPa)
#
#
# Indices 1 2 3 4 5 6 
#
# 1 63.5561 -1.7813 3.8310 0.0000 0.0000 0.0000
# 2 -1.7813 227.5912 83.8440 0.0000 0.0000 0.0000
# 3 3.8310 83.8440 113.1978 0.0000 0.0000 0.0000
# 4 0.0000 0.0000 0.0000 7.9598 0.0000 0.0000
# 5 0.0000 0.0000 0.0000 0.0000 3.4460 0.0000
# 6 0.0000 0.0000 0.0000 0.0000 0.0000 8.5517
#
#
#
# Elastic Compliance Matrix: (Units=1/GPa)
#
#
# Indices 1 2 3 4 5 6 
#
# 1 0.015798 0.000441 -0.000861 0.000000 0.000000 0.000000
# 2 0.000441 0.006055 -0.004500 0.000000 0.000000 0.000000
# 3 -0.000861 -0.004500 0.012196 0.000000 0.000000 0.000000
# 4 0.000000 0.000000 0.000000 0.125632 0.000000 0.000000
# 5 0.000000 0.000000 0.000000 0.000000 0.290191 0.000000
# 6 0.000000 0.000000 0.000000 0.000000 0.000000 0.116936
#
#
# Mechanical properties :
#
#
# Convention : Reuss Voigt Hill
#
# Bulk Modulus (GPa) = 41.30634 64.01471 52.66053
# Shear Modulus (GPa) = 8.55113 25.22160 16.88636
#
# Velocity S-wave (km/s) = 1.98913 3.41615 2.79524
# Velocity P-wave (km/s) = 4.93842 6.72160 5.89779
#
# Compressibility (1/GPa) = 0.02420936
#
# Stress axis : x y z
#
# Youngs Moduli (GPa) = 63.29751 165.15286 81.99308
#
# Poissons Ratio (x) = -0.07282 0.07062
# Poissons Ratio (y) = -0.02791 0.36895
# Poissons Ratio (z) = 0.05452 0.74315
#
# Static dielectric constant tensor:
#      x y z
#    x 1.867990 0.000000 0.000000 
#    y 0.000000 1.579590 0.000000 
#    z 0.000000 0.000000 1.396460 
# 
# From -- ./inp_files/63787.got.cif
#   From: 2010.05.17/outbox.cif.g08.bks.cpg/sg71_32_cif.got.tgz:63787.got - 2010.06.03 16:22:01.
