data_PCOD9518080
_publ_section_title
;
Structure prediction by ZEFSAII (Michael W. Deem and Ramdas Pophale) SiO2 
 PCOD9518080
Probable space group: I M M M
;
_chemical_formula_sum "Si O2"
_cell_formula_units_Z 96
_cell_length_a 24.312477
_cell_length_b 18.983341
_cell_length_c 12.808436
_cell_angle_alpha 90.000000
_cell_angle_beta 90.000000
_cell_angle_gamma 90.000000
_cell_volume 5911.503615
_symmetry_space_group_name_H-M "I M M M"
_symmetry_group_IT_number 71
_symmetry_cell_setting 'orthorhombic'
loop_
_space_group_symop_operation_xyz
x,y,z
-x,-y,z
x,-y,-z
-x,y,-z
-x,-y,-z
x,y,-z
-x,y,z
x,-y,z
1/2+x,1/2+y,1/2+z
1/2-x,1/2-y,1/2+z
1/2+x,1/2-y,1/2-z
1/2-x,1/2+y,1/2-z
1/2-x,1/2-y,1/2-z
1/2+x,1/2+y,1/2-z
1/2-x,1/2+y,1/2+z
1/2+x,1/2-y,1/2+z
loop_
_atom_site_type_symbol
_atom_site_label
_atom_site_fract_x
_atom_site_fract_y
_atom_site_fract_z
Si Si1 0.315849 0.282718 0.376019
Si Si2 0.794804 0.921875 0.619029
Si Si3 0.606999 0.671595 0.798048
Si Si4 0.500000 0.414670 0.127111
Si Si5 0.605111 0.831860 0.875454
Si Si6 0.500000 0.080257 0.872851
Si Si7 0.214385 0.352698 0.736101
O O1 0.321486 0.276302 0.500000
O O2 0.369284 0.317506 0.319705
O O3 0.261663 0.326780 0.343651
O O4 0.302901 0.208976 0.317679
O O5 0.776737 0.913371 0.500000
O O6 0.841133 0.864445 0.644026
O O7 0.743715 0.911857 0.695673
O O8 0.819076 0.000000 0.631430
O O9 0.553746 0.623574 0.822466
O O10 0.598823 0.750486 0.841234
O O11 0.500000 0.500000 0.143716
O O12 0.500000 0.403495 0.000000
O O13 0.553284 0.876867 0.839400
O O14 0.659696 0.866047 0.827924
O O15 0.608144 0.832981 0.000000
O O16 0.500000 0.000000 0.836852
O O17 0.500000 0.079414 0.000000
#
# Coordination Sequence:
#
# PCOD9518080 Si02
#       7
#    16  16  16   8  16   8  16
#     4   9  17  31  49  70  99 129 157 200 248 286
#     4  10  19  31  47  69 101 133 157 193 245 293
#     4  10  20  32  50  75  99 126 165 205 245 297
#     4  11  21  33  52  75 100 130 165 211 260 303
#     4  10  18  30  50  73  98 126 157 199 244 287
#     4   9  19  33  47  66  94 126 154 186 237 290
#     4   9  18  28  47  74  95 122 162 198 234 288
#
# _framework density 16.239522000000001
#
# number of rings (size 3 to 8) (size 9 to 14) (size 15 to 20)
#    0.000    2.333    0.000    4.500    0.000    2.667 
#    0.000    0.417    0.000   17.000    0.000    1.750 
#    0.000   18.000    0.000    0.000    0.000    0.000 
#
# Total GULP energy -267361.073308 kJ/mol
# GULP energy per Si atom -5570.022361 kJ/mol
# Density = 1.620256 g / cm^3
# Si number density = 16.239522 Si / 1000 Ang^3
#
#
#
# Elastic Constant Matrix: (Units=GPa)
#
#
# Indices 1 2 3 4 5 6 
#
# 1 129.6348 51.6819 46.7202 0.0000 0.0000 0.0000
# 2 51.6819 90.7007 23.7891 0.0000 0.0000 0.0000
# 3 46.7202 23.7891 96.6445 0.0000 0.0000 0.0000
# 4 0.0000 0.0000 0.0000 18.0214 0.0000 0.0000
# 5 0.0000 0.0000 0.0000 0.0000 21.3714 0.0000
# 6 0.0000 0.0000 0.0000 0.0000 0.0000 23.4318
#
#
#
# Elastic Compliance Matrix: (Units=1/GPa)
#
#
# Indices 1 2 3 4 5 6 
#
# 1 0.011361 -0.005381 -0.004168 0.000000 0.000000 0.000000
# 2 -0.005381 0.014334 -0.000927 0.000000 0.000000 0.000000
# 3 -0.004168 -0.000927 0.012590 0.000000 0.000000 0.000000
# 4 0.000000 0.000000 0.000000 0.055490 0.000000 0.000000
# 5 0.000000 0.000000 0.000000 0.000000 0.046791 0.000000
# 6 0.000000 0.000000 0.000000 0.000000 0.000000 0.042677
#
#
# Mechanical properties :
#
#
# Convention : Reuss Voigt Hill
#
# Bulk Modulus (GPa) = 57.68867 62.37359 60.03113
# Shear Modulus (GPa) = 23.81253 25.55083 24.68168
#
# Velocity S-wave (km/s) = 3.83343 3.97088 3.90276
# Velocity P-wave (km/s) = 7.42929 7.71464 7.57331
#
# Compressibility (1/GPa) = 0.01733443
#
# Stress axis : x y z
#
# Youngs Moduli (GPa) = 88.01946 69.76246 79.42630
#
# Poissons Ratio (x) = 0.37536 0.33103
# Poissons Ratio (y) = 0.47359 0.07365
# Poissons Ratio (z) = 0.36685 0.06469
#
# Static dielectric constant tensor:
#      x y z
#    x 1.544920 0.000000 0.000000 
#    y 0.000000 1.556840 0.000000 
#    z 0.000000 0.000000 1.530490 
# 
# From -- ./inp_files/26041.got.cif
#   From: 2010.05.17/outbox.cif.g08.bks.cpg/sg71_14_cif.got.tgz:26041.got - 2010.06.03 16:22:01.
