data_PCOD9518518
_publ_section_title
;
Structure prediction by ZEFSAII (Michael W. Deem and Ramdas Pophale) SiO2 
 PCOD9518518
Probable space group: I M M M
;
_chemical_formula_sum "Si O2"
_cell_formula_units_Z 96
_cell_length_a 13.625407
_cell_length_b 15.867029
_cell_length_c 27.296630
_cell_angle_alpha 90.000000
_cell_angle_beta 90.000000
_cell_angle_gamma 90.000000
_cell_volume 5901.387498
_symmetry_space_group_name_H-M "I M M M"
_symmetry_group_IT_number 71
_symmetry_cell_setting 'orthorhombic'
loop_
_space_group_symop_operation_xyz
x,y,z
-x,-y,z
x,-y,-z
-x,y,-z
-x,-y,-z
x,y,-z
-x,y,z
x,-y,z
1/2+x,1/2+y,1/2+z
1/2-x,1/2-y,1/2+z
1/2+x,1/2-y,1/2-z
1/2-x,1/2+y,1/2-z
1/2-x,1/2-y,1/2-z
1/2+x,1/2+y,1/2-z
1/2-x,1/2+y,1/2+z
1/2+x,1/2-y,1/2+z
loop_
_atom_site_type_symbol
_atom_site_label
_atom_site_fract_x
_atom_site_fract_y
_atom_site_fract_z
Si Si1 0.252281 0.704321 0.129158
Si Si2 0.799467 0.500000 0.557741
Si Si3 0.386343 0.670177 0.688691
Si Si4 0.115449 0.682608 0.557825
Si Si5 0.615772 0.899456 0.443625
Si Si6 0.109978 0.000000 0.875115
Si Si7 0.883250 0.900187 0.703657
O O1 0.187533 0.763801 0.164538
O O2 0.319654 0.760683 0.093492
O O3 0.179943 0.650880 0.094809
O O4 0.319865 0.643277 0.161618
O O5 0.778962 0.500000 0.500000
O O6 0.859624 0.415144 0.568460
O O7 0.697536 0.500000 0.586484
O O8 0.500000 0.699987 0.686293
O O9 0.381672 0.583068 0.658248
O O10 0.363396 0.646203 0.744730
O O11 0.137612 0.697747 0.500000
O O12 0.000000 0.697973 0.565112
O O13 0.641144 0.877465 0.500000
O O14 0.500000 0.881980 0.436989
O O15 0.629581 0.000000 0.438166
O O16 0.000000 0.000000 0.897185
O O17 0.000000 0.892153 0.693899
O O18 0.861803 0.000000 0.708107
#
# Coordination Sequence:
#
# PCOD9518518 Si02
#       7
#    16   8  16  16  16   8  16
#     4  12  20  32  55  83 103 126 173 223 261 289
#     4  10  19  35  54  75 103 144 181 208 248 311
#     4  10  20  35  55  76 105 138 169 208 258 315
#     4  10  21  35  51  73 104 139 174 212 255 306
#     4   9  19  36  55  76 106 141 171 203 254 319
#     4  10  18  34  55  78 106 143 172 204 258 313
#     4  10  21  37  54  74 102 137 174 209 253 313
#
# _framework density 16.26736
#
# number of rings (size 3 to 8) (size 9 to 14) (size 15 to 20)
#    0.000    1.833    2.500    3.250    0.000    1.167 
#    0.000    0.000    0.000    0.000    0.000    7.000 
#    0.000    0.000    0.000    0.000    0.000    0.000 
#
# Total GULP energy -267866.688635 kJ/mol
# GULP energy per Si atom -5580.556013 kJ/mol
# Density = 1.623033 g / cm^3
# Si number density = 16.267360 Si / 1000 Ang^3
#
#
#
# Elastic Constant Matrix: (Units=GPa)
#
#
# Indices 1 2 3 4 5 6 
#
# 1 99.9775 71.5783 86.7673 0.0000 0.0000 0.0000
# 2 71.5783 91.6831 81.7985 0.0000 0.0000 0.0000
# 3 86.7673 81.7985 114.7932 0.0000 0.0000 0.0000
# 4 0.0000 0.0000 0.0000 30.9263 0.0000 0.0000
# 5 0.0000 0.0000 0.0000 0.0000 36.3804 0.0000
# 6 0.0000 0.0000 0.0000 0.0000 0.0000 25.9540
#
#
#
# Elastic Compliance Matrix: (Units=1/GPa)
#
#
# Indices 1 2 3 4 5 6 
#
# 1 0.031699 -0.009255 -0.017365 0.000000 0.000000 0.000000
# 2 -0.009255 0.032646 -0.016267 0.000000 0.000000 0.000000
# 3 -0.017365 -0.016267 0.033428 0.000000 0.000000 0.000000
# 4 0.000000 0.000000 0.000000 0.032335 0.000000 0.000000
# 5 0.000000 0.000000 0.000000 0.000000 0.027487 0.000000
# 6 0.000000 0.000000 0.000000 0.000000 0.000000 0.038530
#
#
# Mechanical properties :
#
#
# Convention : Reuss Voigt Hill
#
# Bulk Modulus (GPa) = 83.34106 87.41577 85.37841
# Shear Modulus (GPa) = 17.48871 23.07279 20.28075
#
# Velocity S-wave (km/s) = 3.28240 3.77018 3.53471
# Velocity P-wave (km/s) = 8.10610 8.53264 8.32210
#
# Compressibility (1/GPa) = 0.01199889
#
# Stress axis : x y z
#
# Youngs Moduli (GPa) = 31.54710 30.63161 29.91469
#
# Poissons Ratio (x) = 0.28349 0.51947
# Poissons Ratio (y) = 0.29196 0.48663
# Poissons Ratio (z) = 0.54781 0.49829
#
# Static dielectric constant tensor:
#      x y z
#    x 1.524330 0.000000 0.000000 
#    y 0.000000 1.524000 0.000000 
#    z 0.000000 0.000000 1.522630 
# 
# From -- ./inp_files/22593.got.cif
#   From: 2010.05.17/outbox.cif.g08.bks.cpg/sg71_12_cif.got.tgz:22593.got - 2010.06.03 16:22:01.
