data_PCOD9518548
_publ_section_title
;
Structure prediction by ZEFSAII (Michael W. Deem and Ramdas Pophale) SiO2 
 PCOD9518548
Probable space group: I M M M
;
_chemical_formula_sum "Si O2"
_cell_formula_units_Z 104
_cell_length_a 22.104556
_cell_length_b 14.937924
_cell_length_c 17.706507
_cell_angle_alpha 90.000000
_cell_angle_beta 90.000000
_cell_angle_gamma 90.000000
_cell_volume 5846.620930
_symmetry_space_group_name_H-M "I M M M"
_symmetry_group_IT_number 71
_symmetry_cell_setting 'orthorhombic'
loop_
_space_group_symop_operation_xyz
x,y,z
-x,-y,z
x,-y,-z
-x,y,-z
-x,-y,-z
x,y,-z
-x,y,z
x,-y,z
1/2+x,1/2+y,1/2+z
1/2-x,1/2-y,1/2+z
1/2+x,1/2-y,1/2-z
1/2-x,1/2+y,1/2-z
1/2-x,1/2-y,1/2-z
1/2+x,1/2+y,1/2-z
1/2-x,1/2+y,1/2+z
1/2+x,1/2-y,1/2+z
loop_
_atom_site_type_symbol
_atom_site_label
_atom_site_fract_x
_atom_site_fract_y
_atom_site_fract_z
Si Si1 0.500000 0.601746 0.092235
Si Si2 0.608406 0.273764 0.912824
Si Si3 0.269995 0.340866 0.707695
Si Si4 0.428042 0.897453 0.656481
Si Si5 0.329146 0.218109 0.588527
Si Si6 0.364661 0.900544 0.820529
Si Si7 0.215693 0.898644 0.631857
O O1 0.500000 0.500000 0.119064
O O2 0.558166 0.657572 0.116492
O O3 0.500000 0.598447 0.000000
O O4 0.610379 0.181643 0.868305
O O5 0.671037 0.327148 0.905350
O O6 0.595754 0.254786 0.000000
O O7 0.250000 0.250000 0.750000
O O8 0.311825 0.304539 0.639942
O O9 0.208020 0.387747 0.681944
O O10 0.296744 0.395967 0.777851
O O11 0.500000 0.882718 0.665030
O O12 0.394794 0.823216 0.606151
O O13 0.393723 0.893624 0.737238
O O14 0.419936 0.000000 0.627751
O O15 0.321270 0.236445 0.500000
O O16 0.282385 0.139223 0.613880
O O17 0.378782 0.000000 0.849694
O O18 0.208103 0.000000 0.604272
#
# Coordination Sequence:
#
# PCOD9518548 Si02
#       7
#     8  16  16  16  16  16  16
#     4   9  20  38  55  73 107 147 179 222 284 340
#     4  11  22  36  53  80 113 147 186 235 287 343
#     4  10  18  35  55  77 109 143 181 228 287 337
#     4  10  21  36  54  78 110 152 199 241 285 341
#     4  11  21  34  54  81 115 147 185 233 289 348
#     4  11  21  37  57  79 111 154 195 234 283 341
#     4  11  20  33  57  82 106 142 186 232 284 343
#
# _framework density 17.788053000000001
#
# number of rings (size 3 to 8) (size 9 to 14) (size 15 to 20)
#    0.000    1.462    6.154    1.846    1.077    3.385 
#    0.000    0.769    0.000    2.769    0.000    0.000 
#    0.000    0.000    0.000    8.154    0.000    0.000 
#
# Total GULP energy -289960.607145 kJ/mol
# GULP energy per Si atom -5576.165522 kJ/mol
# Density = 1.774757 g / cm^3
# Si number density = 17.788053 Si / 1000 Ang^3
#
#
#
# Elastic Constant Matrix: (Units=GPa)
#
#
# Indices 1 2 3 4 5 6 
#
# 1 76.1313 15.8955 8.1980 0.0000 0.0000 0.0000
# 2 15.8955 93.1052 15.6756 0.0000 0.0000 0.0000
# 3 8.1980 15.6756 70.4362 0.0000 0.0000 0.0000
# 4 0.0000 0.0000 0.0000 -1.9630 0.0000 0.0000
# 5 0.0000 0.0000 0.0000 0.0000 15.0795 0.0000
# 6 0.0000 0.0000 0.0000 0.0000 0.0000 23.3346
#
#
#
# Elastic Compliance Matrix: (Units=1/GPa)
#
#
# Indices 1 2 3 4 5 6 
#
# 1 0.013705 -0.002152 -0.001116 0.000000 0.000000 0.000000
# 2 -0.002152 0.011497 -0.002308 0.000000 0.000000 0.000000
# 3 -0.001116 -0.002308 0.014841 0.000000 0.000000 0.000000
# 4 0.000000 0.000000 0.000000 -0.509432 0.000000 0.000000
# 5 0.000000 0.000000 0.000000 0.000000 0.066315 0.000000
# 6 0.000000 0.000000 0.000000 0.000000 0.000000 0.042855
#
#
# Mechanical properties :
#
#
# Convention : Reuss Voigt Hill
#
# Bulk Modulus (GPa) = 34.61428 35.46786 35.04107
# Shear Modulus (GPa) = -14.73024 20.61714 2.94345
#
# Velocity S-wave (km/s) = -2.88079 3.40817 1.28776
# Velocity P-wave (km/s) = 2.90453 5.95566 4.68541
#
# Compressibility (1/GPa) = 0.02888981
#
# Stress axis : x y z
#
# Youngs Moduli (GPa) = 72.96777 86.98291 67.38170
#
# Poissons Ratio (x) = 0.18717 0.07521
# Poissons Ratio (y) = 0.15701 0.15552
# Poissons Ratio (z) = 0.08145 0.20077
#
# Static dielectric constant tensor:
#      x y z
#    x 1.663660 0.000000 0.000000 
#    y 0.000000 1.604770 0.000000 
#    z 0.000000 0.000000 1.628780 
# 
# From -- ./inp_files/47318.got.cif
#   From: 2010.05.17/outbox.cif.g08.bks.cpg/sg71_24_cif.got.tgz:47318.got - 2010.06.03 16:22:01.
