data_PCOD9518196
_publ_section_title
;
Structure prediction by ZEFSAII (Michael W. Deem and Ramdas Pophale) SiO2 
 PCOD9518196
Probable space group: I M M M
;
_chemical_formula_sum "Si O2"
_cell_formula_units_Z 88
_cell_length_a 8.400993
_cell_length_b 20.643095
_cell_length_c 27.563681
_cell_angle_alpha 90.000000
_cell_angle_beta 90.000000
_cell_angle_gamma 90.000000
_cell_volume 4780.162374
_symmetry_space_group_name_H-M "I M M M"
_symmetry_group_IT_number 71
_symmetry_cell_setting 'orthorhombic'
loop_
_space_group_symop_operation_xyz
x,y,z
-x,-y,z
x,-y,-z
-x,y,-z
-x,-y,-z
x,y,-z
-x,y,z
x,-y,z
1/2+x,1/2+y,1/2+z
1/2-x,1/2-y,1/2+z
1/2+x,1/2-y,1/2-z
1/2-x,1/2+y,1/2-z
1/2-x,1/2-y,1/2-z
1/2+x,1/2+y,1/2-z
1/2-x,1/2+y,1/2+z
1/2+x,1/2-y,1/2+z
loop_
_atom_site_type_symbol
_atom_site_label
_atom_site_fract_x
_atom_site_fract_y
_atom_site_fract_z
Si Si1 0.188630 0.763365 0.133946
Si Si2 0.245178 0.000000 0.205084
Si Si3 0.807878 0.861668 0.781327
Si Si4 0.310030 0.135588 0.055845
Si Si5 0.183822 0.500000 0.810432
Si Si6 0.814126 0.132641 0.331484
Si Si7 0.822103 0.000000 0.906503
O O1 0.231052 0.803735 0.182618
O O2 0.236133 0.808872 0.089338
O O3 0.268307 0.693275 0.135690
O O4 0.000000 0.754253 0.134448
O O5 0.298327 0.075408 0.205287
O O6 0.198867 0.000000 0.262958
O O7 0.167445 0.000000 0.151926
O O8 0.783825 0.847070 0.724810
O O9 0.000000 0.877790 0.787847
O O10 0.500000 0.141704 0.057480
O O11 0.263463 0.065076 0.076236
O O12 0.257168 0.140545 0.000000
O O13 0.218072 0.566110 0.838608
O O14 0.000000 0.500000 0.792773
O O15 0.000000 0.118161 0.336367
O O16 0.000000 0.000000 0.926700
#
# Coordination Sequence:
#
# PCOD9518196 Si02
#       7
#    16   8  16  16   8  16   8
#     4  11  21  35  56  81 107 141 186 232 277 331
#     4  10  18  31  49  77 109 148 184 231 277 316
#     4   9  17  30  49  75 107 143 182 225 267 319
#     4  11  25  42  57  78 110 146 187 237 290 338
#     4  10  21  36  54  81 113 147 189 229 263 319
#     4  10  20  35  54  79 112 149 180 219 276 332
#     4  12  22  37  60  81 106 143 194 242 283 330
#
# _framework density 18.409417000000001
#
# number of rings (size 3 to 8) (size 9 to 14) (size 15 to 20)
#    0.000    1.636    1.818    3.818    0.000    6.182 
#    0.000    1.818    0.000    0.000    0.000    0.636 
#    0.000    5.091    0.000    0.000    0.000    0.000 
#
# Total GULP energy -245113.101524 kJ/mol
# GULP energy per Si atom -5570.752307 kJ/mol
# Density = 1.836752 g / cm^3
# Si number density = 18.409417 Si / 1000 Ang^3
#
#
#
# Elastic Constant Matrix: (Units=GPa)
#
#
# Indices 1 2 3 4 5 6 
#
# 1 39.6698 22.2201 4.5985 0.0000 0.0000 0.0000
# 2 22.2201 135.8221 36.5814 0.0000 0.0000 0.0000
# 3 4.5985 36.5814 50.1758 0.0000 0.0000 0.0000
# 4 0.0000 0.0000 0.0000 17.7688 0.0000 0.0000
# 5 0.0000 0.0000 0.0000 0.0000 13.2619 0.0000
# 6 0.0000 0.0000 0.0000 0.0000 0.0000 24.3106
#
#
#
# Elastic Compliance Matrix: (Units=1/GPa)
#
#
# Indices 1 2 3 4 5 6 
#
# 1 0.027788 -0.004803 0.000955 0.000000 0.000000 0.000000
# 2 -0.004803 0.009992 -0.006844 0.000000 0.000000 0.000000
# 3 0.000955 -0.006844 0.024832 0.000000 0.000000 0.000000
# 4 0.000000 0.000000 0.000000 0.056278 0.000000 0.000000
# 5 0.000000 0.000000 0.000000 0.000000 0.075404 0.000000
# 6 0.000000 0.000000 0.000000 0.000000 0.000000 0.041134
#
#
# Mechanical properties :
#
#
# Convention : Reuss Voigt Hill
#
# Bulk Modulus (GPa) = 24.25594 39.16308 31.70951
# Shear Modulus (GPa) = 18.48044 21.88611 20.18328
#
# Velocity S-wave (km/s) = 3.17181 3.45172 3.31472
# Velocity P-wave (km/s) = 5.15929 6.09962 5.64906
#
# Compressibility (1/GPa) = 0.04122701
#
# Stress axis : x y z
#
# Youngs Moduli (GPa) = 35.98697 100.08183 40.26989
#
# Poissons Ratio (x) = 0.48072 -0.03847
# Poissons Ratio (y) = 0.17286 0.27563
# Poissons Ratio (z) = -0.03438 0.68501
#
# Static dielectric constant tensor:
#      x y z
#    x 1.677650 0.000000 0.000000 
#    y 0.000000 1.658910 0.000000 
#    z 0.000000 0.000000 1.612920 
# 
# From -- ./inp_files/57628.got.cif
#   From: 2010.05.17/outbox.cif.g08.bks.cpg/sg71_29_cif.got.tgz:57628.got - 2010.06.03 16:22:01.
