data_PCOD9518504
_publ_section_title
;
Structure prediction by ZEFSAII (Michael W. Deem and Ramdas Pophale) SiO2 
 PCOD9518504
Probable space group: I M M M
;
_chemical_formula_sum "Si O2"
_cell_formula_units_Z 96
_cell_length_a 24.407816
_cell_length_b 12.670212
_cell_length_c 14.930165
_cell_angle_alpha 90.000000
_cell_angle_beta 90.000000
_cell_angle_gamma 90.000000
_cell_volume 4617.186420
_symmetry_space_group_name_H-M "I M M M"
_symmetry_group_IT_number 71
_symmetry_cell_setting 'orthorhombic'
loop_
_space_group_symop_operation_xyz
x,y,z
-x,-y,z
x,-y,-z
-x,y,-z
-x,-y,-z
x,y,-z
-x,y,z
x,-y,z
1/2+x,1/2+y,1/2+z
1/2-x,1/2-y,1/2+z
1/2+x,1/2-y,1/2-z
1/2-x,1/2+y,1/2-z
1/2-x,1/2-y,1/2-z
1/2+x,1/2+y,1/2-z
1/2-x,1/2+y,1/2+z
1/2+x,1/2-y,1/2+z
loop_
_atom_site_type_symbol
_atom_site_label
_atom_site_fract_x
_atom_site_fract_y
_atom_site_fract_z
Si Si1 0.844053 0.117343 0.605730
Si Si2 0.892233 0.500000 0.390023
Si Si3 0.176346 0.829601 0.106612
Si Si4 0.278942 0.881681 0.390187
Si Si5 0.441334 0.381358 0.673012
Si Si6 0.763300 0.500000 0.390634
Si Si7 0.438204 0.226521 0.838242
O O1 0.837798 0.107137 0.500000
O O2 0.783235 0.146115 0.637962
O O3 0.890681 0.202548 0.618891
O O4 0.857319 0.000000 0.641544
O O5 0.897541 0.500000 0.500000
O O6 0.827199 0.500000 0.367325
O O7 0.920118 0.605400 0.350011
O O8 0.181808 0.710723 0.142125
O O9 0.116383 0.874715 0.123636
O O10 0.226764 0.900633 0.140372
O O11 0.183600 0.825793 0.000000
O O12 0.280860 0.884184 0.500000
O O13 0.291613 0.000000 0.359488
O O14 0.500000 0.373559 0.622642
O O15 0.442563 0.500000 0.714490
O O16 0.440871 0.283139 0.741328
O O17 0.762778 0.500000 0.500000
O O18 0.500000 0.238109 0.876313
#
# Coordination Sequence:
#
# PCOD9518504 Si02
#       7
#    16   8  16  16  16   8  16
#     4   9  17  31  53  80 109 140 181 231 274 324
#     4  11  23  40  61  85 117 151 191 237 275 327
#     4  10  18  33  60  87 112 144 187 234 281 343
#     4   8  15  29  50  78 111 144 175 217 279 333
#     4  10  22  40  59  79 111 150 186 235 292 338
#     4   9  18  33  57  89 117 143 179 234 296 336
#     4  11  23  38  55  76 108 153 191 227 281 334
#
# _framework density 20.791882999999999
#
# number of rings (size 3 to 8) (size 9 to 14) (size 15 to 20)
#    0.000    2.333    0.833    3.250    0.000    5.667 
#    1.500    5.000    0.000    0.000    0.000    2.333 
#    0.000    0.000    0.000    0.000    0.000    0.000 
#
# Total GULP energy -267393.851445 kJ/mol
# GULP energy per Si atom -5570.705238 kJ/mol
# Density = 2.074456 g / cm^3
# Si number density = 20.791883 Si / 1000 Ang^3
#
#
#
# Elastic Constant Matrix: (Units=GPa)
#
#
# Indices 1 2 3 4 5 6 
#
# 1 114.3487 76.5974 1.8706 0.0000 0.0000 0.0000
# 2 76.5974 168.7571 12.8494 0.0000 0.0000 0.0000
# 3 1.8706 12.8494 16.5606 0.0000 0.0000 0.0000
# 4 0.0000 0.0000 0.0000 18.7673 0.0000 0.0000
# 5 0.0000 0.0000 0.0000 0.0000 18.8351 0.0000
# 6 0.0000 0.0000 0.0000 0.0000 0.0000 15.0451
#
#
#
# Elastic Compliance Matrix: (Units=1/GPa)
#
#
# Indices 1 2 3 4 5 6 
#
# 1 0.012727 -0.006023 0.003236 0.000000 0.000000 0.000000
# 2 -0.006023 0.009148 -0.006418 0.000000 0.000000 0.000000
# 3 0.003236 -0.006418 0.064998 0.000000 0.000000 0.000000
# 4 0.000000 0.000000 0.000000 0.053284 0.000000 0.000000
# 5 0.000000 0.000000 0.000000 0.000000 0.053093 0.000000
# 6 0.000000 0.000000 0.000000 0.000000 0.000000 0.066467
#
#
# Mechanical properties :
#
#
# Convention : Reuss Voigt Hill
#
# Bulk Modulus (GPa) = 14.60639 53.58901 34.09770
# Shear Modulus (GPa) = 16.61418 24.41942 20.51680
#
# Velocity S-wave (km/s) = 2.82985 3.43077 3.14470
# Velocity P-wave (km/s) = 4.20924 6.44388 5.44248
#
# Compressibility (1/GPa) = 0.06846319
#
# Stress axis : x y z
#
# Youngs Moduli (GPa) = 78.57462 109.31259 15.38501
#
# Poissons Ratio (x) = 0.65838 -0.04978
# Poissons Ratio (y) = 0.47325 0.09874
# Poissons Ratio (z) = -0.25424 0.70153
#
# Static dielectric constant tensor:
#      x y z
#    x 1.746890 0.000000 0.000000 
#    y 0.000000 1.772570 0.000000 
#    z 0.000000 0.000000 1.788890 
# 
# From -- ./inp_files/55719.got.cif
#   From: 2010.05.17/outbox.cif.g08.bks.cpg/sg71_28_cif.got.tgz:55719.got - 2010.06.03 16:22:01.
