data_PCOD9518706
_publ_section_title
;
Structure prediction by ZEFSAII (Michael W. Deem and Ramdas Pophale) SiO2 
 PCOD9518706
Probable space group: I M M M
;
_chemical_formula_sum "Si O2"
_cell_formula_units_Z 88
_cell_length_a 13.350603
_cell_length_b 17.249505
_cell_length_c 22.468387
_cell_angle_alpha 90.000000
_cell_angle_beta 90.000000
_cell_angle_gamma 90.000000
_cell_volume 5174.273898
_symmetry_space_group_name_H-M "I M M M"
_symmetry_group_IT_number 71
_symmetry_cell_setting 'orthorhombic'
loop_
_space_group_symop_operation_xyz
x,y,z
-x,-y,z
x,-y,-z
-x,y,-z
-x,-y,-z
x,y,-z
-x,y,z
x,-y,z
1/2+x,1/2+y,1/2+z
1/2-x,1/2-y,1/2+z
1/2+x,1/2-y,1/2-z
1/2-x,1/2+y,1/2-z
1/2-x,1/2-y,1/2-z
1/2+x,1/2+y,1/2-z
1/2-x,1/2+y,1/2+z
1/2+x,1/2-y,1/2+z
loop_
_atom_site_type_symbol
_atom_site_label
_atom_site_fract_x
_atom_site_fract_y
_atom_site_fract_z
Si Si1 0.183623 0.824936 0.314475
Si Si2 0.816222 0.589923 0.353772
Si Si3 0.387983 0.406774 0.303364
Si Si4 0.379236 0.409385 0.932226
Si Si5 0.000000 0.405126 0.431549
Si Si6 0.112948 0.674187 0.751174
O O1 0.138249 0.882244 0.264021
O O2 0.162271 0.855808 0.379856
O O3 0.133873 0.743424 0.296110
O O4 0.301757 0.818818 0.300578
O O5 0.803504 0.500000 0.369611
O O6 0.703764 0.622727 0.344672
O O7 0.898486 0.622510 0.399237
O O8 0.866095 0.598523 0.288634
O O9 0.500000 0.378870 0.318376
O O10 0.388025 0.500000 0.306541
O O11 0.500000 0.405218 0.929741
O O12 0.351974 0.500000 0.921957
O O13 0.349032 0.388876 0.000000
O O14 0.000000 0.500000 0.427673
O O15 0.000000 0.382910 0.500000
O O16 0.000000 0.677650 0.772713
#
# Coordination Sequence:
#
# PCOD9518706 Si02
#       6
#    16  16  16  16   8  16
#     4  10  19  29  45  68  94 123 152 188 236 289
#     4   9  17  29  44  62  86 116 150 188 227 273
#     4   9  16  26  43  66  89 115 147 184 228 276
#     4   9  17  30  49  71  96 127 160 196 238 284
#     4   9  16  28  46  62  80 110 144 180 220 264
#     4  10  19  30  45  66  93 121 151 192 238 281
#
# _framework density 17.007217000000001
#
# number of rings (size 3 to 8) (size 9 to 14) (size 15 to 20)
#    0.000    2.636    0.909    2.727    0.000    2.182 
#    0.000    0.909    0.000    1.091    0.000    5.091 
#    0.000    8.727    0.000    0.364    0.000    0.000 
#
# Total GULP energy -244961.974615 kJ/mol
# GULP energy per Si atom -5567.317605 kJ/mol
# Density = 1.696851 g / cm^3
# Si number density = 17.007217 Si / 1000 Ang^3
#
#
#
# Elastic Constant Matrix: (Units=GPa)
#
#
# Indices 1 2 3 4 5 6 
#
# 1 151.0020 16.9001 51.1731 0.0000 0.0000 0.0000
# 2 16.9001 23.5648 25.4151 0.0000 0.0000 0.0000
# 3 51.1731 25.4151 103.7167 0.0000 0.0000 0.0000
# 4 0.0000 0.0000 0.0000 21.1148 0.0000 0.0000
# 5 0.0000 0.0000 0.0000 0.0000 20.9542 0.0000
# 6 0.0000 0.0000 0.0000 0.0000 0.0000 9.3252
#
#
#
# Elastic Compliance Matrix: (Units=1/GPa)
#
#
# Indices 1 2 3 4 5 6 
#
# 1 0.008022 -0.002018 -0.003464 0.000000 0.000000 0.000000
# 2 -0.002018 0.058187 -0.013263 0.000000 0.000000 0.000000
# 3 -0.003464 -0.013263 0.014601 0.000000 0.000000 0.000000
# 4 0.000000 0.000000 0.000000 0.047360 0.000000 0.000000
# 5 0.000000 0.000000 0.000000 0.000000 0.047723 0.000000
# 6 0.000000 0.000000 0.000000 0.000000 0.000000 0.107236
#
#
# Mechanical properties :
#
#
# Convention : Reuss Voigt Hill
#
# Bulk Modulus (GPa) = 23.08313 51.69556 37.38934
# Shear Modulus (GPa) = 14.92277 22.59854 18.76066
#
# Velocity S-wave (km/s) = 2.96537 3.64917 3.32490
# Velocity P-wave (km/s) = 5.03255 6.94388 6.06400
#
# Compressibility (1/GPa) = 0.04332169
#
# Stress axis : x y z
#
# Youngs Moduli (GPa) = 124.65685 17.18583 68.49047
#
# Poissons Ratio (x) = 0.03467 0.23722
# Poissons Ratio (y) = 0.25151 0.90839
# Poissons Ratio (z) = 0.43176 0.22794
#
# Static dielectric constant tensor:
#      x y z
#    x 1.612240 0.000000 0.000000 
#    y 0.000000 1.646810 0.000000 
#    z 0.000000 0.000000 1.545380 
# 
# From -- ./inp_files/37978.got.cif
#   From: 2010.05.17/outbox.cif.g08.bks.cpg/sg71_19_cif.got.tgz:37978.got - 2010.06.03 16:22:01.
