data_PCOD9518773
_publ_section_title
;
Structure prediction by ZEFSAII (Michael W. Deem and Ramdas Pophale) SiO2 
 PCOD9518773
Probable space group: I M M M
;
_chemical_formula_sum "Si O2"
_cell_formula_units_Z 88
_cell_length_a 31.238302
_cell_length_b 24.677665
_cell_length_c 8.611436
_cell_angle_alpha 90.000000
_cell_angle_beta 90.000000
_cell_angle_gamma 90.000000
_cell_volume 6638.455706
_symmetry_space_group_name_H-M "I M M M"
_symmetry_group_IT_number 71
_symmetry_cell_setting 'orthorhombic'
loop_
_space_group_symop_operation_xyz
x,y,z
-x,-y,z
x,-y,-z
-x,y,-z
-x,-y,-z
x,y,-z
-x,y,z
x,-y,z
1/2+x,1/2+y,1/2+z
1/2-x,1/2-y,1/2+z
1/2+x,1/2-y,1/2-z
1/2-x,1/2+y,1/2-z
1/2-x,1/2-y,1/2-z
1/2+x,1/2+y,1/2-z
1/2-x,1/2+y,1/2+z
1/2+x,1/2-y,1/2+z
loop_
_atom_site_type_symbol
_atom_site_label
_atom_site_fract_x
_atom_site_fract_y
_atom_site_fract_z
Si Si1 0.500000 0.936101 0.186274
Si Si2 0.239206 0.500000 0.185919
Si Si3 0.411037 0.894512 0.686657
Si Si4 0.248788 0.616125 0.686784
Si Si5 0.358519 0.000000 0.688312
Si Si6 0.838854 0.678836 0.685951
Si Si7 0.206814 0.777434 0.186218
O O1 0.541904 0.905163 0.247597
O O2 0.500000 0.000000 0.238346
O O3 0.500000 0.936414 0.000000
O O4 0.257243 0.443011 0.245291
O O5 0.189917 0.500000 0.243405
O O6 0.239830 0.500000 0.000000
O O7 0.412924 0.892950 0.500000
O O8 0.383672 0.946967 0.738049
O O9 0.382896 0.844641 0.747513
O O10 0.246890 0.612754 0.500000
O O11 0.202348 0.641485 0.737850
O O12 0.285700 0.659701 0.727901
O O13 0.357646 0.000000 0.500000
O O14 0.839301 0.677328 0.500000
O O15 0.829943 0.740028 0.742436
O O16 0.250000 0.750000 0.250000
O O17 0.205479 0.773376 0.000000
#
# Coordination Sequence:
#
# PCOD9518773 Si02
#       7
#     8   8  16  16   8  16  16
#     4  11  23  35  45  61  83 107 135 172 217 260
#     4  11  19  27  40  60  81 106 137 169 207 246
#     4  11  20  33  48  61  78 104 138 174 213 256
#     4   9  18  29  40  57  81 106 132 164 204 244
#     4   9  18  28  40  59  78 100 133 173 210 246
#     4  10  19  30  44  62  80 102 132 170 211 250
#     4   9  17  29  43  59  78 103 132 166 205 245
#
# _framework density 13.256095
#
# number of rings (size 3 to 8) (size 9 to 14) (size 15 to 20)
#    0.000    2.091    2.727    3.273    0.000    4.000 
#    0.000    0.000    0.000    0.000    0.000    0.000 
#    0.000    0.000    0.000    0.000    0.000    0.909 
#
# Total GULP energy -245151.766243 kJ/mol
# GULP energy per Si atom -5571.631051 kJ/mol
# Density = 1.322592 g / cm^3
# Si number density = 13.256095 Si / 1000 Ang^3
#
#
#
# Elastic Constant Matrix: (Units=GPa)
#
#
# Indices 1 2 3 4 5 6 
#
# 1 69.8775 54.9816 25.7330 0.0000 0.0000 0.0000
# 2 54.9816 115.4485 34.1056 0.0000 0.0000 0.0000
# 3 25.7330 34.1056 41.2066 0.0000 0.0000 0.0000
# 4 0.0000 0.0000 0.0000 20.5245 0.0000 0.0000
# 5 0.0000 0.0000 0.0000 0.0000 17.6387 0.0000
# 6 0.0000 0.0000 0.0000 0.0000 0.0000 15.1846
#
#
#
# Elastic Compliance Matrix: (Units=1/GPa)
#
#
# Indices 1 2 3 4 5 6 
#
# 1 0.024510 -0.009465 -0.007472 0.000000 0.000000 0.000000
# 2 -0.009465 0.015121 -0.006604 0.000000 0.000000 0.000000
# 3 -0.007472 -0.006604 0.034400 0.000000 0.000000 0.000000
# 4 0.000000 0.000000 0.000000 0.048722 0.000000 0.000000
# 5 0.000000 0.000000 0.000000 0.000000 0.056694 0.000000
# 6 0.000000 0.000000 0.000000 0.000000 0.000000 0.065856
#
#
# Mechanical properties :
#
#
# Convention : Reuss Voigt Hill
#
# Bulk Modulus (GPa) = 37.10837 50.68590 43.89713
# Shear Modulus (GPa) = 16.59101 18.11704 17.35402
#
# Velocity S-wave (km/s) = 3.54160 3.70089 3.62212
# Velocity P-wave (km/s) = 6.69165 7.52204 7.11896
#
# Compressibility (1/GPa) = 0.02694810
#
# Stress axis : x y z
#
# Youngs Moduli (GPa) = 40.79964 66.13491 29.06980
#
# Poissons Ratio (x) = 0.62599 0.21721
# Poissons Ratio (y) = 0.38618 0.19197
# Poissons Ratio (z) = 0.30485 0.43675
#
# Static dielectric constant tensor:
#      x y z
#    x 1.417570 0.000000 0.000000 
#    y 0.000000 1.456290 0.000000 
#    z 0.000000 0.000000 1.442790 
# 
# From -- ./inp_files/11410.got.cif
#   From: 2010.05.17/outbox.cif.g08.bks.cpg/sg71_6_cif.got.tgz:11410.got - 2010.06.03 16:22:01.
