data_PCOD9518159
_publ_section_title
;
Structure prediction by ZEFSAII (Michael W. Deem and Ramdas Pophale) SiO2 
 PCOD9518159
Probable space group: I M M M
;
_chemical_formula_sum "Si O2"
_cell_formula_units_Z 64
_cell_length_a 30.700340
_cell_length_b 8.259941
_cell_length_c 11.981493
_cell_angle_alpha 90.000000
_cell_angle_beta 90.000000
_cell_angle_gamma 90.000000
_cell_volume 3038.302904
_symmetry_space_group_name_H-M "I M M M"
_symmetry_group_IT_number 71
_symmetry_cell_setting 'orthorhombic'
loop_
_space_group_symop_operation_xyz
x,y,z
-x,-y,z
x,-y,-z
-x,y,-z
-x,-y,-z
x,y,-z
-x,y,z
x,-y,z
1/2+x,1/2+y,1/2+z
1/2-x,1/2-y,1/2+z
1/2+x,1/2-y,1/2-z
1/2-x,1/2+y,1/2-z
1/2-x,1/2-y,1/2-z
1/2+x,1/2+y,1/2-z
1/2-x,1/2+y,1/2+z
1/2+x,1/2-y,1/2+z
loop_
_atom_site_type_symbol
_atom_site_label
_atom_site_fract_x
_atom_site_fract_y
_atom_site_fract_z
Si Si1 0.632623 0.807216 0.868115
Si Si2 0.351916 0.809149 0.500000
Si Si3 0.449488 0.256977 0.500000
Si Si4 0.796810 0.813173 0.210382
Si Si5 0.953781 0.314676 0.743569
O O1 0.672563 0.711962 0.817085
O O2 0.589063 0.741911 0.809107
O O3 0.637904 0.000000 0.840838
O O4 0.629148 0.793211 0.000000
O O5 0.396673 0.700341 0.500000
O O6 0.321991 0.775367 0.391504
O O7 0.365249 0.000000 0.500000
O O8 0.500000 0.333003 0.500000
O O9 0.450723 0.179223 0.622494
O O10 0.750000 0.750000 0.250000
O O11 0.792846 0.000000 0.178002
O O12 0.954804 0.500000 0.702665
O O13 0.000000 0.235987 0.714496
#
# Coordination Sequence:
#
# PCOD9518159 Si02
#       5
#    16   8   8  16  16
#     4  10  21  38  61  90 124 162 210 265 318 374
#     4  12  23  42  72 102 134 168 213 269 329 386
#     4  10  18  30  58  98 134 168 210 263 322 386
#     4  12  27  46  67  92 125 165 214 265 323 387
#     4   9  16  28  51  87 126 163 206 258 313 370
#
# _framework density 21.06439
#
# number of rings (size 3 to 8) (size 9 to 14) (size 15 to 20)
#    0.000    1.500    2.500    3.750    1.750    3.750 
#    0.000    2.500    0.000    3.750    0.000    1.750 
#    0.000    0.000    0.000    0.000    0.000    0.000 
#
# Total GULP energy -178142.765196 kJ/mol
# GULP energy per Si atom -5566.961412 kJ/mol
# Density = 2.101645 g / cm^3
# Si number density = 21.064390 Si / 1000 Ang^3
#
#
#
# Elastic Constant Matrix: (Units=GPa)
#
#
# Indices 1 2 3 4 5 6 
#
# 1 216.9304 23.5689 51.1800 0.0000 0.0000 0.0000
# 2 23.5689 53.6116 17.7152 0.0000 0.0000 0.0000
# 3 51.1800 17.7152 73.5039 0.0000 0.0000 0.0000
# 4 0.0000 0.0000 0.0000 18.2852 0.0000 0.0000
# 5 0.0000 0.0000 0.0000 0.0000 20.7189 0.0000
# 6 0.0000 0.0000 0.0000 0.0000 0.0000 0.3249
#
#
#
# Elastic Compliance Matrix: (Units=1/GPa)
#
#
# Indices 1 2 3 4 5 6 
#
# 1 0.005595 -0.001274 -0.003589 0.000000 0.000000 0.000000
# 2 -0.001274 0.020557 -0.004067 0.000000 0.000000 0.000000
# 3 -0.003589 -0.004067 0.017084 0.000000 0.000000 0.000000
# 4 0.000000 0.000000 0.000000 0.054689 0.000000 0.000000
# 5 0.000000 0.000000 0.000000 0.000000 0.048265 0.000000
# 6 0.000000 0.000000 0.000000 0.000000 0.000000 3.077611
#
#
# Mechanical properties :
#
#
# Convention : Reuss Voigt Hill
#
# Bulk Modulus (GPa) = 39.40804 58.77490 49.09147
# Shear Modulus (GPa) = 1.53841 24.63792 13.08816
#
# Velocity S-wave (km/s) = 0.85552 3.42372 2.49537
# Velocity P-wave (km/s) = 4.44127 6.60244 5.62659
#
# Compressibility (1/GPa) = 0.02537553
#
# Stress axis : x y z
#
# Youngs Moduli (GPa) = 178.73663 48.64592 58.53528
#
# Poissons Ratio (x) = 0.06197 0.21006
# Poissons Ratio (y) = 0.22768 0.23809
# Poissons Ratio (z) = 0.64142 0.19786
#
# Static dielectric constant tensor:
#      x y z
#    x 1.817570 0.000000 0.000000 
#    y 0.000000 1.811020 0.000000 
#    z 0.000000 0.000000 1.712970 
# 
# From -- ./inp_files/29462.got.cif
#   From: 2010.05.17/outbox.cif.g08.bks.cpg/sg71_15_cif.got.tgz:29462.got - 2010.06.03 16:22:01.
