data_PCOD9518335
_publ_section_title
;
Structure prediction by ZEFSAII (Michael W. Deem and Ramdas Pophale) SiO2 
 PCOD9518335
Probable space group: I M M M
;
_chemical_formula_sum "Si O2"
_cell_formula_units_Z 64
_cell_length_a 14.981855
_cell_length_b 24.969577
_cell_length_c 8.710775
_cell_angle_alpha 90.000000
_cell_angle_beta 90.000000
_cell_angle_gamma 90.000000
_cell_volume 3258.618890
_symmetry_space_group_name_H-M "I M M M"
_symmetry_group_IT_number 71
_symmetry_cell_setting 'orthorhombic'
loop_
_space_group_symop_operation_xyz
x,y,z
-x,-y,z
x,-y,-z
-x,y,-z
-x,-y,-z
x,y,-z
-x,y,z
x,-y,z
1/2+x,1/2+y,1/2+z
1/2-x,1/2-y,1/2+z
1/2+x,1/2-y,1/2-z
1/2-x,1/2+y,1/2-z
1/2-x,1/2-y,1/2-z
1/2+x,1/2+y,1/2-z
1/2-x,1/2+y,1/2+z
1/2+x,1/2-y,1/2+z
loop_
_atom_site_type_symbol
_atom_site_label
_atom_site_fract_x
_atom_site_fract_y
_atom_site_fract_z
Si Si1 0.235550 0.691252 0.316811
Si Si2 0.599119 0.614620 0.316858
Si Si3 0.688532 0.000000 0.171896
Si Si4 0.396083 0.106081 0.683833
Si Si5 0.603001 0.500000 0.725468
O O1 0.226319 0.694096 0.500000
O O2 0.250000 0.750000 0.250000
O O3 0.323012 0.655489 0.282048
O O4 0.152485 0.658726 0.248005
O O5 0.608446 0.598356 0.500000
O O6 0.500000 0.638054 0.301748
O O7 0.603847 0.560987 0.213784
O O8 0.654613 0.946567 0.255006
O O9 0.795944 0.000000 0.160622
O O10 0.651677 0.000000 0.000000
O O11 0.391512 0.106468 0.500000
O O12 0.500000 0.103801 0.729678
O O13 0.500000 0.500000 0.658701
#
# Coordination Sequence:
#
# PCOD9518335 Si02
#       5
#    16  16   8  16   8
#     4  11  23  40  63  91 122 160 208 257 307 363
#     4   9  17  31  55  87 120 152 189 236 294 364
#     4  12  22  37  65  99 128 159 203 258 317 380
#     4  11  25  44  64  88 123 168 213 259 315 376
#     4  10  18  31  58  96 129 155 189 237 300 374
#
# _framework density 19.640222000000001
#
# number of rings (size 3 to 8) (size 9 to 14) (size 15 to 20)
#    0.000    1.500    2.500    3.375    0.000    7.250 
#    0.000    2.500    0.000    5.250    0.000    0.000 
#    0.000    0.000    0.000    0.000    0.000    0.000 
#
# Total GULP energy -178245.398433 kJ/mol
# GULP energy per Si atom -5570.168701 kJ/mol
# Density = 1.959552 g / cm^3
# Si number density = 19.640222 Si / 1000 Ang^3
#
#
#
# Elastic Constant Matrix: (Units=GPa)
#
#
# Indices 1 2 3 4 5 6 
#
# 1 173.0308 79.2693 43.7278 0.0000 -0.0001 -0.0001
# 2 79.2693 159.4812 42.3811 0.0001 0.0001 0.0000
# 3 43.7278 42.3811 51.0247 0.0034 -0.0008 -0.0001
# 4 0.0000 0.0001 0.0034 25.3200 -0.0005 -0.0001
# 5 -0.0001 0.0001 -0.0008 -0.0005 15.0542 0.0002
# 6 -0.0001 0.0000 -0.0001 -0.0001 0.0002 14.4692
#
#
#
# Elastic Compliance Matrix: (Units=1/GPa)
#
#
# Indices 1 2 3 4 5 6 
#
# 1 0.008284 -0.002863 -0.004721 0.000001 0.000000 0.000000
# 2 -0.002863 0.009036 -0.005052 0.000001 0.000000 0.000000
# 3 -0.004721 -0.005052 0.027841 -0.000004 0.000001 0.000000
# 4 0.000001 0.000001 -0.000004 0.039494 0.000001 0.000000
# 5 0.000000 0.000000 0.000001 0.000001 0.066427 -0.000001
# 6 0.000000 0.000000 0.000000 0.000000 -0.000001 0.069112
#
#
# Mechanical properties :
#
#
# Convention : Reuss Voigt Hill
#
# Bulk Modulus (GPa) = 50.28069 79.36589 64.82329
# Shear Modulus (GPa) = 19.83378 25.51258 22.67318
#
# Velocity S-wave (km/s) = 3.18127 3.60807 3.40137
# Velocity P-wave (km/s) = 6.25703 7.60626 6.96439
#
# Compressibility (1/GPa) = 0.01988835
#
# Stress axis : x y z
#
# Youngs Moduli (GPa) = 120.71398 110.67167 35.91885
#
# Poissons Ratio (x) = 0.31683 0.16959
# Poissons Ratio (y) = 0.34558 0.18145
# Poissons Ratio (z) = 0.56995 0.55908
#
# Static dielectric constant tensor:
#      x y z
#    x 1.675930 0.000000 0.000000 
#    y 0.000000 1.668810 0.000000 
#    z 0.000000 0.000000 1.709800 
# 
# From -- ./inp_files/5581.got.cif
#   From: 2010.05.17/outbox.cif.g08.bks.cpg/sg71_3_cif.got.tgz:5581.got - 2010.06.03 16:22:01.
