data_PCOD9518404
_publ_section_title
;
Structure prediction by ZEFSAII (Michael W. Deem and Ramdas Pophale) SiO2 
 PCOD9518404
Probable space group: I M M M
;
_chemical_formula_sum "Si O2"
_cell_formula_units_Z 104
_cell_length_a 27.761251
_cell_length_b 7.581286
_cell_length_c 23.581547
_cell_angle_alpha 90.000000
_cell_angle_beta 90.000000
_cell_angle_gamma 90.000000
_cell_volume 4963.113483
_symmetry_space_group_name_H-M "I M M M"
_symmetry_group_IT_number 71
_symmetry_cell_setting 'orthorhombic'
loop_
_space_group_symop_operation_xyz
x,y,z
-x,-y,z
x,-y,-z
-x,y,-z
-x,-y,-z
x,y,-z
-x,y,z
x,-y,z
1/2+x,1/2+y,1/2+z
1/2-x,1/2-y,1/2+z
1/2+x,1/2-y,1/2-z
1/2-x,1/2+y,1/2-z
1/2-x,1/2-y,1/2-z
1/2+x,1/2+y,1/2-z
1/2-x,1/2+y,1/2+z
1/2+x,1/2-y,1/2+z
loop_
_atom_site_type_symbol
_atom_site_label
_atom_site_fract_x
_atom_site_fract_y
_atom_site_fract_z
Si Si1 0.200438 0.283567 0.434987
Si Si2 0.944000 0.283488 0.751555
Si Si3 0.000000 0.788818 0.935966
Si Si4 0.872972 0.300161 0.340064
Si Si5 0.803228 0.792769 0.112635
Si Si6 0.805205 0.210295 0.760628
Si Si7 0.402780 0.205705 0.370756
O O1 0.191867 0.232614 0.500000
O O2 0.200337 0.500000 0.432761
O O3 0.158473 0.222201 0.391820
O O4 0.254545 0.223490 0.416395
O O5 0.942223 0.500000 0.751694
O O6 0.919585 0.222844 0.692361
O O7 0.913837 0.220764 0.806903
O O8 0.000000 0.233345 0.756626
O O9 0.047509 0.730467 0.903427
O O10 0.000000 0.000000 0.936897
O O11 0.000000 0.721784 0.000000
O O12 0.885656 0.500000 0.357337
O O13 0.835744 0.302474 0.287659
O O14 0.811627 0.721427 0.175813
O O15 0.857984 0.775672 0.091396
O O16 0.793551 0.000000 0.118621
O O17 0.750000 0.250000 0.750000
O O18 0.814398 0.000000 0.757388
O O19 0.394156 0.000000 0.364145
#
# Coordination Sequence:
#
# PCOD9518404 Si02
#       7
#    16  16   8  16  16  16  16
#     4   9  18  33  52  74 103 143 186 221 258 317
#     4   9  17  30  51  80 109 135 164 211 278 333
#     4  11  25  43  59  75 103 147 192 227 264 314
#     4  10  18  32  54  78 104 137 178 219 268 324
#     4  10  20  33  50  76 109 141 177 218 267 325
#     4  11  20  30  48  76 107 135 171 213 262 316
#     4  11  21  35  57  82 109 138 177 227 275 322
#
# _framework density 20.954587
#
# number of rings (size 3 to 8) (size 9 to 14) (size 15 to 20)
#    0.000    1.923    3.846    1.154    0.000    1.846 
#    0.000    1.538    0.000    1.846    0.000    3.231 
#    0.000    0.000    0.000    1.385    0.000    1.538 
#
# Total GULP energy -289843.975245 kJ/mol
# GULP energy per Si atom -5573.922601 kJ/mol
# Density = 2.090689 g / cm^3
# Si number density = 20.954587 Si / 1000 Ang^3
#
#
#
# Elastic Constant Matrix: (Units=GPa)
#
#
# Indices 1 2 3 4 5 6 
#
# 1 104.7419 0.6970 43.1645 0.0000 0.0000 0.0000
# 2 0.6970 61.0649 9.9350 0.0000 0.0000 0.0000
# 3 43.1645 9.9350 120.9902 0.0000 0.0000 0.0000
# 4 0.0000 0.0000 0.0000 4.3259 0.0000 0.0000
# 5 0.0000 0.0000 0.0000 0.0000 15.6948 0.0000
# 6 0.0000 0.0000 0.0000 0.0000 0.0000 4.8508
#
#
#
# Elastic Compliance Matrix: (Units=1/GPa)
#
#
# Indices 1 2 3 4 5 6 
#
# 1 0.011210 0.000530 -0.004043 0.000000 0.000000 0.000000
# 2 0.000530 0.016623 -0.001554 0.000000 0.000000 0.000000
# 3 -0.004043 -0.001554 0.009835 0.000000 0.000000 0.000000
# 4 0.000000 0.000000 0.000000 0.231164 0.000000 0.000000
# 5 0.000000 0.000000 0.000000 0.000000 0.063716 0.000000
# 6 0.000000 0.000000 0.000000 0.000000 0.000000 0.206151
#
#
# Mechanical properties :
#
#
# Convention : Reuss Voigt Hill
#
# Bulk Modulus (GPa) = 36.31900 43.82111 40.07006
# Shear Modulus (GPa) = 8.96042 20.50767 14.73404
#
# Velocity S-wave (km/s) = 2.07012 3.13177 2.65456
# Velocity P-wave (km/s) = 4.80455 5.83396 5.34410
#
# Compressibility (1/GPa) = 0.02753379
#
# Stress axis : x y z
#
# Youngs Moduli (GPa) = 89.20796 60.15831 101.67757
#
# Poissons Ratio (x) = -0.03187 0.41105
# Poissons Ratio (y) = -0.04726 0.15800
# Poissons Ratio (z) = 0.36064 0.09348
#
# Static dielectric constant tensor:
#      x y z
#    x 2.552360 0.000000 0.000000 
#    y 0.000000 1.819420 0.000000 
#    z 0.000000 0.000000 1.901560 
# 
# From -- ./inp_files/61941.got.cif
#   From: 2010.05.17/outbox.cif.g08.bks.cpg/sg71_31_cif.got.tgz:61941.got - 2010.06.03 16:22:01.
