data_PCOD9518699
_publ_section_title
;
Structure prediction by ZEFSAII (Michael W. Deem and Ramdas Pophale) SiO2 
 PCOD9518699
Probable space group: I M M M
;
_chemical_formula_sum "Si O2"
_cell_formula_units_Z 88
_cell_length_a 17.101664
_cell_length_b 7.313437
_cell_length_c 31.936457
_cell_angle_alpha 90.000000
_cell_angle_beta 90.000000
_cell_angle_gamma 90.000000
_cell_volume 3994.354706
_symmetry_space_group_name_H-M "I M M M"
_symmetry_group_IT_number 71
_symmetry_cell_setting 'orthorhombic'
loop_
_space_group_symop_operation_xyz
x,y,z
-x,-y,z
x,-y,-z
-x,y,-z
-x,-y,-z
x,y,-z
-x,y,z
x,-y,z
1/2+x,1/2+y,1/2+z
1/2-x,1/2-y,1/2+z
1/2+x,1/2-y,1/2-z
1/2-x,1/2+y,1/2-z
1/2-x,1/2-y,1/2-z
1/2+x,1/2+y,1/2-z
1/2-x,1/2+y,1/2+z
1/2+x,1/2-y,1/2+z
loop_
_atom_site_type_symbol
_atom_site_label
_atom_site_fract_x
_atom_site_fract_y
_atom_site_fract_z
Si Si1 0.589774 0.222455 0.545879
Si Si2 0.593570 0.207255 0.208134
Si Si3 0.500000 0.222875 0.951281
Si Si4 0.375535 0.788616 0.882942
Si Si5 0.194830 0.278691 0.877743
Si Si6 0.408832 0.223636 0.700644
O O1 0.618178 0.278784 0.500000
O O2 0.500000 0.278982 0.550576
O O3 0.641540 0.284047 0.583986
O O4 0.589856 0.000000 0.546539
O O5 0.500000 0.195698 0.211535
O O6 0.609245 0.294940 0.163106
O O7 0.617204 0.286884 0.253036
O O8 0.626465 0.000000 0.206658
O O9 0.574815 0.280639 0.922682
O O10 0.500000 0.000000 0.953807
O O11 0.500000 0.284913 0.000000
O O12 0.282741 0.780912 0.886870
O O13 0.401444 0.000000 0.879263
O O14 0.195731 0.500000 0.876775
O O15 0.152261 0.219765 0.834937
O O16 0.500000 0.276896 0.692326
O O17 0.409735 0.000000 0.701533
#
# Coordination Sequence:
#
# PCOD9518699 Si02
#       6
#    16  16   8  16  16  16
#     4   8  14  26  45  66  88 119 156 186 213 256
#     4   8  13  25  46  67  86 115 158 196 221 260
#     4   9  18  34  55  73  87 113 161 209 238 270
#     4  10  19  32  50  69  89 118 154 191 232 277
#     4  10  19  29  44  71 101 121 144 186 234 274
#     4   8  14  25  44  69  94 122 156 191 222 258
#
# _framework density 22.031092999999998
#
# number of rings (size 3 to 8) (size 9 to 14) (size 15 to 20)
#    0.000    3.182    0.909    2.182    0.000    3.636 
#    0.000    0.455    0.000    2.727    0.000    3.818 
#    0.000    0.000    0.000    0.000    0.000    0.000 
#
# Total GULP energy -245303.694173 kJ/mol
# GULP energy per Si atom -5575.083958 kJ/mol
# Density = 2.198095 g / cm^3
# Si number density = 22.031093 Si / 1000 Ang^3
#
#
#
# Elastic Constant Matrix: (Units=GPa)
#
#
# Indices 1 2 3 4 5 6 
#
# 1 101.3244 -0.5667 116.0908 0.0000 0.0000 0.0000
# 2 -0.5667 89.5328 10.1886 0.0000 0.0000 0.0000
# 3 116.0908 10.1886 263.4718 0.0000 0.0000 0.0000
# 4 0.0000 0.0000 0.0000 -16.9445 0.0000 0.0000
# 5 0.0000 0.0000 0.0000 0.0000 19.8071 0.0000
# 6 0.0000 0.0000 0.0000 0.0000 0.0000 6.9057
#
#
#
# Elastic Compliance Matrix: (Units=1/GPa)
#
#
# Indices 1 2 3 4 5 6 
#
# 1 0.020046 0.001137 -0.008877 0.000000 0.000000 0.000000
# 2 0.001137 0.011283 -0.000937 0.000000 0.000000 0.000000
# 3 -0.008877 -0.000937 0.007743 0.000000 0.000000 0.000000
# 4 0.000000 0.000000 0.000000 -0.059016 0.000000 0.000000
# 5 0.000000 0.000000 0.000000 0.000000 0.050487 0.000000
# 6 0.000000 0.000000 0.000000 0.000000 0.000000 0.144807
#
#
# Mechanical properties :
#
#
# Convention : Reuss Voigt Hill
#
# Bulk Modulus (GPa) = 46.04483 78.41717 62.23100
# Shear Modulus (GPa) = 25.00712 23.86140 24.43426
#
# Velocity S-wave (km/s) = 3.37275 3.29459 3.33390
# Velocity P-wave (km/s) = 6.00938 7.08121 6.56720
#
# Compressibility (1/GPa) = 0.02171796
#
# Stress axis : x y z
#
# Youngs Moduli (GPa) = 49.88572 88.62930 129.15057
#
# Poissons Ratio (x) = -0.10077 1.14641
# Poissons Ratio (y) = -0.05672 0.12105
# Poissons Ratio (z) = 0.44281 0.08307
#
# Static dielectric constant tensor:
#      x y z
#    x 1.756150 0.000000 0.000000 
#    y 0.000000 1.867610 0.000000 
#    z 0.000000 0.000000 1.825780 
# 
# From -- ./inp_files/69827.got.cif
#   From: 2010.05.17/outbox.cif.g08.bks.cpg/sg71_35_cif.got.tgz:69827.got - 2010.06.03 16:22:01.
