data_PCOD9518814
_publ_section_title
;
Structure prediction by ZEFSAII (Michael W. Deem and Ramdas Pophale) SiO2 
 PCOD9518814
Probable space group: I M M M
;
_chemical_formula_sum "Si O2"
_cell_formula_units_Z 96
_cell_length_a 7.296229
_cell_length_b 37.410313
_cell_length_c 14.682015
_cell_angle_alpha 90.000000
_cell_angle_beta 90.000000
_cell_angle_gamma 90.000000
_cell_volume 4007.517814
_symmetry_space_group_name_H-M "I M M M"
_symmetry_group_IT_number 71
_symmetry_cell_setting 'orthorhombic'
loop_
_space_group_symop_operation_xyz
x,y,z
-x,-y,z
x,-y,-z
-x,y,-z
-x,-y,-z
x,y,-z
-x,y,z
x,-y,z
1/2+x,1/2+y,1/2+z
1/2-x,1/2-y,1/2+z
1/2+x,1/2-y,1/2-z
1/2-x,1/2+y,1/2-z
1/2-x,1/2-y,1/2-z
1/2+x,1/2+y,1/2-z
1/2-x,1/2+y,1/2+z
1/2+x,1/2-y,1/2+z
loop_
_atom_site_type_symbol
_atom_site_label
_atom_site_fract_x
_atom_site_fract_y
_atom_site_fract_z
Si Si1 0.277769 0.352307 0.500000
Si Si2 0.290297 0.657329 0.148632
Si Si3 0.276538 0.420746 0.101689
Si Si4 0.776986 0.065530 0.000000
Si Si5 0.225383 0.192593 0.172665
Si Si6 0.715734 0.235437 0.399388
Si Si7 0.221078 0.041653 0.206231
O O1 0.500000 0.352929 0.500000
O O2 0.221930 0.393129 0.500000
O O3 0.220678 0.330223 0.586739
O O4 0.500000 0.647640 0.168331
O O5 0.218245 0.621191 0.105127
O O6 0.205916 0.670088 0.242668
O O7 0.292261 0.695534 0.098961
O O8 0.500000 0.423530 0.100639
O O9 0.218883 0.437792 0.200043
O O10 0.219651 0.434713 0.000000
O O11 0.718822 0.051192 0.898657
O O12 0.000000 0.061684 0.000000
O O13 0.289934 0.233441 0.165138
O O14 0.000000 0.194584 0.176348
O O15 0.736738 0.251179 0.500000
O O16 0.500000 0.230949 0.382716
O O17 0.000000 0.046514 0.204103
O O18 0.262843 0.000000 0.220010
#
# Coordination Sequence:
#
# PCOD9518814 Si02
#       7
#     8  16  16   8  16  16  16
#     4   9  14  23  40  59  83 115 150 188 227 269
#     4  10  19  30  46  66  87 114 150 192 232 266
#     4   9  17  28  40  57  82 111 145 181 217 264
#     4   9  15  22  35  56  80 109 148 188 222 261
#     4   9  16  27  42  61  84 112 148 187 228 273
#     4  10  19  31  45  62  86 115 149 187 228 275
#     4   9  16  25  37  55  82 115 147 180 221 268
#
# _framework density 23.954975999999998
#
# number of rings (size 3 to 8) (size 9 to 14) (size 15 to 20)
#    0.000    2.667    0.833    2.250    0.000    6.333 
#    0.000    1.667    0.000    0.000    0.000    0.000 
#    0.000    0.667    0.000    3.500    0.000    9.833 
#
# Total GULP energy -267391.946434 kJ/mol
# GULP energy per Si atom -5570.665551 kJ/mol
# Density = 2.390045 g / cm^3
# Si number density = 23.954976 Si / 1000 Ang^3
#
#
#
# Elastic Constant Matrix: (Units=GPa)
#
#
# Indices 1 2 3 4 5 6 
#
# 1 89.6189 -0.7868 12.5972 0.0000 0.0000 0.0000
# 2 -0.7868 142.4594 94.2149 -0.0001 0.0000 0.0000
# 3 12.5972 94.2149 232.8577 0.0000 0.0000 0.0000
# 4 0.0000 -0.0001 0.0000 36.8396 0.0000 0.0000
# 5 0.0000 0.0000 0.0000 0.0000 -8.5411 0.0000
# 6 0.0000 0.0000 0.0000 0.0000 0.0000 -10.8860
#
#
#
# Elastic Compliance Matrix: (Units=1/GPa)
#
#
# Indices 1 2 3 4 5 6 
#
# 1 0.011286 0.000636 -0.000868 0.000000 0.000000 0.000000
# 2 0.000636 0.009620 -0.003927 0.000000 0.000000 0.000000
# 3 -0.000868 -0.003927 0.005930 0.000000 0.000000 0.000000
# 4 0.000000 0.000000 0.000000 0.027145 0.000000 0.000000
# 5 0.000000 0.000000 0.000000 0.000000 -0.117081 0.000000
# 6 0.000000 0.000000 0.000000 0.000000 0.000000 -0.091861
#
#
# Mechanical properties :
#
#
# Convention : Reuss Voigt Hill
#
# Bulk Modulus (GPa) = 53.99731 75.22075 64.60903
# Shear Modulus (GPa) = -35.59445 27.40989 -4.09228
#
# Velocity S-wave (km/s) = -3.85891 3.38631 -1.30845
# Velocity P-wave (km/s) = 1.65385 6.83802 4.97462
#
# Compressibility (1/GPa) = 0.01851944
#
# Stress axis : x y z
#
# Youngs Moduli (GPa) = 88.60565 103.95058 168.62901
#
# Poissons Ratio (x) = -0.06615 0.14638
# Poissons Ratio (y) = -0.05639 0.66215
# Poissons Ratio (z) = 0.07691 0.40818
#
# Static dielectric constant tensor:
#      x y z
#    x 2.157150 0.000000 0.000000 
#    y 0.000000 1.871360 0.000000 
#    z 0.000000 0.000000 2.006020 
# 
# From -- ./inp_files/33229.got.cif
#   From: 2010.05.17/outbox.cif.g08.bks.cpg/sg71_17_cif.got.tgz:33229.got - 2010.06.03 16:22:01.
