data_PCOD9518588
_publ_section_title
;
Structure prediction by ZEFSAII (Michael W. Deem and Ramdas Pophale) SiO2 
 PCOD9518588
Probable space group: I M M M
;
_chemical_formula_sum "Si O2"
_cell_formula_units_Z 90
_cell_length_a 17.132240
_cell_length_b 22.894835
_cell_length_c 11.491397
_cell_angle_alpha 90.000000
_cell_angle_beta 90.000000
_cell_angle_gamma 90.000000
_cell_volume 4507.383353
_symmetry_space_group_name_H-M "I M M M"
_symmetry_group_IT_number 71
_symmetry_cell_setting 'orthorhombic'
loop_
_space_group_symop_operation_xyz
x,y,z
-x,-y,z
x,-y,-z
-x,y,-z
-x,-y,-z
x,y,-z
-x,y,z
x,-y,z
1/2+x,1/2+y,1/2+z
1/2-x,1/2-y,1/2+z
1/2+x,1/2-y,1/2-z
1/2-x,1/2+y,1/2-z
1/2-x,1/2-y,1/2-z
1/2+x,1/2+y,1/2-z
1/2-x,1/2+y,1/2+z
1/2+x,1/2-y,1/2+z
loop_
_atom_site_type_symbol
_atom_site_label
_atom_site_fract_x
_atom_site_fract_y
_atom_site_fract_z
Si Si1 0.500000 0.500000 0.000000
Si Si2 0.593417 0.259823 0.000000
Si Si3 0.592727 0.177800 0.213917
Si Si4 0.592427 0.281532 0.363724
Si Si5 0.817948 0.433777 0.637514
Si Si6 0.635333 0.397789 0.000000
Si Si7 0.661685 0.391499 0.740183
Si Si8 0.000000 0.068793 0.132630
O O1 0.567933 0.552650 0.000000
O O2 0.619521 0.222551 0.112007
O O3 0.500000 0.257159 0.000000
O O4 0.610825 0.328813 0.000000
O O5 0.500000 0.168421 0.200006
O O6 0.606381 0.214466 0.330786
O O7 0.635763 0.116807 0.203311
O O8 0.602391 0.292160 0.500000
O O9 0.500000 0.293190 0.332849
O O10 0.650092 0.323513 0.292562
O O11 0.833608 0.427715 0.500000
O O12 0.837580 0.500000 0.672042
O O13 0.727184 0.421530 0.662581
O O14 0.677701 0.403575 0.875512
O O15 0.576793 0.415033 0.703750
O O16 0.000000 0.000000 0.121878
O O17 0.000000 0.093188 0.000000
#
# Coordination Sequence:
#
# PCOD9518588 Si02
#       8
#     2   8  16  16  16   8  16   8
#     4  12  28  36  64  96 134 180 224 248 296 390
#     4  10  18  38  63  94 122 156 204 267 322 373
#     4  10  21  40  69  97 125 160 207 266 335 389
#     4  10  20  37  64  97 129 161 207 262 316 380
#     4  11  25  44  64  91 128 168 213 270 325 386
#     4  12  26  40  60  93 133 179 220 258 314 374
#     4  12  24  40  61  90 129 170 215 264 311 373
#     4  11  23  38  59  85 119 171 216 247 295 365
#
# _framework density 19.967237999999998
#
# number of rings (size 3 to 8) (size 9 to 14) (size 15 to 20)
#    0.000    1.156    4.000    2.667    3.733    2.489 
#    1.600    0.889    0.000    0.000    0.000    2.489 
#    0.000    0.000    0.000    0.000    0.000    0.000 
#
# Total GULP energy -250960.920752 kJ/mol
# GULP energy per Si atom -5576.909350 kJ/mol
# Density = 1.992179 g / cm^3
# Si number density = 19.967238 Si / 1000 Ang^3
#
#
#
# Elastic Constant Matrix: (Units=GPa)
#
#
# Indices 1 2 3 4 5 6 
#
# 1 24.2036 28.8283 -0.8615 0.0000 0.0000 0.0000
# 2 28.8283 152.3208 13.3929 0.0000 0.0000 0.0000
# 3 -0.8615 13.3929 66.5315 0.0000 0.0000 0.0000
# 4 0.0000 0.0000 0.0000 27.1196 0.0000 0.0000
# 5 0.0000 0.0000 0.0000 0.0000 12.3176 0.0000
# 6 0.0000 0.0000 0.0000 0.0000 0.0000 33.8084
#
#
#
# Elastic Compliance Matrix: (Units=1/GPa)
#
#
# Indices 1 2 3 4 5 6 
#
# 1 0.053847 -0.010437 0.002798 0.000000 0.000000 0.000000
# 2 -0.010437 0.008706 -0.001888 0.000000 0.000000 0.000000
# 3 0.002798 -0.001888 0.015447 0.000000 0.000000 0.000000
# 4 0.000000 0.000000 0.000000 0.036874 0.000000 0.000000
# 5 0.000000 0.000000 0.000000 0.000000 0.081185 0.000000
# 6 0.000000 0.000000 0.000000 0.000000 0.000000 0.029578
#
#
# Mechanical properties :
#
#
# Convention : Reuss Voigt Hill
#
# Bulk Modulus (GPa) = 16.96440 36.19727 26.58083
# Shear Modulus (GPa) = 18.91506 28.09552 23.50529
#
# Velocity S-wave (km/s) = 3.08117 3.75518 3.43475
# Velocity P-wave (km/s) = 4.60138 6.08025 5.39176
#
# Compressibility (1/GPa) = 0.05894697
#
# Stress axis : x y z
#
# Youngs Moduli (GPa) = 18.57106 114.85766 64.73865
#
# Poissons Ratio (x) = 1.19879 -0.18116
# Poissons Ratio (y) = 0.19383 0.12221
# Poissons Ratio (z) = -0.05197 0.21682
#
# Static dielectric constant tensor:
#      x y z
#    x 1.691480 0.000000 0.000000 
#    y 0.000000 1.732000 0.000000 
#    z 0.000000 0.000000 1.731940 
# 
# From -- ./inp_files/24036.got.cif
#   From: 2010.05.17/outbox.cif.g08.bks.cpg/sg71_13_cif.got.tgz:24036.got - 2010.06.03 16:22:01.
