data_PCOD9518539
_publ_section_title
;
Structure prediction by ZEFSAII (Michael W. Deem and Ramdas Pophale) SiO2 
 PCOD9518539
Probable space group: I M M M
;
_chemical_formula_sum "Si O2"
_cell_formula_units_Z 72
_cell_length_a 23.691710
_cell_length_b 15.658931
_cell_length_c 11.640106
_cell_angle_alpha 90.000000
_cell_angle_beta 90.000000
_cell_angle_gamma 90.000000
_cell_volume 4318.326284
_symmetry_space_group_name_H-M "I M M M"
_symmetry_group_IT_number 71
_symmetry_cell_setting 'orthorhombic'
loop_
_space_group_symop_operation_xyz
x,y,z
-x,-y,z
x,-y,-z
-x,y,-z
-x,-y,-z
x,y,-z
-x,y,z
x,-y,z
1/2+x,1/2+y,1/2+z
1/2-x,1/2-y,1/2+z
1/2+x,1/2-y,1/2-z
1/2-x,1/2+y,1/2-z
1/2-x,1/2-y,1/2-z
1/2+x,1/2+y,1/2-z
1/2-x,1/2+y,1/2+z
1/2+x,1/2-y,1/2+z
loop_
_atom_site_type_symbol
_atom_site_label
_atom_site_fract_x
_atom_site_fract_y
_atom_site_fract_z
Si Si1 0.434681 0.500000 0.637150
Si Si2 0.865671 0.668135 0.862118
Si Si3 0.623104 0.656198 0.234927
Si Si4 0.935340 0.500000 0.860517
Si Si5 0.932373 0.899343 0.500000
Si Si6 0.759895 0.101809 0.635524
O O1 0.500000 0.500000 0.677572
O O2 0.434297 0.500000 0.500000
O O3 0.403273 0.582988 0.685113
O O4 0.883123 0.752207 0.793706
O O5 0.902301 0.585665 0.826997
O O6 0.800025 0.645747 0.841112
O O7 0.872508 0.680726 0.000000
O O8 0.688902 0.637215 0.210399
O O9 0.591779 0.645220 0.113284
O O10 0.000000 0.500000 0.821193
O O11 0.935417 0.500000 0.000000
O O12 0.000000 0.897522 0.500000
O O13 0.914413 0.000000 0.500000
O O14 0.773045 0.114667 0.500000
O O15 0.754425 0.000000 0.653047
#
# Coordination Sequence:
#
# PCOD9518539 Si02
#       6
#     8  16  16   8   8  16
#     4  11  24  38  53  79 119 155 183 229 292 348
#     4  10  21  36  58  87 116 146 186 236 290 342
#     4  12  21  36  58  85 114 148 191 237 281 342
#     4   9  18  35  56  79 109 146 186 227 271 331
#     4  11  22  38  58  83 113 153 199 236 271 329
#     4  10  18  34  59  85 111 146 188 236 284 332
#
# _framework density 16.673126
#
# number of rings (size 3 to 8) (size 9 to 14) (size 15 to 20)
#    0.000    1.444    4.444    2.000    0.000    1.778 
#    0.000    2.222    0.000    0.667    0.000    1.556 
#    0.000    0.000    0.000    0.000    0.000    0.000 
#
# Total GULP energy -201031.262782 kJ/mol
# GULP energy per Si atom -5584.201744 kJ/mol
# Density = 1.663518 g / cm^3
# Si number density = 16.673126 Si / 1000 Ang^3
#
#
#
# Elastic Constant Matrix: (Units=GPa)
#
#
# Indices 1 2 3 4 5 6 
#
# 1 124.3692 80.2296 50.3195 0.0000 0.0000 0.0000
# 2 80.2296 176.9833 66.5977 0.0000 0.0000 0.0000
# 3 50.3195 66.5977 72.5417 0.0000 0.0000 0.0000
# 4 0.0000 0.0000 0.0000 27.9907 0.0000 0.0000
# 5 0.0000 0.0000 0.0000 0.0000 13.8847 0.0000
# 6 0.0000 0.0000 0.0000 0.0000 0.0000 9.2988
#
#
#
# Elastic Compliance Matrix: (Units=1/GPa)
#
#
# Indices 1 2 3 4 5 6 
#
# 1 0.012584 -0.003697 -0.005335 0.000000 0.000000 0.000000
# 2 -0.003697 0.009719 -0.006358 0.000000 0.000000 0.000000
# 3 -0.005335 -0.006358 0.023323 0.000000 0.000000 0.000000
# 4 0.000000 0.000000 0.000000 0.035726 0.000000 0.000000
# 5 0.000000 0.000000 0.000000 0.000000 0.072022 0.000000
# 6 0.000000 0.000000 0.000000 0.000000 0.000000 0.107541
#
#
# Mechanical properties :
#
#
# Convention : Reuss Voigt Hill
#
# Bulk Modulus (GPa) = 67.35938 85.35420 76.35679
# Shear Modulus (GPa) = 16.85534 22.01799 19.43667
#
# Velocity S-wave (km/s) = 3.18296 3.63790 3.41801
# Velocity P-wave (km/s) = 7.34820 8.30359 7.84046
#
# Compressibility (1/GPa) = 0.01484574
#
# Stress axis : x y z
#
# Youngs Moduli (GPa) = 79.46577 102.89595 42.87677
#
# Poissons Ratio (x) = 0.38041 0.22875
# Poissons Ratio (y) = 0.29379 0.27260
# Poissons Ratio (z) = 0.42395 0.65418
#
# Static dielectric constant tensor:
#      x y z
#    x 1.567720 0.000000 0.000000 
#    y 0.000000 1.532120 0.000000 
#    z 0.000000 0.000000 1.542450 
# 
# From -- ./inp_files/27044.got.cif
#   From: 2010.05.17/outbox.cif.g08.bks.cpg/sg71_14_cif.got.tgz:27044.got - 2010.06.03 16:22:01.
