data_PCOD9518245
_publ_section_title
;
Structure prediction by ZEFSAII (Michael W. Deem and Ramdas Pophale) SiO2 
 PCOD9518245
Probable space group: I M M M
;
_chemical_formula_sum "Si O2"
_cell_formula_units_Z 104
_cell_length_a 28.173474
_cell_length_b 8.733507
_cell_length_c 22.104336
_cell_angle_alpha 90.000000
_cell_angle_beta 90.000000
_cell_angle_gamma 90.000000
_cell_volume 5438.843323
_symmetry_space_group_name_H-M "I M M M"
_symmetry_group_IT_number 71
_symmetry_cell_setting 'orthorhombic'
loop_
_space_group_symop_operation_xyz
x,y,z
-x,-y,z
x,-y,-z
-x,y,-z
-x,-y,-z
x,y,-z
-x,y,z
x,-y,z
1/2+x,1/2+y,1/2+z
1/2-x,1/2-y,1/2+z
1/2+x,1/2-y,1/2-z
1/2-x,1/2+y,1/2-z
1/2-x,1/2-y,1/2-z
1/2+x,1/2+y,1/2-z
1/2-x,1/2+y,1/2+z
1/2+x,1/2-y,1/2+z
loop_
_atom_site_type_symbol
_atom_site_label
_atom_site_fract_x
_atom_site_fract_y
_atom_site_fract_z
Si Si1 0.444339 0.683694 0.726834
Si Si2 0.880947 0.684792 0.675676
Si Si3 0.298726 0.828960 0.260786
Si Si4 0.444217 0.327373 0.500000
Si Si5 0.183291 0.183481 0.428529
Si Si6 0.290885 0.826208 0.403581
Si Si7 0.107932 0.315607 0.891320
O O1 0.500000 0.721995 0.716230
O O2 0.439524 0.500000 0.725426
O O3 0.427769 0.745611 0.792945
O O4 0.411096 0.753565 0.673385
O O5 0.885481 0.500000 0.675466
O O6 0.841330 0.742329 0.724043
O O7 0.857569 0.739603 0.612518
O O8 0.250000 0.750000 0.250000
O O9 0.302176 0.834660 0.332279
O O10 0.295529 0.000000 0.236595
O O11 0.423778 0.500000 0.500000
O O12 0.500000 0.341637 0.500000
O O13 0.429494 0.236117 0.440648
O O14 0.175526 0.207381 0.500000
O O15 0.237805 0.238580 0.413745
O O16 0.182496 0.000000 0.416140
O O17 0.341665 0.755751 0.420613
O O18 0.288031 0.000000 0.428405
O O19 0.111667 0.500000 0.886710
#
# Coordination Sequence:
#
# PCOD9518245 Si02
#       7
#    16  16  16   8  16  16  16
#     4  11  24  41  62  88 118 151 191 244 304 363
#     4  11  22  37  58  86 119 152 192 244 298 352
#     4  10  18  31  51  79 112 146 184 226 275 329
#     4  11  25  43  57  75 111 159 209 255 300 351
#     4  10  21  37  59  84 116 161 203 237 285 351
#     4   9  18  33  53  81 115 150 190 234 281 336
#     4  11  22  38  61  88 118 154 201 251 298 348
#
# _framework density 19.121713
#
# number of rings (size 3 to 8) (size 9 to 14) (size 15 to 20)
#    0.000    1.615    3.077    2.077    1.077    4.615 
#    0.000    1.538    0.000    0.462    0.000    3.231 
#    0.000    0.000    0.000    0.000    0.000    0.000 
#
# Total GULP energy -289472.483213 kJ/mol
# GULP energy per Si atom -5566.778523 kJ/mol
# Density = 1.907819 g / cm^3
# Si number density = 19.121713 Si / 1000 Ang^3
#
#
#
# Elastic Constant Matrix: (Units=GPa)
#
#
# Indices 1 2 3 4 5 6 
#
# 1 78.9618 28.7092 35.9139 0.0000 0.0000 0.0000
# 2 28.7092 46.8922 30.6248 0.0000 0.0000 0.0000
# 3 35.9139 30.6248 100.0673 0.0000 0.0000 0.0000
# 4 0.0000 0.0000 0.0000 16.1254 0.0000 0.0000
# 5 0.0000 0.0000 0.0000 0.0000 26.1294 0.0000
# 6 0.0000 0.0000 0.0000 0.0000 0.0000 21.2543
#
#
#
# Elastic Compliance Matrix: (Units=1/GPa)
#
#
# Indices 1 2 3 4 5 6 
#
# 1 0.017329 -0.008184 -0.003715 0.000000 0.000000 0.000000
# 2 -0.008184 0.030517 -0.006402 0.000000 0.000000 0.000000
# 3 -0.003715 -0.006402 0.013286 0.000000 0.000000 0.000000
# 4 0.000000 0.000000 0.000000 0.062014 0.000000 0.000000
# 5 0.000000 0.000000 0.000000 0.000000 0.038271 0.000000
# 6 0.000000 0.000000 0.000000 0.000000 0.000000 0.047049
#
#
# Mechanical properties :
#
#
# Convention : Reuss Voigt Hill
#
# Bulk Modulus (GPa) = 40.76540 46.26855 43.51698
# Shear Modulus (GPa) = 19.74365 21.41336 20.57851
#
# Velocity S-wave (km/s) = 3.21678 3.35004 3.28409
# Velocity P-wave (km/s) = 5.92976 6.26204 6.09816
#
# Compressibility (1/GPa) = 0.02453060
#
# Stress axis : x y z
#
# Youngs Moduli (GPa) = 57.70530 32.76841 75.26717
#
# Poissons Ratio (x) = 0.26816 0.27962
# Poissons Ratio (y) = 0.47223 0.48190
# Poissons Ratio (z) = 0.21437 0.20980
#
# Static dielectric constant tensor:
#      x y z
#    x 1.700250 0.000000 0.000000 
#    y 0.000000 1.718690 0.000000 
#    z 0.000000 0.000000 1.601910 
# 
# From -- ./inp_files/56229.got.cif
#   From: 2010.05.17/outbox.cif.g08.bks.cpg/sg71_29_cif.got.tgz:56229.got - 2010.06.03 16:22:01.
