data_PCOD9518782
_publ_section_title
;
Structure prediction by ZEFSAII (Michael W. Deem and Ramdas Pophale) SiO2 
 PCOD9518782
Probable space group: I M M M
;
_chemical_formula_sum "Si O2"
_cell_formula_units_Z 104
_cell_length_a 18.539791
_cell_length_b 18.725519
_cell_length_c 18.710714
_cell_angle_alpha 90.000000
_cell_angle_beta 90.000000
_cell_angle_gamma 90.000000
_cell_volume 6495.746351
_symmetry_space_group_name_H-M "I M M M"
_symmetry_group_IT_number 71
_symmetry_cell_setting 'orthorhombic'
loop_
_space_group_symop_operation_xyz
x,y,z
-x,-y,z
x,-y,-z
-x,y,-z
-x,-y,-z
x,y,-z
-x,y,z
x,-y,z
1/2+x,1/2+y,1/2+z
1/2-x,1/2-y,1/2+z
1/2+x,1/2-y,1/2-z
1/2-x,1/2+y,1/2-z
1/2-x,1/2-y,1/2-z
1/2+x,1/2+y,1/2-z
1/2-x,1/2+y,1/2+z
1/2+x,1/2-y,1/2+z
loop_
_atom_site_type_symbol
_atom_site_label
_atom_site_fract_x
_atom_site_fract_y
_atom_site_fract_z
Si Si1 0.203173 0.349970 0.085402
Si Si2 0.700718 0.212195 0.084975
Si Si3 0.308340 0.081072 0.812807
Si Si4 0.085508 0.585506 0.184190
Si Si5 0.914210 0.921053 0.500000
Si Si6 0.687168 0.420375 0.807506
Si Si7 0.915137 0.180398 0.364698
O O1 0.234929 0.269955 0.098390
O O2 0.128019 0.368967 0.124239
O O3 0.260418 0.400715 0.126139
O O4 0.201312 0.361565 0.000000
O O5 0.706451 0.138018 0.125952
O O6 0.628268 0.249165 0.115285
O O7 0.695182 0.203560 0.000000
O O8 0.375559 0.099954 0.760365
O O9 0.239650 0.081270 0.760170
O O10 0.319419 0.000000 0.839048
O O11 0.096348 0.500000 0.170352
O O12 0.000000 0.599227 0.185720
O O13 0.900221 0.873523 0.569129
O O14 0.000000 0.930083 0.500000
O O15 0.880727 0.000000 0.500000
O O16 0.657101 0.500000 0.816408
O O17 0.625143 0.361222 0.801473
O O18 0.000000 0.190194 0.355637
#
# Coordination Sequence:
#
# PCOD9518782 Si02
#       7
#    16  16  16  16   8  16  16
#     4   9  18  30  45  69  98 127 160 194 233 278
#     4  10  20  34  51  69  94 124 157 203 247 285
#     4   9  19  36  53  69  90 119 159 205 251 292
#     4   9  18  32  49  71 100 131 162 195 232 278
#     4   9  16  26  40  60  91 129 160 182 207 250
#     4   9  18  30  46  68  96 128 160 196 232 275
#     4  10  19  30  44  68 100 131 159 186 225 276
#
# _framework density 16.010477000000002
#
# number of rings (size 3 to 8) (size 9 to 14) (size 15 to 20)
#    0.000    2.692    0.769    1.846    1.077    8.923 
#    0.000    0.769    0.000    0.000    0.000    3.231 
#    0.000    0.000    0.000    6.769    0.000    0.000 
#
# Total GULP energy -289598.514382 kJ/mol
# GULP energy per Si atom -5569.202200 kJ/mol
# Density = 1.597404 g / cm^3
# Si number density = 16.010477 Si / 1000 Ang^3
#
#
#
# Elastic Constant Matrix: (Units=GPa)
#
#
# Indices 1 2 3 4 5 6 
#
# 1 92.5993 29.7099 33.4187 0.0000 0.0000 0.0000
# 2 29.7099 89.8872 56.2836 0.0000 0.0000 0.0000
# 3 33.4187 56.2836 50.9569 0.0000 0.0000 0.0000
# 4 0.0000 0.0000 0.0000 28.7049 0.0000 0.0000
# 5 0.0000 0.0000 0.0000 0.0000 10.7839 0.0000
# 6 0.0000 0.0000 0.0000 0.0000 0.0000 14.3470
#
#
#
# Elastic Compliance Matrix: (Units=1/GPa)
#
#
# Indices 1 2 3 4 5 6 
#
# 1 0.014533 0.003776 -0.013701 0.000000 0.000000 0.000000
# 2 0.003776 0.037056 -0.043406 0.000000 0.000000 0.000000
# 3 -0.013701 -0.043406 0.076553 0.000000 0.000000 0.000000
# 4 0.000000 0.000000 0.000000 0.034837 0.000000 0.000000
# 5 0.000000 0.000000 0.000000 0.000000 0.092731 0.000000
# 6 0.000000 0.000000 0.000000 0.000000 0.000000 0.069701
#
#
# Mechanical properties :
#
#
# Convention : Reuss Voigt Hill
#
# Bulk Modulus (GPa) = 46.55679 52.47421 49.51550
# Shear Modulus (GPa) = 11.38349 18.36924 14.87637
#
# Velocity S-wave (km/s) = 2.66936 3.39090 3.05153
# Velocity P-wave (km/s) = 6.21632 6.94096 6.58861
#
# Compressibility (1/GPa) = 0.02147915
#
# Stress axis : x y z
#
# Youngs Moduli (GPa) = 68.81127 26.98625 13.06282
#
# Poissons Ratio (x) = -0.10189 0.17898
# Poissons Ratio (y) = -0.25982 0.56700
# Poissons Ratio (z) = 0.94280 1.17136
#
# Static dielectric constant tensor:
#      x y z
#    x 1.547380 0.000000 0.000000 
#    y 0.000000 1.549950 0.000000 
#    z 0.000000 0.000000 1.536100 
# 
# From -- ./inp_files/46125.got.cif
#   From: 2010.05.17/outbox.cif.g08.bks.cpg/sg71_24_cif.got.tgz:46125.got - 2010.06.03 16:22:01.
