data_PCOD9518776
_publ_section_title
;
Structure prediction by ZEFSAII (Michael W. Deem and Ramdas Pophale) SiO2 
 PCOD9518776
Probable space group: I M M M
;
_chemical_formula_sum "Si O2"
_cell_formula_units_Z 80
_cell_length_a 26.180920
_cell_length_b 9.906249
_cell_length_c 22.364974
_cell_angle_alpha 90.000000
_cell_angle_beta 90.000000
_cell_angle_gamma 90.000000
_cell_volume 5800.461403
_symmetry_space_group_name_H-M "I M M M"
_symmetry_group_IT_number 71
_symmetry_cell_setting 'orthorhombic'
loop_
_space_group_symop_operation_xyz
x,y,z
-x,-y,z
x,-y,-z
-x,y,-z
-x,-y,-z
x,y,-z
-x,y,z
x,-y,z
1/2+x,1/2+y,1/2+z
1/2-x,1/2-y,1/2+z
1/2+x,1/2-y,1/2-z
1/2-x,1/2+y,1/2-z
1/2-x,1/2-y,1/2-z
1/2+x,1/2+y,1/2-z
1/2-x,1/2+y,1/2+z
1/2+x,1/2-y,1/2+z
loop_
_atom_site_type_symbol
_atom_site_label
_atom_site_fract_x
_atom_site_fract_y
_atom_site_fract_z
Si Si1 0.718592 0.157054 0.166292
Si Si2 0.769289 0.658729 0.071047
Si Si3 0.879653 0.252715 0.120025
Si Si4 0.827232 0.843382 0.236927
Si Si5 0.439176 0.000000 0.429975
Si Si6 0.941202 0.000000 0.928755
O O1 0.731137 0.243966 0.107247
O O2 0.772251 0.153568 0.203027
O O3 0.679961 0.243426 0.207221
O O4 0.704190 0.000000 0.156027
O O5 0.764495 0.500000 0.089000
O O6 0.826091 0.709287 0.088267
O O7 0.762293 0.667459 0.000000
O O8 0.866110 0.218110 0.188463
O O9 0.917199 0.374145 0.105666
O O10 0.908185 0.126034 0.092164
O O11 0.839324 0.000000 0.251967
O O12 0.500000 0.000000 0.431262
O O13 0.421469 0.000000 0.500000
O O14 0.000000 0.000000 0.906153
O O15 0.944095 0.000000 0.000000
#
# Coordination Sequence:
#
# PCOD9518776 Si02
#       6
#    16  16  16  16   8   8
#     4   9  18  28  44  65  84 108 137 176 217 253
#     4  10  19  30  44  63  89 118 146 177 214 257
#     4  11  20  32  47  64  82 111 151 189 223 264
#     4   9  17  30  44  61  83 107 139 178 219 261
#     4  11  22  34  46  61  84 114 149 190 235 273
#     4  11  22  34  46  61  84 112 145 190 237 271
#
# _framework density 13.792007
#
# number of rings (size 3 to 8) (size 9 to 14) (size 15 to 20)
#    0.000    2.000    2.000    3.000    2.800    4.400 
#    0.000    0.000    0.000    0.000    0.000    0.000 
#    0.000    0.000    0.000    0.000    0.000    6.000 
#
# Total GULP energy -222851.756807 kJ/mol
# GULP energy per Si atom -5571.293920 kJ/mol
# Density = 1.376062 g / cm^3
# Si number density = 13.792007 Si / 1000 Ang^3
#
#
#
# Elastic Constant Matrix: (Units=GPa)
#
#
# Indices 1 2 3 4 5 6 
#
# 1 43.4066 42.6257 38.8151 0.0000 0.0000 0.0000
# 2 42.6257 165.1202 65.2143 0.0000 0.0000 0.0000
# 3 38.8151 65.2143 74.4549 0.0000 0.0000 0.0000
# 4 0.0000 0.0000 0.0000 19.6226 0.0000 0.0000
# 5 0.0000 0.0000 0.0000 0.0000 20.5573 0.0000
# 6 0.0000 0.0000 0.0000 0.0000 0.0000 -31.9433
#
#
#
# Elastic Compliance Matrix: (Units=1/GPa)
#
#
# Indices 1 2 3 4 5 6 
#
# 1 0.044480 -0.003553 -0.020076 0.000000 0.000000 0.000000
# 2 -0.003553 0.009543 -0.006506 0.000000 0.000000 0.000000
# 3 -0.020076 -0.006506 0.029596 0.000000 0.000000 0.000000
# 4 0.000000 0.000000 0.000000 0.050962 0.000000 0.000000
# 5 0.000000 0.000000 0.000000 0.000000 0.048645 0.000000
# 6 0.000000 0.000000 0.000000 0.000000 0.000000 -0.031305
#
#
# Mechanical properties :
#
#
# Convention : Reuss Voigt Hill
#
# Bulk Modulus (GPa) = 42.83127 64.03244 53.43186
# Shear Modulus (GPa) = 22.73004 10.73576 16.73290
#
# Velocity S-wave (km/s) = 4.06403 2.79302 3.48693
# Velocity P-wave (km/s) = 7.29002 7.54515 7.41868
#
# Compressibility (1/GPa) = 0.02334743
#
# Stress axis : x y z
#
# Youngs Moduli (GPa) = 22.48212 104.78694 33.78857
#
# Poissons Ratio (x) = 0.37235 0.67834
# Poissons Ratio (y) = 0.07989 0.21984
# Poissons Ratio (z) = 0.45135 0.68177
#
# Static dielectric constant tensor:
#      x y z
#    x 1.424430 0.000000 0.000000 
#    y 0.000000 1.449610 0.000000 
#    z 0.000000 0.000000 1.448220 
# 
# From -- ./inp_files/10733.got.cif
#   From: 2010.05.17/outbox.cif.g08.bks.cpg/sg71_6_cif.got.tgz:10733.got - 2010.06.03 16:22:01.
