data_PCOD9518123
_publ_section_title
;
Structure prediction by ZEFSAII (Michael W. Deem and Ramdas Pophale) SiO2 
 PCOD9518123
Probable space group: I M M M
;
_chemical_formula_sum "Si O2"
_cell_formula_units_Z 82
_cell_length_a 22.204469
_cell_length_b 7.346749
_cell_length_c 24.107412
_cell_angle_alpha 90.000000
_cell_angle_beta 90.000000
_cell_angle_gamma 90.000000
_cell_volume 3932.658041
_symmetry_space_group_name_H-M "I M M M"
_symmetry_group_IT_number 71
_symmetry_cell_setting 'orthorhombic'
loop_
_space_group_symop_operation_xyz
x,y,z
-x,-y,z
x,-y,-z
-x,y,-z
-x,-y,-z
x,y,-z
-x,y,z
x,-y,z
1/2+x,1/2+y,1/2+z
1/2-x,1/2-y,1/2+z
1/2+x,1/2-y,1/2-z
1/2-x,1/2+y,1/2-z
1/2-x,1/2-y,1/2-z
1/2+x,1/2+y,1/2-z
1/2-x,1/2+y,1/2+z
1/2+x,1/2-y,1/2+z
loop_
_atom_site_type_symbol
_atom_site_label
_atom_site_fract_x
_atom_site_fract_y
_atom_site_fract_z
Si Si1 0.500000 0.000000 0.000000
Si Si2 0.929199 0.276578 0.000000
Si Si3 0.067905 0.781060 0.212620
Si Si4 0.880956 0.779209 0.673539
Si Si5 0.749649 0.217798 0.683211
Si Si6 0.000000 0.777988 0.396648
Si Si7 0.139194 0.294393 0.109120
O O1 0.500000 0.160174 0.951751
O O2 0.891227 0.215538 0.054001
O O3 0.930678 0.500000 0.000000
O O4 0.000000 0.220682 0.000000
O O5 0.108977 0.719247 0.263172
O O6 0.086538 0.700818 0.154525
O O7 0.000000 0.736542 0.227785
O O8 0.072496 0.000000 0.208093
O O9 0.813799 0.719901 0.658219
O O10 0.938954 0.730276 0.637291
O O11 0.880769 0.000000 0.673988
O O12 0.750000 0.250000 0.750000
O O13 0.694370 0.288390 0.645382
O O14 0.746596 0.000000 0.678964
O O15 0.000000 0.000000 0.404604
O O16 0.157859 0.500000 0.093857
#
# Coordination Sequence:
#
# PCOD9518123 Si02
#       7
#     2   8  16  16  16   8  16
#     4  12  26  44  64  98 120 152 214 254 310 378
#     4   9  18  34  52  69 106 151 188 230 275 331
#     4  10  18  30  51  79 111 144 184 231 286 352
#     4   9  17  33  56  81 112 151 190 228 296 370
#     4  10  19  32  52  83 115 146 185 234 293 362
#     4  10  21  43  67  88 123 166 201 256 316 366
#     4  10  20  33  51  79 108 145 192 238 290 344
#
# _framework density 20.851037999999999
#
# number of rings (size 3 to 8) (size 9 to 14) (size 15 to 20)
#    0.000    2.244    2.927    0.732    0.000    1.171 
#    3.512    1.463    0.000    6.439    0.000    0.000 
#    0.000    0.000    0.000    0.000    0.000    0.000 
#
# Total GULP energy -228320.004161 kJ/mol
# GULP energy per Si atom -5568.780589 kJ/mol
# Density = 2.080358 g / cm^3
# Si number density = 20.851038 Si / 1000 Ang^3
#
#
#
# Elastic Constant Matrix: (Units=GPa)
#
#
# Indices 1 2 3 4 5 6 
#
# 1 152.6316 13.9925 69.4822 0.0000 0.0000 0.0000
# 2 13.9925 81.1295 16.6014 0.0000 0.0000 0.0000
# 3 69.4822 16.6014 163.9581 0.0000 0.0000 0.0000
# 4 0.0000 0.0000 0.0000 15.5246 0.0000 0.0000
# 5 0.0000 0.0000 0.0000 0.0000 23.5619 0.0000
# 6 0.0000 0.0000 0.0000 0.0000 0.0000 1.3382
#
#
#
# Elastic Compliance Matrix: (Units=1/GPa)
#
#
# Indices 1 2 3 4 5 6 
#
# 1 0.008158 -0.000714 -0.003385 0.000000 0.000000 0.000000
# 2 -0.000714 0.012649 -0.000978 0.000000 0.000000 0.000000
# 3 -0.003385 -0.000978 0.007633 0.000000 0.000000 0.000000
# 4 0.000000 0.000000 0.000000 0.064414 0.000000 0.000000
# 5 0.000000 0.000000 0.000000 0.000000 0.042441 0.000000
# 6 0.000000 0.000000 0.000000 0.000000 0.000000 0.747289
#
#
# Mechanical properties :
#
#
# Convention : Reuss Voigt Hill
#
# Bulk Modulus (GPa) = 54.68860 66.43015 60.55938
# Shear Modulus (GPa) = 5.56276 27.92782 16.74529
#
# Velocity S-wave (km/s) = 1.63513 3.66375 2.83696
# Velocity P-wave (km/s) = 5.46352 7.05875 6.31174
#
# Compressibility (1/GPa) = 0.01828535
#
# Stress axis : x y z
#
# Youngs Moduli (GPa) = 122.57723 79.05558 131.01673
#
# Poissons Ratio (x) = 0.05648 0.44348
# Poissons Ratio (y) = 0.08757 0.12814
# Poissons Ratio (z) = 0.41491 0.07732
#
# Static dielectric constant tensor:
#      x y z
#    x 1.777390 0.000000 0.000000 
#    y 0.000000 1.815920 0.000000 
#    z 0.000000 0.000000 1.703430 
# 
# From -- ./inp_files/12458.got.cif
#   From: 2010.05.17/outbox.cif.g08.bks.cpg/sg71_7_cif.got.tgz:12458.got - 2010.06.03 16:22:01.
