data_PCOD9519076
_publ_section_title
;
Structure prediction by ZEFSAII (Michael W. Deem and Ramdas Pophale) SiO2 
 PCOD9519076
Probable space group: I M M M
;
_chemical_formula_sum "Si O2"
_cell_formula_units_Z 104
_cell_length_a 8.541590
_cell_length_b 24.693871
_cell_length_c 23.894582
_cell_angle_alpha 90.000000
_cell_angle_beta 90.000000
_cell_angle_gamma 90.000000
_cell_volume 5039.962835
_symmetry_space_group_name_H-M "I M M M"
_symmetry_group_IT_number 71
_symmetry_cell_setting 'orthorhombic'
loop_
_space_group_symop_operation_xyz
x,y,z
-x,-y,z
x,-y,-z
-x,y,-z
-x,-y,-z
x,y,-z
-x,y,z
x,-y,z
1/2+x,1/2+y,1/2+z
1/2-x,1/2-y,1/2+z
1/2+x,1/2-y,1/2-z
1/2-x,1/2+y,1/2-z
1/2-x,1/2-y,1/2-z
1/2+x,1/2+y,1/2-z
1/2-x,1/2+y,1/2+z
1/2+x,1/2-y,1/2+z
loop_
_atom_site_type_symbol
_atom_site_label
_atom_site_fract_x
_atom_site_fract_y
_atom_site_fract_z
Si Si1 0.818041 0.905039 0.318336
Si Si2 0.190789 0.561349 0.500000
Si Si3 0.175620 0.294322 0.788872
Si Si4 0.311491 0.369861 0.061055
Si Si5 0.812014 0.440644 0.703157
Si Si6 0.311215 0.864753 0.896018
Si Si7 0.675140 0.246782 0.586030
O O1 0.792128 0.844043 0.296506
O O2 0.754886 0.901159 0.382629
O O3 0.736287 0.937184 0.268237
O O4 0.000000 0.920269 0.320533
O O5 0.247233 0.500000 0.500000
O O6 0.236869 0.593555 0.444472
O O7 0.000000 0.560158 0.500000
O O8 0.250000 0.250000 0.750000
O O9 0.161899 0.267013 0.848794
O O10 0.000000 0.312087 0.770729
O O11 0.500000 0.372097 0.063598
O O12 0.263216 0.306469 0.063307
O O13 0.260568 0.391352 0.000000
O O14 0.761031 0.500000 0.681203
O O15 0.756507 0.390936 0.663393
O O16 0.000000 0.439335 0.700606
O O17 0.500000 0.862038 0.893637
O O18 0.254015 0.805470 0.914739
O O19 0.500000 0.249309 0.562502
#
# Coordination Sequence:
#
# PCOD9519076 Si02
#       7
#    16   8  16  16  16  16  16
#     4  10  20  34  54  80 106 136 175 220 271 325
#     4   9  18  34  55  75  95 127 179 233 270 305
#     4  10  19  31  48  71 103 140 175 212 257 312
#     4   9  19  36  57  79 107 142 180 219 261 317
#     4  10  21  37  57  80 107 140 180 227 276 324
#     4  10  20  34  54  78 104 138 180 225 269 313
#     4  10  21  33  47  74 109 141 172 210 258 315
#
# _framework density 20.635073999999999
#
# number of rings (size 3 to 8) (size 9 to 14) (size 15 to 20)
#    0.000    2.231    0.000    2.769    1.077    8.000 
#    0.000    0.000    0.000    2.308    0.000    3.231 
#    0.000    0.000    0.000    0.000    0.000    0.000 
#
# Total GULP energy -289772.828267 kJ/mol
# GULP energy per Si atom -5572.554390 kJ/mol
# Density = 2.058811 g / cm^3
# Si number density = 20.635074 Si / 1000 Ang^3
#
#
#
# Elastic Constant Matrix: (Units=GPa)
#
#
# Indices 1 2 3 4 5 6 
#
# 1 18.4110 -2.3810 7.8789 0.0000 0.0000 0.0000
# 2 -2.3810 40.1988 4.7675 0.0000 0.0000 0.0000
# 3 7.8789 4.7675 116.9730 0.0000 0.0000 0.0000
# 4 0.0000 0.0000 0.0000 9.3590 0.0000 0.0000
# 5 0.0000 0.0000 0.0000 0.0000 15.5217 0.0000
# 6 0.0000 0.0000 0.0000 0.0000 0.0000 12.9858
#
#
#
# Elastic Compliance Matrix: (Units=1/GPa)
#
#
# Indices 1 2 3 4 5 6 
#
# 1 0.056504 0.003817 -0.003962 0.000000 0.000000 0.000000
# 2 0.003817 0.025255 -0.001286 0.000000 0.000000 0.000000
# 3 -0.003962 -0.001286 0.008868 0.000000 0.000000 0.000000
# 4 0.000000 0.000000 0.000000 0.106849 0.000000 0.000000
# 5 0.000000 0.000000 0.000000 0.000000 0.064426 0.000000
# 6 0.000000 0.000000 0.000000 0.000000 0.000000 0.077007
#
#
# Mechanical properties :
#
#
# Convention : Reuss Voigt Hill
#
# Bulk Modulus (GPa) = 11.39405 21.79038 16.59221
# Shear Modulus (GPa) = 13.47608 18.59445 16.03526
#
# Velocity S-wave (km/s) = 2.55829 3.00510 2.79065
# Velocity P-wave (km/s) = 3.77626 4.75643 4.29440
#
# Compressibility (1/GPa) = 0.08776512
#
# Stress axis : x y z
#
# Youngs Moduli (GPa) = 17.69774 39.59613 112.76184
#
# Poissons Ratio (x) = -0.15112 0.44671
# Poissons Ratio (y) = -0.06755 0.14506
# Poissons Ratio (z) = 0.07011 0.05094
#
# Static dielectric constant tensor:
#      x y z
#    x 1.751560 0.000000 0.000000 
#    y 0.000000 1.629560 0.000000 
#    z 0.000000 0.000000 1.765060 
# 
# From -- ./inp_files/11150.got.cif
#   From: 2010.05.17/outbox.cif.g08.bks.cpg/sg71_6_cif.got.tgz:11150.got - 2010.06.03 16:22:01.
