data_PCOD9519520
_publ_section_title
;
Structure prediction by ZEFSAII (Michael W. Deem and Ramdas Pophale) SiO2 
 PCOD9519520
Probable space group: I M M M
;
_chemical_formula_sum "Si O2"
_cell_formula_units_Z 80
_cell_length_a 17.316304
_cell_length_b 8.482049
_cell_length_c 24.433780
_cell_angle_alpha 90.000000
_cell_angle_beta 90.000000
_cell_angle_gamma 90.000000
_cell_volume 3588.778362
_symmetry_space_group_name_H-M "I M M M"
_symmetry_group_IT_number 71
_symmetry_cell_setting 'orthorhombic'
loop_
_space_group_symop_operation_xyz
x,y,z
-x,-y,z
x,-y,-z
-x,y,-z
-x,-y,-z
x,y,-z
-x,y,z
x,-y,z
1/2+x,1/2+y,1/2+z
1/2-x,1/2-y,1/2+z
1/2+x,1/2-y,1/2-z
1/2-x,1/2+y,1/2-z
1/2-x,1/2-y,1/2-z
1/2+x,1/2+y,1/2-z
1/2-x,1/2+y,1/2+z
1/2+x,1/2-y,1/2+z
loop_
_atom_site_type_symbol
_atom_site_label
_atom_site_fract_x
_atom_site_fract_y
_atom_site_fract_z
Si Si1 0.414548 0.308878 0.769330
Si Si2 0.815415 0.681566 0.000000
Si Si3 0.913357 0.819064 0.904977
Si Si4 0.141414 0.310680 0.619864
Si Si5 0.855204 0.810308 0.500000
Si Si6 0.290801 0.681853 0.687793
O O1 0.500000 0.265244 0.746043
O O2 0.410131 0.500000 0.767660
O O3 0.412817 0.248329 0.831394
O O4 0.332395 0.248176 0.742579
O O5 0.865121 0.722248 0.947841
O O6 0.796995 0.500000 0.000000
O O7 0.732251 0.761280 0.000000
O O8 0.868844 0.820200 0.848413
O O9 0.000000 0.760913 0.899924
O O10 0.915027 0.000000 0.924840
O O11 0.143068 0.500000 0.616073
O O12 0.117680 0.245575 0.560236
O O13 0.225721 0.255762 0.645055
O O14 0.861417 0.000000 0.500000
O O15 0.269009 0.500000 0.699450
#
# Coordination Sequence:
#
# PCOD9519520 Si02
#       6
#    16   8  16  16   8  16
#     4  10  21  39  62  88 121 159 197 239 289 351
#     4  11  22  34  49  73 111 151 190 243 294 342
#     4  10  19  32  52  77 109 153 201 240 277 334
#     4  11  22  38  63  91 120 153 194 249 299 344
#     4  11  23  40  61  86 116 155 200 244 295 358
#     4   9  18  34  58  87 117 154 197 237 281 339
#
# _framework density 22.291709000000001
#
# number of rings (size 3 to 8) (size 9 to 14) (size 15 to 20)
#    0.000    1.800    2.000    2.700    0.000    5.200 
#    0.000    2.500    0.000    5.400    0.000    0.000 
#    0.000    0.000    0.000    0.000    0.000    0.000 
#
# Total GULP energy -222793.056906 kJ/mol
# GULP energy per Si atom -5569.826423 kJ/mol
# Density = 2.224097 g / cm^3
# Si number density = 22.291709 Si / 1000 Ang^3
#
#
#
# Elastic Constant Matrix: (Units=GPa)
#
#
# Indices 1 2 3 4 5 6 
#
# 1 58.1857 -0.6999 -12.6178 0.0000 0.0000 0.0000
# 2 -0.6999 27.4608 27.1036 0.0000 0.0000 0.0000
# 3 -12.6178 27.1036 121.2017 0.0000 0.0000 0.0000
# 4 0.0000 0.0000 0.0000 37.4225 0.0000 0.0000
# 5 0.0000 0.0000 0.0000 0.0000 21.8797 0.0000
# 6 0.0000 0.0000 0.0000 0.0000 0.0000 14.5942
#
#
#
# Elastic Compliance Matrix: (Units=1/GPa)
#
#
# Indices 1 2 3 4 5 6 
#
# 1 0.017649 -0.001750 0.002229 0.000000 0.000000 0.000000
# 2 -0.001750 0.046903 -0.010671 0.000000 0.000000 0.000000
# 3 0.002229 -0.010671 0.010869 0.000000 0.000000 0.000000
# 4 0.000000 0.000000 0.000000 0.026722 0.000000 0.000000
# 5 0.000000 0.000000 0.000000 0.000000 0.045704 0.000000
# 6 0.000000 0.000000 0.000000 0.000000 0.000000 0.068520
#
#
# Mechanical properties :
#
#
# Convention : Reuss Voigt Hill
#
# Bulk Modulus (GPa) = 18.16974 26.04667 22.10821
# Shear Modulus (GPa) = 19.60039 27.65009 23.62524
#
# Velocity S-wave (km/s) = 2.96846 3.52572 3.25902
# Velocity P-wave (km/s) = 4.46292 5.31828 4.90926
#
# Compressibility (1/GPa) = 0.05503655
#
# Stress axis : x y z
#
# Youngs Moduli (GPa) = 56.66171 21.32059 92.00494
#
# Poissons Ratio (x) = 0.03731 -0.20504
# Poissons Ratio (y) = 0.09915 0.98177
# Poissons Ratio (z) = -0.12628 0.22751
#
# Static dielectric constant tensor:
#      x y z
#    x 1.896200 0.000000 0.000000 
#    y 0.000000 1.778220 0.000000 
#    z 0.000000 0.000000 1.934590 
# 
# From -- ./inp_files/61022.got.cif
#   From: 2010.05.17/outbox.cif.g08.bks.cpg/sg71_31_cif.got.tgz:61022.got - 2010.06.03 16:22:01.
