data_PCOD9519486
_publ_section_title
;
Structure prediction by ZEFSAII (Michael W. Deem and Ramdas Pophale) SiO2 
 PCOD9519486
Probable space group: I M M M
;
_chemical_formula_sum "Si O2"
_cell_formula_units_Z 88
_cell_length_a 7.367324
_cell_length_b 31.890206
_cell_length_c 16.775163
_cell_angle_alpha 90.000000
_cell_angle_beta 90.000000
_cell_angle_gamma 90.000000
_cell_volume 3941.248724
_symmetry_space_group_name_H-M "I M M M"
_symmetry_group_IT_number 71
_symmetry_cell_setting 'orthorhombic'
loop_
_space_group_symop_operation_xyz
x,y,z
-x,-y,z
x,-y,-z
-x,y,-z
-x,-y,-z
x,y,-z
-x,y,z
x,-y,z
1/2+x,1/2+y,1/2+z
1/2-x,1/2-y,1/2+z
1/2+x,1/2-y,1/2-z
1/2-x,1/2+y,1/2-z
1/2-x,1/2-y,1/2-z
1/2+x,1/2+y,1/2-z
1/2-x,1/2+y,1/2+z
1/2+x,1/2-y,1/2+z
loop_
_atom_site_type_symbol
_atom_site_label
_atom_site_fract_x
_atom_site_fract_y
_atom_site_fract_z
Si Si1 0.217504 0.222398 0.669890
Si Si2 0.221091 0.500000 0.592987
Si Si3 0.280133 0.545441 0.906059
Si Si4 0.207215 0.872379 0.321277
Si Si5 0.220628 0.642922 0.500000
Si Si6 0.278260 0.760986 0.000000
Si Si7 0.720232 0.089992 0.847347
O O1 0.250000 0.250000 0.750000
O O2 0.286075 0.174442 0.676980
O O3 0.280627 0.240906 0.584527
O O4 0.000000 0.220845 0.665003
O O5 0.277696 0.500000 0.500000
O O6 0.278014 0.457735 0.637258
O O7 0.000000 0.500000 0.591357
O O8 0.500000 0.545587 0.896170
O O9 0.216983 0.500000 0.873422
O O10 0.209036 0.588443 0.868772
O O11 0.242779 0.545821 0.000000
O O12 0.206910 0.888842 0.231491
O O13 0.000000 0.868172 0.351434
O O14 0.279157 0.690697 0.500000
O O15 0.276803 0.617635 0.422436
O O16 0.000000 0.643047 0.500000
O O17 0.500000 0.759517 0.000000
O O18 0.500000 0.090354 0.842792
#
# Coordination Sequence:
#
# PCOD9519486 Si02
#       7
#    16   8  16  16   8   8  16
#     4  10  21  37  56  80 110 140 177 225 273 322
#     4   9  16  30  51  77 104 133 178 226 259 297
#     4   8  15  29  49  72  99 131 165 202 246 297
#     4  10  21  33  51  79 107 134 169 214 260 306
#     4   9  16  29  51  74  94 127 176 212 243 298
#     4   9  18  32  54  79 101 134 178 221 265 318
#     4  10  19  32  52  75 103 139 173 210 255 306
#
# _framework density 22.327949
#
# number of rings (size 3 to 8) (size 9 to 14) (size 15 to 20)
#    0.000    2.636    0.909    1.636    2.545    2.182 
#    0.000    0.909    0.000    4.364    0.000    1.273 
#    0.000    0.000    0.000    0.000    0.000    0.000 
#
# Total GULP energy -245619.866408 kJ/mol
# GULP energy per Si atom -5582.269691 kJ/mol
# Density = 2.227713 g / cm^3
# Si number density = 22.327949 Si / 1000 Ang^3
#
#
#
# Elastic Constant Matrix: (Units=GPa)
#
#
# Indices 1 2 3 4 5 6 
#
# 1 82.3475 10.3448 -0.5528 0.0000 0.0000 0.0000
# 2 10.3448 276.0239 113.4008 0.0000 0.0000 0.0000
# 3 -0.5528 113.4008 129.1055 0.0000 0.0000 0.0000
# 4 0.0000 0.0000 0.0000 85.2029 0.0000 0.0000
# 5 0.0000 0.0000 0.0000 0.0000 25.8203 0.0000
# 6 0.0000 0.0000 0.0000 0.0000 0.0000 4.8138
#
#
#
# Elastic Compliance Matrix: (Units=1/GPa)
#
#
# Indices 1 2 3 4 5 6 
#
# 1 0.012243 -0.000752 0.000713 0.000000 0.000000 0.000000
# 2 -0.000752 0.005715 -0.005023 0.000000 0.000000 0.000000
# 3 0.000713 -0.005023 0.012160 0.000000 0.000000 0.000000
# 4 0.000000 0.000000 0.000000 0.011737 0.000000 0.000000
# 5 0.000000 0.000000 0.000000 0.000000 0.038729 0.000000
# 6 0.000000 0.000000 0.000000 0.000000 0.000000 0.207735
#
#
# Mechanical properties :
#
#
# Convention : Reuss Voigt Hill
#
# Bulk Modulus (GPa) = 50.01389 81.54029 65.77709
# Shear Modulus (GPa) = 16.38772 47.45301 31.92037
#
# Velocity S-wave (km/s) = 2.71210 4.61507 3.78513
# Velocity P-wave (km/s) = 5.67940 8.06208 6.97326
#
# Compressibility (1/GPa) = 0.01999445
#
# Stress axis : x y z
#
# Youngs Moduli (GPa) = 81.68029 174.99291 82.23477
#
# Poissons Ratio (x) = 0.13152 -0.05860
# Poissons Ratio (y) = 0.06139 0.41303
# Poissons Ratio (z) = -0.05820 0.87892
#
# Static dielectric constant tensor:
#      x y z
#    x 1.923650 0.000000 0.000000 
#    y 0.000000 1.816000 0.000000 
#    z 0.000000 0.000000 1.757520 
# 
# From -- ./inp_files/42545.got.cif
#   From: 2010.05.17/outbox.cif.g08.bks.cpg/sg71_22_cif.got.tgz:42545.got - 2010.06.03 16:22:01.
