data_PCOD9519292
_publ_section_title
;
Structure prediction by ZEFSAII (Michael W. Deem and Ramdas Pophale) SiO2 
 PCOD9519292
Probable space group: I M M M
;
_chemical_formula_sum "Si O2"
_cell_formula_units_Z 104
_cell_length_a 22.774230
_cell_length_b 18.572893
_cell_length_c 14.415673
_cell_angle_alpha 90.000000
_cell_angle_beta 90.000000
_cell_angle_gamma 90.000000
_cell_volume 6097.589470
_symmetry_space_group_name_H-M "I M M M"
_symmetry_group_IT_number 71
_symmetry_cell_setting 'orthorhombic'
loop_
_space_group_symop_operation_xyz
x,y,z
-x,-y,z
x,-y,-z
-x,y,-z
-x,-y,-z
x,y,-z
-x,y,z
x,-y,z
1/2+x,1/2+y,1/2+z
1/2-x,1/2-y,1/2+z
1/2+x,1/2-y,1/2-z
1/2-x,1/2+y,1/2-z
1/2-x,1/2-y,1/2-z
1/2+x,1/2+y,1/2-z
1/2-x,1/2+y,1/2+z
1/2+x,1/2-y,1/2+z
loop_
_atom_site_type_symbol
_atom_site_label
_atom_site_fract_x
_atom_site_fract_y
_atom_site_fract_z
Si Si1 0.000000 0.342375 0.389665
Si Si2 0.388303 0.583707 0.109832
Si Si3 0.726700 0.809752 0.893449
Si Si4 0.780568 0.842579 0.696974
Si Si5 0.932959 0.587642 0.000000
Si Si6 0.876759 0.581499 0.641969
Si Si7 0.000000 0.179062 0.387367
Si Si8 0.662358 0.081617 0.646556
O O1 0.941212 0.385213 0.365508
O O2 0.000000 0.260832 0.351590
O O3 0.000000 0.335431 0.500000
O O4 0.404693 0.500000 0.118978
O O5 0.331649 0.602639 0.170365
O O6 0.441851 0.635077 0.138582
O O7 0.375481 0.596501 0.000000
O O8 0.769471 0.835067 0.808248
O O9 0.704696 0.733433 0.852027
O O10 0.672535 0.865397 0.898160
O O11 0.749523 0.802262 0.000000
O O12 0.719932 0.869527 0.650110
O O13 0.892218 0.608751 0.913704
O O14 0.936522 0.500000 0.000000
O O15 0.000000 0.614127 0.000000
O O16 0.874973 0.500000 0.604668
O O17 0.860285 0.577279 0.749429
O O18 0.000000 0.180614 0.500000
O O19 0.677816 0.000000 0.615392
#
# Coordination Sequence:
#
# PCOD9519292 Si02
#       8
#     8  16  16  16   8  16   8  16
#     4  11  21  31  49  72  95 133 176 212 254 308
#     4  10  19  31  53  81 110 138 169 209 263 321
#     4  10  21  36  53  73 102 139 172 213 264 316
#     4  10  20  34  53  79 105 136 173 217 261 311
#     4   9  18  30  48  72 102 139 172 202 251 309
#     4  10  21  35  50  70 100 134 175 221 259 298
#     4   9  19  35  51  73 107 141 169 208 259 321
#     4   9  19  33  50  74 104 134 170 213 256 305
#
# _framework density 17.055921000000001
#
# number of rings (size 3 to 8) (size 9 to 14) (size 15 to 20)
#    0.000    2.231    0.000    2.769    3.231    4.308 
#    0.000    0.000    0.000    0.000    0.000    0.538 
#    0.000    1.231    0.000    0.000    0.000    0.154 
#
# Total GULP energy -289740.598704 kJ/mol
# GULP energy per Si atom -5571.934590 kJ/mol
# Density = 1.701710 g / cm^3
# Si number density = 17.055921 Si / 1000 Ang^3
#
#
#
# Elastic Constant Matrix: (Units=GPa)
#
#
# Indices 1 2 3 4 5 6 
#
# 1 94.7819 48.1416 31.1019 0.0000 0.0000 0.0000
# 2 48.1416 107.2057 24.8215 0.0000 0.0000 0.0000
# 3 31.1019 24.8215 82.3345 0.0000 0.0000 0.0000
# 4 0.0000 0.0000 0.0000 21.4943 0.0000 0.0000
# 5 0.0000 0.0000 0.0000 0.0000 -8.2028 0.0000
# 6 0.0000 0.0000 0.0000 0.0000 0.0000 29.4319
#
#
#
# Elastic Compliance Matrix: (Units=1/GPa)
#
#
# Indices 1 2 3 4 5 6 
#
# 1 0.014714 -0.005720 -0.003834 0.000000 0.000000 0.000000
# 2 -0.005720 0.012251 -0.001533 0.000000 0.000000 0.000000
# 3 -0.003834 -0.001533 0.014056 0.000000 0.000000 0.000000
# 4 0.000000 0.000000 0.000000 0.046524 0.000000 0.000000
# 5 0.000000 0.000000 0.000000 0.000000 -0.121909 0.000000
# 6 0.000000 0.000000 0.000000 0.000000 0.000000 0.033977
#
#
# Mechanical properties :
#
#
# Convention : Reuss Voigt Hill
#
# Bulk Modulus (GPa) = 53.05516 54.71692 53.88604
# Shear Modulus (GPa) = 178.14144 20.56181 99.35163
#
# Velocity S-wave (km/s) = 10.23095 3.47587 7.64048
# Velocity P-wave (km/s) = 13.06664 6.94690 10.46414
#
# Compressibility (1/GPa) = 0.01884831
#
# Stress axis : x y z
#
# Youngs Moduli (GPa) = 67.96386 81.62451 71.14458
#
# Poissons Ratio (x) = 0.46687 0.27275
# Poissons Ratio (y) = 0.38873 0.10905
# Poissons Ratio (z) = 0.26056 0.12511
#
# Static dielectric constant tensor:
#      x y z
#    x 1.540220 0.000000 0.000000 
#    y 0.000000 1.607760 0.000000 
#    z 0.000000 0.000000 1.602500 
# 
# From -- ./inp_files/38131.got.cif
#   From: 2010.05.17/outbox.cif.g08.bks.cpg/sg71_20_cif.got.tgz:38131.got - 2010.06.03 16:22:01.
