data_PCOD9519990
_publ_section_title
;
Structure prediction by ZEFSAII (Michael W. Deem and Ramdas Pophale) SiO2 
 PCOD9519990
Probable space group: I M M M
;
_chemical_formula_sum "Si O2"
_cell_formula_units_Z 112
_cell_length_a 13.354084
_cell_length_b 15.296044
_cell_length_c 27.287476
_cell_angle_alpha 90.000000
_cell_angle_beta 90.000000
_cell_angle_gamma 90.000000
_cell_volume 5573.866910
_symmetry_space_group_name_H-M "I M M M"
_symmetry_group_IT_number 71
_symmetry_cell_setting 'orthorhombic'
loop_
_space_group_symop_operation_xyz
x,y,z
-x,-y,z
x,-y,-z
-x,y,-z
-x,-y,-z
x,y,-z
-x,y,z
x,-y,z
1/2+x,1/2+y,1/2+z
1/2-x,1/2-y,1/2+z
1/2+x,1/2-y,1/2-z
1/2-x,1/2+y,1/2-z
1/2-x,1/2-y,1/2-z
1/2+x,1/2+y,1/2-z
1/2-x,1/2+y,1/2+z
1/2+x,1/2-y,1/2+z
loop_
_atom_site_type_symbol
_atom_site_label
_atom_site_fract_x
_atom_site_fract_y
_atom_site_fract_z
Si Si1 0.686423 0.592091 0.613397
Si Si2 0.890697 0.167528 0.588118
Si Si3 0.758447 0.399633 0.276399
Si Si4 0.891425 0.269857 0.865440
Si Si5 0.685369 0.717312 0.806976
Si Si6 0.612483 0.866553 0.056733
Si Si7 0.179795 0.398869 0.055189
O O1 0.640798 0.500000 0.597692
O O2 0.701773 0.591108 0.671988
O O3 0.626499 0.680221 0.604580
O O4 0.796557 0.599805 0.589463
O O5 0.878612 0.190735 0.645819
O O6 0.884462 0.261447 0.561428
O O7 0.796468 0.112508 0.570167
O O8 0.000000 0.128732 0.578793
O O9 0.792819 0.500000 0.263984
O O10 0.687945 0.357036 0.234577
O O11 0.833660 0.316481 0.287193
O O12 0.799466 0.279927 0.828085
O O13 0.881437 0.346353 0.904683
O O14 0.000000 0.268658 0.841484
O O15 0.500000 0.893582 0.072348
O O16 0.625751 0.891362 0.000000
O O17 0.153057 0.500000 0.056111
O O18 0.166001 0.364946 0.000000
#
# Coordination Sequence:
#
# PCOD9519990 Si02
#       7
#    16  16  16  16  16  16  16
#     4  10  20  37  59  84 114 148 189 233 282 338
#     4  10  19  34  57  85 116 148 181 223 276 338
#     4   9  17  33  56  77 108 149 185 229 282 332
#     4  10  21  38  57  78 106 143 187 237 287 329
#     4   9  18  35  55  80 108 142 188 229 275 336
#     4  10  19  33  56  85 117 151 184 220 272 339
#     4  10  21  37  57  81 109 145 188 230 278 335
#
# _framework density 20.093771
#
# number of rings (size 3 to 8) (size 9 to 14) (size 15 to 20)
#    0.000    2.286    4.286    0.429    0.000    4.857 
#    0.000    9.286    0.000    5.571    0.000    2.000 
#    0.000    0.000    0.000    0.000    0.000    0.000 
#
# Total GULP energy -311923.081040 kJ/mol
# GULP energy per Si atom -5570.055019 kJ/mol
# Density = 2.004804 g / cm^3
# Si number density = 20.093771 Si / 1000 Ang^3
#
#
#
# Elastic Constant Matrix: (Units=GPa)
#
#
# Indices 1 2 3 4 5 6 
#
# 1 75.3879 5.7342 2.6187 0.0000 0.0000 0.0000
# 2 5.7342 98.7032 27.1826 0.0000 0.0000 0.0000
# 3 2.6187 27.1826 70.6668 0.0000 0.0000 0.0000
# 4 0.0000 0.0000 0.0000 -3.1248 0.0000 0.0000
# 5 0.0000 0.0000 0.0000 0.0000 7.6351 0.0000
# 6 0.0000 0.0000 0.0000 0.0000 0.0000 -15.4706
#
#
#
# Elastic Compliance Matrix: (Units=1/GPa)
#
#
# Indices 1 2 3 4 5 6 
#
# 1 0.013327 -0.000714 -0.000219 0.000000 0.000000 0.000000
# 2 -0.000714 0.011370 -0.004347 0.000000 0.000000 0.000000
# 3 -0.000219 -0.004347 0.015831 0.000000 0.000000 0.000000
# 4 0.000000 0.000000 0.000000 -0.320023 0.000000 0.000000
# 5 0.000000 0.000000 0.000000 0.000000 0.130974 0.000000
# 6 0.000000 0.000000 0.000000 0.000000 0.000000 -0.064639
#
#
# Mechanical properties :
#
#
# Convention : Reuss Voigt Hill
#
# Bulk Modulus (GPa) = 33.36955 35.09209 34.23082
# Shear Modulus (GPa) = -25.95905 11.75611 -7.10147
#
# Velocity S-wave (km/s) = -3.59819 2.42143 -1.88198
# Velocity P-wave (km/s) = 0.78721 5.03188 3.51427
#
# Compressibility (1/GPa) = 0.02996744
#
# Stress axis : x y z
#
# Youngs Moduli (GPa) = 75.03770 87.95043 63.16638
#
# Poissons Ratio (x) = 0.06278 0.01385
# Poissons Ratio (y) = 0.05356 0.27459
# Poissons Ratio (z) = 0.01645 0.38233
#
# Static dielectric constant tensor:
#      x y z
#    x 1.707270 0.000000 0.000000 
#    y 0.000000 1.772970 0.000000 
#    z 0.000000 0.000000 1.706560 
# 
# From -- ./inp_files/70081.got.cif
#   From: 2010.05.17/outbox.cif.g08.bks.cpg/sg71_36_cif.got.tgz:70081.got - 2010.06.03 16:22:01.
