data_PCOD9519629
_publ_section_title
;
Structure prediction by ZEFSAII (Michael W. Deem and Ramdas Pophale) SiO2 
 PCOD9519629
Probable space group: I M M M
;
_chemical_formula_sum "Si O2"
_cell_formula_units_Z 88
_cell_length_a 7.378145
_cell_length_b 20.389281
_cell_length_c 27.601869
_cell_angle_alpha 90.000000
_cell_angle_beta 90.000000
_cell_angle_gamma 90.000000
_cell_volume 4152.289141
_symmetry_space_group_name_H-M "I M M M"
_symmetry_group_IT_number 71
_symmetry_cell_setting 'orthorhombic'
loop_
_space_group_symop_operation_xyz
x,y,z
-x,-y,z
x,-y,-z
-x,y,-z
-x,-y,-z
x,y,-z
-x,y,z
x,-y,z
1/2+x,1/2+y,1/2+z
1/2-x,1/2-y,1/2+z
1/2+x,1/2-y,1/2-z
1/2-x,1/2+y,1/2-z
1/2-x,1/2-y,1/2-z
1/2+x,1/2+y,1/2-z
1/2-x,1/2+y,1/2+z
1/2+x,1/2-y,1/2+z
loop_
_atom_site_type_symbol
_atom_site_label
_atom_site_fract_x
_atom_site_fract_y
_atom_site_fract_z
Si Si1 0.000000 0.921160 0.558011
Si Si2 0.220716 0.427189 0.586156
Si Si3 0.780530 0.285437 0.446604
Si Si4 0.708713 0.837927 0.616672
Si Si5 0.279607 0.927298 0.198361
Si Si6 0.283498 0.820480 0.726577
O O1 0.170508 0.885968 0.583895
O O2 0.000000 0.908367 0.500000
O O3 0.000000 0.000000 0.565081
O O4 0.279702 0.500000 0.569489
O O5 0.278859 0.360801 0.559998
O O6 0.274137 0.419197 0.642465
O O7 0.000000 0.428197 0.583799
O O8 0.727501 0.262074 0.500000
O O9 0.714654 0.234672 0.406675
O O10 0.000000 0.285087 0.443856
O O11 0.500000 0.860337 0.617477
O O12 0.780783 0.831057 0.671680
O O13 0.500000 0.924365 0.197669
O O14 0.212354 0.873566 0.235432
O O15 0.227408 0.000000 0.214208
O O16 0.500000 0.828239 0.723678
O O17 0.250000 0.750000 0.750000
#
# Coordination Sequence:
#
# PCOD9519629 Si02
#       6
#     8  16  16  16  16  16
#     4  11  26  48  72  96 125 167 219 277 345 410
#     4   8  14  25  45  77 115 155 199 246 295 351
#     4  10  19  32  54  81 113 157 203 251 308 368
#     4  11  24  41  64  95 128 165 211 267 328 392
#     4   8  14  27  47  71 103 144 186 227 279 345
#     4  10  21  34  56  88 121 161 203 248 304 369
#
# _framework density 21.193128000000002
#
# number of rings (size 3 to 8) (size 9 to 14) (size 15 to 20)
#    0.000    2.455    0.909    2.727    1.273    4.364 
#    0.000    4.545    0.000    0.545    0.000    6.364 
#    0.000    0.000    0.000    0.000    0.000    0.000 
#
# Total GULP energy -245709.052980 kJ/mol
# GULP energy per Si atom -5584.296659 kJ/mol
# Density = 2.114489 g / cm^3
# Si number density = 21.193128 Si / 1000 Ang^3
#
#
#
# Elastic Constant Matrix: (Units=GPa)
#
#
# Indices 1 2 3 4 5 6 
#
# 1 95.6939 11.2659 14.6714 0.0000 0.0000 0.0000
# 2 11.2659 103.0580 33.2323 0.0000 0.0000 0.0000
# 3 14.6714 33.2323 77.5880 0.0000 0.0000 0.0000
# 4 0.0000 0.0000 0.0000 43.0107 0.0000 0.0000
# 5 0.0000 0.0000 0.0000 0.0000 0.2689 0.0000
# 6 0.0000 0.0000 0.0000 0.0000 0.0000 5.2152
#
#
#
# Elastic Compliance Matrix: (Units=1/GPa)
#
#
# Indices 1 2 3 4 5 6 
#
# 1 0.010794 -0.000605 -0.001782 0.000000 0.000000 0.000000
# 2 -0.000605 0.011292 -0.004722 0.000000 0.000000 0.000000
# 3 -0.001782 -0.004722 0.015248 0.000000 0.000000 0.000000
# 4 0.000000 0.000000 0.000000 0.023250 0.000000 0.000000
# 5 0.000000 0.000000 0.000000 0.000000 3.718776 0.000000
# 6 0.000000 0.000000 0.000000 0.000000 0.000000 0.191748
#
#
# Mechanical properties :
#
#
# Convention : Reuss Voigt Hill
#
# Bulk Modulus (GPa) = 43.26031 43.85323 43.55677
# Shear Modulus (GPa) = 1.25218 24.17698 12.71458
#
# Velocity S-wave (km/s) = 0.76950 3.38123 2.45202
# Velocity P-wave (km/s) = 4.60936 5.99839 5.34916
#
# Compressibility (1/GPa) = 0.02311588
#
# Stress axis : x y z
#
# Youngs Moduli (GPa) = 92.64018 88.55698 65.58190
#
# Poissons Ratio (x) = 0.05362 0.11686
# Poissons Ratio (y) = 0.05609 0.30969
# Poissons Ratio (z) = 0.16507 0.41818
#
# Static dielectric constant tensor:
#      x y z
#    x 1.840290 0.000000 0.000000 
#    y 0.000000 1.756650 0.000000 
#    z 0.000000 0.000000 1.635340 
# 
# From -- ./inp_files/57532.got.cif
#   From: 2010.05.17/outbox.cif.g08.bks.cpg/sg71_29_cif.got.tgz:57532.got - 2010.06.03 16:22:01.
