data_PCOD9519790
_publ_section_title
;
Structure prediction by ZEFSAII (Michael W. Deem and Ramdas Pophale) SiO2 
 PCOD9519790
Probable space group: I M M M
;
_chemical_formula_sum "Si O2"
_cell_formula_units_Z 104
_cell_length_a 19.533237
_cell_length_b 7.431524
_cell_length_c 34.155514
_cell_angle_alpha 90.000000
_cell_angle_beta 90.000000
_cell_angle_gamma 90.000000
_cell_volume 4958.073145
_symmetry_space_group_name_H-M "I M M M"
_symmetry_group_IT_number 71
_symmetry_cell_setting 'orthorhombic'
loop_
_space_group_symop_operation_xyz
x,y,z
-x,-y,z
x,-y,-z
-x,y,-z
-x,-y,-z
x,y,-z
-x,y,z
x,-y,z
1/2+x,1/2+y,1/2+z
1/2-x,1/2-y,1/2+z
1/2+x,1/2-y,1/2-z
1/2-x,1/2+y,1/2-z
1/2-x,1/2-y,1/2-z
1/2+x,1/2+y,1/2-z
1/2-x,1/2+y,1/2+z
1/2+x,1/2-y,1/2+z
loop_
_atom_site_type_symbol
_atom_site_label
_atom_site_fract_x
_atom_site_fract_y
_atom_site_fract_z
Si Si1 0.832094 0.789657 0.116627
Si Si2 0.578703 0.719604 0.544652
Si Si3 0.578666 0.218238 0.307234
Si Si4 0.916656 0.208188 0.500000
Si Si5 0.310215 0.788629 0.149653
Si Si6 0.578439 0.718016 0.084845
Si Si7 0.827209 0.285189 0.263732
O O1 0.869233 0.715262 0.077948
O O2 0.883345 0.776567 0.153285
O O3 0.759567 0.711345 0.131064
O O4 0.819615 0.000000 0.107877
O O5 0.595552 0.772974 0.500000
O O6 0.500000 0.774071 0.553006
O O7 0.578846 0.500000 0.545441
O O8 0.500000 0.276594 0.306503
O O9 0.620608 0.283322 0.269201
O O10 0.579643 0.000000 0.307149
O O11 0.896988 0.285377 0.457918
O O12 0.000000 0.208663 0.500000
O O13 0.894219 0.000000 0.500000
O O14 0.371222 0.772284 0.119029
O O15 0.331492 0.713643 0.191996
O O16 0.295842 0.000000 0.156623
O O17 0.500000 0.776637 0.091273
O O18 0.577344 0.500000 0.082948
O O19 0.838668 0.500000 0.264992
O O20 0.750000 0.250000 0.250000
#
# Coordination Sequence:
#
# PCOD9519790 Si02
#       7
#    16  16  16   8  16  16  16
#     4  10  19  33  52  76 104 134 172 212 251 297
#     4   8  14  26  46  71  98 131 169 206 247 294
#     4  10  21  35  53  78 103 132 171 211 255 304
#     4   7  12  28  53  75  97 129 170 215 256 297
#     4  10  21  34  50  77 108 138 169 208 264 317
#     4   9  18  34  56  79 102 134 178 220 257 304
#     4  10  20  36  55  73 100 138 174 209 253 309
#
# _framework density 20.97589
#
# number of rings (size 3 to 8) (size 9 to 14) (size 15 to 20)
#    0.000    2.692    1.538    1.846    0.000    3.077 
#    1.385    1.923    0.000    1.846    0.000    2.154 
#    0.000    0.000    0.000    0.000    0.000    0.000 
#
# Total GULP energy -290153.940459 kJ/mol
# GULP energy per Si atom -5579.883470 kJ/mol
# Density = 2.092815 g / cm^3
# Si number density = 20.975890 Si / 1000 Ang^3
#
#
#
# Elastic Constant Matrix: (Units=GPa)
#
#
# Indices 1 2 3 4 5 6 
#
# 1 106.0952 -14.5007 75.8428 0.0000 0.0000 0.0000
# 2 -14.5007 63.1853 -11.3954 0.0000 0.0000 0.0000
# 3 75.8428 -11.3954 191.2859 0.0000 0.0000 0.0000
# 4 0.0000 0.0000 0.0000 6.6010 0.0000 0.0000
# 5 0.0000 0.0000 0.0000 0.0000 41.0704 0.0000
# 6 0.0000 0.0000 0.0000 0.0000 0.0000 11.8537
#
#
#
# Elastic Compliance Matrix: (Units=1/GPa)
#
#
# Indices 1 2 3 4 5 6 
#
# 1 0.013435 0.002146 -0.005199 0.000000 0.000000 0.000000
# 2 0.002146 0.016341 0.000123 0.000000 0.000000 0.000000
# 3 -0.005199 0.000123 0.007297 0.000000 0.000000 0.000000
# 4 0.000000 0.000000 0.000000 0.151492 0.000000 0.000000
# 5 0.000000 0.000000 0.000000 0.000000 0.024348 0.000000
# 6 0.000000 0.000000 0.000000 0.000000 0.000000 0.084362
#
#
# Mechanical properties :
#
#
# Convention : Reuss Voigt Hill
#
# Bulk Modulus (GPa) = 32.03951 51.16219 41.60085
# Shear Modulus (GPa) = 15.94688 32.61298 24.27993
#
# Velocity S-wave (km/s) = 2.76025 3.94735 3.40592
# Velocity P-wave (km/s) = 5.04641 6.72453 5.94498
#
# Compressibility (1/GPa) = 0.03121146
#
# Stress axis : x y z
#
# Youngs Moduli (GPa) = 74.43006 61.19564 137.05180
#
# Poissons Ratio (x) = -0.13131 0.71256
# Poissons Ratio (y) = -0.15970 -0.01682
# Poissons Ratio (z) = 0.38698 -0.00751
#
# Static dielectric constant tensor:
#      x y z
#    x 1.707920 0.000000 0.000000 
#    y 0.000000 1.830250 0.000000 
#    z 0.000000 0.000000 1.753830 
# 
# From -- ./inp_files/70738.got.cif
#   From: 2010.05.17/outbox.cif.g08.bks.cpg/sg71_36_cif.got.tgz:70738.got - 2010.06.03 16:22:01.
