data_PCOD9519211
_publ_section_title
;
Structure prediction by ZEFSAII (Michael W. Deem and Ramdas Pophale) SiO2 
 PCOD9519211
Probable space group: I M M M
;
_chemical_formula_sum "Si O2"
_cell_formula_units_Z 96
_cell_length_a 18.264163
_cell_length_b 18.163606
_cell_length_c 17.008211
_cell_angle_alpha 90.000000
_cell_angle_beta 90.000000
_cell_angle_gamma 90.000000
_cell_volume 5642.355973
_symmetry_space_group_name_H-M "I M M M"
_symmetry_group_IT_number 71
_symmetry_cell_setting 'orthorhombic'
loop_
_space_group_symop_operation_xyz
x,y,z
-x,-y,z
x,-y,-z
-x,y,-z
-x,-y,-z
x,y,-z
-x,y,z
x,-y,z
1/2+x,1/2+y,1/2+z
1/2-x,1/2-y,1/2+z
1/2+x,1/2-y,1/2-z
1/2-x,1/2+y,1/2-z
1/2-x,1/2-y,1/2-z
1/2+x,1/2+y,1/2-z
1/2-x,1/2+y,1/2+z
1/2+x,1/2-y,1/2+z
loop_
_atom_site_type_symbol
_atom_site_label
_atom_site_fract_x
_atom_site_fract_y
_atom_site_fract_z
Si Si1 0.917244 0.239281 0.590673
Si Si2 0.773811 0.297734 0.674072
Si Si3 0.614112 0.581989 0.851273
Si Si4 0.500000 0.284139 0.407857
Si Si5 0.718524 0.915560 0.295802
Si Si6 0.000000 0.082938 0.788008
Si Si7 0.154526 0.707238 0.091757
O O1 0.908790 0.262006 0.500000
O O2 0.853269 0.273928 0.643030
O O3 0.907877 0.150937 0.596197
O O4 0.000000 0.257219 0.617090
O O5 0.750000 0.250000 0.750000
O O6 0.776387 0.379767 0.708878
O O7 0.713065 0.272204 0.611240
O O8 0.597121 0.500000 0.882435
O O9 0.699804 0.586046 0.832099
O O10 0.569459 0.590557 0.769991
O O11 0.500000 0.304469 0.500000
O O12 0.500000 0.355269 0.353218
O O13 0.426577 0.237612 0.392996
O O14 0.671716 0.861645 0.351641
O O15 0.693408 0.000000 0.294559
O O16 0.000000 0.000000 0.820349
O O17 0.161639 0.686858 0.000000
#
# Coordination Sequence:
#
# PCOD9519211 Si02
#       7
#    16  16  16   8  16   8  16
#     4  11  22  34  53  82 114 146 180 221 272 330
#     4  10  19  35  56  80 103 142 183 224 264 320
#     4  10  19  31  50  79 111 143 178 216 263 321
#     4  10  22  35  53  81 109 142 184 232 278 320
#     4  10  21  35  53  79 106 138 180 228 275 321
#     4  10  20  33  53  79 113 150 178 214 264 326
#     4  10  20  35  56  80 107 140 179 225 273 323
#
# _framework density 17.014168999999999
#
# number of rings (size 3 to 8) (size 9 to 14) (size 15 to 20)
#    0.000    1.833    4.167    1.500    2.333    0.833 
#    0.000    2.917    0.000    4.500    0.000    1.167 
#    0.000    0.000    0.000    0.000    0.000    0.000 
#
# Total GULP energy -267647.460043 kJ/mol
# GULP energy per Si atom -5575.988751 kJ/mol
# Density = 1.697544 g / cm^3
# Si number density = 17.014169 Si / 1000 Ang^3
#
#
#
# Elastic Constant Matrix: (Units=GPa)
#
#
# Indices 1 2 3 4 5 6 
#
# 1 113.8103 26.9518 41.2843 0.0000 0.0000 0.0000
# 2 26.9518 92.2628 43.9161 0.0000 0.0000 0.0000
# 3 41.2843 43.9161 48.2881 0.0000 0.0000 0.0000
# 4 0.0000 0.0000 0.0000 20.3474 0.0000 0.0000
# 5 0.0000 0.0000 0.0000 0.0000 21.0323 0.0000
# 6 0.0000 0.0000 0.0000 0.0000 0.0000 17.2752
#
#
#
# Elastic Compliance Matrix: (Units=1/GPa)
#
#
# Indices 1 2 3 4 5 6 
#
# 1 0.013094 0.002651 -0.013606 0.000000 0.000000 0.000000
# 2 0.002651 0.019649 -0.020137 0.000000 0.000000 0.000000
# 3 -0.013606 -0.020137 0.050656 0.000000 0.000000 0.000000
# 4 0.000000 0.000000 0.000000 0.049146 0.000000 0.000000
# 5 0.000000 0.000000 0.000000 0.000000 0.047546 0.000000
# 6 0.000000 0.000000 0.000000 0.000000 0.000000 0.057886
#
#
# Mechanical properties :
#
#
# Convention : Reuss Voigt Hill
#
# Bulk Modulus (GPa) = 47.13599 53.18507 50.16053
# Shear Modulus (GPa) = 16.27429 21.21159 18.74294
#
# Velocity S-wave (km/s) = 3.09611 3.53470 3.32265
# Velocity P-wave (km/s) = 6.36752 6.92719 6.65324
#
# Compressibility (1/GPa) = 0.02121521
#
# Stress axis : x y z
#
# Youngs Moduli (GPa) = 76.36881 50.89318 19.74115
#
# Poissons Ratio (x) = -0.13494 0.26861
# Poissons Ratio (y) = -0.20248 0.39752
# Poissons Ratio (z) = 1.03911 1.02483
#
# Static dielectric constant tensor:
#      x y z
#    x 1.588670 0.000000 0.000000 
#    y 0.000000 1.587620 0.000000 
#    z 0.000000 0.000000 1.586850 
# 
# From -- ./inp_files/46059.got.cif
#   From: 2010.05.17/outbox.cif.g08.bks.cpg/sg71_24_cif.got.tgz:46059.got - 2010.06.03 16:22:01.
