data_PCOD9519603
_publ_section_title
;
Structure prediction by ZEFSAII (Michael W. Deem and Ramdas Pophale) SiO2 
 PCOD9519603
Probable space group: I M M M
;
_chemical_formula_sum "Si O2"
_cell_formula_units_Z 88
_cell_length_a 26.275458
_cell_length_b 7.557250
_cell_length_c 21.217289
_cell_angle_alpha 90.000000
_cell_angle_beta 90.000000
_cell_angle_gamma 90.000000
_cell_volume 4213.121426
_symmetry_space_group_name_H-M "I M M M"
_symmetry_group_IT_number 71
_symmetry_cell_setting 'orthorhombic'
loop_
_space_group_symop_operation_xyz
x,y,z
-x,-y,z
x,-y,-z
-x,y,-z
-x,-y,-z
x,y,-z
-x,y,z
x,-y,z
1/2+x,1/2+y,1/2+z
1/2-x,1/2-y,1/2+z
1/2+x,1/2-y,1/2-z
1/2-x,1/2+y,1/2-z
1/2-x,1/2-y,1/2-z
1/2+x,1/2+y,1/2-z
1/2-x,1/2+y,1/2+z
1/2+x,1/2-y,1/2+z
loop_
_atom_site_type_symbol
_atom_site_label
_atom_site_fract_x
_atom_site_fract_y
_atom_site_fract_z
Si Si1 0.500000 0.705876 0.120662
Si Si2 0.000000 0.714740 0.232696
Si Si3 0.890505 0.216840 0.427568
Si Si4 0.939381 0.297157 0.000000
Si Si5 0.191194 0.211120 0.813795
Si Si6 0.695804 0.711352 0.830303
Si Si7 0.583819 0.204631 0.365153
O O1 0.500000 0.500000 0.101544
O O2 0.500000 0.716795 0.196319
O O3 0.553418 0.778609 0.094444
O O4 0.048967 0.774245 0.191848
O O5 0.000000 0.500000 0.238487
O O6 0.881067 0.267973 0.500000
O O7 0.846373 0.277494 0.379389
O O8 0.890472 0.000000 0.425573
O O9 0.924216 0.212410 0.066283
O O10 0.918288 0.500000 0.000000
O O11 0.000000 0.306894 0.000000
O O12 0.245215 0.252957 0.845640
O O13 0.190175 0.279381 0.741454
O O14 0.142519 0.287023 0.848196
O O15 0.185918 0.000000 0.811954
O O16 0.689489 0.500000 0.827585
O O17 0.566889 0.000000 0.371208
#
# Coordination Sequence:
#
# PCOD9519603 Si02
#       7
#     8   8  16   8  16  16  16
#     4  10  19  32  53  81 109 135 164 204 256 308
#     4  10  20  32  51  79 108 135 168 210 252 299
#     4   9  17  31  53  79 104 132 171 215 252 293
#     4   9  16  32  55  75  99 133 175 214 249 294
#     4  10  20  34  53  77 105 135 168 213 264 308
#     4   9  18  34  54  75 101 136 177 214 251 299
#     4  10  19  33  54  78 102 133 173 214 253 301
#
# _framework density 20.887128000000001
#
# number of rings (size 3 to 8) (size 9 to 14) (size 15 to 20)
#    0.000    2.455    0.909    1.909    0.000    4.000 
#    1.636    1.364    0.000    2.727    0.000    0.000 
#    0.000    0.000    0.000    0.000    0.000    0.000 
#
# Total GULP energy -245527.810359 kJ/mol
# GULP energy per Si atom -5580.177508 kJ/mol
# Density = 2.083959 g / cm^3
# Si number density = 20.887128 Si / 1000 Ang^3
#
#
#
# Elastic Constant Matrix: (Units=GPa)
#
#
# Indices 1 2 3 4 5 6 
#
# 1 156.6155 2.4925 73.7324 0.0000 0.0000 0.0000
# 2 2.4925 48.3139 2.5847 0.0000 0.0000 0.0000
# 3 73.7324 2.5847 114.1686 0.0000 0.0000 0.0000
# 4 0.0000 0.0000 0.0000 7.6863 0.0000 0.0000
# 5 0.0000 0.0000 0.0000 0.0000-1749.8593 0.0000
# 6 0.0000 0.0000 0.0000 0.0000 0.0000 -11.1846
#
#
#
# Elastic Compliance Matrix: (Units=1/GPa)
#
#
# Indices 1 2 3 4 5 6 
#
# 1 0.009176 -0.000157 -0.005922 0.000000 0.000000 0.000000
# 2 -0.000157 0.020726 -0.000368 0.000000 0.000000 0.000000
# 3 -0.005922 -0.000368 0.012592 0.000000 0.000000 0.000000
# 4 0.000000 0.000000 0.000000 0.130102 0.000000 0.000000
# 5 0.000000 0.000000 0.000000 0.000000 -0.000571 0.000000
# 6 0.000000 0.000000 0.000000 0.000000 0.000000 -0.089409
#
#
# Mechanical properties :
#
#
# Convention : Reuss Voigt Hill
#
# Bulk Modulus (GPa) = 33.78429 52.96860 43.37645
# Shear Modulus (GPa) = 47.44949 -334.65229 -143.60140
#
# Velocity S-wave (km/s) = 4.77142 -12.67151 -8.30063
# Velocity P-wave (km/s) = 6.82386 13.73591 8.42942
#
# Compressibility (1/GPa) = 0.02959955
#
# Stress axis : x y z
#
# Youngs Moduli (GPa) = 108.98357 48.24918 79.41518
#
# Poissons Ratio (x) = 0.00755 0.47032
# Poissons Ratio (y) = 0.01706 0.02923
# Poissons Ratio (z) = 0.64543 0.01776
#
# Static dielectric constant tensor:
#      x y z
#    x 1.717010 0.000000 0.000000 
#    y 0.000000 1.818060 0.000000 
#    z 0.000000 0.000000 1.743600 
# 
# From -- ./inp_files/55629.got.cif
#   From: 2010.05.17/outbox.cif.g08.bks.cpg/sg71_28_cif.got.tgz:55629.got - 2010.06.03 16:22:01.
