data_PCOD9519090
_publ_section_title
;
Structure prediction by ZEFSAII (Michael W. Deem and Ramdas Pophale) SiO2 
 PCOD9519090
Probable space group: I M M M
;
_chemical_formula_sum "Si O2"
_cell_formula_units_Z 104
_cell_length_a 26.752051
_cell_length_b 7.561646
_cell_length_c 20.503262
_cell_angle_alpha 90.000000
_cell_angle_beta 90.000000
_cell_angle_gamma 90.000000
_cell_volume 4147.595427
_symmetry_space_group_name_H-M "I M M M"
_symmetry_group_IT_number 71
_symmetry_cell_setting 'orthorhombic'
loop_
_space_group_symop_operation_xyz
x,y,z
-x,-y,z
x,-y,-z
-x,y,-z
-x,-y,-z
x,y,-z
-x,y,z
x,-y,z
1/2+x,1/2+y,1/2+z
1/2-x,1/2-y,1/2+z
1/2+x,1/2-y,1/2-z
1/2-x,1/2+y,1/2-z
1/2-x,1/2-y,1/2-z
1/2+x,1/2+y,1/2-z
1/2-x,1/2+y,1/2+z
1/2+x,1/2-y,1/2+z
loop_
_atom_site_type_symbol
_atom_site_label
_atom_site_fract_x
_atom_site_fract_y
_atom_site_fract_z
Si Si1 0.075055 0.203337 0.930021
Si Si2 0.710207 0.785746 0.881834
Si Si3 0.666517 0.790627 0.250880
Si Si4 0.104183 0.701947 0.577632
Si Si5 0.555171 0.713491 0.282136
Si Si6 0.181898 0.707429 0.105047
Si Si7 0.000000 0.717726 0.423544
O O1 0.060498 0.276214 0.858401
O O2 0.135443 0.205293 0.930032
O O3 0.058076 0.000000 0.929567
O O4 0.058980 0.282441 0.000000
O O5 0.701499 0.724221 0.807198
O O6 0.658327 0.719294 0.912058
O O7 0.760965 0.726499 0.915620
O O8 0.711311 0.000000 0.884795
O O9 0.606334 0.765295 0.244858
O O10 0.680827 0.717570 0.321259
O O11 0.674712 0.000000 0.252746
O O12 0.097466 0.691081 0.500000
O O13 0.106892 0.500000 0.603180
O O14 0.052705 0.781428 0.604674
O O15 0.500000 0.771816 0.258164
O O16 0.555484 0.500000 0.283232
O O17 0.169714 0.500000 0.105356
O O18 0.000000 0.500000 0.421584
O O19 0.000000 0.768996 0.500000
#
# Coordination Sequence:
#
# PCOD9519090 Si02
#       7
#    16  16  16  16  16  16   8
#     4   9  18  33  53  76 101 131 167 206 249 297
#     4  10  19  31  48  73  98 123 164 209 247 290
#     4   9  19  34  49  69  97 130 167 205 246 294
#     4   8  14  25  42  65  92 118 145 185 236 283
#     4   9  18  33  53  76 102 132 165 204 252 304
#     4  10  20  33  49  68  96 133 166 200 247 297
#     4   7  10  20  38  58  83 113 139 167 214 271
#
# _framework density 25.074770000000001
#
# number of rings (size 3 to 8) (size 9 to 14) (size 15 to 20)
#    0.000    3.000    0.000    1.846    0.000    2.769 
#    1.385    3.077    0.000    0.000    0.000    4.308 
#    0.000    1.846    0.000    0.000    0.000    0.000 
#
# Total GULP energy -290054.618152 kJ/mol
# GULP energy per Si atom -5577.973426 kJ/mol
# Density = 2.501770 g / cm^3
# Si number density = 25.074770 Si / 1000 Ang^3
#
#
#
# Elastic Constant Matrix: (Units=GPa)
#
#
# Indices 1 2 3 4 5 6 
#
# 1 197.3633 -2.6102 8.3945 0.0000 0.0000 0.0000
# 2 -2.6102 70.8192 -1.0006 0.0000 0.0000 0.0000
# 3 8.3945 -1.0006 47.0499 0.0000 0.0000 0.0000
# 4 0.0000 0.0000 0.0000 -4.0263 0.0000 0.0000
# 5 0.0000 0.0000 0.0000 0.0000 -57.2023 0.0000
# 6 0.0000 0.0000 0.0000 0.0000 0.0000 10.5597
#
#
#
# Elastic Compliance Matrix: (Units=1/GPa)
#
#
# Indices 1 2 3 4 5 6 
#
# 1 0.005108 0.000175 -0.000908 0.000000 0.000000 0.000000
# 2 0.000175 0.014131 0.000269 0.000000 0.000000 0.000000
# 3 -0.000908 0.000269 0.021422 0.000000 0.000000 0.000000
# 4 0.000000 0.000000 0.000000 -0.248364 0.000000 0.000000
# 5 0.000000 0.000000 0.000000 0.000000 -0.017482 0.000000
# 6 0.000000 0.000000 0.000000 0.000000 0.000000 0.094700
#
#
# Mechanical properties :
#
#
# Convention : Reuss Voigt Hill
#
# Bulk Modulus (GPa) = 25.16718 36.08887 30.62803
# Shear Modulus (GPa) = -42.98656 10.56279 -16.21188
#
# Velocity S-wave (km/s) = -4.14494 2.05467 -2.54548
# Velocity P-wave (km/s) = 3.58452 4.47802 1.89787
#
# Compressibility (1/GPa) = 0.03973429
#
# Stress axis : x y z
#
# Youngs Moduli (GPa) = 195.78205 70.76770 46.68169
#
# Poissons Ratio (x) = -0.01241 0.04237
# Poissons Ratio (y) = -0.03435 -0.01257
# Poissons Ratio (z) = 0.17769 -0.01905
#
# Static dielectric constant tensor:
#      x y z
#    x 2.026630 0.000000 0.000000 
#    y 0.000000 1.952580 0.000000 
#    z 0.000000 0.000000 2.043460 
# 
# From -- ./inp_files/66786.got.cif
#   From: 2010.05.17/outbox.cif.g08.bks.cpg/sg71_34_cif.got.tgz:66786.got - 2010.06.03 16:22:01.
