data_PCOD9519236
_publ_section_title
;
Structure prediction by ZEFSAII (Michael W. Deem and Ramdas Pophale) SiO2 
 PCOD9519236
Probable space group: I M M M
;
_chemical_formula_sum "Si O2"
_cell_formula_units_Z 96
_cell_length_a 7.931710
_cell_length_b 27.356047
_cell_length_c 24.549963
_cell_angle_alpha 90.000000
_cell_angle_beta 90.000000
_cell_angle_gamma 90.000000
_cell_volume 5326.856656
_symmetry_space_group_name_H-M "I M M M"
_symmetry_group_IT_number 71
_symmetry_cell_setting 'orthorhombic'
loop_
_space_group_symop_operation_xyz
x,y,z
-x,-y,z
x,-y,-z
-x,y,-z
-x,-y,-z
x,y,-z
-x,y,z
x,-y,z
1/2+x,1/2+y,1/2+z
1/2-x,1/2-y,1/2+z
1/2+x,1/2-y,1/2-z
1/2-x,1/2+y,1/2-z
1/2-x,1/2-y,1/2-z
1/2+x,1/2+y,1/2-z
1/2-x,1/2+y,1/2+z
1/2+x,1/2-y,1/2+z
loop_
_atom_site_type_symbol
_atom_site_label
_atom_site_fract_x
_atom_site_fract_y
_atom_site_fract_z
Si Si1 0.703396 0.643901 0.247689
Si Si2 0.000000 0.699750 0.062084
Si Si3 0.701058 0.555030 0.177810
Si Si4 0.798244 0.441350 0.941226
Si Si5 0.500000 0.681101 0.437782
Si Si6 0.806729 0.798895 0.361541
Si Si7 0.186921 0.318964 0.364109
O O1 0.500000 0.642889 0.255196
O O2 0.763447 0.592032 0.223654
O O3 0.737318 0.681401 0.198349
O O4 0.783846 0.659467 0.304192
O O5 0.167513 0.684819 0.094735
O O6 0.000000 0.759247 0.061105
O O7 0.000000 0.682178 0.000000
O O8 0.500000 0.552144 0.184405
O O9 0.771546 0.500000 0.181118
O O10 0.730685 0.575683 0.116962
O O11 0.763441 0.500000 0.941580
O O12 0.000000 0.435264 0.940275
O O13 0.735283 0.422193 0.000000
O O14 0.500000 0.664406 0.500000
O O15 0.665428 0.665432 0.404774
O O16 0.803254 0.740001 0.359904
O O17 0.000000 0.814026 0.374155
O O18 0.000000 0.331635 0.383971
#
# Coordination Sequence:
#
# PCOD9519236 Si02
#       7
#    16   8  16  16   8  16  16
#     4  10  19  32  48  68 100 133 163 205 256 300
#     4   9  18  32  50  70  97 137 176 208 252 301
#     4   9  18  31  47  67  91 123 162 204 252 301
#     4   8  14  26  43  60  80 110 151 201 252 294
#     4   9  18  34  52  74 107 137 164 201 240 286
#     4   9  19  32  48  72  99 130 168 211 252 293
#     4  10  19  31  51  78 102 131 167 201 242 295
#
# _framework density 18.021885999999999
#
# number of rings (size 3 to 8) (size 9 to 14) (size 15 to 20)
#    0.000    2.833    0.833    1.000    1.167    1.667 
#    0.000    5.833    0.000    3.000    0.000    0.000 
#    0.000    1.333    0.000    1.500    0.000    0.167 
#
# Total GULP energy -267746.262525 kJ/mol
# GULP energy per Si atom -5578.047136 kJ/mol
# Density = 1.798087 g / cm^3
# Si number density = 18.021886 Si / 1000 Ang^3
#
#
#
# Elastic Constant Matrix: (Units=GPa)
#
#
# Indices 1 2 3 4 5 6 
#
# 1 93.1294 25.3425 80.4298 0.0000 0.0000 0.0000
# 2 25.3425 35.8559 30.8391 0.0000 0.0000 0.0000
# 3 80.4298 30.8391 139.4151 0.0000 0.0000 0.0000
# 4 0.0000 0.0000 0.0000 -3.3347 0.0000 0.0000
# 5 0.0000 0.0000 0.0000 0.0000 19.2422 0.0000
# 6 0.0000 0.0000 0.0000 0.0000 0.0000 8.7447
#
#
#
# Elastic Compliance Matrix: (Units=1/GPa)
#
#
# Indices 1 2 3 4 5 6 
#
# 1 0.022339 -0.005810 -0.011602 0.000000 0.000000 0.000000
# 2 -0.005810 0.035953 -0.004601 0.000000 0.000000 0.000000
# 3 -0.011602 -0.004601 0.014884 0.000000 0.000000 0.000000
# 4 0.000000 0.000000 0.000000 -0.299873 0.000000 0.000000
# 5 0.000000 0.000000 0.000000 0.000000 0.051969 0.000000
# 6 0.000000 0.000000 0.000000 0.000000 0.000000 0.114354
#
#
# Mechanical properties :
#
#
# Convention : Reuss Voigt Hill
#
# Bulk Modulus (GPa) = 34.30608 60.18035 47.24322
# Shear Modulus (GPa) = -754.14979 13.71636 -370.21671
#
# Velocity S-wave (km/s) = -20.47857 2.76179 -14.34825
# Velocity P-wave (km/s) = 23.23973 6.60571 15.75516
#
# Compressibility (1/GPa) = 0.02914935
#
# Stress axis : x y z
#
# Youngs Moduli (GPa) = 44.76486 27.81396 67.18563
#
# Poissons Ratio (x) = 0.16160 0.77951
# Poissons Ratio (y) = 0.26008 0.30913
# Poissons Ratio (z) = 0.51938 0.12798
#
# Static dielectric constant tensor:
#      x y z
#    x 1.639570 0.000000 0.000000 
#    y 0.000000 1.646340 0.000000 
#    z 0.000000 0.000000 1.590290 
# 
# From -- ./inp_files/57904.got.cif
#   From: 2010.05.17/outbox.cif.g08.bks.cpg/sg71_29_cif.got.tgz:57904.got - 2010.06.03 16:22:01.
