data_PCOD9519254
_publ_section_title
;
Structure prediction by ZEFSAII (Michael W. Deem and Ramdas Pophale) SiO2 
 PCOD9519254
Probable space group: I M M M
;
_chemical_formula_sum "Si O2"
_cell_formula_units_Z 96
_cell_length_a 22.672118
_cell_length_b 10.582234
_cell_length_c 20.154794
_cell_angle_alpha 90.000000
_cell_angle_beta 90.000000
_cell_angle_gamma 90.000000
_cell_volume 4835.571592
_symmetry_space_group_name_H-M "I M M M"
_symmetry_group_IT_number 71
_symmetry_cell_setting 'orthorhombic'
loop_
_space_group_symop_operation_xyz
x,y,z
-x,-y,z
x,-y,-z
-x,y,-z
-x,-y,-z
x,y,-z
-x,y,z
x,-y,z
1/2+x,1/2+y,1/2+z
1/2-x,1/2-y,1/2+z
1/2+x,1/2-y,1/2-z
1/2-x,1/2+y,1/2-z
1/2-x,1/2-y,1/2-z
1/2+x,1/2+y,1/2-z
1/2-x,1/2+y,1/2+z
1/2+x,1/2-y,1/2+z
loop_
_atom_site_type_symbol
_atom_site_label
_atom_site_fract_x
_atom_site_fract_y
_atom_site_fract_z
Si Si1 0.909134 0.000000 0.576323
Si Si2 0.929765 0.860201 0.787433
Si Si3 0.848710 0.725270 0.308415
Si Si4 0.431853 0.000000 0.367197
Si Si5 0.070197 0.225867 0.072324
Si Si6 0.701550 0.500000 0.153602
Si Si7 0.318173 0.000000 0.277340
Si Si8 0.066115 0.281300 0.419952
O O1 0.838569 0.000000 0.587266
O O2 0.933894 0.867593 0.601435
O O3 0.924601 0.000000 0.500000
O O4 0.902588 0.756089 0.740851
O O5 0.906697 0.844637 0.862587
O O6 0.000000 0.847443 0.789142
O O7 0.915393 0.000000 0.762113
O O8 0.810700 0.621518 0.270041
O O9 0.879129 0.671813 0.375740
O O10 0.817544 0.861907 0.317390
O O11 0.424282 0.874261 0.411171
O O12 0.383082 0.000000 0.309901
O O13 0.500000 0.000000 0.342619
O O14 0.000000 0.197973 0.069517
O O15 0.095315 0.194924 0.000000
O O16 0.771507 0.500000 0.162582
O O17 0.075920 0.289892 0.500000
O O18 0.000000 0.332137 0.406923
#
# Coordination Sequence:
#
# PCOD9519254 Si02
#       8
#     8  16  16   8  16   8   8  16
#     4   8  15  30  54  82 113 145 183 232 279 328
#     4  10  19  31  51  80 110 144 182 222 268 324
#     4  11  21  37  57  81 110 148 184 230 277 327
#     4  10  19  32  51  75 106 136 168 216 276 334
#     4   9  17  30  48  72 104 141 176 213 262 319
#     4  10  22  39  58  79 105 143 187 231 280 321
#     4  12  24  37  57  83 108 140 186 235 274 332
#     4   9  17  30  52  85 119 149 182 223 278 341
#
# _framework density 19.852875000000001
#
# number of rings (size 3 to 8) (size 9 to 14) (size 15 to 20)
#    0.000    2.167    2.500    1.500    0.000    3.000 
#    0.000    2.917    0.000    1.000    0.000    1.167 
#    0.000    0.000    0.000    0.000    0.000    0.000 
#
# Total GULP energy -267211.709583 kJ/mol
# GULP energy per Si atom -5566.910616 kJ/mol
# Density = 1.980769 g / cm^3
# Si number density = 19.852875 Si / 1000 Ang^3
#
#
#
# Elastic Constant Matrix: (Units=GPa)
#
#
# Indices 1 2 3 4 5 6 
#
# 1 57.6746 10.4979 14.8058 0.0000 0.0000 0.0000
# 2 10.4979 45.3021 4.5272 0.0000 0.0000 0.0000
# 3 14.8058 4.5272 64.7863 0.0000 0.0000 0.0000
# 4 0.0000 0.0000 0.0000 6.1554 0.0000 0.0000
# 5 0.0000 0.0000 0.0000 0.0000 19.0159 0.0000
# 6 0.0000 0.0000 0.0000 0.0000 0.0000 10.8908
#
#
#
# Elastic Compliance Matrix: (Units=1/GPa)
#
#
# Indices 1 2 3 4 5 6 
#
# 1 0.019120 -0.004022 -0.004089 0.000000 0.000000 0.000000
# 2 -0.004022 0.023075 -0.000693 0.000000 0.000000 0.000000
# 3 -0.004089 -0.000693 0.016418 0.000000 0.000000 0.000000
# 4 0.000000 0.000000 0.000000 0.162460 0.000000 0.000000
# 5 0.000000 0.000000 0.000000 0.000000 0.052588 0.000000
# 6 0.000000 0.000000 0.000000 0.000000 0.000000 0.091821
#
#
# Mechanical properties :
#
#
# Convention : Reuss Voigt Hill
#
# Bulk Modulus (GPa) = 24.38676 25.26940 24.82808
# Shear Modulus (GPa) = 12.60213 16.40789 14.50501
#
# Velocity S-wave (km/s) = 2.52221 2.87797 2.70594
# Velocity P-wave (km/s) = 4.55988 4.87848 4.72186
#
# Compressibility (1/GPa) = 0.04100586
#
# Stress axis : x y z
#
# Youngs Moduli (GPa) = 52.30026 43.33627 60.90808
#
# Poissons Ratio (x) = 0.17431 0.24903
# Poissons Ratio (y) = 0.21036 0.04223
# Poissons Ratio (z) = 0.21383 0.03004
#
# Static dielectric constant tensor:
#      x y z
#    x 1.700440 0.000000 0.000000 
#    y 0.000000 1.748010 0.000000 
#    z 0.000000 0.000000 1.737940 
# 
# From -- ./inp_files/54942.got.cif
#   From: 2010.05.17/outbox.cif.g08.bks.cpg/sg71_28_cif.got.tgz:54942.got - 2010.06.03 16:22:01.
