data_PCOD9519181
_publ_section_title
;
Structure prediction by ZEFSAII (Michael W. Deem and Ramdas Pophale) SiO2 
 PCOD9519181
Probable space group: I M M M
;
_chemical_formula_sum "Si O2"
_cell_formula_units_Z 116
_cell_length_a 7.491662
_cell_length_b 29.775864
_cell_length_c 25.362377
_cell_angle_alpha 90.000000
_cell_angle_beta 90.000000
_cell_angle_gamma 90.000000
_cell_volume 5657.603415
_symmetry_space_group_name_H-M "I M M M"
_symmetry_group_IT_number 71
_symmetry_cell_setting 'orthorhombic'
loop_
_space_group_symop_operation_xyz
x,y,z
-x,-y,z
x,-y,-z
-x,y,-z
-x,-y,-z
x,y,-z
-x,y,z
x,-y,z
1/2+x,1/2+y,1/2+z
1/2-x,1/2-y,1/2+z
1/2+x,1/2-y,1/2-z
1/2-x,1/2+y,1/2-z
1/2-x,1/2-y,1/2-z
1/2+x,1/2+y,1/2-z
1/2-x,1/2+y,1/2+z
1/2+x,1/2-y,1/2+z
loop_
_atom_site_type_symbol
_atom_site_label
_atom_site_fract_x
_atom_site_fract_y
_atom_site_fract_z
Si Si1 0.715558 0.948580 0.848841
Si Si2 0.217501 0.142288 0.310407
Si Si3 0.286977 0.295389 0.718236
Si Si4 0.712065 0.115178 0.057818
Si Si5 0.289265 0.450121 0.226995
Si Si6 0.785209 0.212671 0.099140
Si Si7 0.792802 0.687040 0.079640
Si Si8 0.000000 0.844961 0.500000
O O1 0.500000 0.947685 0.849039
O O2 0.782255 0.913638 0.892749
O O3 0.771368 0.938334 0.788992
O O4 0.771404 0.000000 0.860565
O O5 0.278236 0.164997 0.255802
O O6 0.279127 0.090738 0.308261
O O7 0.283192 0.170832 0.359820
O O8 0.000000 0.143526 0.311602
O O9 0.500000 0.300583 0.713565
O O10 0.250000 0.250000 0.750000
O O11 0.215836 0.293022 0.658980
O O12 0.500000 0.106810 0.056600
O O13 0.737498 0.168115 0.067488
O O14 0.784306 0.102909 0.000000
O O15 0.500000 0.452900 0.216311
O O16 0.211984 0.500000 0.219389
O O17 0.729372 0.260865 0.076405
O O18 0.000000 0.215156 0.101131
O O19 0.657322 0.658137 0.045583
O O20 0.000000 0.684558 0.063021
#
# Coordination Sequence:
#
# PCOD9519181 Si02
#       8
#    16  16  16  16  16  16  16   4
#     4   9  18  34  53  76 107 143 188 244 302 356
#     4  10  19  34  56  84 119 157 192 236 294 351
#     4  10  19  31  50  75 109 148 185 228 286 351
#     4  10  22  35  51  73  99 143 198 248 302 354
#     4   9  18  33  57  87 118 152 187 226 286 360
#     4  10  22  37  52  78 112 146 194 244 292 349
#     4  11  24  40  62  89 115 157 205 245 296 348
#     4  12  26  44  64  82 121 162 199 256 294 334
#
# _framework density 20.503381999999998
#
# number of rings (size 3 to 8) (size 9 to 14) (size 15 to 20)
#    0.000    2.069    2.069    1.034    1.931    3.310 
#    0.000    1.379    0.000    0.000    0.000    3.862 
#    0.000    1.103    0.000    0.000    0.000    0.000 
#
# Total GULP energy -323372.819742 kJ/mol
# GULP energy per Si atom -5575.393444 kJ/mol
# Density = 2.045672 g / cm^3
# Si number density = 20.503382 Si / 1000 Ang^3
#
#
#
# Elastic Constant Matrix: (Units=GPa)
#
#
# Indices 1 2 3 4 5 6 
#
# 1 76.2778 -4.0110 -0.4211 0.0000 0.0000 0.0000
# 2 -4.0110 88.4534 -2.7748 0.0000 0.0000 0.0000
# 3 -0.4211 -2.7748 24.1831 0.0000 0.0000 0.0000
# 4 0.0000 0.0000 0.0000 34.6718 0.0000 0.0000
# 5 0.0000 0.0000 0.0000 0.0000 89.8483 0.0000
# 6 0.0000 0.0000 0.0000 0.0000 0.0000 8.7149
#
#
#
# Elastic Compliance Matrix: (Units=1/GPa)
#
#
# Indices 1 2 3 4 5 6 
#
# 1 0.013143 0.000605 0.000298 0.000000 0.000000 0.000000
# 2 0.000605 0.011374 0.001316 0.000000 0.000000 0.000000
# 3 0.000298 0.001316 0.041507 0.000000 0.000000 0.000000
# 4 0.000000 0.000000 0.000000 0.028842 0.000000 0.000000
# 5 0.000000 0.000000 0.000000 0.000000 0.011130 0.000000
# 6 0.000000 0.000000 0.000000 0.000000 0.000000 0.114746
#
#
# Mechanical properties :
#
#
# Convention : Reuss Voigt Hill
#
# Bulk Modulus (GPa) = 14.19172 19.38893 16.79033
# Shear Modulus (GPa) = 20.85144 39.72177 30.28660
#
# Velocity S-wave (km/s) = 3.19247 4.40628 3.84754
# Velocity P-wave (km/s) = 4.53054 5.94677 5.28630
#
# Compressibility (1/GPa) = 0.07046360
#
# Stress axis : x y z
#
# Youngs Moduli (GPa) = 76.08347 87.91901 24.09212
#
# Poissons Ratio (x) = -0.05322 -0.00719
# Poissons Ratio (y) = -0.04606 -0.03170
# Poissons Ratio (z) = -0.02270 -0.11567
#
# Static dielectric constant tensor:
#      x y z
#    x 1.755760 0.000000 0.000000 
#    y 0.000000 1.744450 0.000000 
#    z 0.000000 0.000000 1.725950 
# 
# From -- ./inp_files/58292.got.cif
#   From: 2010.05.17/outbox.cif.g08.bks.cpg/sg71_30_cif.got.tgz:58292.got - 2010.06.03 16:22:01.
