data_PCOD9519248
_publ_section_title
;
Structure prediction by ZEFSAII (Michael W. Deem and Ramdas Pophale) SiO2 
 PCOD9519248
Probable space group: I M M M
;
_chemical_formula_sum "Si O2"
_cell_formula_units_Z 72
_cell_length_a 18.172112
_cell_length_b 7.665241
_cell_length_c 27.883828
_cell_angle_alpha 90.000000
_cell_angle_beta 90.000000
_cell_angle_gamma 90.000000
_cell_volume 3884.039285
_symmetry_space_group_name_H-M "I M M M"
_symmetry_group_IT_number 71
_symmetry_cell_setting 'orthorhombic'
loop_
_space_group_symop_operation_xyz
x,y,z
-x,-y,z
x,-y,-z
-x,y,-z
-x,-y,-z
x,y,-z
-x,y,z
x,-y,z
1/2+x,1/2+y,1/2+z
1/2-x,1/2-y,1/2+z
1/2+x,1/2-y,1/2-z
1/2-x,1/2+y,1/2-z
1/2-x,1/2-y,1/2-z
1/2+x,1/2+y,1/2-z
1/2-x,1/2+y,1/2+z
1/2+x,1/2-y,1/2+z
loop_
_atom_site_type_symbol
_atom_site_label
_atom_site_fract_x
_atom_site_fract_y
_atom_site_fract_z
Si Si1 0.912285 0.000000 0.443224
Si Si2 0.270099 0.290949 0.304243
Si Si3 0.165067 0.290856 0.054232
Si Si4 0.183256 0.298345 0.603747
Si Si5 0.081221 0.208847 0.851721
O O1 0.875708 0.830579 0.419074
O O2 0.894943 0.000000 0.500000
O O3 0.000000 0.000000 0.437446
O O4 0.272626 0.500000 0.309536
O O5 0.250000 0.250000 0.250000
O O6 0.210065 0.234048 0.343672
O O7 0.350467 0.222670 0.320136
O O8 0.174073 0.500000 0.055061
O O9 0.242104 0.211194 0.072144
O O10 0.103948 0.242249 0.093263
O O11 0.147962 0.236829 0.000000
O O12 0.158846 0.500000 0.606088
O O13 0.000000 0.278977 0.841021
O O14 0.078805 0.000000 0.844861
#
# Coordination Sequence:
#
# PCOD9519248 Si02
#       5
#     8  16  16  16  16
#     4  11  24  40  60  88 119 157 203 247 305 366
#     4   9  19  34  58  85 108 146 195 238 291 351
#     4  10  19  31  51  79 109 145 189 228 268 330
#     4  10  21  38  59  85 118 152 192 246 294 347
#     4   9  19  35  51  73 108 145 184 230 279 334
#
# _framework density 18.537403999999999
#
# number of rings (size 3 to 8) (size 9 to 14) (size 15 to 20)
#    0.000    2.333    1.111    2.667    1.556    5.333 
#    0.000    4.444    0.000    1.333    0.000    0.000 
#    0.000    0.000    0.000    0.000    0.000    0.000 
#
# Total GULP energy -200874.895744 kJ/mol
# GULP energy per Si atom -5579.858215 kJ/mol
# Density = 1.849521 g / cm^3
# Si number density = 18.537404 Si / 1000 Ang^3
#
#
#
# Elastic Constant Matrix: (Units=GPa)
#
#
# Indices 1 2 3 4 5 6 
#
# 1 109.2418 38.8920 83.9484 0.0000 0.0000 0.0000
# 2 38.8920 72.6935 21.7177 0.0000 0.0000 0.0000
# 3 83.9484 21.7177 158.4659 0.0000 0.0000 0.0000
# 4 0.0000 0.0000 0.0000 27.6729 0.0000 0.0000
# 5 0.0000 0.0000 0.0000 0.0000 11.3408 0.0000
# 6 0.0000 0.0000 0.0000 0.0000 0.0000 17.2707
#
#
#
# Elastic Compliance Matrix: (Units=1/GPa)
#
#
# Indices 1 2 3 4 5 6 
#
# 1 0.018515 -0.007273 -0.008811 0.000000 0.000000 0.000000
# 2 -0.007273 0.017201 0.001496 0.000000 0.000000 0.000000
# 3 -0.008811 0.001496 0.010773 0.000000 0.000000 0.000000
# 4 0.000000 0.000000 0.000000 0.036136 0.000000 0.000000
# 5 0.000000 0.000000 0.000000 0.000000 0.088177 0.000000
# 6 0.000000 0.000000 0.000000 0.000000 0.000000 0.057902
#
#
# Mechanical properties :
#
#
# Convention : Reuss Voigt Hill
#
# Bulk Modulus (GPa) = 57.76689 69.94636 63.85663
# Shear Modulus (GPa) = 18.96434 24.31308 21.63871
#
# Velocity S-wave (km/s) = 3.20196 3.62549 3.42028
# Velocity P-wave (km/s) = 6.70075 7.43909 7.07955
#
# Compressibility (1/GPa) = 0.01731096
#
# Stress axis : x y z
#
# Youngs Moduli (GPa) = 54.01120 58.13697 92.82055
#
# Poissons Ratio (x) = 0.42284 0.81789
# Poissons Ratio (y) = 0.39283 -0.13882
# Poissons Ratio (z) = 0.47592 -0.08695
#
# Static dielectric constant tensor:
#      x y z
#    x 1.626050 0.000000 0.000000 
#    y 0.000000 1.669320 0.000000 
#    z 0.000000 0.000000 1.644340 
# 
# From -- ./inp_files/14472.got.cif
#   From: 2010.05.17/outbox.cif.g08.bks.cpg/sg71_8_cif.got.tgz:14472.got - 2010.06.03 16:22:01.
