data_PCOD9519799
_publ_section_title
;
Structure prediction by ZEFSAII (Michael W. Deem and Ramdas Pophale) SiO2 
 PCOD9519799
Probable space group: I M M M
;
_chemical_formula_sum "Si O2"
_cell_formula_units_Z 96
_cell_length_a 25.346158
_cell_length_b 7.521100
_cell_length_c 23.149082
_cell_angle_alpha 90.000000
_cell_angle_beta 90.000000
_cell_angle_gamma 90.000000
_cell_volume 4412.932395
_symmetry_space_group_name_H-M "I M M M"
_symmetry_group_IT_number 71
_symmetry_cell_setting 'orthorhombic'
loop_
_space_group_symop_operation_xyz
x,y,z
-x,-y,z
x,-y,-z
-x,y,-z
-x,-y,-z
x,y,-z
-x,y,z
x,-y,z
1/2+x,1/2+y,1/2+z
1/2-x,1/2-y,1/2+z
1/2+x,1/2-y,1/2-z
1/2-x,1/2+y,1/2-z
1/2-x,1/2-y,1/2-z
1/2+x,1/2+y,1/2-z
1/2-x,1/2+y,1/2+z
1/2+x,1/2-y,1/2+z
loop_
_atom_site_type_symbol
_atom_site_label
_atom_site_fract_x
_atom_site_fract_y
_atom_site_fract_z
Si Si1 0.500000 0.781869 0.211841
Si Si2 0.801045 0.796402 0.907433
Si Si3 0.385263 0.217188 0.174062
Si Si4 0.807465 0.711636 0.224203
Si Si5 0.085910 0.214037 0.937816
Si Si6 0.683783 0.782566 0.934875
Si Si7 0.000000 0.707255 0.842787
O O1 0.554287 0.726792 0.181269
O O2 0.500000 0.715242 0.278375
O O3 0.500000 0.000000 0.211416
O O4 0.809204 0.795771 0.838700
O O5 0.854562 0.715390 0.932150
O O6 0.743701 0.720079 0.922167
O O7 0.798947 0.000000 0.928482
O O8 0.351326 0.272811 0.230091
O O9 0.355420 0.275915 0.115947
O O10 0.384249 0.000000 0.173916
O O11 0.813725 0.500000 0.216771
O O12 0.750000 0.750000 0.250000
O O13 0.050418 0.254630 0.882674
O O14 0.088467 0.000000 0.938914
O O15 0.063720 0.272376 0.000000
O O16 0.684420 0.000000 0.932489
O O17 0.668683 0.731757 0.000000
O O18 0.000000 0.500000 0.832336
#
# Coordination Sequence:
#
# PCOD9519799 Si02
#       7
#     8  16  16  16  16  16   8
#     4   9  18  32  49  71 103 136 167 212 269 318
#     4  10  19  33  52  78 107 136 172 214 263 318
#     4   9  17  30  48  72 101 133 170 209 255 309
#     4  11  20  32  51  77 107 139 175 217 264 313
#     4  10  21  36  54  76 105 142 180 220 266 318
#     4   9  16  28  48  73 101 133 168 206 253 312
#     4  11  22  36  53  73 100 141 184 225 272 317
#
# _framework density 21.754242999999999
#
# number of rings (size 3 to 8) (size 9 to 14) (size 15 to 20)
#    0.000    2.167    1.667    2.500    0.000    5.333 
#    0.000    0.417    0.000    4.000    0.000    0.000 
#    0.000    0.000    0.000    1.500    0.000    1.667 
#
# Total GULP energy -268131.361498 kJ/mol
# GULP energy per Si atom -5586.070031 kJ/mol
# Density = 2.170473 g / cm^3
# Si number density = 21.754243 Si / 1000 Ang^3
#
#
#
# Elastic Constant Matrix: (Units=GPa)
#
#
# Indices 1 2 3 4 5 6 
#
# 1 180.0618 2.3819 78.8505 0.0000 0.0000 0.0000
# 2 2.3819 60.3484 1.9252 0.0000 0.0000 0.0000
# 3 78.8505 1.9252 159.4495 0.0000 0.0000 0.0000
# 4 0.0000 0.0000 0.0000 11.6242 0.0000 0.0000
# 5 0.0000 0.0000 0.0000 0.0000 -1.7336 0.0000
# 6 0.0000 0.0000 0.0000 0.0000 0.0000 -13.0488
#
#
#
# Elastic Compliance Matrix: (Units=1/GPa)
#
#
# Indices 1 2 3 4 5 6 
#
# 1 0.007090 -0.000168 -0.003504 0.000000 0.000000 0.000000
# 2 -0.000168 0.016581 -0.000117 0.000000 0.000000 0.000000
# 3 -0.003504 -0.000117 0.008006 0.000000 0.000000 0.000000
# 4 0.000000 0.000000 0.000000 0.086027 0.000000 0.000000
# 5 0.000000 0.000000 0.000000 0.000000 -0.576843 0.000000
# 6 0.000000 0.000000 0.000000 0.000000 0.000000 -0.076635
#
#
# Mechanical properties :
#
#
# Convention : Reuss Voigt Hill
#
# Bulk Modulus (GPa) = 41.49677 62.90833 52.20255
# Shear Modulus (GPa) = -9.61239 20.48183 5.43472
#
# Velocity S-wave (km/s) = -2.10433 3.07173 1.58230
# Velocity P-wave (km/s) = 3.63488 6.44680 5.23324
#
# Compressibility (1/GPa) = 0.02409826
#
# Stress axis : x y z
#
# Youngs Moduli (GPa) = 141.03493 60.31064 124.90733
#
# Poissons Ratio (x) = 0.01014 0.43771
# Poissons Ratio (y) = 0.02370 0.01463
# Poissons Ratio (z) = 0.49423 0.00706
#
# Static dielectric constant tensor:
#      x y z
#    x 1.787400 0.000000 0.000000 
#    y 0.000000 1.855010 0.000000 
#    z 0.000000 0.000000 1.789470 
# 
# From -- ./inp_files/57763.got.cif
#   From: 2010.05.17/outbox.cif.g08.bks.cpg/sg71_29_cif.got.tgz:57763.got - 2010.06.03 16:22:01.
