data_PCOD9519907
_publ_section_title
;
Structure prediction by ZEFSAII (Michael W. Deem and Ramdas Pophale) SiO2 
 PCOD9519907
Probable space group: I M M M
;
_chemical_formula_sum "Si O2"
_cell_formula_units_Z 112
_cell_length_a 13.522645
_cell_length_b 22.725104
_cell_length_c 19.193320
_cell_angle_alpha 90.000000
_cell_angle_beta 90.000000
_cell_angle_gamma 90.000000
_cell_volume 5898.174681
_symmetry_space_group_name_H-M "I M M M"
_symmetry_group_IT_number 71
_symmetry_cell_setting 'orthorhombic'
loop_
_space_group_symop_operation_xyz
x,y,z
-x,-y,z
x,-y,-z
-x,y,-z
-x,-y,-z
x,y,-z
-x,y,z
x,-y,z
1/2+x,1/2+y,1/2+z
1/2-x,1/2-y,1/2+z
1/2+x,1/2-y,1/2-z
1/2-x,1/2+y,1/2-z
1/2-x,1/2-y,1/2-z
1/2+x,1/2+y,1/2-z
1/2-x,1/2+y,1/2+z
1/2+x,1/2-y,1/2+z
loop_
_atom_site_type_symbol
_atom_site_label
_atom_site_fract_x
_atom_site_fract_y
_atom_site_fract_z
Si Si1 0.306022 0.069339 0.919076
Si Si2 0.383494 0.389948 0.921212
Si Si3 0.267890 0.432863 0.793483
Si Si4 0.111498 0.928942 0.842653
Si Si5 0.252142 0.226003 0.579197
Si Si6 0.383979 0.828729 0.695472
Si Si7 0.112498 0.681076 0.355857
O O1 0.190724 0.083416 0.903029
O O2 0.369673 0.112101 0.870691
O O3 0.320920 0.000000 0.904046
O O4 0.329198 0.079489 0.000000
O O5 0.500000 0.382472 0.909206
O O6 0.335023 0.429815 0.862279
O O7 0.326698 0.327680 0.916825
O O8 0.369603 0.412720 0.000000
O O9 0.238528 0.500000 0.778666
O O10 0.335104 0.410300 0.729077
O O11 0.175590 0.390141 0.804869
O O12 0.000000 0.905687 0.850679
O O13 0.103858 0.000000 0.838942
O O14 0.290104 0.228393 0.500000
O O15 0.334624 0.212115 0.636900
O O16 0.191536 0.283949 0.598813
O O17 0.500000 0.836871 0.682672
O O18 0.372445 0.804913 0.774327
O O19 0.000000 0.696526 0.374805
#
# Coordination Sequence:
#
# PCOD9519907 Si02
#       7
#    16  16  16  16  16  16  16
#     4  10  21  36  54  82 120 156 191 234 283 337
#     4   9  18  32  51  79 113 146 183 233 292 342
#     4  10  19  33  54  81 114 150 192 233 276 334
#     4   9  17  31  51  74 104 146 191 230 271 323
#     4  10  21  38  60  84 113 147 189 239 289 341
#     4  10  22  39  60  85 115 151 190 234 284 338
#     4  11  22  38  62  88 114 149 193 236 284 341
#
# _framework density 18.988925999999999
#
# number of rings (size 3 to 8) (size 9 to 14) (size 15 to 20)
#    0.000    2.143    1.429    1.714    0.000    4.000 
#    0.000    5.000    0.000    1.714    0.000    4.000 
#    0.000    0.000    0.000    0.000    0.000    0.000 
#
# Total GULP energy -312453.561335 kJ/mol
# GULP energy per Si atom -5579.527881 kJ/mol
# Density = 1.894571 g / cm^3
# Si number density = 18.988926 Si / 1000 Ang^3
#
#
#
# Elastic Constant Matrix: (Units=GPa)
#
#
# Indices 1 2 3 4 5 6 
#
# 1 58.4432 -0.3025 18.2387 0.0000 0.0000 0.0000
# 2 -0.3025 34.4447 13.7583 0.0000 0.0000 0.0000
# 3 18.2387 13.7583 88.8644 0.0000 0.0000 0.0000
# 4 0.0000 0.0000 0.0000 20.6763 0.0000 0.0000
# 5 0.0000 0.0000 0.0000 0.0000 18.4382 0.0000
# 6 0.0000 0.0000 0.0000 0.0000 0.0000 15.9338
#
#
#
# Elastic Compliance Matrix: (Units=1/GPa)
#
#
# Indices 1 2 3 4 5 6 
#
# 1 0.018383 0.001778 -0.004048 0.000000 0.000000 0.000000
# 2 0.001778 0.031118 -0.005183 0.000000 0.000000 0.000000
# 3 -0.004048 -0.005183 0.012886 0.000000 0.000000 0.000000
# 4 0.000000 0.000000 0.000000 0.048365 0.000000 0.000000
# 5 0.000000 0.000000 0.000000 0.000000 0.054235 0.000000
# 6 0.000000 0.000000 0.000000 0.000000 0.000000 0.062760
#
#
# Mechanical properties :
#
#
# Convention : Reuss Voigt Hill
#
# Bulk Modulus (GPa) = 21.06056 27.23793 24.14925
# Shear Modulus (GPa) = 19.34386 21.01349 20.17868
#
# Velocity S-wave (km/s) = 3.19516 3.33020 3.26338
# Velocity P-wave (km/s) = 4.97263 5.40020 5.19082
#
# Compressibility (1/GPa) = 0.04748211
#
# Stress axis : x y z
#
# Youngs Moduli (GPa) = 54.39739 32.13595 77.60118
#
# Poissons Ratio (x) = -0.05715 0.31416
# Poissons Ratio (y) = -0.09674 0.40219
# Poissons Ratio (z) = 0.22022 0.16655
#
# Static dielectric constant tensor:
#      x y z
#    x 1.637710 0.000000 0.000000 
#    y 0.000000 1.658630 0.000000 
#    z 0.000000 0.000000 1.668210 
# 
# From -- ./inp_files/52193.got.cif
#   From: 2010.05.17/outbox.cif.g08.bks.cpg/sg71_27_cif.got.tgz:52193.got - 2010.06.03 16:22:01.
