data_PCOD9519164
_publ_section_title
;
Structure prediction by ZEFSAII (Michael W. Deem and Ramdas Pophale) SiO2 
 PCOD9519164
Probable space group: I M M M
;
_chemical_formula_sum "Si O2"
_cell_formula_units_Z 88
_cell_length_a 8.075542
_cell_length_b 21.312824
_cell_length_c 23.831526
_cell_angle_alpha 90.000000
_cell_angle_beta 90.000000
_cell_angle_gamma 90.000000
_cell_volume 4101.706029
_symmetry_space_group_name_H-M "I M M M"
_symmetry_group_IT_number 71
_symmetry_cell_setting 'orthorhombic'
loop_
_space_group_symop_operation_xyz
x,y,z
-x,-y,z
x,-y,-z
-x,y,-z
-x,-y,-z
x,y,-z
-x,y,z
x,-y,z
1/2+x,1/2+y,1/2+z
1/2-x,1/2-y,1/2+z
1/2+x,1/2-y,1/2-z
1/2-x,1/2+y,1/2-z
1/2-x,1/2-y,1/2-z
1/2+x,1/2+y,1/2-z
1/2-x,1/2+y,1/2+z
1/2+x,1/2-y,1/2+z
loop_
_atom_site_type_symbol
_atom_site_label
_atom_site_fract_x
_atom_site_fract_y
_atom_site_fract_z
Si Si1 0.310669 0.701466 0.585125
Si Si2 0.691149 0.156973 0.434050
Si Si3 0.689963 0.196699 0.790786
Si Si4 0.696306 0.932153 0.092303
Si Si5 0.000000 0.926400 0.431168
Si Si6 0.193743 0.067495 0.220763
O O1 0.500000 0.701051 0.567013
O O2 0.246441 0.770597 0.569682
O O3 0.295446 0.698946 0.652518
O O4 0.235119 0.635181 0.565197
O O5 0.677091 0.142405 0.500000
O O6 0.500000 0.153361 0.411026
O O7 0.833601 0.110364 0.411415
O O8 0.500000 0.204891 0.807382
O O9 0.750000 0.250000 0.750000
O O10 0.712393 0.129541 0.761238
O O11 0.500000 0.931961 0.102788
O O12 0.784573 0.933254 0.152958
O O13 0.736907 0.000000 0.065085
O O14 0.000000 0.924029 0.500000
O O15 0.000000 0.000000 0.415231
O O16 0.000000 0.073216 0.233836
O O17 0.255460 0.000000 0.241391
#
# Coordination Sequence:
#
# PCOD9519164 Si02
#       6
#    16  16  16  16   8  16
#     4  10  19  31  50  73  99 133 169 206 256 304
#     4   9  19  34  53  80 110 138 171 213 260 313
#     4  11  21  32  48  70  98 128 164 207 249 296
#     4   9  16  25  40  65  95 126 164 207 246 286
#     4   9  18  32  54  82 107 135 171 211 258 312
#     4   9  16  27  44  65  90 119 154 197 243 287
#
# _framework density 21.454487
#
# number of rings (size 3 to 8) (size 9 to 14) (size 15 to 20)
#    0.000    2.455    0.000    5.455    2.545    2.545 
#    0.000    1.818    0.000    1.636    0.000    6.364 
#    0.000    0.000    0.000    0.000    0.000    0.000 
#
# Total GULP energy -245152.472291 kJ/mol
# GULP energy per Si atom -5571.647098 kJ/mol
# Density = 2.140566 g / cm^3
# Si number density = 21.454487 Si / 1000 Ang^3
#
#
#
# Elastic Constant Matrix: (Units=GPa)
#
#
# Indices 1 2 3 4 5 6 
#
# 1 81.8760 68.4735 -3.2965 0.0000 0.0000 0.0000
# 2 68.4735 194.8084 21.9154 0.0000 0.0000 0.0000
# 3 -3.2965 21.9154 22.3654 0.0000 0.0000 0.0000
# 4 0.0000 0.0000 0.0000 22.0010 0.0000 0.0000
# 5 0.0000 0.0000 0.0000 0.0000 -23.9067 0.0000
# 6 0.0000 0.0000 0.0000 0.0000 0.0000 37.7897
#
#
#
# Elastic Compliance Matrix: (Units=1/GPa)
#
#
# Indices 1 2 3 4 5 6 
#
# 1 0.019332 -0.007997 0.010685 0.000000 0.000000 0.000000
# 2 -0.007997 0.009077 -0.010073 0.000000 0.000000 0.000000
# 3 0.010685 -0.010073 0.056158 0.000000 0.000000 0.000000
# 4 0.000000 0.000000 0.000000 0.045452 0.000000 0.000000
# 5 0.000000 0.000000 0.000000 0.000000 -0.041829 0.000000
# 6 0.000000 0.000000 0.000000 0.000000 0.000000 0.026462
#
#
# Mechanical properties :
#
#
# Convention : Reuss Voigt Hill
#
# Bulk Modulus (GPa) = 14.32730 52.58162 33.45446
# Shear Modulus (GPa) = 32.74654 21.30728 27.02691
#
# Velocity S-wave (km/s) = 3.91106 3.15483 3.55312
# Velocity P-wave (km/s) = 5.20458 6.15079 5.69737
#
# Compressibility (1/GPa) = 0.06979684
#
# Stress axis : x y z
#
# Youngs Moduli (GPa) = 51.72820 110.16397 17.80702
#
# Poissons Ratio (x) = 0.88099 -0.19028
# Poissons Ratio (y) = 0.41367 0.17938
# Poissons Ratio (z) = -0.55274 1.10973
#
# Static dielectric constant tensor:
#      x y z
#    x 1.760200 0.000000 0.000000 
#    y 0.000000 1.845160 0.000000 
#    z 0.000000 0.000000 1.782350 
# 
# From -- ./inp_files/68175.got.cif
#   From: 2010.05.17/outbox.cif.g08.bks.cpg/sg71_35_cif.got.tgz:68175.got - 2010.06.03 16:22:01.
