data_PCOD9519114
_publ_section_title
;
Structure prediction by ZEFSAII (Michael W. Deem and Ramdas Pophale) SiO2 
 PCOD9519114
Probable space group: I M M M
;
_chemical_formula_sum "Si O2"
_cell_formula_units_Z 112
_cell_length_a 28.799728
_cell_length_b 14.656333
_cell_length_c 13.998306
_cell_angle_alpha 90.000000
_cell_angle_beta 90.000000
_cell_angle_gamma 90.000000
_cell_volume 5908.662620
_symmetry_space_group_name_H-M "I M M M"
_symmetry_group_IT_number 71
_symmetry_cell_setting 'orthorhombic'
loop_
_space_group_symop_operation_xyz
x,y,z
-x,-y,z
x,-y,-z
-x,y,-z
-x,-y,-z
x,y,-z
-x,y,z
x,-y,z
1/2+x,1/2+y,1/2+z
1/2-x,1/2-y,1/2+z
1/2+x,1/2-y,1/2-z
1/2-x,1/2+y,1/2-z
1/2-x,1/2-y,1/2-z
1/2+x,1/2+y,1/2-z
1/2-x,1/2+y,1/2+z
1/2+x,1/2-y,1/2+z
loop_
_atom_site_type_symbol
_atom_site_label
_atom_site_fract_x
_atom_site_fract_y
_atom_site_fract_z
Si Si1 0.053070 0.794026 0.887620
Si Si2 0.078298 0.390062 0.396860
Si Si3 0.236460 0.209520 0.888825
Si Si4 0.824310 0.392923 0.314498
Si Si5 0.309449 0.895268 0.605392
Si Si6 0.053768 0.602652 0.816227
Si Si7 0.356231 0.605074 0.616393
O O1 0.070023 0.689845 0.874981
O O2 0.094248 0.857239 0.847923
O O3 0.000000 0.803885 0.848984
O O4 0.049825 0.813784 0.000000
O O5 0.061759 0.354673 0.500000
O O6 0.074508 0.500000 0.401074
O O7 0.132464 0.367799 0.380673
O O8 0.055218 0.368405 0.295635
O O9 0.279935 0.168903 0.833700
O O10 0.230060 0.318388 0.886731
O O11 0.187807 0.166005 0.854080
O O12 0.242268 0.182432 0.000000
O O13 0.813162 0.500000 0.331768
O O14 0.838457 0.384778 0.202843
O O15 0.331584 0.880940 0.500000
O O16 0.292541 0.000000 0.607158
O O17 0.074196 0.500000 0.827488
O O18 0.000000 0.593878 0.844072
O O19 0.357335 0.609656 0.500000
O O20 0.349233 0.500000 0.643350
#
# Coordination Sequence:
#
# PCOD9519114 Si02
#       7
#    16  16  16  16  16  16  16
#     4   9  18  32  49  70  97 129 163 199 240 287
#     4   9  18  31  47  70  97 125 161 203 244 287
#     4  10  19  31  49  72  97 128 165 203 244 286
#     4  10  19  31  49  72  97 128 165 203 244 286
#     4   9  19  34  48  66  96 131 168 205 237 280
#     4   9  18  32  49  70  97 129 163 199 240 287
#     4   9  18  31  47  70  97 125 161 203 244 287
#
# _framework density 18.955219
#
# number of rings (size 3 to 8) (size 9 to 14) (size 15 to 20)
#    0.000    2.714    0.000    1.286    2.000    2.286 
#    0.000    4.286    0.000    0.000    0.000    0.000 
#    0.000    0.571    0.000    3.143    0.000    0.286 
#
# Total GULP energy -311827.771263 kJ/mol
# GULP energy per Si atom -5568.353058 kJ/mol
# Density = 1.891208 g / cm^3
# Si number density = 18.955219 Si / 1000 Ang^3
#
#
#
# Elastic Constant Matrix: (Units=GPa)
#
#
# Indices 1 2 3 4 5 6 
#
# 1 68.8337 32.3760 0.9170 0.0000 0.0000 0.0000
# 2 32.3760 72.0993 1.2023 0.0000 0.0000 0.0000
# 3 0.9170 1.2023 39.2746 0.0000 0.0000 0.0000
# 4 0.0000 0.0000 0.0000 13.9590 0.0000 0.0000
# 5 0.0000 0.0000 0.0000 0.0000 19.4714 0.0000
# 6 0.0000 0.0000 0.0000 0.0000 0.0000 11.7972
#
#
#
# Elastic Compliance Matrix: (Units=1/GPa)
#
#
# Indices 1 2 3 4 5 6 
#
# 1 0.018419 -0.008268 -0.000177 0.000000 0.000000 0.000000
# 2 -0.008268 0.017588 -0.000345 0.000000 0.000000 0.000000
# 3 -0.000177 -0.000345 0.025476 0.000000 0.000000 0.000000
# 4 0.000000 0.000000 0.000000 0.071638 0.000000 0.000000
# 5 0.000000 0.000000 0.000000 0.000000 0.051357 0.000000
# 6 0.000000 0.000000 0.000000 0.000000 0.000000 0.084766
#
#
# Mechanical properties :
#
#
# Convention : Reuss Voigt Hill
#
# Bulk Modulus (GPa) = 22.77749 27.68869 25.23309
# Shear Modulus (GPa) = 16.58593 18.75967 17.67280
#
# Velocity S-wave (km/s) = 2.96126 3.14934 3.05674
# Velocity P-wave (km/s) = 4.87182 5.27859 5.07928
#
# Compressibility (1/GPa) = 0.04390299
#
# Stress axis : x y z
#
# Youngs Moduli (GPa) = 54.29171 56.85602 39.25189
#
# Poissons Ratio (x) = 0.47009 0.00695
# Poissons Ratio (y) = 0.44889 0.01356
# Poissons Ratio (z) = 0.00961 0.01964
#
# Static dielectric constant tensor:
#      x y z
#    x 1.691770 0.000000 0.000000 
#    y 0.000000 1.664720 0.000000 
#    z 0.000000 0.000000 1.715390 
# 
# From -- ./inp_files/35341.got.cif
#   From: 2010.05.17/outbox.cif.g08.bks.cpg/sg71_18_cif.got.tgz:35341.got - 2010.06.03 16:22:01.
