data_PCOD9519516
_publ_section_title
;
Structure prediction by ZEFSAII (Michael W. Deem and Ramdas Pophale) SiO2 
 PCOD9519516
Probable space group: I M M M
;
_chemical_formula_sum "Si O2"
_cell_formula_units_Z 96
_cell_length_a 14.658517
_cell_length_b 25.005776
_cell_length_c 14.279996
_cell_angle_alpha 90.000000
_cell_angle_beta 90.000000
_cell_angle_gamma 90.000000
_cell_volume 5234.298156
_symmetry_space_group_name_H-M "I M M M"
_symmetry_group_IT_number 71
_symmetry_cell_setting 'orthorhombic'
loop_
_space_group_symop_operation_xyz
x,y,z
-x,-y,z
x,-y,-z
-x,y,-z
-x,-y,-z
x,y,-z
-x,y,z
x,-y,z
1/2+x,1/2+y,1/2+z
1/2-x,1/2-y,1/2+z
1/2+x,1/2-y,1/2-z
1/2-x,1/2+y,1/2-z
1/2-x,1/2-y,1/2-z
1/2+x,1/2+y,1/2-z
1/2-x,1/2+y,1/2+z
1/2+x,1/2-y,1/2+z
loop_
_atom_site_type_symbol
_atom_site_label
_atom_site_fract_x
_atom_site_fract_y
_atom_site_fract_z
Si Si1 0.210359 0.740982 0.888816
Si Si2 0.606055 0.436985 0.768641
Si Si3 0.223925 0.563782 0.107190
Si Si4 0.608477 0.351773 0.608480
Si Si5 0.103460 0.710810 0.389865
Si Si6 0.892964 0.354269 0.785203
O O1 0.164246 0.798310 0.868729
O O2 0.317405 0.747097 0.865620
O O3 0.159017 0.694553 0.835150
O O4 0.201747 0.731668 0.000000
O O5 0.500000 0.428246 0.793746
O O6 0.616237 0.500000 0.744826
O O7 0.675108 0.424969 0.852873
O O8 0.628556 0.399233 0.680690
O O9 0.210850 0.500000 0.108470
O O10 0.153795 0.592807 0.175945
O O11 0.213617 0.582574 0.000000
O O12 0.627982 0.366236 0.500000
O O13 0.500000 0.340160 0.614610
O O14 0.113041 0.698568 0.500000
O O15 0.116108 0.658878 0.324929
O O16 0.000000 0.730575 0.373030
O O17 0.000000 0.353501 0.808394
#
# Coordination Sequence:
#
# PCOD9519516 Si02
#       6
#    16  16  16  16  16  16
#     4  10  19  32  52  77 107 140 173 211 253 300
#     4   9  18  33  53  76 103 138 178 215 254 306
#     4  10  22  39  56  75 101 132 170 219 268 311
#     4   9  17  29  48  77 111 143 174 212 258 304
#     4   9  19  35  54  78 108 140 171 204 248 303
#     4  11  22  36  57  80 103 135 173 213 258 310
#
# _framework density 18.340568000000001
#
# number of rings (size 3 to 8) (size 9 to 14) (size 15 to 20)
#    0.000    2.333    0.000    2.500    0.000    3.000 
#    0.000    6.667    0.000    3.500    0.000    2.333 
#    0.000    0.000    0.000    0.000    0.000    0.000 
#
# Total GULP energy -267867.889693 kJ/mol
# GULP energy per Si atom -5580.581035 kJ/mol
# Density = 1.829882 g / cm^3
# Si number density = 18.340568 Si / 1000 Ang^3
#
#
#
# Elastic Constant Matrix: (Units=GPa)
#
#
# Indices 1 2 3 4 5 6 
#
# 1 91.9507 36.4625 43.3510 0.0000 0.0000 0.0000
# 2 36.4625 36.0992 20.1384 0.0000 0.0000 0.0000
# 3 43.3510 20.1384 47.8697 0.0000 0.0000 0.0000
# 4 0.0000 0.0000 0.0000 22.5459 0.0000 0.0000
# 5 0.0000 0.0000 0.0000 0.0000 25.3666 0.0000
# 6 0.0000 0.0000 0.0000 0.0000 0.0000 19.9455
#
#
#
# Elastic Compliance Matrix: (Units=1/GPa)
#
#
# Indices 1 2 3 4 5 6 
#
# 1 0.024589 -0.016221 -0.015444 0.000000 0.000000 0.000000
# 2 -0.016221 0.046897 -0.005040 0.000000 0.000000 0.000000
# 3 -0.015444 -0.005040 0.036996 0.000000 0.000000 0.000000
# 4 0.000000 0.000000 0.000000 0.044354 0.000000 0.000000
# 5 0.000000 0.000000 0.000000 0.000000 0.039422 0.000000
# 6 0.000000 0.000000 0.000000 0.000000 0.000000 0.050137
#
#
# Mechanical properties :
#
#
# Convention : Reuss Voigt Hill
#
# Bulk Modulus (GPa) = 28.51153 41.75817 35.13485
# Shear Modulus (GPa) = 15.26749 18.63609 16.95179
#
# Velocity S-wave (km/s) = 2.88834 3.19111 3.04349
# Velocity P-wave (km/s) = 5.16747 6.03284 5.61685
#
# Compressibility (1/GPa) = 0.03507352
#
# Stress axis : x y z
#
# Youngs Moduli (GPa) = 40.66905 21.32346 27.02988
#
# Poissons Ratio (x) = 0.34588 0.41744
# Poissons Ratio (y) = 0.65968 0.13622
# Poissons Ratio (z) = 0.62808 0.10746
#
# Static dielectric constant tensor:
#      x y z
#    x 1.649620 0.000000 0.000000 
#    y 0.000000 1.598720 0.000000 
#    z 0.000000 0.000000 1.646630 
# 
# From -- ./inp_files/34526.got.cif
#   From: 2010.05.17/outbox.cif.g08.bks.cpg/sg71_18_cif.got.tgz:34526.got - 2010.06.03 16:22:01.
