data_PCOD9519519
_publ_section_title
;
Structure prediction by ZEFSAII (Michael W. Deem and Ramdas Pophale) SiO2 
 PCOD9519519
Probable space group: I M M M
;
_chemical_formula_sum "Si O2"
_cell_formula_units_Z 104
_cell_length_a 28.601422
_cell_length_b 9.133035
_cell_length_c 22.957840
_cell_angle_alpha 90.000000
_cell_angle_beta 90.000000
_cell_angle_gamma 90.000000
_cell_volume 5996.996186
_symmetry_space_group_name_H-M "I M M M"
_symmetry_group_IT_number 71
_symmetry_cell_setting 'orthorhombic'
loop_
_space_group_symop_operation_xyz
x,y,z
-x,-y,z
x,-y,-z
-x,y,-z
-x,-y,-z
x,y,-z
-x,y,z
x,-y,z
1/2+x,1/2+y,1/2+z
1/2-x,1/2-y,1/2+z
1/2+x,1/2-y,1/2-z
1/2-x,1/2+y,1/2-z
1/2-x,1/2-y,1/2-z
1/2+x,1/2+y,1/2-z
1/2-x,1/2+y,1/2+z
1/2+x,1/2-y,1/2+z
loop_
_atom_site_type_symbol
_atom_site_label
_atom_site_fract_x
_atom_site_fract_y
_atom_site_fract_z
Si Si1 0.445274 0.822080 0.000000
Si Si2 0.304792 0.826294 0.187049
Si Si3 0.599932 0.176414 0.123048
Si Si4 0.054962 0.173457 0.733220
Si Si5 0.109018 0.328806 0.161642
Si Si6 0.055982 0.163097 0.067757
Si Si7 0.198084 0.827276 0.187723
O O1 0.417671 0.778413 0.941155
O O2 0.500000 0.774142 0.000000
O O3 0.446195 0.000000 0.000000
O O4 0.346171 0.791306 0.141639
O O5 0.251358 0.803411 0.167041
O O6 0.308024 0.733033 0.246277
O O7 0.309322 0.000000 0.201633
O O8 0.568657 0.254289 0.171923
O O9 0.594300 0.000000 0.127187
O O10 0.085402 0.249479 0.783154
O O11 0.000000 0.195177 0.745308
O O12 0.064292 0.000000 0.732046
O O13 0.111534 0.500000 0.172869
O O14 0.078021 0.287828 0.106417
O O15 0.160015 0.261066 0.151831
O O16 0.000000 0.168527 0.071785
O O17 0.070503 0.000000 0.088970
O O18 0.068545 0.174991 0.000000
O O19 0.188722 0.000000 0.186834
#
# Coordination Sequence:
#
# PCOD9519519 Si02
#       7
#     8  16  16  16  16  16  16
#     4   9  18  32  53  81 111 145 181 221 274 331
#     4   9  18  32  52  79 106 136 176 222 269 322
#     4  10  19  34  56  80 107 140 181 225 272 327
#     4  11  23  36  51  76 109 142 177 220 272 324
#     4  12  23  34  52  80 110 142 179 219 267 319
#     4   9  19  37  59  80 105 140 179 217 262 319
#     4  10  19  32  52  77 109 141 174 217 270 323
#
# _framework density 17.342015
#
# number of rings (size 3 to 8) (size 9 to 14) (size 15 to 20)
#    0.000    1.923    1.538    3.692    0.000    4.923 
#    0.000    1.154    1.692    1.385    0.000    0.000 
#    0.000    0.000    0.000    0.000    0.000    0.000 
#
# Total GULP energy -290119.946763 kJ/mol
# GULP energy per Si atom -5579.229745 kJ/mol
# Density = 1.730254 g / cm^3
# Si number density = 17.342015 Si / 1000 Ang^3
#
#
#
# Elastic Constant Matrix: (Units=GPa)
#
#
# Indices 1 2 3 4 5 6 
#
# 1 98.9195 46.5757 38.8169 0.0000 0.0000 0.0000
# 2 46.5757 58.8974 19.0593 0.0000 0.0000 0.0000
# 3 38.8169 19.0593 50.1450 0.0000 0.0000 0.0000
# 4 0.0000 0.0000 0.0000 22.5572 0.0000 0.0000
# 5 0.0000 0.0000 0.0000 0.0000 20.0912 0.0000
# 6 0.0000 0.0000 0.0000 0.0000 0.0000 23.7872
#
#
#
# Elastic Compliance Matrix: (Units=1/GPa)
#
#
# Indices 1 2 3 4 5 6 
#
# 1 0.020298 -0.012505 -0.010959 0.000000 0.000000 0.000000
# 2 -0.012505 0.027064 -0.000607 0.000000 0.000000 0.000000
# 3 -0.010959 -0.000607 0.028656 0.000000 0.000000 0.000000
# 4 0.000000 0.000000 0.000000 0.044332 0.000000 0.000000
# 5 0.000000 0.000000 0.000000 0.000000 0.049773 0.000000
# 6 0.000000 0.000000 0.000000 0.000000 0.000000 0.042039
#
#
# Mechanical properties :
#
#
# Convention : Reuss Voigt Hill
#
# Bulk Modulus (GPa) = 35.87300 46.31842 41.09571
# Shear Modulus (GPa) = 18.54631 20.18778 19.36705
#
# Velocity S-wave (km/s) = 3.27378 3.41559 3.34544
# Velocity P-wave (km/s) = 5.91783 6.50552 6.21862
#
# Compressibility (1/GPa) = 0.02787612
#
# Stress axis : x y z
#
# Youngs Moduli (GPa) = 49.26690 36.94990 34.89629
#
# Poissons Ratio (x) = 0.46205 0.38244
# Poissons Ratio (y) = 0.61607 0.02117
# Poissons Ratio (z) = 0.53994 0.02241
#
# Static dielectric constant tensor:
#      x y z
#    x 1.619700 0.000000 0.000000 
#    y 0.000000 1.582730 0.000000 
#    z 0.000000 0.000000 1.571540 
# 
# From -- ./inp_files/56672.got.cif
#   From: 2010.05.17/outbox.cif.g08.bks.cpg/sg71_29_cif.got.tgz:56672.got - 2010.06.03 16:22:01.
