data_PCOD9519200
_publ_section_title
;
Structure prediction by ZEFSAII (Michael W. Deem and Ramdas Pophale) SiO2 
 PCOD9519200
Probable space group: I M M M
;
_chemical_formula_sum "Si O2"
_cell_formula_units_Z 104
_cell_length_a 20.818907
_cell_length_b 9.505851
_cell_length_c 29.214363
_cell_angle_alpha 90.000000
_cell_angle_beta 90.000000
_cell_angle_gamma 90.000000
_cell_volume 5781.564154
_symmetry_space_group_name_H-M "I M M M"
_symmetry_group_IT_number 71
_symmetry_cell_setting 'orthorhombic'
loop_
_space_group_symop_operation_xyz
x,y,z
-x,-y,z
x,-y,-z
-x,y,-z
-x,-y,-z
x,y,-z
-x,y,z
x,-y,z
1/2+x,1/2+y,1/2+z
1/2-x,1/2-y,1/2+z
1/2+x,1/2-y,1/2-z
1/2-x,1/2+y,1/2-z
1/2-x,1/2-y,1/2-z
1/2+x,1/2+y,1/2-z
1/2-x,1/2+y,1/2+z
1/2+x,1/2-y,1/2+z
loop_
_atom_site_type_symbol
_atom_site_label
_atom_site_fract_x
_atom_site_fract_y
_atom_site_fract_z
Si Si1 0.873946 0.836444 0.818344
Si Si2 0.000000 0.158597 0.944092
Si Si3 0.769778 0.665846 0.650996
Si Si4 0.872280 0.834393 0.291569
Si Si5 0.381026 0.156354 0.554200
Si Si6 0.000000 0.661603 0.708089
Si Si7 0.752724 0.163989 0.051168
Si Si8 0.000000 0.340639 0.180862
O O1 0.806002 0.801994 0.841978
O O2 0.864093 0.823297 0.763413
O O3 0.934530 0.740782 0.830700
O O4 0.888804 0.000000 0.828148
O O5 0.062601 0.243219 0.929245
O O6 0.000000 0.000000 0.926948
O O7 0.000000 0.151442 0.000000
O O8 0.778082 0.500000 0.662738
O O9 0.812660 0.763127 0.682925
O O10 0.787564 0.684714 0.597387
O O11 0.936311 0.748105 0.304791
O O12 0.878275 0.000000 0.302327
O O13 0.394253 0.141025 0.500000
O O14 0.313293 0.234150 0.556227
O O15 0.380342 0.000000 0.574589
O O16 0.000000 0.500000 0.691308
O O17 0.000000 0.654997 0.763487
O O18 0.774435 0.000000 0.052694
O O19 0.724582 0.186022 0.000000
O O20 0.000000 0.500000 0.163316
#
# Coordination Sequence:
#
# PCOD9519200 Si02
#       8
#    16   8  16  16  16   8  16   8
#     4   9  18  32  49  71 102 137 169 203 245 294
#     4   9  15  23  38  59  80 103 136 181 234 291
#     4  10  20  33  50  73 100 132 169 207 250 297
#     4  10  19  31  50  77 107 135 163 198 241 291
#     4   9  16  26  41  60  81 105 137 183 238 289
#     4   9  17  31  51  74 103 137 168 196 232 287
#     4   9  18  33  50  66  87 119 161 206 248 292
#     4   9  17  29  48  72  98 133 173 209 245 288
#
# _framework density 17.988211
#
# number of rings (size 3 to 8) (size 9 to 14) (size 15 to 20)
#    0.000    2.692    0.000    2.077    0.000    6.462 
#    0.000    0.769    0.000    1.846    0.000    0.538 
#    0.000    4.308    0.000    0.000    0.000    0.000 
#
# Total GULP energy -290034.477973 kJ/mol
# GULP energy per Si atom -5577.586115 kJ/mol
# Density = 1.794727 g / cm^3
# Si number density = 17.988211 Si / 1000 Ang^3
#
#
#
# Elastic Constant Matrix: (Units=GPa)
#
#
# Indices 1 2 3 4 5 6 
#
# 1 72.9200 52.5501 37.1380 0.0000 0.0000 0.0000
# 2 52.5501 110.7239 53.4152 0.0000 0.0000 0.0000
# 3 37.1380 53.4152 76.9995 0.0000 0.0000 0.0000
# 4 0.0000 0.0000 0.0000 10.6814 0.0000 0.0000
# 5 0.0000 0.0000 0.0000 0.0000 -6.8721 0.0000
# 6 0.0000 0.0000 0.0000 0.0000 0.0000 28.6549
#
#
#
# Elastic Compliance Matrix: (Units=1/GPa)
#
#
# Indices 1 2 3 4 5 6 
#
# 1 0.022091 -0.008033 -0.005083 0.000000 0.000000 0.000000
# 2 -0.008033 0.016495 -0.007568 0.000000 0.000000 0.000000
# 3 -0.005083 -0.007568 0.020689 0.000000 0.000000 0.000000
# 4 0.000000 0.000000 0.000000 0.093620 0.000000 0.000000
# 5 0.000000 0.000000 0.000000 0.000000 -0.145516 0.000000
# 6 0.000000 0.000000 0.000000 0.000000 0.000000 0.034898
#
#
# Mechanical properties :
#
#
# Convention : Reuss Voigt Hill
#
# Bulk Modulus (GPa) = 55.84241 60.76112 58.30176
# Shear Modulus (GPa) = 55.79508 14.32884 35.06196
#
# Velocity S-wave (km/s) = 5.57539 2.82542 4.41972
# Velocity P-wave (km/s) = 8.51809 6.67050 7.65028
#
# Compressibility (1/GPa) = 0.01790754
#
# Stress axis : x y z
#
# Youngs Moduli (GPa) = 45.26760 60.62484 48.33545
#
# Poissons Ratio (x) = 0.48697 0.24567
# Poissons Ratio (y) = 0.36361 0.36582
# Poissons Ratio (z) = 0.23007 0.45883
#
# Static dielectric constant tensor:
#      x y z
#    x 1.580490 0.000000 0.000000 
#    y 0.000000 1.618300 0.000000 
#    z 0.000000 0.000000 1.648320 
# 
# From -- ./inp_files/70815.got.cif
#   From: 2010.05.17/outbox.cif.g08.bks.cpg/sg71_36_cif.got.tgz:70815.got - 2010.06.03 16:22:01.
