data_PCOD9520874
_publ_section_title
;
Structure prediction by ZEFSAII (Michael W. Deem and Ramdas Pophale) SiO2 
 PCOD9520874
Probable space group: I M M M
;
_chemical_formula_sum "Si O2"
_cell_formula_units_Z 72
_cell_length_a 19.527073
_cell_length_b 8.590918
_cell_length_c 28.562079
_cell_angle_alpha 90.000000
_cell_angle_beta 90.000000
_cell_angle_gamma 90.000000
_cell_volume 4791.445356
_symmetry_space_group_name_H-M "I M M M"
_symmetry_group_IT_number 71
_symmetry_cell_setting 'orthorhombic'
loop_
_space_group_symop_operation_xyz
x,y,z
-x,-y,z
x,-y,-z
-x,y,-z
-x,-y,-z
x,y,-z
-x,y,z
x,-y,z
1/2+x,1/2+y,1/2+z
1/2-x,1/2-y,1/2+z
1/2+x,1/2-y,1/2-z
1/2-x,1/2+y,1/2-z
1/2-x,1/2-y,1/2-z
1/2+x,1/2+y,1/2-z
1/2-x,1/2+y,1/2+z
1/2+x,1/2-y,1/2+z
loop_
_atom_site_type_symbol
_atom_site_label
_atom_site_fract_x
_atom_site_fract_y
_atom_site_fract_z
Si Si1 0.226178 0.313852 0.178241
Si Si2 0.366805 0.313450 0.399456
Si Si3 0.500000 0.814951 0.347613
Si Si4 0.857025 0.685735 0.728269
Si Si5 0.000000 0.183549 0.744048
Si Si6 0.919987 0.810398 0.000000
O O1 0.232610 0.500000 0.179180
O O2 0.196419 0.258416 0.128852
O O3 0.172558 0.270512 0.220001
O O4 0.297896 0.237262 0.192553
O O5 0.361419 0.500000 0.398487
O O6 0.433850 0.259955 0.371291
O O7 0.380708 0.262582 0.452875
O O8 0.500000 0.776251 0.292957
O O9 0.500000 0.000000 0.354374
O O10 0.865708 0.500000 0.727491
O O11 0.929365 0.767587 0.719479
O O12 0.000000 0.000000 0.753157
O O13 0.000000 0.758644 0.000000
O O14 0.922356 0.000000 0.000000
#
# Coordination Sequence:
#
# PCOD9520874 Si02
#       6
#    16  16   8  16   8   8
#     4  10  20  33  48  68  96 125 160 199 240 285
#     4  11  20  33  51  67  91 127 166 204 244 285
#     4  12  22  31  43  66  95 126 163 203 242 283
#     4  10  20  33  49  69  96 125 159 197 237 284
#     4  12  22  32  49  71  96 127 162 198 240 283
#     4   9  18  32  48  70  94 123 164 207 242 282
#
# _framework density 15.026781
#
# number of rings (size 3 to 8) (size 9 to 14) (size 15 to 20)
#    0.000    1.444    3.333    4.000    0.000    1.778 
#    0.000    2.778    0.000    0.000    0.000    0.000 
#    0.000    0.889    0.000    9.556    0.000    4.222 
#
# Total GULP energy -200982.486456 kJ/mol
# GULP energy per Si atom -5582.846846 kJ/mol
# Density = 1.499258 g / cm^3
# Si number density = 15.026781 Si / 1000 Ang^3
#
#
#
# Elastic Constant Matrix: (Units=GPa)
#
#
# Indices 1 2 3 4 5 6 
#
# 1 93.2209 11.2145 34.2631 0.0000 0.0000 0.0000
# 2 11.2145 29.9106 0.3887 0.0000 0.0000 0.0000
# 3 34.2631 0.3887 79.1093 0.0000 0.0000 0.0000
# 4 0.0000 0.0000 0.0000 16.3806 0.0000 0.0000
# 5 0.0000 0.0000 0.0000 0.0000 22.6960 0.0000
# 6 0.0000 0.0000 0.0000 0.0000 0.0000 25.1316
#
#
#
# Elastic Compliance Matrix: (Units=1/GPa)
#
#
# Indices 1 2 3 4 5 6 
#
# 1 0.013459 -0.004971 -0.005805 0.000000 0.000000 0.000000
# 2 -0.004971 0.035271 0.001980 0.000000 0.000000 0.000000
# 3 -0.005805 0.001980 0.015145 0.000000 0.000000 0.000000
# 4 0.000000 0.000000 0.000000 0.061048 0.000000 0.000000
# 5 0.000000 0.000000 0.000000 0.000000 0.044061 0.000000
# 6 0.000000 0.000000 0.000000 0.000000 0.000000 0.039791
#
#
# Mechanical properties :
#
#
# Convention : Reuss Voigt Hill
#
# Bulk Modulus (GPa) = 21.60619 32.66372 27.13496
# Shear Modulus (GPa) = 20.67884 23.26660 21.97272
#
# Velocity S-wave (km/s) = 3.71365 3.93917 3.82807
# Velocity P-wave (km/s) = 5.72695 6.51718 6.13480
#
# Compressibility (1/GPa) = 0.04628303
#
# Stress axis : x y z
#
# Youngs Moduli (GPa) = 74.30153 28.35198 66.02807
#
# Poissons Ratio (x) = 0.14093 0.38327
# Poissons Ratio (y) = 0.36933 -0.13071
# Poissons Ratio (z) = 0.43130 -0.05612
#
# Static dielectric constant tensor:
#      x y z
#    x 1.494580 0.000000 0.000000 
#    y 0.000000 1.498420 0.000000 
#    z 0.000000 0.000000 1.493790 
# 
# From -- ./inp_files/8202.got.cif
#   From: 2010.05.17/outbox.cif.g08.bks.cpg/sg71_5_cif.got.tgz:8202.got - 2010.06.03 16:22:01.
