data_PCOD9520991
_publ_section_title
;
Structure prediction by ZEFSAII (Michael W. Deem and Ramdas Pophale) SiO2 
 PCOD9520991
Probable space group: I M M M
;
_chemical_formula_sum "Si O2"
_cell_formula_units_Z 96
_cell_length_a 13.211680
_cell_length_b 20.839855
_cell_length_c 19.735170
_cell_angle_alpha 90.000000
_cell_angle_beta 90.000000
_cell_angle_gamma 90.000000
_cell_volume 5433.674400
_symmetry_space_group_name_H-M "I M M M"
_symmetry_group_IT_number 71
_symmetry_cell_setting 'orthorhombic'
loop_
_space_group_symop_operation_xyz
x,y,z
-x,-y,z
x,-y,-z
-x,y,-z
-x,-y,-z
x,y,-z
-x,y,z
x,-y,z
1/2+x,1/2+y,1/2+z
1/2-x,1/2-y,1/2+z
1/2+x,1/2-y,1/2-z
1/2-x,1/2+y,1/2-z
1/2-x,1/2-y,1/2-z
1/2+x,1/2+y,1/2-z
1/2-x,1/2+y,1/2+z
1/2+x,1/2-y,1/2+z
loop_
_atom_site_type_symbol
_atom_site_label
_atom_site_fract_x
_atom_site_fract_y
_atom_site_fract_z
Si Si1 0.767409 0.659933 0.690974
Si Si2 0.389627 0.885006 0.577345
Si Si3 0.115328 0.725981 0.811466
Si Si4 0.614206 0.577081 0.221021
Si Si5 0.378817 0.924796 0.079585
Si Si6 0.333913 0.573495 0.925769
O O1 0.847903 0.692459 0.742020
O O2 0.691706 0.717064 0.670278
O O3 0.698830 0.610870 0.734391
O O4 0.819873 0.622385 0.629662
O O5 0.389576 0.860590 0.500000
O O6 0.500000 0.917057 0.587972
O O7 0.381505 0.827750 0.630441
O O8 0.287938 0.926126 0.582886
O O9 0.000000 0.748902 0.804521
O O10 0.500000 0.589036 0.245609
O O11 0.630142 0.500000 0.220092
O O12 0.622724 0.601967 0.143309
O O13 0.500000 0.917294 0.088500
O O14 0.354950 0.000000 0.093829
O O15 0.356274 0.913076 0.000000
O O16 0.369438 0.500000 0.928188
O O17 0.357036 0.602627 0.000000
#
# Coordination Sequence:
#
# PCOD9520991 Si02
#       6
#    16  16  16  16  16  16
#     4  11  20  34  55  77 104 143 173 214 259 319
#     4   9  17  31  49  69  99 134 167 206 249 296
#     4  10  21  34  50  76 105 139 180 215 250 298
#     4  10  20  33  50  74 103 135 173 216 262 310
#     4   9  19  37  61  87 111 134 167 219 280 333
#     4   9  17  30  48  70  98 133 172 211 253 301
#
# _framework density 17.667601999999999
#
# number of rings (size 3 to 8) (size 9 to 14) (size 15 to 20)
#    0.000    2.333    1.667    2.000    0.000    1.333 
#    0.000    3.333    0.000    1.500    0.000    5.833 
#    0.000    0.000    0.000    0.000    0.000    0.000 
#
# Total GULP energy -267449.696953 kJ/mol
# GULP energy per Si atom -5571.868687 kJ/mol
# Density = 1.762739 g / cm^3
# Si number density = 17.667602 Si / 1000 Ang^3
#
#
#
# Elastic Constant Matrix: (Units=GPa)
#
#
# Indices 1 2 3 4 5 6 
#
# 1 81.6000 34.8552 45.0741 0.0000 0.0000 0.0000
# 2 34.8552 68.1983 50.7874 0.0000 0.0000 0.0000
# 3 45.0741 50.7874 92.8255 0.0000 0.0000 0.0000
# 4 0.0000 0.0000 0.0000 19.7984 0.0000 0.0000
# 5 0.0000 0.0000 0.0000 0.0000 22.6232 0.0000
# 6 0.0000 0.0000 0.0000 0.0000 0.0000 25.0105
#
#
#
# Elastic Compliance Matrix: (Units=1/GPa)
#
#
# Indices 1 2 3 4 5 6 
#
# 1 0.017500 -0.004415 -0.006082 0.000000 0.000000 0.000000
# 2 -0.004415 0.025859 -0.012005 0.000000 0.000000 0.000000
# 3 -0.006082 -0.012005 0.020295 0.000000 0.000000 0.000000
# 4 0.000000 0.000000 0.000000 0.050509 0.000000 0.000000
# 5 0.000000 0.000000 0.000000 0.000000 0.044202 0.000000
# 6 0.000000 0.000000 0.000000 0.000000 0.000000 0.039983
#
#
# Mechanical properties :
#
#
# Convention : Reuss Voigt Hill
#
# Bulk Modulus (GPa) = 53.61732 56.00634 54.81183
# Shear Modulus (GPa) = 20.03450 20.94689 20.49069
#
# Velocity S-wave (km/s) = 3.37110 3.44700 3.40926
# Velocity P-wave (km/s) = 6.75027 6.90009 6.82559
#
# Compressibility (1/GPa) = 0.01865069
#
# Stress axis : x y z
#
# Youngs Moduli (GPa) = 57.14157 38.67081 49.27436
#
# Poissons Ratio (x) = 0.17072 0.29971
# Poissons Ratio (y) = 0.25226 0.59152
# Poissons Ratio (z) = 0.34756 0.46423
#
# Static dielectric constant tensor:
#      x y z
#    x 1.622490 0.000000 0.000000 
#    y 0.000000 1.587170 0.000000 
#    z 0.000000 0.000000 1.602740 
# 
# From -- ./inp_files/25978.got.cif
#   From: 2010.05.17/outbox.cif.g08.bks.cpg/sg71_13_cif.got.tgz:25978.got - 2010.06.03 16:22:01.
