data_PCOD9520383
_publ_section_title
;
Structure prediction by ZEFSAII (Michael W. Deem and Ramdas Pophale) SiO2 
 PCOD9520383
Probable space group: I M M M
;
_chemical_formula_sum "Si O2"
_cell_formula_units_Z 96
_cell_length_a 14.945364
_cell_length_b 24.359502
_cell_length_c 13.623802
_cell_angle_alpha 90.000000
_cell_angle_beta 90.000000
_cell_angle_gamma 90.000000
_cell_volume 4959.903485
_symmetry_space_group_name_H-M "I M M M"
_symmetry_group_IT_number 71
_symmetry_cell_setting 'orthorhombic'
loop_
_space_group_symop_operation_xyz
x,y,z
-x,-y,z
x,-y,-z
-x,y,-z
-x,-y,-z
x,y,-z
-x,y,z
x,-y,z
1/2+x,1/2+y,1/2+z
1/2-x,1/2-y,1/2+z
1/2+x,1/2-y,1/2-z
1/2-x,1/2+y,1/2-z
1/2-x,1/2-y,1/2-z
1/2+x,1/2+y,1/2-z
1/2-x,1/2+y,1/2+z
1/2+x,1/2-y,1/2+z
loop_
_atom_site_type_symbol
_atom_site_label
_atom_site_fract_x
_atom_site_fract_y
_atom_site_fract_z
Si Si1 0.000000 0.398031 0.381466
Si Si2 0.313292 0.874241 0.616938
Si Si3 0.500000 0.231521 0.119435
Si Si4 0.694571 0.270064 0.880764
Si Si5 0.810931 0.438066 0.301896
Si Si6 0.304587 0.338014 0.618375
Si Si7 0.500000 0.816298 0.618330
Si Si8 0.500000 0.310135 0.619983
O O1 0.000000 0.333103 0.354698
O O2 0.088712 0.426090 0.339320
O O3 0.000000 0.401555 0.500000
O O4 0.311006 0.884343 0.500000
O O5 0.238636 0.828522 0.642835
O O6 0.304680 0.926899 0.685373
O O7 0.408857 0.847058 0.643910
O O8 0.407281 0.259654 0.150773
O O9 0.500000 0.232981 0.000000
O O10 0.755954 0.218506 0.849390
O O11 0.695154 0.268269 0.000000
O O12 0.785375 0.500000 0.327043
O O13 0.749374 0.391243 0.349251
O O14 0.303976 0.336615 0.500000
O O15 0.407502 0.337639 0.651412
O O16 0.500000 0.813949 0.500000
O O17 0.500000 0.753521 0.651262
O O18 0.500000 0.310055 0.500000
#
# Coordination Sequence:
#
# PCOD9520383 Si02
#       8
#     8  16   8  16  16  16   8   8
#     4  11  22  40  62  86 120 156 188 229 285 345
#     4  10  21  38  59  83 114 151 191 241 293 336
#     4   9  16  30  54  87 124 152 174 218 282 351
#     4   9  16  31  57  86 117 148 180 226 291 353
#     4  12  26  40  55  81 114 155 208 243 271 331
#     4  10  19  35  59  87 118 148 182 231 289 349
#     4   9  15  30  57  85 112 138 173 226 288 348
#     4   9  16  31  57  88 119 147 173 216 289 362
#
# _framework density 19.355215999999999
#
# number of rings (size 3 to 8) (size 9 to 14) (size 15 to 20)
#    0.000    2.000    3.333    1.250    0.000    2.667 
#    0.000    1.250    0.000    4.000    0.000    0.000 
#    0.000    4.667    0.000    0.000    0.000    0.000 
#
# Total GULP energy -268320.767720 kJ/mol
# GULP energy per Si atom -5590.015994 kJ/mol
# Density = 1.931116 g / cm^3
# Si number density = 19.355216 Si / 1000 Ang^3
#
#
#
# Elastic Constant Matrix: (Units=GPa)
#
#
# Indices 1 2 3 4 5 6 
#
# 1 127.4867 32.6916 6.6909 0.0001 0.0000 -0.0001
# 2 32.6916 85.0963 9.8437 -0.0001 0.0000 0.0001
# 3 6.6909 9.8437 78.1064 -0.0003 0.0000 0.0002
# 4 0.0001 -0.0001 -0.0003 22.4122 0.0000 0.0002
# 5 0.0000 0.0000 0.0000 0.0000 12.3538 -0.0001
# 6 -0.0001 0.0001 0.0002 0.0002 -0.0001 -13.9391
#
#
#
# Elastic Compliance Matrix: (Units=1/GPa)
#
#
# Indices 1 2 3 4 5 6 
#
# 1 0.008709 -0.003308 -0.000329 0.000000 0.000000 0.000000
# 2 -0.003308 0.013182 -0.001378 0.000000 0.000000 0.000000
# 3 -0.000329 -0.001378 0.013005 0.000000 0.000000 0.000000
# 4 0.000000 0.000000 0.000000 0.044618 0.000000 0.000000
# 5 0.000000 0.000000 0.000000 0.000000 0.080947 -0.000001
# 6 0.000000 0.000000 0.000000 0.000000 -0.000001 -0.071741
#
#
# Mechanical properties :
#
#
# Convention : Reuss Voigt Hill
#
# Bulk Modulus (GPa) = 40.21549 43.23796 41.72673
# Shear Modulus (GPa) = 46.71188 20.26293 33.48740
#
# Velocity S-wave (km/s) = 4.91797 3.23909 4.16402
# Velocity P-wave (km/s) = 7.28500 6.03130 6.68759
#
# Compressibility (1/GPa) = 0.02486604
#
# Stress axis : x y z
#
# Youngs Moduli (GPa) = 114.81755 75.86351 76.89404
#
# Poissons Ratio (x) = 0.25094 0.02531
# Poissons Ratio (y) = 0.37980 0.10595
# Poissons Ratio (z) = 0.03780 0.10453
#
# Static dielectric constant tensor:
#      x y z
#    x 1.658880 0.000000 0.000000 
#    y 0.000000 1.615220 0.000000 
#    z 0.000000 0.000000 1.758510 
# 
# From -- ./inp_files/34838.got.cif
#   From: 2010.05.17/outbox.cif.g08.bks.cpg/sg71_18_cif.got.tgz:34838.got - 2010.06.03 16:22:01.
