data_PCOD9520495
_publ_section_title
;
Structure prediction by ZEFSAII (Michael W. Deem and Ramdas Pophale) SiO2 
 PCOD9520495
Probable space group: I M M M
;
_chemical_formula_sum "Si O2"
_cell_formula_units_Z 92
_cell_length_a 22.585059
_cell_length_b 28.301816
_cell_length_c 7.679040
_cell_angle_alpha 90.000000
_cell_angle_beta 90.000000
_cell_angle_gamma 90.000000
_cell_volume 4908.428424
_symmetry_space_group_name_H-M "I M M M"
_symmetry_group_IT_number 71
_symmetry_cell_setting 'orthorhombic'
loop_
_space_group_symop_operation_xyz
x,y,z
-x,-y,z
x,-y,-z
-x,y,-z
-x,-y,-z
x,y,-z
-x,y,z
x,-y,z
1/2+x,1/2+y,1/2+z
1/2-x,1/2-y,1/2+z
1/2+x,1/2-y,1/2-z
1/2-x,1/2+y,1/2-z
1/2-x,1/2-y,1/2-z
1/2+x,1/2+y,1/2-z
1/2-x,1/2+y,1/2+z
1/2+x,1/2-y,1/2+z
loop_
_atom_site_type_symbol
_atom_site_label
_atom_site_fract_x
_atom_site_fract_y
_atom_site_fract_z
Si Si1 0.704375 0.149225 0.711967
Si Si2 0.000000 0.275332 0.500000
Si Si3 0.399941 0.214884 0.300217
Si Si4 0.242718 0.052034 0.708329
Si Si5 0.123637 0.102584 0.203562
Si Si6 0.000000 0.054117 0.291628
Si Si7 0.322018 0.699589 0.200312
O O1 0.708771 0.148758 0.500000
O O2 0.640671 0.170129 0.753066
O O3 0.719049 0.096370 0.774562
O O4 0.758128 0.183168 0.770886
O O5 0.948752 0.275933 0.345171
O O6 0.421620 0.208503 0.500000
O O7 0.354861 0.259140 0.300095
O O8 0.251067 0.050456 0.500000
O O9 0.174316 0.065707 0.740323
O O10 0.255945 0.000000 0.779175
O O11 0.059070 0.081571 0.236681
O O12 0.138013 0.152056 0.296030
O O13 0.130751 0.111687 0.000000
O O14 0.000000 0.052166 0.500000
O O15 0.000000 0.000000 0.225043
O O16 0.314983 0.714698 0.000000
#
# Coordination Sequence:
#
# PCOD9520495 Si02
#       7
#    16   4  16  16  16   8  16
#     4   8  17  33  58  88 117 149 189 241 292 349
#     4  12  26  42  56  86 117 162 199 234 292 346
#     4  11  22  40  61  86 119 154 199 243 288 352
#     4   9  17  33  56  82 113 146 182 231 291 351
#     4  11  22  34  49  75 108 145 190 236 290 341
#     4  11  23  38  53  67  91 141 199 242 284 336
#     4  10  19  37  59  84 115 148 192 242 298 347
#
# _framework density 18.743269000000002
#
# number of rings (size 3 to 8) (size 9 to 14) (size 15 to 20)
#    0.000    2.000    0.870    4.696    0.000    3.826 
#    9.391    1.739    0.000    0.000    0.000    1.217 
#    0.000    4.174    0.000    0.000    0.000    0.000 
#
# Total GULP energy -256277.703897 kJ/mol
# GULP energy per Si atom -5571.254433 kJ/mol
# Density = 1.870061 g / cm^3
# Si number density = 18.743269 Si / 1000 Ang^3
#
#
#
# Elastic Constant Matrix: (Units=GPa)
#
#
# Indices 1 2 3 4 5 6 
#
# 1 40.7943 27.2006 18.9323 0.0000 0.0000 0.0000
# 2 27.2006 73.7130 14.3671 0.0000 0.0000 0.0000
# 3 18.9323 14.3671 85.5959 0.0000 0.0000 0.0000
# 4 0.0000 0.0000 0.0000 -0.5272 0.0000 0.0000
# 5 0.0000 0.0000 0.0000 0.0000 42.0012 0.0000
# 6 0.0000 0.0000 0.0000 0.0000 0.0000 0.5788
#
#
#
# Elastic Compliance Matrix: (Units=1/GPa)
#
#
# Indices 1 2 3 4 5 6 
#
# 1 0.035072 -0.011816 -0.005774 0.000000 0.000000 0.000000
# 2 -0.011816 0.018006 -0.000409 0.000000 0.000000 0.000000
# 3 -0.005774 -0.000409 0.013028 0.000000 0.000000 0.000000
# 4 0.000000 0.000000 0.000000 -1.896770 0.000000 0.000000
# 5 0.000000 0.000000 0.000000 0.000000 0.023809 0.000000
# 6 0.000000 0.000000 0.000000 0.000000 0.000000 1.727714
#
#
# Mechanical properties :
#
#
# Convention : Reuss Voigt Hill
#
# Bulk Modulus (GPa) = 33.21333 35.67812 34.44572
# Shear Modulus (GPa) = -151.02672 17.71744 -66.65464
#
# Velocity S-wave (km/s) = -8.98618 3.07786 -5.96985
# Velocity P-wave (km/s) = 9.48209 5.63094 5.39456
#
# Compressibility (1/GPa) = 0.03010839
#
# Stress axis : x y z
#
# Youngs Moduli (GPa) = 28.51304 55.53678 76.75483
#
# Poissons Ratio (x) = 0.65624 0.44318
# Poissons Ratio (y) = 0.33692 0.03137
# Poissons Ratio (z) = 0.16463 0.02270
#
# Static dielectric constant tensor:
#      x y z
#    x 1.631490 0.000000 0.000000 
#    y 0.000000 1.681830 0.000000 
#    z 0.000000 0.000000 1.672380 
# 
# From -- ./inp_files/11017.got.cif
#   From: 2010.05.17/outbox.cif.g08.bks.cpg/sg71_6_cif.got.tgz:11017.got - 2010.06.03 16:22:01.
