data_PCOD9520800
_publ_section_title
;
Structure prediction by ZEFSAII (Michael W. Deem and Ramdas Pophale) SiO2 
 PCOD9520800
Probable space group: I M M M
;
_chemical_formula_sum "Si O2"
_cell_formula_units_Z 64
_cell_length_a 7.524237
_cell_length_b 9.400754
_cell_length_c 42.374605
_cell_angle_alpha 90.000000
_cell_angle_beta 90.000000
_cell_angle_gamma 90.000000
_cell_volume 2997.304168
_symmetry_space_group_name_H-M "I M M M"
_symmetry_group_IT_number 71
_symmetry_cell_setting 'orthorhombic'
loop_
_space_group_symop_operation_xyz
x,y,z
-x,-y,z
x,-y,-z
-x,y,-z
-x,-y,-z
x,y,-z
-x,y,z
x,-y,z
1/2+x,1/2+y,1/2+z
1/2-x,1/2-y,1/2+z
1/2+x,1/2-y,1/2-z
1/2-x,1/2+y,1/2-z
1/2-x,1/2-y,1/2-z
1/2+x,1/2+y,1/2-z
1/2-x,1/2+y,1/2+z
1/2+x,1/2-y,1/2+z
loop_
_atom_site_type_symbol
_atom_site_label
_atom_site_fract_x
_atom_site_fract_y
_atom_site_fract_z
Si Si1 0.286304 0.660977 0.404373
Si Si2 0.716799 0.835765 0.464545
Si Si3 0.786709 0.338163 0.281564
Si Si4 0.287232 0.661492 0.158391
O O1 0.500000 0.653940 0.406824
O O2 0.219515 0.500000 0.400461
O O3 0.220738 0.735210 0.436444
O O4 0.246255 0.757356 0.374185
O O5 0.772242 0.794438 0.500000
O O6 0.500000 0.833804 0.464350
O O7 0.769334 0.000000 0.459070
O O8 0.718640 0.500000 0.279796
O O9 0.750000 0.250000 0.250000
O O10 0.718175 0.253138 0.312093
O O11 0.000000 0.346985 0.284683
O O12 0.500000 0.652456 0.162151
O O13 0.217782 0.500000 0.157971
#
# Coordination Sequence:
#
# PCOD9520800 Si02
#       4
#    16  16  16  16
#     4  10  20  32  49  76 106 135 169 209 253 301
#     4   8  14  26  45  69  98 132 168 207 252 299
#     4  10  21  37  57  80 105 134 168 206 250 299
#     4  10  21  37  56  76 100 134 173 210 252 301
#
# _framework density 21.352519999999998
#
# number of rings (size 3 to 8) (size 9 to 14) (size 15 to 20)
#    0.000    2.500    0.000    3.000    0.000    6.000 
#    0.000    2.500    0.000    0.750    0.000    5.250 
#    0.000    0.000    0.000    0.000    0.000    0.000 
#
# Total GULP energy -178773.719740 kJ/mol
# GULP energy per Si atom -5586.678742 kJ/mol
# Density = 2.130392 g / cm^3
# Si number density = 21.352520 Si / 1000 Ang^3
#
#
#
# Elastic Constant Matrix: (Units=GPa)
#
#
# Indices 1 2 3 4 5 6 
#
# 1 55.6191 9.0188 -0.8910 0.0000 0.0000 0.0000
# 2 9.0188 234.7970 151.2624 0.0000 0.0000 0.0000
# 3 -0.8910 151.2624 214.0630 0.0000 0.0000 0.0000
# 4 0.0000 0.0000 0.0000 46.0118 0.0000 0.0000
# 5 0.0000 0.0000 0.0000 0.0000 10.8480 0.0000
# 6 0.0000 0.0000 0.0000 0.0000 0.0000 13.8201
#
#
#
# Elastic Compliance Matrix: (Units=1/GPa)
#
#
# Indices 1 2 3 4 5 6 
#
# 1 0.018219 -0.001374 0.001047 0.000000 0.000000 0.000000
# 2 -0.001374 0.007922 -0.005603 0.000000 0.000000 0.000000
# 3 0.001047 -0.005603 0.008635 0.000000 0.000000 0.000000
# 4 0.000000 0.000000 0.000000 0.021734 0.000000 0.000000
# 5 0.000000 0.000000 0.000000 0.000000 0.092183 0.000000
# 6 0.000000 0.000000 0.000000 0.000000 0.000000 0.072358
#
#
# Mechanical properties :
#
#
# Convention : Reuss Voigt Hill
#
# Bulk Modulus (GPa) = 43.64021 91.47328 67.55675
# Shear Modulus (GPa) = 20.78568 37.14191 28.96380
#
# Velocity S-wave (km/s) = 3.12341 4.17521 3.68701
# Velocity P-wave (km/s) = 5.78705 8.13485 7.05924
#
# Compressibility (1/GPa) = 0.02291464
#
# Stress axis : x y z
#
# Youngs Moduli (GPa) = 54.88760 126.23726 115.80333
#
# Poissons Ratio (x) = 0.17348 -0.12124
# Poissons Ratio (y) = 0.07543 0.64888
# Poissons Ratio (z) = -0.05746 0.70735
#
# Static dielectric constant tensor:
#      x y z
#    x 1.864210 0.000000 0.000000 
#    y 0.000000 1.753610 0.000000 
#    z 0.000000 0.000000 1.720800 
# 
# From -- ./inp_files/3713.got.cif
#   From: 2010.05.17/outbox.cif.g08.bks.cpg/sg71_2_cif.got.tgz:3713.got - 2010.06.03 16:22:01.
