data_PCOD9520981
_publ_section_title
;
Structure prediction by ZEFSAII (Michael W. Deem and Ramdas Pophale) SiO2 
 PCOD9520981
Probable space group: I M M M
;
_chemical_formula_sum "Si O2"
_cell_formula_units_Z 104
_cell_length_a 23.243549
_cell_length_b 31.278768
_cell_length_c 8.113401
_cell_angle_alpha 90.000000
_cell_angle_beta 90.000000
_cell_angle_gamma 90.000000
_cell_volume 5898.682494
_symmetry_space_group_name_H-M "I M M M"
_symmetry_group_IT_number 71
_symmetry_cell_setting 'orthorhombic'
loop_
_space_group_symop_operation_xyz
x,y,z
-x,-y,z
x,-y,-z
-x,y,-z
-x,-y,-z
x,y,-z
-x,y,z
x,-y,z
1/2+x,1/2+y,1/2+z
1/2-x,1/2-y,1/2+z
1/2+x,1/2-y,1/2-z
1/2-x,1/2+y,1/2-z
1/2-x,1/2-y,1/2-z
1/2+x,1/2+y,1/2-z
1/2-x,1/2+y,1/2+z
1/2+x,1/2-y,1/2+z
loop_
_atom_site_type_symbol
_atom_site_label
_atom_site_fract_x
_atom_site_fract_y
_atom_site_fract_z
Si Si1 0.888250 0.396456 0.798200
Si Si2 0.933999 0.785208 0.696203
Si Si3 0.066528 0.693869 0.198143
Si Si4 0.649875 0.451654 0.198707
Si Si5 0.219374 0.548950 0.201063
Si Si6 0.000000 0.549182 0.201228
Si Si7 0.565653 0.623272 0.695977
O O1 0.899110 0.347793 0.744057
O O2 0.829227 0.418291 0.741948
O O3 0.942881 0.425282 0.748326
O O4 0.887614 0.396417 0.000000
O O5 0.935835 0.784672 0.500000
O O6 0.908717 0.740088 0.753726
O O7 0.909226 0.830704 0.750305
O O8 0.000000 0.785316 0.762620
O O9 0.000000 0.691036 0.258436
O O10 0.064356 0.692086 0.000000
O O11 0.635447 0.500000 0.254944
O O12 0.715256 0.441771 0.254238
O O13 0.604818 0.416095 0.251225
O O14 0.650822 0.452466 0.000000
O O15 0.205288 0.500000 0.248383
O O16 0.219180 0.549793 0.000000
O O17 0.000000 0.500000 0.256102
O O18 0.000000 0.548779 0.000000
O O19 0.562212 0.623399 0.500000
O O20 0.500000 0.619561 0.763343
#
# Coordination Sequence:
#
# PCOD9520981 Si02
#       7
#    16  16  16  16  16   8  16
#     4   9  14  21  35  59  91 126 159 194 235 274
#     4   9  17  29  46  67  91 120 152 184 222 273
#     4   9  15  24  39  62  94 125 154 190 234 277
#     4   9  18  32  49  69  94 125 158 188 219 261
#     4   8  14  25  41  61  87 123 164 197 225 263
#     4   9  14  18  28  54  93 129 157 191 238 281
#     4  10  20  33  50  73  97 118 142 178 229 279
#
# _framework density 17.631056000000001
#
# number of rings (size 3 to 8) (size 9 to 14) (size 15 to 20)
#    0.000    3.000    0.769    2.308    0.000    5.231 
#    0.000    1.538    0.000    1.846    0.000    0.000 
#    0.000    2.462    0.000    0.000    0.000    0.154 
#
# Total GULP energy -289663.984461 kJ/mol
# GULP energy per Si atom -5570.461240 kJ/mol
# Density = 1.759093 g / cm^3
# Si number density = 17.631056 Si / 1000 Ang^3
#
#
#
# Elastic Constant Matrix: (Units=GPa)
#
#
# Indices 1 2 3 4 5 6 
#
# 1 83.2751 94.4734 10.2193 0.0000 0.0000 0.0000
# 2 94.4734 200.4034 17.7033 0.0000 0.0000 0.0000
# 3 10.2193 17.7033 12.1250 0.0000 0.0000 0.0000
# 4 0.0000 0.0000 0.0000 14.3971 0.0000 0.0000
# 5 0.0000 0.0000 0.0000 0.0000 3.8744 0.0000
# 6 0.0000 0.0000 0.0000 0.0000 0.0000 15.6315
#
#
#
# Elastic Compliance Matrix: (Units=1/GPa)
#
#
# Indices 1 2 3 4 5 6 
#
# 1 0.026037 -0.011866 -0.004619 0.000000 0.000000 0.000000
# 2 -0.011866 0.011137 -0.006259 0.000000 0.000000 0.000000
# 3 -0.004619 -0.006259 0.095507 0.000000 0.000000 0.000000
# 4 0.000000 0.000000 0.000000 0.069458 0.000000 0.000000
# 5 0.000000 0.000000 0.000000 0.000000 0.258105 0.000000
# 6 0.000000 0.000000 0.000000 0.000000 0.000000 0.063973
#
#
# Mechanical properties :
#
#
# Convention : Reuss Voigt Hill
#
# Bulk Modulus (GPa) = 11.46909 60.06619 35.76764
# Shear Modulus (GPa) = 8.35044 18.34110 13.34577
#
# Velocity S-wave (km/s) = 2.17864 3.22882 2.75425
# Velocity P-wave (km/s) = 3.58439 6.93129 5.51773
#
# Compressibility (1/GPa) = 0.08719089
#
# Stress axis : x y z
#
# Youngs Moduli (GPa) = 38.40640 89.79192 10.47047
#
# Poissons Ratio (x) = 1.06550 0.04837
# Poissons Ratio (y) = 0.45574 0.06554
# Poissons Ratio (z) = 0.17741 0.56203
#
# Static dielectric constant tensor:
#      x y z
#    x 1.594560 0.000000 0.000000 
#    y 0.000000 1.614650 0.000000 
#    z 0.000000 0.000000 1.633740 
# 
# From -- ./inp_files/13602.got.cif
#   From: 2010.05.17/outbox.cif.g08.bks.cpg/sg71_7_cif.got.tgz:13602.got - 2010.06.03 16:22:01.
