data_PCOD9520458
_publ_section_title
;
Structure prediction by ZEFSAII (Michael W. Deem and Ramdas Pophale) SiO2 
 PCOD9520458
Probable space group: I M M M
;
_chemical_formula_sum "Si O2"
_cell_formula_units_Z 116
_cell_length_a 25.767467
_cell_length_b 7.684817
_cell_length_c 29.606897
_cell_angle_alpha 90.000000
_cell_angle_beta 90.000000
_cell_angle_gamma 90.000000
_cell_volume 5862.706478
_symmetry_space_group_name_H-M "I M M M"
_symmetry_group_IT_number 71
_symmetry_cell_setting 'orthorhombic'
loop_
_space_group_symop_operation_xyz
x,y,z
-x,-y,z
x,-y,-z
-x,y,-z
-x,-y,-z
x,y,-z
-x,y,z
x,-y,z
1/2+x,1/2+y,1/2+z
1/2-x,1/2-y,1/2+z
1/2+x,1/2-y,1/2-z
1/2-x,1/2+y,1/2-z
1/2-x,1/2-y,1/2-z
1/2+x,1/2+y,1/2-z
1/2-x,1/2+y,1/2+z
1/2+x,1/2-y,1/2+z
loop_
_atom_site_type_symbol
_atom_site_label
_atom_site_fract_x
_atom_site_fract_y
_atom_site_fract_z
Si Si1 0.701123 0.293205 0.780721
Si Si2 0.943915 0.296628 0.645535
Si Si3 0.744324 0.287761 0.552789
Si Si4 0.169085 0.294770 0.379439
Si Si5 0.371278 0.795392 0.575148
Si Si6 0.893913 0.000000 0.000000
Si Si7 0.912111 0.205554 0.743286
Si Si8 0.443491 0.791506 0.656375
O O1 0.699008 0.500000 0.784866
O O2 0.750000 0.250000 0.750000
O O3 0.698982 0.222983 0.831711
O O4 0.647649 0.232770 0.757452
O O5 0.944781 0.500000 0.632754
O O6 0.889317 0.221235 0.626989
O O7 0.939212 0.288742 0.699938
O O8 0.000000 0.219829 0.632336
O O9 0.745814 0.238684 0.500000
O O10 0.741911 0.500000 0.554233
O O11 0.794283 0.226337 0.580810
O O12 0.691057 0.219982 0.574335
O O13 0.162930 0.500000 0.388060
O O14 0.390882 0.655135 0.538888
O O15 0.397216 0.743661 0.622774
O O16 0.384525 0.000000 0.565545
O O17 0.935585 0.236940 0.792101
O O18 0.913425 0.000000 0.734568
O O19 0.500000 0.728070 0.640069
O O20 0.444571 0.000000 0.656439
#
# Coordination Sequence:
#
# PCOD9520458 Si02
#       8
#    16  16  16  16  16   4  16  16
#     4  10  21  35  49  73 110 146 182 225 275 338
#     4   9  17  32  53  77 108 148 192 233 275 331
#     4  10  19  36  59  83 113 146 188 240 291 349
#     4   9  19  33  53  79 108 145 186 230 282 334
#     4  11  23  40  64  88 114 149 189 239 294 349
#     4  12  22  44  65  88 116 144 193 242 292 360
#     4  10  21  34  52  78 108 145 188 230 278 336
#     4  10  23  41  58  81 112 146 187 235 284 341
#
# _framework density 19.786083999999999
#
# number of rings (size 3 to 8) (size 9 to 14) (size 15 to 20)
#    0.000    2.069    1.379    1.448    2.897    4.414 
#    0.000    0.690    0.000    2.069    0.000    2.897 
#    0.000    0.000    0.000    8.138    0.000   10.207 
#
# Total GULP energy -322963.638670 kJ/mol
# GULP energy per Si atom -5568.338598 kJ/mol
# Density = 1.974105 g / cm^3
# Si number density = 19.786084 Si / 1000 Ang^3
#
#
#
# Elastic Constant Matrix: (Units=GPa)
#
#
# Indices 1 2 3 4 5 6 
#
# 1 135.7814 4.1384 66.5298 0.0000 0.0000 0.0000
# 2 4.1384 60.7220 7.1380 0.0000 0.0000 0.0000
# 3 66.5298 7.1380 79.2016 0.0000 0.0000 0.0000
# 4 0.0000 0.0000 0.0000 19.7006 0.0000 0.0000
# 5 0.0000 0.0000 0.0000 0.0000 -2.3800 0.0000
# 6 0.0000 0.0000 0.0000 0.0000 0.0000 15.0156
#
#
#
# Elastic Compliance Matrix: (Units=1/GPa)
#
#
# Indices 1 2 3 4 5 6 
#
# 1 0.012525 0.000387 -0.010556 0.000000 0.000000 0.000000
# 2 0.000387 0.016657 -0.001826 0.000000 0.000000 0.000000
# 3 -0.010556 -0.001826 0.021658 0.000000 0.000000 0.000000
# 4 0.000000 0.000000 0.000000 0.050760 0.000000 0.000000
# 5 0.000000 0.000000 0.000000 0.000000 -0.420167 0.000000
# 6 0.000000 0.000000 0.000000 0.000000 0.000000 0.066597
#
#
# Mechanical properties :
#
#
# Convention : Reuss Voigt Hill
#
# Bulk Modulus (GPa) = 37.24518 47.92415 42.58466
# Shear Modulus (GPa) = -22.82806 19.66048 -1.58379
#
# Velocity S-wave (km/s) = -3.40036 3.15564 -0.89565
# Velocity P-wave (km/s) = 1.85692 6.12790 4.52766
#
# Compressibility (1/GPa) = 0.02684912
#
# Stress axis : x y z
#
# Youngs Moduli (GPa) = 79.83851 60.03555 46.17252
#
# Poissons Ratio (x) = -0.02325 0.48741
# Poissons Ratio (y) = -0.03092 0.08433
# Poissons Ratio (z) = 0.84279 0.10965
#
# Static dielectric constant tensor:
#      x y z
#    x 1.755610 0.000000 0.000000 
#    y 0.000000 1.731650 0.000000 
#    z 0.000000 0.000000 1.660990 
# 
# From -- ./inp_files/71038.got.cif
#   From: 2010.05.17/outbox.cif.g08.bks.cpg/sg71_36_cif.got.tgz:71038.got - 2010.06.03 16:22:01.
