data_PCOD9520096
_publ_section_title
;
Structure prediction by ZEFSAII (Michael W. Deem and Ramdas Pophale) SiO2 
 PCOD9520096
Probable space group: I M M M
;
_chemical_formula_sum "Si O2"
_cell_formula_units_Z 104
_cell_length_a 28.375055
_cell_length_b 22.621065
_cell_length_c 8.307041
_cell_angle_alpha 90.000000
_cell_angle_beta 90.000000
_cell_angle_gamma 90.000000
_cell_volume 5332.073332
_symmetry_space_group_name_H-M "I M M M"
_symmetry_group_IT_number 71
_symmetry_cell_setting 'orthorhombic'
loop_
_space_group_symop_operation_xyz
x,y,z
-x,-y,z
x,-y,-z
-x,y,-z
-x,-y,-z
x,y,-z
-x,y,z
x,-y,z
1/2+x,1/2+y,1/2+z
1/2-x,1/2-y,1/2+z
1/2+x,1/2-y,1/2-z
1/2-x,1/2+y,1/2-z
1/2-x,1/2-y,1/2-z
1/2+x,1/2+y,1/2-z
1/2-x,1/2+y,1/2+z
1/2+x,1/2-y,1/2+z
loop_
_atom_site_type_symbol
_atom_site_label
_atom_site_fract_x
_atom_site_fract_y
_atom_site_fract_z
Si Si1 0.444833 0.767421 0.197294
Si Si2 0.692047 0.432562 0.691926
Si Si3 0.625251 0.670948 0.186804
Si Si4 0.201596 0.275243 0.312890
Si Si5 0.105790 0.388585 0.691629
Si Si6 0.944831 0.500000 0.688285
Si Si7 0.703496 0.099685 0.682172
O O1 0.500000 0.773717 0.242082
O O2 0.421042 0.705191 0.252124
O O3 0.412601 0.823823 0.250047
O O4 0.443124 0.765837 0.000000
O O5 0.695572 0.432674 0.500000
O O6 0.682281 0.500000 0.747160
O O7 0.651241 0.385853 0.737991
O O8 0.743963 0.413947 0.756342
O O9 0.663675 0.723651 0.193096
O O10 0.616662 0.655869 0.000000
O O11 0.204066 0.295859 0.500000
O O12 0.250000 0.250000 0.250000
O O13 0.194257 0.330201 0.196970
O O14 0.100758 0.382057 0.500000
O O15 0.072274 0.438874 0.761441
O O16 0.157416 0.417844 0.719135
O O17 0.928449 0.500000 0.500000
O O18 0.000000 0.500000 0.684892
O O19 0.700231 0.078770 0.500000
#
# Coordination Sequence:
#
# PCOD9520096 Si02
#       7
#    16  16  16  16  16   8  16
#     4   9  17  32  57  86 115 146 184 236 290 334
#     4  11  25  42  60  81 109 149 194 239 288 346
#     4  10  20  35  57  86 116 146 185 232 287 344
#     4  11  20  33  54  83 113 145 182 223 272 325
#     4  10  19  34  54  81 116 152 196 243 282 330
#     4   9  18  32  55  83 107 145 201 251 290 329
#     4  12  24  36  53  80 115 153 189 228 278 336
#
# _framework density 19.504608000000001
#
# number of rings (size 3 to 8) (size 9 to 14) (size 15 to 20)
#    0.000    1.615    3.077    2.769    1.077    3.692 
#    0.000    0.000    0.000    4.154    0.000    3.231 
#    0.000    0.000    0.000    0.000    0.000    0.000 
#
# Total GULP energy -289496.358948 kJ/mol
# GULP energy per Si atom -5567.237672 kJ/mol
# Density = 1.946021 g / cm^3
# Si number density = 19.504608 Si / 1000 Ang^3
#
#
#
# Elastic Constant Matrix: (Units=GPa)
#
#
# Indices 1 2 3 4 5 6 
#
# 1 100.9219 50.2890 10.4316 0.0000 0.0000 0.0000
# 2 50.2890 121.2225 22.4230 0.0000 0.0000 0.0000
# 3 10.4316 22.4230 22.2284 0.0000 0.0000 0.0000
# 4 0.0000 0.0000 0.0000 14.8990 0.0000 0.0000
# 5 0.0000 0.0000 0.0000 0.0000 15.1168 0.0000
# 6 0.0000 0.0000 0.0000 0.0000 0.0000 28.4369
#
#
#
# Elastic Compliance Matrix: (Units=1/GPa)
#
#
# Indices 1 2 3 4 5 6 
#
# 1 0.012502 -0.005042 -0.000781 0.000000 0.000000 0.000000
# 2 -0.005042 0.012175 -0.009915 0.000000 0.000000 0.000000
# 3 -0.000781 -0.009915 0.055356 0.000000 0.000000 0.000000
# 4 0.000000 0.000000 0.000000 0.067119 0.000000 0.000000
# 5 0.000000 0.000000 0.000000 0.000000 0.066152 0.000000
# 6 0.000000 0.000000 0.000000 0.000000 0.000000 0.035166
#
#
# Mechanical properties :
#
#
# Convention : Reuss Voigt Hill
#
# Bulk Modulus (GPa) = 20.59465 45.62889 33.11177
# Shear Modulus (GPa) = 16.88443 22.43915 19.66179
#
# Velocity S-wave (km/s) = 2.94541 3.39551 3.17844
# Velocity P-wave (km/s) = 4.70628 6.23036 5.52116
#
# Compressibility (1/GPa) = 0.04855630
#
# Stress axis : x y z
#
# Youngs Moduli (GPa) = 79.98902 82.13558 18.06486
#
# Poissons Ratio (x) = 0.41412 0.01411
# Poissons Ratio (y) = 0.40329 0.17912
# Poissons Ratio (z) = 0.06247 0.81441
#
# Static dielectric constant tensor:
#      x y z
#    x 1.514160 0.000000 0.000000 
#    y 0.000000 1.692290 0.000000 
#    z 0.000000 0.000000 1.682060 
# 
# From -- ./inp_files/17252.got.cif
#   From: 2010.05.17/outbox.cif.g08.bks.cpg/sg71_9_cif.got.tgz:17252.got - 2010.06.03 16:22:01.
