data_PCOD9520279
_publ_section_title
;
Structure prediction by ZEFSAII (Michael W. Deem and Ramdas Pophale) SiO2 
 PCOD9520279
Probable space group: I M M M
;
_chemical_formula_sum "Si O2"
_cell_formula_units_Z 104
_cell_length_a 7.556621
_cell_length_b 21.556857
_cell_length_c 30.678162
_cell_angle_alpha 90.000000
_cell_angle_beta 90.000000
_cell_angle_gamma 90.000000
_cell_volume 4997.380503
_symmetry_space_group_name_H-M "I M M M"
_symmetry_group_IT_number 71
_symmetry_cell_setting 'orthorhombic'
loop_
_space_group_symop_operation_xyz
x,y,z
-x,-y,z
x,-y,-z
-x,y,-z
-x,-y,-z
x,y,-z
-x,y,z
x,-y,z
1/2+x,1/2+y,1/2+z
1/2-x,1/2-y,1/2+z
1/2+x,1/2-y,1/2-z
1/2-x,1/2+y,1/2-z
1/2-x,1/2-y,1/2-z
1/2+x,1/2+y,1/2-z
1/2-x,1/2+y,1/2+z
1/2+x,1/2-y,1/2+z
loop_
_atom_site_type_symbol
_atom_site_label
_atom_site_fract_x
_atom_site_fract_y
_atom_site_fract_z
Si Si1 0.793918 0.569085 0.279899
Si Si2 0.286143 0.072104 0.048241
Si Si3 0.282952 0.136737 0.550254
Si Si4 0.216690 0.279087 0.869507
Si Si5 0.212545 0.314777 0.225382
Si Si6 0.202244 0.500000 0.052827
Si Si7 0.796775 0.861201 0.864265
O O1 0.716097 0.500000 0.275701
O O2 0.717074 0.625470 0.251330
O O3 0.789015 0.592559 0.329728
O O4 0.000000 0.564299 0.267536
O O5 0.500000 0.074590 0.050072
O O6 0.212810 0.111435 0.087577
O O7 0.235259 0.000000 0.052953
O O8 0.231236 0.093283 0.000000
O O9 0.229562 0.149375 0.500000
O O10 0.500000 0.134932 0.549896
O O11 0.227067 0.186393 0.586371
O O12 0.220973 0.067358 0.563736
O O13 0.272301 0.311996 0.824711
O O14 0.278414 0.208100 0.865478
O O15 0.000000 0.278229 0.870707
O O16 0.250000 0.250000 0.250000
O O17 0.000000 0.319236 0.224614
O O18 0.000000 0.500000 0.069513
O O19 0.195152 0.500000 0.000000
O O20 0.000000 0.856184 0.850130
#
# Coordination Sequence:
#
# PCOD9520279 Si02
#       7
#    16  16  16  16  16   8  16
#     4  10  21  36  54  75  99 132 174 215 258 310
#     4   9  19  36  54  71  97 134 171 207 250 300
#     4   8  13  23  39  60  90 126 159 193 237 290
#     4   9  18  30  44  67  97 128 162 199 244 298
#     4  10  19  35  55  73 100 134 170 211 255 305
#     4   7  10  18  34  56  82 118 161 191 221 279
#     4  11  21  32  50  76 103 131 168 211 256 306
#
# _framework density 20.810901999999999
#
# number of rings (size 3 to 8) (size 9 to 14) (size 15 to 20)
#    0.000    2.692    1.538    2.308    0.000    3.385 
#    1.385    2.308    0.000    0.000    0.000    0.000 
#    0.000    0.000    0.000    0.000    0.000   29.231 
#
# Total GULP energy -290055.423047 kJ/mol
# GULP energy per Si atom -5577.988905 kJ/mol
# Density = 2.076354 g / cm^3
# Si number density = 20.810902 Si / 1000 Ang^3
#
#
#
# Elastic Constant Matrix: (Units=GPa)
#
#
# Indices 1 2 3 4 5 6 
#
# 1 48.6140 8.5963 1.5516 0.0000 0.0000 0.0000
# 2 8.5963 163.4835 84.2925 0.0000 0.0000 0.0000
# 3 1.5516 84.2925 140.6042 0.0000 0.0000 0.0000
# 4 0.0000 0.0000 0.0000 36.2386 0.0000 0.0000
# 5 0.0000 0.0000 0.0000 0.0000 7.3765 0.0000
# 6 0.0000 0.0000 0.0000 0.0000 0.0000 5.9202
#
#
#
# Elastic Compliance Matrix: (Units=1/GPa)
#
#
# Indices 1 2 3 4 5 6 
#
# 1 0.020800 -0.001412 0.000617 0.000000 0.000000 0.000000
# 2 -0.001412 0.008949 -0.005350 0.000000 0.000000 0.000000
# 3 0.000617 -0.005350 0.010312 0.000000 0.000000 0.000000
# 4 0.000000 0.000000 0.000000 0.027595 0.000000 0.000000
# 5 0.000000 0.000000 0.000000 0.000000 0.135566 0.000000
# 6 0.000000 0.000000 0.000000 0.000000 0.000000 0.168914
#
#
# Mechanical properties :
#
#
# Convention : Reuss Voigt Hill
#
# Bulk Modulus (GPa) = 36.00630 60.17583 48.09106
# Shear Modulus (GPa) = 12.70057 27.12447 19.91252
#
# Velocity S-wave (km/s) = 2.47307 3.61415 3.09662
# Velocity P-wave (km/s) = 5.04916 6.81134 5.99535
#
# Compressibility (1/GPa) = 0.02777292
#
# Stress axis : x y z
#
# Youngs Moduli (GPa) = 48.07653 111.74065 96.97049
#
# Poissons Ratio (x) = 0.15775 -0.05981
# Poissons Ratio (y) = 0.06787 0.51875
# Poissons Ratio (z) = -0.02965 0.59776
#
# Static dielectric constant tensor:
#      x y z
#    x 1.848160 0.000000 0.000000 
#    y 0.000000 1.749290 0.000000 
#    z 0.000000 0.000000 1.712420 
# 
# From -- ./inp_files/68294.got.cif
#   From: 2010.05.17/outbox.cif.g08.bks.cpg/sg71_35_cif.got.tgz:68294.got - 2010.06.03 16:22:01.
