data_PCOD9520156
_publ_section_title
;
Structure prediction by ZEFSAII (Michael W. Deem and Ramdas Pophale) SiO2 
 PCOD9520156
Probable space group: I M M M
;
_chemical_formula_sum "Si O2"
_cell_formula_units_Z 56
_cell_length_a 7.602588
_cell_length_b 29.421246
_cell_length_c 11.536694
_cell_angle_alpha 90.000000
_cell_angle_beta 90.000000
_cell_angle_gamma 90.000000
_cell_volume 2580.500162
_symmetry_space_group_name_H-M "I M M M"
_symmetry_group_IT_number 71
_symmetry_cell_setting 'orthorhombic'
loop_
_space_group_symop_operation_xyz
x,y,z
-x,-y,z
x,-y,-z
-x,y,-z
-x,-y,-z
x,y,-z
-x,y,z
x,-y,z
1/2+x,1/2+y,1/2+z
1/2-x,1/2-y,1/2+z
1/2+x,1/2-y,1/2-z
1/2-x,1/2+y,1/2-z
1/2-x,1/2-y,1/2-z
1/2+x,1/2+y,1/2-z
1/2-x,1/2+y,1/2+z
1/2+x,1/2-y,1/2+z
loop_
_atom_site_type_symbol
_atom_site_label
_atom_site_fract_x
_atom_site_fract_y
_atom_site_fract_z
Si Si1 0.288618 0.950814 0.365465
Si Si2 0.288172 0.279056 0.633110
Si Si3 0.293606 0.379781 0.689421
Si Si4 0.284042 0.550973 0.500000
O O1 0.241057 0.951725 0.500000
O O2 0.500000 0.950821 0.356657
O O3 0.224582 0.903401 0.313043
O O4 0.225803 0.000000 0.314197
O O5 0.228302 0.266207 0.500000
O O6 0.500000 0.279425 0.626181
O O7 0.250000 0.250000 0.750000
O O8 0.220921 0.330139 0.662116
O O9 0.500000 0.375616 0.662749
O O10 0.222391 0.419581 0.608182
O O11 0.219808 0.500000 0.500000
O O12 0.500000 0.549206 0.500000
#
# Coordination Sequence:
#
# PCOD9520156 Si02
#       4
#    16  16  16   8
#     4   9  19  35  52  74 111 154 188 222 271 333
#     4  10  22  41  62  85 116 152 194 247 303 358
#     4  10  19  34  56  81 108 139 181 232 281 332
#     4   9  16  28  51  81 109 137 169 211 270 329
#
# _framework density 21.701219999999999
#
# number of rings (size 3 to 8) (size 9 to 14) (size 15 to 20)
#    0.000    2.429    1.429    1.714    0.000    5.143 
#    0.000    7.857    0.000    2.571    0.000    0.000 
#    0.000    0.000    0.000    0.000    0.000    0.000 
#
# Total GULP energy -155907.143192 kJ/mol
# GULP energy per Si atom -5568.112257 kJ/mol
# Density = 2.165183 g / cm^3
# Si number density = 21.701220 Si / 1000 Ang^3
#
#
#
# Elastic Constant Matrix: (Units=GPa)
#
#
# Indices 1 2 3 4 5 6 
#
# 1 44.2678 9.4692 5.9015 0.0000 0.0000 0.0000
# 2 9.4692 169.3127 92.8890 0.0006 0.0000 -0.0001
# 3 5.9015 92.8890 138.1802 0.0005 0.0000 0.0001
# 4 0.0000 0.0006 0.0005 0.3551 -0.0002 -0.0009
# 5 0.0000 0.0000 0.0000 -0.0002 37.9859 0.0001
# 6 0.0000 -0.0001 0.0001 -0.0009 0.0001 13.8030
#
#
#
# Elastic Compliance Matrix: (Units=1/GPa)
#
#
# Indices 1 2 3 4 5 6 
#
# 1 0.022866 -0.001177 -0.000185 -0.000001 0.000000 0.000000
# 2 -0.001177 0.009418 -0.006281 -0.000005 0.000000 0.000000
# 3 -0.000185 -0.006281 0.011467 -0.000008 0.000000 0.000000
# 4 -0.000001 -0.000005 -0.000008 2.815960 0.000013 0.000193
# 5 0.000000 0.000000 0.000000 0.000013 0.026326 0.000000
# 6 0.000000 0.000000 0.000000 0.000193 0.000000 0.072448
#
#
# Mechanical properties :
#
#
# Convention : Reuss Voigt Hill
#
# Bulk Modulus (GPa) = 35.13116 63.14224 49.13670
# Shear Modulus (GPa) = 1.67602 26.66221 14.16911
#
# Velocity S-wave (km/s) = 0.87977 3.50895 2.55800
# Velocity P-wave (km/s) = 4.15400 6.75102 5.60500
#
# Compressibility (1/GPa) = 0.02846476
#
# Stress axis : x y z
#
# Youngs Moduli (GPa) = 43.73248 106.18215 87.20767
#
# Poissons Ratio (x) = 0.12500 0.01615
# Poissons Ratio (y) = 0.05148 0.54772
# Poissons Ratio (z) = 0.00810 0.66689
#
# Static dielectric constant tensor:
#      x y z
#    x 1.839530 0.000000 0.000000 
#    y 0.000000 1.810030 0.000000 
#    z 0.000000 0.000000 2.185970 
# 
# From -- ./inp_files/3299.got.cif
#   From: 2010.05.17/outbox.cif.g08.bks.cpg/sg71_2_cif.got.tgz:3299.got - 2010.06.03 16:22:01.
