data_PCOD9520359
_publ_section_title
;
Structure prediction by ZEFSAII (Michael W. Deem and Ramdas Pophale) SiO2 
 PCOD9520359
Probable space group: I M M M
;
_chemical_formula_sum "Si O2"
_cell_formula_units_Z 88
_cell_length_a 18.751267
_cell_length_b 10.762670
_cell_length_c 21.790629
_cell_angle_alpha 90.000000
_cell_angle_beta 90.000000
_cell_angle_gamma 90.000000
_cell_volume 4397.647438
_symmetry_space_group_name_H-M "I M M M"
_symmetry_group_IT_number 71
_symmetry_cell_setting 'orthorhombic'
loop_
_space_group_symop_operation_xyz
x,y,z
-x,-y,z
x,-y,-z
-x,y,-z
-x,-y,-z
x,y,-z
-x,y,z
x,-y,z
1/2+x,1/2+y,1/2+z
1/2-x,1/2-y,1/2+z
1/2+x,1/2-y,1/2-z
1/2-x,1/2+y,1/2-z
1/2-x,1/2-y,1/2-z
1/2+x,1/2+y,1/2-z
1/2-x,1/2+y,1/2+z
1/2+x,1/2-y,1/2+z
loop_
_atom_site_type_symbol
_atom_site_label
_atom_site_fract_x
_atom_site_fract_y
_atom_site_fract_z
Si Si1 0.350734 0.147751 0.431527
Si Si2 0.500000 0.289949 0.569092
Si Si3 0.369900 0.784665 0.771530
Si Si4 0.500000 0.358573 0.708158
Si Si5 0.238698 0.363802 0.824722
Si Si6 0.412765 0.647512 0.000000
Si Si7 0.585133 0.138321 0.094593
O O1 0.322446 0.164056 0.500000
O O2 0.428471 0.207862 0.428257
O O3 0.296424 0.204608 0.382519
O O4 0.359316 0.000000 0.420136
O O5 0.500000 0.349247 0.500000
O O6 0.500000 0.361034 0.633909
O O7 0.431545 0.713634 0.734717
O O8 0.307922 0.694027 0.795274
O O9 0.325648 0.868277 0.724214
O O10 0.399954 0.847018 0.832967
O O11 0.500000 0.500000 0.730977
O O12 0.259537 0.500000 0.845831
O O13 0.390698 0.737193 0.057625
O O14 0.389153 0.500000 0.000000
O O15 0.500000 0.640769 0.000000
O O16 0.500000 0.135747 0.085094
O O17 0.612219 0.000000 0.075280
#
# Coordination Sequence:
#
# PCOD9520359 Si02
#       7
#    16   8  16   8  16   8  16
#     4   9  17  32  57  88 119 149 187 243 310 373
#     4  10  19  35  58  87 118 150 195 249 308 376
#     4  11  22  39  57  85 118 158 203 252 311 376
#     4  12  24  38  57  85 119 162 210 262 316 374
#     4  10  21  37  58  83 117 158 200 250 309 377
#     4   9  19  35  57  87 121 157 195 244 309 366
#     4  10  20  37  61  88 118 155 203 254 306 363
#
# _framework density 20.010698999999999
#
# number of rings (size 3 to 8) (size 9 to 14) (size 15 to 20)
#    0.000    1.909    2.727    1.636    0.000    3.818 
#    1.636    0.000    0.000    0.000    0.000    0.000 
#    0.000    0.000    0.000    0.000    0.000    0.000 
#
# Total GULP energy -245038.031933 kJ/mol
# GULP energy per Si atom -5569.046180 kJ/mol
# Density = 1.996515 g / cm^3
# Si number density = 20.010699 Si / 1000 Ang^3
#
#
#
# Elastic Constant Matrix: (Units=GPa)
#
#
# Indices 1 2 3 4 5 6 
#
# 1 87.1567 28.3722 33.1571 0.0000 0.0000 0.0000
# 2 28.3722 107.8457 38.0741 0.0000 0.0000 0.0000
# 3 33.1571 38.0741 119.1270 0.0000 0.0000 0.0000
# 4 0.0000 0.0000 0.0000 7.6662 0.0000 0.0000
# 5 0.0000 0.0000 0.0000 0.0000 15.4976 0.0000
# 6 0.0000 0.0000 0.0000 0.0000 0.0000 -14.1044
#
#
#
# Elastic Compliance Matrix: (Units=1/GPa)
#
#
# Indices 1 2 3 4 5 6 
#
# 1 0.013400 -0.002489 -0.002934 0.000000 0.000000 0.000000
# 2 -0.002489 0.010914 -0.002795 0.000000 0.000000 0.000000
# 3 -0.002934 -0.002795 0.010104 0.000000 0.000000 0.000000
# 4 0.000000 0.000000 0.000000 0.130443 0.000000 0.000000
# 5 0.000000 0.000000 0.000000 0.000000 0.064526 0.000000
# 6 0.000000 0.000000 0.000000 0.000000 0.000000 -0.070900
#
#
# Mechanical properties :
#
#
# Convention : Reuss Voigt Hill
#
# Bulk Modulus (GPa) = 55.61396 57.03733 56.32565
# Shear Modulus (GPa) = 27.63654 16.11361 21.87507
#
# Velocity S-wave (km/s) = 3.72033 2.84077 3.30990
# Velocity P-wave (km/s) = 6.80492 6.27099 6.54340
#
# Compressibility (1/GPa) = 0.01798110
#
# Stress axis : x y z
#
# Youngs Moduli (GPa) = 74.62574 91.62251 98.96590
#
# Poissons Ratio (x) = 0.22809 0.29037
# Poissons Ratio (y) = 0.18578 0.27665
# Poissons Ratio (z) = 0.21896 0.25612
#
# Static dielectric constant tensor:
#      x y z
#    x 1.674400 0.000000 0.000000 
#    y 0.000000 1.710190 0.000000 
#    z 0.000000 0.000000 1.763330 
# 
# From -- ./inp_files/53969.got.cif
#   From: 2010.05.17/outbox.cif.g08.bks.cpg/sg71_27_cif.got.tgz:53969.got - 2010.06.03 16:22:01.
