data_PCOD9520232
_publ_section_title
;
Structure prediction by ZEFSAII (Michael W. Deem and Ramdas Pophale) SiO2 
 PCOD9520232
Probable space group: I M M M
;
_chemical_formula_sum "Si O2"
_cell_formula_units_Z 72
_cell_length_a 14.864929
_cell_length_b 24.589558
_cell_length_c 9.805086
_cell_angle_alpha 90.000000
_cell_angle_beta 90.000000
_cell_angle_gamma 90.000000
_cell_volume 3583.974976
_symmetry_space_group_name_H-M "I M M M"
_symmetry_group_IT_number 71
_symmetry_cell_setting 'orthorhombic'
loop_
_space_group_symop_operation_xyz
x,y,z
-x,-y,z
x,-y,-z
-x,y,-z
-x,-y,-z
x,y,-z
-x,y,z
x,-y,z
1/2+x,1/2+y,1/2+z
1/2-x,1/2-y,1/2+z
1/2+x,1/2-y,1/2-z
1/2-x,1/2+y,1/2-z
1/2-x,1/2-y,1/2-z
1/2+x,1/2+y,1/2-z
1/2-x,1/2+y,1/2+z
1/2+x,1/2-y,1/2+z
loop_
_atom_site_type_symbol
_atom_site_label
_atom_site_fract_x
_atom_site_fract_y
_atom_site_fract_z
Si Si1 0.659976 0.939529 0.158179
Si Si2 0.500000 0.735192 0.230890
Si Si3 0.000000 0.115030 0.160999
Si Si4 0.000000 0.354847 0.335925
Si Si5 0.175538 0.909646 0.340544
Si Si6 0.197791 0.783440 0.641738
O O1 0.587429 0.892548 0.188272
O O2 0.744378 0.938677 0.259937
O O3 0.618154 0.000000 0.165532
O O4 0.689841 0.931584 0.000000
O O5 0.500000 0.681949 0.330404
O O6 0.500000 0.800388 0.256794
O O7 0.408025 0.726821 0.150312
O O8 0.086031 0.092728 0.246419
O O9 0.000000 0.100209 0.000000
O O10 0.000000 0.340561 0.500000
O O11 0.160076 0.926581 0.500000
O O12 0.208693 0.847342 0.346359
O O13 0.235133 0.763336 0.500000
O O14 0.250000 0.750000 0.750000
#
# Coordination Sequence:
#
# PCOD9520232 Si02
#       6
#    16   8   8   8  16  16
#     4  10  21  38  60  85 113 149 197 248 292 336
#     4  10  20  33  53  82 117 152 184 221 275 336
#     4  10  21  38  61  88 118 151 188 232 282 341
#     4  10  19  34  58  86 117 155 197 241 287 334
#     4  10  21  37  57  82 114 150 187 232 289 347
#     4  10  20  33  51  77 110 147 186 227 274 332
#
# _framework density 20.089426
#
# number of rings (size 3 to 8) (size 9 to 14) (size 15 to 20)
#    0.000    2.000    0.000    3.667    0.000   11.556 
#    0.000    2.222    0.000    4.667    0.000    0.000 
#    0.000    0.000    0.000    0.000    0.000    0.000 
#
# Total GULP energy -200540.937167 kJ/mol
# GULP energy per Si atom -5570.581588 kJ/mol
# Density = 2.004370 g / cm^3
# Si number density = 20.089426 Si / 1000 Ang^3
#
#
#
# Elastic Constant Matrix: (Units=GPa)
#
#
# Indices 1 2 3 4 5 6 
#
# 1 85.2217 32.8365 53.8804 0.0000 0.0000 0.0000
# 2 32.8365 76.4904 16.2882 0.0001 0.0000 0.0000
# 3 53.8804 16.2882 134.0148 0.0003 -0.0001 0.0001
# 4 0.0000 0.0001 0.0003 12.9921 0.0000 0.0000
# 5 0.0000 0.0000 -0.0001 0.0000 22.2251 0.0000
# 6 0.0000 0.0000 0.0001 0.0000 0.0000 21.7691
#
#
#
# Elastic Compliance Matrix: (Units=1/GPa)
#
#
# Indices 1 2 3 4 5 6 
#
# 1 0.018421 -0.006499 -0.006616 0.000000 0.000000 0.000000
# 2 -0.006499 0.015714 0.000703 0.000000 0.000000 0.000000
# 3 -0.006616 0.000703 0.010037 0.000000 0.000000 0.000000
# 4 0.000000 0.000000 0.000000 0.076970 0.000000 0.000000
# 5 0.000000 0.000000 0.000000 0.000000 0.044994 0.000000
# 6 0.000000 0.000000 0.000000 0.000000 0.000000 0.045937
#
#
# Mechanical properties :
#
#
# Convention : Reuss Voigt Hill
#
# Bulk Modulus (GPa) = 51.68796 55.74856 53.71826
# Shear Modulus (GPa) = 20.54685 24.24538 22.39611
#
# Velocity S-wave (km/s) = 3.20155 3.47778 3.34252
# Velocity P-wave (km/s) = 6.28103 6.62850 6.45710
#
# Compressibility (1/GPa) = 0.01934686
#
# Stress axis : x y z
#
# Youngs Moduli (GPa) = 54.28466 63.63822 99.63626
#
# Poissons Ratio (x) = 0.41360 0.65923
# Poissons Ratio (y) = 0.35281 -0.07006
# Poissons Ratio (z) = 0.35917 -0.04475
#
# Static dielectric constant tensor:
#      x y z
#    x 1.677660 0.000000 0.000000 
#    y 0.000000 1.774090 0.000000 
#    z 0.000000 0.000000 1.719450 
# 
# From -- ./inp_files/6192.got.cif
#   From: 2010.05.17/outbox.cif.g08.bks.cpg/sg71_4_cif.got.tgz:6192.got - 2010.06.03 16:22:01.
