data_PCOD9520273
_publ_section_title
;
Structure prediction by ZEFSAII (Michael W. Deem and Ramdas Pophale) SiO2 
 PCOD9520273
Probable space group: I M M M
;
_chemical_formula_sum "Si O2"
_cell_formula_units_Z 92
_cell_length_a 7.775976
_cell_length_b 28.926781
_cell_length_c 25.102516
_cell_angle_alpha 90.000000
_cell_angle_beta 90.000000
_cell_angle_gamma 90.000000
_cell_volume 5646.408200
_symmetry_space_group_name_H-M "I M M M"
_symmetry_group_IT_number 71
_symmetry_cell_setting 'orthorhombic'
loop_
_space_group_symop_operation_xyz
x,y,z
-x,-y,z
x,-y,-z
-x,y,-z
-x,-y,-z
x,y,-z
-x,y,z
x,-y,z
1/2+x,1/2+y,1/2+z
1/2-x,1/2-y,1/2+z
1/2+x,1/2-y,1/2-z
1/2-x,1/2+y,1/2-z
1/2-x,1/2-y,1/2-z
1/2+x,1/2+y,1/2-z
1/2-x,1/2+y,1/2+z
1/2+x,1/2-y,1/2+z
loop_
_atom_site_type_symbol
_atom_site_label
_atom_site_fract_x
_atom_site_fract_y
_atom_site_fract_z
Si Si1 0.793606 0.053998 0.000000
Si Si2 0.201098 0.387993 0.398104
Si Si3 0.000000 0.500000 0.272143
Si Si4 0.204498 0.248165 0.169228
Si Si5 0.798690 0.672548 0.247243
Si Si6 0.808954 0.924874 0.214598
Si Si7 0.292635 0.211564 0.060252
O O1 0.718390 0.077826 0.947758
O O2 0.000000 0.060061 0.000000
O O3 0.754620 0.000000 0.000000
O O4 0.293492 0.409040 0.347148
O O5 0.268388 0.338587 0.418831
O O6 0.000000 0.382601 0.383656
O O7 0.153102 0.540366 0.273894
O O8 0.268141 0.293441 0.200747
O O9 0.280299 0.203113 0.198862
O O10 0.243176 0.246859 0.106758
O O11 0.000000 0.245771 0.177215
O O12 0.710922 0.623289 0.253391
O O13 0.000000 0.664134 0.238255
O O14 0.000000 0.943994 0.223937
O O15 0.500000 0.209447 0.058049
O O16 0.231021 0.220433 0.000000
#
# Coordination Sequence:
#
# PCOD9520273 Si02
#       7
#     8  16   4  16  16  16  16
#     4  11  25  37  47  65  87 123 181 235 278 328
#     4  11  21  37  52  69  96 134 175 226 283 323
#     4  12  26  44  56  79 106 144 177 234 282 326
#     4  10  20  31  52  81 106 137 178 221 272 332
#     4  10  19  35  53  77 110 139 173 225 276 327
#     4  12  24  39  59  79 104 138 182 226 277 331
#     4  10  20  34  50  70 101 140 179 220 272 330
#
# _framework density 16.293543
#
# number of rings (size 3 to 8) (size 9 to 14) (size 15 to 20)
#    0.000    1.304    4.348    2.087    1.217    3.826 
#    0.000    0.000    0.000    0.000    0.000    0.000 
#    0.000    0.000    0.000    1.565    0.000    6.609 
#
# Total GULP energy -256351.157072 kJ/mol
# GULP energy per Si atom -5572.851241 kJ/mol
# Density = 1.625646 g / cm^3
# Si number density = 16.293543 Si / 1000 Ang^3
#
#
#
# Elastic Constant Matrix: (Units=GPa)
#
#
# Indices 1 2 3 4 5 6 
#
# 1 88.2645 33.5998 11.1758 0.0000 0.0000 0.0000
# 2 33.5998 95.8923 46.4321 0.0000 0.0000 0.0000
# 3 11.1758 46.4321 65.2580 0.0000 0.0000 0.0000
# 4 0.0000 0.0000 0.0000 -20.1673 0.0000 0.0000
# 5 0.0000 0.0000 0.0000 0.0000 17.2444 0.0000
# 6 0.0000 0.0000 0.0000 0.0000 0.0000 18.4893
#
#
#
# Elastic Compliance Matrix: (Units=1/GPa)
#
#
# Indices 1 2 3 4 5 6 
#
# 1 0.013178 -0.005377 0.001569 0.000000 0.000000 0.000000
# 2 -0.005377 0.018104 -0.011960 0.000000 0.000000 0.000000
# 3 0.001569 -0.011960 0.023565 0.000000 0.000000 0.000000
# 4 0.000000 0.000000 0.000000 -0.049585 0.000000 0.000000
# 5 0.000000 0.000000 0.000000 0.000000 0.057990 0.000000
# 6 0.000000 0.000000 0.000000 0.000000 0.000000 0.054085
#
#
# Mechanical properties :
#
#
# Convention : Reuss Voigt Hill
#
# Bulk Modulus (GPa) = 42.89992 47.98111 45.44052
# Shear Modulus (GPa) = 31.91968 13.66042 22.79005
#
# Velocity S-wave (km/s) = 4.43090 2.89865 3.74400
# Velocity P-wave (km/s) = 7.25009 6.38081 6.82929
#
# Compressibility (1/GPa) = 0.02331007
#
# Stress axis : x y z
#
# Youngs Moduli (GPa) = 75.88486 55.23707 42.43588
#
# Poissons Ratio (x) = 0.29702 -0.06659
# Poissons Ratio (y) = 0.40805 0.50754
# Poissons Ratio (z) = -0.11908 0.66065
#
# Static dielectric constant tensor:
#      x y z
#    x 1.596290 0.000000 0.000000 
#    y 0.000000 1.545150 0.000000 
#    z 0.000000 0.000000 1.550300 
# 
# From -- ./inp_files/57919.got.cif
#   From: 2010.05.17/outbox.cif.g08.bks.cpg/sg71_29_cif.got.tgz:57919.got - 2010.06.03 16:22:01.
