data_PCOD9520116
_publ_section_title
;
Structure prediction by ZEFSAII (Michael W. Deem and Ramdas Pophale) SiO2 
 PCOD9520116
Probable space group: I M M M
;
_chemical_formula_sum "Si O2"
_cell_formula_units_Z 104
_cell_length_a 14.706899
_cell_length_b 16.081396
_cell_length_c 25.800996
_cell_angle_alpha 90.000000
_cell_angle_beta 90.000000
_cell_angle_gamma 90.000000
_cell_volume 6102.128204
_symmetry_space_group_name_H-M "I M M M"
_symmetry_group_IT_number 71
_symmetry_cell_setting 'orthorhombic'
loop_
_space_group_symop_operation_xyz
x,y,z
-x,-y,z
x,-y,-z
-x,y,-z
-x,-y,-z
x,y,-z
-x,y,z
x,-y,z
1/2+x,1/2+y,1/2+z
1/2-x,1/2-y,1/2+z
1/2+x,1/2-y,1/2-z
1/2-x,1/2+y,1/2-z
1/2-x,1/2-y,1/2-z
1/2+x,1/2+y,1/2-z
1/2-x,1/2+y,1/2+z
1/2+x,1/2-y,1/2+z
loop_
_atom_site_type_symbol
_atom_site_label
_atom_site_fract_x
_atom_site_fract_y
_atom_site_fract_z
Si Si1 0.610095 0.094640 0.500000
Si Si2 0.604229 0.099841 0.939012
Si Si3 0.607338 0.186457 0.394131
Si Si4 0.668768 0.408254 0.733912
Si Si5 0.746476 0.819658 0.860777
Si Si6 0.140143 0.593625 0.788429
Si Si7 0.098103 0.253178 0.285172
O O1 0.500000 0.090571 0.500000
O O2 0.635107 0.143265 0.447916
O O3 0.644468 0.000000 0.500000
O O4 0.500000 0.122961 0.924609
O O5 0.680257 0.142201 0.903833
O O6 0.610833 0.000000 0.933337
O O7 0.616409 0.119116 0.000000
O O8 0.500000 0.208254 0.396154
O O9 0.671659 0.264842 0.383040
O O10 0.621222 0.122216 0.346761
O O11 0.626189 0.500000 0.734915
O O12 0.711770 0.388898 0.677657
O O13 0.753294 0.408272 0.773972
O O14 0.609858 0.328947 0.750321
O O15 0.682078 0.762952 0.824095
O O16 0.105889 0.500000 0.778835
O O17 0.101330 0.665387 0.751286
O O18 0.000000 0.250231 0.311735
#
# Coordination Sequence:
#
# PCOD9520116 Si02
#       7
#     8  16  16  16  16  16  16
#     4   9  20  36  52  76 104 133 172 220 276 329
#     4   9  19  36  58  84 110 138 177 223 274 328
#     4  11  21  34  54  78 109 142 178 221 266 320
#     4  10  20  35  52  74 107 146 183 220 263 317
#     4  11  20  35  53  82 111 142 177 225 272 318
#     4  10  19  34  55  78 106 140 177 222 274 320
#     4  11  21  35  52  78 112 143 180 224 268 323
#
# _framework density 17.043234000000002
#
# number of rings (size 3 to 8) (size 9 to 14) (size 15 to 20)
#    0.000    1.769    3.077    3.231    1.077    2.769 
#    0.000    0.000    0.000    1.385    0.000    1.077 
#    0.000    1.231    0.000    0.000    0.000    0.000 
#
# Total GULP energy -290012.166551 kJ/mol
# GULP energy per Si atom -5577.157049 kJ/mol
# Density = 1.700444 g / cm^3
# Si number density = 17.043234 Si / 1000 Ang^3
#
#
#
# Elastic Constant Matrix: (Units=GPa)
#
#
# Indices 1 2 3 4 5 6 
#
# 1 75.2497 48.2949 44.5402 0.0000 0.0000 0.0000
# 2 48.2949 120.6998 44.8025 0.0000 0.0000 0.0000
# 3 44.5402 44.8025 100.7930 0.0000 0.0000 0.0000
# 4 0.0000 0.0000 0.0000 21.8267 0.0000 0.0000
# 5 0.0000 0.0000 0.0000 0.0000 10.3463 0.0000
# 6 0.0000 0.0000 0.0000 0.0000 0.0000 5.5091
#
#
#
# Elastic Compliance Matrix: (Units=1/GPa)
#
#
# Indices 1 2 3 4 5 6 
#
# 1 0.021048 -0.005951 -0.006656 0.000000 0.000000 0.000000
# 2 -0.005951 0.011605 -0.002528 0.000000 0.000000 0.000000
# 3 -0.006656 -0.002528 0.013986 0.000000 0.000000 0.000000
# 4 0.000000 0.000000 0.000000 0.045815 0.000000 0.000000
# 5 0.000000 0.000000 0.000000 0.000000 0.096652 0.000000
# 6 0.000000 0.000000 0.000000 0.000000 0.000000 0.181519
#
#
# Mechanical properties :
#
#
# Convention : Reuss Voigt Hill
#
# Bulk Modulus (GPa) = 61.09386 63.55752 62.32569
# Shear Modulus (GPa) = 12.30457 18.14341 15.22399
#
# Velocity S-wave (km/s) = 2.68985 3.26629 2.99198
# Velocity P-wave (km/s) = 6.75065 7.18316 6.97026
#
# Compressibility (1/GPa) = 0.01636826
#
# Stress axis : x y z
#
# Youngs Moduli (GPa) = 47.51005 86.17109 71.49792
#
# Poissons Ratio (x) = 0.51283 0.47588
# Poissons Ratio (y) = 0.28275 0.18078
# Poissons Ratio (z) = 0.31622 0.21788
#
# Static dielectric constant tensor:
#      x y z
#    x 1.581910 0.000000 0.000000 
#    y 0.000000 1.581580 0.000000 
#    z 0.000000 0.000000 1.565550 
# 
# From -- ./inp_files/59911.got.cif
#   From: 2010.05.17/outbox.cif.g08.bks.cpg/sg71_30_cif.got.tgz:59911.got - 2010.06.03 16:22:01.
