data_PCOD9520680
_publ_section_title
;
Structure prediction by ZEFSAII (Michael W. Deem and Ramdas Pophale) SiO2 
 PCOD9520680
Probable space group: I M M M
;
_chemical_formula_sum "Si O2"
_cell_formula_units_Z 88
_cell_length_a 31.286579
_cell_length_b 20.377135
_cell_length_c 8.677547
_cell_angle_alpha 90.000000
_cell_angle_beta 90.000000
_cell_angle_gamma 90.000000
_cell_volume 5532.203863
_symmetry_space_group_name_H-M "I M M M"
_symmetry_group_IT_number 71
_symmetry_cell_setting 'orthorhombic'
loop_
_space_group_symop_operation_xyz
x,y,z
-x,-y,z
x,-y,-z
-x,y,-z
-x,-y,-z
x,y,-z
-x,y,z
x,-y,z
1/2+x,1/2+y,1/2+z
1/2-x,1/2-y,1/2+z
1/2+x,1/2-y,1/2-z
1/2-x,1/2+y,1/2-z
1/2-x,1/2-y,1/2-z
1/2+x,1/2+y,1/2-z
1/2-x,1/2+y,1/2+z
1/2+x,1/2-y,1/2+z
loop_
_atom_site_type_symbol
_atom_site_label
_atom_site_fract_x
_atom_site_fract_y
_atom_site_fract_z
Si Si1 0.551883 0.500000 0.676216
Si Si2 0.292811 0.784710 0.683859
Si Si3 0.130296 0.798411 0.319482
Si Si4 0.549206 0.354492 0.686452
Si Si5 0.670620 0.574030 0.681118
Si Si6 0.264508 0.072337 0.316619
O O1 0.500000 0.500000 0.667513
O O2 0.568338 0.500000 0.500000
O O3 0.561849 0.428309 0.743433
O O4 0.291841 0.776326 0.500000
O O5 0.250000 0.750000 0.750000
O O6 0.335543 0.751648 0.748123
O O7 0.290811 0.862360 0.719851
O O8 0.127277 0.787405 0.500000
O O9 0.083283 0.802180 0.245581
O O10 0.149785 0.869941 0.282268
O O11 0.550584 0.356991 0.500000
O O12 0.500000 0.341905 0.731350
O O13 0.663701 0.587992 0.500000
O O14 0.655074 0.500000 0.713267
O O15 0.720881 0.575050 0.720002
O O16 0.253762 0.075918 0.500000
O O17 0.284220 0.000000 0.290347
#
# Coordination Sequence:
#
# PCOD9520680 Si02
#       6
#     8  16  16  16  16  16
#     4   7  12  26  49  71  89 115 153 201 253 295
#     4  11  21  34  52  73 100 131 165 203 245 295
#     4  12  24  34  47  69  99 134 167 204 247 293
#     4   9  18  34  53  71  92 121 162 209 253 296
#     4  10  20  32  47  67  92 126 169 211 248 291
#     4   9  18  33  52  72  95 124 159 204 253 293
#
# _framework density 15.906860999999999
#
# number of rings (size 3 to 8) (size 9 to 14) (size 15 to 20)
#    0.000    2.091    1.818    3.818    1.273    2.182 
#    0.000    0.000    0.000    1.636    0.000    0.000 
#    0.000    0.727    0.000    8.364    0.000    2.364 
#
# Total GULP energy -245398.251502 kJ/mol
# GULP energy per Si atom -5577.232989 kJ/mol
# Density = 1.587066 g / cm^3
# Si number density = 15.906861 Si / 1000 Ang^3
#
#
#
# Elastic Constant Matrix: (Units=GPa)
#
#
# Indices 1 2 3 4 5 6 
#
# 1 105.7030 60.0200 31.2517 0.0000 0.0000 0.0000
# 2 60.0200 92.7177 29.7372 0.0000 0.0000 0.0000
# 3 31.2517 29.7372 40.5982 0.0000 0.0000 0.0000
# 4 0.0000 0.0000 0.0000 14.9934 0.0000 0.0000
# 5 0.0000 0.0000 0.0000 0.0000 20.8843 0.0000
# 6 0.0000 0.0000 0.0000 0.0000 0.0000 31.1772
#
#
#
# Elastic Compliance Matrix: (Units=1/GPa)
#
#
# Indices 1 2 3 4 5 6 
#
# 1 0.016074 -0.008413 -0.006211 0.000000 0.000000 0.000000
# 2 -0.008413 0.018501 -0.007075 0.000000 0.000000 0.000000
# 3 -0.006211 -0.007075 0.034595 0.000000 0.000000 0.000000
# 4 0.000000 0.000000 0.000000 0.066696 0.000000 0.000000
# 5 0.000000 0.000000 0.000000 0.000000 0.047883 0.000000
# 6 0.000000 0.000000 0.000000 0.000000 0.000000 0.032075
#
#
# Mechanical properties :
#
#
# Convention : Reuss Voigt Hill
#
# Bulk Modulus (GPa) = 38.80282 53.44853 46.12567
# Shear Modulus (GPa) = 18.66977 21.27830 19.97403
#
# Velocity S-wave (km/s) = 3.42964 3.66140 3.54741
# Velocity P-wave (km/s) = 6.33482 7.17972 6.77046
#
# Compressibility (1/GPa) = 0.02577133
#
# Stress axis : x y z
#
# Youngs Moduli (GPa) = 62.21224 54.05138 28.90593
#
# Poissons Ratio (x) = 0.45475 0.17953
# Poissons Ratio (y) = 0.52341 0.20451
# Poissons Ratio (z) = 0.38639 0.38242
#
# Static dielectric constant tensor:
#      x y z
#    x 1.553020 0.000000 0.000000 
#    y 0.000000 1.551180 0.000000 
#    z 0.000000 0.000000 1.534390 
# 
# From -- ./inp_files/16634.got.cif
#   From: 2010.05.17/outbox.cif.g08.bks.cpg/sg71_9_cif.got.tgz:16634.got - 2010.06.03 16:22:01.
