data_PCOD9520650
_publ_section_title
;
Structure prediction by ZEFSAII (Michael W. Deem and Ramdas Pophale) SiO2 
 PCOD9520650
Probable space group: I M M M
;
_chemical_formula_sum "Si O2"
_cell_formula_units_Z 80
_cell_length_a 8.052901
_cell_length_b 26.359165
_cell_length_c 20.197761
_cell_angle_alpha 90.000000
_cell_angle_beta 90.000000
_cell_angle_gamma 90.000000
_cell_volume 4287.333206
_symmetry_space_group_name_H-M "I M M M"
_symmetry_group_IT_number 71
_symmetry_cell_setting 'orthorhombic'
loop_
_space_group_symop_operation_xyz
x,y,z
-x,-y,z
x,-y,-z
-x,y,-z
-x,-y,-z
x,y,-z
-x,y,z
x,-y,z
1/2+x,1/2+y,1/2+z
1/2-x,1/2-y,1/2+z
1/2+x,1/2-y,1/2-z
1/2-x,1/2+y,1/2-z
1/2-x,1/2-y,1/2-z
1/2+x,1/2+y,1/2-z
1/2-x,1/2+y,1/2+z
1/2+x,1/2-y,1/2+z
loop_
_atom_site_type_symbol
_atom_site_label
_atom_site_fract_x
_atom_site_fract_y
_atom_site_fract_z
Si Si1 0.697482 0.333640 0.754988
Si Si2 0.304243 0.444558 0.239066
Si Si3 0.184549 0.262625 0.500000
Si Si4 0.802397 0.755648 0.148566
Si Si5 0.685800 0.368887 0.500000
Si Si6 0.196656 0.556982 0.389793
O O1 0.500000 0.341234 0.746618
O O2 0.766293 0.388570 0.777801
O O3 0.727927 0.291089 0.810290
O O4 0.758707 0.307543 0.685873
O O5 0.500000 0.445429 0.222127
O O6 0.234524 0.500000 0.216718
O O7 0.279886 0.443705 0.318172
O O8 0.265199 0.250396 0.570967
O O9 0.186271 0.323488 0.500000
O O10 0.000000 0.241234 0.500000
O O11 0.000000 0.754688 0.157601
O O12 0.500000 0.347021 0.500000
O O13 0.714681 0.403498 0.436636
O O14 0.210621 0.500000 0.417570
O O15 0.000000 0.568201 0.383684
#
# Coordination Sequence:
#
# PCOD9520650 Si02
#       6
#    16  16   8  16   8  16
#     4   9  18  33  52  75 103 135 171 210 252 299
#     4   9  17  30  49  72  98 129 165 205 248 295
#     4  12  24  37  53  74 101 130 164 208 257 305
#     4  10  20  34  53  76 103 135 171 210 252 302
#     4  12  23  33  46  63  88 125 167 206 245 294
#     4  10  20  32  45  64  92 126 166 209 249 289
#
# _framework density 18.659617999999998
#
# number of rings (size 3 to 8) (size 9 to 14) (size 15 to 20)
#    0.000    2.000    0.000    4.500    0.000    5.600 
#    0.000    0.000    0.000    0.000    0.000    0.700 
#    0.000    5.600    0.000    0.000    0.000    0.000 
#
# Total GULP energy -222891.708676 kJ/mol
# GULP energy per Si atom -5572.292717 kJ/mol
# Density = 1.861715 g / cm^3
# Si number density = 18.659618 Si / 1000 Ang^3
#
#
#
# Elastic Constant Matrix: (Units=GPa)
#
#
# Indices 1 2 3 4 5 6 
#
# 1 21.3136 1.3364 -10.1235 0.0000 0.0000 0.0000
# 2 1.3364 127.0931 22.3017 0.0000 0.0000 0.0000
# 3 -10.1235 22.3017 59.4827 -0.0001 0.0000 0.0000
# 4 0.0000 0.0000 -0.0001 -108.2812 0.0001 0.0000
# 5 0.0000 0.0000 0.0000 0.0001 17.8209 0.0000
# 6 0.0000 0.0000 0.0000 0.0000 0.0000 16.7153
#
#
#
# Elastic Compliance Matrix: (Units=1/GPa)
#
#
# Indices 1 2 3 4 5 6 
#
# 1 0.051629 -0.002232 0.009624 0.000000 0.000000 0.000000
# 2 -0.002232 0.008519 -0.003574 0.000000 0.000000 0.000000
# 3 0.009624 -0.003574 0.019789 0.000000 0.000000 0.000000
# 4 0.000000 0.000000 0.000000 -0.009235 0.000000 0.000000
# 5 0.000000 0.000000 0.000000 0.000000 0.056114 0.000000
# 6 0.000000 0.000000 0.000000 0.000000 0.000000 0.059825
#
#
# Mechanical properties :
#
#
# Convention : Reuss Voigt Hill
#
# Bulk Modulus (GPa) = 11.41890 26.10205 18.76047
# Shear Modulus (GPa) = 24.01579 -1.79068 11.11255
#
# Velocity S-wave (km/s) = 3.59143 -0.98068 2.44302
# Velocity P-wave (km/s) = 4.83019 3.56883 4.24660
#
# Compressibility (1/GPa) = 0.08757412
#
# Stress axis : x y z
#
# Youngs Moduli (GPa) = 19.36884 117.38721 50.53217
#
# Poissons Ratio (x) = 0.26196 -0.48630
# Poissons Ratio (y) = 0.04322 0.18059
# Poissons Ratio (z) = -0.18640 0.41951
#
# Static dielectric constant tensor:
#      x y z
#    x 1.664600 0.000000 0.000000 
#    y 0.000000 1.715690 0.000000 
#    z 0.000000 0.000000 1.620270 
# 
# From -- ./inp_files/14606.got.cif
#   From: 2010.05.17/outbox.cif.g08.bks.cpg/sg71_8_cif.got.tgz:14606.got - 2010.06.03 16:22:01.
