data_PCOD9520108
_publ_section_title
;
Structure prediction by ZEFSAII (Michael W. Deem and Ramdas Pophale) SiO2 
 PCOD9520108
Probable space group: I M M M
;
_chemical_formula_sum "Si O2"
_cell_formula_units_Z 104
_cell_length_a 26.024752
_cell_length_b 26.636347
_cell_length_c 7.805816
_cell_angle_alpha 90.000000
_cell_angle_beta 90.000000
_cell_angle_gamma 90.000000
_cell_volume 5411.025410
_symmetry_space_group_name_H-M "I M M M"
_symmetry_group_IT_number 71
_symmetry_cell_setting 'orthorhombic'
loop_
_space_group_symop_operation_xyz
x,y,z
-x,-y,z
x,-y,-z
-x,y,-z
-x,-y,-z
x,y,-z
-x,y,z
x,-y,z
1/2+x,1/2+y,1/2+z
1/2-x,1/2-y,1/2+z
1/2+x,1/2-y,1/2-z
1/2-x,1/2+y,1/2-z
1/2-x,1/2-y,1/2-z
1/2+x,1/2+y,1/2-z
1/2-x,1/2+y,1/2+z
1/2+x,1/2-y,1/2+z
loop_
_atom_site_type_symbol
_atom_site_label
_atom_site_fract_x
_atom_site_fract_y
_atom_site_fract_z
Si Si1 0.812037 0.314705 0.699744
Si Si2 0.399753 0.340662 0.696381
Si Si3 0.939178 0.500000 0.710167
Si Si4 0.000000 0.781818 0.209133
Si Si5 0.103389 0.607144 0.297489
Si Si6 0.000000 0.334355 0.206635
Si Si7 0.797457 0.797494 0.303385
Si Si8 0.939209 0.055115 0.294303
O O1 0.826847 0.310553 0.500000
O O2 0.849717 0.357877 0.772522
O O3 0.813660 0.257402 0.770551
O O4 0.750977 0.323972 0.714454
O O5 0.391802 0.324731 0.500000
O O6 0.448765 0.310310 0.767215
O O7 0.348157 0.329913 0.795798
O O8 0.412674 0.398904 0.704494
O O9 0.939728 0.500000 0.500000
O O10 0.910101 0.550967 0.768469
O O11 0.000000 0.500000 0.761244
O O12 0.000000 0.723868 0.259168
O O13 0.000000 0.784545 0.000000
O O14 0.113475 0.600416 0.500000
O O15 0.051050 0.638485 0.272756
O O16 0.000000 0.336601 0.000000
O O17 0.781616 0.789277 0.500000
O O18 0.933382 0.059858 0.500000
O O19 0.000000 0.057741 0.258222
O O20 0.920634 0.000000 0.243011
#
# Coordination Sequence:
#
# PCOD9520108 Si02
#       8
#    16  16   8   8  16   8  16  16
#     4   9  19  35  55  78 101 133 177 221 262 316
#     4  11  20  33  52  75 105 138 175 215 256 307
#     4   9  16  30  54  80 106 138 172 209 260 311
#     4   9  20  33  45  71 109 143 169 206 259 308
#     4  10  19  34  55  77 103 135 175 216 259 310
#     4  11  21  32  48  74 109 142 171 204 255 310
#     4  10  20  34  53  77 105 136 173 215 270 323
#     4   9  18  33  52  74 101 133 168 207 254 305
#
# _framework density 19.220016999999999
#
# number of rings (size 3 to 8) (size 9 to 14) (size 15 to 20)
#    0.000    2.231    1.538    2.538    0.000    1.538 
#    0.000    3.846    1.692    0.000    0.000    0.000 
#    0.000    0.000    0.000    0.000    0.000    0.000 
#
# Total GULP energy -289910.877863 kJ/mol
# GULP energy per Si atom -5575.209190 kJ/mol
# Density = 1.917627 g / cm^3
# Si number density = 19.220017 Si / 1000 Ang^3
#
#
#
# Elastic Constant Matrix: (Units=GPa)
#
#
# Indices 1 2 3 4 5 6 
#
# 1 114.7278 76.2116 2.1149 0.0000 0.0000 0.0000
# 2 76.2116 143.5133 6.5267 0.0000 0.0000 0.0000
# 3 2.1149 6.5267 24.0879 0.0000 0.0000 0.0000
# 4 0.0000 0.0000 0.0000 16.5951 0.0000 0.0000
# 5 0.0000 0.0000 0.0000 0.0000 -37.8436 0.0000
# 6 0.0000 0.0000 0.0000 0.0000 0.0000 9.7320
#
#
#
# Elastic Compliance Matrix: (Units=1/GPa)
#
#
# Indices 1 2 3 4 5 6 
#
# 1 0.013481 -0.007194 0.000766 0.000000 0.000000 0.000000
# 2 -0.007194 0.010894 -0.002320 0.000000 0.000000 0.000000
# 3 0.000766 -0.002320 0.042076 0.000000 0.000000 0.000000
# 4 0.000000 0.000000 0.000000 0.060259 0.000000 0.000000
# 5 0.000000 0.000000 0.000000 0.000000 -0.026425 0.000000
# 6 0.000000 0.000000 0.000000 0.000000 0.000000 0.102754
#
#
# Mechanical properties :
#
#
# Convention : Reuss Voigt Hill
#
# Bulk Modulus (GPa) = 20.42726 50.22613 35.32670
# Shear Modulus (GPa) = 21.11012 10.86175 15.98594
#
# Velocity S-wave (km/s) = 3.31772 2.37982 2.88711
# Velocity P-wave (km/s) = 5.03265 5.80864 5.43451
#
# Compressibility (1/GPa) = 0.04895418
#
# Stress axis : x y z
#
# Youngs Moduli (GPa) = 74.17950 91.79652 23.76645
#
# Poissons Ratio (x) = 0.66036 -0.01819
# Poissons Ratio (y) = 0.53362 0.05514
# Poissons Ratio (z) = -0.05679 0.21297
#
# Static dielectric constant tensor:
#      x y z
#    x 1.653960 0.000000 0.000000 
#    y 0.000000 1.682460 0.000000 
#    z 0.000000 0.000000 1.731450 
# 
# From -- ./inp_files/15356.got.cif
#   From: 2010.05.17/outbox.cif.g08.bks.cpg/sg71_8_cif.got.tgz:15356.got - 2010.06.03 16:22:01.
