data_PCOD9520592
_publ_section_title
;
Structure prediction by ZEFSAII (Michael W. Deem and Ramdas Pophale) SiO2 
 PCOD9520592
Probable space group: I M M M
;
_chemical_formula_sum "Si O2"
_cell_formula_units_Z 96
_cell_length_a 22.293303
_cell_length_b 9.551867
_cell_length_c 21.660204
_cell_angle_alpha 90.000000
_cell_angle_beta 90.000000
_cell_angle_gamma 90.000000
_cell_volume 4612.381570
_symmetry_space_group_name_H-M "I M M M"
_symmetry_group_IT_number 71
_symmetry_cell_setting 'orthorhombic'
loop_
_space_group_symop_operation_xyz
x,y,z
-x,-y,z
x,-y,-z
-x,y,-z
-x,-y,-z
x,y,-z
-x,y,z
x,-y,z
1/2+x,1/2+y,1/2+z
1/2-x,1/2-y,1/2+z
1/2+x,1/2-y,1/2-z
1/2-x,1/2+y,1/2-z
1/2-x,1/2-y,1/2-z
1/2+x,1/2+y,1/2-z
1/2-x,1/2+y,1/2+z
1/2+x,1/2-y,1/2+z
loop_
_atom_site_type_symbol
_atom_site_label
_atom_site_fract_x
_atom_site_fract_y
_atom_site_fract_z
Si Si1 0.928884 0.330156 0.434252
Si Si2 0.242664 0.662212 0.069932
Si Si3 0.571917 0.159172 0.198171
Si Si4 0.259258 0.340290 0.687704
Si Si5 0.096330 0.339210 0.930709
Si Si6 0.097247 0.156853 0.183260
O O1 0.903038 0.281247 0.500000
O O2 0.924918 0.500000 0.432979
O O3 0.904940 0.284088 0.367822
O O4 0.000000 0.296620 0.435791
O O5 0.260990 0.500000 0.079450
O O6 0.263212 0.760487 0.126131
O O7 0.169448 0.662222 0.070529
O O8 0.259823 0.705792 0.000000
O O9 0.500000 0.151037 0.192308
O O10 0.585302 0.256522 0.255251
O O11 0.593501 0.000000 0.208799
O O12 0.236080 0.500000 0.693430
O O13 0.250000 0.250000 0.750000
O O14 0.330758 0.350588 0.678619
O O15 0.078024 0.500000 0.919850
O O16 0.074631 0.239300 0.876647
O O17 0.078093 0.298275 0.000000
O O18 0.073418 0.000000 0.186903
#
# Coordination Sequence:
#
# PCOD9520592 Si02
#       6
#    16  16  16  16  16  16
#     4   7  10  19  38  64  89 110 139 183 226 258
#     4   8  14  26  45  68  92 117 146 183 229 277
#     4   9  17  29  47  70  93 120 154 188 224 270
#     4  10  20  32  47  68  93 122 157 194 231 273
#     4   8  14  26  45  67  89 115 149 187 225 267
#     4  10  20  31  45  68  96 124 152 185 229 276
#
# _framework density 20.813542999999999
#
# number of rings (size 3 to 8) (size 9 to 14) (size 15 to 20)
#    0.000    3.333    0.000    3.500    0.000    3.000 
#    0.000    3.333    0.000    2.000    0.000   10.500 
#    0.000    0.000    0.000    0.000    0.000    0.000 
#
# Total GULP energy -267549.847395 kJ/mol
# GULP energy per Si atom -5573.955154 kJ/mol
# Density = 2.076617 g / cm^3
# Si number density = 20.813543 Si / 1000 Ang^3
#
#
#
# Elastic Constant Matrix: (Units=GPa)
#
#
# Indices 1 2 3 4 5 6 
#
# 1 56.4041 6.5022 4.1570 0.0000 0.0000 0.0000
# 2 6.5022 127.9877 137.5610 0.0000 0.0000 0.0000
# 3 4.1570 137.5610 254.8040 0.0000 0.0000 0.0000
# 4 0.0000 0.0000 0.0000 -5.6918 0.0000 0.0000
# 5 0.0000 0.0000 0.0000 0.0000 18.7288 0.0000
# 6 0.0000 0.0000 0.0000 0.0000 0.0000 10.1137
#
#
#
# Elastic Compliance Matrix: (Units=1/GPa)
#
#
# Indices 1 2 3 4 5 6 
#
# 1 0.017858 -0.001415 0.000473 0.000000 0.000000 0.000000
# 2 -0.001415 0.018726 -0.010087 0.000000 0.000000 0.000000
# 3 0.000473 -0.010087 0.009362 0.000000 0.000000 0.000000
# 4 0.000000 0.000000 0.000000 -0.175692 0.000000 0.000000
# 5 0.000000 0.000000 0.000000 0.000000 0.053394 0.000000
# 6 0.000000 0.000000 0.000000 0.000000 0.000000 0.098876
#
#
# Mechanical properties :
#
#
# Convention : Reuss Voigt Hill
#
# Bulk Modulus (GPa) = 41.86263 81.73737 61.80000
# Shear Modulus (GPa) = 95.15581 24.02851 59.59216
#
# Velocity S-wave (km/s) = 6.76886 3.40143 5.35664
# Velocity P-wave (km/s) = 9.01370 7.40154 8.24711
#
# Compressibility (1/GPa) = 0.02388765
#
# Stress axis : x y z
#
# Youngs Moduli (GPa) = 55.99883 53.40086 106.81069
#
# Poissons Ratio (x) = 0.07558 -0.05050
# Poissons Ratio (y) = 0.07926 1.07736
# Poissons Ratio (z) = -0.02647 0.53864
#
# Static dielectric constant tensor:
#      x y z
#    x 1.830870 0.000000 0.000000 
#    y 0.000000 1.720920 0.000000 
#    z 0.000000 0.000000 1.763700 
# 
# From -- ./inp_files/56148.got.cif
#   From: 2010.05.17/outbox.cif.g08.bks.cpg/sg71_29_cif.got.tgz:56148.got - 2010.06.03 16:22:01.
