data_PCOD9521346
_publ_section_title
;
Structure prediction by ZEFSAII (Michael W. Deem and Ramdas Pophale) SiO2 
 PCOD9521346
Probable space group: I M M M
;
_chemical_formula_sum "Si O2"
_cell_formula_units_Z 104
_cell_length_a 27.303967
_cell_length_b 24.263354
_cell_length_c 9.029242
_cell_angle_alpha 90.000000
_cell_angle_beta 90.000000
_cell_angle_gamma 90.000000
_cell_volume 5981.744763
_symmetry_space_group_name_H-M "I M M M"
_symmetry_group_IT_number 71
_symmetry_cell_setting 'orthorhombic'
loop_
_space_group_symop_operation_xyz
x,y,z
-x,-y,z
x,-y,-z
-x,y,-z
-x,-y,-z
x,y,-z
-x,y,z
x,-y,z
1/2+x,1/2+y,1/2+z
1/2-x,1/2-y,1/2+z
1/2+x,1/2-y,1/2-z
1/2-x,1/2+y,1/2-z
1/2-x,1/2-y,1/2-z
1/2+x,1/2+y,1/2-z
1/2-x,1/2+y,1/2+z
1/2+x,1/2-y,1/2+z
loop_
_atom_site_type_symbol
_atom_site_label
_atom_site_fract_x
_atom_site_fract_y
_atom_site_fract_z
Si Si1 0.500000 0.567090 0.170254
Si Si2 0.100150 0.934762 0.824533
Si Si3 0.942849 0.665745 0.820988
Si Si4 0.177676 0.856737 0.677685
Si Si5 0.122827 0.437717 0.820662
Si Si6 0.291571 0.857266 0.321487
Si Si7 0.140930 0.265682 0.677394
O O1 0.500000 0.500000 0.174060
O O2 0.450545 0.584999 0.251010
O O3 0.500000 0.584628 0.000000
O O4 0.145310 0.902410 0.756498
O O5 0.104938 0.000000 0.794379
O O6 0.097439 0.927122 0.000000
O O7 0.918056 0.607243 0.776000
O O8 0.909858 0.713185 0.747819
O O9 0.000000 0.668197 0.781945
O O10 0.938641 0.669795 0.000000
O O11 0.174545 0.863632 0.500000
O O12 0.234795 0.860879 0.719079
O O13 0.155715 0.796715 0.714429
O O14 0.116580 0.500000 0.764442
O O15 0.175422 0.410665 0.783405
O O16 0.120565 0.440281 0.000000
O O17 0.294784 0.849844 0.500000
O O18 0.317667 0.806037 0.242968
O O19 0.138932 0.270928 0.500000
#
# Coordination Sequence:
#
# PCOD9521346 Si02
#       7
#     8  16  16  16  16  16  16
#     4   9  17  33  57  77  97 131 169 205 248 299
#     4  10  21  36  54  78 107 137 170 210 259 313
#     4   9  18  33  52  73 100 136 174 213 260 312
#     4  10  21  35  52  77 104 136 177 216 258 310
#     4   8  14  26  47  76 104 129 163 208 254 300
#     4   9  18  33  53  75 102 136 174 214 257 309
#     4  10  20  34  52  75 102 134 173 216 265 312
#
# _framework density 17.386232
#
# number of rings (size 3 to 8) (size 9 to 14) (size 15 to 20)
#    0.000    2.692    0.000    2.538    0.000    4.923 
#    1.385    3.077    0.000    7.385    0.000    4.308 
#    0.000    0.000    0.000    0.000    0.000    0.000 
#
# Total GULP energy -289948.313571 kJ/mol
# GULP energy per Si atom -5575.929107 kJ/mol
# Density = 1.734666 g / cm^3
# Si number density = 17.386232 Si / 1000 Ang^3
#
#
#
# Elastic Constant Matrix: (Units=GPa)
#
#
# Indices 1 2 3 4 5 6 
#
# 1 190.2211 66.7573 55.6066 0.0000 0.0000 0.0000
# 2 66.7573 33.9205 34.4655 0.0000 0.0000 0.0000
# 3 55.6066 34.4655 27.0791 0.0000 0.0000 0.0000
# 4 0.0000 0.0000 0.0000 25.1125 0.0000 0.0000
# 5 0.0000 0.0000 0.0000 0.0000 23.5139 0.0000
# 6 0.0000 0.0000 0.0000 0.0000 0.0000 6.5172
#
#
#
# Elastic Compliance Matrix: (Units=1/GPa)
#
#
# Indices 1 2 3 4 5 6 
#
# 1 0.012877 -0.005201 -0.019824 0.000000 0.000000 0.000000
# 2 -0.005201 -0.098441 0.135973 0.000000 0.000000 0.000000
# 3 -0.019824 0.135973 -0.095426 0.000000 0.000000 0.000000
# 4 0.000000 0.000000 0.000000 0.039821 0.000000 0.000000
# 5 0.000000 0.000000 0.000000 0.000000 0.042528 0.000000
# 6 0.000000 0.000000 0.000000 0.000000 0.000000 0.153439
#
#
# Mechanical properties :
#
#
# Convention : Reuss Voigt Hill
#
# Bulk Modulus (GPa) = 24.44566 62.76437 43.60501
# Shear Modulus (GPa) = -32.58150 17.32148 -7.63001
#
# Velocity S-wave (km/s) = -4.33365 3.15981 -2.09716
# Velocity P-wave (km/s) = 3.30905 7.03498 4.38983
#
# Compressibility (1/GPa) = 0.04090706
#
# Stress axis : x y z
#
# Youngs Moduli (GPa) = 77.65603 -10.15841 -10.47937
#
# Poissons Ratio (x) = -0.05283 -0.20774
# Poissons Ratio (y) = 0.40389 1.42491
# Poissons Ratio (z) = 1.53942 1.38127
#
# Static dielectric constant tensor:
#      x y z
#    x 1.577300 0.000000 0.000000 
#    y 0.000000 1.582020 0.000000 
#    z 0.000000 0.000000 1.580010 
# 
# From -- ./inp_files/15280.got.cif
#   From: 2010.05.17/outbox.cif.g08.bks.cpg/sg71_8_cif.got.tgz:15280.got - 2010.06.03 16:22:01.
