data_PCOD9521739
_publ_section_title
;
Structure prediction by ZEFSAII (Michael W. Deem and Ramdas Pophale) SiO2 
 PCOD9521739
Probable space group: I M M M
;
_chemical_formula_sum "Si O2"
_cell_formula_units_Z 64
_cell_length_a 16.886691
_cell_length_b 7.668047
_cell_length_c 23.110999
_cell_angle_alpha 90.000000
_cell_angle_beta 90.000000
_cell_angle_gamma 90.000000
_cell_volume 2992.595658
_symmetry_space_group_name_H-M "I M M M"
_symmetry_group_IT_number 71
_symmetry_cell_setting 'orthorhombic'
loop_
_space_group_symop_operation_xyz
x,y,z
-x,-y,z
x,-y,-z
-x,y,-z
-x,-y,-z
x,y,-z
-x,y,z
x,-y,z
1/2+x,1/2+y,1/2+z
1/2-x,1/2-y,1/2+z
1/2+x,1/2-y,1/2-z
1/2-x,1/2+y,1/2-z
1/2-x,1/2-y,1/2-z
1/2+x,1/2+y,1/2-z
1/2-x,1/2+y,1/2+z
1/2+x,1/2-y,1/2+z
loop_
_atom_site_type_symbol
_atom_site_label
_atom_site_fract_x
_atom_site_fract_y
_atom_site_fract_z
Si Si1 0.171515 0.296615 0.382974
Si Si2 0.592200 0.213445 0.234617
Si Si3 0.653484 0.794225 0.358276
Si Si4 0.500000 0.290954 0.433768
Si Si5 0.592158 0.786296 0.000000
O O1 0.148354 0.500000 0.382289
O O2 0.136693 0.223897 0.322946
O O3 0.266027 0.285265 0.382465
O O4 0.134478 0.222510 0.441617
O O5 0.500000 0.263558 0.233686
O O6 0.632657 0.273759 0.294078
O O7 0.594292 0.000000 0.236012
O O8 0.578001 0.766288 0.399189
O O9 0.667746 0.000000 0.353617
O O10 0.500000 0.500000 0.434997
O O11 0.500000 0.226875 0.500000
O O12 0.500000 0.740188 0.000000
O O13 0.597015 0.000000 0.000000
#
# Coordination Sequence:
#
# PCOD9521739 Si02
#       5
#    16  16  16   8   8
#     4  10  20  34  57  85 116 152 195 243 282 331
#     4   9  17  33  57  83 113 152 196 240 285 334
#     4  11  22  38  59  85 118 152 189 233 289 352
#     4  11  25  43  63  85 113 148 191 240 288 343
#     4   9  18  34  57  86 113 146 195 241 280 325
#
# _framework density 21.386116000000001
#
# number of rings (size 3 to 8) (size 9 to 14) (size 15 to 20)
#    0.000    2.000    1.250    2.625    1.750    4.000 
#    0.000    1.250    0.000    3.000    0.000    0.000 
#    0.000    0.000    0.000    0.000    0.000    0.000 
#
# Total GULP energy -178849.084387 kJ/mol
# GULP energy per Si atom -5589.033887 kJ/mol
# Density = 2.133744 g / cm^3
# Si number density = 21.386116 Si / 1000 Ang^3
#
#
#
# Elastic Constant Matrix: (Units=GPa)
#
#
# Indices 1 2 3 4 5 6 
#
# 1 141.8230 -21.3888 100.3632 0.0000 0.0000 0.0000
# 2 -21.3888 38.9542 -0.5961 0.0000 0.0000 0.0000
# 3 100.3632 -0.5961 223.0388 0.0000 0.0000 0.0000
# 4 0.0000 0.0000 0.0000 -3.9927 0.0000 0.0000
# 5 0.0000 0.0000 0.0000 0.0000 8.4725 0.0000
# 6 0.0000 0.0000 0.0000 0.0000 0.0000 9.6791
#
#
#
# Elastic Compliance Matrix: (Units=1/GPa)
#
#
# Indices 1 2 3 4 5 6 
#
# 1 0.011736 0.006363 -0.005264 0.000000 0.000000 0.000000
# 2 0.006363 0.029122 -0.002786 0.000000 0.000000 0.000000
# 3 -0.005264 -0.002786 0.006845 0.000000 0.000000 0.000000
# 4 0.000000 0.000000 0.000000 -0.250455 0.000000 0.000000
# 5 0.000000 0.000000 0.000000 0.000000 0.118028 0.000000
# 6 0.000000 0.000000 0.000000 0.000000 0.000000 0.103315
#
#
# Mechanical properties :
#
#
# Convention : Reuss Voigt Hill
#
# Bulk Modulus (GPa) = 22.55774 62.28586 42.42180
# Shear Modulus (GPa) = 136.08733 24.52763 80.30748
#
# Velocity S-wave (km/s) = 7.98571 3.39026 6.13455
# Velocity P-wave (km/s) = 9.77750 6.67179 8.36996
#
# Compressibility (1/GPa) = 0.04433068
#
# Stress axis : x y z
#
# Youngs Moduli (GPa) = 85.20971 34.33778 146.09815
#
# Poissons Ratio (x) = -0.21850 0.76904
# Poissons Ratio (y) = -0.54221 0.40696
# Poissons Ratio (z) = 0.44853 0.09565
#
# Static dielectric constant tensor:
#      x y z
#    x 1.750470 0.000000 0.000000 
#    y 0.000000 1.819940 0.000000 
#    z 0.000000 0.000000 1.769940 
# 
# From -- ./inp_files/5538.got.cif
#   From: 2010.05.17/outbox.cif.g08.bks.cpg/sg71_3_cif.got.tgz:5538.got - 2010.06.03 16:22:01.
