data_PCOD9521608
_publ_section_title
;
Structure prediction by ZEFSAII (Michael W. Deem and Ramdas Pophale) SiO2 
 PCOD9521608
Probable space group: I M M M
;
_chemical_formula_sum "Si O2"
_cell_formula_units_Z 100
_cell_length_a 30.101913
_cell_length_b 7.244186
_cell_length_c 21.272761
_cell_angle_alpha 90.000000
_cell_angle_beta 90.000000
_cell_angle_gamma 90.000000
_cell_volume 4638.820307
_symmetry_space_group_name_H-M "I M M M"
_symmetry_group_IT_number 71
_symmetry_cell_setting 'orthorhombic'
loop_
_space_group_symop_operation_xyz
x,y,z
-x,-y,z
x,-y,-z
-x,y,-z
-x,-y,-z
x,y,-z
-x,y,z
x,-y,z
1/2+x,1/2+y,1/2+z
1/2-x,1/2-y,1/2+z
1/2+x,1/2-y,1/2-z
1/2-x,1/2+y,1/2-z
1/2-x,1/2-y,1/2-z
1/2+x,1/2+y,1/2-z
1/2-x,1/2+y,1/2+z
1/2+x,1/2-y,1/2+z
loop_
_atom_site_type_symbol
_atom_site_label
_atom_site_fract_x
_atom_site_fract_y
_atom_site_fract_z
Si Si1 0.951499 0.285443 0.396625
Si Si2 0.549655 0.723178 0.251977
Si Si3 0.757966 0.500000 0.000000
Si Si4 0.221749 0.774701 0.115057
Si Si5 0.304376 0.778387 0.808173
Si Si6 0.638557 0.708820 0.313504
Si Si7 0.143897 0.725003 0.432934
O O1 0.953165 0.500000 0.414887
O O2 0.945357 0.277485 0.321122
O O3 0.906949 0.211302 0.427113
O O4 0.000000 0.205395 0.411262
O O5 0.500000 0.780185 0.272250
O O6 0.550914 0.500000 0.252440
O O7 0.591387 0.791517 0.292551
O O8 0.761743 0.338064 0.055523
O O9 0.253684 0.731661 0.174984
O O10 0.171616 0.717192 0.133445
O O11 0.224009 0.000000 0.106344
O O12 0.330757 0.703233 0.748871
O O13 0.330234 0.718452 0.871244
O O14 0.307301 0.000000 0.802845
O O15 0.628577 0.500000 0.333325
O O16 0.162853 0.786615 0.500000
O O17 0.144365 0.500000 0.432512
#
# Coordination Sequence:
#
# PCOD9521608 Si02
#       7
#    16  16   4  16  16  16  16
#     4   9  16  27  43  65  93 132 184 237 282 330
#     4   9  17  30  50  77 110 147 185 231 294 357
#     4  12  26  44  68  90 117 166 201 246 292 372
#     4  10  24  42  61  90 122 156 200 247 295 354
#     4  10  20  34  55  79 114 156 193 247 292 343
#     4  10  20  35  57  85 118 150 192 248 299 350
#     4   9  17  28  43  67  98 142 190 232 286 336
#
# _framework density 21.557203999999999
#
# number of rings (size 3 to 8) (size 9 to 14) (size 15 to 20)
#    0.000    2.400    1.600    0.720    3.360    0.320 
#    0.000    1.600    0.000    1.440    0.000    3.360 
#    0.000    3.840    0.000    0.000    0.000    0.000 
#
# Total GULP energy -278657.253754 kJ/mol
# GULP energy per Si atom -5573.145075 kJ/mol
# Density = 2.150814 g / cm^3
# Si number density = 21.557204 Si / 1000 Ang^3
#
#
#
# Elastic Constant Matrix: (Units=GPa)
#
#
# Indices 1 2 3 4 5 6 
#
# 1 129.6942 1.5052 20.0022 0.0000 0.0000 0.0000
# 2 1.5052 112.2736 1.7912 0.0000 0.0000 0.0000
# 3 20.0022 1.7912 42.5720 0.0000 0.0000 0.0000
# 4 0.0000 0.0000 0.0000 15.9525 0.0000 0.0000
# 5 0.0000 0.0000 0.0000 0.0000 24.1004 0.0000
# 6 0.0000 0.0000 0.0000 0.0000 0.0000 -1.1984
#
#
#
# Elastic Compliance Matrix: (Units=1/GPa)
#
#
# Indices 1 2 3 4 5 6 
#
# 1 0.008313 -0.000049 -0.003904 0.000000 0.000000 0.000000
# 2 -0.000049 0.008913 -0.000352 0.000000 0.000000 0.000000
# 3 -0.003904 -0.000352 0.025339 0.000000 0.000000 0.000000
# 4 0.000000 0.000000 0.000000 0.062686 0.000000 0.000000
# 5 0.000000 0.000000 0.000000 0.000000 0.041493 0.000000
# 6 0.000000 0.000000 0.000000 0.000000 0.000000 -0.834433
#
#
# Mechanical properties :
#
#
# Convention : Reuss Voigt Hill
#
# Bulk Modulus (GPa) = 29.45070 36.79299 33.12185
# Shear Modulus (GPa) = -7.48771 25.18697 8.84963
#
# Velocity S-wave (km/s) = -1.86573 3.42186 2.02832
# Velocity P-wave (km/s) = 3.00833 5.71987 4.56984
#
# Compressibility (1/GPa) = 0.03395505
#
# Stress axis : x y z
#
# Youngs Moduli (GPa) = 120.29237 112.19460 39.46547
#
# Poissons Ratio (x) = 0.00552 0.15406
# Poissons Ratio (y) = 0.00591 0.01389
# Poissons Ratio (z) = 0.46960 0.03948
#
# Static dielectric constant tensor:
#      x y z
#    x 1.840690 0.000000 0.000000 
#    y 0.000000 1.689020 0.000000 
#    z 0.000000 0.000000 1.734270 
# 
# From -- ./inp_files/56706.got.cif
#   From: 2010.05.17/outbox.cif.g08.bks.cpg/sg71_29_cif.got.tgz:56706.got - 2010.06.03 16:22:01.
