data_PCOD9521944
_publ_section_title
;
Structure prediction by ZEFSAII (Michael W. Deem and Ramdas Pophale) SiO2 
 PCOD9521944
Probable space group: I M M M
;
_chemical_formula_sum "Si O2"
_cell_formula_units_Z 96
_cell_length_a 18.470627
_cell_length_b 12.627450
_cell_length_c 22.898570
_cell_angle_alpha 90.000000
_cell_angle_beta 90.000000
_cell_angle_gamma 90.000000
_cell_volume 5340.791914
_symmetry_space_group_name_H-M "I M M M"
_symmetry_group_IT_number 71
_symmetry_cell_setting 'orthorhombic'
loop_
_space_group_symop_operation_xyz
x,y,z
-x,-y,z
x,-y,-z
-x,y,-z
-x,-y,-z
x,y,-z
-x,y,z
x,-y,z
1/2+x,1/2+y,1/2+z
1/2-x,1/2-y,1/2+z
1/2+x,1/2-y,1/2-z
1/2-x,1/2+y,1/2-z
1/2-x,1/2-y,1/2-z
1/2+x,1/2+y,1/2-z
1/2-x,1/2+y,1/2+z
1/2+x,1/2-y,1/2+z
loop_
_atom_site_type_symbol
_atom_site_label
_atom_site_fract_x
_atom_site_fract_y
_atom_site_fract_z
Si Si1 0.708660 0.740946 0.930383
Si Si2 0.256966 0.124084 0.322233
Si Si3 0.500000 0.380051 0.594753
Si Si4 0.000000 0.119339 0.232892
Si Si5 0.344467 0.617843 0.569246
Si Si6 0.637545 0.236314 0.756825
Si Si7 0.913296 0.624071 0.628689
O O1 0.728967 0.643236 0.888404
O O2 0.773302 0.821253 0.911833
O O3 0.633599 0.798246 0.912729
O O4 0.711277 0.720963 0.000000
O O5 0.332030 0.179044 0.301174
O O6 0.198661 0.186412 0.283011
O O7 0.259810 0.000000 0.309572
O O8 0.500000 0.500000 0.568135
O O9 0.500000 0.390309 0.663521
O O10 0.576940 0.330096 0.578495
O O11 0.930461 0.187918 0.248349
O O12 0.000000 0.000000 0.258110
O O13 0.336510 0.607804 0.500000
O O14 0.346737 0.500000 0.596300
O O15 0.615599 0.151043 0.806306
O O16 0.900420 0.500000 0.614832
O O17 0.000000 0.643107 0.625398
#
# Coordination Sequence:
#
# PCOD9521944 Si02
#       7
#    16  16   8   8  16  16  16
#     4  10  21  35  53  78 109 147 191 234 277 337
#     4  10  21  37  57  79 107 146 187 234 285 336
#     4   9  17  26  41  69 100 131 167 209 264 324
#     4  11  20  31  51  78 109 141 173 220 281 343
#     4   9  16  28  46  69 100 136 174 218 269 323
#     4  10  20  36  56  82 111 141 187 233 286 347
#     4  10  20  35  56  82 114 149 187 238 294 345
#
# _framework density 17.974862999999999
#
# number of rings (size 3 to 8) (size 9 to 14) (size 15 to 20)
#    0.000    2.167    0.833    2.750    0.000    2.667 
#    0.000    5.833    0.000    0.000    0.000    2.333 
#    0.000    6.667    0.000    0.000    0.000    0.000 
#
# Total GULP energy -267290.499161 kJ/mol
# GULP energy per Si atom -5568.552066 kJ/mol
# Density = 1.793395 g / cm^3
# Si number density = 17.974863 Si / 1000 Ang^3
#
#
#
# Elastic Constant Matrix: (Units=GPa)
#
#
# Indices 1 2 3 4 5 6 
#
# 1 107.7955 31.9512 10.6430 0.0000 0.0000 0.0000
# 2 31.9512 60.0403 15.6743 0.0000 0.0000 0.0000
# 3 10.6430 15.6743 69.8815 0.0000 0.0000 0.0000
# 4 0.0000 0.0000 0.0000 11.3110 0.0000 0.0000
# 5 0.0000 0.0000 0.0000 0.0000 5.0369 0.0000
# 6 0.0000 0.0000 0.0000 0.0000 0.0000 21.7462
#
#
#
# Elastic Compliance Matrix: (Units=1/GPa)
#
#
# Indices 1 2 3 4 5 6 
#
# 1 0.011024 -0.005766 -0.000386 0.000000 0.000000 0.000000
# 2 -0.005766 0.020707 -0.003766 0.000000 0.000000 0.000000
# 3 -0.000386 -0.003766 0.015213 0.000000 0.000000 0.000000
# 4 0.000000 0.000000 0.000000 0.088409 0.000000 0.000000
# 5 0.000000 0.000000 0.000000 0.000000 0.198536 0.000000
# 6 0.000000 0.000000 0.000000 0.000000 0.000000 0.045985
#
#
# Mechanical properties :
#
#
# Convention : Reuss Voigt Hill
#
# Bulk Modulus (GPa) = 36.88864 39.36161 38.12512
# Shear Modulus (GPa) = 12.23252 19.58207 15.90729
#
# Velocity S-wave (km/s) = 2.61154 3.30421 2.97808
# Velocity P-wave (km/s) = 5.44614 6.04175 5.75166
#
# Compressibility (1/GPa) = 0.02710862
#
# Stress axis : x y z
#
# Youngs Moduli (GPa) = 90.71175 48.29253 65.73117
#
# Poissons Ratio (x) = 0.27845 0.02535
# Poissons Ratio (y) = 0.52303 0.24757
# Poissons Ratio (z) = 0.03499 0.18189
#
# Static dielectric constant tensor:
#      x y z
#    x 1.652720 0.000000 0.000000 
#    y 0.000000 1.635630 0.000000 
#    z 0.000000 0.000000 1.626260 
# 
# From -- ./inp_files/60546.got.cif
#   From: 2010.05.17/outbox.cif.g08.bks.cpg/sg71_31_cif.got.tgz:60546.got - 2010.06.03 16:22:01.
