data_PCOD9521215
_publ_section_title
;
Structure prediction by ZEFSAII (Michael W. Deem and Ramdas Pophale) SiO2 
 PCOD9521215
Probable space group: I M M M
;
_chemical_formula_sum "Si O2"
_cell_formula_units_Z 80
_cell_length_a 23.483448
_cell_length_b 7.903643
_cell_length_c 21.927612
_cell_angle_alpha 90.000000
_cell_angle_beta 90.000000
_cell_angle_gamma 90.000000
_cell_volume 4069.869807
_symmetry_space_group_name_H-M "I M M M"
_symmetry_group_IT_number 71
_symmetry_cell_setting 'orthorhombic'
loop_
_space_group_symop_operation_xyz
x,y,z
-x,-y,z
x,-y,-z
-x,y,-z
-x,-y,-z
x,y,-z
-x,y,z
x,-y,z
1/2+x,1/2+y,1/2+z
1/2-x,1/2-y,1/2+z
1/2+x,1/2-y,1/2-z
1/2-x,1/2+y,1/2-z
1/2-x,1/2-y,1/2-z
1/2+x,1/2+y,1/2-z
1/2-x,1/2+y,1/2+z
1/2+x,1/2-y,1/2+z
loop_
_atom_site_type_symbol
_atom_site_label
_atom_site_fract_x
_atom_site_fract_y
_atom_site_fract_z
Si Si1 0.933763 0.707071 0.500000
Si Si2 0.357197 0.808176 0.889085
Si Si3 0.068135 0.000000 0.928364
Si Si4 0.741815 0.802766 0.567081
Si Si5 0.683295 0.304179 0.242574
Si Si6 0.129524 0.694407 0.860279
O O1 0.929068 0.500000 0.500000
O O2 0.902176 0.764905 0.562114
O O3 0.000000 0.752135 0.500000
O O4 0.297347 0.806976 0.924623
O O5 0.340355 0.718843 0.825896
O O6 0.374585 0.000000 0.874201
O O7 0.090319 0.165852 0.892148
O O8 0.000000 0.000000 0.928090
O O9 0.086830 0.000000 0.000000
O O10 0.716898 0.780454 0.500000
O O11 0.692927 0.768374 0.614756
O O12 0.759139 0.000000 0.573481
O O13 0.681702 0.500000 0.259442
O O14 0.750000 0.250000 0.250000
O O15 0.639973 0.210417 0.288166
O O16 0.114537 0.500000 0.876316
#
# Coordination Sequence:
#
# PCOD9521215 Si02
#       6
#     8  16   8  16  16  16
#     4   9  20  40  61  85 123 167 217 272 319 381
#     4  11  21  34  57  90 120 162 215 264 327 390
#     4  11  26  48  72 100 132 173 223 277 329 391
#     4  10  20  33  53  86 127 162 199 256 328 394
#     4  12  23  38  59  92 135 174 215 267 334 405
#     4  11  23  42  65  97 134 174 218 269 333 401
#
# _framework density 19.656648000000001
#
# number of rings (size 3 to 8) (size 9 to 14) (size 15 to 20)
#    0.000    1.200    4.000    3.000    1.400    1.600 
#    0.000    2.000    0.000    6.600    0.000    0.000 
#    0.000    0.000    0.000    0.000    0.000    0.000 
#
# Total GULP energy -223180.773545 kJ/mol
# GULP energy per Si atom -5579.519339 kJ/mol
# Density = 1.961191 g / cm^3
# Si number density = 19.656648 Si / 1000 Ang^3
#
#
#
# Elastic Constant Matrix: (Units=GPa)
#
#
# Indices 1 2 3 4 5 6 
#
# 1 84.7176 41.9444 46.1170 0.0000 0.0000 0.0000
# 2 41.9444 74.9722 16.6686 0.0000 0.0000 0.0000
# 3 46.1170 16.6686 127.9346 0.0000 0.0000 0.0000
# 4 0.0000 0.0000 0.0000 25.1339 0.0000 0.0000
# 5 0.0000 0.0000 0.0000 0.0000 6.3684 0.0000
# 6 0.0000 0.0000 0.0000 0.0000 0.0000 7.6239
#
#
#
# Elastic Compliance Matrix: (Units=1/GPa)
#
#
# Indices 1 2 3 4 5 6 
#
# 1 0.019859 -0.009803 -0.005881 0.000000 0.000000 0.000000
# 2 -0.009803 0.018575 0.001114 0.000000 0.000000 0.000000
# 3 -0.005881 0.001114 0.009792 0.000000 0.000000 0.000000
# 4 0.000000 0.000000 0.000000 0.039787 0.000000 0.000000
# 5 0.000000 0.000000 0.000000 0.000000 0.157024 0.000000
# 6 0.000000 0.000000 0.000000 0.000000 0.000000 0.131166
#
#
# Mechanical properties :
#
#
# Convention : Reuss Voigt Hill
#
# Bulk Modulus (GPa) = 52.39965 55.23159 53.81562
# Shear Modulus (GPa) = 12.14461 20.01821 16.08141
#
# Velocity S-wave (km/s) = 2.48833 3.19469 2.86338
# Velocity P-wave (km/s) = 5.91363 6.46276 6.19428
#
# Compressibility (1/GPa) = 0.01908410
#
# Stress axis : x y z
#
# Youngs Moduli (GPa) = 50.35498 53.83559 102.12930
#
# Poissons Ratio (x) = 0.52774 0.60067
# Poissons Ratio (y) = 0.49362 -0.11372
# Poissons Ratio (z) = 0.29616 -0.05995
#
# Static dielectric constant tensor:
#      x y z
#    x 1.647750 0.000000 0.000000 
#    y 0.000000 1.720920 0.000000 
#    z 0.000000 0.000000 1.793050 
# 
# From -- ./inp_files/55458.got.cif
#   From: 2010.05.17/outbox.cif.g08.bks.cpg/sg71_28_cif.got.tgz:55458.got - 2010.06.03 16:22:01.
