data_PCOD9521563
_publ_section_title
;
Structure prediction by ZEFSAII (Michael W. Deem and Ramdas Pophale) SiO2 
 PCOD9521563
Probable space group: I M M M
;
_chemical_formula_sum "Si O2"
_cell_formula_units_Z 80
_cell_length_a 18.775606
_cell_length_b 26.530065
_cell_length_c 8.395516
_cell_angle_alpha 90.000000
_cell_angle_beta 90.000000
_cell_angle_gamma 90.000000
_cell_volume 4181.958038
_symmetry_space_group_name_H-M "I M M M"
_symmetry_group_IT_number 71
_symmetry_cell_setting 'orthorhombic'
loop_
_space_group_symop_operation_xyz
x,y,z
-x,-y,z
x,-y,-z
-x,y,-z
-x,-y,-z
x,y,-z
-x,y,z
x,-y,z
1/2+x,1/2+y,1/2+z
1/2-x,1/2-y,1/2+z
1/2+x,1/2-y,1/2-z
1/2-x,1/2+y,1/2-z
1/2-x,1/2-y,1/2-z
1/2+x,1/2+y,1/2-z
1/2-x,1/2+y,1/2+z
1/2+x,1/2-y,1/2+z
loop_
_atom_site_type_symbol
_atom_site_label
_atom_site_fract_x
_atom_site_fract_y
_atom_site_fract_z
Si Si1 0.668693 0.098716 0.307588
Si Si2 0.581998 0.500000 0.694600
Si Si3 0.582158 0.000000 0.694749
Si Si4 0.082262 0.807100 0.690466
Si Si5 0.670102 0.597924 0.309622
Si Si6 0.082611 0.696626 0.807607
O O1 0.666581 0.098947 0.500000
O O2 0.750005 0.095367 0.254825
O O3 0.631400 0.150447 0.252670
O O4 0.623764 0.050118 0.253421
O O5 0.500000 0.500000 0.747463
O O6 0.581385 0.500000 0.500000
O O7 0.623736 0.449978 0.746941
O O8 0.500000 0.000000 0.745913
O O9 0.581902 0.000000 0.500000
O O10 0.083358 0.809627 0.500000
O O11 0.131571 0.850773 0.758341
O O12 0.104870 0.751186 0.743570
O O13 0.000000 0.814108 0.745063
O O14 0.672695 0.595893 0.500000
O O15 0.000000 0.688135 0.760577
O O16 0.084702 0.698254 0.000000
#
# Coordination Sequence:
#
# PCOD9521563 Si02
#       6
#    16   8   8  16  16  16
#     4  10  20  34  54  81 113 144 177 222 270 316
#     4   9  19  36  57  79 102 133 176 220 260 309
#     4   9  17  32  57  85 110 141 182 225 270 320
#     4  10  21  37  57  81 108 138 176 224 273 318
#     4  11  22  36  56  80 109 144 179 217 264 321
#     4   9  18  34  56  80 106 141 184 223 262 314
#
# _framework density 19.129795999999999
#
# number of rings (size 3 to 8) (size 9 to 14) (size 15 to 20)
#    0.000    2.200    0.000    3.000    0.000    6.000 
#    0.000    1.500    0.000    6.000    0.000    0.000 
#    0.000    0.000    0.000    0.000    0.000    0.000 
#
# Total GULP energy -223414.661641 kJ/mol
# GULP energy per Si atom -5585.366541 kJ/mol
# Density = 1.908626 g / cm^3
# Si number density = 19.129796 Si / 1000 Ang^3
#
#
#
# Elastic Constant Matrix: (Units=GPa)
#
#
# Indices 1 2 3 4 5 6 
#
# 1 166.7509 131.0553 15.4091 0.0000 0.0000 0.0000
# 2 131.0553 196.2413 20.2623 0.0000 0.0000 0.0000
# 3 15.4091 20.2623 10.5748 0.0000 0.0000 0.0000
# 4 0.0000 0.0000 0.0000 -0.7643 0.0000 0.0000
# 5 0.0000 0.0000 0.0000 0.0000 24.3360 0.0000
# 6 0.0000 0.0000 0.0000 0.0000 0.0000 -13.6987
#
#
#
# Elastic Compliance Matrix: (Units=1/GPa)
#
#
# Indices 1 2 3 4 5 6 
#
# 1 0.012688 -0.008184 -0.002808 0.000000 0.000000 0.000000
# 2 -0.008184 0.011631 -0.010361 0.000000 0.000000 0.000000
# 3 -0.002808 -0.010361 0.118509 0.000000 0.000000 0.000000
# 4 0.000000 0.000000 0.000000 -1.308352 0.000000 0.000000
# 5 0.000000 0.000000 0.000000 0.000000 0.041091 0.000000
# 6 0.000000 0.000000 0.000000 0.000000 0.000000 -0.072999
#
#
# Mechanical properties :
#
#
# Convention : Reuss Voigt Hill
#
# Bulk Modulus (GPa) = 9.98775 78.55783 44.27279
# Shear Modulus (GPa) = -4.45890 15.76394 5.65252
#
# Velocity S-wave (km/s) = -1.52837 2.87374 1.72083
# Velocity P-wave (km/s) = 1.45527 7.22261 5.20979
#
# Compressibility (1/GPa) = 0.10012260
#
# Stress axis : x y z
#
# Youngs Moduli (GPa) = 78.81302 85.97852 8.43818
#
# Poissons Ratio (x) = 0.70362 0.02370
# Poissons Ratio (y) = 0.64498 0.08743
# Poissons Ratio (z) = 0.22131 0.89082
#
# Static dielectric constant tensor:
#      x y z
#    x 1.635790 0.000000 0.000000 
#    y 0.000000 1.644570 0.000000 
#    z 0.000000 0.000000 1.662180 
# 
# From -- ./inp_files/8388.got.cif
#   From: 2010.05.17/outbox.cif.g08.bks.cpg/sg71_5_cif.got.tgz:8388.got - 2010.06.03 16:22:01.
