data_PCOD9521628
_publ_section_title
;
Structure prediction by ZEFSAII (Michael W. Deem and Ramdas Pophale) SiO2 
 PCOD9521628
Probable space group: I M M M
;
_chemical_formula_sum "Si O2"
_cell_formula_units_Z 88
_cell_length_a 17.836845
_cell_length_b 7.441206
_cell_length_c 32.528371
_cell_angle_alpha 90.000000
_cell_angle_beta 90.000000
_cell_angle_gamma 90.000000
_cell_volume 4317.413852
_symmetry_space_group_name_H-M "I M M M"
_symmetry_group_IT_number 71
_symmetry_cell_setting 'orthorhombic'
loop_
_space_group_symop_operation_xyz
x,y,z
-x,-y,z
x,-y,-z
-x,y,-z
-x,-y,-z
x,y,-z
-x,y,z
x,-y,z
1/2+x,1/2+y,1/2+z
1/2-x,1/2-y,1/2+z
1/2+x,1/2-y,1/2-z
1/2-x,1/2+y,1/2-z
1/2-x,1/2-y,1/2-z
1/2+x,1/2+y,1/2-z
1/2-x,1/2+y,1/2+z
1/2+x,1/2-y,1/2+z
loop_
_atom_site_type_symbol
_atom_site_label
_atom_site_fract_x
_atom_site_fract_y
_atom_site_fract_z
Si Si1 0.307063 0.295640 0.186997
Si Si2 0.088129 0.500000 0.450899
Si Si3 0.190506 0.218688 0.593855
Si Si4 0.842260 0.718370 0.953074
Si Si5 0.000000 0.280101 0.085413
Si Si6 0.000000 0.285270 0.820257
Si Si7 0.346946 0.710399 0.274589
O O1 0.334966 0.500000 0.184067
O O2 0.316252 0.221496 0.141415
O O3 0.345065 0.215563 0.227934
O O4 0.218958 0.295806 0.198462
O O5 0.096407 0.500000 0.500000
O O6 0.129258 0.674721 0.432302
O O7 0.000000 0.500000 0.440787
O O8 0.272632 0.267300 0.575934
O O9 0.183364 0.000000 0.591248
O O10 0.844126 0.500000 0.953400
O O11 0.923267 0.777880 0.936528
O O12 0.829942 0.777688 0.000000
O O13 0.000000 0.500000 0.084772
O O14 0.000000 0.221116 0.132773
O O15 0.073924 0.228005 0.796186
O O16 0.000000 0.500000 0.821770
O O17 0.326978 0.500000 0.271696
#
# Coordination Sequence:
#
# PCOD9521628 Si02
#       7
#    16   8  16  16   8   8  16
#     4   9  19  37  58  83 114 149 192 240 299 359
#     4  11  26  46  66  93 123 153 197 258 324 384
#     4  10  21  40  65  92 122 160 202 249 305 375
#     4   9  16  28  52  85 116 152 196 241 290 346
#     4   9  17  29  48  77 119 159 197 241 282 337
#     4  11  21  34  49  74 112 158 200 238 287 342
#     4  10  20  34  55  81 113 153 196 245 294 350
#
# _framework density 20.382573000000001
#
# number of rings (size 3 to 8) (size 9 to 14) (size 15 to 20)
#    0.000    2.273    0.000    2.727    1.273    6.182 
#    1.636    0.909    0.000    0.000    0.000    1.909 
#    0.000    0.000    0.000    0.000    0.000    0.000 
#
# Total GULP energy -245645.583034 kJ/mol
# GULP energy per Si atom -5582.854160 kJ/mol
# Density = 2.033618 g / cm^3
# Si number density = 20.382573 Si / 1000 Ang^3
#
#
#
# Elastic Constant Matrix: (Units=GPa)
#
#
# Indices 1 2 3 4 5 6 
#
# 1 70.4521 11.6882 45.6963 0.0000 0.0000 0.0000
# 2 11.6882 79.3409 17.2057 0.0000 0.0000 0.0000
# 3 45.6963 17.2057 143.4154 0.0000 0.0000 0.0000
# 4 0.0000 0.0000 0.0000 4.4234 0.0000 0.0000
# 5 0.0000 0.0000 0.0000 0.0000 23.0365 0.0000
# 6 0.0000 0.0000 0.0000 0.0000 0.0000 23.1640
#
#
#
# Elastic Compliance Matrix: (Units=1/GPa)
#
#
# Indices 1 2 3 4 5 6 
#
# 1 0.018053 -0.001450 -0.005578 0.000000 0.000000 0.000000
# 2 -0.001450 0.013057 -0.001105 0.000000 0.000000 0.000000
# 3 -0.005578 -0.001105 0.008883 0.000000 0.000000 0.000000
# 4 0.000000 0.000000 0.000000 0.226072 0.000000 0.000000
# 5 0.000000 0.000000 0.000000 0.000000 0.043409 0.000000
# 6 0.000000 0.000000 0.000000 0.000000 0.000000 0.043170
#
#
# Mechanical properties :
#
#
# Convention : Reuss Voigt Hill
#
# Bulk Modulus (GPa) = 42.14556 49.15433 45.64995
# Shear Modulus (GPa) = 13.26899 24.69932 18.98415
#
# Velocity S-wave (km/s) = 2.55423 3.48485 3.05518
# Velocity P-wave (km/s) = 5.42411 6.35299 5.90683
#
# Compressibility (1/GPa) = 0.02372729
#
# Stress axis : x y z
#
# Youngs Moduli (GPa) = 55.39346 76.58767 112.57921
#
# Poissons Ratio (x) = 0.11104 0.62799
# Poissons Ratio (y) = 0.08031 0.12435
# Poissons Ratio (z) = 0.30899 0.08459
#
# Static dielectric constant tensor:
#      x y z
#    x 1.672480 0.000000 0.000000 
#    y 0.000000 1.912650 0.000000 
#    z 0.000000 0.000000 1.724090 
# 
# From -- ./inp_files/70391.got.cif
#   From: 2010.05.17/outbox.cif.g08.bks.cpg/sg71_36_cif.got.tgz:70391.got - 2010.06.03 16:22:01.
