data_PCOD9521129
_publ_section_title
;
Structure prediction by ZEFSAII (Michael W. Deem and Ramdas Pophale) SiO2 
 PCOD9521129
Probable space group: I M M M
;
_chemical_formula_sum "Si O2"
_cell_formula_units_Z 104
_cell_length_a 26.870424
_cell_length_b 8.570809
_cell_length_c 20.176817
_cell_angle_alpha 90.000000
_cell_angle_beta 90.000000
_cell_angle_gamma 90.000000
_cell_volume 4646.746617
_symmetry_space_group_name_H-M "I M M M"
_symmetry_group_IT_number 71
_symmetry_cell_setting 'orthorhombic'
loop_
_space_group_symop_operation_xyz
x,y,z
-x,-y,z
x,-y,-z
-x,y,-z
-x,-y,-z
x,y,-z
-x,y,z
x,-y,z
1/2+x,1/2+y,1/2+z
1/2-x,1/2-y,1/2+z
1/2+x,1/2-y,1/2-z
1/2-x,1/2+y,1/2-z
1/2-x,1/2-y,1/2-z
1/2+x,1/2+y,1/2-z
1/2-x,1/2+y,1/2+z
1/2+x,1/2-y,1/2+z
loop_
_atom_site_type_symbol
_atom_site_label
_atom_site_fract_x
_atom_site_fract_y
_atom_site_fract_z
Si Si1 0.559061 0.000000 0.922555
Si Si2 0.208007 0.818015 0.381171
Si Si3 0.553776 0.687627 0.717497
Si Si4 0.419574 0.313955 0.571021
Si Si5 0.097502 0.827221 0.576285
Si Si6 0.685611 0.183991 0.602517
Si Si7 0.657661 0.180999 0.754835
O O1 0.577107 0.834186 0.893949
O O2 0.500000 0.000000 0.921850
O O3 0.576499 0.000000 0.000000
O O4 0.157266 0.811048 0.422589
O O5 0.258787 0.760589 0.414603
O O6 0.193903 0.739098 0.312021
O O7 0.217867 0.000000 0.367247
O O8 0.500000 0.741052 0.744209
O O9 0.553172 0.500000 0.715813
O O10 0.558935 0.745738 0.640857
O O11 0.604344 0.734354 0.753845
O O12 0.438602 0.253223 0.500000
O O13 0.427732 0.500000 0.571363
O O14 0.360752 0.277683 0.574095
O O15 0.079749 0.832611 0.500000
O O16 0.085472 0.000000 0.605766
O O17 0.681203 0.200954 0.682175
O O18 0.679244 0.000000 0.585499
O O19 0.647894 0.000000 0.764890
#
# Coordination Sequence:
#
# PCOD9521129 Si02
#       7
#     8  16  16  16  16  16  16
#     4   9  18  34  56  78 102 134 170 210 256 310
#     4  10  20  34  54  76 102 138 175 212 261 319
#     4   9  18  34  55  75 101 141 181 220 269 319
#     4   9  18  32  50  77 110 139 176 224 266 311
#     4   9  19  35  54  79 109 138 173 218 266 320
#     4   9  19  34  51  74 103 139 177 213 260 315
#     4  10  20  33  52  77 104 133 172 222 267 313
#
# _framework density 22.381249
#
# number of rings (size 3 to 8) (size 9 to 14) (size 15 to 20)
#    0.000    2.692    0.000    0.923    1.077    3.077 
#    0.000    5.385    0.000    0.923    0.000    4.308 
#    0.000    0.000    0.000    0.000    0.000    0.000 
#
# Total GULP energy -290117.375761 kJ/mol
# GULP energy per Si atom -5579.180303 kJ/mol
# Density = 2.233031 g / cm^3
# Si number density = 22.381249 Si / 1000 Ang^3
#
#
#
# Elastic Constant Matrix: (Units=GPa)
#
#
# Indices 1 2 3 4 5 6 
#
# 1 103.6409 32.1425 -12.3346 0.0000 0.0000 0.0000
# 2 32.1425 76.5231 7.4599 0.0000 0.0000 0.0000
# 3 -12.3346 7.4599 63.3223 0.0000 0.0000 0.0000
# 4 0.0000 0.0000 0.0000 5.6157 0.0000 0.0000
# 5 0.0000 0.0000 0.0000 0.0000 8.9328 0.0000
# 6 0.0000 0.0000 0.0000 0.0000 0.0000 21.5240
#
#
#
# Elastic Compliance Matrix: (Units=1/GPa)
#
#
# Indices 1 2 3 4 5 6 
#
# 1 0.011585 -0.005145 0.002863 0.000000 0.000000 0.000000
# 2 -0.005145 0.015505 -0.002829 0.000000 0.000000 0.000000
# 3 0.002863 -0.002829 0.016683 0.000000 0.000000 0.000000
# 4 0.000000 0.000000 0.000000 0.178071 0.000000 0.000000
# 5 0.000000 0.000000 0.000000 0.000000 0.111947 0.000000
# 6 0.000000 0.000000 0.000000 0.000000 0.000000 0.046460
#
#
# Mechanical properties :
#
#
# Convention : Reuss Voigt Hill
#
# Bulk Modulus (GPa) = 29.80572 33.11355 31.45963
# Shear Modulus (GPa) = 12.44845 21.62907 17.03876
#
# Velocity S-wave (km/s) = 2.36095 3.11206 2.76215
# Velocity P-wave (km/s) = 4.55832 5.26693 4.92538
#
# Compressibility (1/GPa) = 0.03355061
#
# Stress axis : x y z
#
# Youngs Moduli (GPa) = 86.31750 64.49567 59.94072
#
# Poissons Ratio (x) = 0.33185 -0.17160
# Poissons Ratio (y) = 0.44413 0.16956
# Poissons Ratio (z) = -0.24711 0.18245
#
# Static dielectric constant tensor:
#      x y z
#    x 1.844190 0.000000 0.000000 
#    y 0.000000 1.807780 0.000000 
#    z 0.000000 0.000000 1.873890 
# 
# From -- ./inp_files/61942.got.cif
#   From: 2010.05.17/outbox.cif.g08.bks.cpg/sg71_31_cif.got.tgz:61942.got - 2010.06.03 16:22:01.
