data_PCOD9521823
_publ_section_title
;
Structure prediction by ZEFSAII (Michael W. Deem and Ramdas Pophale) SiO2 
 PCOD9521823
Probable space group: I M M M
;
_chemical_formula_sum "Si O2"
_cell_formula_units_Z 104
_cell_length_a 7.663315
_cell_length_b 22.643764
_cell_length_c 28.371529
_cell_angle_alpha 90.000000
_cell_angle_beta 90.000000
_cell_angle_gamma 90.000000
_cell_volume 4923.206348
_symmetry_space_group_name_H-M "I M M M"
_symmetry_group_IT_number 71
_symmetry_cell_setting 'orthorhombic'
loop_
_space_group_symop_operation_xyz
x,y,z
-x,-y,z
x,-y,-z
-x,y,-z
-x,-y,-z
x,y,-z
-x,y,z
x,-y,z
1/2+x,1/2+y,1/2+z
1/2-x,1/2-y,1/2+z
1/2+x,1/2-y,1/2-z
1/2-x,1/2+y,1/2-z
1/2-x,1/2-y,1/2-z
1/2+x,1/2+y,1/2-z
1/2-x,1/2+y,1/2+z
1/2+x,1/2-y,1/2+z
loop_
_atom_site_type_symbol
_atom_site_label
_atom_site_fract_x
_atom_site_fract_y
_atom_site_fract_z
Si Si1 0.700519 0.906953 0.947989
Si Si2 0.802533 0.224103 0.944121
Si Si3 0.211469 0.563214 0.347571
Si Si4 0.205346 0.179992 0.790632
Si Si5 0.786216 0.431243 0.000000
Si Si6 0.712969 0.852070 0.588839
Si Si7 0.795123 0.307878 0.184152
O O1 0.500000 0.926723 0.950936
O O2 0.702280 0.836673 0.937979
O O3 0.778947 0.934542 0.901321
O O4 0.780343 0.916404 0.000000
O O5 0.734157 0.285078 0.924048
O O6 0.000000 0.214691 0.925670
O O7 0.813202 0.233671 0.000000
O O8 0.262910 0.500000 0.326140
O O9 0.267253 0.621603 0.320677
O O10 0.000000 0.564964 0.349323
O O11 0.277554 0.240324 0.814606
O O12 0.277614 0.171800 0.737994
O O13 0.000000 0.189847 0.784606
O O14 0.727776 0.396905 0.952217
O O15 0.733751 0.500000 0.000000
O O16 0.000000 0.430129 0.000000
O O17 0.500000 0.855622 0.586175
O O18 0.769963 0.853141 0.643807
O O19 0.000000 0.302260 0.173409
#
# Coordination Sequence:
#
# PCOD9521823 Si02
#       7
#    16  16  16  16   8  16  16
#     4   9  18  31  47  71 102 130 162 205 247 290
#     4   9  15  25  44  69  98 131 164 199 243 292
#     4  10  21  36  53  72  98 136 174 206 247 300
#     4  10  20  35  54  77 103 131 169 215 263 310
#     4   9  16  26  42  68 103 137 168 205 248 296
#     4   9  15  26  44  69  99 133 169 204 246 299
#     4   9  18  32  53  78 105 133 165 210 264 315
#
# _framework density 21.124444
#
# number of rings (size 3 to 8) (size 9 to 14) (size 15 to 20)
#    0.000    2.692    0.769    1.385    0.000    3.077 
#    0.000    3.077    0.000    2.769    0.000    3.231 
#    0.000    4.308    0.000    0.000    0.000    0.000 
#
# Total GULP energy -289767.652992 kJ/mol
# GULP energy per Si atom -5572.454865 kJ/mol
# Density = 2.107636 g / cm^3
# Si number density = 21.124444 Si / 1000 Ang^3
#
#
#
# Elastic Constant Matrix: (Units=GPa)
#
#
# Indices 1 2 3 4 5 6 
#
# 1 35.9024 -3.6126 2.5516 0.0000 0.0000 0.0000
# 2 -3.6126 100.6051 84.1128 0.0000 0.0000 0.0000
# 3 2.5516 84.1128 150.6647 0.0000 0.0000 0.0000
# 4 0.0000 0.0000 0.0000 18.3178 0.0000 0.0000
# 5 0.0000 0.0000 0.0000 0.0000 6.3237 0.0000
# 6 0.0000 0.0000 0.0000 0.0000 0.0000 5.8574
#
#
#
# Elastic Compliance Matrix: (Units=1/GPa)
#
#
# Indices 1 2 3 4 5 6 
#
# 1 0.028260 0.002653 -0.001960 0.000000 0.000000 0.000000
# 2 0.002653 0.018890 -0.010591 0.000000 0.000000 0.000000
# 3 -0.001960 -0.010591 0.012583 0.000000 0.000000 0.000000
# 4 0.000000 0.000000 0.000000 0.054592 0.000000 0.000000
# 5 0.000000 0.000000 0.000000 0.000000 0.158136 0.000000
# 6 0.000000 0.000000 0.000000 0.000000 0.000000 0.170723
#
#
# Mechanical properties :
#
#
# Convention : Reuss Voigt Hill
#
# Bulk Modulus (GPa) = 25.03889 50.36397 37.70143
# Shear Modulus (GPa) = 10.49780 19.70781 15.10280
#
# Velocity S-wave (km/s) = 2.23166 3.05772 2.67675
# Velocity P-wave (km/s) = 4.30339 6.02988 5.23826
#
# Compressibility (1/GPa) = 0.03993788
#
# Stress axis : x y z
#
# Youngs Moduli (GPa) = 35.38627 52.93922 79.47268
#
# Poissons Ratio (x) = -0.14047 0.15576
# Poissons Ratio (y) = -0.09389 0.84166
# Poissons Ratio (z) = 0.06935 0.56066
#
# Static dielectric constant tensor:
#      x y z
#    x 1.810680 0.000000 0.000000 
#    y 0.000000 1.747610 0.000000 
#    z 0.000000 0.000000 1.804950 
# 
# From -- ./inp_files/63529.got.cif
#   From: 2010.05.17/outbox.cif.g08.bks.cpg/sg71_32_cif.got.tgz:63529.got - 2010.06.03 16:22:01.
