data_PCOD9521059
_publ_section_title
;
Structure prediction by ZEFSAII (Michael W. Deem and Ramdas Pophale) SiO2 
 PCOD9521059
Probable space group: I M M M
;
_chemical_formula_sum "Si O2"
_cell_formula_units_Z 104
_cell_length_a 27.553721
_cell_length_b 23.907385
_cell_length_c 8.895671
_cell_angle_alpha 90.000000
_cell_angle_beta 90.000000
_cell_angle_gamma 90.000000
_cell_volume 5859.911329
_symmetry_space_group_name_H-M "I M M M"
_symmetry_group_IT_number 71
_symmetry_cell_setting 'orthorhombic'
loop_
_space_group_symop_operation_xyz
x,y,z
-x,-y,z
x,-y,-z
-x,y,-z
-x,-y,-z
x,y,-z
-x,y,z
x,-y,z
1/2+x,1/2+y,1/2+z
1/2-x,1/2-y,1/2+z
1/2+x,1/2-y,1/2-z
1/2-x,1/2+y,1/2-z
1/2-x,1/2-y,1/2-z
1/2+x,1/2+y,1/2-z
1/2-x,1/2+y,1/2+z
1/2+x,1/2-y,1/2+z
loop_
_atom_site_type_symbol
_atom_site_label
_atom_site_fract_x
_atom_site_fract_y
_atom_site_fract_z
Si Si1 0.385070 0.704803 0.827901
Si Si2 0.822487 0.500000 0.819653
Si Si3 0.291798 0.500000 0.180249
Si Si4 0.354558 0.115734 0.816954
Si Si5 0.791230 0.284768 0.669926
Si Si6 0.445286 0.500000 0.317857
Si Si7 0.445187 0.807651 0.183275
Si Si8 0.635615 0.412296 0.320258
O O1 0.338767 0.745803 0.833684
O O2 0.427579 0.745635 0.769248
O O3 0.371338 0.650832 0.733011
O O4 0.396102 0.687584 0.000000
O O5 0.765048 0.500000 0.779886
O O6 0.847099 0.444817 0.751688
O O7 0.826286 0.500000 0.000000
O O8 0.319703 0.554231 0.245957
O O9 0.296175 0.500000 0.000000
O O10 0.310363 0.156441 0.766058
O O11 0.404836 0.146536 0.772622
O O12 0.353481 0.113687 0.000000
O O13 0.774796 0.295567 0.500000
O O14 0.750000 0.250000 0.750000
O O15 0.500000 0.500000 0.259091
O O16 0.447846 0.500000 0.500000
O O17 0.412951 0.553465 0.275826
O O18 0.500000 0.819846 0.231737
O O19 0.444279 0.806492 0.000000
O O20 0.641116 0.415358 0.500000
#
# Coordination Sequence:
#
# PCOD9521059 Si02
#       8
#    16   8   8  16  16   8  16  16
#     4   9  18  32  50  75 108 137 167 210 258 306
#     4  11  24  38  55  78 105 140 179 220 273 327
#     4  10  22  38  53  70  99 141 181 223 273 316
#     4   9  19  36  56  80 107 137 177 223 263 308
#     4   9  19  33  50  74 103 137 171 207 254 303
#     4   8  16  32  49  65  93 132 169 212 260 298
#     4   8  15  32  58  83 107 138 176 217 262 312
#     4  10  20  33  51  76 103 135 179 219 257 311
#
# _framework density 17.747709
#
# number of rings (size 3 to 8) (size 9 to 14) (size 15 to 20)
#    0.000    2.846    0.000    3.231    2.154    3.077 
#    0.000    2.692    0.000   11.538    0.000    0.000 
#    0.000    0.000    0.000    0.000    0.000    0.000 
#
# Total GULP energy -289770.012679 kJ/mol
# GULP energy per Si atom -5572.500244 kJ/mol
# Density = 1.770731 g / cm^3
# Si number density = 17.747709 Si / 1000 Ang^3
#
#
#
# Elastic Constant Matrix: (Units=GPa)
#
#
# Indices 1 2 3 4 5 6 
#
# 1 98.5673 48.4444 26.2594 0.0000 0.0000 0.0000
# 2 48.4444 144.9931 33.3833 0.0000 0.0000 0.0000
# 3 26.2594 33.3833 32.6353 0.0000 0.0000 0.0000
# 4 0.0000 0.0000 0.0000 25.8172 0.0000 0.0000
# 5 0.0000 0.0000 0.0000 0.0000 17.5799 0.0000
# 6 0.0000 0.0000 0.0000 0.0000 0.0000 12.3521
#
#
#
# Elastic Compliance Matrix: (Units=1/GPa)
#
#
# Indices 1 2 3 4 5 6 
#
# 1 0.013655 -0.002659 -0.008267 0.000000 0.000000 0.000000
# 2 -0.002659 0.009539 -0.007619 0.000000 0.000000 0.000000
# 3 -0.008267 -0.007619 0.045087 0.000000 0.000000 0.000000
# 4 0.000000 0.000000 0.000000 0.038734 0.000000 0.000000
# 5 0.000000 0.000000 0.000000 0.000000 0.056883 0.000000
# 6 0.000000 0.000000 0.000000 0.000000 0.000000 0.080958
#
#
# Mechanical properties :
#
#
# Convention : Reuss Voigt Hill
#
# Bulk Modulus (GPa) = 32.05983 54.70778 43.38381
# Shear Modulus (GPa) = 17.10323 22.35707 19.73015
#
# Velocity S-wave (km/s) = 3.10770 3.55310 3.33784
# Velocity P-wave (km/s) = 5.56601 6.90832 6.27317
#
# Compressibility (1/GPa) = 0.03119168
#
# Stress axis : x y z
#
# Youngs Moduli (GPa) = 73.23549 104.82902 22.17929
#
# Poissons Ratio (x) = 0.27871 0.18336
# Poissons Ratio (y) = 0.19471 0.16898
# Poissons Ratio (z) = 0.60546 0.79866
#
# Static dielectric constant tensor:
#      x y z
#    x 1.619030 0.000000 0.000000 
#    y 0.000000 1.591940 0.000000 
#    z 0.000000 0.000000 1.605260 
# 
# From -- ./inp_files/15352.got.cif
#   From: 2010.05.17/outbox.cif.g08.bks.cpg/sg71_8_cif.got.tgz:15352.got - 2010.06.03 16:22:01.
