data_PCOD9521787
_publ_section_title
;
Structure prediction by ZEFSAII (Michael W. Deem and Ramdas Pophale) SiO2 
 PCOD9521787
Probable space group: I M M M
;
_chemical_formula_sum "Si O2"
_cell_formula_units_Z 100
_cell_length_a 23.263946
_cell_length_b 7.542831
_cell_length_c 30.171754
_cell_angle_alpha 90.000000
_cell_angle_beta 90.000000
_cell_angle_gamma 90.000000
_cell_volume 5294.419099
_symmetry_space_group_name_H-M "I M M M"
_symmetry_group_IT_number 71
_symmetry_cell_setting 'orthorhombic'
loop_
_space_group_symop_operation_xyz
x,y,z
-x,-y,z
x,-y,-z
-x,y,-z
-x,-y,-z
x,y,-z
-x,y,z
x,-y,z
1/2+x,1/2+y,1/2+z
1/2-x,1/2-y,1/2+z
1/2+x,1/2-y,1/2-z
1/2-x,1/2+y,1/2-z
1/2-x,1/2-y,1/2-z
1/2+x,1/2+y,1/2-z
1/2-x,1/2+y,1/2+z
1/2+x,1/2-y,1/2+z
loop_
_atom_site_type_symbol
_atom_site_label
_atom_site_fract_x
_atom_site_fract_y
_atom_site_fract_z
Si Si1 0.221181 0.789671 0.317780
Si Si2 0.063714 0.286456 0.449111
Si Si3 0.163607 0.713329 0.769849
Si Si4 0.314303 0.290558 0.086981
Si Si5 0.432523 0.789808 0.338151
Si Si6 0.144260 0.000000 0.000000
Si Si7 0.568603 0.500000 0.588348
Si Si8 0.256097 0.216752 0.500000
O O1 0.171559 0.765977 0.281140
O O2 0.279989 0.718255 0.296134
O O3 0.206412 0.715425 0.366015
O O4 0.229829 0.000000 0.322723
O O5 0.072756 0.225402 0.500000
O O6 0.062795 0.500000 0.450093
O O7 0.117873 0.233417 0.420183
O O8 0.000000 0.226591 0.434862
O O9 0.165097 0.500000 0.770226
O O10 0.107292 0.766056 0.797006
O O11 0.303456 0.500000 0.088085
O O12 0.280080 0.227659 0.043614
O O13 0.500000 0.764136 0.328275
O O14 0.418601 0.671119 0.380914
O O15 0.423134 0.000000 0.346649
O O16 0.105076 0.000000 0.043807
O O17 0.184984 0.173876 0.000000
O O18 0.500000 0.500000 0.578945
O O19 0.263125 0.000000 0.500000
#
# Coordination Sequence:
#
# PCOD9521787 Si02
#       8
#    16  16  16  16  16   4   8   8
#     4   9  19  33  51  77 109 144 179 225 287 340
#     4   9  18  32  51  73  98 134 181 232 277 321
#     4   9  18  34  54  80 108 141 183 228 278 342
#     4  10  20  35  53  76 110 148 183 234 289 340
#     4   9  19  37  62  88 115 150 193 238 287 339
#     4  12  27  40  60  94 115 162 198 234 298 350
#     4  10  23  42  62  90 122 155 197 241 285 346
#     4  10  24  41  56  84 121 152 197 245 294 345
#
# _framework density 18.887812
#
# number of rings (size 3 to 8) (size 9 to 14) (size 15 to 20)
#    0.000    2.560    0.800    0.600    4.480    1.600 
#    0.000    1.600    0.000    5.280    0.000    0.000 
#    0.000    0.000    0.000    0.000    0.000    0.000 
#
# Total GULP energy -278846.683281 kJ/mol
# GULP energy per Si atom -5576.933666 kJ/mol
# Density = 1.884482 g / cm^3
# Si number density = 18.887812 Si / 1000 Ang^3
#
#
#
# Elastic Constant Matrix: (Units=GPa)
#
#
# Indices 1 2 3 4 5 6 
#
# 1 76.0641 22.2365 74.7987 0.0000 0.0000 0.0000
# 2 22.2365 57.7014 28.8641 0.0000 0.0000 0.0000
# 3 74.7987 28.8641 166.1289 0.0000 0.0000 0.0000
# 4 0.0000 0.0000 0.0000 17.2820 0.0000 0.0000
# 5 0.0000 0.0000 0.0000 0.0000 8.8541 0.0000
# 6 0.0000 0.0000 0.0000 0.0000 0.0000 25.9407
#
#
#
# Elastic Compliance Matrix: (Units=1/GPa)
#
#
# Indices 1 2 3 4 5 6 
#
# 1 0.024530 -0.004302 -0.010297 0.000000 0.000000 0.000000
# 2 -0.004302 0.019735 -0.001492 0.000000 0.000000 0.000000
# 3 -0.010297 -0.001492 0.010915 0.000000 0.000000 0.000000
# 4 0.000000 0.000000 0.000000 0.057864 0.000000 0.000000
# 5 0.000000 0.000000 0.000000 0.000000 0.112943 0.000000
# 6 0.000000 0.000000 0.000000 0.000000 0.000000 0.038550
#
#
# Mechanical properties :
#
#
# Convention : Reuss Voigt Hill
#
# Bulk Modulus (GPa) = 43.48279 61.29922 52.39101
# Shear Modulus (GPa) = 16.42661 22.01503 19.22082
#
# Velocity S-wave (km/s) = 2.95226 3.41775 3.19349
# Velocity P-wave (km/s) = 5.89005 6.93538 6.43398
#
# Compressibility (1/GPa) = 0.02299760
#
# Stress axis : x y z
#
# Youngs Moduli (GPa) = 40.76573 50.67186 91.61823
#
# Poissons Ratio (x) = 0.21801 0.94341
# Poissons Ratio (y) = 0.17539 0.13667
# Poissons Ratio (z) = 0.41977 0.07559
#
# Static dielectric constant tensor:
#      x y z
#    x 1.647990 0.000000 0.000000 
#    y 0.000000 1.708040 0.000000 
#    z 0.000000 0.000000 1.645640 
# 
# From -- ./inp_files/70809.got.cif
#   From: 2010.05.17/outbox.cif.g08.bks.cpg/sg71_36_cif.got.tgz:70809.got - 2010.06.03 16:22:01.
