data_PCOD9521871
_publ_section_title
;
Structure prediction by ZEFSAII (Michael W. Deem and Ramdas Pophale) SiO2 
 PCOD9521871
Probable space group: I M M M
;
_chemical_formula_sum "Si O2"
_cell_formula_units_Z 104
_cell_length_a 10.998245
_cell_length_b 34.626406
_cell_length_c 14.762235
_cell_angle_alpha 90.000000
_cell_angle_beta 90.000000
_cell_angle_gamma 90.000000
_cell_volume 5621.897477
_symmetry_space_group_name_H-M "I M M M"
_symmetry_group_IT_number 71
_symmetry_cell_setting 'orthorhombic'
loop_
_space_group_symop_operation_xyz
x,y,z
-x,-y,z
x,-y,-z
-x,y,-z
-x,-y,-z
x,y,-z
-x,y,z
x,-y,z
1/2+x,1/2+y,1/2+z
1/2-x,1/2-y,1/2+z
1/2+x,1/2-y,1/2-z
1/2-x,1/2+y,1/2-z
1/2-x,1/2-y,1/2-z
1/2+x,1/2+y,1/2-z
1/2-x,1/2+y,1/2+z
1/2+x,1/2-y,1/2+z
loop_
_atom_site_type_symbol
_atom_site_label
_atom_site_fract_x
_atom_site_fract_y
_atom_site_fract_z
Si Si1 0.254437 0.580967 0.391191
Si Si2 0.634256 0.171075 0.606768
Si Si3 0.634886 0.659920 0.391656
Si Si4 0.643281 0.382386 0.890274
Si Si5 0.861931 0.245003 0.816279
Si Si6 0.857153 0.042722 0.722400
Si Si7 0.500000 0.043710 0.890672
O O1 0.275286 0.576093 0.500000
O O2 0.274450 0.625739 0.366502
O O3 0.339003 0.555537 0.326512
O O4 0.120387 0.566737 0.367155
O O5 0.630252 0.163121 0.500000
O O6 0.500000 0.159305 0.644969
O O7 0.757332 0.149807 0.639599
O O8 0.642716 0.217169 0.620684
O O9 0.632489 0.660346 0.500000
O O10 0.500000 0.648332 0.358863
O O11 0.657027 0.703453 0.361779
O O12 0.500000 0.374019 0.866969
O O13 0.683553 0.422314 0.842450
O O14 0.646569 0.385848 0.000000
O O15 0.750000 0.250000 0.750000
O O16 0.000000 0.244530 0.776907
O O17 0.000000 0.039961 0.704436
O O18 0.802752 0.000000 0.707373
O O19 0.500000 0.000000 0.854789
O O20 0.500000 0.040990 0.000000
#
# Coordination Sequence:
#
# PCOD9521871 Si02
#       7
#    16  16  16  16  16  16   8
#     4  10  20  35  55  79 108 143 184 226 271 325
#     4   9  18  35  58  80 104 138 182 228 272 323
#     4   9  18  34  55  76 101 138 179 218 266 320
#     4   9  19  36  58  81 108 143 181 224 277 333
#     4  10  21  35  52  78 110 144 179 220 269 323
#     4  10  21  35  53  80 109 138 176 223 274 327
#     4   9  18  34  54  74 103 147 189 223 266 324
#
# _framework density 18.499092000000001
#
# number of rings (size 3 to 8) (size 9 to 14) (size 15 to 20)
#    0.000    2.538    0.000    1.385    2.154    4.615 
#    2.769    2.308    0.000    0.923    0.000    2.154 
#    0.000    0.000    0.000    0.000    0.000    0.000 
#
# Total GULP energy -289479.416236 kJ/mol
# GULP energy per Si atom -5566.911851 kJ/mol
# Density = 1.845699 g / cm^3
# Si number density = 18.499092 Si / 1000 Ang^3
#
#
#
# Elastic Constant Matrix: (Units=GPa)
#
#
# Indices 1 2 3 4 5 6 
#
# 1 97.0171 84.8190 18.5728 0.0001 0.0000 0.0000
# 2 84.8190 156.0571 19.6089 0.0000 0.0000 0.0000
# 3 18.5728 19.6089 30.8366 -0.0002 -0.0001 0.0000
# 4 0.0001 0.0000 -0.0002 24.3375 0.0000 0.0000
# 5 0.0000 0.0000 -0.0001 0.0000 17.0977 -0.0001
# 6 0.0000 0.0000 0.0000 0.0000 -0.0001 25.7409
#
#
#
# Elastic Compliance Matrix: (Units=1/GPa)
#
#
# Indices 1 2 3 4 5 6 
#
# 1 0.020530 -0.010439 -0.005727 0.000000 0.000000 0.000000
# 2 -0.010439 0.012272 -0.001517 0.000000 0.000000 0.000000
# 3 -0.005727 -0.001517 0.036843 0.000000 0.000000 0.000000
# 4 0.000000 0.000000 0.000000 0.041089 0.000000 0.000000
# 5 0.000000 0.000000 0.000000 0.000000 0.058487 0.000000
# 6 0.000000 0.000000 0.000000 0.000000 0.000000 0.038849
#
#
# Mechanical properties :
#
#
# Convention : Reuss Voigt Hill
#
# Bulk Modulus (GPa) = 29.17155 58.87915 44.02535
# Shear Modulus (GPa) = 19.61847 24.16257 21.89052
#
# Velocity S-wave (km/s) = 3.26008 3.61799 3.44369
# Velocity P-wave (km/s) = 5.47487 7.02498 6.29780
#
# Compressibility (1/GPa) = 0.03427997
#
# Stress axis : x y z
#
# Youngs Moduli (GPa) = 48.70879 81.48585 27.14226
#
# Poissons Ratio (x) = 0.85061 0.15545
# Poissons Ratio (y) = 0.50846 0.04116
# Poissons Ratio (z) = 0.27897 0.12358
#
# Static dielectric constant tensor:
#      x y z
#    x 1.687750 0.000000 0.000000 
#    y 0.000000 1.677560 0.000000 
#    z 0.000000 0.000000 1.637960 
# 
# From -- ./inp_files/33292.got.cif
#   From: 2010.05.17/outbox.cif.g08.bks.cpg/sg71_17_cif.got.tgz:33292.got - 2010.06.03 16:22:01.
