data_PCOD9521045
_publ_section_title
;
Structure prediction by ZEFSAII (Michael W. Deem and Ramdas Pophale) SiO2 
 PCOD9521045
Probable space group: I M M M
;
_chemical_formula_sum "Si O2"
_cell_formula_units_Z 112
_cell_length_a 22.473545
_cell_length_b 15.610564
_cell_length_c 14.814024
_cell_angle_alpha 90.000000
_cell_angle_beta 90.000000
_cell_angle_gamma 90.000000
_cell_volume 5197.125711
_symmetry_space_group_name_H-M "I M M M"
_symmetry_group_IT_number 71
_symmetry_cell_setting 'orthorhombic'
loop_
_space_group_symop_operation_xyz
x,y,z
-x,-y,z
x,-y,-z
-x,y,-z
-x,-y,-z
x,y,-z
-x,y,z
x,-y,z
1/2+x,1/2+y,1/2+z
1/2-x,1/2-y,1/2+z
1/2+x,1/2-y,1/2-z
1/2-x,1/2+y,1/2-z
1/2-x,1/2-y,1/2-z
1/2+x,1/2+y,1/2-z
1/2-x,1/2+y,1/2+z
1/2+x,1/2-y,1/2+z
loop_
_atom_site_type_symbol
_atom_site_label
_atom_site_fract_x
_atom_site_fract_y
_atom_site_fract_z
Si Si1 0.928447 0.591434 0.290615
Si Si2 0.753380 0.248314 0.105621
Si Si3 0.607877 0.410120 0.787851
Si Si4 0.071542 0.849184 0.902084
Si Si5 0.111226 0.247411 0.399456
Si Si6 0.746878 0.398367 0.758669
Si Si7 0.927436 0.350677 0.097930
O O1 0.911064 0.500000 0.328343
O O2 0.901583 0.666317 0.347518
O O3 0.909210 0.599574 0.186659
O O4 0.000000 0.598320 0.291968
O O5 0.682406 0.261391 0.097131
O O6 0.775317 0.330445 0.167191
O O7 0.758434 0.160421 0.166361
O O8 0.775726 0.244205 0.000000
O O9 0.584912 0.500000 0.823501
O O10 0.593081 0.400344 0.683066
O O11 0.584351 0.329651 0.842015
O O12 0.679152 0.408975 0.791876
O O13 0.089307 0.749333 0.892260
O O14 0.000000 0.850818 0.902224
O O15 0.092305 0.880241 0.000000
O O16 0.087199 0.249159 0.500000
O O17 0.768653 0.500000 0.749744
O O18 0.000000 0.353193 0.096077
O O19 0.906741 0.382090 0.000000
#
# Coordination Sequence:
#
# PCOD9521045 Si02
#       7
#    16  16  16  16  16  16  16
#     4  10  20  33  51  75 102 134 173 217 264 309
#     4   9  19  36  57  80 104 135 174 211 255 312
#     4  10  20  34  54  79 104 133 169 209 256 305
#     4   9  17  30  49  73 103 138 171 203 245 301
#     4  10  21  37  55  74  99 134 174 216 259 300
#     4   9  19  35  55  81 109 134 166 213 263 308
#     4   8  14  27  48  71  95 127 166 204 246 298
#
# _framework density 21.550373
#
# number of rings (size 3 to 8) (size 9 to 14) (size 15 to 20)
#    0.000    2.714    1.429    0.857    0.000    3.429 
#    0.000    8.571    0.000    0.000    0.000    4.000 
#    0.000    0.000    0.000    0.000    0.000    0.000 
#
# Total GULP energy -312140.364831 kJ/mol
# GULP energy per Si atom -5573.935086 kJ/mol
# Density = 2.150132 g / cm^3
# Si number density = 21.550373 Si / 1000 Ang^3
#
#
#
# Elastic Constant Matrix: (Units=GPa)
#
#
# Indices 1 2 3 4 5 6 
#
# 1 29.0103 16.1439 3.1273 0.0000 0.0000 0.0000
# 2 16.1439 157.5077 84.7923 0.0000 0.0000 0.0000
# 3 3.1273 84.7923 141.6664 0.0000 0.0000 0.0000
# 4 0.0000 0.0000 0.0000 -60.9013 0.0000 0.0000
# 5 0.0000 0.0000 0.0000 0.0000 21.7192 0.0000
# 6 0.0000 0.0000 0.0000 0.0000 0.0000 38.0704
#
#
#
# Elastic Compliance Matrix: (Units=1/GPa)
#
#
# Indices 1 2 3 4 5 6 
#
# 1 0.036991 -0.004945 0.002143 0.000000 0.000000 0.000000
# 2 -0.004945 0.010028 -0.005893 0.000000 0.000000 0.000000
# 3 0.002143 -0.005893 0.010539 0.000000 0.000000 0.000000
# 4 0.000000 0.000000 0.000000 -0.016420 0.000000 0.000000
# 5 0.000000 0.000000 0.000000 0.000000 0.046042 0.000000
# 6 0.000000 0.000000 0.000000 0.000000 0.000000 0.026267
#
#
# Mechanical properties :
#
#
# Convention : Reuss Voigt Hill
#
# Bulk Modulus (GPa) = 24.89521 59.59016 42.24269
# Shear Modulus (GPa) = 34.66749 14.71905 24.69327
#
# Velocity S-wave (km/s) = 4.01518 2.61628 3.38870
# Velocity P-wave (km/s) = 5.75089 6.06944 5.91231
#
# Compressibility (1/GPa) = 0.04016837
#
# Stress axis : x y z
#
# Youngs Moduli (GPa) = 27.03325 99.71844 94.88797
#
# Poissons Ratio (x) = 0.49314 -0.20338
# Poissons Ratio (y) = 0.13369 0.55918
# Poissons Ratio (z) = -0.05794 0.58765
#
# Static dielectric constant tensor:
#      x y z
#    x 1.833900 0.000000 0.000000 
#    y 0.000000 1.831940 0.000000 
#    z 0.000000 0.000000 1.776070 
# 
# From -- ./inp_files/39251.got.cif
#   From: 2010.05.17/outbox.cif.g08.bks.cpg/sg71_20_cif.got.tgz:39251.got - 2010.06.03 16:22:01.
