data_PCOD9521734
_publ_section_title
;
Structure prediction by ZEFSAII (Michael W. Deem and Ramdas Pophale) SiO2 
 PCOD9521734
Probable space group: I M M M
;
_chemical_formula_sum "Si O2"
_cell_formula_units_Z 104
_cell_length_a 16.606651
_cell_length_b 23.984773
_cell_length_c 14.841603
_cell_angle_alpha 90.000000
_cell_angle_beta 90.000000
_cell_angle_gamma 90.000000
_cell_volume 5911.510723
_symmetry_space_group_name_H-M "I M M M"
_symmetry_group_IT_number 71
_symmetry_cell_setting 'orthorhombic'
loop_
_space_group_symop_operation_xyz
x,y,z
-x,-y,z
x,-y,-z
-x,y,-z
-x,-y,-z
x,y,-z
-x,y,z
x,-y,z
1/2+x,1/2+y,1/2+z
1/2-x,1/2-y,1/2+z
1/2+x,1/2-y,1/2-z
1/2-x,1/2+y,1/2-z
1/2-x,1/2-y,1/2-z
1/2+x,1/2+y,1/2-z
1/2-x,1/2+y,1/2+z
1/2+x,1/2-y,1/2+z
loop_
_atom_site_type_symbol
_atom_site_label
_atom_site_fract_x
_atom_site_fract_y
_atom_site_fract_z
Si Si1 0.342099 0.738062 0.224397
Si Si2 0.665117 0.610309 0.178475
Si Si3 0.672777 0.095847 0.402337
Si Si4 0.404462 0.841810 0.892527
Si Si5 0.000000 0.933830 0.396776
Si Si6 0.906637 0.283733 0.099186
Si Si7 0.194029 0.563733 0.710626
O O1 0.250000 0.750000 0.250000
O O2 0.346534 0.676338 0.185687
O O3 0.374760 0.785778 0.157750
O O4 0.389317 0.743497 0.318400
O O5 0.730186 0.596049 0.101141
O O6 0.579975 0.584064 0.156177
O O7 0.716212 0.587235 0.264801
O O8 0.644079 0.075654 0.500000
O O9 0.644349 0.159713 0.390733
O O10 0.650787 0.065420 0.309595
O O11 0.500000 0.849369 0.874567
O O12 0.353291 0.893421 0.852715
O O13 0.393307 0.837288 0.000000
O O14 0.000000 0.911052 0.500000
O O15 0.000000 0.000000 0.402971
O O16 0.000000 0.300048 0.101201
O O17 0.888605 0.259815 0.000000
O O18 0.196899 0.500000 0.678782
#
# Coordination Sequence:
#
# PCOD9521734 Si02
#       7
#    16  16  16  16   8  16  16
#     4  12  20  39  59  86 120 155 195 246 299 361
#     4  10  22  37  56  88 118 159 201 246 302 360
#     4   9  18  34  56  83 115 150 190 237 295 357
#     4  11  25  42  62  91 127 164 203 254 310 362
#     4  11  24  40  58  86 125 165 208 256 306 367
#     4  10  20  34  57  84 114 152 188 230 290 356
#     4  10  21  40  62  85 117 159 207 254 302 361
#
# _framework density 17.592796
#
# number of rings (size 3 to 8) (size 9 to 14) (size 15 to 20)
#    0.923    0.692    4.615    1.385    2.154    2.769 
#    0.000    0.769    0.000    0.000    0.000    3.231 
#    0.000    2.462    0.000    0.000    0.000    0.000 
#
# Total GULP energy -289575.583993 kJ/mol
# GULP energy per Si atom -5568.761231 kJ/mol
# Density = 1.755275 g / cm^3
# Si number density = 17.592796 Si / 1000 Ang^3
#
#
#
# Elastic Constant Matrix: (Units=GPa)
#
#
# Indices 1 2 3 4 5 6 
#
# 1 101.3826 30.6515 39.0422 0.0000 0.0000 0.0000
# 2 30.6515 109.7477 38.4000 0.0000 0.0000 0.0000
# 3 39.0422 38.4000 90.3811 0.0000 0.0000 0.0000
# 4 0.0000 0.0000 0.0000 -3.6283 0.0000 0.0000
# 5 0.0000 0.0000 0.0000 0.0000 24.1589 0.0000
# 6 0.0000 0.0000 0.0000 0.0000 0.0000 17.2130
#
#
#
# Elastic Compliance Matrix: (Units=1/GPa)
#
#
# Indices 1 2 3 4 5 6 
#
# 1 0.012136 -0.001827 -0.004466 0.000000 0.000000 0.000000
# 2 -0.001827 0.010978 -0.003875 0.000000 0.000000 0.000000
# 3 -0.004466 -0.003875 0.014640 0.000000 0.000000 0.000000
# 4 0.000000 0.000000 0.000000 -0.275612 0.000000 0.000000
# 5 0.000000 0.000000 0.000000 0.000000 0.041393 0.000000
# 6 0.000000 0.000000 0.000000 0.000000 0.000000 0.058096
#
#
# Mechanical properties :
#
#
# Convention : Reuss Voigt Hill
#
# Bulk Modulus (GPa) = 57.41312 57.52209 57.46760
# Shear Modulus (GPa) = -44.55207 20.44323 -12.05442
#
# Velocity S-wave (km/s) = -5.03776 3.41254 -2.62045
# Velocity P-wave (km/s) = 1.06461 6.94943 4.85599
#
# Compressibility (1/GPa) = 0.01741762
#
# Stress axis : x y z
#
# Youngs Moduli (GPa) = 82.40055 91.09259 68.30631
#
# Poissons Ratio (x) = 0.16640 0.30507
# Poissons Ratio (y) = 0.15052 0.26469
# Poissons Ratio (z) = 0.36802 0.35299
#
# Static dielectric constant tensor:
#      x y z
#    x 1.606890 0.000000 0.000000 
#    y 0.000000 1.585730 0.000000 
#    z 0.000000 0.000000 1.628440 
# 
# From -- ./inp_files/36923.got.cif
#   From: 2010.05.17/outbox.cif.g08.bks.cpg/sg71_19_cif.got.tgz:36923.got - 2010.06.03 16:22:01.
