data_PCOD9521293
_publ_section_title
;
Structure prediction by ZEFSAII (Michael W. Deem and Ramdas Pophale) SiO2 
 PCOD9521293
Probable space group: I M M M
;
_chemical_formula_sum "Si O2"
_cell_formula_units_Z 72
_cell_length_a 14.660139
_cell_length_b 8.649479
_cell_length_c 32.102289
_cell_angle_alpha 90.000000
_cell_angle_beta 90.000000
_cell_angle_gamma 90.000000
_cell_volume 4070.652569
_symmetry_space_group_name_H-M "I M M M"
_symmetry_group_IT_number 71
_symmetry_cell_setting 'orthorhombic'
loop_
_space_group_symop_operation_xyz
x,y,z
-x,-y,z
x,-y,-z
-x,y,-z
-x,-y,-z
x,y,-z
-x,y,z
x,-y,z
1/2+x,1/2+y,1/2+z
1/2-x,1/2-y,1/2+z
1/2+x,1/2-y,1/2-z
1/2-x,1/2+y,1/2-z
1/2-x,1/2-y,1/2-z
1/2+x,1/2+y,1/2-z
1/2-x,1/2+y,1/2+z
1/2+x,1/2-y,1/2+z
loop_
_atom_site_type_symbol
_atom_site_label
_atom_site_fract_x
_atom_site_fract_y
_atom_site_fract_z
Si Si1 0.307485 0.315073 0.288760
Si Si2 0.500000 0.673126 0.951094
Si Si3 0.500000 0.814511 0.162623
Si Si4 0.195801 0.316419 0.452356
Si Si5 0.803717 0.184305 0.366286
Si Si6 0.500000 0.185333 0.738096
O O1 0.304125 0.500000 0.288473
O O2 0.250000 0.250000 0.250000
O O3 0.260539 0.251850 0.330381
O O4 0.409943 0.255799 0.282417
O O5 0.500000 0.500000 0.931124
O O6 0.590021 0.772621 0.945146
O O7 0.500000 0.645845 0.000000
O O8 0.593457 0.747002 0.143295
O O9 0.500000 0.780435 0.212199
O O10 0.500000 0.000000 0.157045
O O11 0.219925 0.265881 0.500000
O O12 0.208821 0.500000 0.450382
O O13 0.235922 0.235740 0.411397
O O14 0.807038 0.000000 0.364455
O O15 0.500000 0.000000 0.733826
#
# Coordination Sequence:
#
# PCOD9521293 Si02
#       6
#    16   8   8  16  16   8
#     4  12  24  40  61  86 116 150 189 234 282 336
#     4   9  16  27  44  67  98 137 180 224 271 326
#     4  11  22  36  56  80 113 152 194 238 281 337
#     4  10  20  34  51  72 103 143 186 232 282 335
#     4  12  24  37  56  82 114 151 193 238 284 338
#     4  11  23  40  62  86 114 152 190 232 283 336
#
# _framework density 17.687581000000002
#
# number of rings (size 3 to 8) (size 9 to 14) (size 15 to 20)
#    0.000    1.000    2.222    6.333    0.000    3.556 
#    0.000    0.000    0.000    0.000    0.000    0.778 
#    0.000    6.222    0.000    0.000    0.000    0.000 
#
# Total GULP energy -200949.298211 kJ/mol
# GULP energy per Si atom -5581.924950 kJ/mol
# Density = 1.764732 g / cm^3
# Si number density = 17.687581 Si / 1000 Ang^3
#
#
#
# Elastic Constant Matrix: (Units=GPa)
#
#
# Indices 1 2 3 4 5 6 
#
# 1 96.9624 43.2674 64.3629 0.0000 0.0000 0.0000
# 2 43.2674 133.6767 73.7575 0.0000 0.0000 0.0000
# 3 64.3629 73.7575 181.4881 0.0000 0.0000 0.0000
# 4 0.0000 0.0000 0.0000 30.7084 0.0000 0.0000
# 5 0.0000 0.0000 0.0000 0.0000 63.6175 0.0000
# 6 0.0000 0.0000 0.0000 0.0000 0.0000 24.5281
#
#
#
# Elastic Compliance Matrix: (Units=1/GPa)
#
#
# Indices 1 2 3 4 5 6 
#
# 1 0.014023 -0.002314 -0.004033 0.000000 0.000000 0.000000
# 2 -0.002314 0.010025 -0.003254 0.000000 0.000000 0.000000
# 3 -0.004033 -0.003254 0.008262 0.000000 0.000000 0.000000
# 4 0.000000 0.000000 0.000000 0.032564 0.000000 0.000000
# 5 0.000000 0.000000 0.000000 0.000000 0.015719 0.000000
# 6 0.000000 0.000000 0.000000 0.000000 0.000000 0.040770
#
#
# Mechanical properties :
#
#
# Convention : Reuss Voigt Hill
#
# Bulk Modulus (GPa) = 76.27803 86.10029 81.18916
# Shear Modulus (GPa) = 34.49882 39.15344 36.82613
#
# Velocity S-wave (km/s) = 4.42119 4.71001 4.56788
# Velocity P-wave (km/s) = 8.32354 8.85229 8.59198
#
# Compressibility (1/GPa) = 0.01310993
#
# Stress axis : x y z
#
# Youngs Moduli (GPa) = 71.31368 99.75249 121.02969
#
# Poissons Ratio (x) = 0.23079 0.48807
# Poissons Ratio (y) = 0.16499 0.39378
# Poissons Ratio (z) = 0.28759 0.32456
#
# Static dielectric constant tensor:
#      x y z
#    x 1.734430 0.000000 0.000000 
#    y 0.000000 1.602950 0.000000 
#    z 0.000000 0.000000 1.674800 
# 
# From -- ./inp_files/69734.got.cif
#   From: 2010.05.17/outbox.cif.g08.bks.cpg/sg71_35_cif.got.tgz:69734.got - 2010.06.03 16:22:01.
