data_PCOD9521912
_publ_section_title
;
Structure prediction by ZEFSAII (Michael W. Deem and Ramdas Pophale) SiO2 
 PCOD9521912
Probable space group: I M M M
;
_chemical_formula_sum "Si O2"
_cell_formula_units_Z 80
_cell_length_a 26.532196
_cell_length_b 9.356386
_cell_length_c 15.524560
_cell_angle_alpha 90.000000
_cell_angle_beta 90.000000
_cell_angle_gamma 90.000000
_cell_volume 3853.901650
_symmetry_space_group_name_H-M "I M M M"
_symmetry_group_IT_number 71
_symmetry_cell_setting 'orthorhombic'
loop_
_space_group_symop_operation_xyz
x,y,z
-x,-y,z
x,-y,-z
-x,y,-z
-x,-y,-z
x,y,-z
-x,y,z
x,-y,z
1/2+x,1/2+y,1/2+z
1/2-x,1/2-y,1/2+z
1/2+x,1/2-y,1/2-z
1/2-x,1/2+y,1/2-z
1/2-x,1/2-y,1/2-z
1/2+x,1/2+y,1/2-z
1/2-x,1/2+y,1/2+z
1/2+x,1/2-y,1/2+z
loop_
_atom_site_type_symbol
_atom_site_label
_atom_site_fract_x
_atom_site_fract_y
_atom_site_fract_z
Si Si1 0.696910 0.335700 0.394389
Si Si2 0.399767 0.161088 0.602077
Si Si3 0.704318 0.662754 0.894544
Si Si4 0.609757 0.840108 0.896581
Si Si5 0.000000 0.830731 0.852088
Si Si6 0.500000 0.166806 0.179931
O O1 0.696115 0.336028 0.500000
O O2 0.693782 0.500000 0.366805
O O3 0.648993 0.244215 0.363565
O O4 0.748937 0.261220 0.368029
O O5 0.391663 0.146953 0.500000
O O6 0.449872 0.254414 0.612850
O O7 0.405523 0.000000 0.637911
O O8 0.711190 0.500000 0.866430
O O9 0.651046 0.727592 0.865273
O O10 0.704179 0.662552 0.000000
O O11 0.552030 0.814950 0.871154
O O12 0.623877 0.000000 0.866988
O O13 0.612125 0.839543 0.000000
O O14 0.000000 0.786024 0.752736
O O15 0.000000 0.000000 0.867696
O O16 0.500000 0.000000 0.211594
#
# Coordination Sequence:
#
# PCOD9521912 Si02
#       6
#    16  16  16  16   8   8
#     4   9  16  27  46  74 106 136 167 206 251 299
#     4  10  20  35  56  80 105 134 170 212 257 305
#     4   9  16  26  43  71 106 139 169 205 251 301
#     4   9  17  31  53  79 104 133 172 216 259 304
#     4  12  25  38  53  74 103 138 175 214 256 306
#     4  10  21  37  55  74 101 137 175 216 262 310
#
# _framework density 20.758184
#
# number of rings (size 3 to 8) (size 9 to 14) (size 15 to 20)
#    0.000    2.400    0.000    3.300    0.000    9.200 
#    0.000    0.000    0.000    4.200    0.000    0.000 
#    0.000    0.000    0.000    0.000    0.000    0.000 
#
# Total GULP energy -223317.559859 kJ/mol
# GULP energy per Si atom -5582.938996 kJ/mol
# Density = 2.071094 g / cm^3
# Si number density = 20.758184 Si / 1000 Ang^3
#
#
#
# Elastic Constant Matrix: (Units=GPa)
#
#
# Indices 1 2 3 4 5 6 
#
# 1 177.5095 113.4981 1.3183 0.0000 0.0000 0.0000
# 2 113.4981 200.9239 11.9596 0.0000 0.0000 0.0000
# 3 1.3183 11.9596 17.2965 0.0000 0.0000 0.0000
# 4 0.0000 0.0000 0.0000 12.2110 0.0000 0.0000
# 5 0.0000 0.0000 0.0000 0.0000 -33.6008 0.0000
# 6 0.0000 0.0000 0.0000 0.0000 0.0000 36.4293
#
#
#
# Elastic Compliance Matrix: (Units=1/GPa)
#
#
# Indices 1 2 3 4 5 6 
#
# 1 0.008959 -0.005236 0.002937 0.000000 0.000000 0.000000
# 2 -0.005236 0.008250 -0.005306 0.000000 0.000000 0.000000
# 3 0.002937 -0.005306 0.061260 0.000000 0.000000 0.000000
# 4 0.000000 0.000000 0.000000 0.081894 0.000000 0.000000
# 5 0.000000 0.000000 0.000000 0.000000 -0.029761 0.000000
# 6 0.000000 0.000000 0.000000 0.000000 0.000000 0.027450
#
#
# Mechanical properties :
#
#
# Convention : Reuss Voigt Hill
#
# Bulk Modulus (GPa) = 15.80734 72.14241 43.97488
# Shear Modulus (GPa) = 25.72701 20.93815 23.33258
#
# Velocity S-wave (km/s) = 3.52428 3.17940 3.35628
# Velocity P-wave (km/s) = 4.91857 6.95034 6.02078
#
# Compressibility (1/GPa) = 0.06326174
#
# Stress axis : x y z
#
# Youngs Moduli (GPa) = 111.61387 121.20524 16.32386
#
# Poissons Ratio (x) = 0.63462 -0.04795
# Poissons Ratio (y) = 0.58440 0.08661
# Poissons Ratio (z) = -0.32786 0.64308
#
# Static dielectric constant tensor:
#      x y z
#    x 1.741260 0.000000 0.000000 
#    y 0.000000 1.769110 0.000000 
#    z 0.000000 0.000000 1.786680 
# 
# From -- ./inp_files/48600.got.cif
#   From: 2010.05.17/outbox.cif.g08.bks.cpg/sg71_25_cif.got.tgz:48600.got - 2010.06.03 16:22:01.
