data_PCOD9521151
_publ_section_title
;
Structure prediction by ZEFSAII (Michael W. Deem and Ramdas Pophale) SiO2 
 PCOD9521151
Probable space group: I M M M
;
_chemical_formula_sum "Si O2"
_cell_formula_units_Z 116
_cell_length_a 25.786059
_cell_length_b 7.509757
_cell_length_c 29.414181
_cell_angle_alpha 90.000000
_cell_angle_beta 90.000000
_cell_angle_gamma 90.000000
_cell_volume 5695.968999
_symmetry_space_group_name_H-M "I M M M"
_symmetry_group_IT_number 71
_symmetry_cell_setting 'orthorhombic'
loop_
_space_group_symop_operation_xyz
x,y,z
-x,-y,z
x,-y,-z
-x,y,-z
-x,-y,-z
x,y,-z
-x,y,z
x,-y,z
1/2+x,1/2+y,1/2+z
1/2-x,1/2-y,1/2+z
1/2+x,1/2-y,1/2-z
1/2-x,1/2+y,1/2-z
1/2-x,1/2-y,1/2-z
1/2+x,1/2+y,1/2-z
1/2-x,1/2+y,1/2+z
1/2+x,1/2-y,1/2+z
loop_
_atom_site_type_symbol
_atom_site_label
_atom_site_fract_x
_atom_site_fract_y
_atom_site_fract_z
Si Si1 0.266392 0.714966 0.051579
Si Si2 0.312045 0.792581 0.143446
Si Si3 0.648796 0.783027 0.552376
Si Si4 0.219998 0.212745 0.796680
Si Si5 0.500000 0.000000 0.154737
Si Si6 0.920452 0.795317 0.315015
Si Si7 0.057080 0.288403 0.883147
Si Si8 0.897041 0.785751 0.213362
O O1 0.266074 0.500000 0.051822
O O2 0.306433 0.776009 0.089520
O O3 0.207548 0.775739 0.062994
O O4 0.277782 0.772264 0.000000
O O5 0.258289 0.718704 0.164266
O O6 0.362042 0.704855 0.165552
O O7 0.315347 0.000000 0.156027
O O8 0.637353 0.734407 0.500000
O O9 0.605001 0.717717 0.586998
O O10 0.649545 0.000000 0.554097
O O11 0.250000 0.250000 0.750000
O O12 0.161549 0.283510 0.794616
O O13 0.215158 0.000000 0.802454
O O14 0.455096 0.842868 0.157704
O O15 0.918435 0.730183 0.262418
O O16 0.938991 0.000000 0.315898
O O17 0.055625 0.500000 0.891706
O O18 0.068872 0.262716 0.829999
O O19 0.000000 0.216128 0.894449
O O20 0.894576 0.000000 0.215744
#
# Coordination Sequence:
#
# PCOD9521151 Si02
#       8
#    16  16  16  16   4  16  16  16
#     4   9  18  33  56  84 115 152 191 235 296 367
#     4  11  21  35  57  88 122 156 195 244 299 358
#     4   8  15  31  52  76 107 144 190 245 306 366
#     4  10  20  33  52  78 112 149 189 237 293 358
#     4  12  26  44  64  86 121 158 207 260 294 340
#     4  11  24  41  63  88 117 161 205 248 301 352
#     4  10  21  32  49  75 102 142 196 254 308 353
#     4  10  22  37  52  76 110 151 199 243 299 359
#
# _framework density 20.365278
#
# number of rings (size 3 to 8) (size 9 to 14) (size 15 to 20)
#    0.000    2.069    2.069    2.276    1.931    1.931 
#    0.000    1.379    0.000    1.241    0.000    1.931 
#    0.000    2.207    0.000    0.000    0.000    0.000 
#
# Total GULP energy -323436.433483 kJ/mol
# GULP energy per Si atom -5576.490232 kJ/mol
# Density = 2.031893 g / cm^3
# Si number density = 20.365278 Si / 1000 Ang^3
#
#
#
# Elastic Constant Matrix: (Units=GPa)
#
#
# Indices 1 2 3 4 5 6 
#
# 1 27.9144 4.3431 7.5105 0.0000 0.0000 0.0000
# 2 4.3431 74.7083 -9.3319 0.0000 0.0000 0.0000
# 3 7.5105 -9.3319 80.8338 0.0000 0.0000 0.0000
# 4 0.0000 0.0000 0.0000 15.8129 0.0000 0.0000
# 5 0.0000 0.0000 0.0000 0.0000 31.8718 0.0000
# 6 0.0000 0.0000 0.0000 0.0000 0.0000 46.8762
#
#
#
# Elastic Compliance Matrix: (Units=1/GPa)
#
#
# Indices 1 2 3 4 5 6 
#
# 1 0.037247 -0.002636 -0.003765 0.000000 0.000000 0.000000
# 2 -0.002636 0.013768 0.001834 0.000000 0.000000 0.000000
# 3 -0.003765 0.001834 0.012933 0.000000 0.000000 0.000000
# 4 0.000000 0.000000 0.000000 0.063239 0.000000 0.000000
# 5 0.000000 0.000000 0.000000 0.000000 0.031376 0.000000
# 6 0.000000 0.000000 0.000000 0.000000 0.000000 0.021333
#
#
# Mechanical properties :
#
#
# Convention : Reuss Voigt Hill
#
# Bulk Modulus (GPa) = 18.24329 20.94444 19.59386
# Shear Modulus (GPa) = 24.11972 30.97450 27.54711
#
# Velocity S-wave (km/s) = 3.44518 3.90416 3.68183
# Velocity P-wave (km/s) = 4.98028 5.53444 5.26466
#
# Compressibility (1/GPa) = 0.05481469
#
# Stress axis : x y z
#
# Youngs Moduli (GPa) = 26.84790 72.63362 77.32375
#
# Poissons Ratio (x) = 0.19143 0.29112
# Poissons Ratio (y) = 0.07076 -0.14183
# Poissons Ratio (z) = 0.10108 -0.13323
#
# Static dielectric constant tensor:
#      x y z
#    x 1.740820 0.000000 0.000000 
#    y 0.000000 1.754050 0.000000 
#    z 0.000000 0.000000 1.713300 
# 
# From -- ./inp_files/67126.got.cif
#   From: 2010.05.17/outbox.cif.g08.bks.cpg/sg71_34_cif.got.tgz:67126.got - 2010.06.03 16:22:01.
