data_PCOD9521945
_publ_section_title
;
Structure prediction by ZEFSAII (Michael W. Deem and Ramdas Pophale) SiO2 
 PCOD9521945
Probable space group: I M M M
;
_chemical_formula_sum "Si O2"
_cell_formula_units_Z 104
_cell_length_a 8.825462
_cell_length_b 28.080763
_cell_length_c 23.159296
_cell_angle_alpha 90.000000
_cell_angle_beta 90.000000
_cell_angle_gamma 90.000000
_cell_volume 5739.468900
_symmetry_space_group_name_H-M "I M M M"
_symmetry_group_IT_number 71
_symmetry_cell_setting 'orthorhombic'
loop_
_space_group_symop_operation_xyz
x,y,z
-x,-y,z
x,-y,-z
-x,y,-z
-x,-y,-z
x,y,-z
-x,y,z
x,-y,z
1/2+x,1/2+y,1/2+z
1/2-x,1/2-y,1/2+z
1/2+x,1/2-y,1/2-z
1/2-x,1/2+y,1/2-z
1/2-x,1/2-y,1/2-z
1/2+x,1/2+y,1/2-z
1/2-x,1/2+y,1/2+z
1/2+x,1/2-y,1/2+z
loop_
_atom_site_type_symbol
_atom_site_label
_atom_site_fract_x
_atom_site_fract_y
_atom_site_fract_z
Si Si1 0.320816 0.856149 0.368356
Si Si2 0.824856 0.098798 0.069476
Si Si3 0.679410 0.761078 0.433742
Si Si4 0.317222 0.554965 0.067186
Si Si5 0.325299 0.000000 0.929803
Si Si6 0.322953 0.180000 0.859149
Si Si7 0.320286 0.302904 0.241954
O O1 0.500000 0.861340 0.358239
O O2 0.299427 0.816261 0.418170
O O3 0.252246 0.905683 0.390552
O O4 0.246466 0.832414 0.311709
O O5 0.719282 0.138864 0.096166
O O6 0.000000 0.105887 0.086394
O O7 0.763305 0.047306 0.087912
O O8 0.818512 0.101194 0.000000
O O9 0.720620 0.751153 0.500000
O O10 0.500000 0.750046 0.426460
O O11 0.772623 0.729014 0.389559
O O12 0.500000 0.557833 0.070024
O O13 0.274625 0.500000 0.080600
O O14 0.273498 0.564140 0.000000
O O15 0.500000 0.000000 0.910443
O O16 0.327435 0.000000 0.000000
O O17 0.500000 0.181047 0.845419
O O18 0.226554 0.171982 0.801517
O O19 0.500000 0.298555 0.235874
O O20 0.250000 0.250000 0.250000
#
# Coordination Sequence:
#
# PCOD9521945 Si02
#       7
#    16  16  16  16   8  16  16
#     4  11  22  37  60  88 118 155 197 243 293 348
#     4  10  20  35  56  82 114 151 188 230 284 342
#     4  10  21  36  54  80 117 155 188 230 285 343
#     4   9  19  37  61  90 125 163 202 246 298 356
#     4   9  17  31  53  81 111 143 183 229 274 329
#     4  12  24  37  56  82 112 150 192 237 286 339
#     4  12  24  41  62  84 111 150 195 238 284 340
#
# _framework density 18.120142999999999
#
# number of rings (size 3 to 8) (size 9 to 14) (size 15 to 20)
#    0.000    1.462    1.538    5.308    0.000    5.846 
#    0.000    0.769    1.692    0.000    0.000    0.000 
#    0.000    0.000    0.000    0.000    0.000    0.000 
#
# Total GULP energy -290455.550255 kJ/mol
# GULP energy per Si atom -5585.683659 kJ/mol
# Density = 1.807890 g / cm^3
# Si number density = 18.120143 Si / 1000 Ang^3
#
#
#
# Elastic Constant Matrix: (Units=GPa)
#
#
# Indices 1 2 3 4 5 6 
#
# 1 88.6380 49.7104 42.8904 0.0000 0.0000 0.0000
# 2 49.7104 119.8392 42.8194 0.0000 0.0000 0.0000
# 3 42.8904 42.8194 83.4091 0.0001 0.0000 0.0000
# 4 0.0000 0.0000 0.0001 20.2976 0.0000 0.0000
# 5 0.0000 0.0000 0.0000 0.0000 25.1403 0.0000
# 6 0.0000 0.0000 0.0000 0.0000 0.0000 30.4931
#
#
#
# Elastic Compliance Matrix: (Units=1/GPa)
#
#
# Indices 1 2 3 4 5 6 
#
# 1 0.017022 -0.004817 -0.006280 0.000000 0.000000 0.000000
# 2 -0.004817 0.011582 -0.003469 0.000000 0.000000 0.000000
# 3 -0.006280 -0.003469 0.016999 0.000000 0.000000 0.000000
# 4 0.000000 0.000000 0.000000 0.049267 0.000000 0.000000
# 5 0.000000 0.000000 0.000000 0.000000 0.039777 0.000000
# 6 0.000000 0.000000 0.000000 0.000000 0.000000 0.032794
#
#
# Mechanical properties :
#
#
# Convention : Reuss Voigt Hill
#
# Bulk Modulus (GPa) = 60.71122 62.52517 61.61820
# Shear Modulus (GPa) = 24.74459 25.61727 25.18093
#
# Velocity S-wave (km/s) = 3.69939 3.76406 3.73187
# Velocity P-wave (km/s) = 7.19895 7.31243 7.25591
#
# Compressibility (1/GPa) = 0.01647142
#
# Stress axis : x y z
#
# Youngs Moduli (GPa) = 58.74670 86.34013 58.82591
#
# Poissons Ratio (x) = 0.41590 0.36944
# Poissons Ratio (y) = 0.28298 0.20406
# Poissons Ratio (z) = 0.36894 0.29950
#
# Static dielectric constant tensor:
#      x y z
#    x 1.610900 0.000000 0.000000 
#    y 0.000000 1.622410 0.000000 
#    z 0.000000 0.000000 1.625510 
# 
# From -- ./inp_files/50938.got.cif
#   From: 2010.05.17/outbox.cif.g08.bks.cpg/sg71_26_cif.got.tgz:50938.got - 2010.06.03 16:22:01.
