data_PCOD9521201
_publ_section_title
;
Structure prediction by ZEFSAII (Michael W. Deem and Ramdas Pophale) SiO2 
 PCOD9521201
Probable space group: I M M M
;
_chemical_formula_sum "Si O2"
_cell_formula_units_Z 56
_cell_length_a 7.920739
_cell_length_b 9.698077
_cell_length_c 40.648246
_cell_angle_alpha 90.000000
_cell_angle_beta 90.000000
_cell_angle_gamma 90.000000
_cell_volume 3122.433092
_symmetry_space_group_name_H-M "I M M M"
_symmetry_group_IT_number 71
_symmetry_cell_setting 'orthorhombic'
loop_
_space_group_symop_operation_xyz
x,y,z
-x,-y,z
x,-y,-z
-x,y,-z
-x,-y,-z
x,y,-z
-x,y,z
x,-y,z
1/2+x,1/2+y,1/2+z
1/2-x,1/2-y,1/2+z
1/2+x,1/2-y,1/2-z
1/2-x,1/2+y,1/2-z
1/2-x,1/2-y,1/2-z
1/2+x,1/2+y,1/2-z
1/2-x,1/2+y,1/2+z
1/2+x,1/2-y,1/2+z
loop_
_atom_site_type_symbol
_atom_site_label
_atom_site_fract_x
_atom_site_fract_y
_atom_site_fract_z
Si Si1 0.296913 0.656391 0.780584
Si Si2 0.203573 0.163325 0.353861
Si Si3 0.309396 0.335930 0.583813
Si Si4 0.500000 0.832423 0.037538
O O1 0.500000 0.651031 0.782286
O O2 0.234751 0.500000 0.775663
O O3 0.250000 0.750000 0.750000
O O4 0.240624 0.704265 0.816913
O O5 0.284234 0.252952 0.382496
O O6 0.000000 0.179700 0.356031
O O7 0.239484 0.000000 0.357663
O O8 0.500000 0.315230 0.571387
O O9 0.286950 0.500000 0.589919
O O10 0.166426 0.291657 0.557890
O O11 0.500000 0.000000 0.036405
O O12 0.500000 0.782600 0.000000
#
# Coordination Sequence:
#
# PCOD9521201 Si02
#       4
#    16  16  16   8
#     4   9  19  34  50  71 100 134 174 217 261 312
#     4   9  18  34  54  73  99 139 180 218 264 316
#     4  10  20  33  53  82 109 136 176 219 260 312
#     4   9  18  34  55  79 111 145 173 213 267 315
#
# _framework density 17.934730999999999
#
# number of rings (size 3 to 8) (size 9 to 14) (size 15 to 20)
#    0.000    2.714    1.429    1.714    0.000    4.000 
#    0.000   11.429    0.000    1.714    0.000    2.000 
#    0.000    0.000    0.000    0.000    0.000    0.000 
#
# Total GULP energy -156104.390074 kJ/mol
# GULP energy per Si atom -5575.156788 kJ/mol
# Density = 1.789391 g / cm^3
# Si number density = 17.934731 Si / 1000 Ang^3
#
#
#
# Elastic Constant Matrix: (Units=GPa)
#
#
# Indices 1 2 3 4 5 6 
#
# 1 89.2161 33.6411 69.2746 0.0000 0.0000 0.0000
# 2 33.6411 30.6734 54.0470 0.0000 0.0000 0.0000
# 3 69.2746 54.0470 169.6835 0.0000 0.0000 0.0000
# 4 0.0000 0.0000 0.0000 25.3145 0.0000 0.0000
# 5 0.0000 0.0000 0.0000 0.0000 19.1141 0.0000
# 6 0.0000 0.0000 0.0000 0.0000 0.0000 21.8382
#
#
#
# Elastic Compliance Matrix: (Units=1/GPa)
#
#
# Indices 1 2 3 4 5 6 
#
# 1 0.019617 -0.016873 -0.002634 0.000000 0.000000 0.000000
# 2 -0.016873 0.088815 -0.021401 0.000000 0.000000 0.000000
# 3 -0.002634 -0.021401 0.013785 0.000000 0.000000 0.000000
# 4 0.000000 0.000000 0.000000 0.039503 0.000000 0.000000
# 5 0.000000 0.000000 0.000000 0.000000 0.052317 0.000000
# 6 0.000000 0.000000 0.000000 0.000000 0.000000 0.045791
#
#
# Mechanical properties :
#
#
# Convention : Reuss Voigt Hill
#
# Bulk Modulus (GPa) = 24.75157 67.05540 45.90348
# Shear Modulus (GPa) = 14.08008 22.09404 18.08706
#
# Velocity S-wave (km/s) = 2.80496 3.51367 3.17912
# Velocity P-wave (km/s) = 4.93166 7.34377 6.25508
#
# Compressibility (1/GPa) = 0.04040149
#
# Stress axis : x y z
#
# Youngs Moduli (GPa) = 50.97734 11.25934 72.54101
#
# Poissons Ratio (x) = 0.18998 0.19110
# Poissons Ratio (y) = 0.86013 1.55243
# Poissons Ratio (z) = 0.13429 0.24096
#
# Static dielectric constant tensor:
#      x y z
#    x 1.677640 0.000000 0.000000 
#    y 0.000000 1.596120 0.000000 
#    z 0.000000 0.000000 1.599300 
# 
# From -- ./inp_files/29385.got.cif
#   From: 2010.05.17/outbox.cif.g08.bks.cpg/sg71_15_cif.got.tgz:29385.got - 2010.06.03 16:22:01.
