data_PCOD9521946
_publ_section_title
;
Structure prediction by ZEFSAII (Michael W. Deem and Ramdas Pophale) SiO2 
 PCOD9521946
Probable space group: I M M M
;
_chemical_formula_sum "Si O2"
_cell_formula_units_Z 104
_cell_length_a 31.051165
_cell_length_b 20.903920
_cell_length_c 7.777757
_cell_angle_alpha 90.000000
_cell_angle_beta 90.000000
_cell_angle_gamma 90.000000
_cell_volume 5048.472606
_symmetry_space_group_name_H-M "I M M M"
_symmetry_group_IT_number 71
_symmetry_cell_setting 'orthorhombic'
loop_
_space_group_symop_operation_xyz
x,y,z
-x,-y,z
x,-y,-z
-x,y,-z
-x,-y,-z
x,y,-z
-x,y,z
x,-y,z
1/2+x,1/2+y,1/2+z
1/2-x,1/2-y,1/2+z
1/2+x,1/2-y,1/2-z
1/2-x,1/2+y,1/2-z
1/2-x,1/2-y,1/2-z
1/2+x,1/2+y,1/2-z
1/2-x,1/2+y,1/2+z
1/2+x,1/2-y,1/2+z
loop_
_atom_site_type_symbol
_atom_site_label
_atom_site_fract_x
_atom_site_fract_y
_atom_site_fract_z
Si Si1 0.172267 0.884533 0.209515
Si Si2 0.081789 0.850948 0.197355
Si Si3 0.232458 0.000000 0.210765
Si Si4 0.049422 0.712591 0.297803
Si Si5 0.500000 0.424444 0.198892
Si Si6 0.332337 0.000000 0.211080
Si Si7 0.800112 0.255299 0.204642
Si Si8 0.131765 0.363996 0.704850
O O1 0.122703 0.891111 0.262487
O O2 0.181836 0.812532 0.266708
O O3 0.205975 0.937516 0.269556
O O4 0.175134 0.887190 0.000000
O O5 0.068781 0.784130 0.283485
O O6 0.041304 0.896224 0.210440
O O7 0.091309 0.833413 0.000000
O O8 0.282143 0.000000 0.264361
O O9 0.232685 0.000000 0.000000
O O10 0.045711 0.698050 0.500000
O O11 0.086987 0.666091 0.225145
O O12 0.000000 0.710226 0.227038
O O13 0.500000 0.500000 0.202022
O O14 0.500000 0.402291 0.000000
O O15 0.355100 0.065627 0.269512
O O16 0.332523 0.000000 0.000000
O O17 0.750000 0.250000 0.250000
O O18 0.828504 0.314455 0.270617
O O19 0.804027 0.257708 0.000000
O O20 0.126126 0.370095 0.500000
#
# Coordination Sequence:
#
# PCOD9521946 Si02
#       8
#    16  16   8  16   8   8  16  16
#     4   9  19  32  50  78 110 139 179 231 282 326
#     4  11  21  35  56  82 108 141 191 242 281 327
#     4   9  16  30  50  73 106 146 181 229 285 333
#     4  10  20  35  56  82 115 151 187 233 295 352
#     4  11  25  41  55  77 113 154 189 228 287 343
#     4   9  18  34  58  83 111 147 192 235 284 350
#     4  11  21  35  54  82 115 147 189 238 288 341
#     4  10  20  36  58  84 112 151 196 239 294 354
#
# _framework density 20.600290000000001
#
# number of rings (size 3 to 8) (size 9 to 14) (size 15 to 20)
#    0.000    1.923    2.308    2.077    1.077    3.077 
#    0.000    0.769    0.000    2.308    0.000    0.000 
#    0.000    2.462    0.000    0.000    0.000    0.000 
#
# Total GULP energy -290087.801727 kJ/mol
# GULP energy per Si atom -5578.611572 kJ/mol
# Density = 2.055340 g / cm^3
# Si number density = 20.600290 Si / 1000 Ang^3
#
#
#
# Elastic Constant Matrix: (Units=GPa)
#
#
# Indices 1 2 3 4 5 6 
#
# 1 138.6986 53.0938 9.3875 0.0000 0.0000 0.0000
# 2 53.0938 128.6482 9.7272 0.0000 0.0000 0.0000
# 3 9.3875 9.7272 27.3565 0.0000 0.0000 0.0000
# 4 0.0000 0.0000 0.0000 10.1784 0.0000 0.0000
# 5 0.0000 0.0000 0.0000 0.0000 16.1056 0.0000
# 6 0.0000 0.0000 0.0000 0.0000 0.0000 31.5380
#
#
#
# Elastic Compliance Matrix: (Units=1/GPa)
#
#
# Indices 1 2 3 4 5 6 
#
# 1 0.008643 -0.003435 -0.001744 0.000000 0.000000 0.000000
# 2 -0.003435 0.009353 -0.002147 0.000000 0.000000 0.000000
# 3 -0.001744 -0.002147 0.037916 0.000000 0.000000 0.000000
# 4 0.000000 0.000000 0.000000 0.098248 0.000000 0.000000
# 5 0.000000 0.000000 0.000000 0.000000 0.062090 0.000000
# 6 0.000000 0.000000 0.000000 0.000000 0.000000 0.031708
#
#
# Mechanical properties :
#
#
# Convention : Reuss Voigt Hill
#
# Bulk Modulus (GPa) = 24.23679 48.79113 36.51396
# Shear Modulus (GPa) = 18.09206 26.39737 22.24472
#
# Velocity S-wave (km/s) = 2.96673 3.58356 3.28963
# Velocity P-wave (km/s) = 4.85037 6.39208 5.67383
#
# Compressibility (1/GPa) = 0.04125958
#
# Stress axis : x y z
#
# Youngs Moduli (GPa) = 115.70196 106.91589 26.37378
#
# Poissons Ratio (x) = 0.36726 0.04601
# Poissons Ratio (y) = 0.39745 0.05662
# Poissons Ratio (z) = 0.20183 0.22954
#
# Static dielectric constant tensor:
#      x y z
#    x 1.873700 0.000000 0.000000 
#    y 0.000000 1.707210 0.000000 
#    z 0.000000 0.000000 1.809340 
# 
# From -- ./inp_files/17079.got.cif
#   From: 2010.05.17/outbox.cif.g08.bks.cpg/sg71_9_cif.got.tgz:17079.got - 2010.06.03 16:22:01.
