data_PCOD9521471
_publ_section_title
;
Structure prediction by ZEFSAII (Michael W. Deem and Ramdas Pophale) SiO2 
 PCOD9521471
Probable space group: I M M M
;
_chemical_formula_sum "Si O2"
_cell_formula_units_Z 96
_cell_length_a 19.139291
_cell_length_b 16.215434
_cell_length_c 13.965144
_cell_angle_alpha 90.000000
_cell_angle_beta 90.000000
_cell_angle_gamma 90.000000
_cell_volume 4334.109114
_symmetry_space_group_name_H-M "I M M M"
_symmetry_group_IT_number 71
_symmetry_cell_setting 'orthorhombic'
loop_
_space_group_symop_operation_xyz
x,y,z
-x,-y,z
x,-y,-z
-x,y,-z
-x,-y,-z
x,y,-z
-x,y,z
x,-y,z
1/2+x,1/2+y,1/2+z
1/2-x,1/2-y,1/2+z
1/2+x,1/2-y,1/2-z
1/2-x,1/2+y,1/2-z
1/2-x,1/2-y,1/2-z
1/2+x,1/2+y,1/2-z
1/2-x,1/2+y,1/2+z
1/2+x,1/2-y,1/2+z
loop_
_atom_site_type_symbol
_atom_site_label
_atom_site_fract_x
_atom_site_fract_y
_atom_site_fract_z
Si Si1 0.420498 0.659092 0.396431
Si Si2 0.362591 0.839123 0.607886
Si Si3 0.923572 0.400762 0.302534
Si Si4 0.579231 0.594830 0.810276
Si Si5 0.223127 0.162926 0.708708
Si Si6 0.218585 0.402336 0.395774
O O1 0.406340 0.619576 0.500000
O O2 0.500000 0.692517 0.399081
O O3 0.373097 0.740101 0.385166
O O4 0.419969 0.600489 0.305578
O O5 0.381239 0.863626 0.500000
O O6 0.408338 0.877686 0.692572
O O7 0.282710 0.861622 0.633013
O O8 0.924050 0.500000 0.310481
O O9 0.857778 0.369445 0.363908
O O10 0.000000 0.369527 0.331598
O O11 0.500000 0.619616 0.840123
O O12 0.590717 0.500000 0.840319
O O13 0.645866 0.652170 0.834139
O O14 0.250000 0.250000 0.750000
O O15 0.231011 0.109756 0.805738
O O16 0.239127 0.367820 0.500000
O O17 0.211564 0.500000 0.405439
#
# Coordination Sequence:
#
# PCOD9521471 Si02
#       6
#    16  16  16  16  16  16
#     4   9  17  30  50  79 114 151 188 226 280 350
#     4  10  20  34  53  79 113 152 193 243 299 356
#     4   9  18  32  51  78 113 153 196 239 288 350
#     4  10  21  37  57  81 112 152 195 239 293 354
#     4  11  21  36  57  84 113 150 192 244 296 355
#     4   9  19  35  55  81 114 153 195 240 295 356
#
# _framework density 22.149881000000001
#
# number of rings (size 3 to 8) (size 9 to 14) (size 15 to 20)
#    0.000    2.333    1.667    1.000    0.000    4.000 
#    0.000    4.167    0.000    0.500    0.000    1.167 
#    0.000    0.000    0.000    0.000    0.000    0.000 
#
# Total GULP energy -267585.965773 kJ/mol
# GULP energy per Si atom -5574.707620 kJ/mol
# Density = 2.209947 g / cm^3
# Si number density = 22.149881 Si / 1000 Ang^3
#
#
#
# Elastic Constant Matrix: (Units=GPa)
#
#
# Indices 1 2 3 4 5 6 
#
# 1 163.9025 23.2728 -5.2692 0.0000 0.0000 0.0000
# 2 23.2728 32.7197 -1.9884 0.0000 0.0000 0.0000
# 3 -5.2692 -1.9884 42.1008 0.0000 0.0000 0.0000
# 4 0.0000 0.0000 0.0000 18.0802 0.0000 0.0000
# 5 0.0000 0.0000 0.0000 0.0000 5.6882 0.0000
# 6 0.0000 0.0000 0.0000 0.0000 0.0000 23.5810
#
#
#
# Elastic Compliance Matrix: (Units=1/GPa)
#
#
# Indices 1 2 3 4 5 6 
#
# 1 0.006803 -0.004801 0.000625 0.000000 0.000000 0.000000
# 2 -0.004801 0.034039 0.001007 0.000000 0.000000 0.000000
# 3 0.000625 0.001007 0.023878 0.000000 0.000000 0.000000
# 4 0.000000 0.000000 0.000000 0.055309 0.000000 0.000000
# 5 0.000000 0.000000 0.000000 0.000000 0.175803 0.000000
# 6 0.000000 0.000000 0.000000 0.000000 0.000000 0.042407
#
#
# Mechanical properties :
#
#
# Convention : Reuss Voigt Hill
#
# Bulk Modulus (GPa) = 17.12885 30.08370 23.60627
# Shear Modulus (GPa) = 13.73483 24.31705 19.02594
#
# Velocity S-wave (km/s) = 2.49285 3.31696 2.93399
# Velocity P-wave (km/s) = 4.00446 5.31799 4.70727
#
# Compressibility (1/GPa) = 0.05838105
#
# Stress axis : x y z
#
# Youngs Moduli (GPa) = 146.99507 29.37844 41.87909
#
# Poissons Ratio (x) = 0.14104 -0.02616
# Poissons Ratio (y) = 0.70570 -0.04216
# Poissons Ratio (z) = -0.09183 -0.02958
#
# Static dielectric constant tensor:
#      x y z
#    x 1.898080 0.000000 0.000000 
#    y 0.000000 1.849570 0.000000 
#    z 0.000000 0.000000 1.823820 
# 
# From -- ./inp_files/37819.got.cif
#   From: 2010.05.17/outbox.cif.g08.bks.cpg/sg71_19_cif.got.tgz:37819.got - 2010.06.03 16:22:01.
