data_PCOD9521730
_publ_section_title
;
Structure prediction by ZEFSAII (Michael W. Deem and Ramdas Pophale) SiO2 
 PCOD9521730
Probable space group: I M M M
;
_chemical_formula_sum "Si O2"
_cell_formula_units_Z 72
_cell_length_a 7.407123
_cell_length_b 32.823692
_cell_length_c 13.127750
_cell_angle_alpha 90.000000
_cell_angle_beta 90.000000
_cell_angle_gamma 90.000000
_cell_volume 3191.738357
_symmetry_space_group_name_H-M "I M M M"
_symmetry_group_IT_number 71
_symmetry_cell_setting 'orthorhombic'
loop_
_space_group_symop_operation_xyz
x,y,z
-x,-y,z
x,-y,-z
-x,y,-z
-x,-y,-z
x,y,-z
-x,y,z
x,-y,z
1/2+x,1/2+y,1/2+z
1/2-x,1/2-y,1/2+z
1/2+x,1/2-y,1/2-z
1/2-x,1/2+y,1/2-z
1/2-x,1/2-y,1/2-z
1/2+x,1/2+y,1/2-z
1/2-x,1/2+y,1/2+z
1/2+x,1/2-y,1/2+z
loop_
_atom_site_type_symbol
_atom_site_label
_atom_site_fract_x
_atom_site_fract_y
_atom_site_fract_z
Si Si1 0.720143 0.953063 0.615936
Si Si2 0.716411 0.453740 0.500000
Si Si3 0.280743 0.276119 0.887972
Si Si4 0.711567 0.900226 0.195907
Si Si5 0.205097 0.311931 0.674498
O O1 0.774170 0.942835 0.500000
O O2 0.500000 0.952882 0.618081
O O3 0.784841 0.922262 0.703022
O O4 0.774386 0.000000 0.637127
O O5 0.782479 0.500000 0.500000
O O6 0.500000 0.454201 0.500000
O O7 0.775938 0.430432 0.398864
O O8 0.500000 0.276165 0.878645
O O9 0.206283 0.302007 0.794928
O O10 0.217442 0.229233 0.874412
O O11 0.232784 0.291116 0.000000
O O12 0.500000 0.892244 0.217343
O O13 0.790168 0.856352 0.164267
O O14 0.000000 0.314148 0.634511
#
# Coordination Sequence:
#
# PCOD9521730 Si02
#       5
#    16   8  16  16  16
#     4   8  14  26  46  74 105 132 162 208 266 321
#     4  11  25  41  55  77 113 153 187 225 273 325
#     4   9  18  33  52  71 102 144 177 212 265 328
#     4  10  20  34  57  83 106 137 181 231 274 320
#     4   9  19  33  51  78 105 131 173 227 273 314
#
# _framework density 22.558240000000001
#
# number of rings (size 3 to 8) (size 9 to 14) (size 15 to 20)
#    0.000    2.778    0.000    1.667    1.556    4.000 
#    0.000    2.222    0.000    0.667    0.000    3.111 
#    0.000    0.000    0.000    0.000    0.000    0.000 
#
# Total GULP energy -200993.106652 kJ/mol
# GULP energy per Si atom -5583.141851 kJ/mol
# Density = 2.250690 g / cm^3
# Si number density = 22.558240 Si / 1000 Ang^3
#
#
#
# Elastic Constant Matrix: (Units=GPa)
#
#
# Indices 1 2 3 4 5 6 
#
# 1 79.2801 -3.1599 -11.1402 0.0001 0.0000 0.0000
# 2 -3.1599 122.7994 19.2671 0.0003 0.0000 0.0000
# 3 -11.1402 19.2671 83.1117 0.0007 0.0001 0.0001
# 4 0.0001 0.0003 0.0007 -25.9852 0.0001 0.0000
# 5 0.0000 0.0000 0.0001 0.0001 -16.2381 0.0000
# 6 0.0000 0.0000 0.0001 0.0000 0.0000 -8.4857
#
#
#
# Elastic Compliance Matrix: (Units=1/GPa)
#
#
# Indices 1 2 3 4 5 6 
#
# 1 0.012856 0.000063 0.001709 0.000000 0.000000 0.000000
# 2 0.000063 0.008451 -0.001951 0.000000 0.000000 0.000000
# 3 0.001709 -0.001951 0.012713 0.000000 0.000000 0.000000
# 4 0.000000 0.000000 0.000000 -0.038483 0.000000 0.000000
# 5 0.000000 0.000000 0.000000 0.000000 -0.061584 0.000000
# 6 0.000000 0.000000 0.000000 0.000000 0.000000 -0.117845
#
#
# Mechanical properties :
#
#
# Convention : Reuss Voigt Hill
#
# Bulk Modulus (GPa) = 29.70733 32.79170 31.24951
# Shear Modulus (GPa) = -29.01704 8.53982 -10.23861
#
# Velocity S-wave (km/s) = -3.59042 1.94779 -2.13274
# Velocity P-wave (km/s) = 1.99759 4.43019 2.79608
#
# Compressibility (1/GPa) = 0.03366173
#
# Stress axis : x y z
#
# Youngs Moduli (GPa) = 77.78406 118.32861 78.65813
#
# Poissons Ratio (x) = -0.00742 -0.13440
# Poissons Ratio (y) = -0.00488 0.15344
# Poissons Ratio (z) = -0.13291 0.23083
#
# Static dielectric constant tensor:
#      x y z
#    x 1.879910 0.000000 0.000000 
#    y 0.000000 1.830710 0.000000 
#    z 0.000000 0.000000 1.785370 
# 
# From -- ./inp_files/31645.got.cif
#   From: 2010.05.17/outbox.cif.g08.bks.cpg/sg71_16_cif.got.tgz:31645.got - 2010.06.03 16:22:01.
