data_PCOD9521013
_publ_section_title
;
Structure prediction by ZEFSAII (Michael W. Deem and Ramdas Pophale) SiO2 
 PCOD9521013
Probable space group: I M M M
;
_chemical_formula_sum "Si O2"
_cell_formula_units_Z 88
_cell_length_a 20.803757
_cell_length_b 9.897389
_cell_length_c 22.029118
_cell_angle_alpha 90.000000
_cell_angle_beta 90.000000
_cell_angle_gamma 90.000000
_cell_volume 4535.858745
_symmetry_space_group_name_H-M "I M M M"
_symmetry_group_IT_number 71
_symmetry_cell_setting 'orthorhombic'
loop_
_space_group_symop_operation_xyz
x,y,z
-x,-y,z
x,-y,-z
-x,y,-z
-x,-y,-z
x,y,-z
-x,y,z
x,-y,z
1/2+x,1/2+y,1/2+z
1/2-x,1/2-y,1/2+z
1/2+x,1/2-y,1/2-z
1/2-x,1/2+y,1/2-z
1/2-x,1/2-y,1/2-z
1/2+x,1/2+y,1/2-z
1/2-x,1/2+y,1/2+z
1/2+x,1/2-y,1/2+z
loop_
_atom_site_type_symbol
_atom_site_label
_atom_site_fract_x
_atom_site_fract_y
_atom_site_fract_z
Si Si1 0.426077 0.161733 0.675662
Si Si2 0.110569 0.849891 0.430218
Si Si3 0.214281 0.649247 0.596135
Si Si4 0.366245 0.657305 0.428278
Si Si5 0.809023 0.652314 0.737373
Si Si6 0.500000 0.846142 0.074432
O O1 0.500000 0.192595 0.692076
O O2 0.405350 0.244776 0.615969
O O3 0.374392 0.194057 0.728636
O O4 0.422097 0.000000 0.664607
O O5 0.089780 0.865264 0.500000
O O6 0.179265 0.777929 0.431464
O O7 0.061176 0.740231 0.404353
O O8 0.110530 0.000000 0.402507
O O9 0.197942 0.500000 0.569916
O O10 0.290851 0.664422 0.590415
O O11 0.188874 0.647842 0.664893
O O12 0.372045 0.689617 0.500000
O O13 0.385739 0.500000 0.420191
O O14 0.793816 0.500000 0.758943
O O15 0.750000 0.750000 0.750000
O O16 0.500000 0.000000 0.096629
O O17 0.500000 0.854488 0.000000
#
# Coordination Sequence:
#
# PCOD9521013 Si02
#       6
#    16  16  16  16  16   8
#     4  10  22  40  61  87 121 158 196 243 299 359
#     4  10  20  33  50  75 109 146 185 234 290 347
#     4  10  20  35  56  83 112 146 189 238 292 351
#     4  10  21  37  59  88 120 154 197 247 295 350
#     4  10  20  37  62  87 112 147 193 242 293 348
#     4   9  17  31  51  71  97 141 189 229 278 339
#
# _framework density 19.400957999999999
#
# number of rings (size 3 to 8) (size 9 to 14) (size 15 to 20)
#    0.000    2.091    1.818    1.364    0.000    5.455 
#    1.636    1.818    0.000    0.000    0.000    0.000 
#    0.000    0.000    0.000    0.000    0.000    0.000 
#
# Total GULP energy -245230.327365 kJ/mol
# GULP energy per Si atom -5573.416531 kJ/mol
# Density = 1.935680 g / cm^3
# Si number density = 19.400958 Si / 1000 Ang^3
#
#
#
# Elastic Constant Matrix: (Units=GPa)
#
#
# Indices 1 2 3 4 5 6 
#
# 1 119.5665 67.5398 41.9221 0.0000 0.0000 0.0000
# 2 67.5398 119.2458 24.9817 0.0000 0.0000 0.0000
# 3 41.9221 24.9817 94.5133 0.0000 0.0000 0.0000
# 4 0.0000 0.0000 0.0000 23.4826 0.0000 0.0000
# 5 0.0000 0.0000 0.0000 0.0000 20.3425 0.0000
# 6 0.0000 0.0000 0.0000 0.0000 0.0000 28.1407
#
#
#
# Elastic Compliance Matrix: (Units=1/GPa)
#
#
# Indices 1 2 3 4 5 6 
#
# 1 0.013760 -0.006897 -0.004280 0.000000 0.000000 0.000000
# 2 -0.006897 0.012335 -0.000201 0.000000 0.000000 0.000000
# 3 -0.004280 -0.000201 0.012532 0.000000 0.000000 0.000000
# 4 0.000000 0.000000 0.000000 0.042585 0.000000 0.000000
# 5 0.000000 0.000000 0.000000 0.000000 0.049158 0.000000
# 6 0.000000 0.000000 0.000000 0.000000 0.000000 0.035536
#
#
# Mechanical properties :
#
#
# Convention : Reuss Voigt Hill
#
# Bulk Modulus (GPa) = 63.01143 66.91251 64.96197
# Shear Modulus (GPa) = 25.77950 27.65197 26.71573
#
# Velocity S-wave (km/s) = 3.64919 3.77940 3.71486
# Velocity P-wave (km/s) = 7.09256 7.32183 7.20811
#
# Compressibility (1/GPa) = 0.01587014
#
# Stress axis : x y z
#
# Youngs Moduli (GPa) = 72.67322 81.07331 79.79387
#
# Poissons Ratio (x) = 0.55916 0.34155
# Poissons Ratio (y) = 0.50122 0.01604
# Poissons Ratio (z) = 0.31107 0.01630
#
# Static dielectric constant tensor:
#      x y z
#    x 1.692880 0.000000 0.000000 
#    y 0.000000 1.708290 0.000000 
#    z 0.000000 0.000000 1.709450 
# 
# From -- ./inp_files/61104.got.cif
#   From: 2010.05.17/outbox.cif.g08.bks.cpg/sg71_31_cif.got.tgz:61104.got - 2010.06.03 16:22:01.
