data_PCOD9521468
_publ_section_title
;
Structure prediction by ZEFSAII (Michael W. Deem and Ramdas Pophale) SiO2 
 PCOD9521468
Probable space group: I M M M
;
_chemical_formula_sum "Si O2"
_cell_formula_units_Z 120
_cell_length_a 29.820168
_cell_length_b 8.565580
_cell_length_c 25.348431
_cell_angle_alpha 90.000000
_cell_angle_beta 90.000000
_cell_angle_gamma 90.000000
_cell_volume 6474.674563
_symmetry_space_group_name_H-M "I M M M"
_symmetry_group_IT_number 71
_symmetry_cell_setting 'orthorhombic'
loop_
_space_group_symop_operation_xyz
x,y,z
-x,-y,z
x,-y,-z
-x,y,-z
-x,-y,-z
x,y,-z
-x,y,z
x,-y,z
1/2+x,1/2+y,1/2+z
1/2-x,1/2-y,1/2+z
1/2+x,1/2-y,1/2-z
1/2-x,1/2+y,1/2-z
1/2-x,1/2-y,1/2-z
1/2+x,1/2+y,1/2-z
1/2-x,1/2+y,1/2+z
1/2+x,1/2-y,1/2+z
loop_
_atom_site_type_symbol
_atom_site_label
_atom_site_fract_x
_atom_site_fract_y
_atom_site_fract_z
Si Si1 0.163599 0.812700 0.558374
Si Si2 0.122031 0.187427 0.826338
Si Si3 0.916049 0.188988 0.367621
Si Si4 0.948058 0.686971 0.744056
Si Si5 0.718410 0.815862 0.704282
Si Si6 0.644709 0.688985 0.557257
Si Si7 0.000000 0.190147 0.439671
Si Si8 0.756293 0.185357 0.093442
O O1 0.144144 0.781553 0.500000
O O2 0.130157 0.761984 0.604645
O O3 0.211542 0.732683 0.563647
O O4 0.169291 0.000000 0.562520
O O5 0.080588 0.250647 0.793048
O O6 0.168902 0.240531 0.799709
O O7 0.122904 0.242810 0.887622
O O8 0.121311 0.000000 0.826354
O O9 0.925235 0.255078 0.309958
O O10 0.956331 0.236990 0.406640
O O11 0.916170 0.000000 0.364478
O O12 0.947628 0.500000 0.744761
O O13 0.000000 0.740237 0.745050
O O14 0.750000 0.750000 0.750000
O O15 0.741592 0.775320 0.648688
O O16 0.713336 0.000000 0.710778
O O17 0.628480 0.746794 0.500000
O O18 0.640436 0.500000 0.556890
O O19 0.697726 0.723426 0.563017
O O20 0.000000 0.245338 0.500000
O O21 0.000000 0.000000 0.441371
O O22 0.756980 0.000000 0.103703
#
# Coordination Sequence:
#
# PCOD9521468 Si02
#       8
#    16  16  16  16  16  16   8  16
#     4  10  21  35  51  77 112 147 187 238 291 341
#     4  10  21  37  60  89 117 148 188 232 284 345
#     4  10  20  35  56  79 104 139 186 237 289 348
#     4  11  24  41  60  82 112 148 190 241 294 348
#     4  11  22  37  56  80 114 153 192 235 283 336
#     4   8  15  31  56  85 114 143 180 225 270 324
#     4   9  16  30  55  81 101 129 176 235 294 349
#     4  10  20  34  53  79 111 152 195 231 274 330
#
# _framework density 18.533750000000001
#
# number of rings (size 3 to 8) (size 9 to 14) (size 15 to 20)
#    0.000    2.067    0.667    4.000    1.867    3.733 
#    0.000    0.000    0.000   10.000    0.000    2.800 
#    0.000    0.000    0.000    0.000    0.000    0.000 
#
# Total GULP energy -334908.314402 kJ/mol
# GULP energy per Si atom -5581.805240 kJ/mol
# Density = 1.849157 g / cm^3
# Si number density = 18.533750 Si / 1000 Ang^3
#
#
#
# Elastic Constant Matrix: (Units=GPa)
#
#
# Indices 1 2 3 4 5 6 
#
# 1 80.7644 19.4647 59.8681 0.0000 0.0000 0.0000
# 2 19.4647 37.5757 25.5998 0.0000 0.0000 0.0000
# 3 59.8681 25.5998 150.0316 0.0000 0.0000 0.0000
# 4 0.0000 0.0000 0.0000 11.4035 0.0000 0.0000
# 5 0.0000 0.0000 0.0000 0.0000 24.5500 0.0000
# 6 0.0000 0.0000 0.0000 0.0000 0.0000 24.8997
#
#
#
# Elastic Compliance Matrix: (Units=1/GPa)
#
#
# Indices 1 2 3 4 5 6 
#
# 1 0.018417 -0.005130 -0.006474 0.000000 0.000000 0.000000
# 2 -0.005130 0.031542 -0.003335 0.000000 0.000000 0.000000
# 3 -0.006474 -0.003335 0.009818 0.000000 0.000000 0.000000
# 4 0.000000 0.000000 0.000000 0.087692 0.000000 0.000000
# 5 0.000000 0.000000 0.000000 0.000000 0.040733 0.000000
# 6 0.000000 0.000000 0.000000 0.000000 0.000000 0.040161
#
#
# Mechanical properties :
#
#
# Convention : Reuss Voigt Hill
#
# Bulk Modulus (GPa) = 33.44516 53.13744 43.29130
# Shear Modulus (GPa) = 18.64236 23.06659 20.85447
#
# Velocity S-wave (km/s) = 3.17497 3.53168 3.35806
# Velocity P-wave (km/s) = 5.61474 6.73522 6.20034
#
# Compressibility (1/GPa) = 0.02989969
#
# Stress axis : x y z
#
# Youngs Moduli (GPa) = 54.29858 31.70339 101.85832
#
# Poissons Ratio (x) = 0.16263 0.65940
# Poissons Ratio (y) = 0.27853 0.33971
# Poissons Ratio (z) = 0.35151 0.10574
#
# Static dielectric constant tensor:
#      x y z
#    x 1.624640 0.000000 0.000000 
#    y 0.000000 1.632620 0.000000 
#    z 0.000000 0.000000 1.651820 
# 
# From -- ./inp_files/67201.got.cif
#   From: 2010.05.17/outbox.cif.g08.bks.cpg/sg71_34_cif.got.tgz:67201.got - 2010.06.03 16:22:01.
