data_PCOD9521114
_publ_section_title
;
Structure prediction by ZEFSAII (Michael W. Deem and Ramdas Pophale) SiO2 
 PCOD9521114
Probable space group: I M M M
;
_chemical_formula_sum "Si O2"
_cell_formula_units_Z 104
_cell_length_a 16.093398
_cell_length_b 18.072190
_cell_length_c 18.942287
_cell_angle_alpha 90.000000
_cell_angle_beta 90.000000
_cell_angle_gamma 90.000000
_cell_volume 5509.230563
_symmetry_space_group_name_H-M "I M M M"
_symmetry_group_IT_number 71
_symmetry_cell_setting 'orthorhombic'
loop_
_space_group_symop_operation_xyz
x,y,z
-x,-y,z
x,-y,-z
-x,y,-z
-x,-y,-z
x,y,-z
-x,y,z
x,-y,z
1/2+x,1/2+y,1/2+z
1/2-x,1/2-y,1/2+z
1/2+x,1/2-y,1/2-z
1/2-x,1/2+y,1/2-z
1/2-x,1/2-y,1/2-z
1/2+x,1/2+y,1/2-z
1/2-x,1/2+y,1/2+z
1/2+x,1/2-y,1/2+z
loop_
_atom_site_type_symbol
_atom_site_label
_atom_site_fract_x
_atom_site_fract_y
_atom_site_fract_z
Si Si1 0.597943 0.910769 0.685407
Si Si2 0.627391 0.411046 0.702325
Si Si3 0.907109 0.717510 0.582775
Si Si4 0.235674 0.585869 0.077312
Si Si5 0.292158 0.821403 0.209354
Si Si6 0.588227 0.618367 0.859155
Si Si7 0.000000 0.089777 0.918540
O O1 0.500000 0.900506 0.672947
O O2 0.657818 0.885340 0.621348
O O3 0.633046 0.859218 0.747266
O O4 0.610857 0.000000 0.698242
O O5 0.621923 0.500000 0.710197
O O6 0.720498 0.381962 0.700669
O O7 0.590721 0.376294 0.774250
O O8 0.578244 0.389593 0.631196
O O9 0.891385 0.705543 0.500000
O O10 0.832288 0.694483 0.633528
O O11 0.913670 0.804018 0.600965
O O12 0.000000 0.685722 0.599038
O O13 0.215782 0.500000 0.068720
O O14 0.322942 0.586823 0.118316
O O15 0.245412 0.620585 0.000000
O O16 0.250000 0.750000 0.250000
O O17 0.500000 0.580878 0.877371
O O18 0.000000 0.000000 0.922181
O O19 0.000000 0.116492 0.000000
#
# Coordination Sequence:
#
# PCOD9521114 Si02
#       7
#    16  16  16  16  16  16   8
#     4  10  21  38  60  85 115 157 207 259 308 362
#     4  11  21  35  60  89 118 155 196 242 296 357
#     4  10  22  39  58  82 117 157 196 241 298 362
#     4  10  20  33  51  80 118 155 196 247 301 358
#     4  12  22  37  60  91 116 154 198 253 304 359
#     4  11  20  34  58  86 117 156 198 241 296 366
#     4   9  20  38  58  86 123 157 190 236 296 359
#
# _framework density 18.877407999999999
#
# number of rings (size 3 to 8) (size 9 to 14) (size 15 to 20)
#    0.000    1.462    3.846    1.846    0.000    2.769 
#    1.385    2.308    0.000    1.385    0.000    5.385 
#    0.000    0.000    0.000    0.000    0.000    0.000 
#
# Total GULP energy -289527.482206 kJ/mol
# GULP energy per Si atom -5567.836196 kJ/mol
# Density = 1.883444 g / cm^3
# Si number density = 18.877408 Si / 1000 Ang^3
#
#
#
# Elastic Constant Matrix: (Units=GPa)
#
#
# Indices 1 2 3 4 5 6 
#
# 1 139.0133 18.6001 58.7265 0.0000 0.0000 0.0000
# 2 18.6001 11.5829 11.7162 0.0000 0.0000 0.0000
# 3 58.7265 11.7162 136.1921 0.0000 0.0000 0.0000
# 4 0.0000 0.0000 0.0000 21.6893 0.0000 0.0000
# 5 0.0000 0.0000 0.0000 0.0000 27.8161 0.0000
# 6 0.0000 0.0000 0.0000 0.0000 0.0000 -78.8454
#
#
#
# Elastic Compliance Matrix: (Units=1/GPa)
#
#
# Indices 1 2 3 4 5 6 
#
# 1 0.010381 -0.013299 -0.003332 0.000000 0.000000 0.000000
# 2 -0.013299 0.111601 -0.003866 0.000000 0.000000 0.000000
# 3 -0.003332 -0.003866 0.009112 0.000000 0.000000 0.000000
# 4 0.000000 0.000000 0.000000 0.046106 0.000000 0.000000
# 5 0.000000 0.000000 0.000000 0.000000 0.035950 0.000000
# 6 0.000000 0.000000 0.000000 0.000000 0.000000 -0.012683
#
#
# Mechanical properties :
#
#
# Convention : Reuss Voigt Hill
#
# Bulk Modulus (GPa) = 11.09891 51.65265 31.37578
# Shear Modulus (GPa) = 18.41664 7.31504 12.86584
#
# Velocity S-wave (km/s) = 3.12683 1.97064 2.61348
# Velocity P-wave (km/s) = 4.35067 5.70959 5.07582
#
# Compressibility (1/GPa) = 0.09009892
#
# Stress axis : x y z
#
# Youngs Moduli (GPa) = 96.33340 8.96052 109.74574
#
# Poissons Ratio (x) = 0.11917 0.36568
# Poissons Ratio (y) = 1.28114 0.42429
# Poissons Ratio (z) = 0.32099 0.03464
#
# Static dielectric constant tensor:
#      x y z
#    x 1.689420 0.000000 0.000000 
#    y 0.000000 1.683760 0.000000 
#    z 0.000000 0.000000 1.718320 
# 
# From -- ./inp_files/44977.got.cif
#   From: 2010.05.17/outbox.cif.g08.bks.cpg/sg71_23_cif.got.tgz:44977.got - 2010.06.03 16:22:01.
