data_PCOD9522418
_publ_section_title
;
Structure prediction by ZEFSAII (Michael W. Deem and Ramdas Pophale) SiO2 
 PCOD9522418
Probable space group: I M M M
;
_chemical_formula_sum "Si O2"
_cell_formula_units_Z 120
_cell_length_a 18.843482
_cell_length_b 21.118722
_cell_length_c 17.588134
_cell_angle_alpha 90.000000
_cell_angle_beta 90.000000
_cell_angle_gamma 90.000000
_cell_volume 6999.202461
_symmetry_space_group_name_H-M "I M M M"
_symmetry_group_IT_number 71
_symmetry_cell_setting 'orthorhombic'
loop_
_space_group_symop_operation_xyz
x,y,z
-x,-y,z
x,-y,-z
-x,y,-z
-x,-y,-z
x,y,-z
-x,y,z
x,-y,z
1/2+x,1/2+y,1/2+z
1/2-x,1/2-y,1/2+z
1/2+x,1/2-y,1/2-z
1/2-x,1/2+y,1/2-z
1/2-x,1/2-y,1/2-z
1/2+x,1/2+y,1/2-z
1/2-x,1/2+y,1/2+z
1/2+x,1/2-y,1/2+z
loop_
_atom_site_type_symbol
_atom_site_label
_atom_site_fract_x
_atom_site_fract_y
_atom_site_fract_z
Si Si1 0.418613 0.756958 0.088154
Si Si2 0.582042 0.000000 0.910086
Si Si3 0.830461 0.848096 0.678593
Si Si4 0.360660 0.123815 0.163920
Si Si5 0.914094 0.423622 0.171535
Si Si6 0.580533 0.425393 0.081074
Si Si7 0.687348 0.171546 0.409452
Si Si8 0.280098 0.705547 0.318740
O O1 0.500000 0.735923 0.089595
O O2 0.368179 0.709451 0.133590
O O3 0.413295 0.823590 0.130622
O O4 0.396450 0.763059 0.000000
O O5 0.625650 0.061052 0.883974
O O6 0.500000 0.000000 0.878272
O O7 0.575729 0.000000 0.000000
O O8 0.874736 0.907573 0.652941
O O9 0.753201 0.854952 0.640507
O O10 0.832743 0.836545 0.768245
O O11 0.381184 0.102775 0.249263
O O12 0.284133 0.159099 0.156807
O O13 0.898397 0.500000 0.162490
O O14 0.878102 0.375470 0.110609
O O15 0.000000 0.417876 0.172142
O O16 0.500000 0.403250 0.087600
O O17 0.579029 0.500000 0.075181
O O18 0.609456 0.399468 0.000000
O O19 0.699999 0.171401 0.500000
O O20 0.686203 0.245145 0.378741
O O21 0.250000 0.750000 0.250000
#
# Coordination Sequence:
#
# PCOD9522418 Si02
#       8
#    16   8  16  16  16  16  16  16
#     4  11  21  30  49  81 111 142 179 218 267 329
#     4  11  24  38  56  86 119 151 188 227 275 345
#     4  11  19  34  53  76 108 140 180 222 265 322
#     4  12  20  37  56  77 111 150 184 226 275 325
#     4  11  23  39  59  81 109 150 193 233 281 329
#     4   9  18  32  50  76 111 144 171 207 262 323
#     4  11  22  38  59  80 107 143 183 231 282 325
#     4  10  20  37  55  79 108 136 184 231 272 321
#
# _framework density 17.144811000000001
#
# number of rings (size 3 to 8) (size 9 to 14) (size 15 to 20)
#    0.000    1.267    6.000    3.600    0.000    3.733 
#    1.200    1.333    0.000    0.000    0.000    0.000 
#    0.000    0.000    0.000    1.467    0.000    0.000 
#
# Total GULP energy -334035.769195 kJ/mol
# GULP energy per Si atom -5567.262820 kJ/mol
# Density = 1.710579 g / cm^3
# Si number density = 17.144811 Si / 1000 Ang^3
#
#
#
# Elastic Constant Matrix: (Units=GPa)
#
#
# Indices 1 2 3 4 5 6 
#
# 1 69.1041 44.5649 24.6115 0.0000 0.0000 0.0000
# 2 44.5649 113.3807 34.8724 0.0000 0.0000 0.0000
# 3 24.6115 34.8724 72.8655 0.0000 0.0000 0.0000
# 4 0.0000 0.0000 0.0000 39.9620 0.0000 0.0000
# 5 0.0000 0.0000 0.0000 0.0000 22.2997 0.0000
# 6 0.0000 0.0000 0.0000 0.0000 0.0000 28.7314
#
#
#
# Elastic Compliance Matrix: (Units=1/GPa)
#
#
# Indices 1 2 3 4 5 6 
#
# 1 0.020131 -0.006826 -0.003533 0.000000 0.000000 0.000000
# 2 -0.006826 0.012657 -0.003752 0.000000 0.000000 0.000000
# 3 -0.003533 -0.003752 0.016713 0.000000 0.000000 0.000000
# 4 0.000000 0.000000 0.000000 0.025024 0.000000 0.000000
# 5 0.000000 0.000000 0.000000 0.000000 0.044844 0.000000
# 6 0.000000 0.000000 0.000000 0.000000 0.000000 0.034805
#
#
# Mechanical properties :
#
#
# Convention : Reuss Voigt Hill
#
# Bulk Modulus (GPa) = 46.99359 51.49420 49.24389
# Shear Modulus (GPa) = 26.38696 28.28541 27.33619
#
# Velocity S-wave (km/s) = 3.92735 4.06617 3.99736
# Velocity P-wave (km/s) = 6.93071 7.22115 7.07742
#
# Compressibility (1/GPa) = 0.02127950
#
# Stress axis : x y z
#
# Youngs Moduli (GPa) = 49.67408 79.00897 59.83484
#
# Poissons Ratio (x) = 0.53932 0.21138
# Poissons Ratio (y) = 0.33908 0.22448
# Poissons Ratio (z) = 0.17549 0.29642
#
# Static dielectric constant tensor:
#      x y z
#    x 1.634950 0.000000 0.000000 
#    y 0.000000 1.559000 0.000000 
#    z 0.000000 0.000000 1.616890 
# 
# From -- ./inp_files/46458.got.cif
#   From: 2010.05.17/outbox.cif.g08.bks.cpg/sg71_24_cif.got.tgz:46458.got - 2010.06.03 16:22:01.
