data_PCOD9522218
_publ_section_title
;
Structure prediction by ZEFSAII (Michael W. Deem and Ramdas Pophale) SiO2 
 PCOD9522218
Probable space group: I M M M
;
_chemical_formula_sum "Si O2"
_cell_formula_units_Z 96
_cell_length_a 24.269165
_cell_length_b 8.702427
_cell_length_c 25.870524
_cell_angle_alpha 90.000000
_cell_angle_beta 90.000000
_cell_angle_gamma 90.000000
_cell_volume 5463.871142
_symmetry_space_group_name_H-M "I M M M"
_symmetry_group_IT_number 71
_symmetry_cell_setting 'orthorhombic'
loop_
_space_group_symop_operation_xyz
x,y,z
-x,-y,z
x,-y,-z
-x,y,-z
-x,-y,-z
x,y,-z
-x,y,z
x,-y,z
1/2+x,1/2+y,1/2+z
1/2-x,1/2-y,1/2+z
1/2+x,1/2-y,1/2-z
1/2-x,1/2+y,1/2-z
1/2-x,1/2-y,1/2-z
1/2+x,1/2+y,1/2-z
1/2-x,1/2+y,1/2+z
1/2+x,1/2-y,1/2+z
loop_
_atom_site_type_symbol
_atom_site_label
_atom_site_fract_x
_atom_site_fract_y
_atom_site_fract_z
Si Si1 0.115942 0.315247 0.154387
Si Si2 0.310477 0.816330 0.940432
Si Si3 0.309242 0.185245 0.559238
Si Si4 0.617912 0.685013 0.850061
Si Si5 0.311483 0.315385 0.251856
Si Si6 0.500000 0.687159 0.191098
Si Si7 0.000000 0.815246 0.811835
O O1 0.113567 0.500000 0.156584
O O2 0.144526 0.269155 0.100368
O O3 0.154529 0.254171 0.200528
O O4 0.055281 0.247475 0.162085
O O5 0.250336 0.751517 0.925638
O O6 0.355999 0.754910 0.901311
O O7 0.308665 0.000000 0.938428
O O8 0.320741 0.768858 0.000000
O O9 0.320830 0.233010 0.500000
O O10 0.305317 0.000000 0.560146
O O11 0.617486 0.500000 0.854799
O O12 0.656424 0.723383 0.801040
O O13 0.555996 0.737224 0.836788
O O14 0.310220 0.500000 0.256646
O O15 0.250000 0.250000 0.250000
O O16 0.500000 0.500000 0.191160
O O17 0.500000 0.733259 0.251304
O O18 0.000000 0.000000 0.813121
#
# Coordination Sequence:
#
# PCOD9522218 Si02
#       7
#    16  16  16  16  16   8   8
#     4  11  22  36  56  84 112 142 187 233 276 333
#     4  10  21  36  55  82 114 144 178 225 279 330
#     4   9  19  37  59  81 109 147 187 227 273 325
#     4  10  20  36  57  78 104 142 186 225 267 325
#     4  11  22  35  53  80 114 147 179 225 282 334
#     4   9  18  37  58  77 102 140 187 227 264 315
#     4  11  21  39  60  79 110 152 187 227 279 330
#
# _framework density 17.569962
#
# number of rings (size 3 to 8) (size 9 to 14) (size 15 to 20)
#    0.000    1.833    1.667    2.750    0.000    7.667 
#    0.000    1.250    0.000    5.000    0.000    0.000 
#    0.000    0.000    0.000    0.000    0.000    0.000 
#
# Total GULP energy -268088.331619 kJ/mol
# GULP energy per Si atom -5585.173575 kJ/mol
# Density = 1.752997 g / cm^3
# Si number density = 17.569962 Si / 1000 Ang^3
#
#
#
# Elastic Constant Matrix: (Units=GPa)
#
#
# Indices 1 2 3 4 5 6 
#
# 1 194.7316 43.2343 100.7210 0.0000 0.0000 0.0000
# 2 43.2343 29.6369 35.1076 0.0000 0.0000 0.0000
# 3 100.7210 35.1076 116.2162 0.0000 0.0000 0.0000
# 4 0.0000 0.0000 0.0000 28.1727 0.0000 0.0000
# 5 0.0000 0.0000 0.0000 0.0000 22.5201 0.0000
# 6 0.0000 0.0000 0.0000 0.0000 0.0000 30.3477
#
#
#
# Elastic Compliance Matrix: (Units=1/GPa)
#
#
# Indices 1 2 3 4 5 6 
#
# 1 0.010119 -0.006810 -0.006713 0.000000 0.000000 0.000000
# 2 -0.006810 0.057128 -0.011356 0.000000 0.000000 0.000000
# 3 -0.006713 -0.011356 0.017853 0.000000 0.000000 0.000000
# 4 0.000000 0.000000 0.000000 0.035495 0.000000 0.000000
# 5 0.000000 0.000000 0.000000 0.000000 0.044405 0.000000
# 6 0.000000 0.000000 0.000000 0.000000 0.000000 0.032951
#
#
# Mechanical properties :
#
#
# Convention : Reuss Voigt Hill
#
# Bulk Modulus (GPa) = 28.29401 77.63453 52.96427
# Shear Modulus (GPa) = 19.26852 26.97621 23.12237
#
# Velocity S-wave (km/s) = 3.31520 3.92262 3.63163
# Velocity P-wave (km/s) = 5.54911 8.04971 6.91341
#
# Compressibility (1/GPa) = 0.03534317
#
# Stress axis : x y z
#
# Youngs Moduli (GPa) = 98.82057 17.50446 56.01323
#
# Poissons Ratio (x) = 0.11921 0.37601
# Poissons Ratio (y) = 0.67298 0.63607
# Poissons Ratio (z) = 0.66337 0.19878
#
# Static dielectric constant tensor:
#      x y z
#    x 1.568940 0.000000 0.000000 
#    y 0.000000 1.595320 0.000000 
#    z 0.000000 0.000000 1.590420 
# 
# From -- ./inp_files/57785.got.cif
#   From: 2010.05.17/outbox.cif.g08.bks.cpg/sg71_29_cif.got.tgz:57785.got - 2010.06.03 16:22:01.
