data_PCOD9522112
_publ_section_title
;
Structure prediction by ZEFSAII (Michael W. Deem and Ramdas Pophale) SiO2 
 PCOD9522112
Probable space group: I M M M
;
_chemical_formula_sum "Si O2"
_cell_formula_units_Z 104
_cell_length_a 28.122458
_cell_length_b 17.298733
_cell_length_c 11.837701
_cell_angle_alpha 90.000000
_cell_angle_beta 90.000000
_cell_angle_gamma 90.000000
_cell_volume 5758.839020
_symmetry_space_group_name_H-M "I M M M"
_symmetry_group_IT_number 71
_symmetry_cell_setting 'orthorhombic'
loop_
_space_group_symop_operation_xyz
x,y,z
-x,-y,z
x,-y,-z
-x,y,-z
-x,-y,-z
x,y,-z
-x,y,z
x,-y,z
1/2+x,1/2+y,1/2+z
1/2-x,1/2-y,1/2+z
1/2+x,1/2-y,1/2-z
1/2-x,1/2+y,1/2-z
1/2-x,1/2-y,1/2-z
1/2+x,1/2+y,1/2-z
1/2-x,1/2+y,1/2+z
1/2+x,1/2-y,1/2+z
loop_
_atom_site_type_symbol
_atom_site_label
_atom_site_fract_x
_atom_site_fract_y
_atom_site_fract_z
Si Si1 0.322401 0.592452 0.000000
Si Si2 0.600290 0.831165 0.136400
Si Si3 0.786959 0.091998 0.135026
Si Si4 0.812176 0.407900 0.247159
Si Si5 0.054688 0.092729 0.875584
Si Si6 0.710672 0.905733 0.500000
Si Si7 0.000000 0.409923 0.362999
Si Si8 0.631544 0.664029 0.777597
O O1 0.348197 0.625411 0.890483
O O2 0.324430 0.500000 0.000000
O O3 0.266648 0.614512 0.000000
O O4 0.641984 0.886441 0.180706
O O5 0.548432 0.864914 0.169577
O O6 0.614789 0.749956 0.192457
O O7 0.601298 0.824471 0.000000
O O8 0.736565 0.114906 0.190009
O O9 0.826996 0.147577 0.186418
O O10 0.796724 0.000000 0.163334
O O11 0.784833 0.096876 0.000000
O O12 0.810022 0.500000 0.239652
O O13 0.811986 0.377831 0.117834
O O14 0.086079 0.122206 0.774437
O O15 0.000000 0.117324 0.865331
O O16 0.055671 0.000000 0.875659
O O17 0.072596 0.118042 0.000000
O O18 0.708184 0.000000 0.500000
O O19 0.000000 0.500000 0.324691
O O20 0.000000 0.412107 0.500000
#
# Coordination Sequence:
#
# PCOD9522112 Si02
#       8
#     8  16  16  16  16   8   8  16
#     4  11  20  36  57  80 118 172 209 224 272 354
#     4  11  24  40  59  89 121 148 190 250 307 351
#     4  10  20  35  58  88 119 157 204 247 283 339
#     4  10  20  38  63  87 116 152 196 245 293 356
#     4   9  19  37  60  83 109 149 205 257 293 342
#     4   9  18  36  60  86 116 156 200 233 274 352
#     4   9  20  42  70  89 107 146 193 240 299 360
#     4  12  22  35  54  84 123 161 192 244 294 347
#
# _framework density 18.059194999999999
#
# number of rings (size 3 to 8) (size 9 to 14) (size 15 to 20)
#    0.000    1.769    2.308    3.231    1.077    3.385 
#    2.769    0.385    0.000    1.846    0.000    2.154 
#    0.000    0.000    0.000    0.000    0.000    0.000 
#
# Total GULP energy -290072.672978 kJ/mol
# GULP energy per Si atom -5578.320634 kJ/mol
# Density = 1.801809 g / cm^3
# Si number density = 18.059195 Si / 1000 Ang^3
#
#
#
# Elastic Constant Matrix: (Units=GPa)
#
#
# Indices 1 2 3 4 5 6 
#
# 1 115.6395 41.4238 45.1356 0.0000 0.0000 0.0000
# 2 41.4238 42.9936 19.7159 0.0000 0.0000 0.0000
# 3 45.1356 19.7159 83.2462 0.0000 0.0000 0.0000
# 4 0.0000 0.0000 0.0000 23.5514 0.0000 0.0000
# 5 0.0000 0.0000 0.0000 0.0000 19.2023 0.0000
# 6 0.0000 0.0000 0.0000 0.0000 0.0000 55.5843
#
#
#
# Elastic Compliance Matrix: (Units=1/GPa)
#
#
# Indices 1 2 3 4 5 6 
#
# 1 0.015033 -0.012056 -0.005296 0.000000 0.000000 0.000000
# 2 -0.012056 0.035761 -0.001933 0.000000 0.000000 0.000000
# 3 -0.005296 -0.001933 0.015342 0.000000 0.000000 0.000000
# 4 0.000000 0.000000 0.000000 0.042460 0.000000 0.000000
# 5 0.000000 0.000000 0.000000 0.000000 0.052077 0.000000
# 6 0.000000 0.000000 0.000000 0.000000 0.000000 0.017991
#
#
# Mechanical properties :
#
#
# Convention : Reuss Voigt Hill
#
# Bulk Modulus (GPa) = 36.27507 50.49223 43.38365
# Shear Modulus (GPa) = 22.08267 28.70785 25.39526
#
# Velocity S-wave (km/s) = 3.50064 3.99137 3.75403
# Velocity P-wave (km/s) = 6.03901 7.01864 6.54718
#
# Compressibility (1/GPa) = 0.02756714
#
# Stress axis : x y z
#
# Youngs Moduli (GPa) = 66.52021 27.96323 65.18217
#
# Poissons Ratio (x) = 0.33712 0.34518
# Poissons Ratio (y) = 0.80195 0.12600
# Poissons Ratio (z) = 0.35226 0.05406
#
# Static dielectric constant tensor:
#      x y z
#    x 1.608610 0.000000 0.000000 
#    y 0.000000 1.651040 0.000000 
#    z 0.000000 0.000000 1.576400 
# 
# From -- ./inp_files/28951.got.cif
#   From: 2010.05.17/outbox.cif.g08.bks.cpg/sg71_15_cif.got.tgz:28951.got - 2010.06.03 16:22:01.
