data_PCOD9522472
_publ_section_title
;
Structure prediction by ZEFSAII (Michael W. Deem and Ramdas Pophale) SiO2 
 PCOD9522472
Probable space group: I M M M
;
_chemical_formula_sum "Si O2"
_cell_formula_units_Z 104
_cell_length_a 30.515006
_cell_length_b 8.797232
_cell_length_c 21.197221
_cell_angle_alpha 90.000000
_cell_angle_beta 90.000000
_cell_angle_gamma 90.000000
_cell_volume 5690.342834
_symmetry_space_group_name_H-M "I M M M"
_symmetry_group_IT_number 71
_symmetry_cell_setting 'orthorhombic'
loop_
_space_group_symop_operation_xyz
x,y,z
-x,-y,z
x,-y,-z
-x,y,-z
-x,-y,-z
x,y,-z
-x,y,z
x,-y,z
1/2+x,1/2+y,1/2+z
1/2-x,1/2-y,1/2+z
1/2+x,1/2-y,1/2-z
1/2-x,1/2+y,1/2-z
1/2-x,1/2-y,1/2-z
1/2+x,1/2+y,1/2-z
1/2-x,1/2+y,1/2+z
1/2+x,1/2-y,1/2+z
loop_
_atom_site_type_symbol
_atom_site_label
_atom_site_fract_x
_atom_site_fract_y
_atom_site_fract_z
Si Si1 0.553047 0.173423 0.500000
Si Si2 0.282367 0.684878 0.928548
Si Si3 0.449001 0.318055 0.633624
Si Si4 0.629400 0.321107 0.857316
Si Si5 0.873845 0.681168 0.219625
Si Si6 0.449936 0.176115 0.924319
Si Si7 0.224402 0.316116 0.810583
O O1 0.500000 0.170587 0.500000
O O2 0.565139 0.256508 0.435222
O O3 0.569145 0.000000 0.500000
O O4 0.280955 0.500000 0.930682
O O5 0.330208 0.726848 0.901848
O O6 0.247697 0.733256 0.875416
O O7 0.275275 0.739821 0.000000
O O8 0.500000 0.270384 0.644792
O O9 0.448251 0.500000 0.633147
O O10 0.415106 0.256208 0.684959
O O11 0.634472 0.500000 0.843945
O O12 0.628913 0.231077 0.792144
O O13 0.584447 0.286619 0.892827
O O14 0.878178 0.500000 0.214692
O O15 0.826724 0.726624 0.190582
O O16 0.500000 0.207604 0.905315
O O17 0.440010 0.000000 0.907629
O O18 0.447611 0.187589 0.000000
O O19 0.227116 0.500000 0.806556
O O20 0.250000 0.250000 0.750000
#
# Coordination Sequence:
#
# PCOD9522472 Si02
#       7
#     8  16  16  16  16  16  16
#     4   9  17  33  59  87 115 149 189 233 283 341
#     4   9  18  34  57  84 112 143 182 229 282 337
#     4  10  21  38  60  85 115 152 193 237 287 343
#     4  11  21  34  56  82 109 146 188 234 283 335
#     4  11  23  37  56  84 114 150 193 235 285 342
#     4   9  19  36  55  76 108 148 184 224 278 334
#     4  10  20  37  60  84 113 151 190 231 284 344
#
# _framework density 18.276579000000002
#
# number of rings (size 3 to 8) (size 9 to 14) (size 15 to 20)
#    0.000    2.077    1.538    2.538    0.000    4.308 
#    1.385    0.769    0.000    1.385    0.000    0.000 
#    0.000    0.000    0.000    0.000    0.000    0.000 
#
# Total GULP energy -290193.786412 kJ/mol
# GULP energy per Si atom -5580.649739 kJ/mol
# Density = 1.823498 g / cm^3
# Si number density = 18.276579 Si / 1000 Ang^3
#
#
#
# Elastic Constant Matrix: (Units=GPa)
#
#
# Indices 1 2 3 4 5 6 
#
# 1 105.1105 32.7111 62.2961 0.0000 0.0000 0.0000
# 2 32.7111 33.3415 23.8304 0.0000 0.0000 0.0000
# 3 62.2961 23.8304 129.6311 0.0000 0.0000 0.0000
# 4 0.0000 0.0000 0.0000 17.0896 0.0000 0.0000
# 5 0.0000 0.0000 0.0000 0.0000 35.4093 0.0000
# 6 0.0000 0.0000 0.0000 0.0000 0.0000 18.6366
#
#
#
# Elastic Compliance Matrix: (Units=1/GPa)
#
#
# Indices 1 2 3 4 5 6 
#
# 1 0.016788 -0.012323 -0.005802 0.000000 0.000000 0.000000
# 2 -0.012323 0.043576 -0.002089 0.000000 0.000000 0.000000
# 3 -0.005802 -0.002089 0.010886 0.000000 0.000000 0.000000
# 4 0.000000 0.000000 0.000000 0.058515 0.000000 0.000000
# 5 0.000000 0.000000 0.000000 0.000000 0.028241 0.000000
# 6 0.000000 0.000000 0.000000 0.000000 0.000000 0.053658
#
#
# Mechanical properties :
#
#
# Convention : Reuss Voigt Hill
#
# Bulk Modulus (GPa) = 32.44441 56.19536 44.31988
# Shear Modulus (GPa) = 19.05739 24.17681 21.61710
#
# Velocity S-wave (km/s) = 3.23262 3.64102 3.44288
# Velocity P-wave (km/s) = 5.63237 6.96347 6.33299
#
# Compressibility (1/GPa) = 0.03082195
#
# Stress axis : x y z
#
# Youngs Moduli (GPa) = 59.56772 22.94862 91.85757
#
# Poissons Ratio (x) = 0.28280 0.53297
# Poissons Ratio (y) = 0.73407 0.19185
# Poissons Ratio (z) = 0.34562 0.04793
#
# Static dielectric constant tensor:
#      x y z
#    x 1.623120 0.000000 0.000000 
#    y 0.000000 1.625560 0.000000 
#    z 0.000000 0.000000 1.608750 
# 
# From -- ./inp_files/16994.got.cif
#   From: 2010.05.17/outbox.cif.g08.bks.cpg/sg71_9_cif.got.tgz:16994.got - 2010.06.03 16:22:01.
