data_PCOD9522315
_publ_section_title
;
Structure prediction by ZEFSAII (Michael W. Deem and Ramdas Pophale) SiO2 
 PCOD9522315
Probable space group: I M M M
;
_chemical_formula_sum "Si O2"
_cell_formula_units_Z 88
_cell_length_a 8.313679
_cell_length_b 19.463058
_cell_length_c 28.432051
_cell_angle_alpha 90.000000
_cell_angle_beta 90.000000
_cell_angle_gamma 90.000000
_cell_volume 4600.579271
_symmetry_space_group_name_H-M "I M M M"
_symmetry_group_IT_number 71
_symmetry_cell_setting 'orthorhombic'
loop_
_space_group_symop_operation_xyz
x,y,z
-x,-y,z
x,-y,-z
-x,y,-z
-x,-y,-z
x,y,-z
-x,y,z
x,-y,z
1/2+x,1/2+y,1/2+z
1/2-x,1/2-y,1/2+z
1/2+x,1/2-y,1/2-z
1/2-x,1/2+y,1/2-z
1/2-x,1/2-y,1/2-z
1/2+x,1/2+y,1/2-z
1/2-x,1/2+y,1/2+z
1/2+x,1/2-y,1/2+z
loop_
_atom_site_type_symbol
_atom_site_label
_atom_site_fract_x
_atom_site_fract_y
_atom_site_fract_z
Si Si1 0.695714 0.500000 0.552636
Si Si2 0.693997 0.786934 0.448013
Si Si3 0.693651 0.356276 0.403375
Si Si4 0.315944 0.806135 0.193802
Si Si5 0.190667 0.922189 0.735218
Si Si6 0.809257 0.665504 0.845172
O O1 0.500000 0.500000 0.551004
O O2 0.757677 0.500000 0.500000
O O3 0.740663 0.569983 0.577653
O O4 0.754702 0.807897 0.500000
O O5 0.500000 0.796284 0.448573
O O6 0.722048 0.705668 0.439788
O O7 0.750358 0.821735 0.398905
O O8 0.500000 0.355186 0.392926
O O9 0.791375 0.340958 0.356703
O O10 0.500000 0.787858 0.203462
O O11 0.259692 0.863070 0.230896
O O12 0.221946 0.734507 0.185929
O O13 0.229149 0.896971 0.682485
O O14 0.000000 0.923069 0.742403
O O15 0.251973 0.000000 0.743874
O O16 0.000000 0.654881 0.847049
#
# Coordination Sequence:
#
# PCOD9522315 Si02
#       6
#     8  16  16  16  16  16
#     4   9  16  26  45  71  99 137 183 229 272 315
#     4   8  14  27  50  78 105 134 172 218 262 306
#     4   9  17  29  47  73 104 138 180 226 267 310
#     4  11  22  36  55  78 108 144 182 222 267 321
#     4  11  24  40  58  79 107 142 180 223 271 324
#     4  10  20  36  59  85 112 141 177 222 267 316
#
# _framework density 19.128025000000001
#
# number of rings (size 3 to 8) (size 9 to 14) (size 15 to 20)
#    0.000    2.273    0.000    4.909    1.273    3.636 
#    0.000    0.000    0.000   19.636    0.000    3.818 
#    0.000    0.000    0.000    0.000    0.000    0.000 
#
# Total GULP energy -245330.565542 kJ/mol
# GULP energy per Si atom -5575.694671 kJ/mol
# Density = 1.908449 g / cm^3
# Si number density = 19.128025 Si / 1000 Ang^3
#
#
#
# Elastic Constant Matrix: (Units=GPa)
#
#
# Indices 1 2 3 4 5 6 
#
# 1 18.5021 -9.4533 4.8785 0.0000 0.0000 0.0000
# 2 -9.4533 35.1528 31.0547 0.0000 0.0000 0.0000
# 3 4.8785 31.0547 100.3030 0.0000 0.0000 0.0000
# 4 0.0000 0.0000 0.0000 6.7278 0.0000 0.0000
# 5 0.0000 0.0000 0.0000 0.0000 16.8566 0.0000
# 6 0.0000 0.0000 0.0000 0.0000 0.0000 19.9093
#
#
#
# Elastic Compliance Matrix: (Units=1/GPa)
#
#
# Indices 1 2 3 4 5 6 
#
# 1 0.073757 0.031665 -0.013391 0.000000 0.000000 0.000000
# 2 0.031665 0.052752 -0.017872 0.000000 0.000000 0.000000
# 3 -0.013391 -0.017872 0.016155 0.000000 0.000000 0.000000
# 4 0.000000 0.000000 0.000000 0.148636 0.000000 0.000000
# 5 0.000000 0.000000 0.000000 0.000000 0.059324 0.000000
# 6 0.000000 0.000000 0.000000 0.000000 0.000000 0.050228
#
#
# Mechanical properties :
#
#
# Convention : Reuss Voigt Hill
#
# Bulk Modulus (GPa) = 6.97030 22.99085 14.98058
# Shear Modulus (GPa) = 11.16394 17.19728 14.18061
#
# Velocity S-wave (km/s) = 2.41849 3.00169 2.72573
# Velocity P-wave (km/s) = 3.38389 4.90500 4.21366
#
# Compressibility (1/GPa) = 0.14346581
#
# Stress axis : x y z
#
# Youngs Moduli (GPa) = 13.55801 18.95680 61.90200
#
# Poissons Ratio (x) = -0.60026 0.82893
# Poissons Ratio (y) = -0.42931 1.10634
# Poissons Ratio (z) = 0.18156 0.33880
#
# Static dielectric constant tensor:
#      x y z
#    x 1.670430 0.000000 0.000000 
#    y 0.000000 1.591730 0.000000 
#    z 0.000000 0.000000 1.697600 
# 
# From -- ./inp_files/68035.got.cif
#   From: 2010.05.17/outbox.cif.g08.bks.cpg/sg71_35_cif.got.tgz:68035.got - 2010.06.03 16:22:01.
