data_PCOD9522161
_publ_section_title
;
Structure prediction by ZEFSAII (Michael W. Deem and Ramdas Pophale) SiO2 
 PCOD9522161
Probable space group: I M M M
;
_chemical_formula_sum "Si O2"
_cell_formula_units_Z 72
_cell_length_a 19.528513
_cell_length_b 7.613136
_cell_length_c 24.214909
_cell_angle_alpha 90.000000
_cell_angle_beta 90.000000
_cell_angle_gamma 90.000000
_cell_volume 3600.108623
_symmetry_space_group_name_H-M "I M M M"
_symmetry_group_IT_number 71
_symmetry_cell_setting 'orthorhombic'
loop_
_space_group_symop_operation_xyz
x,y,z
-x,-y,z
x,-y,-z
-x,y,-z
-x,-y,-z
x,y,-z
-x,y,z
x,-y,z
1/2+x,1/2+y,1/2+z
1/2-x,1/2-y,1/2+z
1/2+x,1/2-y,1/2-z
1/2-x,1/2+y,1/2-z
1/2-x,1/2-y,1/2-z
1/2+x,1/2+y,1/2-z
1/2-x,1/2+y,1/2+z
1/2+x,1/2-y,1/2+z
loop_
_atom_site_type_symbol
_atom_site_label
_atom_site_fract_x
_atom_site_fract_y
_atom_site_fract_z
Si Si1 0.075678 0.000000 0.565190
Si Si2 0.313803 0.710634 0.436704
Si Si3 0.670183 0.209888 0.757478
Si Si4 0.331506 0.212369 0.116847
Si Si5 0.078069 0.710539 0.844002
O O1 0.116136 0.825168 0.581761
O O2 0.070512 0.000000 0.500000
O O3 0.000000 0.000000 0.590435
O O4 0.314641 0.777801 0.500000
O O5 0.311375 0.500000 0.439908
O O6 0.245077 0.762895 0.403444
O O7 0.379591 0.756697 0.399973
O O8 0.750000 0.250000 0.750000
O O9 0.654492 0.265302 0.819808
O O10 0.622780 0.280134 0.707971
O O11 0.662949 0.000000 0.756476
O O12 0.338019 0.000000 0.111511
O O13 0.074202 0.500000 0.837794
O O14 0.000000 0.777613 0.845200
#
# Coordination Sequence:
#
# PCOD9522161 Si02
#       5
#     8  16  16  16  16
#     4  11  26  44  64  96 129 163 214 266 317 378
#     4  10  21  37  58  86 118 157 207 253 302 368
#     4  10  20  35  61  89 119 157 200 254 312 372
#     4  10  22  41  66  94 127 166 207 258 319 382
#     4  10  22  38  56  84 121 159 201 251 309 370
#
# _framework density 19.999396000000001
#
# number of rings (size 3 to 8) (size 9 to 14) (size 15 to 20)
#    0.000    1.889    2.222    0.667    3.111    4.000 
#    0.000    5.556    0.000    0.000    0.000    0.000 
#    0.000    0.000    0.000    0.000    0.000    0.000 
#
# Total GULP energy -200932.840392 kJ/mol
# GULP energy per Si atom -5581.467789 kJ/mol
# Density = 1.995388 g / cm^3
# Si number density = 19.999396 Si / 1000 Ang^3
#
#
#
# Elastic Constant Matrix: (Units=GPa)
#
#
# Indices 1 2 3 4 5 6 
#
# 1 159.6953 19.7663 67.8794 0.0000 0.0000 0.0000
# 2 19.7663 42.0134 19.0267 0.0000 0.0000 0.0000
# 3 67.8794 19.0267 151.6714 0.0000 0.0000 0.0000
# 4 0.0000 0.0000 0.0000 26.6457 0.0000 0.0000
# 5 0.0000 0.0000 0.0000 0.0000 30.1677 0.0000
# 6 0.0000 0.0000 0.0000 0.0000 0.0000 11.6698
#
#
#
# Elastic Compliance Matrix: (Units=1/GPa)
#
#
# Indices 1 2 3 4 5 6 
#
# 1 0.007929 -0.002251 -0.003266 0.000000 0.000000 0.000000
# 2 -0.002251 0.025875 -0.002238 0.000000 0.000000 0.000000
# 3 -0.003266 -0.002238 0.008336 0.000000 0.000000 0.000000
# 4 0.000000 0.000000 0.000000 0.037529 0.000000 0.000000
# 5 0.000000 0.000000 0.000000 0.000000 0.033148 0.000000
# 6 0.000000 0.000000 0.000000 0.000000 0.000000 0.085691
#
#
# Mechanical properties :
#
#
# Convention : Reuss Voigt Hill
#
# Bulk Modulus (GPa) = 37.55453 62.96943 50.26198
# Shear Modulus (GPa) = 22.43202 30.14382 26.28792
#
# Velocity S-wave (km/s) = 3.35272 3.88653 3.62945
# Velocity P-wave (km/s) = 5.81431 7.18986 6.53836
#
# Compressibility (1/GPa) = 0.02662795
#
# Stress axis : x y z
#
# Youngs Moduli (GPa) = 126.12197 38.64769 119.96580
#
# Poissons Ratio (x) = 0.08700 0.39182
# Poissons Ratio (y) = 0.28393 0.26853
# Poissons Ratio (z) = 0.41192 0.08651
#
# Static dielectric constant tensor:
#      x y z
#    x 1.694350 0.000000 0.000000 
#    y 0.000000 1.720040 0.000000 
#    z 0.000000 0.000000 1.730790 
# 
# From -- ./inp_files/7967.got.cif
#   From: 2010.05.17/outbox.cif.g08.bks.cpg/sg71_4_cif.got.tgz:7967.got - 2010.06.03 16:22:01.
