data_PCOD9522416
_publ_section_title
;
Structure prediction by ZEFSAII (Michael W. Deem and Ramdas Pophale) SiO2 
 PCOD9522416
Probable space group: I M M M
;
_chemical_formula_sum "Si O2"
_cell_formula_units_Z 88
_cell_length_a 12.857251
_cell_length_b 21.079229
_cell_length_c 15.065330
_cell_angle_alpha 90.000000
_cell_angle_beta 90.000000
_cell_angle_gamma 90.000000
_cell_volume 4083.019870
_symmetry_space_group_name_H-M "I M M M"
_symmetry_group_IT_number 71
_symmetry_cell_setting 'orthorhombic'
loop_
_space_group_symop_operation_xyz
x,y,z
-x,-y,z
x,-y,-z
-x,y,-z
-x,-y,-z
x,y,-z
-x,y,z
x,-y,z
1/2+x,1/2+y,1/2+z
1/2-x,1/2-y,1/2+z
1/2+x,1/2-y,1/2-z
1/2-x,1/2+y,1/2-z
1/2-x,1/2-y,1/2-z
1/2+x,1/2+y,1/2-z
1/2-x,1/2+y,1/2+z
1/2+x,1/2-y,1/2+z
loop_
_atom_site_type_symbol
_atom_site_label
_atom_site_fract_x
_atom_site_fract_y
_atom_site_fract_z
Si Si1 0.000000 0.250000 0.251845
Si Si2 0.229764 0.385653 0.854759
Si Si3 0.884020 0.000000 0.396630
Si Si4 0.384020 0.000000 0.103370
Si Si5 0.000000 0.363979 0.895248
Si Si6 0.290238 0.750000 0.850698
Si Si7 0.000000 0.863980 0.895248
Si Si8 0.770236 0.114347 0.145241
O O1 0.000000 0.309043 0.181880
O O2 0.908821 0.250000 0.323690
O O3 0.000000 0.190957 0.181880
O O4 0.312907 0.438687 0.879640
O O5 0.109545 0.400124 0.878240
O O6 0.253166 0.315508 0.893646
O O7 0.250000 0.379953 0.750000
O O8 0.901031 0.000000 0.500000
O O9 0.000000 0.000000 0.352787
O O10 0.312907 0.061313 0.120360
O O11 0.500000 0.000000 0.147213
O O12 0.401031 0.000000 0.000000
O O13 0.000000 0.343488 0.000000
O O14 0.250000 0.750000 0.750000
O O15 0.253166 0.815508 0.893646
O O16 0.890455 0.900124 0.878240
O O17 0.000000 0.843488 0.000000
#
# Coordination Sequence:
#
# PCOD9522416 Si02
#       8
#     8  16   8   8   8  16   8  16
#     4  12  19  38  60 100 139 170 210 272 329 388
#     4  11  23  43  68  98 131 174 221 264 328 398
#     4  11  27  47  65  91 131 173 219 277 331 391
#     4  11  27  47  65  91 131 173 219 277 331 391
#     4  12  23  37  66 103 137 169 211 277 337 385
#     4  10  20  36  66  98 129 166 223 265 313 389
#     4  12  23  37  66 103 137 169 211 277 337 385
#     4  11  23  43  68  98 131 174 221 264 328 398
#
# _framework density 21.552676000000002
#
# number of rings (size 3 to 8) (size 9 to 14) (size 15 to 20)
#    0.000    0.909    7.273    1.909    5.091    0.727 
#    0.000    4.545    0.000    2.182    0.000    0.000 
#    0.000    0.000    0.000    0.000    0.000    0.000 
#
# Total GULP energy -245020.333522 kJ/mol
# GULP energy per Si atom -5568.643944 kJ/mol
# Density = 2.150362 g / cm^3
# Si number density = 21.552676 Si / 1000 Ang^3
#
#
#
# Elastic Constant Matrix: (Units=GPa)
#
#
# Indices 1 2 3 4 5 6 
#
# 1 242.6260 76.4063 20.5657 0.0000 0.0000 0.0000
# 2 76.4063 151.1663 16.8180 0.0000 0.0000 0.0000
# 3 20.5657 16.8180 80.9806 0.0000 0.0000 0.0000
# 4 0.0000 0.0000 0.0000 -0.1847 0.0000 0.0000
# 5 0.0000 0.0000 0.0000 0.0000 14.7686 0.0000
# 6 0.0000 0.0000 0.0000 0.0000 0.0000 39.5340
#
#
#
# Elastic Compliance Matrix: (Units=1/GPa)
#
#
# Indices 1 2 3 4 5 6 
#
# 1 0.004946 -0.002416 -0.000754 0.000000 0.000000 0.000000
# 2 -0.002416 0.007952 -0.001038 0.000000 0.000000 0.000000
# 3 -0.000754 -0.001038 0.012756 0.000002 0.000000 0.000000
# 4 0.000000 0.000000 0.000002 -5.413672 0.000004 0.000000
# 5 0.000000 0.000000 0.000000 0.000004 0.067711 0.000000
# 6 0.000000 0.000000 0.000000 0.000000 0.000000 0.025295
#
#
# Mechanical properties :
#
#
# Convention : Reuss Voigt Hill
#
# Bulk Modulus (GPa) = 58.01389 78.03922 68.02655
# Shear Modulus (GPa) = -0.94682 34.88910 16.97114
#
# Velocity S-wave (km/s) = -0.66352 4.02777 2.80916
# Velocity P-wave (km/s) = 5.13699 7.61038 6.49255
#
# Compressibility (1/GPa) = 0.01723725
#
# Stress axis : x y z
#
# Youngs Moduli (GPa) = 202.16669 125.75524 78.39598
#
# Poissons Ratio (x) = 0.30385 0.05914
# Poissons Ratio (y) = 0.48848 0.08136
# Poissons Ratio (z) = 0.15251 0.13051
#
# Static dielectric constant tensor:
#      x y z
#    x 1.827470 0.000000 0.000000 
#    y 0.000000 1.943030 0.000000 
#    z 0.000000 0.000000 1.764140 
# 
# From -- ./inp_files/43416.got.cif
#   From: 2010.05.17/outbox.cif.g08.bks.cpg/sg71_22_cif.got.tgz:43416.got - 2010.06.03 16:22:01.
