data_PCOD9522827
_publ_section_title
;
Structure prediction by ZEFSAII (Michael W. Deem and Ramdas Pophale) SiO2 
 PCOD9522827
Probable space group: I M M M
;
_chemical_formula_sum "Si O2"
_cell_formula_units_Z 112
_cell_length_a 31.636200
_cell_length_b 14.862293
_cell_length_c 12.280357
_cell_angle_alpha 90.000000
_cell_angle_beta 90.000000
_cell_angle_gamma 90.000000
_cell_volume 5774.057755
_symmetry_space_group_name_H-M "I M M M"
_symmetry_group_IT_number 71
_symmetry_cell_setting 'orthorhombic'
loop_
_space_group_symop_operation_xyz
x,y,z
-x,-y,z
x,-y,-z
-x,y,-z
-x,-y,-z
x,y,-z
-x,y,z
x,-y,z
1/2+x,1/2+y,1/2+z
1/2-x,1/2-y,1/2+z
1/2+x,1/2-y,1/2-z
1/2-x,1/2+y,1/2-z
1/2-x,1/2-y,1/2-z
1/2+x,1/2+y,1/2-z
1/2-x,1/2+y,1/2+z
1/2+x,1/2-y,1/2+z
loop_
_atom_site_type_symbol
_atom_site_label
_atom_site_fract_x
_atom_site_fract_y
_atom_site_fract_z
Si Si1 0.437174 0.597786 0.623029
Si Si2 0.342668 0.395401 0.689733
Si Si3 0.173260 0.602389 0.325983
Si Si4 0.756981 0.197679 0.870746
Si Si5 0.952588 0.722453 0.247455
Si Si6 0.381915 0.106405 0.376354
Si Si7 0.121989 0.774723 0.616170
O O1 0.452054 0.598787 0.500000
O O2 0.447172 0.500000 0.672832
O O3 0.386190 0.605446 0.622598
O O4 0.454420 0.683238 0.684465
O O5 0.331914 0.500000 0.711147
O O6 0.303555 0.344209 0.636331
O O7 0.356440 0.339498 0.796278
O O8 0.161309 0.500000 0.353194
O O9 0.221338 0.621223 0.356503
O O10 0.159679 0.616963 0.199003
O O11 0.146931 0.680744 0.382771
O O12 0.750000 0.250000 0.750000
O O13 0.751817 0.233885 0.000000
O O14 0.921083 0.657869 0.179159
O O15 0.925787 0.748026 0.353814
O O16 0.000000 0.687126 0.262813
O O17 0.375477 0.137967 0.500000
O O18 0.391245 0.000000 0.378180
O O19 0.124442 0.819339 0.500000
#
# Coordination Sequence:
#
# PCOD9522827 Si02
#       7
#    16  16  16  16  16  16  16
#     4   9  18  33  53  78 108 141 178 226 285 344
#     4  10  21  38  60  86 114 152 199 248 297 352
#     4  10  21  38  60  86 116 154 200 247 294 351
#     4  12  25  40  60  91 127 163 204 255 306 358
#     4  10  21  35  53  81 112 146 191 240 291 356
#     4   9  19  36  57  82 115 154 194 240 299 363
#     4  10  21  39  59  83 115 152 195 246 304 361
#
# _framework density 19.397105
#
# number of rings (size 3 to 8) (size 9 to 14) (size 15 to 20)
#    0.000    2.000    1.429    1.714    0.000    5.429 
#    0.000    1.429    0.000    2.571    0.000    8.000 
#    0.000    0.000    0.000    0.000    0.000    0.000 
#
# Total GULP energy -311746.301413 kJ/mol
# GULP energy per Si atom -5566.898240 kJ/mol
# Density = 1.935296 g / cm^3
# Si number density = 19.397105 Si / 1000 Ang^3
#
#
#
# Elastic Constant Matrix: (Units=GPa)
#
#
# Indices 1 2 3 4 5 6 
#
# 1 108.4842 8.7277 25.5246 0.0000 0.0000 0.0000
# 2 8.7277 67.0253 28.1227 0.0000 0.0000 0.0000
# 3 25.5246 28.1227 117.6218 0.0000 0.0000 0.0000
# 4 0.0000 0.0000 0.0000 6.7595 0.0000 0.0000
# 5 0.0000 0.0000 0.0000 0.0000 -100.1530 0.0000
# 6 0.0000 0.0000 0.0000 0.0000 0.0000 6.9132
#
#
#
# Elastic Compliance Matrix: (Units=1/GPa)
#
#
# Indices 1 2 3 4 5 6 
#
# 1 0.009725 -0.000423 -0.002009 0.000000 0.000000 0.000000
# 2 -0.000423 0.016602 -0.003878 0.000000 0.000000 0.000000
# 3 -0.002009 -0.003878 0.009865 0.000000 0.000000 0.000000
# 4 0.000000 0.000000 0.000000 0.147941 0.000000 0.000000
# 5 0.000000 0.000000 0.000000 0.000000 -0.009985 0.000000
# 6 0.000000 0.000000 0.000000 0.000000 0.000000 0.144650
#
#
# Mechanical properties :
#
#
# Convention : Reuss Voigt Hill
#
# Bulk Modulus (GPa) = 42.42409 46.43124 44.42766
# Shear Modulus (GPa) = 14.73732 -1.91230 6.41251
#
# Velocity S-wave (km/s) = 2.75938 -0.99399 1.82019
# Velocity P-wave (km/s) = 5.66313 4.76149 5.23177
#
# Compressibility (1/GPa) = 0.02357151
#
# Stress axis : x y z
#
# Youngs Moduli (GPa) = 102.83093 60.23442 101.36947
#
# Poissons Ratio (x) = 0.02550 0.20366
# Poissons Ratio (y) = 0.04353 0.39306
# Poissons Ratio (z) = 0.20660 0.23356
#
# Static dielectric constant tensor:
#      x y z
#    x 1.689530 0.000000 0.000000 
#    y 0.000000 1.679010 0.000000 
#    z 0.000000 0.000000 1.767500 
# 
# From -- ./inp_files/30027.got.cif
#   From: 2010.05.17/outbox.cif.g08.bks.cpg/sg71_16_cif.got.tgz:30027.got - 2010.06.03 16:22:01.
