data_PCOD9522507
_publ_section_title
;
Structure prediction by ZEFSAII (Michael W. Deem and Ramdas Pophale) SiO2 
 PCOD9522507
Probable space group: I M M M
;
_chemical_formula_sum "Si O2"
_cell_formula_units_Z 72
_cell_length_a 16.488381
_cell_length_b 9.998292
_cell_length_c 20.900178
_cell_angle_alpha 90.000000
_cell_angle_beta 90.000000
_cell_angle_gamma 90.000000
_cell_volume 3445.512384
_symmetry_space_group_name_H-M "I M M M"
_symmetry_group_IT_number 71
_symmetry_cell_setting 'orthorhombic'
loop_
_space_group_symop_operation_xyz
x,y,z
-x,-y,z
x,-y,-z
-x,y,-z
-x,-y,-z
x,y,-z
-x,y,z
x,-y,z
1/2+x,1/2+y,1/2+z
1/2-x,1/2-y,1/2+z
1/2+x,1/2-y,1/2-z
1/2-x,1/2+y,1/2-z
1/2-x,1/2-y,1/2-z
1/2+x,1/2+y,1/2-z
1/2-x,1/2+y,1/2+z
1/2+x,1/2-y,1/2+z
loop_
_atom_site_type_symbol
_atom_site_label
_atom_site_fract_x
_atom_site_fract_y
_atom_site_fract_z
Si Si1 0.690493 0.849647 0.709062
Si Si2 0.295387 0.742528 0.573738
Si Si3 0.000000 0.342905 0.239974
Si Si4 0.589250 0.500000 0.577250
Si Si5 0.500000 0.658518 0.858966
Si Si6 0.884097 0.645205 0.426416
O O1 0.750000 0.750000 0.750000
O O2 0.710997 0.841506 0.633413
O O3 0.592018 0.828355 0.711231
O O4 0.705741 0.000000 0.733633
O O5 0.308592 0.792068 0.500000
O O6 0.363649 0.635068 0.592291
O O7 0.211725 0.661444 0.573135
O O8 0.000000 0.221701 0.289531
O O9 0.000000 0.500000 0.261246
O O10 0.500000 0.500000 0.605501
O O11 0.584659 0.500000 0.500000
O O12 0.500000 0.500000 0.862389
O O13 0.576514 0.728721 0.892658
O O14 0.910377 0.645656 0.500000
O O15 0.905717 0.500000 0.398051
#
# Coordination Sequence:
#
# PCOD9522507 Si02
#       6
#    16  16   8   8   8  16
#     4  11  26  45  67  96 130 172 217 265 323 384
#     4  10  21  39  66  98 130 165 212 263 316 377
#     4  10  24  47  66  84 121 172 217 254 309 390
#     4   9  18  34  60  97 133 165 206 259 316 373
#     4  12  25  39  58  90 123 157 210 269 323 368
#     4  10  20  37  61  89 123 166 211 250 302 379
#
# _framework density 20.896747000000001
#
# number of rings (size 3 to 8) (size 9 to 14) (size 15 to 20)
#    0.000    1.667    1.111    2.667    3.111    7.556 
#    0.000    2.222    0.000    2.000    0.000    0.000 
#    0.000    0.000    0.000    0.000    0.000    0.000 
#
# Total GULP energy -200521.292756 kJ/mol
# GULP energy per Si atom -5570.035910 kJ/mol
# Density = 2.084919 g / cm^3
# Si number density = 20.896747 Si / 1000 Ang^3
#
#
#
# Elastic Constant Matrix: (Units=GPa)
#
#
# Indices 1 2 3 4 5 6 
#
# 1 146.3806 49.3593 30.7000 0.0000 0.0000 0.0000
# 2 49.3593 153.1592 52.6715 0.0000 0.0000 0.0000
# 3 30.7000 52.6715 90.1700 0.0000 0.0000 0.0000
# 4 0.0000 0.0000 0.0000 26.1830 0.0000 0.0000
# 5 0.0000 0.0000 0.0000 0.0000 32.1634 0.0000
# 6 0.0000 0.0000 0.0000 0.0000 0.0000 31.3321
#
#
#
# Elastic Compliance Matrix: (Units=1/GPa)
#
#
# Indices 1 2 3 4 5 6 
#
# 1 0.007821 -0.002008 -0.001490 0.000000 0.000000 0.000000
# 2 -0.002008 0.008686 -0.004390 0.000000 0.000000 0.000000
# 3 -0.001490 -0.004390 0.014162 0.000000 0.000000 0.000000
# 4 0.000000 0.000000 0.000000 0.038193 0.000000 0.000000
# 5 0.000000 0.000000 0.000000 0.000000 0.031091 0.000000
# 6 0.000000 0.000000 0.000000 0.000000 0.000000 0.031916
#
#
# Mechanical properties :
#
#
# Convention : Reuss Voigt Hill
#
# Bulk Modulus (GPa) = 67.14647 72.79679 69.97163
# Shear Modulus (GPa) = 32.76333 35.06764 33.91548
#
# Velocity S-wave (km/s) = 3.96393 4.10095 4.03302
# Velocity P-wave (km/s) = 7.29058 7.57204 7.43264
#
# Compressibility (1/GPa) = 0.01489282
#
# Stress axis : x y z
#
# Youngs Moduli (GPa) = 127.85897 115.12627 70.61242
#
# Poissons Ratio (x) = 0.23120 0.10520
# Poissons Ratio (y) = 0.25677 0.31000
# Poissons Ratio (z) = 0.19048 0.50542
#
# Static dielectric constant tensor:
#      x y z
#    x 1.817560 0.000000 0.000000 
#    y 0.000000 1.748310 0.000000 
#    z 0.000000 0.000000 1.790470 
# 
# From -- ./inp_files/60393.got.cif
#   From: 2010.05.17/outbox.cif.g08.bks.cpg/sg71_31_cif.got.tgz:60393.got - 2010.06.03 16:22:01.
