data_PCOD9522059
_publ_section_title
;
Structure prediction by ZEFSAII (Michael W. Deem and Ramdas Pophale) SiO2 
 PCOD9522059
Probable space group: I M M M
;
_chemical_formula_sum "Si O2"
_cell_formula_units_Z 72
_cell_length_a 7.708706
_cell_length_b 16.280425
_cell_length_c 25.151740
_cell_angle_alpha 90.000000
_cell_angle_beta 90.000000
_cell_angle_gamma 90.000000
_cell_volume 3156.568770
_symmetry_space_group_name_H-M "I M M M"
_symmetry_group_IT_number 71
_symmetry_cell_setting 'orthorhombic'
loop_
_space_group_symop_operation_xyz
x,y,z
-x,-y,z
x,-y,-z
-x,y,-z
-x,-y,-z
x,y,-z
-x,y,z
x,-y,z
1/2+x,1/2+y,1/2+z
1/2-x,1/2-y,1/2+z
1/2+x,1/2-y,1/2-z
1/2-x,1/2+y,1/2-z
1/2-x,1/2-y,1/2-z
1/2+x,1/2+y,1/2-z
1/2-x,1/2+y,1/2+z
1/2+x,1/2-y,1/2+z
loop_
_atom_site_type_symbol
_atom_site_label
_atom_site_fract_x
_atom_site_fract_y
_atom_site_fract_z
Si Si1 0.204761 0.597697 0.000000
Si Si2 0.802907 0.000000 0.799077
Si Si3 0.289960 0.178250 0.059836
Si Si4 0.799545 0.337249 0.111216
Si Si5 0.196459 0.500000 0.415623
Si Si6 0.291905 0.158006 0.270520
O O1 0.280500 0.627566 0.056571
O O2 0.211355 0.500000 0.000000
O O3 0.000000 0.623296 0.000000
O O4 0.771423 0.917069 0.765708
O O5 0.690352 0.000000 0.852096
O O6 0.000000 0.000000 0.817942
O O7 0.500000 0.179171 0.066401
O O8 0.209759 0.239545 0.102240
O O9 0.225051 0.085717 0.066327
O O10 0.249768 0.206731 0.000000
O O11 0.724028 0.355046 0.169106
O O12 0.000000 0.365548 0.112285
O O13 0.000000 0.500000 0.437339
O O14 0.500000 0.152968 0.272095
O O15 0.250000 0.250000 0.250000
#
# Coordination Sequence:
#
# PCOD9522059 Si02
#       6
#     8   8  16  16   8  16
#     4   9  18  34  59  86 111 142 186 237 287 347
#     4  12  26  43  63  90 123 162 209 260 315 371
#     4  10  20  35  57  86 121 157 194 237 294 358
#     4  10  21  37  61  88 116 151 196 244 295 356
#     4  10  21  38  60  84 115 159 204 247 293 354
#     4  11  24  42  65  93 125 164 209 257 310 370
#
# _framework density 22.809578999999999
#
# number of rings (size 3 to 8) (size 9 to 14) (size 15 to 20)
#    0.000    1.667    1.111    3.333    1.556    7.556 
#    0.000    0.000    0.000    2.667    0.000    0.000 
#    0.000    0.000    0.000    0.000    0.000    0.000 
#
# Total GULP energy -201130.920345 kJ/mol
# GULP energy per Si atom -5586.970010 kJ/mol
# Density = 2.275766 g / cm^3
# Si number density = 22.809579 Si / 1000 Ang^3
#
#
#
# Elastic Constant Matrix: (Units=GPa)
#
#
# Indices 1 2 3 4 5 6 
#
# 1 61.8202 -0.5858 3.8830 0.0000 0.0000 0.0000
# 2 -0.5858 85.0626 24.7676 0.0000 0.0000 0.0000
# 3 3.8830 24.7676 143.2644 0.0000 0.0000 0.0000
# 4 0.0000 0.0000 0.0000 41.7148 0.0000 0.0000
# 5 0.0000 0.0000 0.0000 0.0000 11.7307 0.0000
# 6 0.0000 0.0000 0.0000 0.0000 0.0000 48.7049
#
#
#
# Elastic Compliance Matrix: (Units=1/GPa)
#
#
# Indices 1 2 3 4 5 6 
#
# 1 0.016209 0.000252 -0.000483 0.000000 0.000000 0.000000
# 2 0.000252 0.012383 -0.002148 0.000000 0.000000 0.000000
# 3 -0.000483 -0.002148 0.007364 0.000000 0.000000 0.000000
# 4 0.000000 0.000000 0.000000 0.023972 0.000000 0.000000
# 5 0.000000 0.000000 0.000000 0.000000 0.085246 0.000000
# 6 0.000000 0.000000 0.000000 0.000000 0.000000 0.020532
#
#
# Mechanical properties :
#
#
# Convention : Reuss Voigt Hill
#
# Bulk Modulus (GPa) = 32.05169 38.47521 35.26345
# Shear Modulus (GPa) = 27.64521 37.90223 32.77372
#
# Velocity S-wave (km/s) = 3.48516 4.08079 3.79468
# Velocity P-wave (km/s) = 5.50249 6.25368 5.89007
#
# Compressibility (1/GPa) = 0.03119961
#
# Stress axis : x y z
#
# Youngs Moduli (GPa) = 61.69540 80.75515 135.78698
#
# Poissons Ratio (x) = -0.02037 0.06558
# Poissons Ratio (y) = -0.01556 0.29162
# Poissons Ratio (z) = 0.02979 0.17343
#
# Static dielectric constant tensor:
#      x y z
#    x 1.874920 0.000000 0.000000 
#    y 0.000000 1.832180 0.000000 
#    z 0.000000 0.000000 1.868530 
# 
# From -- ./inp_files/62886.got.cif
#   From: 2010.05.17/outbox.cif.g08.bks.cpg/sg71_32_cif.got.tgz:62886.got - 2010.06.03 16:22:01.
