data_PCOD9522549
_publ_section_title
;
Structure prediction by ZEFSAII (Michael W. Deem and Ramdas Pophale) SiO2 
 PCOD9522549
Probable space group: I M M M
;
_chemical_formula_sum "Si O2"
_cell_formula_units_Z 64
_cell_length_a 15.751588
_cell_length_b 24.230420
_cell_length_c 8.738123
_cell_angle_alpha 90.000000
_cell_angle_beta 90.000000
_cell_angle_gamma 90.000000
_cell_volume 3335.058372
_symmetry_space_group_name_H-M "I M M M"
_symmetry_group_IT_number 71
_symmetry_cell_setting 'orthorhombic'
loop_
_space_group_symop_operation_xyz
x,y,z
-x,-y,z
x,-y,-z
-x,y,-z
-x,-y,-z
x,y,-z
-x,y,z
x,-y,z
1/2+x,1/2+y,1/2+z
1/2-x,1/2-y,1/2+z
1/2+x,1/2-y,1/2-z
1/2-x,1/2+y,1/2-z
1/2-x,1/2-y,1/2-z
1/2+x,1/2+y,1/2-z
1/2-x,1/2+y,1/2+z
1/2+x,1/2-y,1/2+z
loop_
_atom_site_type_symbol
_atom_site_label
_atom_site_fract_x
_atom_site_fract_y
_atom_site_fract_z
Si Si1 0.000000 0.192140 0.315998
Si Si2 0.000000 0.313820 0.182084
Si Si3 0.665022 0.381043 0.815454
Si Si4 0.155361 0.382907 0.317842
Si Si5 0.598046 0.500000 0.186216
Si Si6 0.897720 0.500000 0.819018
O O1 0.915893 0.156880 0.278737
O O2 0.000000 0.200856 0.500000
O O3 0.000000 0.250372 0.232493
O O4 0.082362 0.344333 0.249125
O O5 0.000000 0.319343 0.000000
O O6 0.752224 0.363587 0.737588
O O7 0.643429 0.443748 0.766622
O O8 0.675433 0.380646 0.000000
O O9 0.149905 0.382903 0.500000
O O10 0.139212 0.444689 0.255026
O O11 0.500000 0.500000 0.236290
O O12 0.596871 0.500000 0.000000
O O13 0.000000 0.500000 0.800351
O O14 0.878495 0.500000 0.000000
#
# Coordination Sequence:
#
# PCOD9522549 Si02
#       6
#     8   8  16  16   8   8
#     4  10  22  41  65  93 124 164 212 262 311 362
#     4  12  26  45  66  87 117 162 214 264 314 368
#     4  10  20  37  64  95 129 165 207 252 304 370
#     4  12  25  41  64  94 129 163 202 254 313 371
#     4   9  15  30  60  95 125 159 200 243 293 356
#     4  11  22  39  66  95 126 164 205 248 304 373
#
# _framework density 19.190068
#
# number of rings (size 3 to 8) (size 9 to 14) (size 15 to 20)
#    0.000    1.250    2.500    4.500    0.000    3.500 
#    0.000    0.000    0.000    0.750    0.000    0.000 
#    0.000    0.000    0.000    0.000    0.000    0.000 
#
# Total GULP energy -178989.956509 kJ/mol
# GULP energy per Si atom -5593.436141 kJ/mol
# Density = 1.914639 g / cm^3
# Si number density = 19.190068 Si / 1000 Ang^3
#
#
#
# Elastic Constant Matrix: (Units=GPa)
#
#
# Indices 1 2 3 4 5 6 
#
# 1 186.5733 78.5469 88.2872 0.0000 0.0000 0.0000
# 2 78.5469 128.0622 68.0873 0.0000 0.0000 0.0000
# 3 88.2872 68.0873 108.9452 0.0000 0.0000 0.0000
# 4 0.0000 0.0000 0.0000 -63.5640 0.0000 0.0000
# 5 0.0000 0.0000 0.0000 0.0000 11.5948 0.0000
# 6 0.0000 0.0000 0.0000 0.0000 0.0000 -11.9465
#
#
#
# Elastic Compliance Matrix: (Units=1/GPa)
#
#
# Indices 1 2 3 4 5 6 
#
# 1 0.009205 -0.002516 -0.005887 0.000000 0.000000 0.000000
# 2 -0.002516 0.012382 -0.005700 0.000000 0.000000 0.000000
# 3 -0.005887 -0.005700 0.017512 0.000000 0.000000 0.000000
# 4 0.000000 0.000000 0.000000 -0.015732 0.000000 0.000000
# 5 0.000000 0.000000 0.000000 0.000000 0.086246 0.000000
# 6 0.000000 0.000000 0.000000 0.000000 0.000000 -0.083707
#
#
# Mechanical properties :
#
#
# Convention : Reuss Voigt Hill
#
# Bulk Modulus (GPa) = 91.79688 99.26929 95.53308
# Shear Modulus (GPa) = 86.59184 -0.20585 43.19299
#
# Velocity S-wave (km/s) = 6.72467 -0.32788 4.74941
# Velocity P-wave (km/s) = 10.40358 7.19016 8.94240
#
# Compressibility (1/GPa) = 0.01089362
#
# Stress axis : x y z
#
# Youngs Moduli (GPa) = 108.63976 80.76163 57.10392
#
# Poissons Ratio (x) = 0.20317 0.33618
# Poissons Ratio (y) = 0.27330 0.32548
# Poissons Ratio (z) = 0.63958 0.46032
#
# Static dielectric constant tensor:
#      x y z
#    x 1.660260 0.000000 0.000000 
#    y 0.000000 1.641180 0.000000 
#    z 0.000000 0.000000 1.639630 
# 
# From -- ./inp_files/5602.got.cif
#   From: 2010.05.17/outbox.cif.g08.bks.cpg/sg71_3_cif.got.tgz:5602.got - 2010.06.03 16:22:01.
