data_PCOD9522183
_publ_section_title
;
Structure prediction by ZEFSAII (Michael W. Deem and Ramdas Pophale) SiO2 
 PCOD9522183
Probable space group: I M M M
;
_chemical_formula_sum "Si O2"
_cell_formula_units_Z 72
_cell_length_a 14.694636
_cell_length_b 16.526575
_cell_length_c 15.624152
_cell_angle_alpha 90.000000
_cell_angle_beta 90.000000
_cell_angle_gamma 90.000000
_cell_volume 3794.356623
_symmetry_space_group_name_H-M "I M M M"
_symmetry_group_IT_number 71
_symmetry_cell_setting 'orthorhombic'
loop_
_space_group_symop_operation_xyz
x,y,z
-x,-y,z
x,-y,-z
-x,y,-z
-x,-y,-z
x,y,-z
-x,y,z
x,-y,z
1/2+x,1/2+y,1/2+z
1/2-x,1/2-y,1/2+z
1/2+x,1/2-y,1/2-z
1/2-x,1/2+y,1/2-z
1/2-x,1/2-y,1/2-z
1/2+x,1/2+y,1/2-z
1/2-x,1/2+y,1/2+z
1/2+x,1/2-y,1/2+z
loop_
_atom_site_type_symbol
_atom_site_label
_atom_site_fract_x
_atom_site_fract_y
_atom_site_fract_z
Si Si1 0.225977 0.904265 0.261338
Si Si2 0.893236 0.829288 0.598838
Si Si3 0.394193 0.598247 0.596970
Si Si4 0.894507 0.661279 0.699295
Si Si5 0.891038 0.500000 0.592814
O O1 0.163314 0.889776 0.343097
O O2 0.170041 0.877390 0.175870
O O3 0.316678 0.849813 0.269660
O O4 0.246045 0.000000 0.254914
O O5 0.864864 0.826164 0.500000
O O6 0.884416 0.741523 0.643477
O O7 0.000000 0.850472 0.601499
O O8 0.368185 0.624182 0.500000
O O9 0.500000 0.622432 0.611890
O O10 0.392849 0.500000 0.596945
O O11 0.872379 0.583105 0.640709
O O12 0.000000 0.656010 0.727828
O O13 0.846109 0.500000 0.500000
O O14 0.000000 0.500000 0.584115
#
# Coordination Sequence:
#
# PCOD9522183 Si02
#       5
#    16  16  16  16   8
#     4  11  21  34  55  84 112 148 192 234 283 338
#     4  10  22  39  58  81 113 153 194 238 284 331
#     4   8  15  28  45  69 103 139 175 220 274 330
#     4  10  20  36  55  80 113 146 183 230 285 341
#     4   9  16  28  50  78 106 137 174 220 276 335
#
# _framework density 18.975548
#
# number of rings (size 3 to 8) (size 9 to 14) (size 15 to 20)
#    0.000    2.333    1.111    2.667    0.000    6.222 
#    0.000    1.111    0.000    0.667    0.000    1.556 
#    0.000    0.000    0.000    0.000    0.000    0.000 
#
# Total GULP energy -200746.982573 kJ/mol
# GULP energy per Si atom -5576.305071 kJ/mol
# Density = 1.893236 g / cm^3
# Si number density = 18.975548 Si / 1000 Ang^3
#
#
#
# Elastic Constant Matrix: (Units=GPa)
#
#
# Indices 1 2 3 4 5 6 
#
# 1 95.0383 31.1478 58.2548 0.0000 0.0000 0.0000
# 2 31.1478 29.2580 21.2467 0.0000 0.0000 0.0000
# 3 58.2548 21.2467 72.5009 0.0000 0.0000 0.0000
# 4 0.0000 0.0000 0.0000 -11.0676 0.0000 0.0000
# 5 0.0000 0.0000 0.0000 0.0000 16.1766 0.0000
# 6 0.0000 0.0000 0.0000 0.0000 0.0000 25.7348
#
#
#
# Elastic Compliance Matrix: (Units=1/GPa)
#
#
# Indices 1 2 3 4 5 6 
#
# 1 0.025235 -0.015423 -0.015757 0.000000 0.000000 0.000000
# 2 -0.015423 0.052844 -0.003094 0.000000 0.000000 0.000000
# 3 -0.015757 -0.003094 0.027360 0.000000 0.000000 0.000000
# 4 0.000000 0.000000 0.000000 -0.090354 0.000000 0.000000
# 5 0.000000 0.000000 0.000000 0.000000 0.061818 0.000000
# 6 0.000000 0.000000 0.000000 0.000000 0.000000 0.038858
#
#
# Mechanical properties :
#
#
# Convention : Reuss Voigt Hill
#
# Bulk Modulus (GPa) = 27.10567 46.45509 36.78038
# Shear Modulus (GPa) = 25.43164 11.91196 18.67180
#
# Velocity S-wave (km/s) = 3.66489 2.50822 3.14027
# Velocity P-wave (km/s) = 5.67663 5.73785 5.70732
#
# Compressibility (1/GPa) = 0.03689265
#
# Stress axis : x y z
#
# Youngs Moduli (GPa) = 39.62762 18.92352 36.54936
#
# Poissons Ratio (x) = 0.29185 0.57590
# Poissons Ratio (y) = 0.61116 0.11309
# Poissons Ratio (z) = 0.62440 0.05855
#
# Static dielectric constant tensor:
#      x y z
#    x 1.706830 0.000000 0.000000 
#    y 0.000000 1.636030 0.000000 
#    z 0.000000 0.000000 1.681520 
# 
# From -- ./inp_files/34054.got.cif
#   From: 2010.05.17/outbox.cif.g08.bks.cpg/sg71_18_cif.got.tgz:34054.got - 2010.06.03 16:22:01.
