data_PCOD9522129
_publ_section_title
;
Structure prediction by ZEFSAII (Michael W. Deem and Ramdas Pophale) SiO2 
 PCOD9522129
Probable space group: I M M M
;
_chemical_formula_sum "Si O2"
_cell_formula_units_Z 88
_cell_length_a 28.085488
_cell_length_b 7.995858
_cell_length_c 18.053471
_cell_angle_alpha 90.000000
_cell_angle_beta 90.000000
_cell_angle_gamma 90.000000
_cell_volume 4054.224183
_symmetry_space_group_name_H-M "I M M M"
_symmetry_group_IT_number 71
_symmetry_cell_setting 'orthorhombic'
loop_
_space_group_symop_operation_xyz
x,y,z
-x,-y,z
x,-y,-z
-x,y,-z
-x,-y,-z
x,y,-z
-x,y,z
x,-y,z
1/2+x,1/2+y,1/2+z
1/2-x,1/2-y,1/2+z
1/2+x,1/2-y,1/2-z
1/2-x,1/2+y,1/2-z
1/2-x,1/2-y,1/2-z
1/2+x,1/2+y,1/2-z
1/2-x,1/2+y,1/2+z
1/2+x,1/2-y,1/2+z
loop_
_atom_site_type_symbol
_atom_site_label
_atom_site_fract_x
_atom_site_fract_y
_atom_site_fract_z
Si Si1 0.682509 0.313061 0.780812
Si Si2 0.241233 0.306306 0.419856
Si Si3 0.947098 0.702033 0.858443
Si Si4 0.500000 0.795849 0.917620
Si Si5 0.158612 0.306170 0.120186
Si Si6 0.417488 0.201269 0.809922
O O1 0.692552 0.500000 0.753479
O O2 0.720542 0.268902 0.843778
O O3 0.672993 0.202765 0.707635
O O4 0.631430 0.297554 0.819234
O O5 0.224981 0.234870 0.500000
O O6 0.227504 0.500000 0.418333
O O7 0.298273 0.288753 0.417786
O O8 0.947418 0.500000 0.868363
O O9 0.895664 0.759047 0.890544
O O10 0.940651 0.733655 0.770632
O O11 0.000000 0.762563 0.882472
O O12 0.546075 0.746852 0.872272
O O13 0.500000 0.000000 0.918579
O O14 0.500000 0.732526 0.000000
O O15 0.159517 0.500000 0.097362
O O16 0.409059 0.000000 0.813547
#
# Coordination Sequence:
#
# PCOD9522129 Si02
#       6
#    16  16  16   8  16  16
#     4  11  22  36  56  81 111 144 182 228 275 327
#     4  11  24  41  59  78 106 144 185 229 278 334
#     4   8  13  25  49  78 105 135 171 215 261 305
#     4   9  16  26  45  71  99 137 182 225 266 315
#     4  10  20  35  59  87 114 143 180 227 273 323
#     4   9  16  29  49  73 103 138 180 226 266 311
#
# _framework density 21.705756999999998
#
# number of rings (size 3 to 8) (size 9 to 14) (size 15 to 20)
#    0.000    2.273    0.909    4.364    0.000    2.182 
#    0.000    2.273    0.000    2.727    0.000    3.818 
#    0.000    0.000    0.000    0.000    0.000    0.000 
#
# Total GULP energy -245347.550830 kJ/mol
# GULP energy per Si atom -5576.080701 kJ/mol
# Density = 2.165635 g / cm^3
# Si number density = 21.705757 Si / 1000 Ang^3
#
#
#
# Elastic Constant Matrix: (Units=GPa)
#
#
# Indices 1 2 3 4 5 6 
#
# 1 123.9017 -0.4925 11.3177 0.0000 0.0000 0.0000
# 2 -0.4925 32.5190 -5.4933 0.0000 0.0000 0.0000
# 3 11.3177 -5.4933 38.5659 0.0000 0.0000 0.0000
# 4 0.0000 0.0000 0.0000 1.6442 0.0000 0.0000
# 5 0.0000 0.0000 0.0000 0.0000 3.2072 0.0000
# 6 0.0000 0.0000 0.0000 0.0000 0.0000 25.2590
#
#
#
# Elastic Compliance Matrix: (Units=1/GPa)
#
#
# Indices 1 2 3 4 5 6 
#
# 1 0.008296 -0.000293 -0.002476 0.000000 0.000000 0.000000
# 2 -0.000293 0.031520 0.004576 0.000000 0.000000 0.000000
# 3 -0.002476 0.004576 0.027308 0.000000 0.000000 0.000000
# 4 0.000000 0.000000 0.000000 0.608203 0.000000 0.000000
# 5 0.000000 0.000000 0.000000 0.000000 0.311795 0.000000
# 6 0.000000 0.000000 0.000000 0.000000 0.000000 0.039590
#
#
# Mechanical properties :
#
#
# Convention : Reuss Voigt Hill
#
# Bulk Modulus (GPa) = 14.13686 22.85004 18.49345
# Shear Modulus (GPa) = 4.77702 18.66573 11.72137
#
# Velocity S-wave (km/s) = 1.48512 2.93566 2.32634
# Velocity P-wave (km/s) = 3.07699 4.69477 3.96918
#
# Compressibility (1/GPa) = 0.07073707
#
# Stress axis : x y z
#
# Youngs Moduli (GPa) = 120.54083 31.72614 36.61918
#
# Poissons Ratio (x) = 0.00929 0.09068
# Poissons Ratio (y) = 0.03528 -0.16755
# Poissons Ratio (z) = 0.29849 -0.14516
#
# Static dielectric constant tensor:
#      x y z
#    x 1.817490 0.000000 0.000000 
#    y 0.000000 1.799420 0.000000 
#    z 0.000000 0.000000 1.818600 
# 
# From -- ./inp_files/56145.got.cif
#   From: 2010.05.17/outbox.cif.g08.bks.cpg/sg71_29_cif.got.tgz:56145.got - 2010.06.03 16:22:01.
