data_PCOD9522003
_publ_section_title
;
Structure prediction by ZEFSAII (Michael W. Deem and Ramdas Pophale) SiO2 
 PCOD9522003
Probable space group: I M M M
;
_chemical_formula_sum "Si O2"
_cell_formula_units_Z 120
_cell_length_a 11.550875
_cell_length_b 26.463231
_cell_length_c 20.857001
_cell_angle_alpha 90.000000
_cell_angle_beta 90.000000
_cell_angle_gamma 90.000000
_cell_volume 6375.431940
_symmetry_space_group_name_H-M "I M M M"
_symmetry_group_IT_number 71
_symmetry_cell_setting 'orthorhombic'
loop_
_space_group_symop_operation_xyz
x,y,z
-x,-y,z
x,-y,-z
-x,y,-z
-x,-y,-z
x,y,-z
-x,y,z
x,-y,z
1/2+x,1/2+y,1/2+z
1/2-x,1/2-y,1/2+z
1/2+x,1/2-y,1/2-z
1/2-x,1/2+y,1/2-z
1/2-x,1/2-y,1/2-z
1/2+x,1/2+y,1/2-z
1/2-x,1/2+y,1/2+z
1/2+x,1/2-y,1/2+z
loop_
_atom_site_type_symbol
_atom_site_label
_atom_site_fract_x
_atom_site_fract_y
_atom_site_fract_z
Si Si1 0.360862 0.059372 0.000000
Si Si2 0.135864 0.224894 0.924378
Si Si3 0.265336 0.876008 0.118575
Si Si4 0.370634 0.940353 0.423033
Si Si5 0.623156 0.810543 0.222109
Si Si6 0.634930 0.442714 0.277212
Si Si7 0.294790 0.292239 0.833422
Si Si8 0.869714 0.898296 0.633885
O O1 0.314295 0.089427 0.938028
O O2 0.500000 0.060996 0.000000
O O3 0.325722 0.000000 0.000000
O O4 0.184652 0.169060 0.908537
O O5 0.206692 0.265112 0.882310
O O6 0.000000 0.227186 0.908763
O O7 0.150975 0.234596 0.000000
O O8 0.359882 0.846701 0.161413
O O9 0.198773 0.910319 0.169598
O O10 0.371522 0.935774 0.500000
O O11 0.500000 0.921636 0.400782
O O12 0.249978 0.916105 0.399409
O O13 0.365850 0.000000 0.406845
O O14 0.500000 0.819854 0.253418
O O15 0.631436 0.753290 0.196335
O O16 0.723553 0.815818 0.274049
O O17 0.500000 0.444134 0.294813
O O18 0.680247 0.500000 0.274937
O O19 0.640068 0.419065 0.206435
O O20 0.364272 0.337552 0.864952
O O21 0.000000 0.914014 0.610182
#
# Coordination Sequence:
#
# PCOD9522003 Si02
#       8
#     8  16  16  16  16  16  16  16
#     4  11  24  40  59  85 119 159 202 252 312 373
#     4  10  21  37  59  85 116 153 195 245 303 365
#     4  11  20  39  60  83 114 153 197 251 298 363
#     4   9  20  40  63  87 119 161 207 252 301 359
#     4  10  20  35  57  83 109 148 198 242 291 353
#     4  10  21  37  58  86 120 156 196 247 306 360
#     4  10  21  36  55  83 117 151 191 243 296 357
#     4  11  22  38  60  90 127 162 201 252 306 362
#
# _framework density 18.822254000000001
#
# number of rings (size 3 to 8) (size 9 to 14) (size 15 to 20)
#    0.000    1.800    2.000    2.800    0.000    2.667 
#    0.000    2.000    0.000    4.000    0.000    0.000 
#    0.000    0.000    0.000    0.000    0.000    0.000 
#
# Total GULP energy -334582.033703 kJ/mol
# GULP energy per Si atom -5576.367228 kJ/mol
# Density = 1.877941 g / cm^3
# Si number density = 18.822254 Si / 1000 Ang^3
#
#
#
# Elastic Constant Matrix: (Units=GPa)
#
#
# Indices 1 2 3 4 5 6 
#
# 1 126.5267 37.2807 39.1651 0.0000 0.0000 0.0000
# 2 37.2807 80.8653 29.5273 0.0000 0.0000 0.0000
# 3 39.1651 29.5273 55.4612 0.0000 0.0000 0.0000
# 4 0.0000 0.0000 0.0000 36.3799 0.0000 0.0000
# 5 0.0000 0.0000 0.0000 0.0000 -11.2037 0.0000
# 6 0.0000 0.0000 0.0000 0.0000 0.0000 -10.7070
#
#
#
# Elastic Compliance Matrix: (Units=1/GPa)
#
#
# Indices 1 2 3 4 5 6 
#
# 1 0.010557 -0.002662 -0.006037 0.000000 0.000000 0.000000
# 2 -0.002662 0.016022 -0.006650 0.000000 0.000000 0.000000
# 3 -0.006037 -0.006650 0.025834 0.000000 0.000000 0.000000
# 4 0.000000 0.000000 0.000000 0.027488 0.000000 0.000000
# 5 0.000000 0.000000 0.000000 0.000000 -0.089256 0.000000
# 6 0.000000 0.000000 0.000000 0.000000 0.000000 -0.093397
#
#
# Mechanical properties :
#
#
# Convention : Reuss Voigt Hill
#
# Bulk Modulus (GPa) = 46.05395 52.75551 49.40473
# Shear Modulus (GPa) = -77.14235 13.35252 -31.89492
#
# Velocity S-wave (km/s) = -6.40887 2.66635 -4.12094
# Velocity P-wave (km/s) = 5.49945 6.12930 1.91369
#
# Compressibility (1/GPa) = 0.02171367
#
# Stress axis : x y z
#
# Youngs Moduli (GPa) = 94.72601 62.41498 38.70797
#
# Poissons Ratio (x) = 0.16617 0.23370
# Poissons Ratio (y) = 0.25220 0.25740
# Poissons Ratio (z) = 0.57190 0.41505
#
# Static dielectric constant tensor:
#      x y z
#    x 1.631650 0.000000 0.000000 
#    y 0.000000 1.654790 0.000000 
#    z 0.000000 0.000000 1.622110 
# 
# From -- ./inp_files/52246.got.cif
#   From: 2010.05.17/outbox.cif.g08.bks.cpg/sg71_27_cif.got.tgz:52246.got - 2010.06.03 16:22:01.
