data_PCOD9522482
_publ_section_title
;
Structure prediction by ZEFSAII (Michael W. Deem and Ramdas Pophale) SiO2 
 PCOD9522482
Probable space group: I M M M
;
_chemical_formula_sum "Si O2"
_cell_formula_units_Z 82
_cell_length_a 23.714735
_cell_length_b 7.796444
_cell_length_c 21.482598
_cell_angle_alpha 90.000000
_cell_angle_beta 90.000000
_cell_angle_gamma 90.000000
_cell_volume 3971.930507
_symmetry_space_group_name_H-M "I M M M"
_symmetry_group_IT_number 71
_symmetry_cell_setting 'orthorhombic'
loop_
_space_group_symop_operation_xyz
x,y,z
-x,-y,z
x,-y,-z
-x,y,-z
-x,-y,-z
x,y,-z
-x,y,z
x,-y,z
1/2+x,1/2+y,1/2+z
1/2-x,1/2-y,1/2+z
1/2+x,1/2-y,1/2-z
1/2-x,1/2+y,1/2-z
1/2-x,1/2-y,1/2-z
1/2+x,1/2+y,1/2-z
1/2-x,1/2+y,1/2+z
1/2+x,1/2-y,1/2+z
loop_
_atom_site_type_symbol
_atom_site_label
_atom_site_fract_x
_atom_site_fract_y
_atom_site_fract_z
Si Si1 0.500000 0.792446 0.303170
Si Si2 0.566820 0.289030 0.500000
Si Si3 0.000000 0.500000 0.500000
Si Si4 0.500000 0.701286 0.840173
Si Si5 0.876099 0.305851 0.373519
Si Si6 0.114484 0.200567 0.870238
Si Si7 0.904742 0.189702 0.500000
Si Si8 0.184767 0.796252 0.755063
O O1 0.500000 0.726261 0.233304
O O2 0.554720 0.719230 0.336250
O O3 0.500000 0.000000 0.304402
O O4 0.565591 0.500000 0.500000
O O5 0.500000 0.237400 0.500000
O O6 0.600731 0.229305 0.561176
O O7 0.049993 0.653724 0.500000
O O8 0.500000 0.500000 0.855878
O O9 0.443427 0.788491 0.864041
O O10 0.859545 0.500000 0.385342
O O11 0.867274 0.204254 0.437365
O O12 0.847647 0.254547 0.308281
O O13 0.157923 0.276071 0.819321
O O14 0.129078 0.000000 0.879041
O O15 0.931542 0.000000 0.500000
O O16 0.250000 0.750000 0.750000
O O17 0.178725 0.000000 0.758991
#
# Coordination Sequence:
#
# PCOD9522482 Si02
#       8
#     8   8   2   8  16  16   8  16
#     4  12  22  32  53  88 125 161 197 247 307 376
#     4   9  16  30  59  92 122 157 194 241 300 374
#     4  12  22  44  60 102 140 180 222 258 324 396
#     4  12  23  36  57  90 126 167 208 254 317 388
#     4  12  24  42  64  95 131 168 215 268 327 395
#     4  10  20  37  60  87 121 160 204 248 308 382
#     4  12  25  43  64  93 135 182 222 264 323 395
#     4  11  24  42  65  90 120 167 221 278 328 380
#
# _framework density 20.644873
#
# number of rings (size 3 to 8) (size 9 to 14) (size 15 to 20)
#    0.000    0.878    3.902    4.829    0.000    0.780 
#    0.000    1.951    0.000    2.341    0.000    0.000 
#    0.000    0.000    0.000    0.000    0.000    0.000 
#
# Total GULP energy -228634.962960 kJ/mol
# GULP energy per Si atom -5576.462511 kJ/mol
# Density = 2.059788 g / cm^3
# Si number density = 20.644873 Si / 1000 Ang^3
#
#
#
# Elastic Constant Matrix: (Units=GPa)
#
#
# Indices 1 2 3 4 5 6 
#
# 1 95.2739 -12.4741 72.2115 0.0000 0.0000 0.0000
# 2 -12.4741 90.8698 13.5324 0.0000 0.0000 0.0000
# 3 72.2115 13.5324 219.3641 0.0000 0.0000 0.0000
# 4 0.0000 0.0000 0.0000 28.3598 0.0000 0.0000
# 5 0.0000 0.0000 0.0000 0.0000 24.0737 0.0000
# 6 0.0000 0.0000 0.0000 0.0000 0.0000 21.7183
#
#
#
# Elastic Compliance Matrix: (Units=1/GPa)
#
#
# Indices 1 2 3 4 5 6 
#
# 1 0.014637 0.002752 -0.004988 0.000000 0.000000 0.000000
# 2 0.002752 0.011624 -0.001623 0.000000 0.000000 0.000000
# 3 -0.004988 -0.001623 0.006301 0.000000 0.000000 0.000000
# 4 0.000000 0.000000 0.000000 0.035261 0.000000 0.000000
# 5 0.000000 0.000000 0.000000 0.000000 0.041539 0.000000
# 6 0.000000 0.000000 0.000000 0.000000 0.000000 0.046044
#
#
# Mechanical properties :
#
#
# Convention : Reuss Voigt Hill
#
# Bulk Modulus (GPa) = 40.25113 61.33859 50.79486
# Shear Modulus (GPa) = 29.17054 36.97956 33.07505
#
# Velocity S-wave (km/s) = 3.76302 4.23687 4.00696
# Velocity P-wave (km/s) = 6.19836 7.32875 6.78713
#
# Compressibility (1/GPa) = 0.02484402
#
# Stress axis : x y z
#
# Youngs Moduli (GPa) = 68.31996 86.02703 158.71114
#
# Poissons Ratio (x) = -0.23676 0.79166
# Poissons Ratio (y) = -0.18802 0.25760
# Poissons Ratio (z) = 0.34078 0.13963
#
# Static dielectric constant tensor:
#      x y z
#    x 1.690620 0.000000 0.000000 
#    y 0.000000 1.771640 0.000000 
#    z 0.000000 0.000000 1.837920 
# 
# From -- ./inp_files/55522.got.cif
#   From: 2010.05.17/outbox.cif.g08.bks.cpg/sg71_28_cif.got.tgz:55522.got - 2010.06.03 16:22:01.
