data_PCOD9522408
_publ_section_title
;
Structure prediction by ZEFSAII (Michael W. Deem and Ramdas Pophale) SiO2 
 PCOD9522408
Probable space group: I M M M
;
_chemical_formula_sum "Si O2"
_cell_formula_units_Z 88
_cell_length_a 14.390681
_cell_length_b 14.159573
_cell_length_c 22.168407
_cell_angle_alpha 90.000000
_cell_angle_beta 90.000000
_cell_angle_gamma 90.000000
_cell_volume 4517.165363
_symmetry_space_group_name_H-M "I M M M"
_symmetry_group_IT_number 71
_symmetry_cell_setting 'orthorhombic'
loop_
_space_group_symop_operation_xyz
x,y,z
-x,-y,z
x,-y,-z
-x,y,-z
-x,-y,-z
x,y,-z
-x,y,z
x,-y,z
1/2+x,1/2+y,1/2+z
1/2-x,1/2-y,1/2+z
1/2+x,1/2-y,1/2-z
1/2-x,1/2+y,1/2-z
1/2-x,1/2-y,1/2-z
1/2+x,1/2+y,1/2-z
1/2-x,1/2+y,1/2+z
1/2+x,1/2-y,1/2+z
loop_
_atom_site_type_symbol
_atom_site_label
_atom_site_fract_x
_atom_site_fract_y
_atom_site_fract_z
Si Si1 0.899420 0.389159 0.357324
Si Si2 0.710440 0.613173 0.875037
Si Si3 0.144024 0.230719 0.732855
Si Si4 0.892309 0.114824 0.500000
Si Si5 0.397264 0.764271 0.634865
Si Si6 0.712310 0.391614 0.429028
O O1 0.893415 0.500000 0.342071
O O2 0.895305 0.323967 0.298863
O O3 0.809033 0.365520 0.396337
O O4 0.000000 0.373995 0.387798
O O5 0.716990 0.500000 0.872931
O O6 0.648054 0.651083 0.818949
O O7 0.662313 0.641691 0.938685
O O8 0.812940 0.659997 0.868995
O O9 0.250000 0.250000 0.750000
O O10 0.100095 0.218455 0.798153
O O11 0.000000 0.147436 0.500000
O O12 0.894783 0.000000 0.500000
O O13 0.500000 0.802290 0.621135
O O14 0.366505 0.680427 0.590799
O O15 0.727080 0.387798 0.500000
O O16 0.690084 0.500000 0.412195
#
# Coordination Sequence:
#
# PCOD9522408 Si02
#       6
#    16  16  16   8  16  16
#     4  10  20  36  62  92 121 152 188 240 307 370
#     4  10  22  40  62  91 124 158 199 250 305 358
#     4  10  20  38  57  86 120 156 196 243 296 356
#     4   9  20  40  63  87 118 155 197 243 297 363
#     4  11  24  41  61  87 120 160 207 254 299 353
#     4  10  22  41  62  87 121 157 198 247 299 359
#
# _framework density 19.481245000000001
#
# number of rings (size 3 to 8) (size 9 to 14) (size 15 to 20)
#    0.000    1.909    3.636    0.545    1.273    6.545 
#    0.000    2.727    0.000    1.636    0.000    0.000 
#    0.000    0.000    0.000    0.000    0.000    0.000 
#
# Total GULP energy -245337.380910 kJ/mol
# GULP energy per Si atom -5575.849566 kJ/mol
# Density = 1.943690 g / cm^3
# Si number density = 19.481245 Si / 1000 Ang^3
#
#
#
# Elastic Constant Matrix: (Units=GPa)
#
#
# Indices 1 2 3 4 5 6 
#
# 1 118.0065 19.6893 23.5747 0.0000 0.0000 0.0000
# 2 19.6893 57.9288 15.8811 0.0000 0.0000 0.0000
# 3 23.5747 15.8811 76.7111 0.0000 0.0000 0.0000
# 4 0.0000 0.0000 0.0000 18.0533 0.0000 0.0000
# 5 0.0000 0.0000 0.0000 0.0000 -3.7851 0.0000
# 6 0.0000 0.0000 0.0000 0.0000 0.0000 11.1592
#
#
#
# Elastic Compliance Matrix: (Units=1/GPa)
#
#
# Indices 1 2 3 4 5 6 
#
# 1 0.009368 -0.002539 -0.002353 0.000000 0.000000 0.000000
# 2 -0.002539 0.018989 -0.003151 0.000000 0.000000 0.000000
# 3 -0.002353 -0.003151 0.014411 0.000000 0.000000 0.000000
# 4 0.000000 0.000000 0.000000 0.055392 0.000000 0.000000
# 5 0.000000 0.000000 0.000000 0.000000 -0.264197 0.000000
# 6 0.000000 0.000000 0.000000 0.000000 0.000000 0.089612
#
#
# Mechanical properties :
#
#
# Convention : Reuss Voigt Hill
#
# Bulk Modulus (GPa) = 37.47806 41.21519 39.34662
# Shear Modulus (GPa) = -97.19360 17.98557 -39.60402
#
# Velocity S-wave (km/s) = -7.07101 3.04176 -4.51369
# Velocity P-wave (km/s) = 6.88373 5.79126 2.63127
#
# Compressibility (1/GPa) = 0.02668228
#
# Stress axis : x y z
#
# Youngs Moduli (GPa) = 106.74816 52.66114 69.38920
#
# Poissons Ratio (x) = 0.13370 0.16329
# Poissons Ratio (y) = 0.27102 0.21865
# Poissons Ratio (z) = 0.25121 0.16594
#
# Static dielectric constant tensor:
#      x y z
#    x 1.700290 0.000000 0.000000 
#    y 0.000000 1.681460 0.000000 
#    z 0.000000 0.000000 1.679150 
# 
# From -- ./inp_files/52888.got.cif
#   From: 2010.05.17/outbox.cif.g08.bks.cpg/sg71_27_cif.got.tgz:52888.got - 2010.06.03 16:22:01.
