data_PCOD9522503
_publ_section_title
;
Structure prediction by ZEFSAII (Michael W. Deem and Ramdas Pophale) SiO2 
 PCOD9522503
Probable space group: I M M M
;
_chemical_formula_sum "Si O2"
_cell_formula_units_Z 64
_cell_length_a 8.702456
_cell_length_b 23.200374
_cell_length_c 16.735637
_cell_angle_alpha 90.000000
_cell_angle_beta 90.000000
_cell_angle_gamma 90.000000
_cell_volume 3378.929025
_symmetry_space_group_name_H-M "I M M M"
_symmetry_group_IT_number 71
_symmetry_cell_setting 'orthorhombic'
loop_
_space_group_symop_operation_xyz
x,y,z
-x,-y,z
x,-y,-z
-x,y,-z
-x,-y,-z
x,y,-z
-x,y,z
x,-y,z
1/2+x,1/2+y,1/2+z
1/2-x,1/2-y,1/2+z
1/2+x,1/2-y,1/2-z
1/2-x,1/2+y,1/2-z
1/2-x,1/2-y,1/2-z
1/2+x,1/2+y,1/2-z
1/2-x,1/2+y,1/2+z
1/2+x,1/2-y,1/2+z
loop_
_atom_site_type_symbol
_atom_site_label
_atom_site_fract_x
_atom_site_fract_y
_atom_site_fract_z
Si Si1 0.184710 0.739253 0.661495
Si Si2 0.815802 0.000000 0.093147
Si Si3 0.315347 0.113650 0.177379
Si Si4 0.822384 0.568545 0.000000
Si Si5 0.184005 0.135274 0.645756
O O1 0.250000 0.750000 0.750000
O O2 0.232927 0.674884 0.636344
O O3 0.226274 0.799083 0.618750
O O4 0.000000 0.737443 0.665174
O O5 0.754273 0.057517 0.136144
O O6 0.000000 0.000000 0.097253
O O7 0.768768 0.000000 0.000000
O O8 0.500000 0.109296 0.175412
O O9 0.260466 0.119856 0.269274
O O10 0.739777 0.592491 0.921821
O O11 0.817863 0.500000 0.000000
O O12 0.000000 0.587324 0.000000
O O13 0.000000 0.132884 0.655498
#
# Coordination Sequence:
#
# PCOD9522503 Si02
#       5
#    16   8  16   8  16
#     4   8  16  32  56  86 114 144 183 232 281 339
#     4  11  25  43  59  82 117 152 195 243 289 341
#     4  10  20  37  63  89 116 151 192 235 290 350
#     4  11  25  41  55  79 119 160 203 246 284 332
#     4  10  20  37  61  88 119 153 193 237 289 344
#
# _framework density 18.940912999999998
#
# number of rings (size 3 to 8) (size 9 to 14) (size 15 to 20)
#    0.000    2.250    0.000    2.250    1.750    4.000 
#    2.250    0.000    0.000    0.000    0.000    0.000 
#    0.000    0.000    0.000    0.000    0.000    0.000 
#
# Total GULP energy -178394.061921 kJ/mol
# GULP energy per Si atom -5574.814435 kJ/mol
# Density = 1.889780 g / cm^3
# Si number density = 18.940913 Si / 1000 Ang^3
#
#
#
# Elastic Constant Matrix: (Units=GPa)
#
#
# Indices 1 2 3 4 5 6 
#
# 1 47.0751 49.3945 25.0900 0.0000 0.0000 0.0000
# 2 49.3945 173.2227 61.2490 0.0000 0.0000 0.0000
# 3 25.0900 61.2490 70.8739 0.0000 0.0000 0.0000
# 4 0.0000 0.0000 0.0000 -23.1666 0.0000 0.0000
# 5 0.0000 0.0000 0.0000 0.0000 21.9746 0.0000
# 6 0.0000 0.0000 0.0000 0.0000 0.0000 22.5859
#
#
#
# Elastic Compliance Matrix: (Units=1/GPa)
#
#
# Indices 1 2 3 4 5 6 
#
# 1 0.031438 -0.007242 -0.004870 0.000000 0.000000 0.000000
# 2 -0.007242 0.009982 -0.006062 0.000000 0.000000 0.000000
# 3 -0.004870 -0.006062 0.021073 0.000000 0.000000 0.000000
# 4 0.000000 0.000000 0.000000 -0.043166 0.000000 0.000000
# 5 0.000000 0.000000 0.000000 0.000000 0.045507 0.000000
# 6 0.000000 0.000000 0.000000 0.000000 0.000000 0.044275
#
#
# Mechanical properties :
#
#
# Convention : Reuss Voigt Hill
#
# Bulk Modulus (GPa) = 38.25261 62.51539 50.38400
# Shear Modulus (GPa) = 32.43116 14.64132 23.53624
#
# Velocity S-wave (km/s) = 4.14240 2.78330 3.52890
# Velocity P-wave (km/s) = 6.56650 6.58834 6.57743
#
# Compressibility (1/GPa) = 0.02614201
#
# Stress axis : x y z
#
# Youngs Moduli (GPa) = 31.80899 100.18464 47.45486
#
# Poissons Ratio (x) = 0.72557 0.23112
# Poissons Ratio (y) = 0.23037 0.28768
# Poissons Ratio (z) = 0.15492 0.60734
#
# Static dielectric constant tensor:
#      x y z
#    x 1.636060 0.000000 0.000000 
#    y 0.000000 1.702030 0.000000 
#    z 0.000000 0.000000 1.623220 
# 
# From -- ./inp_files/9514.got.cif
#   From: 2010.05.17/outbox.cif.g08.bks.cpg/sg71_5_cif.got.tgz:9514.got - 2010.06.03 16:22:01.
