data_PCOD9522601
_publ_section_title
;
Structure prediction by ZEFSAII (Michael W. Deem and Ramdas Pophale) SiO2 
 PCOD9522601
Probable space group: I M M M
;
_chemical_formula_sum "Si O2"
_cell_formula_units_Z 88
_cell_length_a 9.184887
_cell_length_b 20.064171
_cell_length_c 25.337603
_cell_angle_alpha 90.000000
_cell_angle_beta 90.000000
_cell_angle_gamma 90.000000
_cell_volume 4669.394477
_symmetry_space_group_name_H-M "I M M M"
_symmetry_group_IT_number 71
_symmetry_cell_setting 'orthorhombic'
loop_
_space_group_symop_operation_xyz
x,y,z
-x,-y,z
x,-y,-z
-x,y,-z
-x,-y,-z
x,y,-z
-x,y,z
x,-y,z
1/2+x,1/2+y,1/2+z
1/2-x,1/2-y,1/2+z
1/2+x,1/2-y,1/2-z
1/2-x,1/2+y,1/2-z
1/2-x,1/2-y,1/2-z
1/2+x,1/2+y,1/2-z
1/2-x,1/2+y,1/2+z
1/2+x,1/2-y,1/2+z
loop_
_atom_site_type_symbol
_atom_site_label
_atom_site_fract_x
_atom_site_fract_y
_atom_site_fract_z
Si Si1 0.822779 0.855836 0.392879
Si Si2 0.330712 0.923088 0.205677
Si Si3 0.327613 0.805572 0.713144
Si Si4 0.170611 0.371366 0.500000
Si Si5 0.673178 0.713970 0.000000
Si Si6 0.664076 0.580218 0.397543
Si Si7 0.676345 0.500000 0.062364
O O1 0.749930 0.820476 0.342586
O O2 0.773270 0.817835 0.445900
O O3 0.783321 0.933118 0.405399
O O4 0.000000 0.852031 0.387416
O O5 0.500000 0.922298 0.189037
O O6 0.315257 0.874984 0.254930
O O7 0.235761 0.897188 0.156983
O O8 0.291801 0.000000 0.217610
O O9 0.500000 0.789949 0.706924
O O10 0.250000 0.750000 0.750000
O O11 0.193229 0.292401 0.500000
O O12 0.243105 0.400048 0.447795
O O13 0.000000 0.386123 0.500000
O O14 0.500000 0.699750 0.000000
O O15 0.500000 0.605245 0.402874
O O16 0.661009 0.500000 0.395179
O O17 0.500000 0.500000 0.059351
O O18 0.725094 0.500000 0.000000
#
# Coordination Sequence:
#
# PCOD9522601 Si02
#       7
#    16  16  16   8   8  16   8
#     4  10  20  38  63  91 122 157 201 249 298 355
#     4   9  20  40  62  82 110 152 196 236 286 351
#     4  11  25  42  62  88 121 160 202 250 302 361
#     4  11  22  34  54  82 113 154 197 234 281 347
#     4   9  20  37  58  84 117 156 195 236 285 347
#     4  10  21  37  57  83 113 143 184 243 298 339
#     4   9  16  32  63  97 125 159 203 250 301 362
#
# _framework density 18.846128
#
# number of rings (size 3 to 8) (size 9 to 14) (size 15 to 20)
#    0.000    2.091    0.909    1.636    3.818    3.636 
#    0.000    1.364    0.000    0.545    0.000    0.000 
#    0.000    0.000    0.000    0.000    0.000    0.000 
#
# Total GULP energy -245482.713861 kJ/mol
# GULP energy per Si atom -5579.152588 kJ/mol
# Density = 1.880323 g / cm^3
# Si number density = 18.846128 Si / 1000 Ang^3
#
#
#
# Elastic Constant Matrix: (Units=GPa)
#
#
# Indices 1 2 3 4 5 6 
#
# 1 112.9658 12.0045 96.5831 0.0000 0.0000 0.0000
# 2 12.0045 65.9489 27.3737 0.0000 0.0000 0.0000
# 3 96.5831 27.3737 175.6660 0.0000 0.0000 0.0000
# 4 0.0000 0.0000 0.0000 31.7689 0.0000 0.0000
# 5 0.0000 0.0000 0.0000 0.0000 52.7885 0.0000
# 6 0.0000 0.0000 0.0000 0.0000 0.0000 18.0719
#
#
#
# Elastic Compliance Matrix: (Units=1/GPa)
#
#
# Indices 1 2 3 4 5 6 
#
# 1 0.016747 0.000827 -0.009336 0.000000 0.000000 0.000000
# 2 0.000827 0.016253 -0.002987 0.000000 0.000000 0.000000
# 3 -0.009336 -0.002987 0.011291 0.000000 0.000000 0.000000
# 4 0.000000 0.000000 0.000000 0.031477 0.000000 0.000000
# 5 0.000000 0.000000 0.000000 0.000000 0.018944 0.000000
# 6 0.000000 0.000000 0.000000 0.000000 0.000000 0.055335
#
#
# Mechanical properties :
#
#
# Convention : Reuss Voigt Hill
#
# Bulk Modulus (GPa) = 46.95425 69.61149 58.28287
# Shear Modulus (GPa) = 27.75633 35.10047 31.42840
#
# Velocity S-wave (km/s) = 3.84185 4.32032 4.08810
# Velocity P-wave (km/s) = 6.68195 7.86790 7.29905
#
# Compressibility (1/GPa) = 0.02129733
#
# Stress axis : x y z
#
# Youngs Moduli (GPa) = 59.71292 61.52828 88.56296
#
# Poissons Ratio (x) = -0.05088 0.82686
# Poissons Ratio (y) = -0.04938 0.26456
# Poissons Ratio (z) = 0.55751 0.18380
#
# Static dielectric constant tensor:
#      x y z
#    x 1.652410 0.000000 0.000000 
#    y 0.000000 1.655870 0.000000 
#    z 0.000000 0.000000 1.624300 
# 
# From -- ./inp_files/12614.got.cif
#   From: 2010.05.17/outbox.cif.g08.bks.cpg/sg71_7_cif.got.tgz:12614.got - 2010.06.03 16:22:01.
