data_PCOD9522784
_publ_section_title
;
Structure prediction by ZEFSAII (Michael W. Deem and Ramdas Pophale) SiO2 
 PCOD9522784
Probable space group: I M M M
;
_chemical_formula_sum "Si O2"
_cell_formula_units_Z 120
_cell_length_a 18.429845
_cell_length_b 25.804717
_cell_length_c 14.040869
_cell_angle_alpha 90.000000
_cell_angle_beta 90.000000
_cell_angle_gamma 90.000000
_cell_volume 6677.513438
_symmetry_space_group_name_H-M "I M M M"
_symmetry_group_IT_number 71
_symmetry_cell_setting 'orthorhombic'
loop_
_space_group_symop_operation_xyz
x,y,z
-x,-y,z
x,-y,-z
-x,y,-z
-x,-y,-z
x,y,-z
-x,y,z
x,-y,z
1/2+x,1/2+y,1/2+z
1/2-x,1/2-y,1/2+z
1/2+x,1/2-y,1/2-z
1/2-x,1/2+y,1/2-z
1/2-x,1/2-y,1/2-z
1/2+x,1/2+y,1/2-z
1/2-x,1/2+y,1/2+z
1/2+x,1/2-y,1/2+z
loop_
_atom_site_type_symbol
_atom_site_label
_atom_site_fract_x
_atom_site_fract_y
_atom_site_fract_z
Si Si1 0.413963 0.604903 0.298413
Si Si2 0.915959 0.340136 0.386889
Si Si3 0.088857 0.000000 0.889421
Si Si4 0.912375 0.788780 0.892243
Si Si5 0.416358 0.940947 0.237228
Si Si6 0.331621 0.749239 0.212306
Si Si7 0.842595 0.138459 0.388243
Si Si8 0.710125 0.059342 0.389171
O O1 0.500000 0.603723 0.311713
O O2 0.383853 0.551203 0.337172
O O3 0.387806 0.653289 0.361787
O O4 0.397712 0.613977 0.187893
O O5 0.908583 0.342664 0.500000
O O6 0.904997 0.396473 0.340524
O O7 0.859662 0.299008 0.344358
O O8 0.000000 0.324070 0.365583
O O9 0.000000 0.000000 0.885530
O O10 0.108450 0.000000 0.000000
O O11 0.881188 0.754699 0.807033
O O12 0.000000 0.787096 0.890546
O O13 0.888803 0.776209 0.000000
O O14 0.500000 0.936380 0.271025
O O15 0.358570 0.933424 0.321178
O O16 0.407516 0.000000 0.200694
O O17 0.250000 0.750000 0.250000
O O18 0.337397 0.698026 0.146055
O O19 0.861939 0.135552 0.500000
O O20 0.769653 0.104237 0.374117
O O21 0.688514 0.062024 0.500000
O O22 0.738582 0.000000 0.373250
#
# Coordination Sequence:
#
# PCOD9522784 Si02
#       8
#    16  16   8  16  16  16  16  16
#     4   9  18  31  49  75 102 134 177 222 265 308
#     4  10  21  37  57  81 110 143 178 218 267 324
#     4   9  16  28  49  75 101 129 165 214 268 314
#     4   9  18  34  54  75 102 135 172 216 267 319
#     4   9  18  34  57  84 109 134 169 215 266 322
#     4  11  22  36  55  79 107 140 179 224 268 317
#     4  10  21  35  51  73 103 144 186 219 262 316
#     4   9  18  33  53  76 104 142 180 216 264 318
#
# _framework density 17.970761
#
# number of rings (size 3 to 8) (size 9 to 14) (size 15 to 20)
#    0.000    2.467    0.000    2.000    0.933    4.000 
#    0.000    3.333    0.000    2.800    0.000    0.000 
#    0.000    0.000    0.000    0.000    0.000    0.000 
#
# Total GULP energy -334357.195071 kJ/mol
# GULP energy per Si atom -5572.619918 kJ/mol
# Density = 1.792986 g / cm^3
# Si number density = 17.970761 Si / 1000 Ang^3
#
#
#
# Elastic Constant Matrix: (Units=GPa)
#
#
# Indices 1 2 3 4 5 6 
#
# 1 23.3673 20.1033 11.7260 0.0000 0.0000 0.0000
# 2 20.1033 75.7301 29.1778 0.0000 0.0000 0.0000
# 3 11.7260 29.1778 82.3297 0.0000 0.0000 0.0000
# 4 0.0000 0.0000 0.0000 21.1798 0.0000 0.0000
# 5 0.0000 0.0000 0.0000 0.0000 18.2092 0.0000
# 6 0.0000 0.0000 0.0000 0.0000 0.0000 21.1061
#
#
#
# Elastic Compliance Matrix: (Units=1/GPa)
#
#
# Indices 1 2 3 4 5 6 
#
# 1 0.056155 -0.013695 -0.003144 0.000000 0.000000 0.000000
# 2 -0.013695 0.018633 -0.004653 0.000000 0.000000 0.000000
# 3 -0.003144 -0.004653 0.014243 0.000000 0.000000 0.000000
# 4 0.000000 0.000000 0.000000 0.047215 0.000000 0.000000
# 5 0.000000 0.000000 0.000000 0.000000 0.054917 0.000000
# 6 0.000000 0.000000 0.000000 0.000000 0.000000 0.047380
#
#
# Mechanical properties :
#
#
# Convention : Reuss Voigt Hill
#
# Bulk Modulus (GPa) = 21.71752 33.71570 27.71661
# Shear Modulus (GPa) = 16.84200 20.12704 18.48452
#
# Velocity S-wave (km/s) = 3.06468 3.35025 3.21064
# Velocity P-wave (km/s) = 4.96328 5.81100 5.40379
#
# Compressibility (1/GPa) = 0.04604576
#
# Stress axis : x y z
#
# Youngs Moduli (GPa) = 17.80787 53.66793 70.20914
#
# Poissons Ratio (x) = 0.73500 0.22076
# Poissons Ratio (y) = 0.24389 0.32668
# Poissons Ratio (z) = 0.05599 0.24972
#
# Static dielectric constant tensor:
#      x y z
#    x 1.614080 0.000000 0.000000 
#    y 0.000000 1.635670 0.000000 
#    z 0.000000 0.000000 1.585920 
# 
# From -- ./inp_files/26293.got.cif
#   From: 2010.05.17/outbox.cif.g08.bks.cpg/sg71_14_cif.got.tgz:26293.got - 2010.06.03 16:22:01.
