data_PCOD9523647
_publ_section_title
;
Structure prediction by ZEFSAII (Michael W. Deem and Ramdas Pophale) SiO2 
 PCOD9523647
Probable space group: I M M M
;
_chemical_formula_sum "Si O2"
_cell_formula_units_Z 112
_cell_length_a 24.326700
_cell_length_b 13.160124
_cell_length_c 18.858462
_cell_angle_alpha 90.000000
_cell_angle_beta 90.000000
_cell_angle_gamma 90.000000
_cell_volume 6037.393068
_symmetry_space_group_name_H-M "I M M M"
_symmetry_group_IT_number 71
_symmetry_cell_setting 'orthorhombic'
loop_
_space_group_symop_operation_xyz
x,y,z
-x,-y,z
x,-y,-z
-x,y,-z
-x,-y,-z
x,y,-z
-x,y,z
x,-y,z
1/2+x,1/2+y,1/2+z
1/2-x,1/2-y,1/2+z
1/2+x,1/2-y,1/2-z
1/2-x,1/2+y,1/2-z
1/2-x,1/2-y,1/2-z
1/2+x,1/2+y,1/2-z
1/2-x,1/2+y,1/2+z
1/2+x,1/2-y,1/2+z
loop_
_atom_site_type_symbol
_atom_site_label
_atom_site_fract_x
_atom_site_fract_y
_atom_site_fract_z
Si Si1 0.439162 0.621544 0.082137
Si Si2 0.346057 0.745561 0.842879
Si Si3 0.268400 0.723405 0.584276
Si Si4 0.141013 0.613971 0.915763
Si Si5 0.938372 0.237370 0.836585
Si Si6 0.664018 0.382688 0.296325
Si Si7 0.060561 0.617271 0.300031
O O1 0.500000 0.651310 0.109023
O O2 0.437142 0.500000 0.083055
O O3 0.389587 0.665190 0.126526
O O4 0.434820 0.654230 0.000000
O O5 0.294360 0.762165 0.893230
O O6 0.326007 0.698026 0.767684
O O7 0.383914 0.846484 0.838307
O O8 0.274137 0.701403 0.500000
O O9 0.302344 0.827237 0.600105
O O10 0.296493 0.642311 0.637169
O O11 0.138580 0.500000 0.885348
O O12 0.092500 0.687243 0.890204
O O13 0.137578 0.606154 0.000000
O O14 0.898065 0.143412 0.821591
O O15 0.941357 0.305188 0.765516
O O16 0.000000 0.209639 0.857949
O O17 0.669512 0.500000 0.274228
O O18 0.065610 0.500000 0.277822
O O19 0.000000 0.624976 0.336470
#
# Coordination Sequence:
#
# PCOD9523647 Si02
#       7
#    16  16  16  16  16  16  16
#     4   9  18  32  51  79 115 149 177 213 270 334
#     4  11  20  34  56  83 106 135 182 231 272 317
#     4  10  22  39  56  76 105 143 187 228 270 326
#     4   9  18  32  50  74 104 135 168 215 273 322
#     4   9  18  33  53  77 104 135 172 211 256 317
#     4  10  22  38  55  79 111 143 176 222 276 322
#     4   9  18  32  50  74 105 137 167 207 262 317
#
# _framework density 18.551054000000001
#
# number of rings (size 3 to 8) (size 9 to 14) (size 15 to 20)
#    0.000    2.429    0.000    2.571    0.000    4.000 
#    0.000    2.143    0.000    1.286    0.000    9.000 
#    0.000    0.000    0.000    0.000    0.000    0.000 
#
# Total GULP energy -311955.902874 kJ/mol
# GULP energy per Si atom -5570.641123 kJ/mol
# Density = 1.850883 g / cm^3
# Si number density = 18.551054 Si / 1000 Ang^3
#
#
#
# Elastic Constant Matrix: (Units=GPa)
#
#
# Indices 1 2 3 4 5 6 
#
# 1 107.2226 -1.0357 33.5703 0.0000 0.0000 0.0000
# 2 -1.0357 43.0428 9.7834 0.0000 0.0000 0.0000
# 3 33.5703 9.7834 49.8241 0.0000 0.0000 0.0000
# 4 0.0000 0.0000 0.0000 19.7435 0.0000 0.0000
# 5 0.0000 0.0000 0.0000 0.0000 -0.0612 0.0000
# 6 0.0000 0.0000 0.0000 0.0000 0.0000 11.1708
#
#
#
# Elastic Compliance Matrix: (Units=1/GPa)
#
#
# Indices 1 2 3 4 5 6 
#
# 1 0.012021 0.002230 -0.008537 0.000000 0.000000 0.000000
# 2 0.002230 0.024732 -0.006359 0.000000 0.000000 0.000000
# 3 -0.008537 -0.006359 0.027071 0.000000 0.000000 0.000000
# 4 0.000000 0.000000 0.000000 0.050649 0.000000 0.000000
# 5 0.000000 0.000000 0.000000 0.000000-16.352921 0.000000
# 6 0.000000 0.000000 0.000000 0.000000 0.000000 0.089519
#
#
# Mechanical properties :
#
#
# Convention : Reuss Voigt Hill
#
# Bulk Modulus (GPa) = 25.97968 31.63617 28.80792
# Shear Modulus (GPa) = -0.31035 16.68874 8.18920
#
# Velocity S-wave (km/s) = -0.40946 3.00261 2.10333
# Velocity P-wave (km/s) = 3.71635 5.39550 4.63264
#
# Compressibility (1/GPa) = 0.03849163
#
# Stress axis : x y z
#
# Youngs Moduli (GPa) = 83.18889 40.43412 36.93945
#
# Poissons Ratio (x) = -0.09016 0.31536
# Poissons Ratio (y) = -0.18549 0.23488
# Poissons Ratio (z) = 0.71020 0.25710
#
# Static dielectric constant tensor:
#      x y z
#    x 1.654730 0.000000 0.000000 
#    y 0.000000 1.645350 0.000000 
#    z 0.000000 0.000000 1.664350 
# 
# From -- ./inp_files/55775.got.cif
#   From: 2010.05.17/outbox.cif.g08.bks.cpg/sg71_28_cif.got.tgz:55775.got - 2010.06.03 16:22:01.
