data_PCOD9523154
_publ_section_title
;
Structure prediction by ZEFSAII (Michael W. Deem and Ramdas Pophale) SiO2 
 PCOD9523154
Probable space group: I M M M
;
_chemical_formula_sum "Si O2"
_cell_formula_units_Z 72
_cell_length_a 31.235220
_cell_length_b 7.364390
_cell_length_c 15.210530
_cell_angle_alpha 90.000000
_cell_angle_beta 90.000000
_cell_angle_gamma 90.000000
_cell_volume 3498.852994
_symmetry_space_group_name_H-M "I M M M"
_symmetry_group_IT_number 71
_symmetry_cell_setting 'orthorhombic'
loop_
_space_group_symop_operation_xyz
x,y,z
-x,-y,z
x,-y,-z
-x,y,-z
-x,-y,-z
x,y,-z
-x,y,z
x,-y,z
1/2+x,1/2+y,1/2+z
1/2-x,1/2-y,1/2+z
1/2+x,1/2-y,1/2-z
1/2-x,1/2+y,1/2-z
1/2-x,1/2-y,1/2-z
1/2+x,1/2+y,1/2-z
1/2-x,1/2+y,1/2+z
1/2+x,1/2-y,1/2+z
loop_
_atom_site_type_symbol
_atom_site_label
_atom_site_fract_x
_atom_site_fract_y
_atom_site_fract_z
Si Si1 0.179272 0.719992 0.593080
Si Si2 0.896055 0.278949 0.282451
Si Si3 0.864515 0.710179 0.098373
Si Si4 0.551219 0.500000 0.895646
Si Si5 0.731786 0.714866 0.347413
O O1 0.159431 0.773513 0.500000
O O2 0.181036 0.500000 0.595945
O O3 0.149667 0.772489 0.673686
O O4 0.227938 0.784103 0.597017
O O5 0.900812 0.500000 0.287022
O O6 0.892222 0.219091 0.180711
O O7 0.929991 0.173415 0.342443
O O8 0.876894 0.500000 0.091871
O O9 0.814587 0.711662 0.127962
O O10 0.868346 0.789696 0.000000
O O11 0.500000 0.500000 0.890762
O O12 0.562682 0.500000 0.000000
O O13 0.727651 0.500000 0.360241
O O14 0.750000 0.750000 0.250000
#
# Coordination Sequence:
#
# PCOD9523154 Si02
#       5
#    16  16  16   8  16
#     4   9  17  30  49  73 106 151 201 247 294 354
#     4  10  21  40  64  90 123 164 203 250 312 371
#     4  10  21  37  56  83 122 168 218 262 303 357
#     4  11  26  46  69 101 129 149 190 250 317 401
#     4  11  20  31  48  74 114 162 209 261 309 347
#
# _framework density 20.578173
#
# number of rings (size 3 to 8) (size 9 to 14) (size 15 to 20)
#    0.000    1.889    2.222    2.000    1.556    3.111 
#    2.000    1.111    0.000    1.333    0.000    3.111 
#    0.000    0.000    0.000    0.000    0.000    0.000 
#
# Total GULP energy -200754.017063 kJ/mol
# GULP energy per Si atom -5576.500474 kJ/mol
# Density = 2.053134 g / cm^3
# Si number density = 20.578173 Si / 1000 Ang^3
#
#
#
# Elastic Constant Matrix: (Units=GPa)
#
#
# Indices 1 2 3 4 5 6 
#
# 1 81.9299 21.0279 53.7645 0.0000 0.0000 0.0000
# 2 21.0279 95.7361 29.4824 0.0000 0.0000 0.0000
# 3 53.7645 29.4824 209.4554 0.0000 0.0000 0.0000
# 4 0.0000 0.0000 0.0000 1.6475 0.0000 0.0000
# 5 0.0000 0.0000 0.0000 0.0000 28.6682 0.0000
# 6 0.0000 0.0000 0.0000 0.0000 0.0000 22.0630
#
#
#
# Elastic Compliance Matrix: (Units=1/GPa)
#
#
# Indices 1 2 3 4 5 6 
#
# 1 0.015117 -0.002222 -0.003568 0.000000 0.000000 0.000000
# 2 -0.002222 0.011245 -0.001013 0.000000 0.000000 0.000000
# 3 -0.003568 -0.001013 0.005833 0.000000 0.000000 0.000000
# 4 0.000000 0.000000 0.000000 0.606993 0.000000 0.000000
# 5 0.000000 0.000000 0.000000 0.000000 0.034882 0.000000
# 6 0.000000 0.000000 0.000000 0.000000 0.000000 0.045325
#
#
# Mechanical properties :
#
#
# Convention : Reuss Voigt Hill
#
# Bulk Modulus (GPa) = 53.78957 66.18568 59.98763
# Shear Modulus (GPa) = 6.76412 29.33217 18.04815
#
# Velocity S-wave (km/s) = 1.81499 3.77955 2.96472
# Velocity P-wave (km/s) = 5.53065 7.16097 6.39795
#
# Compressibility (1/GPa) = 0.01859097
#
# Stress axis : x y z
#
# Youngs Moduli (GPa) = 66.15103 88.92695 171.45104
#
# Poissons Ratio (x) = 0.19757 0.61167
# Poissons Ratio (y) = 0.14697 0.17361
# Poissons Ratio (z) = 0.23600 0.09004
#
# Static dielectric constant tensor:
#      x y z
#    x 1.676390 0.000000 0.000000 
#    y 0.000000 1.764030 0.000000 
#    z 0.000000 0.000000 1.835890 
# 
# From -- ./inp_files/16364.got.cif
#   From: 2010.05.17/outbox.cif.g08.bks.cpg/sg71_9_cif.got.tgz:16364.got - 2010.06.03 16:22:01.
