data_PCOD9523589
_publ_section_title
;
Structure prediction by ZEFSAII (Michael W. Deem and Ramdas Pophale) SiO2 
 PCOD9523589
Probable space group: I M M M
;
_chemical_formula_sum "Si O2"
_cell_formula_units_Z 82
_cell_length_a 11.792446
_cell_length_b 18.958953
_cell_length_c 22.258304
_cell_angle_alpha 90.000000
_cell_angle_beta 90.000000
_cell_angle_gamma 90.000000
_cell_volume 4976.343101
_symmetry_space_group_name_H-M "I M M M"
_symmetry_group_IT_number 71
_symmetry_cell_setting 'orthorhombic'
loop_
_space_group_symop_operation_xyz
x,y,z
-x,-y,z
x,-y,-z
-x,y,-z
-x,-y,-z
x,y,-z
-x,y,z
x,-y,z
1/2+x,1/2+y,1/2+z
1/2-x,1/2-y,1/2+z
1/2+x,1/2-y,1/2-z
1/2-x,1/2+y,1/2-z
1/2-x,1/2-y,1/2-z
1/2+x,1/2+y,1/2-z
1/2-x,1/2+y,1/2+z
1/2+x,1/2-y,1/2+z
loop_
_atom_site_type_symbol
_atom_site_label
_atom_site_fract_x
_atom_site_fract_y
_atom_site_fract_z
Si Si1 0.364806 0.761369 0.330353
Si Si2 0.247520 0.846585 0.430932
Si Si3 0.771778 0.138405 0.239642
Si Si4 0.866723 0.500000 0.248294
Si Si5 0.688227 0.000000 0.393691
Si Si6 0.500000 0.418419 0.198496
Si Si7 0.000000 0.865687 0.567407
Si Si8 0.500000 0.000000 0.500000
O O1 0.500000 0.759687 0.324540
O O2 0.327417 0.796241 0.392791
O O3 0.308600 0.812708 0.280779
O O4 0.311740 0.684861 0.316876
O O5 0.284462 0.850590 0.500000
O O6 0.248152 0.925978 0.404064
O O7 0.116736 0.822546 0.428801
O O8 0.699852 0.068371 0.228100
O O9 0.886717 0.118264 0.275722
O O10 0.855146 0.500000 0.175017
O O11 0.000000 0.500000 0.262697
O O12 0.596140 0.000000 0.446401
O O13 0.500000 0.500000 0.216986
O O14 0.500000 0.413636 0.126386
O O15 0.000000 0.899529 0.500000
#
# Coordination Sequence:
#
# PCOD9523589 Si02
#       8
#    16  16  16   8   8   8   8   2
#     4  11  23  37  55  79 111 145 186 232 280 329
#     4  11  23  37  54  78 111 151 190 229 273 327
#     4  11  23  37  54  81 108 144 187 232 279 331
#     4  12  22  37  57  81 114 146 188 227 275 329
#     4  12  22  35  49  81 110 152 193 229 265 315
#     4  12  20  37  57  75 107 147 188 232 279 327
#     4  10  22  35  48  75 110 144 188 223 260 316
#     4  12  24  32  48  70 128 152 200 234 276 296
#
# _framework density 16.477962000000002
#
# number of rings (size 3 to 8) (size 9 to 14) (size 15 to 20)
#    0.000    0.780    7.317    0.585    2.732    0.585 
#    1.756    0.000    0.000    0.000    0.000    0.683 
#    0.000    3.122    0.000    0.000    0.000    0.000 
#
# Total GULP energy -228476.282658 kJ/mol
# GULP energy per Si atom -5572.592260 kJ/mol
# Density = 1.644046 g / cm^3
# Si number density = 16.477962 Si / 1000 Ang^3
#
#
#
# Elastic Constant Matrix: (Units=GPa)
#
#
# Indices 1 2 3 4 5 6 
#
# 1 140.6536 55.5968 31.2309 0.0000 0.0000 0.0000
# 2 55.5968 107.1980 42.9828 0.0000 0.0000 0.0000
# 3 31.2309 42.9828 58.0290 0.0000 0.0000 0.0000
# 4 0.0000 0.0000 0.0000 20.8393 0.0000 0.0000
# 5 0.0000 0.0000 0.0000 0.0000 15.7060 0.0000
# 6 0.0000 0.0000 0.0000 0.0000 0.0000 -35.0788
#
#
#
# Elastic Compliance Matrix: (Units=1/GPa)
#
#
# Indices 1 2 3 4 5 6 
#
# 1 0.009102 -0.003921 -0.001994 0.000000 0.000000 0.000000
# 2 -0.003921 0.014959 -0.008970 0.000000 0.000000 0.000000
# 3 -0.001994 -0.008970 0.024950 0.000000 0.000000 0.000000
# 4 0.000000 0.000000 0.000000 0.047986 0.000000 0.000000
# 5 0.000000 0.000000 0.000000 0.000000 0.063670 0.000000
# 6 0.000000 0.000000 0.000000 0.000000 0.000000 -0.028507
#
#
# Mechanical properties :
#
#
# Convention : Reuss Voigt Hill
#
# Bulk Modulus (GPa) = 51.97339 62.83354 57.40346
# Shear Modulus (GPa) = 29.70094 12.03131 20.86612
#
# Velocity S-wave (km/s) = 4.25015 2.70505 3.56238
# Velocity P-wave (km/s) = 7.46288 6.92611 7.19950
#
# Compressibility (1/GPa) = 0.01924062
#
# Stress axis : x y z
#
# Youngs Moduli (GPa) = 109.86061 66.85040 40.07984
#
# Poissons Ratio (x) = 0.26213 0.07994
# Poissons Ratio (y) = 0.43078 0.35951
# Poissons Ratio (z) = 0.21911 0.59964
#
# Static dielectric constant tensor:
#      x y z
#    x 1.578500 0.000000 0.000000 
#    y 0.000000 1.563060 0.000000 
#    z 0.000000 0.000000 1.551990 
# 
# From -- ./inp_files/58862.got.cif
#   From: 2010.05.17/outbox.cif.g08.bks.cpg/sg71_30_cif.got.tgz:58862.got - 2010.06.03 16:22:01.
