data_PCOD9523991
_publ_section_title
;
Structure prediction by ZEFSAII (Michael W. Deem and Ramdas Pophale) SiO2 
 PCOD9523991
Probable space group: I M M M
;
_chemical_formula_sum "Si O2"
_cell_formula_units_Z 104
_cell_length_a 11.262466
_cell_length_b 27.877339
_cell_length_c 18.774322
_cell_angle_alpha 90.000000
_cell_angle_beta 90.000000
_cell_angle_gamma 90.000000
_cell_volume 5894.528494
_symmetry_space_group_name_H-M "I M M M"
_symmetry_group_IT_number 71
_symmetry_cell_setting 'orthorhombic'
loop_
_space_group_symop_operation_xyz
x,y,z
-x,-y,z
x,-y,-z
-x,y,-z
-x,-y,-z
x,y,-z
-x,y,z
x,-y,z
1/2+x,1/2+y,1/2+z
1/2-x,1/2-y,1/2+z
1/2+x,1/2-y,1/2-z
1/2-x,1/2+y,1/2-z
1/2-x,1/2-y,1/2-z
1/2+x,1/2+y,1/2-z
1/2-x,1/2+y,1/2+z
1/2+x,1/2-y,1/2+z
loop_
_atom_site_type_symbol
_atom_site_label
_atom_site_fract_x
_atom_site_fract_y
_atom_site_fract_z
Si Si1 0.245328 0.731458 0.168342
Si Si2 0.144057 0.947168 0.419262
Si Si3 0.500000 0.346476 0.419637
Si Si4 0.642645 0.370269 0.804225
Si Si5 0.860082 0.680877 0.581514
Si Si6 0.643896 0.500000 0.413931
Si Si7 0.500000 0.768402 0.415110
Si Si8 0.221460 0.898379 0.150126
O O1 0.250000 0.750000 0.250000
O O2 0.322424 0.683181 0.173018
O O3 0.299002 0.774845 0.121829
O O4 0.117899 0.719246 0.131480
O O5 0.185037 0.940374 0.500000
O O6 0.179204 0.905237 0.367706
O O7 0.000000 0.947223 0.420842
O O8 0.181151 0.000000 0.394161
O O9 0.500000 0.364587 0.500000
O O10 0.500000 0.289469 0.418181
O O11 0.386019 0.367085 0.381530
O O12 0.500000 0.373088 0.792250
O O13 0.708632 0.389822 0.734131
O O14 0.815335 0.678793 0.500000
O O15 0.833848 0.630058 0.619169
O O16 0.000000 0.689645 0.580813
O O17 0.500000 0.500000 0.402052
O O18 0.662332 0.500000 0.500000
O O19 0.699947 0.547683 0.377828
O O20 0.500000 0.784173 0.500000
#
# Coordination Sequence:
#
# PCOD9523991 Si02
#       8
#    16  16   8  16  16   8   8  16
#     4  12  24  37  60  86 121 154 198 246 294 353
#     4   8  16  32  54  79 111 148 181 218 275 340
#     4  11  18  33  58  79 115 153 188 228 285 350
#     4  11  22  36  56  87 120 152 188 239 293 349
#     4  11  24  41  61  83 114 157 201 241 289 351
#     4  11  22  34  55  87 120 152 194 244 293 349
#     4  11  24  40  61  88 119 161 204 245 301 363
#     4  12  22  37  57  86 120 152 193 240 296 350
#
# _framework density 17.643481000000001
#
# number of rings (size 3 to 8) (size 9 to 14) (size 15 to 20)
#    0.000    1.154    4.615    2.769    3.231    1.231 
#    0.000    1.923    0.000    1.385    0.000    0.538 
#    0.000    1.846    0.000    0.000    0.000    0.000 
#
# Total GULP energy -290015.447256 kJ/mol
# GULP energy per Si atom -5577.220140 kJ/mol
# Density = 1.760332 g / cm^3
# Si number density = 17.643481 Si / 1000 Ang^3
#
#
#
# Elastic Constant Matrix: (Units=GPa)
#
#
# Indices 1 2 3 4 5 6 
#
# 1 48.4957 12.8890 28.8080 0.0000 0.0000 0.0000
# 2 12.8890 136.9038 68.6496 0.0000 0.0000 0.0000
# 3 28.8080 68.6496 102.3190 0.0000 0.0000 0.0000
# 4 0.0000 0.0000 0.0000 32.8046 0.0000 0.0000
# 5 0.0000 0.0000 0.0000 0.0000 21.9438 0.0000
# 6 0.0000 0.0000 0.0000 0.0000 0.0000 36.7802
#
#
#
# Elastic Compliance Matrix: (Units=1/GPa)
#
#
# Indices 1 2 3 4 5 6 
#
# 1 0.025045 0.001775 -0.008242 0.000000 0.000000 0.000000
# 2 0.001775 0.011134 -0.007970 0.000000 0.000000 0.000000
# 3 -0.008242 -0.007970 0.017441 0.000000 0.000000 0.000000
# 4 0.000000 0.000000 0.000000 0.030484 0.000000 0.000000
# 5 0.000000 0.000000 0.000000 0.000000 0.045571 0.000000
# 6 0.000000 0.000000 0.000000 0.000000 0.000000 0.027189
#
#
# Mechanical properties :
#
#
# Convention : Reuss Voigt Hill
#
# Bulk Modulus (GPa) = 40.41103 56.49020 48.45061
# Shear Modulus (GPa) = 25.77513 30.13053 27.95283
#
# Velocity S-wave (km/s) = 3.82630 4.13697 3.98466
# Velocity P-wave (km/s) = 6.51726 7.40989 6.97786
#
# Compressibility (1/GPa) = 0.02474572
#
# Stress axis : x y z
#
# Youngs Moduli (GPa) = 39.92836 89.81749 57.33519
#
# Poissons Ratio (x) = -0.15945 0.47258
# Poissons Ratio (y) = -0.07088 0.45695
# Poissons Ratio (z) = 0.32911 0.71583
#
# Static dielectric constant tensor:
#      x y z
#    x 1.619950 0.000000 0.000000 
#    y 0.000000 1.631590 0.000000 
#    z 0.000000 0.000000 1.636550 
# 
# From -- ./inp_files/43804.got.cif
#   From: 2010.05.17/outbox.cif.g08.bks.cpg/sg71_22_cif.got.tgz:43804.got - 2010.06.03 16:22:01.
