data_PCOD9523165
_publ_section_title
;
Structure prediction by ZEFSAII (Michael W. Deem and Ramdas Pophale) SiO2 
 PCOD9523165
Probable space group: I M M M
;
_chemical_formula_sum "Si O2"
_cell_formula_units_Z 56
_cell_length_a 7.912184
_cell_length_b 9.191099
_cell_length_c 40.865950
_cell_angle_alpha 90.000000
_cell_angle_beta 90.000000
_cell_angle_gamma 90.000000
_cell_volume 2971.839985
_symmetry_space_group_name_H-M "I M M M"
_symmetry_group_IT_number 71
_symmetry_cell_setting 'orthorhombic'
loop_
_space_group_symop_operation_xyz
x,y,z
-x,-y,z
x,-y,-z
-x,y,-z
-x,-y,-z
x,y,-z
-x,y,z
x,-y,z
1/2+x,1/2+y,1/2+z
1/2-x,1/2-y,1/2+z
1/2+x,1/2-y,1/2-z
1/2-x,1/2+y,1/2-z
1/2-x,1/2-y,1/2-z
1/2+x,1/2+y,1/2-z
1/2-x,1/2+y,1/2+z
1/2+x,1/2-y,1/2+z
loop_
_atom_site_type_symbol
_atom_site_label
_atom_site_fract_x
_atom_site_fract_y
_atom_site_fract_z
Si Si1 0.801732 0.324838 0.414732
Si Si2 0.297072 0.335066 0.151993
Si Si3 0.000000 0.823058 0.962630
Si Si4 0.298853 0.335850 0.717365
O O1 0.793313 0.500000 0.410958
O O2 0.746599 0.250120 0.380807
O O3 0.669440 0.281098 0.442869
O O4 0.000000 0.288707 0.421491
O O5 0.500000 0.342561 0.150802
O O6 0.230182 0.500000 0.152653
O O7 0.252480 0.249523 0.184813
O O8 0.000000 0.000000 0.963463
O O9 0.000000 0.770931 0.000000
O O10 0.500000 0.345941 0.717175
O O11 0.227731 0.500000 0.717524
O O12 0.250000 0.250000 0.750000
#
# Coordination Sequence:
#
# PCOD9523165 Si02
#       4
#    16  16   8  16
#     4   9  18  33  54  80 111 147 186 231 284 337
#     4  10  21  37  57  81 109 142 183 231 280 332
#     4   9  18  32  53  83 115 145 185 237 285 339
#     4  11  24  39  56  80 110 144 183 228 277 330
#
# _framework density 18.843547000000001
#
# number of rings (size 3 to 8) (size 9 to 14) (size 15 to 20)
#    0.000    2.143    0.000    2.571    2.000    8.000 
#    0.000    2.857    0.000    1.714    0.000    4.000 
#    0.000    0.000    0.000    0.000    0.000    0.000 
#
# Total GULP energy -156276.414686 kJ/mol
# GULP energy per Si atom -5581.300524 kJ/mol
# Density = 1.880066 g / cm^3
# Si number density = 18.843547 Si / 1000 Ang^3
#
#
#
# Elastic Constant Matrix: (Units=GPa)
#
#
# Indices 1 2 3 4 5 6 
#
# 1 67.3145 36.9280 71.1739 0.0000 0.0000 0.0000
# 2 36.9280 93.8003 78.9668 0.0000 0.0000 0.0000
# 3 71.1739 78.9668 216.9294 0.0000 0.0000 0.0000
# 4 0.0000 0.0000 0.0000 24.3387 0.0000 0.0000
# 5 0.0000 0.0000 0.0000 0.0000 38.3807 0.0000
# 6 0.0000 0.0000 0.0000 0.0000 0.0000 16.6744
#
#
#
# Elastic Compliance Matrix: (Units=1/GPa)
#
#
# Indices 1 2 3 4 5 6 
#
# 1 0.023755 -0.004024 -0.006329 0.000000 0.000000 0.000000
# 2 -0.004024 0.016053 -0.004524 0.000000 0.000000 0.000000
# 3 -0.006329 -0.004524 0.008333 0.000000 0.000000 0.000000
# 4 0.000000 0.000000 0.000000 0.041087 0.000000 0.000000
# 5 0.000000 0.000000 0.000000 0.000000 0.026055 0.000000
# 6 0.000000 0.000000 0.000000 0.000000 0.000000 0.059972
#
#
# Mechanical properties :
#
#
# Convention : Reuss Voigt Hill
#
# Bulk Modulus (GPa) = 54.38220 83.57574 68.97897
# Shear Modulus (GPa) = 23.68120 28.61045 26.14583
#
# Velocity S-wave (km/s) = 3.54888 3.90078 3.72899
# Velocity P-wave (km/s) = 6.76131 8.04592 7.43142
#
# Compressibility (1/GPa) = 0.01838837
#
# Stress axis : x y z
#
# Youngs Moduli (GPa) = 42.09605 62.29282 120.00375
#
# Poissons Ratio (x) = 0.25065 0.75954
# Poissons Ratio (y) = 0.16938 0.54284
# Poissons Ratio (z) = 0.26644 0.28178
#
# Static dielectric constant tensor:
#      x y z
#    x 1.647830 0.000000 0.000000 
#    y 0.000000 1.670090 0.000000 
#    z 0.000000 0.000000 1.821640 
# 
# From -- ./inp_files/67643.got.cif
#   From: 2010.05.17/outbox.cif.g08.bks.cpg/sg71_34_cif.got.tgz:67643.got - 2010.06.03 16:22:01.
