data_PCOD9523757
_publ_section_title
;
Structure prediction by ZEFSAII (Michael W. Deem and Ramdas Pophale) SiO2 
 PCOD9523757
Probable space group: I M M M
;
_chemical_formula_sum "Si O2"
_cell_formula_units_Z 72
_cell_length_a 14.614011
_cell_length_b 10.859988
_cell_length_c 26.520514
_cell_angle_alpha 90.000000
_cell_angle_beta 90.000000
_cell_angle_gamma 90.000000
_cell_volume 4209.017314
_symmetry_space_group_name_H-M "I M M M"
_symmetry_group_IT_number 71
_symmetry_cell_setting 'orthorhombic'
loop_
_space_group_symop_operation_xyz
x,y,z
-x,-y,z
x,-y,-z
-x,y,-z
-x,-y,-z
x,y,-z
-x,y,z
x,-y,z
1/2+x,1/2+y,1/2+z
1/2-x,1/2-y,1/2+z
1/2+x,1/2-y,1/2-z
1/2-x,1/2+y,1/2-z
1/2-x,1/2-y,1/2-z
1/2+x,1/2+y,1/2-z
1/2-x,1/2+y,1/2+z
1/2+x,1/2-y,1/2+z
loop_
_atom_site_type_symbol
_atom_site_label
_atom_site_fract_x
_atom_site_fract_y
_atom_site_fract_z
Si Si1 0.817454 0.752158 0.104332
Si Si2 0.605650 0.000000 0.559961
Si Si3 0.809991 0.749051 0.698802
Si Si4 0.224167 0.500000 0.559643
Si Si5 0.000000 0.855899 0.730671
Si Si6 0.108932 0.500000 0.342574
Si Si7 0.000000 0.148509 0.844153
O O1 0.843220 0.626152 0.075776
O O2 0.750742 0.715497 0.150543
O O3 0.776489 0.870580 0.073595
O O4 0.910199 0.804321 0.128357
O O5 0.500000 0.000000 0.579970
O O6 0.600285 0.000000 0.500000
O O7 0.750000 0.750000 0.750000
O O8 0.845304 0.614089 0.685214
O O9 0.904551 0.822405 0.704700
O O10 0.203986 0.500000 0.500000
O O11 0.139190 0.500000 0.598745
O O12 0.000000 0.801265 0.787055
O O13 0.000000 0.000000 0.737176
O O14 0.000000 0.500000 0.337784
O O15 0.000000 0.000000 0.844409
#
# Coordination Sequence:
#
# PCOD9523757 Si02
#       7
#    16   8  16   8   8   8   8
#     4  11  22  38  60  85 120 154 193 240 296 346
#     4  11  24  39  57  85 119 152 196 250 298 345
#     4  11  23  38  58  88 118 157 190 232 282 348
#     4  10  22  40  63  84 109 156 204 243 299 355
#     4  11  24  37  57  84 123 160 194 224 278 343
#     4  10  22  40  61  85 118 148 197 255 287 329
#     4  11  20  37  56  86 120 153 195 241 277 344
#
# _framework density 17.10613
#
# number of rings (size 3 to 8) (size 9 to 14) (size 15 to 20)
#    0.000    1.222    5.556    0.667    3.111    0.222 
#    0.000    2.778    0.000    0.000    0.000    0.778 
#    0.000    0.000    0.000    0.000    0.000    0.000 
#
# Total GULP energy -200640.023360 kJ/mol
# GULP energy per Si atom -5573.333982 kJ/mol
# Density = 1.706720 g / cm^3
# Si number density = 17.106130 Si / 1000 Ang^3
#
#
#
# Elastic Constant Matrix: (Units=GPa)
#
#
# Indices 1 2 3 4 5 6 
#
# 1 121.0798 37.7120 57.4706 0.0000 0.0000 0.0000
# 2 37.7120 101.7386 50.9568 0.0000 0.0000 0.0000
# 3 57.4706 50.9568 118.1276 0.0000 0.0000 0.0000
# 4 0.0000 0.0000 0.0000 24.3644 0.0000 0.0000
# 5 0.0000 0.0000 0.0000 0.0000 10.4378 0.0000
# 6 0.0000 0.0000 0.0000 0.0000 0.0000 28.9854
#
#
#
# Elastic Compliance Matrix: (Units=1/GPa)
#
#
# Indices 1 2 3 4 5 6 
#
# 1 0.010986 -0.001780 -0.004577 0.000000 0.000000 0.000000
# 2 -0.001780 0.012826 -0.004667 0.000000 0.000000 0.000000
# 3 -0.004577 -0.004667 0.012705 0.000000 0.000000 0.000000
# 4 0.000000 0.000000 0.000000 0.041044 0.000000 0.000000
# 5 0.000000 0.000000 0.000000 0.000000 0.095806 0.000000
# 6 0.000000 0.000000 0.000000 0.000000 0.000000 0.034500
#
#
# Mechanical properties :
#
#
# Convention : Reuss Voigt Hill
#
# Bulk Modulus (GPa) = 69.10851 70.35833 69.73342
# Shear Modulus (GPa) = 21.30033 25.74462 23.52247
#
# Velocity S-wave (km/s) = 3.53255 3.88363 3.71224
# Velocity P-wave (km/s) = 7.55818 7.83134 7.69597
#
# Compressibility (1/GPa) = 0.01447000
#
# Stress axis : x y z
#
# Youngs Moduli (GPa) = 91.02642 77.96448 78.70648
#
# Poissons Ratio (x) = 0.13876 0.36024
# Poissons Ratio (y) = 0.16200 0.36733
# Poissons Ratio (z) = 0.41663 0.36386
#
# Static dielectric constant tensor:
#      x y z
#    x 1.574170 0.000000 0.000000 
#    y 0.000000 1.570460 0.000000 
#    z 0.000000 0.000000 1.582050 
# 
# From -- ./inp_files/6254.got.cif
#   From: 2010.05.17/outbox.cif.g08.bks.cpg/sg71_4_cif.got.tgz:6254.got - 2010.06.03 16:22:01.
