data_PCOD9523861
_publ_section_title
;
Structure prediction by ZEFSAII (Michael W. Deem and Ramdas Pophale) SiO2 
 PCOD9523861
Probable space group: I M M M
;
_chemical_formula_sum "Si O2"
_cell_formula_units_Z 64
_cell_length_a 24.567907
_cell_length_b 8.598647
_cell_length_c 15.950635
_cell_angle_alpha 90.000000
_cell_angle_beta 90.000000
_cell_angle_gamma 90.000000
_cell_volume 3369.583763
_symmetry_space_group_name_H-M "I M M M"
_symmetry_group_IT_number 71
_symmetry_cell_setting 'orthorhombic'
loop_
_space_group_symop_operation_xyz
x,y,z
-x,-y,z
x,-y,-z
-x,y,-z
-x,-y,-z
x,y,-z
-x,y,z
x,-y,z
1/2+x,1/2+y,1/2+z
1/2-x,1/2-y,1/2+z
1/2+x,1/2-y,1/2-z
1/2-x,1/2+y,1/2-z
1/2-x,1/2-y,1/2-z
1/2+x,1/2+y,1/2-z
1/2-x,1/2+y,1/2+z
1/2+x,1/2-y,1/2+z
loop_
_atom_site_type_symbol
_atom_site_label
_atom_site_fract_x
_atom_site_fract_y
_atom_site_fract_z
Si Si1 0.500000 0.188801 0.367296
Si Si2 0.889767 0.812594 0.403116
Si Si3 0.287916 0.314695 0.500000
Si Si4 0.000000 0.313685 0.676027
Si Si5 0.725962 0.312994 0.163429
Si Si6 0.090327 0.311486 0.000000
O O1 0.500000 0.243761 0.272243
O O2 0.446459 0.234019 0.419763
O O3 0.500000 0.000000 0.366840
O O4 0.881053 0.767061 0.500000
O O5 0.945773 0.744416 0.369359
O O6 0.836986 0.764735 0.349839
O O7 0.893226 0.000000 0.400422
O O8 0.283270 0.500000 0.500000
O O9 0.259233 0.247552 0.416872
O O10 0.350882 0.264120 0.500000
O O11 0.000000 0.500000 0.676490
O O12 0.728202 0.500000 0.163529
O O13 0.750000 0.250000 0.250000
O O14 0.095892 0.500000 0.000000
#
# Coordination Sequence:
#
# PCOD9523861 Si02
#       6
#     8  16   8   8  16   8
#     4   8  18  37  59  87 119 158 202 248 304 364
#     4  10  22  43  64  84 117 162 205 247 306 373
#     4  12  25  41  63  97 131 166 211 258 312 378
#     4  11  23  36  58  94 123 152 201 256 306 361
#     4  11  24  44  67  94 127 168 212 261 317 375
#     4   9  18  38  64  84 117 165 207 248 303 365
#
# _framework density 18.993444
#
# number of rings (size 3 to 8) (size 9 to 14) (size 15 to 20)
#    0.000    1.750    1.250    3.375    3.500    4.000 
#    0.000    2.500    0.000    0.000    0.000    0.000 
#    0.000    0.000    0.000    0.000    0.000    0.000 
#
# Total GULP energy -178818.566598 kJ/mol
# GULP energy per Si atom -5588.080206 kJ/mol
# Density = 1.895021 g / cm^3
# Si number density = 18.993444 Si / 1000 Ang^3
#
#
#
# Elastic Constant Matrix: (Units=GPa)
#
#
# Indices 1 2 3 4 5 6 
#
# 1 199.3616 50.0852 96.3145 0.0000 0.0000 0.0000
# 2 50.0852 51.3132 44.6666 0.0000 0.0000 0.0000
# 3 96.3145 44.6666 163.1210 0.0000 0.0000 0.0000
# 4 0.0000 0.0000 0.0000 29.7179 0.0000 0.0000
# 5 0.0000 0.0000 0.0000 0.0000 8.8128 0.0000
# 6 0.0000 0.0000 0.0000 0.0000 0.0000 11.7068
#
#
#
# Elastic Compliance Matrix: (Units=1/GPa)
#
#
# Indices 1 2 3 4 5 6 
#
# 1 0.007806 -0.004736 -0.003312 0.000000 0.000000 0.000000
# 2 -0.004736 0.028460 -0.004997 0.000000 0.000000 0.000000
# 3 -0.003312 -0.004997 0.009454 0.000000 0.000000 0.000000
# 4 0.000000 0.000000 0.000000 0.033650 0.000000 0.000000
# 5 0.000000 0.000000 0.000000 0.000000 0.113471 0.000000
# 6 0.000000 0.000000 0.000000 0.000000 0.000000 0.085421
#
#
# Mechanical properties :
#
#
# Convention : Reuss Voigt Hill
#
# Bulk Modulus (GPa) = 50.94055 88.43650 69.68852
# Shear Modulus (GPa) = 16.08256 24.89614 20.48935
#
# Velocity S-wave (km/s) = 2.91304 3.62439 3.28801
# Velocity P-wave (km/s) = 6.18003 8.01109 7.15438
#
# Compressibility (1/GPa) = 0.01963073
#
# Stress axis : x y z
#
# Youngs Moduli (GPa) = 128.10649 35.13652 105.77146
#
# Poissons Ratio (x) = 0.16641 0.35034
# Poissons Ratio (y) = 0.60672 0.52852
# Poissons Ratio (z) = 0.42431 0.17557
#
# Static dielectric constant tensor:
#      x y z
#    x 1.631070 0.000000 0.000000 
#    y 0.000000 1.642900 0.000000 
#    z 0.000000 0.000000 1.642890 
# 
# From -- ./inp_files/12035.got.cif
#   From: 2010.05.17/outbox.cif.g08.bks.cpg/sg71_7_cif.got.tgz:12035.got - 2010.06.03 16:22:01.
