data_PCOD9523170
_publ_section_title
;
Structure prediction by ZEFSAII (Michael W. Deem and Ramdas Pophale) SiO2 
 PCOD9523170
Probable space group: I M M M
;
_chemical_formula_sum "Si O2"
_cell_formula_units_Z 72
_cell_length_a 9.150469
_cell_length_b 14.042704
_cell_length_c 27.013593
_cell_angle_alpha 90.000000
_cell_angle_beta 90.000000
_cell_angle_gamma 90.000000
_cell_volume 3471.174510
_symmetry_space_group_name_H-M "I M M M"
_symmetry_group_IT_number 71
_symmetry_cell_setting 'orthorhombic'
loop_
_space_group_symop_operation_xyz
x,y,z
-x,-y,z
x,-y,-z
-x,y,-z
-x,-y,-z
x,y,-z
-x,y,z
x,-y,z
1/2+x,1/2+y,1/2+z
1/2-x,1/2-y,1/2+z
1/2+x,1/2-y,1/2-z
1/2-x,1/2+y,1/2-z
1/2-x,1/2-y,1/2-z
1/2+x,1/2+y,1/2-z
1/2-x,1/2+y,1/2+z
1/2+x,1/2-y,1/2+z
loop_
_atom_site_type_symbol
_atom_site_label
_atom_site_fract_x
_atom_site_fract_y
_atom_site_fract_z
Si Si1 0.675769 0.612753 0.896000
Si Si2 0.840706 0.113212 0.855448
Si Si3 0.670203 0.883796 0.500000
Si Si4 0.160606 0.384215 0.444069
Si Si5 0.330160 0.744287 0.197631
O O1 0.500000 0.623061 0.901295
O O2 0.706847 0.500000 0.888621
O O3 0.720022 0.671608 0.846392
O O4 0.750124 0.643244 0.948111
O O5 0.797362 0.141653 0.910900
O O6 0.707231 0.152806 0.824431
O O7 0.000000 0.151040 0.840627
O O8 0.845575 0.000000 0.852191
O O9 0.500000 0.854186 0.500000
O O10 0.673893 0.000000 0.500000
O O11 0.175033 0.351494 0.500000
O O12 0.156689 0.500000 0.444573
O O13 0.000000 0.352651 0.425201
O O14 0.500000 0.725781 0.205473
O O15 0.250000 0.750000 0.250000
#
# Coordination Sequence:
#
# PCOD9523170 Si02
#       5
#    16  16   8  16  16
#     4   9  19  38  63  89 119 157 198 241 297 365
#     4  10  21  37  57  81 112 151 194 240 288 340
#     4   9  17  31  57  93 126 153 188 241 301 358
#     4   8  14  27  49  76 106 141 181 226 275 328
#     4  11  24  41  61  86 117 155 199 249 301 358
#
# _framework density 20.742259000000001
#
# number of rings (size 3 to 8) (size 9 to 14) (size 15 to 20)
#    0.000    2.556    0.000    2.333    0.000    5.778 
#    2.000    4.444    0.000    0.000    0.000    0.000 
#    0.000    0.000    0.000    0.000    0.000    0.000 
#
# Total GULP energy -200626.361881 kJ/mol
# GULP energy per Si atom -5572.954497 kJ/mol
# Density = 2.069505 g / cm^3
# Si number density = 20.742259 Si / 1000 Ang^3
#
#
#
# Elastic Constant Matrix: (Units=GPa)
#
#
# Indices 1 2 3 4 5 6 
#
# 1 54.4583 21.5674 66.8582 0.0000 0.0000 0.0000
# 2 21.5674 74.7651 42.8588 0.0000 0.0000 0.0000
# 3 66.8582 42.8588 158.5759 0.0000 0.0000 0.0000
# 4 0.0000 0.0000 0.0000 21.3886 0.0000 0.0000
# 5 0.0000 0.0000 0.0000 0.0000 41.0510 0.0000
# 6 0.0000 0.0000 0.0000 0.0000 0.0000 15.4421
#
#
#
# Elastic Compliance Matrix: (Units=1/GPa)
#
#
# Indices 1 2 3 4 5 6 
#
# 1 0.038349 -0.002123 -0.015595 0.000000 0.000000 0.000000
# 2 -0.002123 0.015945 -0.003414 0.000000 0.000000 0.000000
# 3 -0.015595 -0.003414 0.013804 0.000000 0.000000 0.000000
# 4 0.000000 0.000000 0.000000 0.046754 0.000000 0.000000
# 5 0.000000 0.000000 0.000000 0.000000 0.024360 0.000000
# 6 0.000000 0.000000 0.000000 0.000000 0.000000 0.064758
#
#
# Mechanical properties :
#
#
# Convention : Reuss Voigt Hill
#
# Bulk Modulus (GPa) = 38.70909 61.15202 49.93055
# Shear Modulus (GPa) = 19.61973 26.01066 22.81519
#
# Velocity S-wave (km/s) = 3.07886 3.54502 3.32013
# Velocity P-wave (km/s) = 5.59836 6.80456 6.23072
#
# Compressibility (1/GPa) = 0.02583373
#
# Stress axis : x y z
#
# Youngs Moduli (GPa) = 26.07620 62.71591 72.44263
#
# Poissons Ratio (x) = 0.13314 1.12973
# Poissons Ratio (y) = 0.05536 0.24735
# Poissons Ratio (z) = 0.40666 0.21414
#
# Static dielectric constant tensor:
#      x y z
#    x 1.803560 0.000000 0.000000 
#    y 0.000000 1.797140 0.000000 
#    z 0.000000 0.000000 1.867520 
# 
# From -- ./inp_files/62865.got.cif
#   From: 2010.05.17/outbox.cif.g08.bks.cpg/sg71_32_cif.got.tgz:62865.got - 2010.06.03 16:22:01.
