data_PCOD9523700
_publ_section_title
;
Structure prediction by ZEFSAII (Michael W. Deem and Ramdas Pophale) SiO2 
 PCOD9523700
Probable space group: I M M M
;
_chemical_formula_sum "Si O2"
_cell_formula_units_Z 104
_cell_length_a 27.333230
_cell_length_b 8.485729
_cell_length_c 22.206101
_cell_angle_alpha 90.000000
_cell_angle_beta 90.000000
_cell_angle_gamma 90.000000
_cell_volume 5150.535971
_symmetry_space_group_name_H-M "I M M M"
_symmetry_group_IT_number 71
_symmetry_cell_setting 'orthorhombic'
loop_
_space_group_symop_operation_xyz
x,y,z
-x,-y,z
x,-y,-z
-x,y,-z
-x,-y,-z
x,y,-z
-x,y,z
x,-y,z
1/2+x,1/2+y,1/2+z
1/2-x,1/2-y,1/2+z
1/2+x,1/2-y,1/2-z
1/2-x,1/2+y,1/2-z
1/2-x,1/2-y,1/2-z
1/2+x,1/2+y,1/2-z
1/2-x,1/2+y,1/2+z
1/2+x,1/2-y,1/2+z
loop_
_atom_site_type_symbol
_atom_site_label
_atom_site_fract_x
_atom_site_fract_y
_atom_site_fract_z
Si Si1 0.780659 0.687363 0.692739
Si Si2 0.612828 0.313844 0.178669
Si Si3 0.054824 0.810695 0.792864
Si Si4 0.124779 0.311515 0.892506
Si Si5 0.269387 0.689315 0.430676
Si Si6 0.555628 0.810231 0.930288
Si Si7 0.554594 0.808525 0.500000
O O1 0.774334 0.500000 0.692634
O O2 0.750000 0.750000 0.750000
O O3 0.837466 0.730076 0.698494
O O4 0.763031 0.746943 0.626332
O O5 0.621463 0.500000 0.181819
O O6 0.568394 0.275569 0.223969
O O7 0.595448 0.263635 0.113008
O O8 0.099123 0.738734 0.830970
O O9 0.000000 0.753392 0.808786
O O10 0.055339 0.000000 0.800990
O O11 0.131469 0.500000 0.894220
O O12 0.175624 0.232406 0.910443
O O13 0.084975 0.261992 0.942021
O O14 0.260431 0.747230 0.500000
O O15 0.264210 0.500000 0.433144
O O16 0.500000 0.760940 0.914524
O O17 0.557767 0.000000 0.925286
O O18 0.563840 0.769533 0.000000
O O19 0.500000 0.745839 0.500000
O O20 0.552371 0.000000 0.500000
#
# Coordination Sequence:
#
# PCOD9523700 Si02
#       7
#    16  16  16  16  16  16   8
#     4  11  24  42  63  88 118 156 201 252 310 367
#     4  11  23  39  60  87 119 155 196 247 301 355
#     4  10  22  39  57  81 117 158 197 237 285 344
#     4  11  21  35  57  85 116 150 190 238 290 340
#     4  10  22  41  63  85 114 154 198 243 294 355
#     4   9  19  37  61  89 122 159 197 239 291 356
#     4   9  18  32  49  75 113 147 177 223 280 331
#
# _framework density 20.192073000000001
#
# number of rings (size 3 to 8) (size 9 to 14) (size 15 to 20)
#    0.000    1.769    0.769    3.692    0.000    8.923 
#    0.000    2.308    0.000    1.846    0.000    0.000 
#    0.000    0.000    0.000    0.000    0.000    0.000 
#
# Total GULP energy -290291.128300 kJ/mol
# GULP energy per Si atom -5582.521698 kJ/mol
# Density = 2.014611 g / cm^3
# Si number density = 20.192073 Si / 1000 Ang^3
#
#
#
# Elastic Constant Matrix: (Units=GPa)
#
#
# Indices 1 2 3 4 5 6 
#
# 1 55.5126 5.8903 31.3158 0.0000 0.0000 0.0000
# 2 5.8903 8.2389 21.2505 0.0000 0.0000 0.0000
# 3 31.3158 21.2505 109.9601 0.0000 0.0000 0.0000
# 4 0.0000 0.0000 0.0000 36.3404 0.0000 0.0000
# 5 0.0000 0.0000 0.0000 0.0000 40.3172 0.0000
# 6 0.0000 0.0000 0.0000 0.0000 0.0000 25.9657
#
#
#
# Elastic Compliance Matrix: (Units=1/GPa)
#
#
# Indices 1 2 3 4 5 6 
#
# 1 0.021465 0.000840 -0.006275 0.000000 0.000000 0.000000
# 2 0.000840 0.242038 -0.047015 0.000000 0.000000 0.000000
# 3 -0.006275 -0.047015 0.019967 0.000000 0.000000 0.000000
# 4 0.000000 0.000000 0.000000 0.027518 0.000000 0.000000
# 5 0.000000 0.000000 0.000000 0.000000 0.024803 0.000000
# 6 0.000000 0.000000 0.000000 0.000000 0.000000 0.038512
#
#
# Mechanical properties :
#
#
# Convention : Reuss Voigt Hill
#
# Bulk Modulus (GPa) = 5.60003 32.29164 18.94584
# Shear Modulus (GPa) = 9.28113 28.20832 18.74473
#
# Velocity S-wave (km/s) = 2.14625 3.74170 3.05014
# Velocity P-wave (km/s) = 2.98685 5.89017 4.66987
#
# Compressibility (1/GPa) = 0.17857033
#
# Stress axis : x y z
#
# Youngs Moduli (GPa) = 46.58775 4.13158 50.08182
#
# Poissons Ratio (x) = -0.00347 0.31428
# Poissons Ratio (y) = -0.03914 2.35459
# Poissons Ratio (z) = 0.29236 0.19425
#
# Static dielectric constant tensor:
#      x y z
#    x 1.705690 0.000000 0.000000 
#    y 0.000000 1.701380 0.000000 
#    z 0.000000 0.000000 1.827600 
# 
# From -- ./inp_files/56245.got.cif
#   From: 2010.05.17/outbox.cif.g08.bks.cpg/sg71_29_cif.got.tgz:56245.got - 2010.06.03 16:22:01.
