data_PCOD9523152
_publ_section_title
;
Structure prediction by ZEFSAII (Michael W. Deem and Ramdas Pophale) SiO2 
 PCOD9523152
Probable space group: I M M M
;
_chemical_formula_sum "Si O2"
_cell_formula_units_Z 72
_cell_length_a 17.820024
_cell_length_b 7.524649
_cell_length_c 27.842169
_cell_angle_alpha 90.000000
_cell_angle_beta 90.000000
_cell_angle_gamma 90.000000
_cell_volume 3733.340453
_symmetry_space_group_name_H-M "I M M M"
_symmetry_group_IT_number 71
_symmetry_cell_setting 'orthorhombic'
loop_
_space_group_symop_operation_xyz
x,y,z
-x,-y,z
x,-y,-z
-x,y,-z
-x,-y,-z
x,y,-z
-x,y,z
x,-y,z
1/2+x,1/2+y,1/2+z
1/2-x,1/2-y,1/2+z
1/2+x,1/2-y,1/2-z
1/2-x,1/2+y,1/2-z
1/2-x,1/2-y,1/2-z
1/2+x,1/2+y,1/2-z
1/2-x,1/2+y,1/2+z
1/2+x,1/2-y,1/2+z
loop_
_atom_site_type_symbol
_atom_site_label
_atom_site_fract_x
_atom_site_fract_y
_atom_site_fract_z
Si Si1 0.908364 0.500000 0.195685
Si Si2 0.000000 0.785155 0.054110
Si Si3 0.359432 0.285241 0.379231
Si Si4 0.413165 0.295788 0.118843
Si Si5 0.778474 0.285818 0.554136
Si Si6 0.590824 0.000000 0.193684
O O1 0.876325 0.327547 0.168175
O O2 0.884711 0.500000 0.251371
O O3 0.000000 0.500000 0.192669
O O4 0.926499 0.738285 0.084012
O O5 0.000000 0.000000 0.051173
O O6 0.000000 0.715928 0.000000
O O7 0.359890 0.500000 0.371252
O O8 0.283251 0.232283 0.406535
O O9 0.500000 0.250676 0.107721
O O10 0.410397 0.500000 0.133935
O O11 0.359610 0.268980 0.073462
O O12 0.386426 0.169456 0.161976
O O13 0.763146 0.221837 0.500000
O O14 0.775485 0.500000 0.552690
O O15 0.500000 0.000000 0.195539
#
# Coordination Sequence:
#
# PCOD9523152 Si02
#       6
#     8   8  16  16  16   8
#     4  11  22  38  62  89 115 155 204 251 298 344
#     4   9  16  31  55  79 112 157 197 234 283 341
#     4  10  21  37  56  83 121 158 197 243 291 347
#     4  10  21  39  63  88 117 153 194 242 299 362
#     4  10  21  38  62  88 121 160 195 238 297 354
#     4   9  20  40  63  86 115 150 198 252 300 349
#
# _framework density 19.285678000000001
#
# number of rings (size 3 to 8) (size 9 to 14) (size 15 to 20)
#    0.000    2.111    2.222    0.667    1.556    4.444 
#    0.000    7.778    0.000    0.000    0.000    0.000 
#    0.000    0.000    0.000    0.000    0.000    0.000 
#
# Total GULP energy -200939.554700 kJ/mol
# GULP energy per Si atom -5581.654297 kJ/mol
# Density = 1.924178 g / cm^3
# Si number density = 19.285678 Si / 1000 Ang^3
#
#
#
# Elastic Constant Matrix: (Units=GPa)
#
#
# Indices 1 2 3 4 5 6 
#
# 1 79.2830 14.3389 23.6871 0.0000 0.0000 0.0000
# 2 14.3389 68.9855 24.1653 0.0000 0.0000 0.0000
# 3 23.6871 24.1653 81.8016 0.0000 0.0000 0.0000
# 4 0.0000 0.0000 0.0000 -78.0920 0.0000 0.0000
# 5 0.0000 0.0000 0.0000 0.0000 8.7864 0.0000
# 6 0.0000 0.0000 0.0000 0.0000 0.0000 8.0661
#
#
#
# Elastic Compliance Matrix: (Units=1/GPa)
#
#
# Indices 1 2 3 4 5 6 
#
# 1 0.013976 -0.001659 -0.003557 0.000000 0.000000 0.000000
# 2 -0.001659 0.016366 -0.004354 0.000000 0.000000 0.000000
# 3 -0.003557 -0.004354 0.014541 0.000000 0.000000 0.000000
# 4 0.000000 0.000000 0.000000 -0.012805 0.000000 0.000000
# 5 0.000000 0.000000 0.000000 0.000000 0.113812 0.000000
# 6 0.000000 0.000000 0.000000 0.000000 0.000000 0.123976
#
#
# Mechanical properties :
#
#
# Convention : Reuss Voigt Hill
#
# Bulk Modulus (GPa) = 38.84645 39.38362 39.11504
# Shear Modulus (GPa) = 16.80187 -1.05597 7.87295
#
# Velocity S-wave (km/s) = 2.95483 -0.74076 2.02266
# Velocity P-wave (km/s) = 5.64161 4.44228 5.07748
#
# Compressibility (1/GPa) = 0.02574238
#
# Stress axis : x y z
#
# Youngs Moduli (GPa) = 71.55248 61.10254 68.77113
#
# Poissons Ratio (x) = 0.10137 0.24461
# Poissons Ratio (y) = 0.11870 0.29945
# Poissons Ratio (z) = 0.25450 0.26606
#
# Static dielectric constant tensor:
#      x y z
#    x 1.677160 0.000000 0.000000 
#    y 0.000000 1.699500 0.000000 
#    z 0.000000 0.000000 1.635280 
# 
# From -- ./inp_files/65180.got.cif
#   From: 2010.05.17/outbox.cif.g08.bks.cpg/sg71_33_cif.got.tgz:65180.got - 2010.06.03 16:22:01.
