data_PCOD9523826
_publ_section_title
;
Structure prediction by ZEFSAII (Michael W. Deem and Ramdas Pophale) SiO2 
 PCOD9523826
Probable space group: I M M M
;
_chemical_formula_sum "Si O2"
_cell_formula_units_Z 88
_cell_length_a 29.660492
_cell_length_b 19.646057
_cell_length_c 7.917414
_cell_angle_alpha 90.000000
_cell_angle_beta 90.000000
_cell_angle_gamma 90.000000
_cell_volume 4613.569902
_symmetry_space_group_name_H-M "I M M M"
_symmetry_group_IT_number 71
_symmetry_cell_setting 'orthorhombic'
loop_
_space_group_symop_operation_xyz
x,y,z
-x,-y,z
x,-y,-z
-x,y,-z
-x,-y,-z
x,y,-z
-x,y,z
x,-y,z
1/2+x,1/2+y,1/2+z
1/2-x,1/2-y,1/2+z
1/2+x,1/2-y,1/2-z
1/2-x,1/2+y,1/2-z
1/2-x,1/2-y,1/2-z
1/2+x,1/2+y,1/2-z
1/2-x,1/2+y,1/2+z
1/2+x,1/2-y,1/2+z
loop_
_atom_site_type_symbol
_atom_site_label
_atom_site_fract_x
_atom_site_fract_y
_atom_site_fract_z
Si Si1 0.877698 0.191733 0.199929
Si Si2 0.550980 0.576992 0.796882
Si Si3 0.606053 0.846486 0.295374
Si Si4 0.225948 0.820408 0.299270
Si Si5 0.446171 0.920776 0.000000
Si Si6 0.299933 0.922894 0.704774
O O1 0.912153 0.132925 0.252136
O O2 0.892277 0.267211 0.256970
O O3 0.826201 0.177854 0.250580
O O4 0.878233 0.195327 0.000000
O O5 0.500000 0.593880 0.737322
O O6 0.561907 0.500000 0.737341
O O7 0.549335 0.574434 0.000000
O O8 0.597005 0.852366 0.500000
O O9 0.655228 0.879308 0.262841
O O10 0.572498 0.885409 0.170147
O O11 0.227798 0.824428 0.500000
O O12 0.250000 0.750000 0.250000
O O13 0.256365 0.882229 0.230480
O O14 0.500000 0.917027 0.000000
O O15 0.432256 0.000000 0.000000
O O16 0.296660 0.926635 0.500000
O O17 0.303387 0.000000 0.768538
#
# Coordination Sequence:
#
# PCOD9523826 Si02
#       6
#    16  16  16  16   8  16
#     4  11  23  38  59  90 125 163 205 249 306 373
#     4   9  20  40  64  89 118 157 206 256 309 370
#     4  10  22  41  64  91 125 164 206 256 311 370
#     4  11  21  35  57  85 119 157 198 251 304 356
#     4  11  26  44  64  94 125 159 209 261 315 379
#     4   9  18  35  59  84 113 156 206 249 297 361
#
# _framework density 19.074166000000002
#
# number of rings (size 3 to 8) (size 9 to 14) (size 15 to 20)
#    0.000    1.909    1.818    2.182    2.545    3.636 
#    1.636    5.455    0.000    0.000    0.000    0.000 
#    0.000    0.000    0.000    0.000    0.000    0.000 
#
# Total GULP energy -245553.671751 kJ/mol
# GULP energy per Si atom -5580.765267 kJ/mol
# Density = 1.903075 g / cm^3
# Si number density = 19.074166 Si / 1000 Ang^3
#
#
#
# Elastic Constant Matrix: (Units=GPa)
#
#
# Indices 1 2 3 4 5 6 
#
# 1 138.4670 103.8694 35.0233 0.0000 0.0000 0.0000
# 2 103.8694 179.9139 34.3463 0.0000 0.0000 0.0000
# 3 35.0233 34.3463 45.9583 0.0000 0.0000 0.0000
# 4 0.0000 0.0000 0.0000 26.3028 0.0000 0.0000
# 5 0.0000 0.0000 0.0000 0.0000 30.8780 0.0000
# 6 0.0000 0.0000 0.0000 0.0000 0.0000 37.4077
#
#
#
# Elastic Compliance Matrix: (Units=1/GPa)
#
#
# Indices 1 2 3 4 5 6 
#
# 1 0.013766 -0.006934 -0.005309 0.000000 0.000000 0.000000
# 2 -0.006934 0.009976 -0.002171 0.000000 0.000000 0.000000
# 3 -0.005309 -0.002171 0.027427 0.000000 0.000000 0.000000
# 4 0.000000 0.000000 0.000000 0.038019 0.000000 0.000000
# 5 0.000000 0.000000 0.000000 0.000000 0.032386 0.000000
# 6 0.000000 0.000000 0.000000 0.000000 0.000000 0.026732
#
#
# Mechanical properties :
#
#
# Convention : Reuss Voigt Hill
#
# Bulk Modulus (GPa) = 44.76011 78.97968 61.86990
# Shear Modulus (GPa) = 27.08838 31.65773 29.37305
#
# Velocity S-wave (km/s) = 3.77259 4.07838 3.92846
# Velocity P-wave (km/s) = 6.51873 7.97961 7.28588
#
# Compressibility (1/GPa) = 0.02234132
#
# Stress axis : x y z
#
# Youngs Moduli (GPa) = 72.64098 100.24033 36.46054
#
# Poissons Ratio (x) = 0.69509 0.19356
# Poissons Ratio (y) = 0.50371 0.07916
# Poissons Ratio (z) = 0.38563 0.21763
#
# Static dielectric constant tensor:
#      x y z
#    x 1.633660 0.000000 0.000000 
#    y 0.000000 1.689890 0.000000 
#    z 0.000000 0.000000 1.743940 
# 
# From -- ./inp_files/16620.got.cif
#   From: 2010.05.17/outbox.cif.g08.bks.cpg/sg71_9_cif.got.tgz:16620.got - 2010.06.03 16:22:01.
