data_PCOD9523667
_publ_section_title
;
Structure prediction by ZEFSAII (Michael W. Deem and Ramdas Pophale) SiO2 
 PCOD9523667
Probable space group: I M M M
;
_chemical_formula_sum "Si O2"
_cell_formula_units_Z 96
_cell_length_a 8.459024
_cell_length_b 27.475172
_cell_length_c 21.111733
_cell_angle_alpha 90.000000
_cell_angle_beta 90.000000
_cell_angle_gamma 90.000000
_cell_volume 4906.644144
_symmetry_space_group_name_H-M "I M M M"
_symmetry_group_IT_number 71
_symmetry_cell_setting 'orthorhombic'
loop_
_space_group_symop_operation_xyz
x,y,z
-x,-y,z
x,-y,-z
-x,y,-z
-x,-y,-z
x,y,-z
-x,y,z
x,-y,z
1/2+x,1/2+y,1/2+z
1/2-x,1/2-y,1/2+z
1/2+x,1/2-y,1/2-z
1/2-x,1/2+y,1/2-z
1/2-x,1/2-y,1/2-z
1/2+x,1/2+y,1/2-z
1/2-x,1/2+y,1/2+z
1/2+x,1/2-y,1/2+z
loop_
_atom_site_type_symbol
_atom_site_label
_atom_site_fract_x
_atom_site_fract_y
_atom_site_fract_z
Si Si1 0.688602 0.055268 0.693395
Si Si2 0.184174 0.892073 0.432106
Si Si3 0.690308 0.676728 0.572322
Si Si4 0.678910 0.198731 0.267681
Si Si5 0.182223 0.885963 0.191930
Si Si6 0.317319 0.716379 0.894760
O O1 0.500000 0.056648 0.692073
O O2 0.745181 0.087852 0.633747
O O3 0.738284 0.073201 0.763899
O O4 0.744930 0.000000 0.683798
O O5 0.252881 0.909773 0.500000
O O6 0.186221 0.833116 0.434610
O O7 0.000000 0.906309 0.430154
O O8 0.718398 0.660572 0.500000
O O9 0.500000 0.683031 0.581067
O O10 0.743050 0.636910 0.625070
O O11 0.770061 0.730053 0.580535
O O12 0.500000 0.189907 0.245794
O O13 0.750000 0.250000 0.250000
O O14 0.796435 0.159790 0.238621
O O15 0.690116 0.201655 0.342276
O O16 0.000000 0.899219 0.182306
O O17 0.500000 0.720361 0.871133
#
# Coordination Sequence:
#
# PCOD9523667 Si02
#       6
#    16  16  16  16  16  16
#     4  11  25  43  63  87 113 145 192 248 301 355
#     4  10  22  39  59  85 119 158 199 241 285 341
#     4  10  22  38  57  85 122 160 196 237 287 347
#     4  12  22  33  53  83 117 155 197 240 284 336
#     4  11  22  38  61  86 115 152 193 240 295 354
#     4  11  21  34  55  84 119 161 202 237 274 331
#
# _framework density 19.565307000000001
#
# number of rings (size 3 to 8) (size 9 to 14) (size 15 to 20)
#    0.000    1.167    3.333    3.500    0.000    4.333 
#    0.000    1.667    0.000    0.500    0.000    3.500 
#    0.000    0.000    0.000    0.000    0.000    0.000 
#
# Total GULP energy -267250.609980 kJ/mol
# GULP energy per Si atom -5567.721041 kJ/mol
# Density = 1.952078 g / cm^3
# Si number density = 19.565307 Si / 1000 Ang^3
#
#
#
# Elastic Constant Matrix: (Units=GPa)
#
#
# Indices 1 2 3 4 5 6 
#
# 1 44.4946 18.2431 28.2529 0.0000 0.0000 0.0000
# 2 18.2431 84.1085 50.1208 0.0000 0.0000 0.0000
# 3 28.2529 50.1208 139.9276 0.0000 0.0000 0.0000
# 4 0.0000 0.0000 0.0000 -11.1133 0.0000 0.0000
# 5 0.0000 0.0000 0.0000 0.0000 12.0160 0.0000
# 6 0.0000 0.0000 0.0000 0.0000 0.0000 20.8377
#
#
#
# Elastic Compliance Matrix: (Units=1/GPa)
#
#
# Indices 1 2 3 4 5 6 
#
# 1 0.026460 -0.003249 -0.004179 0.000000 0.000000 0.000000
# 2 -0.003249 0.015515 -0.004901 0.000000 0.000000 0.000000
# 3 -0.004179 -0.004901 0.009746 0.000000 0.000000 0.000000
# 4 0.000000 0.000000 0.000000 -0.089982 0.000000 0.000000
# 5 0.000000 0.000000 0.000000 0.000000 0.083222 0.000000
# 6 0.000000 0.000000 0.000000 0.000000 0.000000 0.047990
#
#
# Mechanical properties :
#
#
# Convention : Reuss Voigt Hill
#
# Bulk Modulus (GPa) = 36.95124 51.30713 44.12918
# Shear Modulus (GPa) = 39.48506 15.80901 27.64704
#
# Velocity S-wave (km/s) = 4.49722 2.84564 3.76315
# Velocity P-wave (km/s) = 6.77449 6.08912 6.44093
#
# Compressibility (1/GPa) = 0.02706269
#
# Stress axis : x y z
#
# Youngs Moduli (GPa) = 37.79263 64.45459 102.60738
#
# Poissons Ratio (x) = 0.20941 0.42878
# Poissons Ratio (y) = 0.12279 0.50290
# Poissons Ratio (z) = 0.15793 0.31591
#
# Static dielectric constant tensor:
#      x y z
#    x 1.679140 0.000000 0.000000 
#    y 0.000000 1.669800 0.000000 
#    z 0.000000 0.000000 1.648040 
# 
# From -- ./inp_files/10967.got.cif
#   From: 2010.05.17/outbox.cif.g08.bks.cpg/sg71_6_cif.got.tgz:10967.got - 2010.06.03 16:22:01.
