data_PCOD9523280
_publ_section_title
;
Structure prediction by ZEFSAII (Michael W. Deem and Ramdas Pophale) SiO2 
 PCOD9523280
Probable space group: I M M M
;
_chemical_formula_sum "Si O2"
_cell_formula_units_Z 82
_cell_length_a 19.779187
_cell_length_b 7.738946
_cell_length_c 26.316001
_cell_angle_alpha 90.000000
_cell_angle_beta 90.000000
_cell_angle_gamma 90.000000
_cell_volume 4028.191855
_symmetry_space_group_name_H-M "I M M M"
_symmetry_group_IT_number 71
_symmetry_cell_setting 'orthorhombic'
loop_
_space_group_symop_operation_xyz
x,y,z
-x,-y,z
x,-y,-z
-x,y,-z
-x,-y,-z
x,y,-z
-x,y,z
x,-y,z
1/2+x,1/2+y,1/2+z
1/2-x,1/2-y,1/2+z
1/2+x,1/2-y,1/2-z
1/2-x,1/2+y,1/2-z
1/2-x,1/2-y,1/2-z
1/2+x,1/2+y,1/2-z
1/2-x,1/2+y,1/2+z
1/2+x,1/2-y,1/2+z
loop_
_atom_site_type_symbol
_atom_site_label
_atom_site_fract_x
_atom_site_fract_y
_atom_site_fract_z
Si Si1 0.922564 0.793786 0.685757
Si Si2 0.315006 0.288820 0.898481
Si Si3 0.159759 0.707779 0.102633
Si Si4 0.577052 0.791288 0.699567
Si Si5 0.889910 0.307233 0.500000
Si Si6 0.500000 0.500000 0.000000
Si Si7 0.577719 0.705427 0.500000
O O1 0.865857 0.731579 0.646466
O O2 0.901306 0.759367 0.743749
O O3 0.000000 0.725769 0.678233
O O4 0.926938 0.000000 0.678699
O O5 0.316001 0.500000 0.899644
O O6 0.237230 0.232309 0.894984
O O7 0.344720 0.217648 0.950380
O O8 0.161880 0.500000 0.106096
O O9 0.120714 0.773306 0.152484
O O10 0.119484 0.746206 0.050702
O O11 0.500000 0.730391 0.693587
O O12 0.576844 0.000000 0.697906
O O13 0.919404 0.500000 0.500000
O O14 0.942464 0.151939 0.500000
O O15 0.572513 0.500000 0.500000
O O16 0.500000 0.775572 0.500000
#
# Coordination Sequence:
#
# PCOD9523280 Si02
#       7
#    16  16  16  16   8   2   8
#     4   9  19  34  56  80 111 157 202 243 305 362
#     4  10  21  39  60  85 124 164 199 255 308 363
#     4  10  21  37  60  85 115 160 200 238 306 368
#     4   9  18  34  54  80 114 151 200 262 304 350
#     4  12  26  42  67  96 123 165 211 251 319 372
#     4  12  26  48  68  90 132 164 196 280 300 368
#     4  11  24  39  57  85 115 147 187 245 303 356
#
# _framework density 20.356527
#
# number of rings (size 3 to 8) (size 9 to 14) (size 15 to 20)
#    0.000    2.049    0.976    1.610    1.366    7.024 
#    0.000    1.951    0.000    0.000    0.000    0.000 
#    0.000    0.000    0.000    0.000    0.000    0.000 
#
# Total GULP energy -228629.820605 kJ/mol
# GULP energy per Si atom -5576.337088 kJ/mol
# Density = 2.031020 g / cm^3
# Si number density = 20.356527 Si / 1000 Ang^3
#
#
#
# Elastic Constant Matrix: (Units=GPa)
#
#
# Indices 1 2 3 4 5 6 
#
# 1 176.7241 27.3888 146.6015 0.0000 0.0000 0.0000
# 2 27.3888 58.8177 12.5937 0.0000 0.0000 0.0000
# 3 146.6015 12.5937 214.9185 0.0000 0.0000 0.0000
# 4 0.0000 0.0000 0.0000 28.4726 0.0000 0.0000
# 5 0.0000 0.0000 0.0000 0.0000 368.2937 0.0000
# 6 0.0000 0.0000 0.0000 0.0000 0.0000 38.8677
#
#
#
# Elastic Compliance Matrix: (Units=1/GPa)
#
#
# Indices 1 2 3 4 5 6 
#
# 1 0.014156 -0.004582 -0.009388 0.000000 0.000000 0.000000
# 2 -0.004582 0.018701 0.002030 0.000000 0.000000 0.000000
# 3 -0.009388 0.002030 0.010938 0.000000 0.000000 0.000000
# 4 0.000000 0.000000 0.000000 0.035122 0.000000 0.000000
# 5 0.000000 0.000000 0.000000 0.000000 0.002715 0.000000
# 6 0.000000 0.000000 0.000000 0.000000 0.000000 0.025728
#
#
# Mechanical properties :
#
#
# Convention : Reuss Voigt Hill
#
# Bulk Modulus (GPa) = 50.21495 91.51425 70.86460
# Shear Modulus (GPa) = 36.26372 104.71853 70.49113
#
# Velocity S-wave (km/s) = 4.22528 7.18011 5.89096
# Velocity P-wave (km/s) = 6.96601 10.66733 9.00880
#
# Compressibility (1/GPa) = 0.01991439
#
# Stress axis : x y z
#
# Youngs Moduli (GPa) = 70.63901 53.47387 91.42598
#
# Poissons Ratio (x) = 0.24501 0.85831
# Poissons Ratio (y) = 0.32366 -0.18556
# Poissons Ratio (z) = 0.66316 -0.10853
#
# Static dielectric constant tensor:
#      x y z
#    x 1.723160 0.000000 0.000000 
#    y 0.000000 1.743890 0.000000 
#    z 0.000000 0.000000 1.699910 
# 
# From -- ./inp_files/61068.got.cif
#   From: 2010.05.17/outbox.cif.g08.bks.cpg/sg71_31_cif.got.tgz:61068.got - 2010.06.03 16:22:01.
