data_PCOD9523367
_publ_section_title
;
Structure prediction by ZEFSAII (Michael W. Deem and Ramdas Pophale) SiO2 
 PCOD9523367
Probable space group: I M M M
;
_chemical_formula_sum "Si O2"
_cell_formula_units_Z 72
_cell_length_a 27.332928
_cell_length_b 13.925571
_cell_length_c 8.833508
_cell_angle_alpha 90.000000
_cell_angle_beta 90.000000
_cell_angle_gamma 90.000000
_cell_volume 3362.268377
_symmetry_space_group_name_H-M "I M M M"
_symmetry_group_IT_number 71
_symmetry_cell_setting 'orthorhombic'
loop_
_space_group_symop_operation_xyz
x,y,z
-x,-y,z
x,-y,-z
-x,y,-z
-x,-y,-z
x,y,-z
-x,y,z
x,-y,z
1/2+x,1/2+y,1/2+z
1/2-x,1/2-y,1/2+z
1/2+x,1/2-y,1/2-z
1/2-x,1/2+y,1/2-z
1/2-x,1/2-y,1/2-z
1/2+x,1/2+y,1/2-z
1/2-x,1/2+y,1/2+z
1/2+x,1/2-y,1/2+z
loop_
_atom_site_type_symbol
_atom_site_label
_atom_site_fract_x
_atom_site_fract_y
_atom_site_fract_z
Si Si1 0.390731 0.113886 0.182750
Si Si2 0.500000 0.882752 0.177066
Si Si3 0.802477 0.737385 0.827489
Si Si4 0.147233 0.886104 0.335493
Si Si5 0.445147 0.382918 0.329924
O O1 0.445713 0.144058 0.239296
O O2 0.344136 0.170664 0.249894
O O3 0.385312 0.000000 0.216104
O O4 0.390482 0.124067 0.000000
O O5 0.500000 0.000000 0.179838
O O6 0.500000 0.854092 0.000000
O O7 0.750000 0.750000 0.750000
O O8 0.824097 0.843582 0.804562
O O9 0.796873 0.707872 0.000000
O O10 0.163793 0.849580 0.500000
O O11 0.091582 0.856892 0.302562
O O12 0.150653 0.000000 0.337463
O O13 0.430092 0.352341 0.500000
O O14 0.500000 0.349456 0.302412
O O15 0.445934 0.500000 0.333196
#
# Coordination Sequence:
#
# PCOD9523367 Si02
#       5
#    16   8  16  16  16
#     4   9  18  37  66  97 128 162 201 248 305 368
#     4   7  12  28  59  95 126 157 194 239 295 362
#     4  12  26  43  62  85 118 159 204 256 307 365
#     4  10  21  38  60  85 114 150 196 247 296 350
#     4   8  14  27  49  77 110 147 185 227 277 333
#
# _framework density 21.414113
#
# number of rings (size 3 to 8) (size 9 to 14) (size 15 to 20)
#    0.000    2.556    0.000    4.667    0.000    3.111 
#    2.000    2.778    0.000    2.000    0.000    0.000 
#    0.000    0.000    0.000    0.000    0.000    0.000 
#
# Total GULP energy -200633.502743 kJ/mol
# GULP energy per Si atom -5573.152854 kJ/mol
# Density = 2.136537 g / cm^3
# Si number density = 21.414113 Si / 1000 Ang^3
#
#
#
# Elastic Constant Matrix: (Units=GPa)
#
#
# Indices 1 2 3 4 5 6 
#
# 1 171.0599 43.4043 57.7436 0.0000 0.0000 0.0000
# 2 43.4043 68.0580 14.8273 0.0000 0.0000 0.0000
# 3 57.7436 14.8273 64.3411 0.0000 0.0000 0.0000
# 4 0.0000 0.0000 0.0000 21.4729 0.0000 0.0000
# 5 0.0000 0.0000 0.0000 0.0000 31.1960 0.0000
# 6 0.0000 0.0000 0.0000 0.0000 0.0000 25.4107
#
#
#
# Elastic Compliance Matrix: (Units=1/GPa)
#
#
# Indices 1 2 3 4 5 6 
#
# 1 0.009504 -0.004425 -0.007509 0.000000 0.000000 0.000000
# 2 -0.004425 0.017530 -0.000069 0.000000 0.000000 0.000000
# 3 -0.007509 -0.000069 0.022297 0.000000 0.000000 0.000000
# 4 0.000000 0.000000 0.000000 0.046570 0.000000 0.000000
# 5 0.000000 0.000000 0.000000 0.000000 0.032055 0.000000
# 6 0.000000 0.000000 0.000000 0.000000 0.000000 0.039354
#
#
# Mechanical properties :
#
#
# Convention : Reuss Voigt Hill
#
# Bulk Modulus (GPa) = 39.48613 59.48996 49.48804
# Shear Modulus (GPa) = 25.03027 28.11483 26.57255
#
# Velocity S-wave (km/s) = 3.42258 3.62734 3.52645
# Velocity P-wave (km/s) = 5.83936 6.73680 6.30407
#
# Compressibility (1/GPa) = 0.02532535
#
# Stress axis : x y z
#
# Youngs Moduli (GPa) = 105.22379 57.04404 44.84845
#
# Poissons Ratio (x) = 0.25242 0.33678
# Poissons Ratio (y) = 0.46561 0.00308
# Poissons Ratio (z) = 0.79016 0.00392
#
# Static dielectric constant tensor:
#      x y z
#    x 1.890900 0.000000 0.000000 
#    y 0.000000 1.830860 0.000000 
#    z 0.000000 0.000000 1.786470 
# 
# From -- ./inp_files/6490.got.cif
#   From: 2010.05.17/outbox.cif.g08.bks.cpg/sg71_4_cif.got.tgz:6490.got - 2010.06.03 16:22:01.
