data_PCOD9523213
_publ_section_title
;
Structure prediction by ZEFSAII (Michael W. Deem and Ramdas Pophale) SiO2 
 PCOD9523213
Probable space group: I M M M
;
_chemical_formula_sum "Si O2"
_cell_formula_units_Z 80
_cell_length_a 23.427809
_cell_length_b 7.762497
_cell_length_c 23.585547
_cell_angle_alpha 90.000000
_cell_angle_beta 90.000000
_cell_angle_gamma 90.000000
_cell_volume 4289.227413
_symmetry_space_group_name_H-M "I M M M"
_symmetry_group_IT_number 71
_symmetry_cell_setting 'orthorhombic'
loop_
_space_group_symop_operation_xyz
x,y,z
-x,-y,z
x,-y,-z
-x,y,-z
-x,-y,-z
x,y,-z
-x,y,z
x,-y,z
1/2+x,1/2+y,1/2+z
1/2-x,1/2-y,1/2+z
1/2+x,1/2-y,1/2-z
1/2-x,1/2+y,1/2-z
1/2-x,1/2-y,1/2-z
1/2+x,1/2+y,1/2-z
1/2-x,1/2+y,1/2+z
1/2+x,1/2-y,1/2+z
loop_
_atom_site_type_symbol
_atom_site_label
_atom_site_fract_x
_atom_site_fract_y
_atom_site_fract_z
Si Si1 0.661973 0.500000 0.064913
Si Si2 0.935215 0.000000 0.658292
Si Si3 0.846375 0.690901 0.151669
Si Si4 0.565748 0.792566 0.252333
Si Si5 0.747895 0.694624 0.564809
Si Si6 0.433209 0.701343 0.565638
O O1 0.611478 0.500000 0.109611
O O2 0.702910 0.665385 0.072115
O O3 0.640972 0.500000 0.000000
O O4 0.929234 0.830264 0.697922
O O5 0.000000 0.000000 0.635853
O O6 0.824736 0.500000 0.166135
O O7 0.882322 0.758838 0.205515
O O8 0.797046 0.785753 0.116252
O O9 0.896237 0.682855 0.105384
O O10 0.500000 0.764289 0.274586
O O11 0.570419 0.000000 0.242270
O O12 0.723375 0.721614 0.500000
O O13 0.769948 0.500000 0.565881
O O14 0.422469 0.736173 0.500000
O O15 0.500000 0.722498 0.575940
O O16 0.418740 0.500000 0.576312
#
# Coordination Sequence:
#
# PCOD9523213 Si02
#       6
#     8   8  16  16  16  16
#     4  10  22  43  66  92 121 143 183 239 290 358
#     4  10  22  41  68  94 115 149 185 227 300 360
#     4  11  20  31  51  76 111 151 204 244 284 329
#     4   9  20  37  56  83 120 158 198 242 286 341
#     4  10  21  37  58  83 117 161 199 239 292 342
#     4   9  18  29  40  62  98 141 193 252 300 334
#
# _framework density 18.651375999999999
#
# number of rings (size 3 to 8) (size 9 to 14) (size 15 to 20)
#    0.000    2.200    1.000    2.400    2.800    5.000 
#    0.000    2.000    0.000    0.000    0.000    5.600 
#    0.000    0.000    0.000    0.000    0.000    0.000 
#
# Total GULP energy -222857.129075 kJ/mol
# GULP energy per Si atom -5571.428227 kJ/mol
# Density = 1.860892 g / cm^3
# Si number density = 18.651376 Si / 1000 Ang^3
#
#
#
# Elastic Constant Matrix: (Units=GPa)
#
#
# Indices 1 2 3 4 5 6 
#
# 1 90.9055 52.5014 71.2831 0.0000 0.0000 0.0000
# 2 52.5014 86.1482 41.8740 0.0000 0.0000 0.0000
# 3 71.2831 41.8740 89.8947 0.0000 0.0000 0.0000
# 4 0.0000 0.0000 0.0000 13.5030 0.0000 0.0000
# 5 0.0000 0.0000 0.0000 0.0000 40.6926 0.0000
# 6 0.0000 0.0000 0.0000 0.0000 0.0000 -11.1847
#
#
#
# Elastic Compliance Matrix: (Units=1/GPa)
#
#
# Indices 1 2 3 4 5 6 
#
# 1 0.034730 -0.010056 -0.022856 0.000000 0.000000 0.000000
# 2 -0.010056 0.017917 -0.000372 0.000000 0.000000 0.000000
# 3 -0.022856 -0.000372 0.029421 0.000000 0.000000 0.000000
# 4 0.000000 0.000000 0.000000 0.074058 0.000000 0.000000
# 5 0.000000 0.000000 0.000000 0.000000 0.024574 0.000000
# 6 0.000000 0.000000 0.000000 0.000000 0.000000 -0.089408
#
#
# Mechanical properties :
#
#
# Convention : Reuss Voigt Hill
#
# Bulk Modulus (GPa) = 64.51102 66.47394 65.49248
# Shear Modulus (GPa) = 30.66974 15.35485 23.01229
#
# Velocity S-wave (km/s) = 4.05948 2.87236 3.51638
# Velocity P-wave (km/s) = 7.52565 6.83507 7.18866
#
# Compressibility (1/GPa) = 0.01550123
#
# Stress axis : x y z
#
# Youngs Moduli (GPa) = 28.79319 55.81208 33.98949
#
# Poissons Ratio (x) = 0.56127 0.77685
# Poissons Ratio (y) = 0.28956 0.01263
# Poissons Ratio (z) = 0.65808 0.02075
#
# Static dielectric constant tensor:
#      x y z
#    x 1.646950 0.000000 0.000000 
#    y 0.000000 1.702430 0.000000 
#    z 0.000000 0.000000 1.655250 
# 
# From -- ./inp_files/55469.got.cif
#   From: 2010.05.17/outbox.cif.g08.bks.cpg/sg71_28_cif.got.tgz:55469.got - 2010.06.03 16:22:01.
