data_PCOD9523329
_publ_section_title
;
Structure prediction by ZEFSAII (Michael W. Deem and Ramdas Pophale) SiO2 
 PCOD9523329
Probable space group: I M M M
;
_chemical_formula_sum "Si O2"
_cell_formula_units_Z 80
_cell_length_a 19.457810
_cell_length_b 7.868328
_cell_length_c 26.601861
_cell_angle_alpha 90.000000
_cell_angle_beta 90.000000
_cell_angle_gamma 90.000000
_cell_volume 4072.756391
_symmetry_space_group_name_H-M "I M M M"
_symmetry_group_IT_number 71
_symmetry_cell_setting 'orthorhombic'
loop_
_space_group_symop_operation_xyz
x,y,z
-x,-y,z
x,-y,-z
-x,y,-z
-x,-y,-z
x,y,-z
-x,y,z
x,-y,z
1/2+x,1/2+y,1/2+z
1/2-x,1/2-y,1/2+z
1/2+x,1/2-y,1/2-z
1/2-x,1/2+y,1/2-z
1/2-x,1/2-y,1/2-z
1/2+x,1/2+y,1/2-z
1/2-x,1/2+y,1/2+z
1/2+x,1/2-y,1/2+z
loop_
_atom_site_type_symbol
_atom_site_label
_atom_site_fract_x
_atom_site_fract_y
_atom_site_fract_z
Si Si1 0.578229 0.793973 0.850887
Si Si2 0.323654 0.801645 0.060286
Si Si3 0.829431 0.296143 0.743355
Si Si4 0.423063 0.688168 0.665924
Si Si5 0.771592 0.500000 0.057835
Si Si6 0.076163 0.500000 0.910401
O O1 0.500000 0.730903 0.844462
O O2 0.610593 0.756624 0.905530
O O3 0.631755 0.737680 0.807591
O O4 0.575191 0.000000 0.847383
O O5 0.263515 0.672613 0.077649
O O6 0.305844 0.000000 0.070126
O O7 0.336052 0.788342 0.000000
O O8 0.835547 0.500000 0.745346
O O9 0.750000 0.250000 0.750000
O O10 0.869479 0.219443 0.790420
O O11 0.500000 0.698354 0.688237
O O12 0.414245 0.500000 0.643855
O O13 0.419488 0.834149 0.624687
O O14 0.853344 0.500000 0.059645
O O15 0.751361 0.500000 0.000000
O O16 0.000000 0.500000 0.934763
#
# Coordination Sequence:
#
# PCOD9523329 Si02
#       6
#    16  16  16  16   8   8
#     4   9  19  35  56  82 113 152 195 241 292 343
#     4   9  19  37  61  87 115 151 192 235 290 348
#     4  11  22  35  54  81 115 155 196 241 288 341
#     4  10  21  38  58  81 112 150 191 234 282 342
#     4  10  22  39  61  88 120 149 185 241 291 346
#     4  10  22  39  62  87 113 154 195 235 289 342
#
# _framework density 19.642717999999999
#
# number of rings (size 3 to 8) (size 9 to 14) (size 15 to 20)
#    0.000    2.200    1.000    1.200    2.800    2.200 
#    1.800    2.500    0.000    1.800    0.000    5.600 
#    0.000    0.000    0.000    0.000    0.000    0.000 
#
# Total GULP energy -223003.785725 kJ/mol
# GULP energy per Si atom -5575.094643 kJ/mol
# Density = 1.959801 g / cm^3
# Si number density = 19.642718 Si / 1000 Ang^3
#
#
#
# Elastic Constant Matrix: (Units=GPa)
#
#
# Indices 1 2 3 4 5 6 
#
# 1 143.3681 45.5552 35.9047 0.0000 0.0000 0.0000
# 2 45.5552 97.4173 27.9360 0.0000 0.0000 0.0000
# 3 35.9047 27.9360 37.0084 0.0000 0.0000 0.0000
# 4 0.0000 0.0000 0.0000 -10.0356 0.0000 0.0000
# 5 0.0000 0.0000 0.0000 0.0000 33.6893 0.0000
# 6 0.0000 0.0000 0.0000 0.0000 0.0000 29.5453
#
#
#
# Elastic Compliance Matrix: (Units=1/GPa)
#
#
# Indices 1 2 3 4 5 6 
#
# 1 0.009609 -0.002323 -0.007569 0.000000 0.000000 0.000000
# 2 -0.002323 0.013663 -0.008060 0.000000 0.000000 0.000000
# 3 -0.007569 -0.008060 0.040448 0.000000 0.000000 0.000000
# 4 0.000000 0.000000 0.000000 -0.099645 0.000000 0.000000
# 5 0.000000 0.000000 0.000000 0.000000 0.029683 0.000000
# 6 0.000000 0.000000 0.000000 0.000000 0.000000 0.033846
#
#
# Mechanical properties :
#
#
# Convention : Reuss Voigt Hill
#
# Bulk Modulus (GPa) = 35.94984 55.17619 45.56302
# Shear Modulus (GPa) = 68.70213 21.86631 45.28422
#
# Velocity S-wave (km/s) = 5.92046 3.34009 4.80666
# Velocity P-wave (km/s) = 8.06705 6.55940 7.35198
#
# Compressibility (1/GPa) = 0.02781653
#
# Stress axis : x y z
#
# Youngs Moduli (GPa) = 104.07336 73.19255 24.72325
#
# Poissons Ratio (x) = 0.17001 0.18712
# Poissons Ratio (y) = 0.24174 0.19926
# Poissons Ratio (z) = 0.78770 0.58991
#
# Static dielectric constant tensor:
#      x y z
#    x 1.704910 0.000000 0.000000 
#    y 0.000000 1.741700 0.000000 
#    z 0.000000 0.000000 1.663090 
# 
# From -- ./inp_files/48614.got.cif
#   From: 2010.05.17/outbox.cif.g08.bks.cpg/sg71_25_cif.got.tgz:48614.got - 2010.06.03 16:22:01.
