data_PCOD9523320
_publ_section_title
;
Structure prediction by ZEFSAII (Michael W. Deem and Ramdas Pophale) SiO2 
 PCOD9523320
Probable space group: I M M M
;
_chemical_formula_sum "Si O2"
_cell_formula_units_Z 72
_cell_length_a 28.690030
_cell_length_b 14.004049
_cell_length_c 10.115104
_cell_angle_alpha 90.000000
_cell_angle_beta 90.000000
_cell_angle_gamma 90.000000
_cell_volume 4064.011951
_symmetry_space_group_name_H-M "I M M M"
_symmetry_group_IT_number 71
_symmetry_cell_setting 'orthorhombic'
loop_
_space_group_symop_operation_xyz
x,y,z
-x,-y,z
x,-y,-z
-x,y,-z
-x,-y,-z
x,y,-z
-x,y,z
x,-y,z
1/2+x,1/2+y,1/2+z
1/2-x,1/2-y,1/2+z
1/2+x,1/2-y,1/2-z
1/2-x,1/2+y,1/2-z
1/2-x,1/2-y,1/2-z
1/2+x,1/2+y,1/2-z
1/2-x,1/2+y,1/2+z
1/2+x,1/2-y,1/2+z
loop_
_atom_site_type_symbol
_atom_site_label
_atom_site_fract_x
_atom_site_fract_y
_atom_site_fract_z
Si Si1 0.772578 0.000000 0.500000
Si Si2 0.849541 0.711372 0.223428
Si Si3 0.555235 0.000000 0.853927
Si Si4 0.807113 0.500000 0.773412
Si Si5 0.247482 0.500000 0.500000
Si Si6 0.682739 0.707590 0.000000
Si Si7 0.285391 0.703725 0.500000
Si Si8 0.553405 0.830331 0.650571
O O1 0.736276 0.000000 0.623773
O O2 0.805043 0.094559 0.500000
O O3 0.836911 0.597707 0.212554
O O4 0.843081 0.752913 0.369951
O O5 0.812047 0.760351 0.128654
O O6 0.901244 0.734619 0.169052
O O7 0.563058 0.091589 0.763323
O O8 0.500000 0.000000 0.872966
O O9 0.577848 0.000000 0.000000
O O10 0.785069 0.500000 0.628261
O O11 0.279815 0.591573 0.500000
O O12 0.733589 0.755154 0.000000
O O13 0.555026 0.869358 0.500000
O O14 0.500000 0.794183 0.668333
#
# Coordination Sequence:
#
# PCOD9523320 Si02
#       8
#     4  16   8   8   4   8   8  16
#     4  12  24  38  60  84 116 162 192 240 294 356
#     4  12  23  38  60  89 120 159 199 242 292 351
#     4   9  18  32  54  82 117 155 195 241 286 343
#     4  12  21  35  58  85 120 157 202 226 284 353
#     4  12  24  38  60  82 114 160 190 246 298 334
#     4  12  24  40  59  86 121 154 198 249 295 351
#     4  12  22  42  59  84 117 154 200 243 289 353
#     4  10  21  38  57  81 116 158 200 242 292 353
#
# _framework density 17.716483
#
# number of rings (size 3 to 8) (size 9 to 14) (size 15 to 20)
#    0.000    0.778    5.556    3.000    1.556    1.333 
#    2.000    0.000    0.000    0.000    0.000    4.667 
#    0.000    0.000    0.000    0.000    0.000    0.000 
#
# Total GULP energy -200791.520625 kJ/mol
# GULP energy per Si atom -5577.542240 kJ/mol
# Density = 1.767616 g / cm^3
# Si number density = 17.716483 Si / 1000 Ang^3
#
#
#
# Elastic Constant Matrix: (Units=GPa)
#
#
# Indices 1 2 3 4 5 6 
#
# 1 104.0671 26.0254 25.3872 0.0000 0.0000 0.0000
# 2 26.0254 107.0459 6.3225 0.0000 0.0000 0.0000
# 3 25.3872 6.3225 103.7781 0.0000 0.0000 0.0000
# 4 0.0000 0.0000 0.0000 16.1815 0.0000 0.0000
# 5 0.0000 0.0000 0.0000 0.0000 30.5808 0.0000
# 6 0.0000 0.0000 0.0000 0.0000 0.0000 30.1278
#
#
#
# Elastic Compliance Matrix: (Units=1/GPa)
#
#
# Indices 1 2 3 4 5 6 
#
# 1 0.010841 -0.002488 -0.002501 0.000000 0.000000 0.000000
# 2 -0.002488 0.009947 0.000003 0.000000 0.000000 0.000000
# 3 -0.002501 0.000003 0.010247 0.000000 0.000000 0.000000
# 4 0.000000 0.000000 0.000000 0.061799 0.000000 0.000000
# 5 0.000000 0.000000 0.000000 0.000000 0.032700 0.000000
# 6 0.000000 0.000000 0.000000 0.000000 0.000000 0.033192
#
#
# Mechanical properties :
#
#
# Convention : Reuss Voigt Hill
#
# Bulk Modulus (GPa) = 47.47546 47.81792 47.64669
# Shear Modulus (GPa) = 28.45439 32.52176 30.48808
#
# Velocity S-wave (km/s) = 4.01196 4.28913 4.15286
# Velocity P-wave (km/s) = 6.95102 7.18179 7.06734
#
# Compressibility (1/GPa) = 0.02106351
#
# Stress axis : x y z
#
# Youngs Moduli (GPa) = 92.23872 100.53739 97.58489
#
# Poissons Ratio (x) = 0.25015 0.24402
# Poissons Ratio (y) = 0.22950 -0.00026
# Poissons Ratio (z) = 0.23065 -0.00027
#
# Static dielectric constant tensor:
#      x y z
#    x 1.623400 0.000000 0.000000 
#    y 0.000000 1.711770 0.000000 
#    z 0.000000 0.000000 1.649550 
# 
# From -- ./inp_files/14423.got.cif
#   From: 2010.05.17/outbox.cif.g08.bks.cpg/sg71_8_cif.got.tgz:14423.got - 2010.06.03 16:22:01.
