data_PCOD9523899
_publ_section_title
;
Structure prediction by ZEFSAII (Michael W. Deem and Ramdas Pophale) SiO2 
 PCOD9523899
Probable space group: I M M M
;
_chemical_formula_sum "Si O2"
_cell_formula_units_Z 50
_cell_length_a 10.297936
_cell_length_b 29.561001
_cell_length_c 8.876953
_cell_angle_alpha 90.000000
_cell_angle_beta 90.000000
_cell_angle_gamma 90.000000
_cell_volume 2702.298032
_symmetry_space_group_name_H-M "I M M M"
_symmetry_group_IT_number 71
_symmetry_cell_setting 'orthorhombic'
loop_
_space_group_symop_operation_xyz
x,y,z
-x,-y,z
x,-y,-z
-x,y,-z
-x,-y,-z
x,y,-z
-x,y,z
x,-y,z
1/2+x,1/2+y,1/2+z
1/2-x,1/2-y,1/2+z
1/2+x,1/2-y,1/2-z
1/2-x,1/2+y,1/2-z
1/2-x,1/2-y,1/2-z
1/2+x,1/2+y,1/2-z
1/2-x,1/2+y,1/2+z
1/2+x,1/2-y,1/2+z
loop_
_atom_site_type_symbol
_atom_site_label
_atom_site_fract_x
_atom_site_fract_y
_atom_site_fract_z
Si Si1 0.500000 0.500000 0.000000
Si Si2 0.146419 0.283890 0.681133
Si Si3 0.500000 0.053211 0.680911
Si Si4 0.773580 0.613506 0.319361
Si Si5 0.500000 0.593758 0.166832
O O1 0.500000 0.459602 0.871548
O O2 0.150583 0.280440 0.500000
O O3 0.250000 0.250000 0.750000
O O4 0.179005 0.335871 0.719200
O O5 0.000000 0.273224 0.731768
O O6 0.500000 0.057331 0.500000
O O7 0.373443 0.077920 0.747018
O O8 0.500000 0.000000 0.718520
O O9 0.775763 0.608795 0.500000
O O10 0.629808 0.606317 0.255376
O O11 0.500000 0.616347 0.000000
#
# Coordination Sequence:
#
# PCOD9523899 Si02
#       5
#     2  16   8  16   8
#     4   8  24  44  62  86 140 164 210 270 316 372
#     4  10  23  43  64  91 129 164 207 261 316 376
#     4  11  25  41  64  93 129 167 210 261 319 378
#     4  11  23  43  65  93 127 166 213 266 315 378
#     4  10  23  41  64  88 127 166 209 258 315 371
#
# _framework density 18.502770000000002
#
# number of rings (size 3 to 8) (size 9 to 14) (size 15 to 20)
#    0.480    1.120    1.600    1.920    4.480    4.480 
#    0.000    0.800    0.000    0.000    0.000    0.000 
#    0.000    0.000    0.000    0.000    0.000    0.000 
#
# Total GULP energy -139367.488110 kJ/mol
# GULP energy per Si atom -5574.699524 kJ/mol
# Density = 1.846066 g / cm^3
# Si number density = 18.502770 Si / 1000 Ang^3
#
#
#
# Elastic Constant Matrix: (Units=GPa)
#
#
# Indices 1 2 3 4 5 6 
#
# 1 213.4797 99.8615 64.1599 0.0001 0.0000 0.0000
# 2 99.8615 144.9981 65.2179 0.0001 0.0000 0.0000
# 3 64.1599 65.2179 65.7564 0.0013 0.0000 0.0004
# 4 0.0001 0.0001 0.0013 37.2551 0.0001 0.0001
# 5 0.0000 0.0000 0.0000 0.0001 30.9904 0.0003
# 6 0.0000 0.0000 0.0004 0.0001 0.0003 22.4608
#
#
#
# Elastic Compliance Matrix: (Units=1/GPa)
#
#
# Indices 1 2 3 4 5 6 
#
# 1 0.007433 -0.003353 -0.003927 0.000000 0.000000 0.000000
# 2 -0.003353 0.013963 -0.010578 0.000000 0.000000 0.000000
# 3 -0.003927 -0.010578 0.029531 -0.000001 0.000000 -0.000001
# 4 0.000000 0.000000 -0.000001 0.026842 0.000000 0.000000
# 5 0.000000 0.000000 0.000000 0.000000 0.032268 0.000000
# 6 0.000000 0.000000 -0.000001 0.000000 0.000000 0.044522
#
#
# Mechanical properties :
#
#
# Convention : Reuss Voigt Hill
#
# Bulk Modulus (GPa) = 65.73915 98.07920 81.90918
# Shear Modulus (GPa) = 25.59578 31.14091 28.36834
#
# Velocity S-wave (km/s) = 3.72337 4.10694 3.91985
# Velocity P-wave (km/s) = 7.35467 8.69553 8.05305
#
# Compressibility (1/GPa) = 0.01521164
#
# Stress axis : x y z
#
# Youngs Moduli (GPa) = 134.53665 71.61594 33.86323
#
# Poissons Ratio (x) = 0.24011 0.13299
# Poissons Ratio (y) = 0.45107 0.35819
# Poissons Ratio (z) = 0.52835 0.75753
#
# Static dielectric constant tensor:
#      x y z
#    x 1.614400 0.000000 0.000000 
#    y 0.000000 1.609330 0.000000 
#    z 0.000000 0.000000 1.629290 
# 
# From -- ./inp_files/2220.got.cif
#   From: 2010.05.17/outbox.cif.g08.bks.cpg/sg71_2_cif.got.tgz:2220.got - 2010.06.03 16:22:01.
