data_PCOD9523312
_publ_section_title
;
Structure prediction by ZEFSAII (Michael W. Deem and Ramdas Pophale) SiO2 
 PCOD9523312
Probable space group: I M M M
;
_chemical_formula_sum "Si O2"
_cell_formula_units_Z 72
_cell_length_a 20.515138
_cell_length_b 24.054477
_cell_length_c 7.687722
_cell_angle_alpha 90.000000
_cell_angle_beta 90.000000
_cell_angle_gamma 90.000000
_cell_volume 3793.744088
_symmetry_space_group_name_H-M "I M M M"
_symmetry_group_IT_number 71
_symmetry_cell_setting 'orthorhombic'
loop_
_space_group_symop_operation_xyz
x,y,z
-x,-y,z
x,-y,-z
-x,y,-z
-x,-y,-z
x,y,-z
-x,y,z
x,-y,z
1/2+x,1/2+y,1/2+z
1/2-x,1/2-y,1/2+z
1/2+x,1/2-y,1/2-z
1/2-x,1/2+y,1/2-z
1/2-x,1/2-y,1/2-z
1/2+x,1/2+y,1/2-z
1/2-x,1/2+y,1/2+z
1/2+x,1/2-y,1/2+z
loop_
_atom_site_type_symbol
_atom_site_label
_atom_site_fract_x
_atom_site_fract_y
_atom_site_fract_z
Si Si1 0.925429 0.847661 0.293037
Si Si2 0.076967 0.561437 0.000000
Si Si3 0.603687 0.435229 0.500000
Si Si4 0.861014 0.371017 0.303634
Si Si5 0.259552 0.064976 0.000000
Si Si6 0.673421 0.250795 0.208308
O O1 0.915571 0.859417 0.500000
O O2 0.871150 0.802477 0.233458
O O3 0.000000 0.826007 0.275053
O O4 0.919219 0.901475 0.170467
O O5 0.099123 0.593078 0.828925
O O6 0.106269 0.500000 0.000000
O O7 0.000000 0.557937 0.000000
O O8 0.583791 0.500000 0.500000
O O9 0.682354 0.433255 0.500000
O O10 0.889551 0.369341 0.500000
O O11 0.791309 0.401362 0.338435
O O12 0.853438 0.308888 0.233746
O O13 0.280423 0.000000 0.000000
O O14 0.750000 0.250000 0.250000
O O15 0.668342 0.250875 0.000000
#
# Coordination Sequence:
#
# PCOD9523312 Si02
#       6
#    16   8   8  16   8  16
#     4  10  23  41  61  89 126 164 201 251 311 368
#     4  11  24  39  58  86 118 160 214 257 300 364
#     4  11  23  41  64  92 121 159 211 253 299 369
#     4   9  21  38  59  86 119 159 196 249 311 366
#     4   9  18  37  60  84 120 156 195 250 306 357
#     4  10  21  37  62  93 122 157 202 253 307 366
#
# _framework density 18.978614
#
# number of rings (size 3 to 8) (size 9 to 14) (size 15 to 20)
#    0.667    1.444    0.000    2.333    3.111    2.667 
#    2.000    4.444    0.000    0.000    0.000    0.000 
#    0.000    0.000    0.000    0.000    0.000    0.000 
#
# Total GULP energy -200629.771253 kJ/mol
# GULP energy per Si atom -5573.049201 kJ/mol
# Density = 1.893542 g / cm^3
# Si number density = 18.978614 Si / 1000 Ang^3
#
#
#
# Elastic Constant Matrix: (Units=GPa)
#
#
# Indices 1 2 3 4 5 6 
#
# 1 92.7895 53.2822 33.9387 0.0000 0.0000 0.0000
# 2 53.2822 166.6330 57.8045 0.0000 0.0000 0.0000
# 3 33.9387 57.8045 78.5033 0.0000 0.0000 0.0000
# 4 0.0000 0.0000 0.0000 126.0705 0.0000 0.0000
# 5 0.0000 0.0000 0.0000 0.0000 64.2982 0.0000
# 6 0.0000 0.0000 0.0000 0.0000 0.0000 27.2358
#
#
#
# Elastic Compliance Matrix: (Units=1/GPa)
#
#
# Indices 1 2 3 4 5 6 
#
# 1 0.013954 -0.003182 -0.003690 0.000000 0.000000 0.000000
# 2 -0.003182 0.008786 -0.005093 0.000000 0.000000 0.000000
# 3 -0.003690 -0.005093 0.018084 0.000000 0.000000 0.000000
# 4 0.000000 0.000000 0.000000 0.007932 0.000000 0.000000
# 5 0.000000 0.000000 0.000000 0.000000 0.015553 0.000000
# 6 0.000000 0.000000 0.000000 0.000000 0.000000 0.036716
#
#
# Mechanical properties :
#
#
# Convention : Reuss Voigt Hill
#
# Bulk Modulus (GPa) = 59.19517 69.77518 64.48517
# Shear Modulus (GPa) = 38.28921 56.38094 47.33507
#
# Velocity S-wave (km/s) = 4.49652 5.45638 4.99954
# Velocity P-wave (km/s) = 7.62997 8.74878 8.20846
#
# Compressibility (1/GPa) = 0.01689327
#
# Stress axis : x y z
#
# Youngs Moduli (GPa) = 71.66553 113.82304 55.29785
#
# Poissons Ratio (x) = 0.36218 0.20402
# Poissons Ratio (y) = 0.22803 0.28166
# Poissons Ratio (z) = 0.26441 0.57976
#
# Static dielectric constant tensor:
#      x y z
#    x 1.668820 0.000000 0.000000 
#    y 0.000000 1.671720 0.000000 
#    z 0.000000 0.000000 1.650550 
# 
# From -- ./inp_files/9976.got.cif
#   From: 2010.05.17/outbox.cif.g08.bks.cpg/sg71_5_cif.got.tgz:9976.got - 2010.06.03 16:22:01.
