data_PCOD9523302
_publ_section_title
;
Structure prediction by ZEFSAII (Michael W. Deem and Ramdas Pophale) SiO2 
 PCOD9523302
Probable space group: I M M M
;
_chemical_formula_sum "Si O2"
_cell_formula_units_Z 50
_cell_length_a 15.024211
_cell_length_b 17.727355
_cell_length_c 8.946583
_cell_angle_alpha 90.000000
_cell_angle_beta 90.000000
_cell_angle_gamma 90.000000
_cell_volume 2382.828640
_symmetry_space_group_name_H-M "I M M M"
_symmetry_group_IT_number 71
_symmetry_cell_setting 'orthorhombic'
loop_
_space_group_symop_operation_xyz
x,y,z
-x,-y,z
x,-y,-z
-x,y,-z
-x,-y,-z
x,y,-z
-x,y,z
x,-y,z
1/2+x,1/2+y,1/2+z
1/2-x,1/2-y,1/2+z
1/2+x,1/2-y,1/2-z
1/2-x,1/2+y,1/2-z
1/2-x,1/2-y,1/2-z
1/2+x,1/2+y,1/2-z
1/2-x,1/2+y,1/2+z
1/2+x,1/2-y,1/2+z
loop_
_atom_site_type_symbol
_atom_site_label
_atom_site_fract_x
_atom_site_fract_y
_atom_site_fract_z
Si Si1 0.180391 0.589905 0.669854
Si Si2 0.500000 0.500000 0.500000
Si Si3 0.500000 0.907631 0.673321
Si Si4 0.685796 0.312994 0.822831
Si Si5 0.500000 0.659135 0.334589
O O1 0.192657 0.618039 0.500000
O O2 0.173472 0.500000 0.661989
O O3 0.262698 0.611518 0.772729
O O4 0.088530 0.618490 0.741743
O O5 0.500000 0.568866 0.371899
O O6 0.500000 0.885873 0.500000
O O7 0.500000 0.000000 0.676788
O O8 0.750000 0.250000 0.750000
O O9 0.588316 0.316369 0.752025
O O10 0.682127 0.304926 0.000000
O O11 0.500000 0.695290 0.500000
#
# Coordination Sequence:
#
# PCOD9523302 Si02
#       5
#    16   2   8  16   8
#     4  10  21  37  61  89 125 168 217 271 338 411
#     4   8  24  44  82 104 144 186 232 292 368 416
#     4   9  17  32  53  85 121 155 199 255 309 373
#     4  12  26  44  66  97 133 177 227 284 348 419
#     4  10  23  46  72 103 138 181 230 284 353 418
#
# _framework density 20.983464999999999
#
# number of rings (size 3 to 8) (size 9 to 14) (size 15 to 20)
#    0.480    1.120    0.000    4.800    2.240    5.120 
#    0.000    7.200    0.000    0.000    0.000    0.000 
#    0.000    0.000    0.000    0.000    0.000    0.000 
#
# Total GULP energy -139420.608748 kJ/mol
# GULP energy per Si atom -5576.824350 kJ/mol
# Density = 2.093571 g / cm^3
# Si number density = 20.983465 Si / 1000 Ang^3
#
#
#
# Elastic Constant Matrix: (Units=GPa)
#
#
# Indices 1 2 3 4 5 6 
#
# 1 209.0314 33.3679 111.0666 0.0000 0.0000 0.0000
# 2 33.3679 65.0616 41.2915 0.0000 0.0000 0.0000
# 3 111.0666 41.2915 226.6841 0.0000 0.0000 0.0000
# 4 0.0000 0.0000 0.0000 23.8505 0.0000 0.0000
# 5 0.0000 0.0000 0.0000 0.0000 39.8162 0.0000
# 6 0.0000 0.0000 0.0000 0.0000 0.0000 5.4659
#
#
#
# Elastic Compliance Matrix: (Units=1/GPa)
#
#
# Indices 1 2 3 4 5 6 
#
# 1 0.006596 -0.001506 -0.002957 0.000000 0.000000 0.000000
# 2 -0.001506 0.017723 -0.002491 0.000000 0.000000 0.000000
# 3 -0.002957 -0.002491 0.006314 0.000000 0.000000 0.000000
# 4 0.000000 0.000000 0.000000 0.041928 0.000000 0.000000
# 5 0.000000 0.000000 0.000000 0.000000 0.025115 0.000000
# 6 0.000000 0.000000 0.000000 0.000000 0.000000 0.182953
#
#
# Mechanical properties :
#
#
# Convention : Reuss Voigt Hill
#
# Bulk Modulus (GPa) = 59.78949 96.91435 78.35192
# Shear Modulus (GPa) = 16.66047 34.82990 25.74518
#
# Velocity S-wave (km/s) = 2.82082 4.07857 3.50655
# Velocity P-wave (km/s) = 6.25818 8.27442 7.33590
#
# Compressibility (1/GPa) = 0.01672535
#
# Stress axis : x y z
#
# Youngs Moduli (GPa) = 151.61380 56.42399 158.37628
#
# Poissons Ratio (x) = 0.08496 0.46837
# Poissons Ratio (y) = 0.22830 0.39444
# Poissons Ratio (z) = 0.44838 0.14053
#
# Static dielectric constant tensor:
#      x y z
#    x 1.736060 0.000000 0.000000 
#    y 0.000000 1.875980 0.000000 
#    z 0.000000 0.000000 1.721740 
# 
# From -- ./inp_files/4669.got.cif
#   From: 2010.05.17/outbox.cif.g08.bks.cpg/sg71_3_cif.got.tgz:4669.got - 2010.06.03 16:22:01.
