data_PCOD9523004
_publ_section_title
;
Structure prediction by ZEFSAII (Michael W. Deem and Ramdas Pophale) SiO2 
 PCOD9523004
Probable space group: I M M M
;
_chemical_formula_sum "Si O2"
_cell_formula_units_Z 64
_cell_length_a 17.689637
_cell_length_b 7.691267
_cell_length_c 25.006720
_cell_angle_alpha 90.000000
_cell_angle_beta 90.000000
_cell_angle_gamma 90.000000
_cell_volume 3402.307327
_symmetry_space_group_name_H-M "I M M M"
_symmetry_group_IT_number 71
_symmetry_cell_setting 'orthorhombic'
loop_
_space_group_symop_operation_xyz
x,y,z
-x,-y,z
x,-y,-z
-x,y,-z
-x,-y,-z
x,y,-z
-x,y,z
x,-y,z
1/2+x,1/2+y,1/2+z
1/2-x,1/2-y,1/2+z
1/2+x,1/2-y,1/2-z
1/2-x,1/2+y,1/2-z
1/2-x,1/2-y,1/2-z
1/2+x,1/2+y,1/2-z
1/2-x,1/2+y,1/2+z
1/2+x,1/2-y,1/2+z
loop_
_atom_site_type_symbol
_atom_site_label
_atom_site_fract_x
_atom_site_fract_y
_atom_site_fract_z
Si Si1 0.088466 0.500000 0.669054
Si Si2 0.337872 0.706326 0.759925
Si Si3 0.586003 0.709383 0.646065
Si Si4 0.787928 0.695735 0.938451
Si Si5 0.831551 0.500000 0.562314
O O1 0.128523 0.331114 0.694833
O O2 0.103006 0.500000 0.605728
O O3 0.000000 0.500000 0.681782
O O4 0.345646 0.500000 0.771272
O O5 0.250000 0.750000 0.750000
O O6 0.382471 0.747524 0.705077
O O7 0.500000 0.770997 0.639940
O O8 0.586382 0.500000 0.640696
O O9 0.643014 0.780788 0.601912
O O10 0.758315 0.500000 0.933519
O O11 0.722684 0.834563 0.927808
O O12 0.813209 0.722605 0.000000
O O13 0.854633 0.500000 0.500000
#
# Coordination Sequence:
#
# PCOD9523004 Si02
#       5
#     8  16  16  16   8
#     4  12  26  41  64  97 126 160 206 253 315 372
#     4  11  23  41  63  90 124 164 208 254 301 367
#     4  10  21  36  55  82 121 161 195 242 304 359
#     4  10  21  37  60  87 115 156 205 249 296 356
#     4  10  22  43  65  86 118 154 200 256 303 358
#
# _framework density 18.810766000000001
#
# number of rings (size 3 to 8) (size 9 to 14) (size 15 to 20)
#    0.000    1.500    2.500    2.250    1.750    5.750 
#    0.000    2.500    0.000    0.000    0.000    5.250 
#    0.000    0.000    0.000    0.000    0.000    0.000 
#
# Total GULP energy -178845.708936 kJ/mol
# GULP energy per Si atom -5588.928404 kJ/mol
# Density = 1.876795 g / cm^3
# Si number density = 18.810766 Si / 1000 Ang^3
#
#
#
# Elastic Constant Matrix: (Units=GPa)
#
#
# Indices 1 2 3 4 5 6 
#
# 1 82.1760 32.1604 37.3107 0.0000 0.0000 0.0000
# 2 32.1604 92.7234 47.0279 0.0000 0.0000 0.0000
# 3 37.3107 47.0279 84.0976 0.0000 0.0000 0.0000
# 4 0.0000 0.0000 0.0000 23.8384 0.0000 0.0000
# 5 0.0000 0.0000 0.0000 0.0000 7.6198 0.0000
# 6 0.0000 0.0000 0.0000 0.0000 0.0000 11.0999
#
#
#
# Elastic Compliance Matrix: (Units=1/GPa)
#
#
# Indices 1 2 3 4 5 6 
#
# 1 0.015698 -0.002670 -0.005472 0.000000 0.000000 0.000000
# 2 -0.002670 0.015509 -0.007488 0.000000 0.000000 0.000000
# 3 -0.005472 -0.007488 0.018506 0.000000 0.000000 0.000000
# 4 0.000000 0.000000 0.000000 0.041949 0.000000 0.000000
# 5 0.000000 0.000000 0.000000 0.000000 0.131237 0.000000
# 6 0.000000 0.000000 0.000000 0.000000 0.000000 0.090091
#
#
# Mechanical properties :
#
#
# Convention : Reuss Voigt Hill
#
# Bulk Modulus (GPa) = 54.18961 54.66611 54.42786
# Shear Modulus (GPa) = 14.26943 18.01148 16.14045
#
# Velocity S-wave (km/s) = 2.75722 3.09772 2.93242
# Velocity P-wave (km/s) = 6.24553 6.47446 6.36103
#
# Compressibility (1/GPa) = 0.01845372
#
# Stress axis : x y z
#
# Youngs Moduli (GPa) = 63.70184 64.48056 54.03667
#
# Poissons Ratio (x) = 0.17214 0.29568
# Poissons Ratio (y) = 0.17006 0.40463
# Poissons Ratio (z) = 0.34856 0.48284
#
# Static dielectric constant tensor:
#      x y z
#    x 1.607680 0.000000 0.000000 
#    y 0.000000 1.667030 0.000000 
#    z 0.000000 0.000000 1.647660 
# 
# From -- ./inp_files/9566.got.cif
#   From: 2010.05.17/outbox.cif.g08.bks.cpg/sg71_5_cif.got.tgz:9566.got - 2010.06.03 16:22:01.
