data_PCOD9523248
_publ_section_title
;
Structure prediction by ZEFSAII (Michael W. Deem and Ramdas Pophale) SiO2 
 PCOD9523248
Probable space group: I M M M
;
_chemical_formula_sum "Si O2"
_cell_formula_units_Z 74
_cell_length_a 14.970851
_cell_length_b 30.465597
_cell_length_c 8.120143
_cell_angle_alpha 90.000000
_cell_angle_beta 90.000000
_cell_angle_gamma 90.000000
_cell_volume 3703.564038
_symmetry_space_group_name_H-M "I M M M"
_symmetry_group_IT_number 71
_symmetry_cell_setting 'orthorhombic'
loop_
_space_group_symop_operation_xyz
x,y,z
-x,-y,z
x,-y,-z
-x,y,-z
-x,-y,-z
x,y,-z
-x,y,z
x,-y,z
1/2+x,1/2+y,1/2+z
1/2-x,1/2-y,1/2+z
1/2+x,1/2-y,1/2-z
1/2-x,1/2+y,1/2-z
1/2-x,1/2-y,1/2-z
1/2+x,1/2+y,1/2-z
1/2-x,1/2+y,1/2+z
1/2+x,1/2-y,1/2+z
loop_
_atom_site_type_symbol
_atom_site_label
_atom_site_fract_x
_atom_site_fract_y
_atom_site_fract_z
Si Si1 0.000000 0.500000 0.000000
Si Si2 0.397643 0.167229 0.196749
Si Si3 0.399105 0.645556 0.194635
Si Si4 0.603780 0.739186 0.304847
Si Si5 0.853283 0.500000 0.698637
Si Si6 0.762618 0.593357 0.695604
O O1 0.076166 0.500000 0.151285
O O2 0.500000 0.164826 0.262212
O O3 0.359328 0.215754 0.231602
O O4 0.335917 0.128179 0.262278
O O5 0.403399 0.162294 0.000000
O O6 0.500000 0.639765 0.262252
O O7 0.359176 0.691523 0.260815
O O8 0.333220 0.606095 0.234395
O O9 0.405101 0.650337 0.000000
O O10 0.604728 0.743871 0.500000
O O11 0.500000 0.737404 0.245752
O O12 0.884014 0.500000 0.500000
O O13 0.795870 0.544170 0.720215
O O14 0.756891 0.600638 0.500000
#
# Coordination Sequence:
#
# PCOD9523248 Si02
#       6
#     2  16  16  16   8  16
#     4  12  26  44  76 102 122 184 198 252 316 374
#     4   9  18  33  54  81 115 155 194 238 301 360
#     4  10  21  37  59  84 115 156 202 252 306 364
#     4   9  17  31  51  80 114 152 196 245 293 355
#     4  10  25  47  68  99 134 162 210 258 306 372
#     4  10  22  40  62  87 119 157 199 256 307 364
#
# _framework density 19.980751999999999
#
# number of rings (size 3 to 8) (size 9 to 14) (size 15 to 20)
#    0.000    2.378    0.000    1.459    3.027    5.622 
#    0.000    0.541    0.000    3.243    0.000    0.000 
#    0.000    0.000    0.000    0.000    0.000    0.000 
#
# Total GULP energy -206076.242747 kJ/mol
# GULP energy per Si atom -5569.628182 kJ/mol
# Density = 1.993528 g / cm^3
# Si number density = 19.980752 Si / 1000 Ang^3
#
#
#
# Elastic Constant Matrix: (Units=GPa)
#
#
# Indices 1 2 3 4 5 6 
#
# 1 97.2657 52.7453 32.4874 0.0004 0.0010 0.0004
# 2 52.7453 110.8220 35.8263 0.0006 0.0038 0.0009
# 3 32.4874 35.8263 47.9319 0.0077 -0.0117 -0.0004
# 4 0.0004 0.0006 0.0077 12.3651 -0.0010 0.0016
# 5 0.0010 0.0038 -0.0117 -0.0010 20.2646 -0.0019
# 6 0.0004 0.0009 -0.0004 0.0016 -0.0019 14.9613
#
#
#
# Elastic Compliance Matrix: (Units=1/GPa)
#
#
# Indices 1 2 3 4 5 6 
#
# 1 0.015242 -0.005162 -0.006473 0.000004 -0.000004 0.000000
# 2 -0.005162 0.013647 -0.006701 0.000004 -0.000006 -0.000001
# 3 -0.006473 -0.006701 0.030259 -0.000018 0.000019 0.000001
# 4 0.000004 0.000004 -0.000018 0.080873 0.000004 -0.000009
# 5 -0.000004 -0.000006 0.000019 0.000004 0.049347 0.000006
# 6 0.000000 -0.000001 0.000001 -0.000009 0.000006 0.066839
#
#
# Mechanical properties :
#
#
# Convention : Reuss Voigt Hill
#
# Bulk Modulus (GPa) = 44.49236 55.34863 49.92049
# Shear Modulus (GPa) = 16.64606 18.51556 17.58081
#
# Velocity S-wave (km/s) = 2.88949 3.04743 2.96951
# Velocity P-wave (km/s) = 5.78344 6.33589 6.06596
#
# Compressibility (1/GPa) = 0.02247577
#
# Stress axis : x y z
#
# Youngs Moduli (GPa) = 65.60686 73.27749 33.04810
#
# Poissons Ratio (x) = 0.37826 0.21391
# Poissons Ratio (y) = 0.33867 0.22147
# Poissons Ratio (z) = 0.42465 0.49106
#
# Static dielectric constant tensor:
#      x y z
#    x 1.761610 0.000000 0.000000 
#    y 0.000000 1.693140 0.000000 
#    z 0.000000 0.000000 1.704570 
# 
# From -- ./inp_files/6130.got.cif
#   From: 2010.05.17/outbox.cif.g08.bks.cpg/sg71_4_cif.got.tgz:6130.got - 2010.06.03 16:22:01.
