data_PCOD9523381
_publ_section_title
;
Structure prediction by ZEFSAII (Michael W. Deem and Ramdas Pophale) SiO2 
 PCOD9523381
Probable space group: I M M M
;
_chemical_formula_sum "Si O2"
_cell_formula_units_Z 64
_cell_length_a 26.426654
_cell_length_b 8.547187
_cell_length_c 14.129842
_cell_angle_alpha 90.000000
_cell_angle_beta 90.000000
_cell_angle_gamma 90.000000
_cell_volume 3191.557623
_symmetry_space_group_name_H-M "I M M M"
_symmetry_group_IT_number 71
_symmetry_cell_setting 'orthorhombic'
loop_
_space_group_symop_operation_xyz
x,y,z
-x,-y,z
x,-y,-z
-x,y,-z
-x,-y,-z
x,y,-z
-x,y,z
x,-y,z
1/2+x,1/2+y,1/2+z
1/2-x,1/2-y,1/2+z
1/2+x,1/2-y,1/2-z
1/2-x,1/2+y,1/2-z
1/2-x,1/2-y,1/2-z
1/2+x,1/2+y,1/2-z
1/2-x,1/2+y,1/2+z
1/2+x,1/2-y,1/2+z
loop_
_atom_site_type_symbol
_atom_site_label
_atom_site_fract_x
_atom_site_fract_y
_atom_site_fract_z
Si Si1 0.057289 0.500000 0.384688
Si Si2 0.389512 0.325725 0.113509
Si Si3 0.106960 0.313686 0.109893
Si Si4 0.194707 0.179192 0.759782
Si Si5 0.000000 0.813844 0.889117
O O1 0.056951 0.500000 0.500000
O O2 0.082910 0.664635 0.356891
O O3 0.000000 0.500000 0.350201
O O4 0.410545 0.500000 0.141786
O O5 0.334215 0.317020 0.159351
O O6 0.388234 0.324741 0.000000
O O7 0.103101 0.500000 0.111746
O O8 0.155786 0.261839 0.168716
O O9 0.053786 0.246126 0.148648
O O10 0.112286 0.262121 0.000000
O O11 0.250000 0.250000 0.750000
O O12 0.199381 0.000000 0.790333
O O13 0.000000 0.000000 0.884538
O O14 0.000000 0.763040 0.000000
#
# Coordination Sequence:
#
# PCOD9523381 Si02
#       5
#     8  16  16  16   8
#     4   9  18  34  60  90 117 151 195 240 289 348
#     4   9  20  39  60  84 118 156 195 240 293 351
#     4  10  21  38  60  87 120 157 196 240 293 352
#     4  11  24  40  60  86 116 152 197 247 296 350
#     4   9  17  33  59  87 118 153 192 241 291 348
#
# _framework density 20.052904000000002
#
# number of rings (size 3 to 8) (size 9 to 14) (size 15 to 20)
#    0.000    2.250    0.000    1.875    3.500    4.500 
#    2.250    5.000    0.000    0.000    0.000    0.000 
#    0.000    0.000    0.000    0.000    0.000    0.000 
#
# Total GULP energy -178531.456380 kJ/mol
# GULP energy per Si atom -5579.108012 kJ/mol
# Density = 2.000726 g / cm^3
# Si number density = 20.052904 Si / 1000 Ang^3
#
#
#
# Elastic Constant Matrix: (Units=GPa)
#
#
# Indices 1 2 3 4 5 6 
#
# 1 174.5632 83.8458 37.6649 0.0000 0.0000 0.0000
# 2 83.8458 136.5816 28.6105 0.0000 0.0000 0.0000
# 3 37.6649 28.6105 53.9362 0.0000 0.0000 0.0000
# 4 0.0000 0.0000 0.0000 22.4932 0.0000 0.0000
# 5 0.0000 0.0000 0.0000 0.0000 25.4126 0.0000
# 6 0.0000 0.0000 0.0000 0.0000 0.0000 38.4703
#
#
#
# Elastic Compliance Matrix: (Units=1/GPa)
#
#
# Indices 1 2 3 4 5 6 
#
# 1 0.008721 -0.004588 -0.003657 0.000000 0.000000 0.000000
# 2 -0.004588 0.010650 -0.002446 0.000000 0.000000 0.000000
# 3 -0.003657 -0.002446 0.022391 0.000000 0.000000 0.000000
# 4 0.000000 0.000000 0.000000 0.044458 0.000000 0.000000
# 5 0.000000 0.000000 0.000000 0.000000 0.039351 0.000000
# 6 0.000000 0.000000 0.000000 0.000000 0.000000 0.025994
#
#
# Mechanical properties :
#
#
# Convention : Reuss Voigt Hill
#
# Bulk Modulus (GPa) = 49.06166 73.92482 61.49324
# Shear Modulus (GPa) = 27.81800 31.60587 29.71194
#
# Velocity S-wave (km/s) = 3.72860 3.97435 3.85343
# Velocity P-wave (km/s) = 6.56169 7.61614 7.10849
#
# Compressibility (1/GPa) = 0.02038252
#
# Stress axis : x y z
#
# Youngs Moduli (GPa) = 114.66334 93.89341 44.66043
#
# Poissons Ratio (x) = 0.43077 0.16330
# Poissons Ratio (y) = 0.52606 0.10923
# Poissons Ratio (z) = 0.41927 0.22963
#
# Static dielectric constant tensor:
#      x y z
#    x 1.585660 0.000000 0.000000 
#    y 0.000000 1.743420 0.000000 
#    z 0.000000 0.000000 1.764010 
# 
# From -- ./inp_files/11976.got.cif
#   From: 2010.05.17/outbox.cif.g08.bks.cpg/sg71_6_cif.got.tgz:11976.got - 2010.06.03 16:22:01.
