data_PCOD9523965
_publ_section_title
;
Structure prediction by ZEFSAII (Michael W. Deem and Ramdas Pophale) SiO2 
 PCOD9523965
Probable space group: I M M M
;
_chemical_formula_sum "Si O2"
_cell_formula_units_Z 72
_cell_length_a 15.553315
_cell_length_b 28.203870
_cell_length_c 7.993571
_cell_angle_alpha 90.000000
_cell_angle_beta 90.000000
_cell_angle_gamma 90.000000
_cell_volume 3506.489226
_symmetry_space_group_name_H-M "I M M M"
_symmetry_group_IT_number 71
_symmetry_cell_setting 'orthorhombic'
loop_
_space_group_symop_operation_xyz
x,y,z
-x,-y,z
x,-y,-z
-x,y,-z
-x,-y,-z
x,y,-z
-x,y,z
x,-y,z
1/2+x,1/2+y,1/2+z
1/2-x,1/2-y,1/2+z
1/2+x,1/2-y,1/2-z
1/2-x,1/2+y,1/2-z
1/2-x,1/2-y,1/2-z
1/2+x,1/2+y,1/2-z
1/2-x,1/2+y,1/2+z
1/2+x,1/2-y,1/2+z
loop_
_atom_site_type_symbol
_atom_site_label
_atom_site_fract_x
_atom_site_fract_y
_atom_site_fract_z
Si Si1 0.847346 0.122793 0.690792
Si Si2 0.500000 0.199389 0.689645
Si Si3 0.828954 0.351158 0.685326
Si Si4 0.396584 0.052547 0.696081
Si Si5 0.895436 0.056544 0.000000
Si Si6 0.500000 0.695769 0.803280
O O1 0.861098 0.104924 0.500000
O O2 0.754959 0.148360 0.700456
O O3 0.918262 0.162637 0.727932
O O4 0.857779 0.082698 0.834113
O O5 0.500000 0.181870 0.500000
O O6 0.412213 0.179489 0.768427
O O7 0.500000 0.255884 0.701873
O O8 0.800694 0.338019 0.500000
O O9 0.860108 0.405483 0.695469
O O10 0.373911 0.060068 0.500000
O O11 0.500000 0.053561 0.705235
O O12 0.367407 0.000000 0.745080
O O13 0.000000 0.062513 0.000000
O O14 0.877737 0.000000 0.000000
O O15 0.500000 0.709110 0.000000
#
# Coordination Sequence:
#
# PCOD9523965 Si02
#       6
#    16   8  16  16   8   8
#     4  11  24  45  72  99 137 184 226 281 345 410
#     4  12  26  42  67  97 133 177 223 285 349 410
#     4  12  24  40  63  94 135 176 227 284 336 401
#     4   9  18  34  57  83 117 164 213 261 320 393
#     4  11  24  44  74 109 143 183 235 284 340 413
#     4  10  24  46  72  98 127 167 225 283 352 417
#
# _framework density 20.533358
#
# number of rings (size 3 to 8) (size 9 to 14) (size 15 to 20)
#    0.000    1.222    3.333    3.667    1.556    2.667 
#    0.000    2.222    0.000    0.000    0.000    0.000 
#    0.000    0.000    0.000    0.000    0.000    0.000 
#
# Total GULP energy -201112.139676 kJ/mol
# GULP energy per Si atom -5586.448324 kJ/mol
# Density = 2.048662 g / cm^3
# Si number density = 20.533358 Si / 1000 Ang^3
#
#
#
# Elastic Constant Matrix: (Units=GPa)
#
#
# Indices 1 2 3 4 5 6 
#
# 1 109.7305 47.6819 25.8460 -0.0002 0.0001 0.0002
# 2 47.6819 87.8978 46.4720 -0.0040 0.0021 0.0005
# 3 25.8460 46.4720 96.6683 -0.0284 0.0069 -0.0006
# 4 -0.0002 -0.0040 -0.0284 29.3964 0.0030 0.0001
# 5 0.0001 0.0021 0.0069 0.0030 26.3992 0.0006
# 6 0.0002 0.0005 -0.0006 0.0001 0.0006 -11.3358
#
#
#
# Elastic Compliance Matrix: (Units=1/GPa)
#
#
# Indices 1 2 3 4 5 6 
#
# 1 0.011925 -0.006413 -0.000105 -0.000001 0.000000 0.000000
# 2 -0.006413 0.018703 -0.007277 -0.000005 0.000000 0.000001
# 3 -0.000105 -0.007277 0.013871 0.000012 -0.000003 -0.000001
# 4 -0.000001 -0.000005 0.000012 0.034018 -0.000004 0.000000
# 5 0.000000 0.000000 -0.000003 -0.000004 0.037880 0.000002
# 6 0.000000 0.000001 -0.000001 0.000000 0.000002 -0.088216
#
#
# Mechanical properties :
#
#
# Convention : Reuss Voigt Hill
#
# Bulk Modulus (GPa) = 59.14113 59.36628 59.25371
# Shear Modulus (GPa) = 81.42479 20.51175 50.96827
#
# Velocity S-wave (km/s) = 6.30404 3.16404 4.98759
# Velocity P-wave (km/s) = 9.04726 6.50562 7.87960
#
# Compressibility (1/GPa) = 0.01690871
#
# Stress axis : x y z
#
# Youngs Moduli (GPa) = 83.85894 53.46752 72.09345
#
# Poissons Ratio (x) = 0.34290 0.00759
# Poissons Ratio (y) = 0.53780 0.52459
# Poissons Ratio (z) = 0.00883 0.38906
#
# Static dielectric constant tensor:
#      x y z
#    x 1.763540 0.000000 0.000000 
#    y 0.000000 1.692890 0.000000 
#    z 0.000000 0.000000 1.756420 
# 
# From -- ./inp_files/6212.got.cif
#   From: 2010.05.17/outbox.cif.g08.bks.cpg/sg71_4_cif.got.tgz:6212.got - 2010.06.03 16:22:01.
