data_PCOD9524544
_publ_section_title
;
Structure prediction by ZEFSAII (Michael W. Deem and Ramdas Pophale) SiO2 
 PCOD9524544
Probable space group: I M M M
;
_chemical_formula_sum "Si O2"
_cell_formula_units_Z 104
_cell_length_a 19.713642
_cell_length_b 7.362284
_cell_length_c 34.934166
_cell_angle_alpha 90.000000
_cell_angle_beta 90.000000
_cell_angle_gamma 90.000000
_cell_volume 5070.255110
_symmetry_space_group_name_H-M "I M M M"
_symmetry_group_IT_number 71
_symmetry_cell_setting 'orthorhombic'
loop_
_space_group_symop_operation_xyz
x,y,z
-x,-y,z
x,-y,-z
-x,y,-z
-x,-y,-z
x,y,-z
-x,y,z
x,-y,z
1/2+x,1/2+y,1/2+z
1/2-x,1/2-y,1/2+z
1/2+x,1/2-y,1/2-z
1/2-x,1/2+y,1/2-z
1/2-x,1/2-y,1/2-z
1/2+x,1/2+y,1/2-z
1/2-x,1/2+y,1/2+z
1/2+x,1/2-y,1/2+z
loop_
_atom_site_type_symbol
_atom_site_label
_atom_site_fract_x
_atom_site_fract_y
_atom_site_fract_z
Si Si1 0.922369 0.716408 0.685065
Si Si2 0.806158 0.278194 0.455790
Si Si3 0.578643 0.221395 0.101318
Si Si4 0.338918 0.721640 0.574663
Si Si5 0.077604 0.216372 0.767550
Si Si6 0.422478 0.278565 0.500000
Si Si7 0.920554 0.221370 0.148726
O O1 0.926322 0.500000 0.682256
O O2 0.895664 0.778244 0.643762
O O3 0.888738 0.750250 0.726297
O O4 0.000000 0.787719 0.687281
O O5 0.804868 0.219972 0.500000
O O6 0.806244 0.500000 0.456362
O O7 0.872031 0.218187 0.432324
O O8 0.737995 0.222427 0.433668
O O9 0.500000 0.276477 0.097150
O O10 0.578872 0.000000 0.100467
O O11 0.339152 0.500000 0.575352
O O12 0.383660 0.777843 0.538227
O O13 0.373699 0.783181 0.613926
O O14 0.104030 0.279334 0.808845
O O15 0.000000 0.287691 0.765164
O O16 0.073599 0.000000 0.770519
O O17 0.422208 0.500000 0.500000
O O18 0.500000 0.219303 0.500000
O O19 0.000000 0.273531 0.144108
O O20 0.920062 0.000000 0.147727
#
# Coordination Sequence:
#
# PCOD9524544 Si02
#       7
#    16  16  16  16  16   8  16
#     4   8  13  22  36  53  73  97 125 156 189 226
#     4   9  15  22  31  44  65  91 118 149 184 222
#     4   8  14  23  34  48  65  88 119 151 184 224
#     4   9  14  20  28  41  63  91 121 150 179 215
#     4   8  13  21  34  53  75  98 125 156 188 222
#     4   9  14  18  26  40  59  87 122 154 179 208
#     4   8  13  20  30  45  66  93 123 150 176 212
#
# _framework density 20.511789
#
# number of rings (size 3 to 8) (size 9 to 14) (size 15 to 20)
#    0.000    3.615    0.769    2.308    0.000    2.154 
#    0.000    1.538    0.000    0.923    0.000    0.000 
#    0.000    0.615    0.000    7.000    0.000   21.846 
#
# Total GULP energy -289602.958151 kJ/mol
# GULP energy per Si atom -5569.287657 kJ/mol
# Density = 2.046510 g / cm^3
# Si number density = 20.511789 Si / 1000 Ang^3
#
#
#
# Elastic Constant Matrix: (Units=GPa)
#
#
# Indices 1 2 3 4 5 6 
#
# 1 96.6119 1.9853 87.9137 0.0000 0.0000 0.0000
# 2 1.9853 72.6488 4.6682 0.0000 0.0000 0.0000
# 3 87.9137 4.6682 199.9291 0.0000 0.0000 0.0000
# 4 0.0000 0.0000 0.0000 3.7906 0.0000 0.0000
# 5 0.0000 0.0000 0.0000 0.0000 -16.0456 0.0000
# 6 0.0000 0.0000 0.0000 0.0000 0.0000 -13.9361
#
#
#
# Elastic Compliance Matrix: (Units=1/GPa)
#
#
# Indices 1 2 3 4 5 6 
#
# 1 0.017255 0.000016 -0.007588 0.000000 0.000000 0.000000
# 2 0.000016 0.013786 -0.000329 0.000000 0.000000 0.000000
# 3 -0.007588 -0.000329 0.008346 0.000000 0.000000 0.000000
# 4 0.000000 0.000000 0.000000 0.263809 0.000000 0.000000
# 5 0.000000 0.000000 0.000000 0.000000 -0.062322 0.000000
# 6 0.000000 0.000000 0.000000 0.000000 0.000000 -0.071756
#
#
# Mechanical properties :
#
#
# Convention : Reuss Voigt Hill
#
# Bulk Modulus (GPa) = 42.39960 62.03603 52.21781
# Shear Modulus (GPa) = 25.93620 13.06996 19.50308
#
# Velocity S-wave (km/s) = 3.55977 2.52701 3.08689
# Velocity P-wave (km/s) = 6.13284 6.23090 6.18206
#
# Compressibility (1/GPa) = 0.02358513
#
# Stress axis : x y z
#
# Youngs Moduli (GPa) = 57.95412 72.53973 119.81783
#
# Poissons Ratio (x) = -0.00116 0.90916
# Poissons Ratio (y) = -0.00093 0.03941
# Poissons Ratio (z) = 0.43975 0.02386
#
# Static dielectric constant tensor:
#      x y z
#    x 1.683750 0.000000 0.000000 
#    y 0.000000 1.908170 0.000000 
#    z 0.000000 0.000000 1.766000 
# 
# From -- ./inp_files/56787.got.cif
#   From: 2010.05.17/outbox.cif.g08.bks.cpg/sg71_29_cif.got.tgz:56787.got - 2010.06.03 16:22:01.
