data_PCOD9524847
_publ_section_title
;
Structure prediction by ZEFSAII (Michael W. Deem and Ramdas Pophale) SiO2 
 PCOD9524847
Probable space group: I M M M
;
_chemical_formula_sum "Si O2"
_cell_formula_units_Z 50
_cell_length_a 21.000000
_cell_length_b 9.000000
_cell_length_c 30.000000
_cell_angle_alpha 90.000000
_cell_angle_beta 90.000000
_cell_angle_gamma 90.000000
_cell_volume 5670.000000
_symmetry_space_group_name_H-M "I M M M"
_symmetry_group_IT_number 71
_symmetry_cell_setting 'orthorhombic'
loop_
_space_group_symop_operation_xyz
x,y,z
-x,-y,z
x,-y,-z
-x,y,-z
-x,-y,-z
x,y,-z
-x,y,z
x,-y,z
1/2+x,1/2+y,1/2+z
1/2-x,1/2-y,1/2+z
1/2+x,1/2-y,1/2-z
1/2-x,1/2+y,1/2-z
1/2-x,1/2-y,1/2-z
1/2+x,1/2+y,1/2-z
1/2-x,1/2+y,1/2+z
1/2+x,1/2-y,1/2+z
loop_
_atom_site_type_symbol
_atom_site_label
_atom_site_fract_x
_atom_site_fract_y
_atom_site_fract_z
Si Si1 0.073515 0.323283 0.383940
Si Si2 0.822999 0.175078 0.447385
Si Si3 0.185826 0.679755 0.770963
Si Si4 0.573372 0.678117 0.213367
Si Si5 0.315058 0.677749 0.551182
Si Si6 0.368856 0.835792 0.366013
Si Si7 0.000000 0.500000 0.850822
O O1 0.083509 0.500000 0.378167
O O2 0.123650 0.256018 0.418305
O O3 0.080638 0.240867 0.336615
O O4 0.000000 0.301143 0.398624
O O5 0.837611 0.189789 0.500000
O O6 0.754096 0.249634 0.440344
O O7 0.820614 0.000000 0.436516
O O8 0.188673 0.500000 0.768034
O O9 0.250000 0.750000 0.750000
O O10 0.125358 0.741392 0.743711
O O11 0.170988 0.717842 0.822874
O O12 0.500000 0.709829 0.227332
O O13 0.582437 0.500000 0.213978
O O14 0.334155 0.718171 0.500000
O O15 0.309919 0.500000 0.553115
O O16 0.360837 0.735612 0.590365
O O17 0.442109 0.872303 0.352681
O O18 0.342295 0.000000 0.378203
#
# Coordination Sequence:
#
# PCOD9524847 Si02
#       7
#    16  16  16  16  16  16   4
#     4  10  21  37  56  81 113 154 203 253 304 357
#     4  10  21  36  57  83 114 156 201 247 305 367
#     4  11  24  39  61  89 124 160 203 253 305 358
#     4  10  22  39  60  85 117 158 200 245 300 366
#     4  10  21  38  61  90 123 159 199 248 308 371
#     4   9  21  40  65  88 119 157 203 247 295 363
#     4   8  20  44  67  94 116 164 212 244 309 362
#
# _framework density 8.8183419999999995
#
# number of rings (size 3 to 8) (size 9 to 14) (size 15 to 20)
#    0.480    1.600    0.000    2.400    3.360    5.440 
#    0.000    2.800    0.000    0.960    0.000    0.000 
#    0.000    0.000    0.000    0.000    0.000    0.000 
#
# Total GULP energy -278346.370280 kJ/mol
# GULP energy per Si atom -5566.927406 kJ/mol
# Density = 0.879827 g / cm^3
# Si number density = 8.818342 Si / 1000 Ang^3
#
#
#
# Elastic Constant Matrix: (Units=GPa)
#
#
# Indices 1 2 3 4 5 6 
#
# 1 94.9632 39.5051 57.6706 0.0000 0.0000 0.0000
# 2 39.5051 74.7182 38.8269 0.0000 0.0000 0.0000
# 3 57.6706 38.8269 80.4560 0.0000 0.0000 0.0000
# 4 0.0000 0.0000 0.0000 33.3716 0.0000 0.0000
# 5 0.0000 0.0000 0.0000 0.0000 28.5971 0.0000
# 6 0.0000 0.0000 0.0000 0.0000 0.0000 42.7799
#
#
#
# Elastic Compliance Matrix: (Units=1/GPa)
#
#
# Indices 1 2 3 4 5 6 
#
# 1 0.019535 -0.004074 -0.012037 0.000000 0.000000 0.000000
# 2 -0.004074 0.018713 -0.006110 0.000000 0.000000 0.000000
# 3 -0.012037 -0.006110 0.024006 0.000000 0.000000 0.000000
# 4 0.000000 0.000000 0.000000 0.029966 0.000000 0.000000
# 5 0.000000 0.000000 0.000000 0.000000 0.034969 0.000000
# 6 0.000000 0.000000 0.000000 0.000000 0.000000 0.023375
#
#
# Mechanical properties :
#
#
# Convention : Reuss Voigt Hill
#
# Bulk Modulus (GPa) = 56.14260 58.01585 57.07922
# Shear Modulus (GPa) = 24.88284 28.55872 26.72078
#
# Velocity S-wave (km/s) = 3.76021 4.02839 3.89661
# Velocity P-wave (km/s) = 7.12420 7.38943 7.25803
#
# Compressibility (1/GPa) = 0.01781179
#
# Stress axis : x y z
#
# Youngs Moduli (GPa) = 51.19069 53.43941 41.65671
#
# Poissons Ratio (x) = 0.21770 0.50140
# Poissons Ratio (y) = 0.20854 0.25454
# Poissons Ratio (z) = 0.61616 0.32654
#
# Static dielectric constant tensor:
#      x y z
#    x 1.582740 0.000000 0.000000 
#    y 0.000000 1.597370 0.000000 
#    z 0.000000 0.000000 1.603330 
# 
# From -- ./inp_files/70745.got.cif
#   From: 2010.05.17/outbox.ucp.g08.bks.cvg/sg71_36_cif.got.tgz:70745.got - 2010.06.11 16:29:00.
