data_PCOD9524708
_publ_section_title
;
Structure prediction by ZEFSAII (Michael W. Deem and Ramdas Pophale) SiO2 
 PCOD9524708
Probable space group: I M M M
;
_chemical_formula_sum "Si O2"
_cell_formula_units_Z 52
_cell_length_a 30.000000
_cell_length_b 21.000000
_cell_length_c 9.000000
_cell_angle_alpha 90.000000
_cell_angle_beta 90.000000
_cell_angle_gamma 90.000000
_cell_volume 5670.000000
_symmetry_space_group_name_H-M "I M M M"
_symmetry_group_IT_number 71
_symmetry_cell_setting 'orthorhombic'
loop_
_space_group_symop_operation_xyz
x,y,z
-x,-y,z
x,-y,-z
-x,y,-z
-x,-y,-z
x,y,-z
-x,y,z
x,-y,z
1/2+x,1/2+y,1/2+z
1/2-x,1/2-y,1/2+z
1/2+x,1/2-y,1/2-z
1/2-x,1/2+y,1/2-z
1/2-x,1/2-y,1/2-z
1/2+x,1/2+y,1/2-z
1/2-x,1/2+y,1/2+z
1/2+x,1/2-y,1/2+z
loop_
_atom_site_type_symbol
_atom_site_label
_atom_site_fract_x
_atom_site_fract_y
_atom_site_fract_z
Si Si1 0.388741 0.877347 0.179327
Si Si2 0.447789 0.000000 0.180889
Si Si3 0.551721 0.756046 0.174803
Si Si4 0.856432 0.929210 0.820863
Si Si5 0.549477 0.620033 0.321449
Si Si6 0.200815 0.818217 0.676905
Si Si7 0.305549 0.181628 0.322822
O O1 0.416325 0.813572 0.217730
O O2 0.340349 0.868194 0.252716
O O3 0.418969 0.937813 0.224706
O O4 0.383861 0.879953 0.000000
O O5 0.500000 0.000000 0.230392
O O6 0.449570 0.000000 0.000000
O O7 0.500000 0.775900 0.192010
O O8 0.558325 0.691753 0.266245
O O9 0.558871 0.742132 0.000000
O O10 0.908358 0.921832 0.777230
O O11 0.828437 0.874793 0.742053
O O12 0.840533 0.000000 0.783316
O O13 0.853635 0.921416 0.000000
O O14 0.548017 0.619540 0.500000
O O15 0.500000 0.601033 0.267076
O O16 0.195112 0.812326 0.500000
O O17 0.253229 0.831627 0.707413
O O18 0.187077 0.751509 0.752075
O O19 0.311747 0.184307 0.500000
#
# Coordination Sequence:
#
# PCOD9524708 Si02
#       7
#    16   8  16  16  16  16  16
#     4  10  19  32  53  80 107 141 184 226 270 322
#     4   9  18  34  55  79 111 151 193 233 274 327
#     4   9  17  29  47  73 103 134 171 217 265 309
#     4  10  21  36  54  78 108 144 181 216 259 310
#     4   9  18  32  50  74 104 137 173 213 257 308
#     4  10  21  38  59  82 107 139 178 222 273 327
#     4  10  21  37  58  82 108 137 172 222 280 330
#
# _framework density 9.1710759999999993
#
# number of rings (size 3 to 8) (size 9 to 14) (size 15 to 20)
#    0.000    2.385    0.000    2.308    0.000    8.000 
#    1.385    1.923    0.000    1.846    0.000    3.231 
#    0.000    0.000    0.000    0.000    0.000    0.000 
#
# Total GULP energy -290133.683676 kJ/mol
# GULP energy per Si atom -5579.493917 kJ/mol
# Density = 0.915020 g / cm^3
# Si number density = 9.171076 Si / 1000 Ang^3
#
#
#
# Elastic Constant Matrix: (Units=GPa)
#
#
# Indices 1 2 3 4 5 6 
#
# 1 109.3066 70.8727 37.9967 0.0000 0.0000 0.0000
# 2 70.8727 78.3647 24.7855 0.0000 0.0000 0.0000
# 3 37.9967 24.7855 20.8132 0.0000 0.0000 0.0000
# 4 0.0000 0.0000 0.0000 18.7436 0.0000 0.0000
# 5 0.0000 0.0000 0.0000 0.0000 29.3688 0.0000
# 6 0.0000 0.0000 0.0000 0.0000 0.0000 24.5399
#
#
#
# Elastic Compliance Matrix: (Units=1/GPa)
#
#
# Indices 1 2 3 4 5 6 
#
# 1 0.037739 -0.019796 -0.045321 0.000000 0.000000 0.000000
# 2 -0.019796 0.030856 -0.000604 0.000000 0.000000 0.000000
# 3 -0.045321 -0.000604 0.131505 0.000000 0.000000 0.000000
# 4 0.000000 0.000000 0.000000 0.053352 0.000000 0.000000
# 5 0.000000 0.000000 0.000000 0.000000 0.034050 0.000000
# 6 0.000000 0.000000 0.000000 0.000000 0.000000 0.040750
#
#
# Mechanical properties :
#
#
# Convention : Reuss Voigt Hill
#
# Bulk Modulus (GPa) = 14.56549 52.86603 33.71576
# Shear Modulus (GPa) = 10.36097 19.51909 14.94003
#
# Velocity S-wave (km/s) = 2.37928 3.26569 2.85707
# Velocity P-wave (km/s) = 3.93779 6.56539 5.41344
#
# Compressibility (1/GPa) = 0.06865545
#
# Stress axis : x y z
#
# Youngs Moduli (GPa) = 26.49809 32.40901 7.60425
#
# Poissons Ratio (x) = 0.64157 0.34464
# Poissons Ratio (y) = 0.52456 0.00460
# Poissons Ratio (z) = 1.20093 0.01959
#
# Static dielectric constant tensor:
#      x y z
#    x 1.653670 0.000000 0.000000 
#    y 0.000000 1.604920 0.000000 
#    z 0.000000 0.000000 1.614970 
# 
# From -- ./inp_files/16983.got.cif
#   From: 2010.05.17/outbox.ucp.g08.bks.cvg/sg71_9_cif.got.tgz:16983.got - 2010.06.11 16:29:00.
