data_PCOD9524106
_publ_section_title
;
Structure prediction by ZEFSAII (Michael W. Deem and Ramdas Pophale) SiO2 
 PCOD9524106
Probable space group: I M M M
;
_chemical_formula_sum "Si O2"
_cell_formula_units_Z 104
_cell_length_a 12.822676
_cell_length_b 18.908851
_cell_length_c 26.828209
_cell_angle_alpha 90.000000
_cell_angle_beta 90.000000
_cell_angle_gamma 90.000000
_cell_volume 6504.823086
_symmetry_space_group_name_H-M "I M M M"
_symmetry_group_IT_number 71
_symmetry_cell_setting 'orthorhombic'
loop_
_space_group_symop_operation_xyz
x,y,z
-x,-y,z
x,-y,-z
-x,y,-z
-x,-y,-z
x,y,-z
-x,y,z
x,-y,z
1/2+x,1/2+y,1/2+z
1/2-x,1/2-y,1/2+z
1/2+x,1/2-y,1/2-z
1/2-x,1/2+y,1/2-z
1/2-x,1/2-y,1/2-z
1/2+x,1/2+y,1/2-z
1/2-x,1/2+y,1/2+z
1/2+x,1/2-y,1/2+z
loop_
_atom_site_type_symbol
_atom_site_label
_atom_site_fract_x
_atom_site_fract_y
_atom_site_fract_z
Si Si1 0.621375 0.084288 0.940950
Si Si2 0.622279 0.181432 0.234786
Si Si3 0.687843 0.657539 0.388023
Si Si4 0.698303 0.581562 0.712483
Si Si5 0.744314 0.787039 0.666954
Si Si6 0.879544 0.917450 0.323448
Si Si7 0.500000 0.581770 0.559127
O O1 0.500000 0.100413 0.929978
O O2 0.702248 0.126077 0.906930
O O3 0.636517 0.000000 0.933869
O O4 0.639094 0.098673 0.000000
O O5 0.500000 0.175580 0.229182
O O6 0.685325 0.109684 0.223242
O O7 0.655826 0.201411 0.291060
O O8 0.669915 0.239510 0.196832
O O9 0.659070 0.627487 0.333372
O O10 0.701785 0.740932 0.378825
O O11 0.600420 0.625805 0.423598
O O12 0.696581 0.500000 0.698638
O O13 0.634809 0.591431 0.763537
O O14 0.800139 0.860655 0.653747
O O15 0.000000 0.903861 0.336569
O O16 0.855676 0.000000 0.334272
O O17 0.500000 0.500000 0.578749
O O18 0.500000 0.576723 0.500000
#
# Coordination Sequence:
#
# PCOD9524106 Si02
#       7
#    16  16  16  16  16  16   8
#     4   9  18  33  50  65  86 118 151 186 235 291
#     4   9  17  29  43  57  87 128 154 191 244 280
#     4  11  21  31  48  70  94 126 160 205 246 280
#     4   9  18  29  41  67  93 119 165 202 230 274
#     4   9  19  30  42  67  89 118 160 200 232 287
#     4   9  17  30  48  66  94 132 161 195 240 285
#     4  11  24  38  52  72 101 135 167 205 250 290
#
# _framework density 15.988136000000001
#
# number of rings (size 3 to 8) (size 9 to 14) (size 15 to 20)
#    0.000    2.538    0.000    3.692    2.154    4.615 
#    0.000    0.000    0.000    0.000    0.000    0.000 
#    0.000    3.077    0.000    8.462    0.000    0.000 
#
# Total GULP energy -289852.489164 kJ/mol
# GULP energy per Si atom -5574.086330 kJ/mol
# Density = 1.595175 g / cm^3
# Si number density = 15.988136 Si / 1000 Ang^3
#
#
#
# Elastic Constant Matrix: (Units=GPa)
#
#
# Indices 1 2 3 4 5 6 
#
# 1 51.1905 17.1262 10.7654 0.0000 0.0000 0.0000
# 2 17.1262 82.4658 22.1224 0.0000 0.0000 0.0000
# 3 10.7654 22.1224 31.2264 0.0000 0.0000 0.0000
# 4 0.0000 0.0000 0.0000 20.8498 0.0000 0.0000
# 5 0.0000 0.0000 0.0000 0.0000 -384.3274 0.0000
# 6 0.0000 0.0000 0.0000 0.0000 0.0000 8.1255
#
#
#
# Elastic Compliance Matrix: (Units=1/GPa)
#
#
# Indices 1 2 3 4 5 6 
#
# 1 0.021679 -0.003083 -0.005290 0.000000 0.000000 0.000000
# 2 -0.003083 0.015410 -0.009854 0.000000 0.000000 0.000000
# 3 -0.005290 -0.009854 0.040829 0.000000 0.000000 0.000000
# 4 0.000000 0.000000 0.000000 0.047962 0.000000 0.000000
# 5 0.000000 0.000000 0.000000 0.000000 -0.002602 0.000000
# 6 0.000000 0.000000 0.000000 0.000000 0.000000 0.123069
#
#
# Mechanical properties :
#
#
# Convention : Reuss Voigt Hill
#
# Bulk Modulus (GPa) = 24.11741 29.43453 26.77597
# Shear Modulus (GPa) = 16.85645 -63.41249 -23.27802
#
# Velocity S-wave (km/s) = 3.25054 -6.30463 -3.81984
# Velocity P-wave (km/s) = 5.40419 5.87772 1.63436
#
# Compressibility (1/GPa) = 0.04146382
#
# Stress axis : x y z
#
# Youngs Moduli (GPa) = 46.12808 64.89255 24.49227
#
# Poissons Ratio (x) = 0.20008 0.12955
# Poissons Ratio (y) = 0.14222 0.24136
# Poissons Ratio (z) = 0.24400 0.63948
#
# Static dielectric constant tensor:
#      x y z
#    x 1.541840 0.000000 0.000000 
#    y 0.000000 1.563560 0.000000 
#    z 0.000000 0.000000 1.531850 
# 
# From -- ./inp_files/52186.got.cif
#   From: 2010.05.17/outbox.cif.g08.bks.cpg/sg71_27_cif.got.tgz:52186.got - 2010.06.03 16:22:01.
