data_PCOD9524240
_publ_section_title
;
Structure prediction by ZEFSAII (Michael W. Deem and Ramdas Pophale) SiO2 
 PCOD9524240
Probable space group: I M M M
;
_chemical_formula_sum "Si O2"
_cell_formula_units_Z 88
_cell_length_a 15.269510
_cell_length_b 19.455870
_cell_length_c 14.793536
_cell_angle_alpha 90.000000
_cell_angle_beta 90.000000
_cell_angle_gamma 90.000000
_cell_volume 4394.887367
_symmetry_space_group_name_H-M "I M M M"
_symmetry_group_IT_number 71
_symmetry_cell_setting 'orthorhombic'
loop_
_space_group_symop_operation_xyz
x,y,z
-x,-y,z
x,-y,-z
-x,y,-z
-x,-y,-z
x,y,-z
-x,y,z
x,-y,z
1/2+x,1/2+y,1/2+z
1/2-x,1/2-y,1/2+z
1/2+x,1/2-y,1/2-z
1/2-x,1/2+y,1/2-z
1/2-x,1/2-y,1/2-z
1/2+x,1/2+y,1/2-z
1/2-x,1/2+y,1/2+z
1/2+x,1/2-y,1/2+z
loop_
_atom_site_type_symbol
_atom_site_label
_atom_site_fract_x
_atom_site_fract_y
_atom_site_fract_z
Si Si1 0.893025 0.920475 0.300452
Si Si2 0.602507 0.195688 0.900106
Si Si3 0.107528 0.421448 0.731964
Si Si4 0.604338 0.830689 0.600942
Si Si5 0.900984 0.916894 0.500000
Si Si6 0.344875 0.717856 0.735420
O O1 0.861457 0.901281 0.402467
O O2 0.854160 0.863658 0.233956
O O3 0.000000 0.916504 0.300098
O O4 0.870409 0.000000 0.282205
O O5 0.500000 0.182413 0.911318
O O6 0.638313 0.127948 0.849220
O O7 0.607642 0.256169 0.826795
O O8 0.640116 0.209667 0.000000
O O9 0.135114 0.500000 0.723796
O O10 0.136843 0.386691 0.826203
O O11 0.000000 0.420303 0.732118
O O12 0.641603 0.835609 0.500000
O O13 0.500000 0.841331 0.594754
O O14 0.618294 0.756983 0.648117
O O15 0.000000 0.887308 0.500000
O O16 0.908836 0.000000 0.500000
O O17 0.250000 0.750000 0.750000
#
# Coordination Sequence:
#
# PCOD9524240 Si02
#       6
#    16  16  16  16   8  16
#     4   9  17  32  56  82 107 138 180 226 272 323
#     4   9  18  32  51  75 101 135 179 220 265 327
#     4   8  14  26  46  73 100 124 161 213 260 301
#     4   9  18  34  53  70  94 133 182 229 267 313
#     4   7  12  24  46  80 110 128 156 207 266 318
#     4  11  22  34  49  76 110 144 172 217 277 344
#
# _framework density 20.023266
#
# number of rings (size 3 to 8) (size 9 to 14) (size 15 to 20)
#    0.000    3.000    0.000    3.818    1.273    1.455 
#    0.000    7.273    0.000    0.545    0.000    2.545 
#    0.000    0.000    0.000    0.000    0.000    0.000 
#
# Total GULP energy -245129.568445 kJ/mol
# GULP energy per Si atom -5571.126556 kJ/mol
# Density = 1.997769 g / cm^3
# Si number density = 20.023266 Si / 1000 Ang^3
#
#
#
# Elastic Constant Matrix: (Units=GPa)
#
#
# Indices 1 2 3 4 5 6 
#
# 1 27.5967 2.7962 5.3990 0.0000 0.0000 0.0000
# 2 2.7962 109.7105 11.1748 0.0000 0.0000 0.0000
# 3 5.3990 11.1748 87.1263 -0.0001 0.0000 0.0000
# 4 0.0000 0.0000 -0.0001 10.1846 0.0000 0.0000
# 5 0.0000 0.0000 0.0000 0.0000 4.1986 0.0000
# 6 0.0000 0.0000 0.0000 0.0000 0.0000 8.3476
#
#
#
# Elastic Compliance Matrix: (Units=1/GPa)
#
#
# Indices 1 2 3 4 5 6 
#
# 1 0.036736 -0.000714 -0.002185 0.000000 0.000000 0.000000
# 2 -0.000714 0.009249 -0.001142 0.000000 0.000000 0.000000
# 3 -0.002185 -0.001142 0.011759 0.000000 0.000000 0.000000
# 4 0.000000 0.000000 0.000000 0.098187 0.000000 0.000000
# 5 0.000000 0.000000 0.000000 0.000000 0.238177 0.000000
# 6 0.000000 0.000000 0.000000 0.000000 0.000000 0.119795
#
#
# Mechanical properties :
#
#
# Convention : Reuss Voigt Hill
#
# Bulk Modulus (GPa) = 20.13557 29.24150 24.68853
# Shear Modulus (GPa) = 9.28437 18.21706 13.75072
#
# Velocity S-wave (km/s) = 2.15566 3.01955 2.62341
# Velocity P-wave (km/s) = 4.03407 5.17614 4.64037
#
# Compressibility (1/GPa) = 0.04966336
#
# Stress axis : x y z
#
# Youngs Moduli (GPa) = 27.22131 108.11484 85.03791
#
# Poissons Ratio (x) = 0.07717 0.18580
# Poissons Ratio (y) = 0.01943 0.09712
# Poissons Ratio (z) = 0.05948 0.12348
#
# Static dielectric constant tensor:
#      x y z
#    x 1.764480 0.000000 0.000000 
#    y 0.000000 1.715940 0.000000 
#    z 0.000000 0.000000 1.731810 
# 
# From -- ./inp_files/36556.got.cif
#   From: 2010.05.17/outbox.cif.g08.bks.cpg/sg71_19_cif.got.tgz:36556.got - 2010.06.03 16:22:01.
