data_PCOD9524853
_publ_section_title
;
Structure prediction by ZEFSAII (Michael W. Deem and Ramdas Pophale) SiO2 
 PCOD9524853
Probable space group: I M M M
;
_chemical_formula_sum "Si O2"
_cell_formula_units_Z 40
_cell_length_a 21.000000
_cell_length_b 18.000000
_cell_length_c 12.000000
_cell_angle_alpha 90.000000
_cell_angle_beta 90.000000
_cell_angle_gamma 90.000000
_cell_volume 4536.000000
_symmetry_space_group_name_H-M "I M M M"
_symmetry_group_IT_number 71
_symmetry_cell_setting 'orthorhombic'
loop_
_space_group_symop_operation_xyz
x,y,z
-x,-y,z
x,-y,-z
-x,y,-z
-x,-y,-z
x,y,-z
-x,y,z
x,-y,z
1/2+x,1/2+y,1/2+z
1/2-x,1/2-y,1/2+z
1/2+x,1/2-y,1/2-z
1/2-x,1/2+y,1/2-z
1/2-x,1/2-y,1/2-z
1/2+x,1/2+y,1/2-z
1/2-x,1/2+y,1/2+z
1/2+x,1/2-y,1/2+z
loop_
_atom_site_type_symbol
_atom_site_label
_atom_site_fract_x
_atom_site_fract_y
_atom_site_fract_z
Si Si1 0.073050 0.410662 0.629016
Si Si2 0.193586 0.340352 0.716784
Si Si3 0.594572 0.414434 0.500000
Si Si4 0.571648 0.410104 0.249959
Si Si5 0.810474 0.827657 0.365791
Si Si6 0.753281 0.085064 0.000000
O O1 0.088362 0.388345 0.500000
O O2 0.075730 0.500000 0.632119
O O3 0.124291 0.377703 0.713574
O O4 0.000000 0.388224 0.650842
O O5 0.183738 0.253660 0.690152
O O6 0.241101 0.353965 0.820178
O O7 0.229385 0.374828 0.610128
O O8 0.572113 0.500000 0.500000
O O9 0.574651 0.383485 0.379568
O O10 0.670785 0.414658 0.500000
O O11 0.500000 0.393329 0.207144
O O12 0.579061 0.500000 0.250552
O O13 0.630231 0.375610 0.181136
O O14 0.811909 0.824033 0.500000
O O15 0.730165 0.000000 0.000000
#
# Coordination Sequence:
#
# PCOD9524853 Si02
#       6
#    16  16   8  16  16   8
#     4   9  17  30  53  85 112 132 165 222 283 328
#     4  11  21  36  57  81 112 145 180 226 279 329
#     4   9  17  32  57  87 112 137 183 241 283 315
#     4  10  21  37  57  81 111 149 192 237 279 321
#     4  11  24  38  53  78 113 152 187 224 272 332
#     4  11  18  31  61  91 108 135 183 235 283 321
#
# _framework density 8.8183419999999995
#
# number of rings (size 3 to 8) (size 9 to 14) (size 15 to 20)
#    0.000    1.800    4.000    1.500    0.000    3.600 
#    0.000    1.000    0.000    0.600    0.000    1.400 
#    0.000    0.000    0.000    0.000    0.000    0.000 
#
# Total GULP energy -223032.362981 kJ/mol
# GULP energy per Si atom -5575.809075 kJ/mol
# Density = 0.879827 g / cm^3
# Si number density = 8.818342 Si / 1000 Ang^3
#
#
#
# Elastic Constant Matrix: (Units=GPa)
#
#
# Indices 1 2 3 4 5 6 
#
# 1 159.2369 36.5814 47.1437 0.0000 0.0000 0.0000
# 2 36.5814 45.2936 8.2138 0.0000 0.0000 0.0000
# 3 47.1437 8.2138 80.8147 0.0000 0.0000 0.0000
# 4 0.0000 0.0000 0.0000 21.0608 0.0000 0.0000
# 5 0.0000 0.0000 0.0000 0.0000 19.2856 0.0000
# 6 0.0000 0.0000 0.0000 0.0000 0.0000 88.9203
#
#
#
# Elastic Compliance Matrix: (Units=1/GPa)
#
#
# Indices 1 2 3 4 5 6 
#
# 1 0.009174 -0.006560 -0.004685 0.000000 0.000000 0.000000
# 2 -0.006560 0.027183 0.001064 0.000000 0.000000 0.000000
# 3 -0.004685 0.001064 0.014999 0.000000 0.000000 0.000000
# 4 0.000000 0.000000 0.000000 0.047482 0.000000 0.000000
# 5 0.000000 0.000000 0.000000 0.000000 0.051852 0.000000
# 6 0.000000 0.000000 0.000000 0.000000 0.000000 0.011246
#
#
# Mechanical properties :
#
#
# Convention : Reuss Voigt Hill
#
# Bulk Modulus (GPa) = 32.26401 52.13588 42.19995
# Shear Modulus (GPa) = 25.95664 38.74709 32.35186
#
# Velocity S-wave (km/s) = 3.84049 4.69226 4.28758
# Velocity P-wave (km/s) = 6.16435 7.67995 6.96351
#
# Compressibility (1/GPa) = 0.03099429
#
# Stress axis : x y z
#
# Youngs Moduli (GPa) = 109.00432 36.78736 66.67173
#
# Poissons Ratio (x) = 0.24132 0.31235
# Poissons Ratio (y) = 0.71504 -0.07093
# Poissons Ratio (z) = 0.51068 -0.03913
#
# Static dielectric constant tensor:
#      x y z
#    x 1.636340 0.000000 0.000000 
#    y 0.000000 1.616580 0.000000 
#    z 0.000000 0.000000 1.591960 
# 
# From -- ./inp_files/25592.got.cif
#   From: 2010.05.17/outbox.ucp.g08.bks.cvg/sg71_13_cif.got.tgz:25592.got - 2010.06.11 16:29:00.
