data_PCOD9524747
_publ_section_title
;
Structure prediction by ZEFSAII (Michael W. Deem and Ramdas Pophale) SiO2 
 PCOD9524747
Probable space group: I M M M
;
_chemical_formula_sum "Si O2"
_cell_formula_units_Z 58
_cell_length_a 18.000000
_cell_length_b 18.000000
_cell_length_c 18.000000
_cell_angle_alpha 90.000000
_cell_angle_beta 90.000000
_cell_angle_gamma 90.000000
_cell_volume 5832.000000
_symmetry_space_group_name_H-M "I M M M"
_symmetry_group_IT_number 71
_symmetry_cell_setting 'orthorhombic'
loop_
_space_group_symop_operation_xyz
x,y,z
-x,-y,z
x,-y,-z
-x,y,-z
-x,-y,-z
x,y,-z
-x,y,z
x,-y,z
1/2+x,1/2+y,1/2+z
1/2-x,1/2-y,1/2+z
1/2+x,1/2-y,1/2-z
1/2-x,1/2+y,1/2-z
1/2-x,1/2-y,1/2-z
1/2+x,1/2+y,1/2-z
1/2-x,1/2+y,1/2+z
1/2+x,1/2-y,1/2+z
loop_
_atom_site_type_symbol
_atom_site_label
_atom_site_fract_x
_atom_site_fract_y
_atom_site_fract_z
Si Si1 0.819607 0.586170 0.301221
Si Si2 0.142460 0.087945 0.202715
Si Si3 0.854145 0.213995 0.912539
Si Si4 0.323478 0.795747 0.086679
Si Si5 0.500000 0.000000 0.625092
Si Si6 0.379868 0.867693 0.652242
Si Si7 0.276145 0.582162 0.086962
Si Si8 0.412956 0.664826 0.850742
O O1 0.838323 0.500000 0.298243
O O2 0.731649 0.594350 0.282866
O O3 0.830004 0.621325 0.382046
O O4 0.870318 0.627225 0.240806
O O5 0.127667 0.137444 0.129695
O O6 0.100442 0.128589 0.270051
O O7 0.125040 0.000000 0.196624
O O8 0.764012 0.224911 0.904150
O O9 0.895631 0.284703 0.876500
O O10 0.869374 0.210457 0.000000
O O11 0.376987 0.745825 0.137549
O O12 0.341898 0.787670 0.000000
O O13 0.564987 0.066683 0.626521
O O14 0.296570 0.883493 0.623152
O O15 0.282672 0.500000 0.118986
O O16 0.355830 0.619140 0.097884
O O17 0.260411 0.580397 0.000000
O O18 0.500000 0.662831 0.869476
#
# Coordination Sequence:
#
# PCOD9524747 Si02
#       8
#    16  16  16  16   4  16  16  16
#     4  10  19  37  66  92 127 174 220 268 326 393
#     4  10  21  39  66  98 128 168 220 274 328 388
#     4  10  21  40  68  96 130 174 218 269 332 398
#     4  10  21  38  62  96 132 172 220 271 328 389
#     4  12  28  40  69 104 133 172 220 280 318 392
#     4  12  21  42  64  95 131 173 219 266 322 386
#     4  11  22  38  62  88 124 171 208 256 323 388
#     4  12  24  39  63  94 123 167 220 274 320 385
#
# _framework density 9.9451300000000007
#
# number of rings (size 3 to 8) (size 9 to 14) (size 15 to 20)
#    0.000    1.241    4.138    2.069    0.000    4.966 
#    4.966    6.207    0.000    0.000    0.000    2.414 
#    0.000    0.000    0.000    0.000    0.000    0.000 
#
# Total GULP energy -323094.891409 kJ/mol
# GULP energy per Si atom -5570.601576 kJ/mol
# Density = 0.992249 g / cm^3
# Si number density = 9.945130 Si / 1000 Ang^3
#
#
#
# Elastic Constant Matrix: (Units=GPa)
#
#
# Indices 1 2 3 4 5 6 
#
# 1 33.2617 29.3712 22.2460 0.0000 0.0000 0.0000
# 2 29.3712 90.4311 88.4613 0.0000 0.0000 0.0000
# 3 22.2460 88.4613 85.0793 0.0000 0.0000 0.0000
# 4 0.0000 0.0000 0.0000 28.0300 0.0000 0.0000
# 5 0.0000 0.0000 0.0000 0.0000 -12.2889 0.0000
# 6 0.0000 0.0000 0.0000 0.0000 0.0000 23.5690
#
#
#
# Elastic Compliance Matrix: (Units=1/GPa)
#
#
# Indices 1 2 3 4 5 6 
#
# 1 0.019001 0.076676 -0.084692 0.000000 0.000000 0.000000
# 2 0.076676 -0.337191 0.330546 0.000000 0.000000 0.000000
# 3 -0.084692 0.330546 -0.309787 0.000000 0.000000 0.000000
# 4 0.000000 0.000000 0.000000 0.035676 0.000000 0.000000
# 5 0.000000 0.000000 0.000000 0.000000 -0.081374 0.000000
# 6 0.000000 0.000000 0.000000 0.000000 0.000000 0.042429
#
#
# Mechanical properties :
#
#
# Convention : Reuss Voigt Hill
#
# Bulk Modulus (GPa) = 58.53972 54.32545 56.43258
# Shear Modulus (GPa) = -3.93511 12.44160 4.25324
#
# Velocity S-wave (km/s) = -1.40809 2.50374 1.46390
# Velocity P-wave (km/s) = 5.18186 5.97747 5.59383
#
# Compressibility (1/GPa) = 0.01708242
#
# Stress axis : x y z
#
# Youngs Moduli (GPa) = 52.62923 -2.96568 -3.22803
#
# Poissons Ratio (x) = 0.22740 -0.27339
# Poissons Ratio (y) = -4.03539 1.06701
# Poissons Ratio (z) = 4.45728 0.98029
#
# Static dielectric constant tensor:
#      x y z
#    x 1.673500 0.000000 0.000000 
#    y 0.000000 1.771680 0.000000 
#    z 0.000000 0.000000 1.711500 
# 
# From -- ./inp_files/46228.got.cif
#   From: 2010.05.17/outbox.ucp.g08.bks.cvg/sg71_24_cif.got.tgz:46228.got - 2010.06.11 16:29:00.
