data_PCOD9524412
_publ_section_title
;
Structure prediction by ZEFSAII (Michael W. Deem and Ramdas Pophale) SiO2 
 PCOD9524412
Probable space group: I M M M
;
_chemical_formula_sum "Si O2"
_cell_formula_units_Z 72
_cell_length_a 32.995235
_cell_length_b 7.915448
_cell_length_c 13.972470
_cell_angle_alpha 90.000000
_cell_angle_beta 90.000000
_cell_angle_gamma 90.000000
_cell_volume 3649.218869
_symmetry_space_group_name_H-M "I M M M"
_symmetry_group_IT_number 71
_symmetry_cell_setting 'orthorhombic'
loop_
_space_group_symop_operation_xyz
x,y,z
-x,-y,z
x,-y,-z
-x,y,-z
-x,-y,-z
x,y,-z
-x,y,z
x,-y,z
1/2+x,1/2+y,1/2+z
1/2-x,1/2-y,1/2+z
1/2+x,1/2-y,1/2-z
1/2-x,1/2+y,1/2-z
1/2-x,1/2-y,1/2-z
1/2+x,1/2+y,1/2-z
1/2-x,1/2+y,1/2+z
1/2+x,1/2-y,1/2+z
loop_
_atom_site_type_symbol
_atom_site_label
_atom_site_fract_x
_atom_site_fract_y
_atom_site_fract_z
Si Si1 0.862726 0.500000 0.614412
Si Si2 0.769629 0.500000 0.617084
Si Si3 0.914568 0.196647 0.700411
Si Si4 0.284495 0.186076 0.383441
Si Si5 0.873790 0.201879 0.891799
Si Si6 0.000000 0.296044 0.387293
O O1 0.863317 0.500000 0.500000
O O2 0.816177 0.500000 0.647318
O O3 0.885884 0.332418 0.648985
O O4 0.769616 0.500000 0.500000
O O5 0.745112 0.334444 0.647826
O O6 0.908252 0.231572 0.813458
O O7 0.959792 0.226776 0.663127
O O8 0.903216 0.000000 0.683192
O O9 0.284420 0.189758 0.500000
O O10 0.331298 0.219372 0.357726
O O11 0.271452 0.000000 0.352857
O O12 0.866988 0.000000 0.896166
O O13 0.882803 0.260455 0.000000
O O14 0.000000 0.500000 0.381081
O O15 0.000000 0.250953 0.500000
#
# Coordination Sequence:
#
# PCOD9524412 Si02
#       6
#     8   8  16  16  16   8
#     4  11  24  41  61  86 122 164 204 262 320 357
#     4   9  18  34  53  79 118 159 203 253 306 357
#     4  11  24  41  65  94 125 154 204 255 303 368
#     4   9  16  28  53  83 111 157 210 246 289 358
#     4   9  18  36  62  90 124 164 203 246 302 361
#     4  11  23  43  70  94 120 162 203 246 305 364
#
# _framework density 19.730250000000002
#
# number of rings (size 3 to 8) (size 9 to 14) (size 15 to 20)
#    0.000    2.111    2.222    1.000    1.556    3.111 
#    0.000    3.889    0.000    3.333    0.000    0.000 
#    0.000    0.000    0.000    0.000    0.000    0.000 
#
# Total GULP energy -201122.911475 kJ/mol
# GULP energy per Si atom -5586.747541 kJ/mol
# Density = 1.968534 g / cm^3
# Si number density = 19.730250 Si / 1000 Ang^3
#
#
#
# Elastic Constant Matrix: (Units=GPa)
#
#
# Indices 1 2 3 4 5 6 
#
# 1 147.5948 73.7177 69.9366 0.0000 0.0000 0.0000
# 2 73.7177 124.3460 58.5663 0.0000 0.0000 0.0000
# 3 69.9366 58.5663 107.2307 0.0000 0.0000 0.0000
# 4 0.0000 0.0000 0.0000 26.6653 0.0000 0.0000
# 5 0.0000 0.0000 0.0000 0.0000 19.5434 0.0000
# 6 0.0000 0.0000 0.0000 0.0000 0.0000 718.4980
#
#
#
# Elastic Compliance Matrix: (Units=1/GPa)
#
#
# Indices 1 2 3 4 5 6 
#
# 1 0.011322 -0.004354 -0.005006 0.000000 0.000000 0.000000
# 2 -0.004354 0.012502 -0.003988 0.000000 0.000000 0.000000
# 3 -0.005006 -0.003988 0.014769 0.000000 0.000000 0.000000
# 4 0.000000 0.000000 0.000000 0.037502 0.000000 0.000000
# 5 0.000000 0.000000 0.000000 0.000000 0.051168 0.000000
# 6 0.000000 0.000000 0.000000 0.000000 0.000000 0.001392
#
#
# Mechanical properties :
#
#
# Convention : Reuss Voigt Hill
#
# Bulk Modulus (GPa) = 84.06499 87.06809 85.56654
# Shear Modulus (GPa) = 31.38368 164.73805 98.06087
#
# Velocity S-wave (km/s) = 3.99261 9.14748 7.05753
# Velocity P-wave (km/s) = 7.99714 12.48173 10.48208
#
# Compressibility (1/GPa) = 0.01189556
#
# Stress axis : x y z
#
# Youngs Moduli (GPa) = 88.32082 79.98696 67.70920
#
# Poissons Ratio (x) = 0.34830 0.33897
# Poissons Ratio (y) = 0.38459 0.27004
# Poissons Ratio (z) = 0.44215 0.31901
#
# Static dielectric constant tensor:
#      x y z
#    x 1.645430 0.000000 0.000000 
#    y 0.000000 1.692280 0.000000 
#    z 0.000000 0.000000 1.735390 
# 
# From -- ./inp_files/40707.got.cif
#   From: 2010.05.17/outbox.cif.g08.bks.cpg/sg71_21_cif.got.tgz:40707.got - 2010.06.03 16:22:01.
