data_PCOD9524610
_publ_section_title
;
Structure prediction by ZEFSAII (Michael W. Deem and Ramdas Pophale) SiO2 
 PCOD9524610
Probable space group: I M M M
;
_chemical_formula_sum "Si O2"
_cell_formula_units_Z 72
_cell_length_a 15.649950
_cell_length_b 7.478269
_cell_length_c 30.743662
_cell_angle_alpha 90.000000
_cell_angle_beta 90.000000
_cell_angle_gamma 90.000000
_cell_volume 3598.070215
_symmetry_space_group_name_H-M "I M M M"
_symmetry_group_IT_number 71
_symmetry_cell_setting 'orthorhombic'
loop_
_space_group_symop_operation_xyz
x,y,z
-x,-y,z
x,-y,-z
-x,y,-z
-x,-y,-z
x,y,-z
-x,y,z
x,-y,z
1/2+x,1/2+y,1/2+z
1/2-x,1/2-y,1/2+z
1/2+x,1/2-y,1/2-z
1/2-x,1/2+y,1/2-z
1/2-x,1/2-y,1/2-z
1/2+x,1/2+y,1/2-z
1/2-x,1/2+y,1/2+z
1/2+x,1/2-y,1/2+z
loop_
_atom_site_type_symbol
_atom_site_label
_atom_site_fract_x
_atom_site_fract_y
_atom_site_fract_z
Si Si1 0.233046 0.279818 0.357837
Si Si2 0.258917 0.209645 0.046618
Si Si3 0.902948 0.284350 0.713852
Si Si4 0.595680 0.288770 0.314018
Si Si5 0.596742 0.785599 0.500000
O O1 0.233282 0.500000 0.358131
O O2 0.214205 0.218143 0.406900
O O3 0.163906 0.222573 0.322197
O O4 0.326904 0.218614 0.342884
O O5 0.280518 0.000000 0.046518
O O6 0.290519 0.285890 0.000000
O O7 0.155774 0.225299 0.040534
O O8 0.903180 0.500000 0.712663
O O9 0.880789 0.231989 0.763148
O O10 0.000000 0.222742 0.705403
O O11 0.500000 0.213270 0.320219
O O12 0.590489 0.500000 0.322776
O O13 0.500000 0.719255 0.500000
O O14 0.594942 0.000000 0.500000
#
# Coordination Sequence:
#
# PCOD9524610 Si02
#       5
#    16  16  16  16   8
#     4   9  16  28  46  66  87 113 146 183 218 252
#     4   8  16  29  45  63  82 111 148 181 209 247
#     4   9  17  29  45  64  88 116 144 177 219 263
#     4   9  17  28  42  62  89 117 145 179 215 253
#     4   9  17  29  43  61  88 115 138 172 217 257
#
# _framework density 20.010725999999998
#
# number of rings (size 3 to 8) (size 9 to 14) (size 15 to 20)
#    0.667    2.556    0.000    0.667    0.000    1.778 
#    0.000    4.444    0.000    3.333    0.000    4.667 
#    0.000    0.889    0.000    0.000    0.000    0.000 
#
# Total GULP energy -200404.570669 kJ/mol
# GULP energy per Si atom -5566.793630 kJ/mol
# Density = 1.996518 g / cm^3
# Si number density = 20.010726 Si / 1000 Ang^3
#
#
#
# Elastic Constant Matrix: (Units=GPa)
#
#
# Indices 1 2 3 4 5 6 
#
# 1 38.2409 2.4953 48.1608 0.0000 0.0000 0.0000
# 2 2.4953 59.8242 1.3412 0.0000 0.0000 0.0000
# 3 48.1608 1.3412 120.6942 0.0000 0.0000 0.0000
# 4 0.0000 0.0000 0.0000 12.7892 0.0000 0.0000
# 5 0.0000 0.0000 0.0000 0.0000-1036.9259 0.0000
# 6 0.0000 0.0000 0.0000 0.0000 0.0000 2.7218
#
#
#
# Elastic Compliance Matrix: (Units=1/GPa)
#
#
# Indices 1 2 3 4 5 6 
#
# 1 0.052745 -0.001729 -0.021028 0.000000 0.000000 0.000000
# 2 -0.001729 0.016776 0.000503 0.000000 0.000000 0.000000
# 3 -0.021028 0.000503 0.016671 0.000000 0.000000 0.000000
# 4 0.000000 0.000000 0.000000 0.078191 0.000000 0.000000
# 5 0.000000 0.000000 0.000000 0.000000 -0.000964 0.000000
# 6 0.000000 0.000000 0.000000 0.000000 0.000000 0.367405
#
#
# Mechanical properties :
#
#
# Convention : Reuss Voigt Hill
#
# Bulk Modulus (GPa) = 23.98879 35.86154 29.92516
# Shear Modulus (GPa) = 8.48571 -193.16550 -92.33990
#
# Velocity S-wave (km/s) = 2.06150 -9.83568 -6.80040
# Velocity P-wave (km/s) = 4.20480 10.53695 6.83180
#
# Compressibility (1/GPa) = 0.04168614
#
# Stress axis : x y z
#
# Youngs Moduli (GPa) = 18.95898 59.60736 59.98582
#
# Poissons Ratio (x) = 0.10304 1.26138
# Poissons Ratio (y) = 0.03277 -0.03019
# Poissons Ratio (z) = 0.39867 -0.03000
#
# Static dielectric constant tensor:
#      x y z
#    x 1.702000 0.000000 0.000000 
#    y 0.000000 1.802610 0.000000 
#    z 0.000000 0.000000 1.563910 
# 
# From -- ./inp_files/65156.got.cif
#   From: 2010.05.17/outbox.cif.g08.bks.cpg/sg71_33_cif.got.tgz:65156.got - 2010.06.03 16:22:01.
