data_PCOD9524809
_publ_section_title
;
Structure prediction by ZEFSAII (Michael W. Deem and Ramdas Pophale) SiO2 
 PCOD9524809
Probable space group: I M M M
;
_chemical_formula_sum "Si O2"
_cell_formula_units_Z 44
_cell_length_a 9.000000
_cell_length_b 18.000000
_cell_length_c 30.000000
_cell_angle_alpha 90.000000
_cell_angle_beta 90.000000
_cell_angle_gamma 90.000000
_cell_volume 4860.000000
_symmetry_space_group_name_H-M "I M M M"
_symmetry_group_IT_number 71
_symmetry_cell_setting 'orthorhombic'
loop_
_space_group_symop_operation_xyz
x,y,z
-x,-y,z
x,-y,-z
-x,y,-z
-x,-y,-z
x,y,-z
-x,y,z
x,-y,z
1/2+x,1/2+y,1/2+z
1/2-x,1/2-y,1/2+z
1/2+x,1/2-y,1/2-z
1/2-x,1/2+y,1/2-z
1/2-x,1/2-y,1/2-z
1/2+x,1/2+y,1/2-z
1/2-x,1/2+y,1/2+z
1/2+x,1/2-y,1/2+z
loop_
_atom_site_type_symbol
_atom_site_label
_atom_site_fract_x
_atom_site_fract_y
_atom_site_fract_z
Si Si1 0.665342 0.640325 0.082002
Si Si2 0.673757 0.917137 0.500000
Si Si3 0.821836 0.087414 0.050227
Si Si4 0.330307 0.806387 0.120690
Si Si5 0.172980 0.259685 0.203600
Si Si6 0.329099 0.919931 0.337287
O O1 0.500000 0.622350 0.067037
O O2 0.670581 0.725095 0.097987
O O3 0.715944 0.588530 0.122373
O O4 0.777156 0.627286 0.042734
O O5 0.500000 0.924665 0.500000
O O6 0.741266 0.000000 0.500000
O O7 0.745542 0.135975 0.087728
O O8 0.000000 0.095784 0.052830
O O9 0.788551 0.000000 0.055422
O O10 0.775419 0.109757 0.000000
O O11 0.500000 0.827803 0.129236
O O12 0.244796 0.792715 0.166461
O O13 0.250000 0.250000 0.250000
O O14 0.191828 0.346303 0.191087
O O15 0.000000 0.243562 0.206009
O O16 0.500000 0.916810 0.354334
O O17 0.310608 0.000000 0.314736
#
# Coordination Sequence:
#
# PCOD9524809 Si02
#       6
#    16   8  16  16  16  16
#     4  10  21  34  49  73 104 136 172 215 259 303
#     4  11  23  35  47  67  98 137 178 215 253 300
#     4   9  19  36  57  82 112 146 185 230 280 333
#     4  10  21  36  55  80 109 141 180 222 268 326
#     4  10  20  36  58  81 108 141 178 224 278 331
#     4   9  18  34  55  77 101 132 172 214 259 314
#
# _framework density 9.0534979999999994
#
# number of rings (size 3 to 8) (size 9 to 14) (size 15 to 20)
#    0.000    2.273    0.000    3.000    1.273    6.909 
#    0.000    1.818    0.000    3.273    0.000    0.000 
#    0.000    0.000    0.000    0.000    0.000    0.000 
#
# Total GULP energy -245197.300069 kJ/mol
# GULP energy per Si atom -5572.665911 kJ/mol
# Density = 0.903289 g / cm^3
# Si number density = 9.053498 Si / 1000 Ang^3
#
#
#
# Elastic Constant Matrix: (Units=GPa)
#
#
# Indices 1 2 3 4 5 6 
#
# 1 79.8658 58.9746 91.1929 0.0000 0.0000 0.0000
# 2 58.9746 58.4871 56.1216 0.0000 0.0000 0.0000
# 3 91.1929 56.1216 123.9241 0.0000 0.0000 0.0000
# 4 0.0000 0.0000 0.0000 -56.3075 -0.0001 0.0000
# 5 0.0000 0.0000 0.0000 -0.0001 283.0386 0.0000
# 6 0.0000 0.0000 0.0000 0.0000 0.0000 22.4298
#
#
#
# Elastic Compliance Matrix: (Units=1/GPa)
#
#
# Indices 1 2 3 4 5 6 
#
# 1 0.301980 -0.161403 -0.149125 0.000000 0.000000 0.000000
# 2 -0.161403 0.116505 0.066011 0.000000 0.000000 0.000000
# 3 -0.149125 0.066011 0.087913 0.000000 0.000000 0.000000
# 4 0.000000 0.000000 0.000000 -0.017760 0.000000 0.000000
# 5 0.000000 0.000000 0.000000 0.000000 0.003533 0.000000
# 6 0.000000 0.000000 0.000000 0.000000 0.000000 0.044584
#
#
# Mechanical properties :
#
#
# Convention : Reuss Voigt Hill
#
# Bulk Modulus (GPa) = 57.59328 74.98391 66.28859
# Shear Modulus (GPa) = 4.84695 53.56471 29.20583
#
# Velocity S-wave (km/s) = 1.63788 5.44486 4.02052
# Velocity P-wave (km/s) = 5.95425 9.00168 7.63162
#
# Compressibility (1/GPa) = 0.01736314
#
# Stress axis : x y z
#
# Youngs Moduli (GPa) = 3.31148 8.58330 11.37492
#
# Poissons Ratio (x) = 1.38537 1.69629
# Poissons Ratio (y) = 0.53448 -0.75087
# Poissons Ratio (z) = 0.49382 -0.56659
#
# Static dielectric constant tensor:
#      x y z
#    x 1.628340 0.000000 0.000000 
#    y 0.000000 1.601840 0.000000 
#    z 0.000000 0.000000 1.588850 
# 
# From -- ./inp_files/8756.got.cif
#   From: 2010.05.17/outbox.ucp.g08.bks.cvg/sg71_5_cif.got.tgz:8756.got - 2010.06.11 16:29:00.
