data_PCOD9524206
_publ_section_title
;
Structure prediction by ZEFSAII (Michael W. Deem and Ramdas Pophale) SiO2 
 PCOD9524206
Probable space group: I M M M
;
_chemical_formula_sum "Si O2"
_cell_formula_units_Z 60
_cell_length_a 11.886946
_cell_length_b 15.053666
_cell_length_c 17.537142
_cell_angle_alpha 90.000000
_cell_angle_beta 90.000000
_cell_angle_gamma 90.000000
_cell_volume 3138.133278
_symmetry_space_group_name_H-M "I M M M"
_symmetry_group_IT_number 71
_symmetry_cell_setting 'orthorhombic'
loop_
_space_group_symop_operation_xyz
x,y,z
-x,-y,z
x,-y,-z
-x,y,-z
-x,-y,-z
x,y,-z
-x,y,z
x,-y,z
1/2+x,1/2+y,1/2+z
1/2-x,1/2-y,1/2+z
1/2+x,1/2-y,1/2-z
1/2-x,1/2+y,1/2-z
1/2-x,1/2-y,1/2-z
1/2+x,1/2+y,1/2-z
1/2-x,1/2+y,1/2+z
1/2+x,1/2-y,1/2+z
loop_
_atom_site_type_symbol
_atom_site_label
_atom_site_fract_x
_atom_site_fract_y
_atom_site_fract_z
Si Si1 0.000000 0.808406 0.090449
Si Si2 0.800827 0.314992 0.850372
Si Si3 0.500000 0.500000 0.383684
Si Si4 0.628552 0.000000 0.409889
Si Si5 0.866802 0.669834 0.672593
Si Si6 0.263284 0.000000 0.913225
O O1 0.107023 0.748114 0.109551
O O2 0.000000 0.896591 0.143612
O O3 0.000000 0.833713 0.000000
O O4 0.807685 0.411737 0.885653
O O5 0.835044 0.328285 0.762043
O O6 0.684505 0.262280 0.857590
O O7 0.627251 0.500000 0.416983
O O8 0.500000 0.000000 0.377263
O O9 0.617866 0.000000 0.500000
O O10 0.806794 0.587027 0.631142
O O11 0.000000 0.662901 0.663491
O O12 0.306013 0.000000 0.000000
#
# Coordination Sequence:
#
# PCOD9524206 Si02
#       6
#     8  16   4   8  16   8
#     4  12  21  39  68  97 127 160 204 266 322 364
#     4  11  23  40  64  93 126 164 210 258 314 374
#     4  12  25  40  64 102 136 156 205 276 321 360
#     4  11  21  36  62  94 121 153 205 265 311 355
#     4  11  24  42  63  89 129 169 208 256 310 383
#     4  12  25  41  65  95 126 170 215 262 323 378
#
# _framework density 19.119647000000001
#
# number of rings (size 3 to 8) (size 9 to 14) (size 15 to 20)
#    0.000    0.667    5.333    3.200    0.000    2.133 
#    0.000    0.667    0.000    0.800    0.000    0.000 
#    0.000    0.000    0.000    0.000    0.000    0.000 
#
# Total GULP energy -167387.369116 kJ/mol
# GULP energy per Si atom -5579.578971 kJ/mol
# Density = 1.907613 g / cm^3
# Si number density = 19.119647 Si / 1000 Ang^3
#
#
#
# Elastic Constant Matrix: (Units=GPa)
#
#
# Indices 1 2 3 4 5 6 
#
# 1 124.4373 58.2020 39.6216 0.0000 0.0000 0.0000
# 2 58.2020 188.3807 40.6293 0.0000 0.0000 0.0000
# 3 39.6216 40.6293 65.5173 0.0000 0.0000 0.0000
# 4 0.0000 0.0000 0.0000 15.5915 0.0000 0.0000
# 5 0.0000 0.0000 0.0000 0.0000 14.5844 0.0000
# 6 0.0000 0.0000 0.0000 0.0000 0.0000 59.5138
#
#
#
# Elastic Compliance Matrix: (Units=1/GPa)
#
#
# Indices 1 2 3 4 5 6 
#
# 1 0.010690 -0.002203 -0.005099 0.000000 0.000000 0.000000
# 2 -0.002203 0.006582 -0.002749 0.000000 0.000000 0.000000
# 3 -0.005099 -0.002749 0.020051 0.000000 0.000000 0.000000
# 4 0.000000 0.000000 0.000000 0.064137 0.000000 0.000000
# 5 0.000000 0.000000 0.000000 0.000000 0.068566 0.000000
# 6 0.000000 0.000000 0.000000 0.000000 0.000000 0.016803
#
#
# Mechanical properties :
#
#
# Convention : Reuss Voigt Hill
#
# Bulk Modulus (GPa) = 58.06734 72.80458 65.43596
# Shear Modulus (GPa) = 23.51029 33.93011 28.72020
#
# Velocity S-wave (km/s) = 3.51043 4.21719 3.87994
# Velocity P-wave (km/s) = 6.84597 7.86601 7.37365
#
# Compressibility (1/GPa) = 0.01722138
#
# Stress axis : x y z
#
# Youngs Moduli (GPa) = 93.54495 151.92806 49.87167
#
# Poissons Ratio (x) = 0.33472 0.25427
# Poissons Ratio (y) = 0.20609 0.13712
# Poissons Ratio (z) = 0.47694 0.41771
#
# Static dielectric constant tensor:
#      x y z
#    x 1.657810 0.000000 0.000000 
#    y 0.000000 1.657940 0.000000 
#    z 0.000000 0.000000 1.684280 
# 
# From -- ./inp_files/51470.got.cif
#   From: 2010.05.17/outbox.cif.g08.bks.cpg/sg71_26_cif.got.tgz:51470.got - 2010.06.03 16:22:01.
