data_PCOD9524641
_publ_section_title
;
Structure prediction by ZEFSAII (Michael W. Deem and Ramdas Pophale) SiO2 
 PCOD9524641
Probable space group: I M M M
;
_chemical_formula_sum "Si O2"
_cell_formula_units_Z 104
_cell_length_a 21.497427
_cell_length_b 7.484574
_cell_length_c 32.608420
_cell_angle_alpha 90.000000
_cell_angle_beta 90.000000
_cell_angle_gamma 90.000000
_cell_volume 5246.664882
_symmetry_space_group_name_H-M "I M M M"
_symmetry_group_IT_number 71
_symmetry_cell_setting 'orthorhombic'
loop_
_space_group_symop_operation_xyz
x,y,z
-x,-y,z
x,-y,-z
-x,y,-z
-x,-y,-z
x,y,-z
-x,y,z
x,-y,z
1/2+x,1/2+y,1/2+z
1/2-x,1/2-y,1/2+z
1/2+x,1/2-y,1/2-z
1/2-x,1/2+y,1/2-z
1/2-x,1/2-y,1/2-z
1/2+x,1/2+y,1/2-z
1/2-x,1/2+y,1/2+z
1/2+x,1/2-y,1/2+z
loop_
_atom_site_type_symbol
_atom_site_label
_atom_site_fract_x
_atom_site_fract_y
_atom_site_fract_z
Si Si1 0.430613 0.213523 0.228313
Si Si2 0.629563 0.717090 0.915527
Si Si3 0.431450 0.714900 0.324919
Si Si4 0.256897 0.785409 0.545000
Si Si5 0.693991 0.713189 0.634720
Si Si6 0.679543 0.794721 0.827228
Si Si7 0.000000 0.218207 0.453054
O O1 0.500000 0.281494 0.216195
O O2 0.423791 0.244797 0.276755
O O3 0.370232 0.286129 0.204456
O O4 0.431705 0.000000 0.220968
O O5 0.630163 0.500000 0.912969
O O6 0.685739 0.769786 0.945662
O O7 0.645196 0.790928 0.870979
O O8 0.562805 0.775745 0.931089
O O9 0.500000 0.781735 0.337448
O O10 0.432471 0.500000 0.329292
O O11 0.372163 0.783248 0.349905
O O12 0.277197 0.719304 0.500000
O O13 0.294215 0.738854 0.586284
O O14 0.257479 0.000000 0.543308
O O15 0.694551 0.500000 0.641183
O O16 0.752676 0.784844 0.661398
O O17 0.690344 0.000000 0.814033
O O18 0.000000 0.275143 0.500000
O O19 0.000000 0.000000 0.452842
#
# Coordination Sequence:
#
# PCOD9524641 Si02
#       7
#    16  16  16  16  16  16   8
#     4   9  18  31  46  65  91 125 159 186 220 269
#     4   9  17  28  43  64  88 118 155 193 229 266
#     4   9  18  33  51  70  92 118 148 186 231 275
#     4   9  17  30  48  69  93 120 151 187 226 269
#     4   9  18  32  49  70  94 119 150 187 229 274
#     4   9  18  31  45  64  92 123 153 188 228 267
#     4   9  16  26  41  61  85 115 153 195 235 269
#
# _framework density 19.822116000000001
#
# number of rings (size 3 to 8) (size 9 to 14) (size 15 to 20)
#    0.000    3.000    0.000    0.462    1.077    4.000 
#    0.000    0.000    0.000    2.308    0.000    3.231 
#    0.000    0.000    0.000    0.000    0.000    0.000 
#
# Total GULP energy -289837.873924 kJ/mol
# GULP energy per Si atom -5573.805268 kJ/mol
# Density = 1.977700 g / cm^3
# Si number density = 19.822116 Si / 1000 Ang^3
#
#
#
# Elastic Constant Matrix: (Units=GPa)
#
#
# Indices 1 2 3 4 5 6 
#
# 1 199.5836 9.6300 99.7490 0.0000 0.0000 0.0000
# 2 9.6300 56.3978 -2.2231 0.0000 0.0000 0.0000
# 3 99.7490 -2.2231 81.4509 0.0000 0.0000 0.0000
# 4 0.0000 0.0000 0.0000 22.0022 0.0000 0.0000
# 5 0.0000 0.0000 0.0000 0.0000 10.6285 0.0000
# 6 0.0000 0.0000 0.0000 0.0000 0.0000 32.7547
#
#
#
# Elastic Compliance Matrix: (Units=1/GPa)
#
#
# Indices 1 2 3 4 5 6 
#
# 1 0.013384 -0.002935 -0.016471 0.000000 0.000000 0.000000
# 2 -0.002935 0.018394 0.004096 0.000000 0.000000 0.000000
# 3 -0.016471 0.004096 0.032560 0.000000 0.000000 0.000000
# 4 0.000000 0.000000 0.000000 0.045450 0.000000 0.000000
# 5 0.000000 0.000000 0.000000 0.000000 0.094087 0.000000
# 6 0.000000 0.000000 0.000000 0.000000 0.000000 0.030530
#
#
# Mechanical properties :
#
#
# Convention : Reuss Voigt Hill
#
# Bulk Modulus (GPa) = 29.65707 61.30490 45.48099
# Shear Modulus (GPa) = 18.09874 28.42884 23.26379
#
# Velocity S-wave (km/s) = 3.02496 3.79119 3.42954
# Velocity P-wave (km/s) = 5.21485 7.08229 6.21906
#
# Compressibility (1/GPa) = 0.03371877
#
# Stress axis : x y z
#
# Youngs Moduli (GPa) = 74.71738 54.36640 30.71271
#
# Poissons Ratio (x) = 0.15954 0.50586
# Poissons Ratio (y) = 0.21926 -0.12579
# Poissons Ratio (z) = 1.23064 -0.22268
#
# Static dielectric constant tensor:
#      x y z
#    x 1.732390 0.000000 0.000000 
#    y 0.000000 1.754320 0.000000 
#    z 0.000000 0.000000 1.665710 
# 
# From -- ./inp_files/51176.got.cif
#   From: 2010.05.17/outbox.cif.g08.bks.cpg/sg71_26_cif.got.tgz:51176.got - 2010.06.03 16:22:01.
