data_PCOD9524006
_publ_section_title
;
Structure prediction by ZEFSAII (Michael W. Deem and Ramdas Pophale) SiO2 
 PCOD9524006
Probable space group: I M M M
;
_chemical_formula_sum "Si O2"
_cell_formula_units_Z 80
_cell_length_a 24.889810
_cell_length_b 10.234715
_cell_length_c 23.373445
_cell_angle_alpha 90.000000
_cell_angle_beta 90.000000
_cell_angle_gamma 90.000000
_cell_volume 5954.153991
_symmetry_space_group_name_H-M "I M M M"
_symmetry_group_IT_number 71
_symmetry_cell_setting 'orthorhombic'
loop_
_space_group_symop_operation_xyz
x,y,z
-x,-y,z
x,-y,-z
-x,y,-z
-x,-y,-z
x,y,-z
-x,y,z
x,-y,z
1/2+x,1/2+y,1/2+z
1/2-x,1/2-y,1/2+z
1/2+x,1/2-y,1/2-z
1/2-x,1/2+y,1/2-z
1/2-x,1/2-y,1/2-z
1/2+x,1/2+y,1/2-z
1/2-x,1/2+y,1/2+z
1/2+x,1/2-y,1/2+z
loop_
_atom_site_type_symbol
_atom_site_label
_atom_site_fract_x
_atom_site_fract_y
_atom_site_fract_z
Si Si1 0.935938 0.500000 0.934085
Si Si2 0.828467 0.652226 0.767845
Si Si3 0.208046 0.850886 0.322114
Si Si4 0.376911 0.753349 0.616963
Si Si5 0.935501 0.000000 0.068846
Si Si6 0.766940 0.655286 0.934083
O O1 0.912530 0.626325 0.904003
O O2 0.000000 0.500000 0.932927
O O3 0.917749 0.500000 0.000000
O O4 0.844193 0.500000 0.759363
O O5 0.825342 0.741576 0.711436
O O6 0.767792 0.648585 0.793749
O O7 0.863905 0.723217 0.816326
O O8 0.219760 0.819796 0.388516
O O9 0.187216 0.000000 0.316542
O O10 0.407901 0.624443 0.598270
O O11 0.319600 0.765145 0.584580
O O12 0.000000 0.000000 0.076796
O O13 0.925836 0.000000 0.000000
O O14 0.780459 0.500000 0.927756
O O15 0.753292 0.679281 0.000000
#
# Coordination Sequence:
#
# PCOD9524006 Si02
#       6
#     8  16  16  16   8  16
#     4  11  20  30  46  61  74  98 135 176 215 251
#     4   9  16  28  42  60  79  98 132 172 202 236
#     4   8  15  25  40  60  81 106 129 159 204 241
#     4  11  19  31  45  60  76 104 140 176 210 246
#     4  11  24  36  42  55  82 108 133 174 225 261
#     4   9  15  26  44  64  84 106 139 175 200 233
#
# _framework density 13.435998
#
# number of rings (size 3 to 8) (size 9 to 14) (size 15 to 20)
#    0.000    2.400    2.000    3.600    1.400    1.600 
#    5.400    0.000    0.000    0.000    0.000    0.000 
#    0.000    0.000    0.000    0.000    0.000    6.000 
#
# Total GULP energy -222788.268625 kJ/mol
# GULP energy per Si atom -5569.706716 kJ/mol
# Density = 1.340542 g / cm^3
# Si number density = 13.435998 Si / 1000 Ang^3
#
#
#
# Elastic Constant Matrix: (Units=GPa)
#
#
# Indices 1 2 3 4 5 6 
#
# 1 35.3520 41.0153 39.9111 0.0000 0.0000 0.0000
# 2 41.0153 120.1862 65.5763 0.0000 0.0000 0.0000
# 3 39.9111 65.5763 114.9465 0.0000 0.0000 0.0000
# 4 0.0000 0.0000 0.0000 22.2386 0.0000 0.0000
# 5 0.0000 0.0000 0.0000 0.0000 20.5233 0.0000
# 6 0.0000 0.0000 0.0000 0.0000 0.0000 37.8427
#
#
#
# Elastic Compliance Matrix: (Units=1/GPa)
#
#
# Indices 1 2 3 4 5 6 
#
# 1 0.057234 -0.012616 -0.012675 0.000000 0.000000 0.000000
# 2 -0.012616 0.014862 -0.004098 0.000000 0.000000 0.000000
# 3 -0.012675 -0.004098 0.015439 0.000000 0.000000 0.000000
# 4 0.000000 0.000000 0.000000 0.044967 0.000000 0.000000
# 5 0.000000 0.000000 0.000000 0.000000 0.048725 0.000000
# 6 0.000000 0.000000 0.000000 0.000000 0.000000 0.026425
#
#
# Mechanical properties :
#
#
# Convention : Reuss Voigt Hill
#
# Bulk Modulus (GPa) = 34.77556 62.60999 48.69278
# Shear Modulus (GPa) = 18.11495 24.38638 21.25067
#
# Velocity S-wave (km/s) = 3.67582 4.26491 3.98128
# Velocity P-wave (km/s) = 6.62979 8.42333 7.57979
#
# Compressibility (1/GPa) = 0.02875583
#
# Stress axis : x y z
#
# Youngs Moduli (GPa) = 17.47220 67.28630 64.77274
#
# Poissons Ratio (x) = 0.84889 0.82099
# Poissons Ratio (y) = 0.22043 0.26545
# Poissons Ratio (z) = 0.22146 0.27575
#
# Static dielectric constant tensor:
#      x y z
#    x 1.413430 0.000000 0.000000 
#    y 0.000000 1.416890 0.000000 
#    z 0.000000 0.000000 1.456580 
# 
# From -- ./inp_files/12745.got.cif
#   From: 2010.05.17/outbox.cif.g08.bks.cpg/sg71_7_cif.got.tgz:12745.got - 2010.06.03 16:22:01.
