data_PCOD9524920
_publ_section_title
;
Structure prediction by ZEFSAII (Michael W. Deem and Ramdas Pophale) SiO2 
 PCOD9524920
Probable space group: I B A M
;
_chemical_formula_sum "Si O2"
_cell_formula_units_Z 64
_cell_length_a 5.424828
_cell_length_b 18.538829
_cell_length_c 30.743098
_cell_angle_alpha 90.000000
_cell_angle_beta 90.000000
_cell_angle_gamma 90.000000
_cell_volume 3091.832095
_symmetry_space_group_name_H-M "I B A M"
_symmetry_group_IT_number 72
_symmetry_cell_setting 'orthorhombic'
loop_
_space_group_symop_operation_xyz
x,y,z
-x,-y,z
x,-y,1/2-z
-x,y,1/2-z
-x,-y,-z
x,y,-z
-x,y,1/2+z
x,-y,1/2+z
1/2+x,1/2+y,1/2+z
1/2-x,1/2-y,1/2+z
1/2+x,1/2-y,-z
1/2-x,1/2+y,-z
1/2-x,1/2-y,1/2-z
1/2+x,1/2+y,1/2-z
1/2-x,1/2+y,z
1/2+x,1/2-y,z
loop_
_atom_site_type_symbol
_atom_site_label
_atom_site_fract_x
_atom_site_fract_y
_atom_site_fract_z
Si Si1 0.747296 0.452929 0.366779
Si Si2 0.785939 0.212821 0.447822
Si Si3 0.452213 0.085193 0.451770
Si Si4 0.248773 0.083810 0.731791
O O1 0.500000 0.500000 0.370088
O O2 0.775678 0.406344 0.410527
O O3 0.740238 0.415194 0.320120
O O4 0.000000 0.500000 0.364816
O O5 0.800669 0.221956 0.500000
O O6 0.547088 0.257903 0.431366
O O7 0.699866 0.130107 0.441883
O O8 0.360569 0.108655 0.500000
O O9 0.500000 0.000000 0.454901
O O10 0.500000 0.116192 0.750000
O O11 0.000000 0.117438 0.750000
O O12 0.248689 0.000000 0.750000
#
# Coordination Sequence:
#
# PCOD9524920 Si02
#       4
#    16  16  16  16
#     4  11  19  29  45  68  98 135 163 199 252 310
#     4   9  18  34  54  71  93 133 180 214 243 291
#     4   9  20  35  51  76 110 141 169 210 260 306
#     4  10  15  26  43  62  89 128 158 201 246 299
#
# _framework density 20.699701999999998
#
# number of rings (size 3 to 8) (size 9 to 14) (size 15 to 20)
#    0.000    2.250    5.000    0.000    0.000    4.500 
#    0.000    7.500    0.000    0.000    0.000    0.000 
#    0.000    6.000    0.000    0.000    0.000    0.000 
#
# Total GULP energy -178285.647744 kJ/mol
# GULP energy per Si atom -5571.426492 kJ/mol
# Density = 2.065259 g / cm^3
# Si number density = 20.699702 Si / 1000 Ang^3
#
#
#
# Elastic Constant Matrix: (Units=GPa)
#
#
# Indices 1 2 3 4 5 6 
#
# 1 156.9001 11.0105 32.7092 0.0000 0.0000 0.0000
# 2 11.0105 75.8590 -13.2801 0.0000 0.0000 0.0000
# 3 32.7092 -13.2801 166.2294 0.0000 0.0000 0.0000
# 4 0.0000 0.0000 0.0000 -0.5573 0.0000 0.0000
# 5 0.0000 0.0000 0.0000 0.0000 148.6686 0.0000
# 6 0.0000 0.0000 0.0000 0.0000 0.0000 18.1525
#
#
#
# Elastic Compliance Matrix: (Units=1/GPa)
#
#
# Indices 1 2 3 4 5 6 
#
# 1 0.006758 -0.001231 -0.001428 0.000000 0.000000 0.000000
# 2 -0.001231 0.013594 0.001328 0.000000 0.000000 0.000000
# 3 -0.001428 0.001328 0.006403 0.000000 0.000000 0.000000
# 4 0.000000 0.000000 0.000000 -1.794327 0.000000 0.000000
# 5 0.000000 0.000000 0.000000 0.000000 0.006726 0.000000
# 6 0.000000 0.000000 0.000000 0.000000 0.000000 0.055089
#
#
# Mechanical properties :
#
#
# Convention : Reuss Voigt Hill
#
# Bulk Modulus (GPa) = 41.50647 51.09641 46.30144
# Shear Modulus (GPa) = -2.94974 57.82270 27.43648
#
# Velocity S-wave (km/s) = -1.19503 5.29100 3.64463
# Velocity P-wave (km/s) = 4.26510 7.87810 6.33465
#
# Compressibility (1/GPa) = 0.02409263
#
# Stress axis : x y z
#
# Youngs Moduli (GPa) = 147.98248 73.56453 156.17960
#
# Poissons Ratio (x) = 0.09054 0.22303
# Poissons Ratio (y) = 0.18214 -0.20743
# Poissons Ratio (z) = 0.21132 -0.09771
#
# Static dielectric constant tensor:
#      x y z
#    x 1.780780 0.000000 0.000000 
#    y 0.000000 1.792490 0.000000 
#    z 0.000000 0.000000 1.770490 
# 
# From -- ./inp_files/50159.got.cif
#   From: 2010.05.17/outbox.cif.g08.bks.cpg/sg72_26_cif.got.tgz:50159.got - 2010.06.03 17:03:01.
