data_PCOD9524475
_publ_section_title
;
Structure prediction by ZEFSAII (Michael W. Deem and Ramdas Pophale) SiO2 
 PCOD9524475
Probable space group: I M M M
;
_chemical_formula_sum "Si O2"
_cell_formula_units_Z 96
_cell_length_a 8.852191
_cell_length_b 20.230957
_cell_length_c 29.956914
_cell_angle_alpha 90.000000
_cell_angle_beta 90.000000
_cell_angle_gamma 90.000000
_cell_volume 5364.932666
_symmetry_space_group_name_H-M "I M M M"
_symmetry_group_IT_number 71
_symmetry_cell_setting 'orthorhombic'
loop_
_space_group_symop_operation_xyz
x,y,z
-x,-y,z
x,-y,-z
-x,y,-z
-x,-y,-z
x,y,-z
-x,y,z
x,-y,z
1/2+x,1/2+y,1/2+z
1/2-x,1/2-y,1/2+z
1/2+x,1/2-y,1/2-z
1/2-x,1/2+y,1/2-z
1/2-x,1/2-y,1/2-z
1/2+x,1/2+y,1/2-z
1/2-x,1/2+y,1/2+z
1/2+x,1/2-y,1/2+z
loop_
_atom_site_type_symbol
_atom_site_label
_atom_site_fract_x
_atom_site_fract_y
_atom_site_fract_z
Si Si1 0.681576 0.429370 0.446328
Si Si2 0.822112 0.204264 0.627934
Si Si3 0.680755 0.715375 0.446761
Si Si4 0.179839 0.211919 0.792609
Si Si5 0.321167 0.924549 0.335764
Si Si6 0.180370 0.425204 0.271076
O O1 0.704769 0.429671 0.500000
O O2 0.500000 0.429469 0.439863
O O3 0.741073 0.500000 0.428733
O O4 0.735192 0.357687 0.430527
O O5 0.766840 0.228629 0.579904
O O6 0.736568 0.249914 0.663879
O O7 0.774066 0.129643 0.638598
O O8 0.000000 0.212509 0.633190
O O9 0.702876 0.719140 0.500000
O O10 0.500000 0.719869 0.438738
O O11 0.250000 0.250000 0.750000
O O12 0.234669 0.136032 0.793011
O O13 0.000000 0.214875 0.789471
O O14 0.500000 0.912607 0.342817
O O15 0.295114 0.919101 0.282421
O O16 0.287450 0.000000 0.348636
O O17 0.226275 0.500000 0.284313
O O18 0.000000 0.419260 0.278508
#
# Coordination Sequence:
#
# PCOD9524475 Si02
#       6
#    16  16  16  16  16  16
#     4   7  10  20  43  74 101 125 162 214 265 310
#     4  12  24  36  54  81 112 148 185 225 274 325
#     4   9  18  34  56  80 107 142 183 229 281 333
#     4  12  23  36  55  80 111 145 184 227 270 321
#     4   9  18  34  57  82 108 139 176 222 273 327
#     4   9  18  34  56  81 111 146 181 222 275 329
#
# _framework density 17.893981
#
# number of rings (size 3 to 8) (size 9 to 14) (size 15 to 20)
#    0.000    2.333    1.667    5.500    0.000    1.000 
#    0.000    2.500    0.000    4.000    0.000    5.833 
#    0.000    0.000    0.000    0.000    0.000    0.000 
#
# Total GULP energy -267719.949599 kJ/mol
# GULP energy per Si atom -5577.498950 kJ/mol
# Density = 1.785325 g / cm^3
# Si number density = 17.893981 Si / 1000 Ang^3
#
#
#
# Elastic Constant Matrix: (Units=GPa)
#
#
# Indices 1 2 3 4 5 6 
#
# 1 76.0529 61.4411 27.2375 0.0000 0.0000 0.0000
# 2 61.4411 114.3490 26.7607 0.0000 0.0000 0.0000
# 3 27.2375 26.7607 20.7541 0.0000 0.0000 0.0000
# 4 0.0000 0.0000 0.0000 19.8404 0.0000 0.0000
# 5 0.0000 0.0000 0.0000 0.0000 15.8860 0.0000
# 6 0.0000 0.0000 0.0000 0.0000 0.0000 24.8294
#
#
#
# Elastic Compliance Matrix: (Units=1/GPa)
#
#
# Indices 1 2 3 4 5 6 
#
# 1 0.031616 -0.010422 -0.028053 0.000000 0.000000 0.000000
# 2 -0.010422 0.015960 -0.006901 0.000000 0.000000 0.000000
# 3 -0.028053 -0.006901 0.093899 0.000000 0.000000 0.000000
# 4 0.000000 0.000000 0.000000 0.050402 0.000000 0.000000
# 5 0.000000 0.000000 0.000000 0.000000 0.062948 0.000000
# 6 0.000000 0.000000 0.000000 0.000000 0.000000 0.040275
#
#
# Mechanical properties :
#
#
# Convention : Reuss Voigt Hill
#
# Bulk Modulus (GPa) = 19.71577 49.11495 34.41536
# Shear Modulus (GPa) = 12.41431 18.49230 15.45330
#
# Velocity S-wave (km/s) = 2.63681 3.21820 2.94190
# Velocity P-wave (km/s) = 4.50692 6.42778 5.55107
#
# Compressibility (1/GPa) = 0.05072081
#
# Stress axis : x y z
#
# Youngs Moduli (GPa) = 31.63003 62.65582 10.64973
#
# Poissons Ratio (x) = 0.65301 0.29876
# Poissons Ratio (y) = 0.32965 0.07350
# Poissons Ratio (z) = 0.88733 0.43242
#
# Static dielectric constant tensor:
#      x y z
#    x 1.590260 0.000000 0.000000 
#    y 0.000000 1.644100 0.000000 
#    z 0.000000 0.000000 1.611620 
# 
# From -- ./inp_files/56137.got.cif
#   From: 2010.05.17/outbox.cif.g08.bks.cpg/sg71_29_cif.got.tgz:56137.got - 2010.06.03 16:22:01.
