data_PCOD9524632
_publ_section_title
;
Structure prediction by ZEFSAII (Michael W. Deem and Ramdas Pophale) SiO2 
 PCOD9524632
Probable space group: I M M M
;
_chemical_formula_sum "Si O2"
_cell_formula_units_Z 88
_cell_length_a 18.845989
_cell_length_b 7.513129
_cell_length_c 28.698329
_cell_angle_alpha 90.000000
_cell_angle_beta 90.000000
_cell_angle_gamma 90.000000
_cell_volume 4063.463743
_symmetry_space_group_name_H-M "I M M M"
_symmetry_group_IT_number 71
_symmetry_cell_setting 'orthorhombic'
loop_
_space_group_symop_operation_xyz
x,y,z
-x,-y,z
x,-y,-z
-x,y,-z
-x,-y,-z
x,y,-z
-x,y,z
x,-y,z
1/2+x,1/2+y,1/2+z
1/2-x,1/2-y,1/2+z
1/2+x,1/2-y,1/2-z
1/2-x,1/2+y,1/2-z
1/2-x,1/2-y,1/2-z
1/2+x,1/2+y,1/2-z
1/2-x,1/2+y,1/2+z
1/2+x,1/2-y,1/2+z
loop_
_atom_site_type_symbol
_atom_site_label
_atom_site_fract_x
_atom_site_fract_y
_atom_site_fract_z
Si Si1 0.000000 0.703311 0.444794
Si Si2 0.350305 0.205243 0.651109
Si Si3 0.579124 0.781392 0.741264
Si Si4 0.693891 0.792191 0.449012
Si Si5 0.802134 0.708884 0.313010
Si Si6 0.849181 0.290680 0.581684
O O1 0.925332 0.786892 0.430972
O O2 0.000000 0.500000 0.424604
O O3 0.000000 0.690380 0.500000
O O4 0.405288 0.280004 0.688499
O O5 0.337839 0.284939 0.599471
O O6 0.274806 0.207480 0.678435
O O7 0.370292 0.000000 0.643711
O O8 0.500000 0.729447 0.756533
O O9 0.643450 0.721235 0.774467
O O10 0.581078 0.000000 0.741935
O O11 0.675981 0.714923 0.500000
O O12 0.779000 0.785620 0.442069
O O13 0.673904 0.000000 0.450233
O O14 0.789197 0.500000 0.303386
O O15 0.839489 0.723606 0.363083
O O16 0.849408 0.500000 0.568529
#
# Coordination Sequence:
#
# PCOD9524632 Si02
#       6
#     8  16  16  16  16  16
#     4   9  16  24  35  53  79 109 137 169 208 244
#     4   9  17  30  47  65  87 116 146 178 215 257
#     4   9  17  28  45  68  91 115 144 177 215 260
#     4   9  17  29  44  61  82 109 142 178 215 254
#     4   9  17  28  45  67  88 113 144 179 214 252
#     4   9  17  27  41  61  84 109 140 177 212 250
#
# _framework density 21.656400000000001
#
# number of rings (size 3 to 8) (size 9 to 14) (size 15 to 20)
#    0.000    3.000    0.000    1.091    1.273    1.091 
#    0.000    0.455    0.000    4.364    0.000    3.818 
#    0.000    0.000    0.000    9.091    0.000    9.455 
#
# Total GULP energy -245251.336394 kJ/mol
# GULP energy per Si atom -5573.894009 kJ/mol
# Density = 2.160711 g / cm^3
# Si number density = 21.656400 Si / 1000 Ang^3
#
#
#
# Elastic Constant Matrix: (Units=GPa)
#
#
# Indices 1 2 3 4 5 6 
#
# 1 10.0141 -2.5930 5.1975 0.0000 0.0000 0.0000
# 2 -2.5930 53.5703 12.1149 0.0000 0.0000 0.0000
# 3 5.1975 12.1149 101.6290 0.0000 0.0000 0.0000
# 4 0.0000 0.0000 0.0000 3.0583 0.0000 0.0000
# 5 0.0000 0.0000 0.0000 0.0000 10.2397 0.0000
# 6 0.0000 0.0000 0.0000 0.0000 0.0000 8.2450
#
#
#
# Elastic Compliance Matrix: (Units=1/GPa)
#
#
# Indices 1 2 3 4 5 6 
#
# 1 0.104709 0.006453 -0.006124 0.000000 0.000000 0.000000
# 2 0.006453 0.019582 -0.002664 0.000000 0.000000 0.000000
# 3 -0.006124 -0.002664 0.010471 0.000000 0.000000 0.000000
# 4 0.000000 0.000000 0.000000 0.326979 0.000000 0.000000
# 5 0.000000 0.000000 0.000000 0.000000 0.097659 0.000000
# 6 0.000000 0.000000 0.000000 0.000000 0.000000 0.121286
#
#
# Mechanical properties :
#
#
# Convention : Reuss Voigt Hill
#
# Bulk Modulus (GPa) = 7.68691 21.62802 14.65746
# Shear Modulus (GPa) = 6.86135 14.34153 10.60144
#
# Velocity S-wave (km/s) = 1.78190 2.57618 2.21493
# Velocity P-wave (km/s) = 2.79119 4.34252 3.65022
#
# Compressibility (1/GPa) = 0.13009133
#
# Stress axis : x y z
#
# Youngs Moduli (GPa) = 9.55024 51.06739 95.50614
#
# Poissons Ratio (x) = -0.32956 0.58491
# Poissons Ratio (y) = -0.06163 0.25446
# Poissons Ratio (z) = 0.05849 0.13606
#
# Static dielectric constant tensor:
#      x y z
#    x 1.764720 0.000000 0.000000 
#    y 0.000000 1.882850 0.000000 
#    z 0.000000 0.000000 1.814350 
# 
# From -- ./inp_files/11343.got.cif
#   From: 2010.05.17/outbox.cif.g08.bks.cpg/sg71_6_cif.got.tgz:11343.got - 2010.06.03 16:22:01.
