data_PCOD9524574
_publ_section_title
;
Structure prediction by ZEFSAII (Michael W. Deem and Ramdas Pophale) SiO2 
 PCOD9524574
Probable space group: I M M M
;
_chemical_formula_sum "Si O2"
_cell_formula_units_Z 88
_cell_length_a 28.241674
_cell_length_b 7.368272
_cell_length_c 22.100837
_cell_angle_alpha 90.000000
_cell_angle_beta 90.000000
_cell_angle_gamma 90.000000
_cell_volume 4599.014794
_symmetry_space_group_name_H-M "I M M M"
_symmetry_group_IT_number 71
_symmetry_cell_setting 'orthorhombic'
loop_
_space_group_symop_operation_xyz
x,y,z
-x,-y,z
x,-y,-z
-x,y,-z
-x,-y,-z
x,y,-z
-x,y,z
x,-y,z
1/2+x,1/2+y,1/2+z
1/2-x,1/2-y,1/2+z
1/2+x,1/2-y,1/2-z
1/2-x,1/2+y,1/2-z
1/2-x,1/2-y,1/2-z
1/2+x,1/2+y,1/2-z
1/2-x,1/2+y,1/2+z
1/2+x,1/2-y,1/2+z
loop_
_atom_site_type_symbol
_atom_site_label
_atom_site_fract_x
_atom_site_fract_y
_atom_site_fract_z
Si Si1 0.204622 0.719702 0.631041
Si Si2 0.141988 0.279179 0.255474
Si Si3 0.194227 0.707302 0.500000
Si Si4 0.194121 0.277952 0.000000
Si Si5 0.057639 0.000000 0.567976
Si Si6 0.316587 0.787066 0.369308
Si Si7 0.444880 0.215094 0.167797
O O1 0.202376 0.500000 0.628591
O O2 0.176269 0.780766 0.689975
O O3 0.184011 0.787048 0.566444
O O4 0.259765 0.769527 0.637119
O O5 0.145207 0.500000 0.254016
O O6 0.158348 0.210780 0.190187
O O7 0.089265 0.233330 0.277126
O O8 0.176382 0.500000 0.500000
O O9 0.251833 0.708626 0.500000
O O10 0.171688 0.217402 0.063401
O O11 0.196774 0.500000 0.000000
O O12 0.069848 0.174626 0.608231
O O13 0.076782 0.000000 0.500000
O O14 0.000000 0.000000 0.563601
O O15 0.328085 0.000000 0.370616
O O16 0.500000 0.253719 0.180133
O O17 0.439771 0.000000 0.157002
#
# Coordination Sequence:
#
# PCOD9524574 Si02
#       7
#    16  16   8   8   8  16  16
#     4   9  16  27  40  58  84 114 147 183 225 273
#     4   9  17  29  44  64  88 115 150 191 231 277
#     4   8  14  24  38  52  75 111 142 174 217 260
#     4   8  14  24  40  58  79 113 146 176 221 272
#     4   9  18  34  54  74  98 123 155 201 243 282
#     4   9  16  27  42  61  88 116 147 187 228 274
#     4   9  18  34  53  71  94 125 159 197 241 286
#
# _framework density 19.134533000000001
#
# number of rings (size 3 to 8) (size 9 to 14) (size 15 to 20)
#    0.000    3.182    0.000    0.545    0.000    0.364 
#    4.909    1.818    0.000    0.000    0.000    0.636 
#    0.000    5.091    0.000    3.273    0.000    9.364 
#
# Total GULP energy -245264.740133 kJ/mol
# GULP energy per Si atom -5574.198639 kJ/mol
# Density = 1.909098 g / cm^3
# Si number density = 19.134533 Si / 1000 Ang^3
#
#
#
# Elastic Constant Matrix: (Units=GPa)
#
#
# Indices 1 2 3 4 5 6 
#
# 1 67.5901 8.5999 76.2271 0.0000 0.0000 0.0000
# 2 8.5999 67.0509 23.4542 0.0000 0.0000 0.0000
# 3 76.2271 23.4542 225.6133 0.0000 0.0000 0.0000
# 4 0.0000 0.0000 0.0000 6.2139 0.0000 0.0000
# 5 0.0000 0.0000 0.0000 0.0000 11.3450 0.0000
# 6 0.0000 0.0000 0.0000 0.0000 0.0000 7.8502
#
#
#
# Elastic Compliance Matrix: (Units=1/GPa)
#
#
# Indices 1 2 3 4 5 6 
#
# 1 0.023907 -0.000250 -0.008051 0.000000 0.000000 0.000000
# 2 -0.000250 0.015479 -0.001525 0.000000 0.000000 0.000000
# 3 -0.008051 -0.001525 0.007311 0.000000 0.000000 0.000000
# 4 0.000000 0.000000 0.000000 0.160930 0.000000 0.000000
# 5 0.000000 0.000000 0.000000 0.000000 0.088145 0.000000
# 6 0.000000 0.000000 0.000000 0.000000 0.000000 0.127386
#
#
# Mechanical properties :
#
#
# Convention : Reuss Voigt Hill
#
# Bulk Modulus (GPa) = 36.97469 64.09075 50.53272
# Shear Modulus (GPa) = 11.06620 21.88001 16.47311
#
# Velocity S-wave (km/s) = 2.40747 3.38521 2.93731
# Velocity P-wave (km/s) = 5.20513 6.98907 6.16200
#
# Compressibility (1/GPa) = 0.02704553
#
# Stress axis : x y z
#
# Youngs Moduli (GPa) = 41.82843 64.60178 136.77671
#
# Poissons Ratio (x) = 0.01615 1.10125
# Poissons Ratio (y) = 0.01045 0.20855
# Poissons Ratio (z) = 0.33678 0.09850
#
# Static dielectric constant tensor:
#      x y z
#    x 1.640300 0.000000 0.000000 
#    y 0.000000 1.700540 0.000000 
#    z 0.000000 0.000000 1.708300 
# 
# From -- ./inp_files/56615.got.cif
#   From: 2010.05.17/outbox.cif.g08.bks.cpg/sg71_29_cif.got.tgz:56615.got - 2010.06.03 16:22:01.
