data_PCOD9525742
_publ_section_title
;
Structure prediction by ZEFSAII (Michael W. Deem and Ramdas Pophale) SiO2 
 PCOD9525742
Probable space group: I B A M
;
_chemical_formula_sum "Si O2"
_cell_formula_units_Z 116
_cell_length_a 26.766625
_cell_length_b 29.615339
_cell_length_c 9.043962
_cell_angle_alpha 90.000000
_cell_angle_beta 90.000000
_cell_angle_gamma 90.000000
_cell_volume 7169.172854
_symmetry_space_group_name_H-M "I B A M"
_symmetry_group_IT_number 72
_symmetry_cell_setting 'orthorhombic'
loop_
_space_group_symop_operation_xyz
x,y,z
-x,-y,z
x,-y,1/2-z
-x,y,1/2-z
-x,-y,-z
x,y,-z
-x,y,1/2+z
x,-y,1/2+z
1/2+x,1/2+y,1/2+z
1/2-x,1/2-y,1/2+z
1/2+x,1/2-y,-z
1/2-x,1/2+y,-z
1/2-x,1/2-y,1/2-z
1/2+x,1/2+y,1/2-z
1/2-x,1/2+y,z
1/2+x,1/2-y,z
loop_
_atom_site_type_symbol
_atom_site_label
_atom_site_fract_x
_atom_site_fract_y
_atom_site_fract_z
Si Si1 0.249980 0.549603 0.821463
Si Si2 0.000000 0.000000 0.750000
Si Si3 0.332807 0.615691 0.323289
Si Si4 0.800212 0.304890 0.324346
Si Si5 0.656384 0.097441 0.176548
Si Si6 0.447688 0.950814 0.177722
Si Si7 0.597640 0.541760 0.836831
Si Si8 0.307334 0.703875 0.174476
O O1 0.257412 0.500000 0.750000
O O2 0.289386 0.585819 0.753617
O O3 0.195775 0.568047 0.769717
O O4 0.253879 0.547845 0.000000
O O5 0.038660 0.967857 0.834142
O O6 0.324054 0.617163 0.500000
O O7 0.383775 0.589425 0.283567
O O8 0.336320 0.665722 0.261871
O O9 0.787191 0.306310 0.500000
O O10 0.832315 0.349590 0.292941
O O11 0.749538 0.303610 0.230007
O O12 0.823647 0.255491 0.296965
O O13 0.599872 0.081349 0.206315
O O14 0.665737 0.090229 0.000000
O O15 0.500000 0.934967 0.250000
O O16 0.437638 0.000000 0.250000
O O17 0.453433 0.955331 0.000000
O O18 0.620243 0.500000 0.750000
O O19 0.617230 0.537232 0.000000
O O20 0.309741 0.695822 0.000000
#
# Coordination Sequence:
#
# PCOD9525742 Si02
#       8
#    16   4  16  16  16  16  16  16
#     4  12  24  35  48  71 103 140 173 205 246 303
#     4   8  18  36  54  76  98 124 174 212 256 300
#     4  11  21  34  49  72 104 138 169 208 257 303
#     4   9  18  33  52  72 102 135 170 212 255 303
#     4  10  20  35  54  76 101 136 170 210 259 307
#     4  10  20  34  53  76 102 132 171 210 257 303
#     4   9  19  32  51  73  97 128 165 207 253 300
#     4  10  19  31  49  76 102 134 175 212 252 302
#
# _framework density 16.180389000000002
#
# number of rings (size 3 to 8) (size 9 to 14) (size 15 to 20)
#    0.414    1.517    1.379    3.931    0.000    4.966 
#    0.000    0.000    0.000    0.000    1.793    0.000 
#    0.000    0.000    0.000    0.000    0.000    0.000 
#
# Total GULP energy -322950.700816 kJ/mol
# GULP energy per Si atom -5568.115531 kJ/mol
# Density = 1.614356 g / cm^3
# Si number density = 16.180389 Si / 1000 Ang^3
#
#
#
# Elastic Constant Matrix: (Units=GPa)
#
#
# Indices 1 2 3 4 5 6 
#
# 1 72.2922 40.0213 27.1059 0.0000 0.0000 0.0000
# 2 40.0213 108.3493 48.0833 0.0000 0.0000 0.0000
# 3 27.1059 48.0833 70.5383 0.0000 0.0000 0.0000
# 4 0.0000 0.0000 0.0000 23.5661 0.0000 0.0000
# 5 0.0000 0.0000 0.0000 0.0000 -17.3971 0.0000
# 6 0.0000 0.0000 0.0000 0.0000 0.0000 16.8670
#
#
#
# Elastic Compliance Matrix: (Units=1/GPa)
#
#
# Indices 1 2 3 4 5 6 
#
# 1 0.017942 -0.005115 -0.003408 0.000000 0.000000 0.000000
# 2 -0.005115 0.014690 -0.008048 0.000000 0.000000 0.000000
# 3 -0.003408 -0.008048 0.020973 0.000000 0.000000 0.000000
# 4 0.000000 0.000000 0.000000 0.042434 0.000000 0.000000
# 5 0.000000 0.000000 0.000000 0.000000 -0.057481 0.000000
# 6 0.000000 0.000000 0.000000 0.000000 0.000000 0.059287
#
#
# Mechanical properties :
#
#
# Convention : Reuss Voigt Hill
#
# Bulk Modulus (GPa) = 48.86981 53.51120 51.19050
# Shear Modulus (GPa) = 36.28200 13.67181 24.97691
#
# Velocity S-wave (km/s) = 4.74048 2.90998 3.93320
# Velocity P-wave (km/s) = 7.76090 6.66589 7.23414
#
# Compressibility (1/GPa) = 0.02046253
#
# Stress axis : x y z
#
# Youngs Moduli (GPa) = 55.73430 68.07138 47.68124
#
# Poissons Ratio (x) = 0.34818 0.16250
# Poissons Ratio (y) = 0.28508 0.38376
# Poissons Ratio (z) = 0.18994 0.54787
#
# Static dielectric constant tensor:
#      x y z
#    x 1.545590 0.000000 0.000000 
#    y 0.000000 1.583070 0.000000 
#    z 0.000000 0.000000 1.553550 
# 
# From -- ./inp_files/9474.got.cif
#   From: 2010.05.17/outbox.cif.g08.bks.cpg/sg72_5_cif.got.tgz:9474.got - 2010.06.03 17:03:01.
