data_PCOD9525036
_publ_section_title
;
Structure prediction by ZEFSAII (Michael W. Deem and Ramdas Pophale) SiO2 
 PCOD9525036
Probable space group: I B A M
;
_chemical_formula_sum "Si O2"
_cell_formula_units_Z 96
_cell_length_a 29.799907
_cell_length_b 27.209800
_cell_length_c 8.650025
_cell_angle_alpha 90.000000
_cell_angle_beta 90.000000
_cell_angle_gamma 90.000000
_cell_volume 7013.868528
_symmetry_space_group_name_H-M "I B A M"
_symmetry_group_IT_number 72
_symmetry_cell_setting 'orthorhombic'
loop_
_space_group_symop_operation_xyz
x,y,z
-x,-y,z
x,-y,1/2-z
-x,y,1/2-z
-x,-y,-z
x,y,-z
-x,y,1/2+z
x,-y,1/2+z
1/2+x,1/2+y,1/2+z
1/2-x,1/2-y,1/2+z
1/2+x,1/2-y,-z
1/2-x,1/2+y,-z
1/2-x,1/2-y,1/2-z
1/2+x,1/2+y,1/2-z
1/2-x,1/2+y,z
1/2+x,1/2-y,z
loop_
_atom_site_type_symbol
_atom_site_label
_atom_site_fract_x
_atom_site_fract_y
_atom_site_fract_z
Si Si1 0.047615 0.710704 0.815760
Si Si2 0.306799 0.853593 0.313916
Si Si3 0.223188 0.796844 0.314206
Si Si4 0.139197 0.741034 0.314057
Si Si5 0.952580 0.399942 0.314553
Si Si6 0.858178 0.553471 0.814766
O O1 0.090023 0.741588 0.758099
O O2 0.053584 0.655111 0.751465
O O3 0.000000 0.728525 0.750000
O O4 0.046127 0.708760 0.000000
O O5 0.310837 0.852144 0.500000
O O6 0.254736 0.842615 0.269992
O O7 0.336404 0.808877 0.244625
O O8 0.325927 0.904381 0.251114
O O9 0.223717 0.794809 0.500000
O O10 0.250000 0.750000 0.250000
O O11 0.171832 0.786400 0.267859
O O12 0.135973 0.738806 0.500000
O O13 0.955033 0.396840 0.500000
O O14 0.909293 0.431712 0.270530
O O15 0.000000 0.418916 0.250000
O O16 0.847379 0.500000 0.750000
O O17 0.855670 0.553624 0.000000
#
# Coordination Sequence:
#
# PCOD9525036 Si02
#       6
#    16  16  16  16  16  16
#     4  11  20  29  43  61  82 109 139 170 207 247
#     4  10  18  30  46  63  82 105 133 167 207 248
#     4   8  16  27  42  63  84 105 129 160 199 243
#     4  10  17  28  44  63  86 108 133 165 202 243
#     4  10  20  33  47  60  76  99 132 171 216 257
#     4  11  23  35  47  61  79 104 135 174 217 258
#
# _framework density 13.687168
#
# number of rings (size 3 to 8) (size 9 to 14) (size 15 to 20)
#    0.000    2.000    1.667    4.500    0.000    3.667 
#    0.000    1.667    0.000    0.000    0.000    0.000 
#    0.000    0.000    0.000    0.000    0.000    0.833 
#
# Total GULP energy -267566.180930 kJ/mol
# GULP energy per Si atom -5574.295436 kJ/mol
# Density = 1.365602 g / cm^3
# Si number density = 13.687168 Si / 1000 Ang^3
#
#
#
# Elastic Constant Matrix: (Units=GPa)
#
#
# Indices 1 2 3 4 5 6 
#
# 1 112.4568 56.3562 33.1425 0.0000 0.0000 0.0000
# 2 56.3562 56.6319 22.6124 0.0000 0.0000 0.0000
# 3 33.1425 22.6124 49.9048 0.0000 0.0000 0.0000
# 4 0.0000 0.0000 0.0000 12.6591 0.0000 0.0000
# 5 0.0000 0.0000 0.0000 0.0000 19.8122 0.0000
# 6 0.0000 0.0000 0.0000 0.0000 0.0000 18.5300
#
#
#
# Elastic Compliance Matrix: (Units=1/GPa)
#
#
# Indices 1 2 3 4 5 6 
#
# 1 0.018655 -0.016625 -0.004856 0.000000 0.000000 0.000000
# 2 -0.016625 0.036374 -0.005441 0.000000 0.000000 0.000000
# 3 -0.004856 -0.005441 0.025728 0.000000 0.000000 0.000000
# 4 0.000000 0.000000 0.000000 0.078995 0.000000 0.000000
# 5 0.000000 0.000000 0.000000 0.000000 0.050474 0.000000
# 6 0.000000 0.000000 0.000000 0.000000 0.000000 0.053967
#
#
# Mechanical properties :
#
#
# Convention : Reuss Voigt Hill
#
# Bulk Modulus (GPa) = 37.15521 49.24618 43.20069
# Shear Modulus (GPa) = 15.29017 17.32575 16.30796
#
# Velocity S-wave (km/s) = 3.34596 3.56172 3.45552
# Velocity P-wave (km/s) = 6.49093 7.27822 6.89582
#
# Compressibility (1/GPa) = 0.02691413
#
# Stress axis : x y z
#
# Youngs Moduli (GPa) = 53.60538 27.49185 38.86771
#
# Poissons Ratio (x) = 0.45705 0.18874
# Poissons Ratio (y) = 0.89119 0.21147
# Poissons Ratio (z) = 0.26031 0.14957
#
# Static dielectric constant tensor:
#      x y z
#    x 1.487750 0.000000 0.000000 
#    y 0.000000 1.420540 0.000000 
#    z 0.000000 0.000000 1.453720 
# 
# From -- ./inp_files/8461.got.cif
#   From: 2010.05.17/outbox.cif.g08.bks.cpg/sg72_5_cif.got.tgz:8461.got - 2010.06.03 17:03:01.
