data_PCOD9525554
_publ_section_title
;
Structure prediction by ZEFSAII (Michael W. Deem and Ramdas Pophale) SiO2 
 PCOD9525554
Probable space group: I B A M
;
_chemical_formula_sum "Si O2"
_cell_formula_units_Z 56
_cell_length_a 13.633571
_cell_length_b 19.778571
_cell_length_c 13.456748
_cell_angle_alpha 90.000000
_cell_angle_beta 90.000000
_cell_angle_gamma 90.000000
_cell_volume 3628.646440
_symmetry_space_group_name_H-M "I B A M"
_symmetry_group_IT_number 72
_symmetry_cell_setting 'orthorhombic'
loop_
_space_group_symop_operation_xyz
x,y,z
-x,-y,z
x,-y,1/2-z
-x,y,1/2-z
-x,-y,-z
x,y,-z
-x,y,1/2+z
x,-y,1/2+z
1/2+x,1/2+y,1/2+z
1/2-x,1/2-y,1/2+z
1/2+x,1/2-y,-z
1/2-x,1/2+y,-z
1/2-x,1/2-y,1/2-z
1/2+x,1/2+y,1/2-z
1/2-x,1/2+y,z
1/2+x,1/2-y,z
loop_
_atom_site_type_symbol
_atom_site_label
_atom_site_fract_x
_atom_site_fract_y
_atom_site_fract_z
Si Si1 0.867540 0.716858 0.500000
Si Si2 0.724026 0.694794 0.331812
Si Si3 0.429549 0.277048 0.500000
Si Si4 0.613011 0.422706 0.280073
Si Si5 0.394734 0.628641 0.500000
O O1 0.817787 0.684958 0.403290
O O2 0.841051 0.797874 0.500000
O O3 0.985308 0.720512 0.500000
O O4 0.750000 0.750000 0.250000
O O5 0.638480 0.722905 0.403760
O O6 0.683592 0.628042 0.278831
O O7 0.491528 0.347099 0.500000
O O8 0.630814 0.500000 0.250000
O O9 0.500000 0.406584 0.250000
O O10 0.624794 0.410364 0.398081
#
# Coordination Sequence:
#
# PCOD9525554 Si02
#       5
#     8  16   8  16   8
#     4   9  19  31  54  74 108 139 180 230 265 315
#     4  11  19  32  54  79 106 141 186 220 267 322
#     4   9  19  33  51  79 112 135 182 227 272 319
#     4  11  22  34  52  77 115 147 171 218 279 331
#     4  10  18  35  50  75 110 140 178 212 264 322
#
# _framework density 15.432752000000001
#
# number of rings (size 3 to 8) (size 9 to 14) (size 15 to 20)
#    0.857    0.857    5.714    0.000    0.000    4.571 
#    0.000    0.000    0.000    0.000    0.000    6.000 
#    0.000    0.000    0.000    0.000    0.000    0.000 
#
# Total GULP energy -155937.480292 kJ/mol
# GULP energy per Si atom -5569.195725 kJ/mol
# Density = 1.539763 g / cm^3
# Si number density = 15.432752 Si / 1000 Ang^3
#
#
#
# Elastic Constant Matrix: (Units=GPa)
#
#
# Indices 1 2 3 4 5 6 
#
# 1 80.4964 32.8528 49.1583 0.0000 0.0000 0.0000
# 2 32.8528 84.8542 52.7602 0.0000 0.0000 0.0000
# 3 49.1583 52.7602 150.7849 -0.0001 0.0000 0.0000
# 4 0.0000 0.0000 -0.0001 16.1329 0.0000 0.0000
# 5 0.0000 0.0000 0.0000 0.0000 26.2022 0.0000
# 6 0.0000 0.0000 0.0000 0.0000 0.0000 27.8991
#
#
#
# Elastic Compliance Matrix: (Units=1/GPa)
#
#
# Indices 1 2 3 4 5 6 
#
# 1 0.016453 -0.003879 -0.004007 0.000000 0.000000 0.000000
# 2 -0.003879 0.015976 -0.004326 0.000000 0.000000 0.000000
# 3 -0.004007 -0.004326 0.009452 0.000000 0.000000 0.000000
# 4 0.000000 0.000000 0.000000 0.061985 0.000000 0.000000
# 5 0.000000 0.000000 0.000000 0.000000 0.038165 0.000000
# 6 0.000000 0.000000 0.000000 0.000000 0.000000 0.035843
#
#
# Mechanical properties :
#
#
# Convention : Reuss Voigt Hill
#
# Bulk Modulus (GPa) = 57.27808 65.07534 61.17671
# Shear Modulus (GPa) = 24.02511 26.13779 25.08145
#
# Velocity S-wave (km/s) = 3.94986 4.11987 4.03576
# Velocity P-wave (km/s) = 7.61558 8.05541 7.83858
#
# Compressibility (1/GPa) = 0.01745869
#
# Stress axis : x y z
#
# Youngs Moduli (GPa) = 60.78010 62.59319 105.80050
#
# Poissons Ratio (x) = 0.24278 0.42391
# Poissons Ratio (y) = 0.23575 0.45765
# Poissons Ratio (z) = 0.24353 0.27075
#
# Static dielectric constant tensor:
#      x y z
#    x 1.518430 0.000000 0.000000 
#    y 0.000000 1.485850 0.000000 
#    z 0.000000 0.000000 1.518920 
# 
# From -- ./inp_files/11122.got.cif
#   From: 2010.05.17/outbox.cif.g08.bks.cpg/sg72_6_cif.got.tgz:11122.got - 2010.06.03 17:03:01.
