data_PCOD9525587
_publ_section_title
;
Structure prediction by ZEFSAII (Michael W. Deem and Ramdas Pophale) SiO2 
 PCOD9525587
Probable space group: I B A M
;
_chemical_formula_sum "Si O2"
_cell_formula_units_Z 88
_cell_length_a 14.872392
_cell_length_b 12.792907
_cell_length_c 22.638552
_cell_angle_alpha 90.000000
_cell_angle_beta 90.000000
_cell_angle_gamma 90.000000
_cell_volume 4307.236434
_symmetry_space_group_name_H-M "I B A M"
_symmetry_group_IT_number 72
_symmetry_cell_setting 'orthorhombic'
loop_
_space_group_symop_operation_xyz
x,y,z
-x,-y,z
x,-y,1/2-z
-x,y,1/2-z
-x,-y,-z
x,y,-z
-x,y,1/2+z
x,-y,1/2+z
1/2+x,1/2+y,1/2+z
1/2-x,1/2-y,1/2+z
1/2+x,1/2-y,-z
1/2-x,1/2+y,-z
1/2-x,1/2-y,1/2-z
1/2+x,1/2+y,1/2-z
1/2-x,1/2+y,z
1/2+x,1/2-y,z
loop_
_atom_site_type_symbol
_atom_site_label
_atom_site_fract_x
_atom_site_fract_y
_atom_site_fract_z
Si Si1 0.168958 0.170335 0.763912
Si Si2 0.684498 0.921321 0.161885
Si Si3 0.429470 0.221059 0.628806
Si Si4 0.500000 0.000000 0.669217
Si Si5 0.777753 0.398638 0.430916
Si Si6 0.114722 0.190877 0.366205
O O1 0.250000 0.250000 0.750000
O O2 0.224396 0.082277 0.799709
O O3 0.104417 0.232202 0.808828
O O4 0.121692 0.146755 0.701343
O O5 0.660252 0.805659 0.139613
O O6 0.594399 0.959114 0.195909
O O7 0.695909 0.000505 0.107765
O O8 0.470905 0.105117 0.635646
O O9 0.343123 0.198014 0.588292
O O10 0.512961 0.294217 0.611771
O O11 0.786055 0.417048 0.500000
O O12 0.677241 0.372074 0.410374
#
# Coordination Sequence:
#
# PCOD9525587 Si02
#       6
#    16  16  16   8  16  16
#     4  10  18  36  61  89 125 159 195 255 325 391
#     4   9  19  37  58  89 123 158 205 262 319 370
#     4  10  19  39  62  93 126 159 204 260 328 379
#     4   8  18  34  58  94 122 154 201 253 314 384
#     4  11  23  39  61  89 122 168 218 256 307 379
#     4  10  21  39  62  92 122 160 206 260 323 380
#
# _framework density 20.430733
#
# number of rings (size 3 to 8) (size 9 to 14) (size 15 to 20)
#    0.000    2.182    3.636    0.545    0.000    2.182 
#    3.273   27.273    0.000    3.273    0.000    0.000 
#    0.000    0.000    0.000    0.000    0.000    0.000 
#
# Total GULP energy -244983.201945 kJ/mol
# GULP energy per Si atom -5567.800044 kJ/mol
# Density = 2.038423 g / cm^3
# Si number density = 20.430733 Si / 1000 Ang^3
#
#
#
# Elastic Constant Matrix: (Units=GPa)
#
#
# Indices 1 2 3 4 5 6 
#
# 1 107.5103 25.1508 38.5014 0.0000 0.0000 0.0000
# 2 25.1508 38.6678 35.2362 0.0000 0.0000 0.0000
# 3 38.5014 35.2362 108.3112 0.0000 0.0000 0.0000
# 4 0.0000 0.0000 0.0000 155.8868 0.0000 0.0000
# 5 0.0000 0.0000 0.0000 0.0000 5.7128 0.0000
# 6 0.0000 0.0000 0.0000 0.0000 0.0000 29.3235
#
#
#
# Elastic Compliance Matrix: (Units=1/GPa)
#
#
# Indices 1 2 3 4 5 6 
#
# 1 0.011368 -0.005276 -0.002325 0.000000 0.000000 0.000000
# 2 -0.005276 0.039207 -0.010880 0.000000 0.000000 0.000000
# 3 -0.002325 -0.010880 0.013598 0.000000 0.000000 0.000000
# 4 0.000000 0.000000 0.000000 0.006415 0.000000 0.000000
# 5 0.000000 0.000000 0.000000 0.000000 0.175045 0.000000
# 6 0.000000 0.000000 0.000000 0.000000 0.000000 0.034102
#
#
# Mechanical properties :
#
#
# Convention : Reuss Voigt Hill
#
# Bulk Modulus (GPa) = 36.74672 50.25179 43.49925
# Shear Modulus (GPa) = 15.34838 48.55802 31.95320
#
# Velocity S-wave (km/s) = 2.74385 4.88044 3.95901
# Velocity P-wave (km/s) = 5.29748 7.51052 6.49889
#
# Compressibility (1/GPa) = 0.02721332
#
# Stress axis : x y z
#
# Youngs Moduli (GPa) = 87.96491 25.50572 73.53809
#
# Poissons Ratio (x) = 0.13456 0.17095
# Poissons Ratio (y) = 0.46409 0.80006
# Poissons Ratio (z) = 0.20449 0.27749
#
# Static dielectric constant tensor:
#      x y z
#    x 1.811050 0.000000 0.000000 
#    y 0.000000 1.663640 0.000000 
#    z 0.000000 0.000000 1.749980 
# 
# From -- ./inp_files/44138.got.cif
#   From: 2010.05.17/outbox.cif.g08.bks.cpg/sg72_23_cif.got.tgz:44138.got - 2010.06.03 17:03:01.
