data_PCOD9525181
_publ_section_title
;
Structure prediction by ZEFSAII (Michael W. Deem and Ramdas Pophale) SiO2 
 PCOD9525181
Probable space group: I B A M
;
_chemical_formula_sum "Si O2"
_cell_formula_units_Z 80
_cell_length_a 7.080522
_cell_length_b 33.906796
_cell_length_c 15.023636
_cell_angle_alpha 90.000000
_cell_angle_beta 90.000000
_cell_angle_gamma 90.000000
_cell_volume 3606.841705
_symmetry_space_group_name_H-M "I B A M"
_symmetry_group_IT_number 72
_symmetry_cell_setting 'orthorhombic'
loop_
_space_group_symop_operation_xyz
x,y,z
-x,-y,z
x,-y,1/2-z
-x,y,1/2-z
-x,-y,-z
x,y,-z
-x,y,1/2+z
x,-y,1/2+z
1/2+x,1/2+y,1/2+z
1/2-x,1/2-y,1/2+z
1/2+x,1/2-y,-z
1/2-x,1/2+y,-z
1/2-x,1/2-y,1/2-z
1/2+x,1/2+y,1/2-z
1/2-x,1/2+y,z
1/2+x,1/2-y,z
loop_
_atom_site_type_symbol
_atom_site_label
_atom_site_fract_x
_atom_site_fract_y
_atom_site_fract_z
Si Si1 0.580137 0.219358 0.650225
Si Si2 0.728310 0.005917 0.102731
Si Si3 0.689273 0.306635 0.595057
Si Si4 0.731364 0.849957 0.233136
Si Si5 0.228278 0.561185 0.759003
O O1 0.500000 0.227927 0.750000
O O2 0.628263 0.261549 0.611314
O O3 0.416434 0.198591 0.595365
O O4 0.743373 0.186693 0.664071
O O5 0.789707 0.969166 0.164329
O O6 0.500000 0.000000 0.100218
O O7 0.782374 0.044197 0.161687
O O8 0.789975 0.006997 0.000000
O O9 0.619359 0.321033 0.500000
O O10 0.662581 0.335196 0.678388
O O11 0.500000 0.851761 0.250000
O O12 0.786034 0.894667 0.215300
O O13 0.000000 0.560509 0.750000
#
# Coordination Sequence:
#
# PCOD9525181 Si02
#       5
#    16  16  16  16  16
#     4   9  17  30  44  58  81 113 142 170 211 258
#     4   8  13  20  31  47  68  97 130 162 199 243
#     4  10  18  28  43  63  83 106 142 181 213 247
#     4   8  15  26  38  52  74 105 137 169 207 247
#     4   8  13  22  33  47  70  98 131 168 201 239
#
# _framework density 22.180071000000002
#
# number of rings (size 3 to 8) (size 9 to 14) (size 15 to 20)
#    0.000    3.800    0.000    4.200    0.000    0.800 
#    0.000   11.000    0.000    0.000    0.000    0.000 
#    0.000    0.000    0.000   32.400    0.000  130.000 
#
# Total GULP energy -222857.232231 kJ/mol
# GULP energy per Si atom -5571.430806 kJ/mol
# Density = 2.212959 g / cm^3
# Si number density = 22.180071 Si / 1000 Ang^3
#
#
#
# Elastic Constant Matrix: (Units=GPa)
#
#
# Indices 1 2 3 4 5 6 
#
# 1 65.9836 -9.4254 -8.2425 0.0000 0.0000 0.0000
# 2 -9.4254 125.9230 33.3120 -0.0001 0.0000 0.0000
# 3 -8.2425 33.3120 134.7458 -0.0003 -0.0001 0.0000
# 4 0.0000 -0.0001 -0.0003 -1.8538 0.0000 0.0000
# 5 0.0000 0.0000 -0.0001 0.0000 -2.5522 0.0000
# 6 0.0000 0.0000 0.0000 0.0000 0.0000 3.8057
#
#
#
# Elastic Compliance Matrix: (Units=1/GPa)
#
#
# Indices 1 2 3 4 5 6 
#
# 1 0.015381 0.000966 0.000702 0.000000 0.000000 0.000000
# 2 0.000966 0.008558 -0.002057 0.000000 0.000000 0.000000
# 3 0.000702 -0.002057 0.007973 -0.000001 0.000000 0.000000
# 4 0.000000 0.000000 -0.000001 -0.539439 0.000009 -0.000003
# 5 0.000000 0.000000 0.000000 0.000009 -0.391818 -0.000002
# 6 0.000000 0.000000 0.000000 -0.000003 -0.000002 0.262767
#
#
# Mechanical properties :
#
#
# Convention : Reuss Voigt Hill
#
# Bulk Modulus (GPa) = 32.11967 39.77119 35.94543
# Shear Modulus (GPa) = -7.99459 20.61382 6.30961
#
# Velocity S-wave (km/s) = -1.90059 3.05189 1.68846
# Velocity P-wave (km/s) = 3.11391 5.51259 4.47689
#
# Compressibility (1/GPa) = 0.03113357
#
# Stress axis : x y z
#
# Youngs Moduli (GPa) = 65.01563 116.85407 125.42702
#
# Poissons Ratio (x) = -0.11282 -0.08807
# Poissons Ratio (y) = -0.06277 0.25795
# Poissons Ratio (z) = -0.04565 0.24032
#
# Static dielectric constant tensor:
#      x y z
#    x 1.971840 0.000000 0.000000 
#    y 0.000000 1.795840 0.000000 
#    z 0.000000 0.000000 1.870210 
# 
# From -- ./inp_files/28299.got.cif
#   From: 2010.05.17/outbox.cif.g08.bks.cpg/sg72_15_cif.got.tgz:28299.got - 2010.06.03 17:03:01.
