data_PCOD9525857
_publ_section_title
;
Structure prediction by ZEFSAII (Michael W. Deem and Ramdas Pophale) SiO2 
 PCOD9525857
Probable space group: I B A M
;
_chemical_formula_sum "Si O2"
_cell_formula_units_Z 64
_cell_length_a 11.719083
_cell_length_b 29.619109
_cell_length_c 8.037039
_cell_angle_alpha 90.000000
_cell_angle_beta 90.000000
_cell_angle_gamma 90.000000
_cell_volume 2789.726937
_symmetry_space_group_name_H-M "I B A M"
_symmetry_group_IT_number 72
_symmetry_cell_setting 'orthorhombic'
loop_
_space_group_symop_operation_xyz
x,y,z
-x,-y,z
x,-y,1/2-z
-x,y,1/2-z
-x,-y,-z
x,y,-z
-x,y,1/2+z
x,-y,1/2+z
1/2+x,1/2+y,1/2+z
1/2-x,1/2-y,1/2+z
1/2+x,1/2-y,-z
1/2-x,1/2+y,-z
1/2-x,1/2-y,1/2-z
1/2+x,1/2+y,1/2-z
1/2-x,1/2+y,z
1/2+x,1/2-y,z
loop_
_atom_site_type_symbol
_atom_site_label
_atom_site_fract_x
_atom_site_fract_y
_atom_site_fract_z
Si Si1 0.626472 0.447589 0.196837
Si Si2 0.121496 0.411986 0.199229
Si Si3 0.618965 0.287664 0.199613
Si Si4 0.147866 0.314080 0.808941
O O1 0.625209 0.500000 0.250000
O O2 0.500000 0.428945 0.250000
O O3 0.751508 0.429714 0.256084
O O4 0.628630 0.443505 0.000000
O O5 0.114137 0.360931 0.273340
O O6 0.000000 0.434901 0.250000
O O7 0.120353 0.409696 0.000000
O O8 0.500000 0.308063 0.250000
O O9 0.716434 0.313456 0.295948
O O10 0.618980 0.235287 0.262370
O O11 0.638089 0.288035 0.000000
O O12 0.108610 0.313323 0.000000
#
# Coordination Sequence:
#
# PCOD9525857 Si02
#       4
#    16  16  16  16
#     4  11  23  43  69  96 125 159 198 242 296 356
#     4  11  23  40  62  91 125 161 202 249 302 359
#     4  10  19  32  52  76 105 145 193 244 296 349
#     4   9  20  36  53  76 109 149 193 241 293 349
#
# _framework density 22.941313000000001
#
# number of rings (size 3 to 8) (size 9 to 14) (size 15 to 20)
#    0.000    1.750    0.000    5.250    0.000    4.500 
#    0.000    2.500    0.000    0.000    0.000    0.000 
#    0.000    0.000    0.000    0.000    0.000    0.000 
#
# Total GULP energy -178275.197921 kJ/mol
# GULP energy per Si atom -5571.099935 kJ/mol
# Density = 2.288910 g / cm^3
# Si number density = 22.941313 Si / 1000 Ang^3
#
#
#
# Elastic Constant Matrix: (Units=GPa)
#
#
# Indices 1 2 3 4 5 6 
#
# 1 232.2567 41.2358 24.9953 -0.0006 -0.0006 -0.0005
# 2 41.2358 54.5385 2.9318 -0.0007 0.0001 0.0000
# 3 24.9953 2.9318 99.4117 -0.0001 0.0011 0.0005
# 4 -0.0006 -0.0007 -0.0001 36.9277 0.0020 -0.0028
# 5 -0.0006 0.0001 0.0011 0.0020 39.7903 0.0003
# 6 -0.0005 0.0000 0.0005 -0.0028 0.0003 -55.3795
#
#
#
# Elastic Compliance Matrix: (Units=1/GPa)
#
#
# Indices 1 2 3 4 5 6 
#
# 1 0.005106 -0.003798 -0.001172 0.000000 0.000000 0.000000
# 2 -0.003798 0.021189 0.000330 0.000000 0.000000 0.000000
# 3 -0.001172 0.000330 0.010344 0.000000 0.000000 0.000000
# 4 0.000000 0.000000 0.000000 0.027080 -0.000001 -0.000001
# 5 0.000000 0.000000 0.000000 -0.000001 0.025132 0.000000
# 6 0.000000 0.000000 0.000000 -0.000001 0.000000 -0.018057
#
#
# Mechanical properties :
#
#
# Convention : Reuss Voigt Hill
#
# Bulk Modulus (GPa) = 36.54921 58.28141 47.41531
# Shear Modulus (GPa) = 56.05848 25.40396 40.73122
#
# Velocity S-wave (km/s) = 4.94860 3.33129 4.21818
# Velocity P-wave (km/s) = 6.97264 6.34479 6.66611
#
# Compressibility (1/GPa) = 0.02736037
#
# Stress axis : x y z
#
# Youngs Moduli (GPa) = 195.85128 47.19392 96.67368
#
# Poissons Ratio (x) = 0.17922 0.11328
# Poissons Ratio (y) = 0.74375 -0.03189
# Poissons Ratio (z) = 0.22950 -0.01557
#
# Static dielectric constant tensor:
#      x y z
#    x 2.067130 0.000000 0.000000 
#    y 0.000000 1.886020 0.000000 
#    z 0.000000 0.000000 1.817530 
# 
# From -- ./inp_files/2628.got.cif
#   From: 2010.05.17/outbox.cif.g08.bks.cpg/sg72_2_cif.got.tgz:2628.got - 2010.06.03 17:03:01.
