data_PCOD9525466
_publ_section_title
;
Structure prediction by ZEFSAII (Michael W. Deem and Ramdas Pophale) SiO2 
 PCOD9525466
Probable space group: I B A M
;
_chemical_formula_sum "Si O2"
_cell_formula_units_Z 96
_cell_length_a 26.904452
_cell_length_b 10.766555
_cell_length_c 14.016525
_cell_angle_alpha 90.000000
_cell_angle_beta 90.000000
_cell_angle_gamma 90.000000
_cell_volume 4060.142439
_symmetry_space_group_name_H-M "I B A M"
_symmetry_group_IT_number 72
_symmetry_cell_setting 'orthorhombic'
loop_
_space_group_symop_operation_xyz
x,y,z
-x,-y,z
x,-y,1/2-z
-x,y,1/2-z
-x,-y,-z
x,y,-z
-x,y,1/2+z
x,-y,1/2+z
1/2+x,1/2+y,1/2+z
1/2-x,1/2-y,1/2+z
1/2+x,1/2-y,-z
1/2-x,1/2+y,-z
1/2-x,1/2-y,1/2-z
1/2+x,1/2+y,1/2-z
1/2-x,1/2+y,z
1/2+x,1/2-y,z
loop_
_atom_site_type_symbol
_atom_site_label
_atom_site_fract_x
_atom_site_fract_y
_atom_site_fract_z
Si Si1 0.962854 0.298879 0.819822
Si Si2 0.811792 0.672672 0.883020
Si Si3 0.853174 0.932951 0.891277
Si Si4 0.137873 0.579051 0.884742
Si Si5 0.302270 0.319171 0.116646
Si Si6 0.964512 0.880556 0.852417
O O1 0.916535 0.374164 0.855252
O O2 0.948450 0.182429 0.749581
O O3 0.000000 0.371428 0.750000
O O4 0.000517 0.230260 0.892786
O O5 0.830766 0.806665 0.849260
O O6 0.846125 0.557841 0.851617
O O7 0.754480 0.656495 0.855406
O O8 0.813661 0.672215 0.000000
O O9 0.912328 0.918161 0.895440
O O10 0.836274 0.065321 0.851188
O O11 0.833643 0.934880 0.000000
O O12 0.176743 0.685381 0.853241
O O13 0.138687 0.576085 0.000000
O O14 0.303530 0.314455 0.000000
O O15 0.000000 0.000000 0.851876
#
# Coordination Sequence:
#
# PCOD9525466 Si02
#       6
#    16  16  16  16  16  16
#     4   8  19  34  52  77  99 146 176 225 277 331
#     4   9  18  32  50  78 116 148 175 224 287 328
#     4  10  19  31  52  81 108 139 181 232 273 319
#     4  10  18  32  57  82 108 145 189 228 269 335
#     4   9  17  29  51  82 111 142 183 226 272 329
#     4   9  18  33  53  74 103 142 180 223 286 337
#
# _framework density 23.644490000000001
#
# number of rings (size 3 to 8) (size 9 to 14) (size 15 to 20)
#    1.000    1.667    0.000    3.000    0.000    5.000 
#    0.000    1.667    3.667   10.500    0.000    0.000 
#    0.000    0.000    0.000    0.000    0.000    0.000 
#
# Total GULP energy -267673.374065 kJ/mol
# GULP energy per Si atom -5576.528626 kJ/mol
# Density = 2.359067 g / cm^3
# Si number density = 23.644490 Si / 1000 Ang^3
#
#
#
# Elastic Constant Matrix: (Units=GPa)
#
#
# Indices 1 2 3 4 5 6 
#
# 1 144.3957 77.6420 0.0384 0.0000 0.0000 0.0000
# 2 77.6420 185.2530 21.3475 0.0000 0.0000 0.0000
# 3 0.0384 21.3475 62.9814 0.0000 0.0000 0.0000
# 4 0.0000 0.0000 0.0000 20.7973 0.0000 0.0000
# 5 0.0000 0.0000 0.0000 0.0000 18.1234 0.0000
# 6 0.0000 0.0000 0.0000 0.0000 0.0000 -184.1196
#
#
#
# Elastic Compliance Matrix: (Units=1/GPa)
#
#
# Indices 1 2 3 4 5 6 
#
# 1 0.009046 -0.003945 0.001332 0.000000 0.000000 0.000000
# 2 -0.003945 0.007338 -0.002485 0.000000 0.000000 0.000000
# 3 0.001332 -0.002485 0.016719 0.000000 0.000000 0.000000
# 4 0.000000 0.000000 0.000000 0.048083 0.000000 0.000000
# 5 0.000000 0.000000 0.000000 0.000000 0.055177 0.000000
# 6 0.000000 0.000000 0.000000 0.000000 0.000000 -0.005431
#
#
# Mechanical properties :
#
#
# Convention : Reuss Voigt Hill
#
# Bulk Modulus (GPa) = 43.65464 65.63175 54.64319
# Shear Modulus (GPa) = 33.61035 -9.46629 12.07203
#
# Velocity S-wave (km/s) = 3.77435 -2.00307 2.26202
# Velocity P-wave (km/s) = 6.12351 4.74007 5.47566
#
# Compressibility (1/GPa) = 0.02290707
#
# Stress axis : x y z
#
# Youngs Moduli (GPa) = 110.54361 136.28300 59.81196
#
# Poissons Ratio (x) = 0.53761 -0.07964
# Poissons Ratio (y) = 0.43608 0.14861
# Poissons Ratio (z) = -0.14720 0.33862
#
# Static dielectric constant tensor:
#      x y z
#    x 1.857290 0.000000 0.000000 
#    y 0.000000 1.878020 0.000000 
#    z 0.000000 0.000000 2.036270 
# 
# From -- ./inp_files/40674.got.cif
#   From: 2010.05.17/outbox.cif.g08.bks.cpg/sg72_21_cif.got.tgz:40674.got - 2010.06.03 17:03:01.
