data_PCOD9525344
_publ_section_title
;
Structure prediction by ZEFSAII (Michael W. Deem and Ramdas Pophale) SiO2 
 PCOD9525344
Probable space group: I B A M
;
_chemical_formula_sum "Si O2"
_cell_formula_units_Z 88
_cell_length_a 20.959680
_cell_length_b 18.934059
_cell_length_c 13.827207
_cell_angle_alpha 90.000000
_cell_angle_beta 90.000000
_cell_angle_gamma 90.000000
_cell_volume 5487.352232
_symmetry_space_group_name_H-M "I B A M"
_symmetry_group_IT_number 72
_symmetry_cell_setting 'orthorhombic'
loop_
_space_group_symop_operation_xyz
x,y,z
-x,-y,z
x,-y,1/2-z
-x,y,1/2-z
-x,-y,-z
x,y,-z
-x,y,1/2+z
x,-y,1/2+z
1/2+x,1/2+y,1/2+z
1/2-x,1/2-y,1/2+z
1/2+x,1/2-y,-z
1/2-x,1/2+y,-z
1/2-x,1/2-y,1/2-z
1/2+x,1/2+y,1/2-z
1/2-x,1/2+y,z
1/2+x,1/2-y,z
loop_
_atom_site_type_symbol
_atom_site_label
_atom_site_fract_x
_atom_site_fract_y
_atom_site_fract_z
Si Si1 0.315571 0.587040 0.615053
Si Si2 0.350708 0.343984 0.387228
Si Si3 0.281115 0.000000 0.750000
Si Si4 0.678543 0.261891 0.711632
Si Si5 0.698170 0.120144 0.612410
Si Si6 0.928880 0.983029 0.116098
O O1 0.303426 0.579654 0.500000
O O2 0.261972 0.548086 0.678515
O O3 0.321236 0.668593 0.644874
O O4 0.380656 0.546014 0.639615
O O5 0.361831 0.325254 0.500000
O O6 0.359554 0.281981 0.309138
O O7 0.276161 0.369291 0.381462
O O8 0.395863 0.409054 0.357394
O O9 0.317700 0.945553 0.681015
O O10 0.750000 0.250000 0.750000
O O11 0.664871 0.191053 0.652346
O O12 0.683812 0.108457 0.500000
O O13 0.931333 0.979857 0.000000
O O14 0.000000 0.000000 0.149192
#
# Coordination Sequence:
#
# PCOD9525344 Si02
#       6
#    16  16   8  16  16  16
#     4  11  19  29  45  63  86 120 157 192 225 263
#     4   9  16  28  44  61  85 117 152 192 227 260
#     4  12  18  30  43  62  86 110 147 192 224 268
#     4  10  18  31  42  60  84 110 153 194 228 277
#     4  10  19  31  45  61  85 116 147 189 235 273
#     4   9  17  29  45  66  94 128 162 192 224 262
#
# _framework density 16.036878000000002
#
# number of rings (size 3 to 8) (size 9 to 14) (size 15 to 20)
#    0.000    2.000    5.455    1.091    0.000    0.727 
#    0.000    4.091    0.000    0.000    0.000    0.000 
#    0.000    0.000    0.000    3.273    0.000   28.182 
#
# Total GULP energy -245149.317917 kJ/mol
# GULP energy per Si atom -5571.575407 kJ/mol
# Density = 1.600038 g / cm^3
# Si number density = 16.036878 Si / 1000 Ang^3
#
#
#
# Elastic Constant Matrix: (Units=GPa)
#
#
# Indices 1 2 3 4 5 6 
#
# 1 33.0185 29.1055 13.5373 0.0000 0.0000 0.0000
# 2 29.1055 138.1097 68.4186 0.0000 0.0000 0.0000
# 3 13.5373 68.4186 146.4257 0.0000 0.0000 0.0000
# 4 0.0000 0.0000 0.0000 36.1662 0.0000 0.0000
# 5 0.0000 0.0000 0.0000 0.0000 -9.0998 0.0000
# 6 0.0000 0.0000 0.0000 0.0000 0.0000 11.3805
#
#
#
# Elastic Compliance Matrix: (Units=1/GPa)
#
#
# Indices 1 2 3 4 5 6 
#
# 1 0.037205 -0.007985 0.000291 0.000000 0.000000 0.000000
# 2 -0.007985 0.011135 -0.004465 0.000000 0.000000 0.000000
# 3 0.000291 -0.004465 0.008889 0.000000 0.000000 0.000000
# 4 0.000000 0.000000 0.000000 0.027650 0.000000 0.000000
# 5 0.000000 0.000000 0.000000 0.000000 -0.109893 0.000000
# 6 0.000000 0.000000 0.000000 0.000000 0.000000 0.087870
#
#
# Mechanical properties :
#
#
# Convention : Reuss Voigt Hill
#
# Bulk Modulus (GPa) = 30.38377 59.96407 45.17392
# Shear Modulus (GPa) = 50.94565 21.45555 36.20060
#
# Velocity S-wave (km/s) = 5.64241 3.66168 4.75630
# Velocity P-wave (km/s) = 7.83813 7.43974 7.64154
#
# Compressibility (1/GPa) = 0.03291231
#
# Stress axis : x y z
#
# Youngs Moduli (GPa) = 26.87785 89.80492 112.50263
#
# Poissons Ratio (x) = 0.71710 -0.03278
# Poissons Ratio (y) = 0.21462 0.50230
# Poissons Ratio (z) = -0.00783 0.40096
#
# Static dielectric constant tensor:
#      x y z
#    x 1.506270 0.000000 0.000000 
#    y 0.000000 1.547690 0.000000 
#    z 0.000000 0.000000 1.598940 
# 
# From -- ./inp_files/25324.got.cif
#   From: 2010.05.17/outbox.cif.g08.bks.cpg/sg72_13_cif.got.tgz:25324.got - 2010.06.03 17:03:01.
