data_PCOD9525020
_publ_section_title
;
Structure prediction by ZEFSAII (Michael W. Deem and Ramdas Pophale) SiO2 
 PCOD9525020
Probable space group: I B A M
;
_chemical_formula_sum "Si O2"
_cell_formula_units_Z 64
_cell_length_a 13.265272
_cell_length_b 25.037085
_cell_length_c 8.539117
_cell_angle_alpha 90.000000
_cell_angle_beta 90.000000
_cell_angle_gamma 90.000000
_cell_volume 2836.043497
_symmetry_space_group_name_H-M "I B A M"
_symmetry_group_IT_number 72
_symmetry_cell_setting 'orthorhombic'
loop_
_space_group_symop_operation_xyz
x,y,z
-x,-y,z
x,-y,1/2-z
-x,y,1/2-z
-x,-y,-z
x,y,-z
-x,y,1/2+z
x,-y,1/2+z
1/2+x,1/2+y,1/2+z
1/2-x,1/2-y,1/2+z
1/2+x,1/2-y,-z
1/2-x,1/2+y,-z
1/2-x,1/2-y,1/2-z
1/2+x,1/2+y,1/2-z
1/2-x,1/2+y,z
1/2+x,1/2-y,z
loop_
_atom_site_type_symbol
_atom_site_label
_atom_site_fract_x
_atom_site_fract_y
_atom_site_fract_z
Si Si1 0.607265 0.718434 0.687843
Si Si2 0.674763 0.059294 0.814210
Si Si3 0.102595 0.939852 0.312670
Si Si4 0.178068 0.668663 0.187558
O O1 0.500000 0.699336 0.750000
O O2 0.605816 0.720487 0.500000
O O3 0.704586 0.682669 0.733083
O O4 0.623343 0.777591 0.756741
O O5 0.787796 0.072424 0.754115
O O6 0.627021 0.115145 0.757721
O O7 0.645322 0.000000 0.750000
O O8 0.671520 0.055297 0.000000
O O9 0.104643 0.936580 0.500000
O O10 0.000000 0.913631 0.250000
O O11 0.095417 0.000000 0.250000
O O12 0.176027 0.663809 0.000000
#
# Coordination Sequence:
#
# PCOD9525020 Si02
#       4
#    16  16  16  16
#     4  10  21  38  62  89 117 151 191 240 296 348
#     4  11  21  34  52  76 109 149 191 233 284 342
#     4  10  17  27  41  60  89 128 174 220 267 320
#     4  10  21  38  59  86 119 153 195 242 289 345
#
# _framework density 22.566649000000002
#
# number of rings (size 3 to 8) (size 9 to 14) (size 15 to 20)
#    0.000    1.750    0.000    8.250    0.000    4.000 
#    0.000    2.500    0.000    0.750    0.000    5.250 
#    0.000    0.000    0.000    0.000    0.000    0.000 
#
# Total GULP energy -178467.257991 kJ/mol
# GULP energy per Si atom -5577.101812 kJ/mol
# Density = 2.251529 g / cm^3
# Si number density = 22.566649 Si / 1000 Ang^3
#
#
#
# Elastic Constant Matrix: (Units=GPa)
#
#
# Indices 1 2 3 4 5 6 
#
# 1 60.7433 13.7674 9.4304 -0.0001 -0.0001 0.0000
# 2 13.7674 221.6286 58.5345 -0.0002 0.0002 0.0000
# 3 9.4304 58.5345 138.1964 -0.0023 0.0015 0.0002
# 4 -0.0001 -0.0002 -0.0023 40.8887 0.0005 0.0001
# 5 -0.0001 0.0002 0.0015 0.0005 23.7929 -0.0001
# 6 0.0000 0.0000 0.0002 0.0001 -0.0001 -9.1565
#
#
#
# Elastic Compliance Matrix: (Units=1/GPa)
#
#
# Indices 1 2 3 4 5 6 
#
# 1 0.016774 -0.000833 -0.000792 0.000000 0.000000 0.000000
# 2 -0.000833 0.005122 -0.002113 0.000000 0.000000 0.000000
# 3 -0.000792 -0.002113 0.008185 0.000000 -0.000001 0.000000
# 4 0.000000 0.000000 0.000000 0.024457 -0.000001 0.000000
# 5 0.000000 0.000000 -0.000001 -0.000001 0.042029 -0.000001
# 6 0.000000 0.000000 0.000000 0.000000 -0.000001 -0.109213
#
#
# Mechanical properties :
#
#
# Convention : Reuss Voigt Hill
#
# Bulk Modulus (GPa) = 44.23512 64.89253 54.56383
# Shear Modulus (GPa) = 2114.61317 33.69410 1074.15363
#
# Velocity S-wave (km/s) = 30.64452 3.86825 21.84090
# Velocity P-wave (km/s) = 35.66174 6.98352 25.69562
#
# Compressibility (1/GPa) = 0.02260647
#
# Stress axis : x y z
#
# Youngs Moduli (GPa) = 59.61451 195.24649 122.17625
#
# Poissons Ratio (x) = 0.16261 0.09675
# Poissons Ratio (y) = 0.04965 0.25810
# Poissons Ratio (z) = 0.04721 0.41246
#
# Static dielectric constant tensor:
#      x y z
#    x 1.979010 0.000000 0.000000 
#    y 0.000000 1.850600 0.000000 
#    z 0.000000 0.000000 1.777410 
# 
# From -- ./inp_files/4672.got.cif
#   From: 2010.05.17/outbox.cif.g08.bks.cpg/sg72_3_cif.got.tgz:4672.got - 2010.06.03 17:03:01.
