data_PCOD9525921
_publ_section_title
;
Structure prediction by ZEFSAII (Michael W. Deem and Ramdas Pophale) SiO2 
 PCOD9525921
Probable space group: I B A M
;
_chemical_formula_sum "Si O2"
_cell_formula_units_Z 96
_cell_length_a 21.149743
_cell_length_b 17.173852
_cell_length_c 15.649058
_cell_angle_alpha 90.000000
_cell_angle_beta 90.000000
_cell_angle_gamma 90.000000
_cell_volume 5684.090848
_symmetry_space_group_name_H-M "I B A M"
_symmetry_group_IT_number 72
_symmetry_cell_setting 'orthorhombic'
loop_
_space_group_symop_operation_xyz
x,y,z
-x,-y,z
x,-y,1/2-z
-x,y,1/2-z
-x,-y,-z
x,y,-z
-x,y,1/2+z
x,-y,1/2+z
1/2+x,1/2+y,1/2+z
1/2-x,1/2-y,1/2+z
1/2+x,1/2-y,-z
1/2-x,1/2+y,-z
1/2-x,1/2-y,1/2-z
1/2+x,1/2+y,1/2-z
1/2-x,1/2+y,z
1/2+x,1/2-y,z
loop_
_atom_site_type_symbol
_atom_site_label
_atom_site_fract_x
_atom_site_fract_y
_atom_site_fract_z
Si Si1 0.646850 0.844608 0.172107
Si Si2 0.277354 0.408821 0.740669
Si Si3 0.053144 0.274512 0.189280
Si Si4 0.777229 0.797422 0.403186
Si Si5 0.477388 0.914818 0.601503
Si Si6 0.844145 0.188714 0.402870
O O1 0.706180 0.892368 0.207519
O O2 0.608878 0.805121 0.249652
O O3 0.675274 0.774562 0.115180
O O4 0.595546 0.897421 0.123922
O O5 0.288001 0.500000 0.750000
O O6 0.285249 0.361144 0.829129
O O7 0.322726 0.372229 0.668691
O O8 0.086744 0.220642 0.120077
O O9 0.000000 0.236027 0.250000
O O10 0.018691 0.348093 0.146392
O O11 0.785764 0.826545 0.500000
O O12 0.707338 0.758938 0.396630
O O13 0.486319 0.910175 0.500000
O O14 0.500000 0.000000 0.630721
O O15 0.840532 0.159167 0.500000
#
# Coordination Sequence:
#
# PCOD9525921 Si02
#       6
#    16  16  16  16  16  16
#     4  10  19  35  55  77 109 146 189 222 268 329
#     4  11  22  35  56  83 111 144 185 236 288 326
#     4  10  19  32  56  78 107 148 185 219 265 327
#     4  10  19  35  58  79 106 145 187 232 278 326
#     4  10  22  34  48  81 120 151 185 221 266 329
#     4  10  19  36  58  81 110 143 186 229 273 332
#
# _framework density 16.889244000000001
#
# number of rings (size 3 to 8) (size 9 to 14) (size 15 to 20)
#    0.000    1.833    3.333    2.000    2.333    3.667 
#    0.000    0.000    0.000    0.500    0.000    1.167 
#    0.000    0.000    0.000    0.000    0.000    0.000 
#
# Total GULP energy -267767.443020 kJ/mol
# GULP energy per Si atom -5578.488396 kJ/mol
# Density = 1.685080 g / cm^3
# Si number density = 16.889244 Si / 1000 Ang^3
#
#
#
# Elastic Constant Matrix: (Units=GPa)
#
#
# Indices 1 2 3 4 5 6 
#
# 1 91.9760 39.9293 37.9207 0.0000 0.0000 0.0000
# 2 39.9293 93.5484 60.4195 0.0000 0.0000 0.0000
# 3 37.9207 60.4195 133.7824 0.0000 0.0000 0.0000
# 4 0.0000 0.0000 0.0000 10.6150 0.0000 0.0000
# 5 0.0000 0.0000 0.0000 0.0000 19.7069 0.0000
# 6 0.0000 0.0000 0.0000 0.0000 0.0000 16.4062
#
#
#
# Elastic Compliance Matrix: (Units=1/GPa)
#
#
# Indices 1 2 3 4 5 6 
#
# 1 0.013628 -0.004690 -0.001745 0.000000 0.000000 0.000000
# 2 -0.004690 0.016706 -0.006215 0.000000 0.000000 0.000000
# 3 -0.001745 -0.006215 0.010776 0.000000 0.000000 0.000000
# 4 0.000000 0.000000 0.000000 0.094207 0.000000 0.000000
# 5 0.000000 0.000000 0.000000 0.000000 0.050744 0.000000
# 6 0.000000 0.000000 0.000000 0.000000 0.000000 0.060952
#
#
# Mechanical properties :
#
#
# Convention : Reuss Voigt Hill
#
# Bulk Modulus (GPa) = 63.25154 66.20509 64.72831
# Shear Modulus (GPa) = 18.01265 21.41477 19.71371
#
# Velocity S-wave (km/s) = 3.26930 3.56470 3.42019
# Velocity P-wave (km/s) = 7.19605 7.49849 7.34883
#
# Compressibility (1/GPa) = 0.01580989
#
# Stress axis : x y z
#
# Youngs Moduli (GPa) = 73.37981 59.85976 92.79552
#
# Poissons Ratio (x) = 0.28073 0.16190
# Poissons Ratio (y) = 0.34414 0.57676
# Poissons Ratio (z) = 0.12803 0.37205
#
# Static dielectric constant tensor:
#      x y z
#    x 1.570430 0.000000 0.000000 
#    y 0.000000 1.544810 0.000000 
#    z 0.000000 0.000000 1.593180 
# 
# From -- ./inp_files/21830.got.cif
#   From: 2010.05.17/outbox.cif.g08.bks.cpg/sg72_11_cif.got.tgz:21830.got - 2010.06.03 17:03:01.
