data_PCOD9525853
_publ_section_title
;
Structure prediction by ZEFSAII (Michael W. Deem and Ramdas Pophale) SiO2 
 PCOD9525853
Probable space group: I B A M
;
_chemical_formula_sum "Si O2"
_cell_formula_units_Z 112
_cell_length_a 25.086886
_cell_length_b 13.337495
_cell_length_c 14.673709
_cell_angle_alpha 90.000000
_cell_angle_beta 90.000000
_cell_angle_gamma 90.000000
_cell_volume 4909.767515
_symmetry_space_group_name_H-M "I B A M"
_symmetry_group_IT_number 72
_symmetry_cell_setting 'orthorhombic'
loop_
_space_group_symop_operation_xyz
x,y,z
-x,-y,z
x,-y,1/2-z
-x,y,1/2-z
-x,-y,-z
x,y,-z
-x,y,1/2+z
x,-y,1/2+z
1/2+x,1/2+y,1/2+z
1/2-x,1/2-y,1/2+z
1/2+x,1/2-y,-z
1/2-x,1/2+y,-z
1/2-x,1/2-y,1/2-z
1/2+x,1/2+y,1/2-z
1/2-x,1/2+y,z
1/2+x,1/2-y,z
loop_
_atom_site_type_symbol
_atom_site_label
_atom_site_fract_x
_atom_site_fract_y
_atom_site_fract_z
Si Si1 0.445124 0.807724 0.152693
Si Si2 0.634068 0.033850 0.143664
Si Si3 0.058844 0.355910 0.365267
Si Si4 0.839318 0.768564 0.606981
Si Si5 0.547330 0.423842 0.889484
Si Si6 0.337420 0.508495 0.388172
Si Si7 0.231970 0.589034 0.105912
O O1 0.389325 0.856705 0.121029
O O2 0.498173 0.848508 0.103550
O O3 0.445383 0.848613 0.255927
O O4 0.452307 0.688473 0.150079
O O5 0.637373 0.000000 0.250000
O O6 0.590064 0.955409 0.106173
O O7 0.692248 0.006339 0.107837
O O8 0.098976 0.265628 0.388874
O O9 0.826899 0.774329 0.500000
O O10 0.802001 0.680971 0.647585
O O11 0.830920 0.878102 0.645773
O O12 0.500000 0.500000 0.862270
O O13 0.604146 0.470554 0.864645
O O14 0.544091 0.413426 0.000000
O O15 0.335433 0.509985 0.500000
O O16 0.288970 0.439733 0.354877
O O17 0.241033 0.613611 0.000000
#
# Coordination Sequence:
#
# PCOD9525853 Si02
#       7
#    16  16  16  16  16  16  16
#     4  10  19  32  52  75 101 135 169 208 254 299
#     4   9  18  33  52  74 103 134 165 205 255 306
#     4   9  18  33  51  75 103 133 168 203 251 310
#     4   9  17  32  53  72  97 134 168 204 253 303
#     4  10  21  36  53  75 104 136 171 211 255 303
#     4   9  18  33  52  73  99 132 165 200 250 305
#     4   9  18  32  51  75  98 125 168 212 247 297
#
# _framework density 22.811671
#
# number of rings (size 3 to 8) (size 9 to 14) (size 15 to 20)
#    0.000    2.714    0.000    1.286    0.000    5.143 
#    0.000    9.286    0.000    9.429    0.000    0.000 
#    0.000    0.000    0.000    0.000    0.000    0.000 
#
# Total GULP energy -312388.787824 kJ/mol
# GULP energy per Si atom -5578.371211 kJ/mol
# Density = 2.275975 g / cm^3
# Si number density = 22.811671 Si / 1000 Ang^3
#
#
#
# Elastic Constant Matrix: (Units=GPa)
#
#
# Indices 1 2 3 4 5 6 
#
# 1 153.4906 37.6406 3.7472 0.0000 0.0000 0.0000
# 2 37.6406 52.4105 0.5813 0.0000 0.0000 0.0000
# 3 3.7472 0.5813 57.0457 0.0000 0.0000 0.0000
# 4 0.0000 0.0000 0.0000 -1.6735 0.0000 0.0000
# 5 0.0000 0.0000 0.0000 0.0000 18.1007 0.0000
# 6 0.0000 0.0000 0.0000 0.0000 0.0000 18.7913
#
#
#
# Elastic Compliance Matrix: (Units=1/GPa)
#
#
# Indices 1 2 3 4 5 6 
#
# 1 0.007920 -0.005683 -0.000462 0.000000 0.000000 0.000000
# 2 -0.005683 0.023160 0.000137 0.000000 0.000000 0.000000
# 3 -0.000462 0.000137 0.017559 0.000000 0.000000 0.000000
# 4 0.000000 0.000000 0.000000 -0.597553 0.000000 0.000000
# 5 0.000000 0.000000 0.000000 0.000000 0.055246 0.000000
# 6 0.000000 0.000000 0.000000 0.000000 0.000000 0.053216
#
#
# Mechanical properties :
#
#
# Convention : Reuss Voigt Hill
#
# Bulk Modulus (GPa) = 27.30533 38.54277 32.92405
# Shear Modulus (GPa) = -12.01263 21.77556 4.88146
#
# Velocity S-wave (km/s) = -2.29727 3.09298 1.46443
# Velocity P-wave (km/s) = 2.22695 5.44868 4.16218
#
# Compressibility (1/GPa) = 0.03662288
#
# Stress axis : x y z
#
# Youngs Moduli (GPa) = 126.26319 43.17785 56.95162
#
# Poissons Ratio (x) = 0.24538 0.02633
# Poissons Ratio (y) = 0.71754 -0.00782
# Poissons Ratio (z) = 0.05838 -0.00593
#
# Static dielectric constant tensor:
#      x y z
#    x 1.846140 0.000000 0.000000 
#    y 0.000000 1.860030 0.000000 
#    z 0.000000 0.000000 1.959730 
# 
# From -- ./inp_files/40319.got.cif
#   From: 2010.05.17/outbox.cif.g08.bks.cpg/sg72_21_cif.got.tgz:40319.got - 2010.06.03 17:03:01.
