data_PCOD9525548
_publ_section_title
;
Structure prediction by ZEFSAII (Michael W. Deem and Ramdas Pophale) SiO2 
 PCOD9525548
Probable space group: I B A M
;
_chemical_formula_sum "Si O2"
_cell_formula_units_Z 68
_cell_length_a 20.488813
_cell_length_b 10.586991
_cell_length_c 15.534361
_cell_angle_alpha 90.000000
_cell_angle_beta 90.000000
_cell_angle_gamma 90.000000
_cell_volume 3369.634034
_symmetry_space_group_name_H-M "I B A M"
_symmetry_group_IT_number 72
_symmetry_cell_setting 'orthorhombic'
loop_
_space_group_symop_operation_xyz
x,y,z
-x,-y,z
x,-y,1/2-z
-x,y,1/2-z
-x,-y,-z
x,y,-z
-x,y,1/2+z
x,-y,1/2+z
1/2+x,1/2+y,1/2+z
1/2-x,1/2-y,1/2+z
1/2+x,1/2-y,-z
1/2-x,1/2+y,-z
1/2-x,1/2-y,1/2-z
1/2+x,1/2+y,1/2-z
1/2-x,1/2+y,z
1/2+x,1/2-y,z
loop_
_atom_site_type_symbol
_atom_site_label
_atom_site_fract_x
_atom_site_fract_y
_atom_site_fract_z
Si Si1 0.694775 0.879387 0.814477
Si Si2 0.158667 0.133600 0.799526
Si Si3 0.500000 0.000000 0.750000
Si Si4 0.983471 0.141415 0.648005
Si Si5 0.430611 0.867090 0.406755
O O1 0.770451 0.881238 0.842600
O O2 0.673183 0.751527 0.763920
O O3 0.646558 0.875833 0.894593
O O4 0.687195 0.000000 0.750000
O O5 0.094533 0.164226 0.855693
O O6 0.144726 0.000000 0.750000
O O7 0.544601 0.072531 0.682345
O O8 0.000000 0.153747 0.750000
O O9 0.031125 0.234841 0.598027
O O10 0.000000 0.000000 0.621547
O O11 0.445167 0.923855 0.500000
#
# Coordination Sequence:
#
# PCOD9525548 Si02
#       5
#    16  16   4  16  16
#     4  10  20  35  59  89 122 164 212 262 313 382
#     4  10  18  34  61  89 119 171 213 250 322 381
#     4  12  22  44  58  86 128 164 204 262 312 394
#     4  11  19  36  63  93 126 166 209 260 314 385
#     4  12  24  39  64  93 125 167 211 264 324 381
#
# _framework density 20.180232
#
# number of rings (size 3 to 8) (size 9 to 14) (size 15 to 20)
#    0.000    1.176    7.059    0.353    0.000    0.471 
#    0.000    1.176    0.000   18.353    0.000    0.000 
#    0.000    0.000    0.000    0.000    0.000    0.000 
#
# Total GULP energy -189321.599784 kJ/mol
# GULP energy per Si atom -5568.282347 kJ/mol
# Density = 2.013430 g / cm^3
# Si number density = 20.180232 Si / 1000 Ang^3
#
#
#
# Elastic Constant Matrix: (Units=GPa)
#
#
# Indices 1 2 3 4 5 6 
#
# 1 181.0624 29.3736 39.7708 0.0000 0.0000 0.0000
# 2 29.3736 66.6043 25.0934 0.0000 0.0000 0.0000
# 3 39.7708 25.0934 99.7220 0.0000 0.0000 0.0000
# 4 0.0000 0.0000 0.0000 40.9215 0.0000 0.0000
# 5 0.0000 0.0000 0.0000 0.0000 89.6267 0.0000
# 6 0.0000 0.0000 0.0000 0.0000 0.0000 29.0377
#
#
#
# Elastic Compliance Matrix: (Units=1/GPa)
#
#
# Indices 1 2 3 4 5 6 
#
# 1 0.006290 -0.002020 -0.002000 0.000000 0.000000 0.000000
# 2 -0.002020 0.017236 -0.003531 0.000000 0.000000 0.000000
# 3 -0.002000 -0.003531 0.011714 0.000000 0.000000 0.000000
# 4 0.000000 0.000000 0.000000 0.024437 0.000000 0.000000
# 5 0.000000 0.000000 0.000000 0.000000 0.011157 0.000000
# 6 0.000000 0.000000 0.000000 0.000000 0.000000 0.034438
#
#
# Mechanical properties :
#
#
# Convention : Reuss Voigt Hill
#
# Bulk Modulus (GPa) = 49.66230 59.54048 54.60139
# Shear Modulus (GPa) = 39.34283 48.79391 44.06837
#
# Velocity S-wave (km/s) = 4.42019 4.92256 4.67812
# Velocity P-wave (km/s) = 7.12134 7.86620 7.50302
#
# Compressibility (1/GPa) = 0.02013600
#
# Stress axis : x y z
#
# Youngs Moduli (GPa) = 158.98050 58.01973 85.36672
#
# Poissons Ratio (x) = 0.11723 0.17075
# Poissons Ratio (y) = 0.32121 0.30145
# Poissons Ratio (z) = 0.31799 0.20488
#
# Static dielectric constant tensor:
#      x y z
#    x 1.851390 0.000000 0.000000 
#    y 0.000000 2.060600 0.000000 
#    z 0.000000 0.000000 1.697280 
# 
# From -- ./inp_files/19913.got.cif
#   From: 2010.05.17/outbox.cif.g08.bks.cpg/sg72_10_cif.got.tgz:19913.got - 2010.06.03 17:03:01.
