data_PCOD9525987
_publ_section_title
;
Structure prediction by ZEFSAII (Michael W. Deem and Ramdas Pophale) SiO2 
 PCOD9525987
Probable space group: I B A M
;
_chemical_formula_sum "Si O2"
_cell_formula_units_Z 96
_cell_length_a 9.237944
_cell_length_b 31.250132
_cell_length_c 14.152112
_cell_angle_alpha 90.000000
_cell_angle_beta 90.000000
_cell_angle_gamma 90.000000
_cell_volume 4085.530324
_symmetry_space_group_name_H-M "I B A M"
_symmetry_group_IT_number 72
_symmetry_cell_setting 'orthorhombic'
loop_
_space_group_symop_operation_xyz
x,y,z
-x,-y,z
x,-y,1/2-z
-x,y,1/2-z
-x,-y,-z
x,y,-z
-x,y,1/2+z
x,-y,1/2+z
1/2+x,1/2+y,1/2+z
1/2-x,1/2-y,1/2+z
1/2+x,1/2-y,-z
1/2-x,1/2+y,-z
1/2-x,1/2-y,1/2-z
1/2+x,1/2+y,1/2-z
1/2-x,1/2+y,z
1/2+x,1/2-y,z
loop_
_atom_site_type_symbol
_atom_site_label
_atom_site_fract_x
_atom_site_fract_y
_atom_site_fract_z
Si Si1 0.378167 0.626393 0.384771
Si Si2 0.955268 0.383309 0.615129
Si Si3 0.452220 0.711250 0.884589
Si Si4 0.057327 0.955513 0.389534
Si Si5 0.614396 0.030160 0.343489
Si Si6 0.121048 0.296666 0.615045
O O1 0.375951 0.627362 0.500000
O O2 0.212334 0.620140 0.354720
O O3 0.449746 0.671056 0.355598
O O4 0.477711 0.586755 0.353190
O O5 0.958149 0.386897 0.500000
O O6 0.032027 0.424781 0.656877
O O7 0.042849 0.340655 0.641324
O O8 0.286687 0.706715 0.851793
O O9 0.527050 0.755594 0.856805
O O10 0.447889 0.710976 0.000000
O O11 0.018608 0.955321 0.500000
O O12 0.229211 0.957837 0.381728
O O13 0.000000 0.000000 0.349647
O O14 0.500000 0.000000 0.398043
O O15 0.641008 0.000000 0.250000
O O16 0.125530 0.296328 0.500000
#
# Coordination Sequence:
#
# PCOD9525987 Si02
#       6
#    16  16  16  16  16  16
#     4   9  17  29  48  76 110 147 187 232 280 330
#     4  10  19  33  54  78 106 145 190 234 281 332
#     4   9  15  24  39  67 110 151 185 224 273 326
#     4  10  20  35  56  81 108 141 183 230 278 331
#     4  11  24  39  54  75 106 140 182 229 282 338
#     4   9  16  25  42  70 107 150 188 226 274 326
#
# _framework density 23.497563
#
# number of rings (size 3 to 8) (size 9 to 14) (size 15 to 20)
#    0.000    2.333    0.000    3.500    0.000    9.667 
#    0.000    0.833    0.000    0.000    0.000    0.000 
#    0.000   65.333    0.000    0.000    0.000    1.833 
#
# Total GULP energy -268319.939757 kJ/mol
# GULP energy per Si atom -5589.998745 kJ/mol
# Density = 2.344408 g / cm^3
# Si number density = 23.497563 Si / 1000 Ang^3
#
#
#
# Elastic Constant Matrix: (Units=GPa)
#
#
# Indices 1 2 3 4 5 6 
#
# 1 194.2393 132.0601 5.7871 0.0000 0.0000 0.0000
# 2 132.0601 280.0948 16.9832 0.0001 0.0000 0.0000
# 3 5.7871 16.9832 91.0583 0.0004 0.0000 0.0000
# 4 0.0000 0.0001 0.0004 -4.3996 0.0000 0.0000
# 5 0.0000 0.0000 0.0000 0.0000 -3.2913 0.0000
# 6 0.0000 0.0000 0.0000 0.0000 0.0000 53.5634
#
#
#
# Elastic Compliance Matrix: (Units=1/GPa)
#
#
# Indices 1 2 3 4 5 6 
#
# 1 0.007580 -0.003585 0.000187 0.000000 0.000000 0.000000
# 2 -0.003585 0.005307 -0.000762 0.000000 0.000000 0.000000
# 3 0.000187 -0.000762 0.011112 0.000001 0.000000 0.000000
# 4 0.000000 0.000000 0.000001 -0.227295 0.000000 0.000000
# 5 0.000000 0.000000 0.000000 0.000000 -0.303831 0.000000
# 6 0.000000 0.000000 0.000000 0.000000 0.000000 0.018669
#
#
# Mechanical properties :
#
#
# Convention : Reuss Voigt Hill
#
# Bulk Modulus (GPa) = 63.78062 97.22816 80.50439
# Shear Modulus (GPa) = -10.52830 36.54531 13.00850
#
# Velocity S-wave (km/s) = -2.11904 3.94798 2.35545
# Velocity P-wave (km/s) = 4.60601 7.88986 6.46008
#
# Compressibility (1/GPa) = 0.01567874
#
# Stress axis : x y z
#
# Youngs Moduli (GPa) = 131.92045 188.43599 89.99123
#
# Poissons Ratio (x) = 0.67561 -0.01682
# Poissons Ratio (y) = 0.47298 0.06857
# Poissons Ratio (z) = -0.02466 0.14357
#
# Static dielectric constant tensor:
#      x y z
#    x 1.831880 0.000000 0.000000 
#    y 0.000000 1.847940 0.000000 
#    z 0.000000 0.000000 1.969800 
# 
# From -- ./inp_files/36026.got.cif
#   From: 2010.05.17/outbox.cif.g08.bks.cpg/sg72_19_cif.got.tgz:36026.got - 2010.06.03 17:03:01.
