data_PCOD9525912
_publ_section_title
;
Structure prediction by ZEFSAII (Michael W. Deem and Ramdas Pophale) SiO2 
 PCOD9525912
Probable space group: I B A M
;
_chemical_formula_sum "Si O2"
_cell_formula_units_Z 96
_cell_length_a 14.978286
_cell_length_b 18.269564
_cell_length_c 14.241252
_cell_angle_alpha 90.000000
_cell_angle_beta 90.000000
_cell_angle_gamma 90.000000
_cell_volume 3897.072392
_symmetry_space_group_name_H-M "I B A M"
_symmetry_group_IT_number 72
_symmetry_cell_setting 'orthorhombic'
loop_
_space_group_symop_operation_xyz
x,y,z
-x,-y,z
x,-y,1/2-z
-x,y,1/2-z
-x,-y,-z
x,y,-z
-x,y,1/2+z
x,-y,1/2+z
1/2+x,1/2+y,1/2+z
1/2-x,1/2-y,1/2+z
1/2+x,1/2-y,-z
1/2-x,1/2+y,-z
1/2-x,1/2-y,1/2-z
1/2+x,1/2+y,1/2-z
1/2-x,1/2+y,z
1/2+x,1/2-y,z
loop_
_atom_site_type_symbol
_atom_site_label
_atom_site_fract_x
_atom_site_fract_y
_atom_site_fract_z
Si Si1 0.349801 0.146143 0.101290
Si Si2 0.521991 0.769365 0.639657
Si Si3 0.102745 0.518731 0.607889
Si Si4 0.810745 0.342509 0.307284
Si Si5 0.525350 0.394530 0.896097
Si Si6 0.642670 0.577155 0.218368
O O1 0.454074 0.169994 0.101231
O O2 0.310706 0.178883 0.197082
O O3 0.345458 0.058375 0.109831
O O4 0.311013 0.168047 0.000000
O O5 0.500000 0.766629 0.750000
O O6 0.626951 0.788368 0.633465
O O7 0.499496 0.690857 0.599104
O O8 0.110670 0.546419 0.500000
O O9 0.136278 0.580711 0.677898
O O10 0.000000 0.500000 0.626542
O O11 0.710053 0.365645 0.328174
O O12 0.439339 0.435483 0.852743
O O13 0.600633 0.394891 0.815848
O O14 0.551199 0.419601 0.000000
O O15 0.684581 0.500000 0.250000
#
# Coordination Sequence:
#
# PCOD9525912 Si02
#       6
#    16  16  16  16  16  16
#     4  10  20  34  56  91 133 176 219 259 314 396
#     4  10  20  39  65  94 130 173 217 263 325 405
#     4  10  19  32  54  88 130 174 222 261 307 386
#     4  11  23  38  67  97 135 178 215 275 338 392
#     4  11  24  46  72  93 128 176 226 283 345 402
#     4  11  25  46  70 102 132 166 231 291 342 404
#
# _framework density 24.633876000000001
#
# number of rings (size 3 to 8) (size 9 to 14) (size 15 to 20)
#    0.000    1.500    3.333    3.000    0.000    4.667 
#    0.000    0.000    0.000    0.000    0.000    0.000 
#    0.000    0.000    0.000    0.000    0.000    0.000 
#
# Total GULP energy -268348.833394 kJ/mol
# GULP energy per Si atom -5590.600696 kJ/mol
# Density = 2.457781 g / cm^3
# Si number density = 24.633876 Si / 1000 Ang^3
#
#
#
# Elastic Constant Matrix: (Units=GPa)
#
#
# Indices 1 2 3 4 5 6 
#
# 1 87.7734 -0.3459 -1.1023 0.0000 0.0000 0.0000
# 2 -0.3459 68.0608 -2.5987 0.0000 0.0000 0.0000
# 3 -1.1023 -2.5987 119.9156 0.0000 0.0000 0.0000
# 4 0.0000 0.0000 0.0000 12.6239 0.0000 0.0000
# 5 0.0000 0.0000 0.0000 0.0000 2.3047 0.0000
# 6 0.0000 0.0000 0.0000 0.0000 0.0000 17.7164
#
#
#
# Elastic Compliance Matrix: (Units=1/GPa)
#
#
# Indices 1 2 3 4 5 6 
#
# 1 0.011395 0.000062 0.000106 0.000000 0.000000 0.000000
# 2 0.000062 0.014705 0.000319 0.000000 0.000000 0.000000
# 3 0.000106 0.000319 0.008347 0.000000 0.000000 0.000000
# 4 0.000000 0.000000 0.000000 0.079215 0.000000 0.000000
# 5 0.000000 0.000000 0.000000 0.000000 0.433899 0.000000
# 6 0.000000 0.000000 0.000000 0.000000 0.000000 0.056445
#
#
# Mechanical properties :
#
#
# Convention : Reuss Voigt Hill
#
# Bulk Modulus (GPa) = 28.23144 29.73954 28.98549
# Shear Modulus (GPa) = 8.13222 25.18211 16.65717
#
# Velocity S-wave (km/s) = 1.81890 3.20074 2.60319
# Velocity P-wave (km/s) = 3.98704 5.07528 4.56371
#
# Compressibility (1/GPa) = 0.03542150
#
# Stress axis : x y z
#
# Youngs Moduli (GPa) = 87.76130 68.00294 119.80219
#
# Poissons Ratio (x) = -0.00421 -0.01271
# Poissons Ratio (y) = -0.00544 -0.03825
# Poissons Ratio (z) = -0.00931 -0.02171
#
# Static dielectric constant tensor:
#      x y z
#    x 1.945830 0.000000 0.000000 
#    y 0.000000 1.969260 0.000000 
#    z 0.000000 0.000000 1.942350 
# 
# From -- ./inp_files/21829.got.cif
#   From: 2010.05.17/outbox.cif.g08.bks.cpg/sg72_11_cif.got.tgz:21829.got - 2010.06.03 17:03:01.
