data_PCOD9525394
_publ_section_title
;
Structure prediction by ZEFSAII (Michael W. Deem and Ramdas Pophale) SiO2 
 PCOD9525394
Probable space group: I B A M
;
_chemical_formula_sum "Si O2"
_cell_formula_units_Z 112
_cell_length_a 19.011758
_cell_length_b 19.867413
_cell_length_c 17.703117
_cell_angle_alpha 90.000000
_cell_angle_beta 90.000000
_cell_angle_gamma 90.000000
_cell_volume 6686.723066
_symmetry_space_group_name_H-M "I B A M"
_symmetry_group_IT_number 72
_symmetry_cell_setting 'orthorhombic'
loop_
_space_group_symop_operation_xyz
x,y,z
-x,-y,z
x,-y,1/2-z
-x,y,1/2-z
-x,-y,-z
x,y,-z
-x,y,1/2+z
x,-y,1/2+z
1/2+x,1/2+y,1/2+z
1/2-x,1/2-y,1/2+z
1/2+x,1/2-y,-z
1/2-x,1/2+y,-z
1/2-x,1/2-y,1/2-z
1/2+x,1/2+y,1/2-z
1/2-x,1/2+y,z
1/2+x,1/2-y,z
loop_
_atom_site_type_symbol
_atom_site_label
_atom_site_fract_x
_atom_site_fract_y
_atom_site_fract_z
Si Si1 0.221184 0.031140 0.408334
Si Si2 0.982396 0.189301 0.833160
Si Si3 0.737147 0.114731 0.591895
Si Si4 0.276378 0.173233 0.591007
Si Si5 0.868981 0.206266 0.408794
Si Si6 0.430503 0.535898 0.331795
Si Si7 0.358247 0.767640 0.409613
O O1 0.218167 0.033043 0.500000
O O2 0.259266 0.962363 0.384513
O O3 0.262228 0.097853 0.381312
O O4 0.141436 0.029448 0.377991
O O5 0.949070 0.114757 0.825627
O O6 0.927538 0.238830 0.872346
O O7 0.000000 0.214142 0.750000
O O8 0.055400 0.186779 0.878147
O O9 0.736612 0.116321 0.500000
O O10 0.808936 0.152929 0.614944
O O11 0.671158 0.159968 0.616367
O O12 0.283547 0.169136 0.500000
O O13 0.340927 0.220104 0.617254
O O14 0.205697 0.215919 0.605719
O O15 0.870654 0.206366 0.500000
O O16 0.500000 0.500000 0.366328
O O17 0.421217 0.500000 0.250000
O O18 0.368083 0.769535 0.500000
#
# Coordination Sequence:
#
# PCOD9525394 Si02
#       7
#    16  16  16  16  16  16  16
#     4  10  18  31  55  79  98 129 169 204 246 305
#     4  12  22  33  49  72 101 140 172 202 242 298
#     4   8  16  30  51  78 102 124 162 215 255 292
#     4   8  15  30  52  77 100 125 165 214 253 293
#     4   9  18  33  52  74 101 130 167 213 256 294
#     4  11  22  35  45  66 109 144 160 194 249 296
#     4   9  17  33  53  73  99 131 168 209 254 295
#
# _framework density 16.749609
#
# number of rings (size 3 to 8) (size 9 to 14) (size 15 to 20)
#    0.000    2.429    2.857    3.000    0.000    0.857 
#    0.000    4.286    0.000    0.857    0.000    6.000 
#    0.000    0.000    0.000    0.000    0.000    0.000 
#
# Total GULP energy -312023.327392 kJ/mol
# GULP energy per Si atom -5571.845132 kJ/mol
# Density = 1.671149 g / cm^3
# Si number density = 16.749609 Si / 1000 Ang^3
#
#
#
# Elastic Constant Matrix: (Units=GPa)
#
#
# Indices 1 2 3 4 5 6 
#
# 1 42.0979 28.9763 13.8061 0.0000 0.0000 0.0000
# 2 28.9763 128.2345 17.8525 0.0000 0.0000 0.0000
# 3 13.8061 17.8525 16.1592 0.0000 0.0000 0.0000
# 4 0.0000 0.0000 0.0000 17.7416 0.0000 0.0000
# 5 0.0000 0.0000 0.0000 0.0000 -4.7074 0.0000
# 6 0.0000 0.0000 0.0000 0.0000 0.0000 21.6121
#
#
#
# Elastic Compliance Matrix: (Units=1/GPa)
#
#
# Indices 1 2 3 4 5 6 
#
# 1 0.035006 -0.004427 -0.025017 0.000000 0.000000 0.000000
# 2 -0.004427 0.009776 -0.007017 0.000000 0.000000 0.000000
# 3 -0.025017 -0.007017 0.091011 0.000000 0.000000 0.000000
# 4 0.000000 0.000000 0.000000 0.056365 0.000000 0.000000
# 5 0.000000 0.000000 0.000000 0.000000 -0.212432 0.000000
# 6 0.000000 0.000000 0.000000 0.000000 0.000000 0.046270
#
#
# Mechanical properties :
#
#
# Convention : Reuss Voigt Hill
#
# Bulk Modulus (GPa) = 15.90612 34.19572 25.05092
# Shear Modulus (GPa) = 41.70990 15.31971 28.51481
#
# Velocity S-wave (km/s) = 4.99561 3.02757 4.13051
# Velocity P-wave (km/s) = 6.54154 5.71679 6.14302
#
# Compressibility (1/GPa) = 0.06286887
#
# Stress axis : x y z
#
# Youngs Moduli (GPa) = 28.56662 102.29616 10.98769
#
# Poissons Ratio (x) = 0.45289 0.27488
# Poissons Ratio (y) = 0.12647 0.07710
# Poissons Ratio (z) = 0.71466 0.71785
#
# Static dielectric constant tensor:
#      x y z
#    x 1.548910 0.000000 0.000000 
#    y 0.000000 1.595180 0.000000 
#    z 0.000000 0.000000 1.574760 
# 
# From -- ./inp_files/31922.got.cif
#   From: 2010.05.17/outbox.cif.g08.bks.cpg/sg72_16_cif.got.tgz:31922.got - 2010.06.03 17:03:01.
