data_PCOD9525875
_publ_section_title
;
Structure prediction by ZEFSAII (Michael W. Deem and Ramdas Pophale) SiO2 
 PCOD9525875
Probable space group: I B A M
;
_chemical_formula_sum "Si O2"
_cell_formula_units_Z 96
_cell_length_a 29.934715
_cell_length_b 9.760383
_cell_length_c 14.090560
_cell_angle_alpha 90.000000
_cell_angle_beta 90.000000
_cell_angle_gamma 90.000000
_cell_volume 4116.899271
_symmetry_space_group_name_H-M "I B A M"
_symmetry_group_IT_number 72
_symmetry_cell_setting 'orthorhombic'
loop_
_space_group_symop_operation_xyz
x,y,z
-x,-y,z
x,-y,1/2-z
-x,y,1/2-z
-x,-y,-z
x,y,-z
-x,y,1/2+z
x,-y,1/2+z
1/2+x,1/2+y,1/2+z
1/2-x,1/2-y,1/2+z
1/2+x,1/2-y,-z
1/2-x,1/2+y,-z
1/2-x,1/2-y,1/2-z
1/2+x,1/2+y,1/2-z
1/2-x,1/2+y,z
1/2+x,1/2-y,z
loop_
_atom_site_type_symbol
_atom_site_label
_atom_site_fract_x
_atom_site_fract_y
_atom_site_fract_z
Si Si1 0.477961 0.634081 0.853286
Si Si2 0.293441 0.251501 0.384053
Si Si3 0.122514 0.936295 0.384680
Si Si4 0.968853 0.612679 0.394823
Si Si5 0.291767 0.066822 0.884078
Si Si6 0.877671 0.254960 0.116134
O O1 0.500000 0.500000 0.897284
O O2 0.500000 0.644170 0.750000
O O3 0.425286 0.617861 0.851224
O O4 0.496752 0.764077 0.904669
O O5 0.293169 0.247917 0.500000
O O6 0.337710 0.334931 0.355320
O O7 0.251017 0.343220 0.354889
O O8 0.291388 0.092353 0.352971
O O9 0.121906 0.936269 0.500000
O O10 0.127459 0.095758 0.354840
O O11 0.955678 0.559626 0.500000
O O12 0.923700 0.673773 0.350453
O O13 0.000000 0.500000 0.347711
O O14 0.336105 0.150188 0.856659
O O15 0.291107 0.063421 0.000000
O O16 0.879692 0.251115 0.000000
#
# Coordination Sequence:
#
# PCOD9525875 Si02
#       6
#    16  16  16  16  16  16
#     4  11  23  38  55  77 109 145 191 228 280 337
#     4   9  17  27  45  73 108 145 178 221 275 332
#     4  10  19  32  53  78 106 144 188 232 278 327
#     4  10  21  35  55  81 109 142 184 233 282 330
#     4   9  16  27  43  71 111 145 176 218 275 332
#     4   9  17  29  46  72 106 141 177 223 275 324
#
# _framework density 23.318521
#
# number of rings (size 3 to 8) (size 9 to 14) (size 15 to 20)
#    0.000    2.333    1.667    1.500    2.333    5.000 
#    0.000    0.000    0.000    0.000    0.000    1.167 
#    0.000    0.000    0.000    0.000    0.000    0.000 
#
# Total GULP energy -268307.854756 kJ/mol
# GULP energy per Si atom -5589.746974 kJ/mol
# Density = 2.326545 g / cm^3
# Si number density = 23.318521 Si / 1000 Ang^3
#
#
#
# Elastic Constant Matrix: (Units=GPa)
#
#
# Indices 1 2 3 4 5 6 
#
# 1 262.8931 173.2854 19.0089 0.0000 0.0000 0.0000
# 2 173.2854 199.3154 17.9009 0.0000 0.0000 0.0000
# 3 19.0089 17.9009 73.9590 0.0000 0.0000 0.0000
# 4 0.0000 0.0000 0.0000 -2.0631 0.0000 0.0000
# 5 0.0000 0.0000 0.0000 0.0000 22.0235 0.0000
# 6 0.0000 0.0000 0.0000 0.0000 0.0000 44.7597
#
#
#
# Elastic Compliance Matrix: (Units=1/GPa)
#
#
# Indices 1 2 3 4 5 6 
#
# 1 0.008923 -0.007719 -0.000425 0.000000 0.000000 0.000000
# 2 -0.007719 0.011807 -0.000874 0.000000 0.000000 0.000000
# 3 -0.000425 -0.000874 0.013842 0.000000 0.000000 0.000000
# 4 0.000000 0.000000 0.000000 -0.484717 0.000000 0.000000
# 5 0.000000 0.000000 0.000000 0.000000 0.045406 0.000000
# 6 0.000000 0.000000 0.000000 0.000000 0.000000 0.022342
#
#
# Mechanical properties :
#
#
# Convention : Reuss Voigt Hill
#
# Bulk Modulus (GPa) = 60.47639 106.28419 83.38029
# Shear Modulus (GPa) = -13.93335 34.67552 10.37108
#
# Velocity S-wave (km/s) = -2.44708 3.86040 2.11122
# Velocity P-wave (km/s) = 4.24346 8.09620 6.46357
#
# Compressibility (1/GPa) = 0.01653538
#
# Stress axis : x y z
#
# Youngs Moduli (GPa) = 112.07418 84.69726 72.24546
#
# Poissons Ratio (x) = 0.65380 0.03070
# Poissons Ratio (y) = 0.86513 0.06312
# Poissons Ratio (z) = 0.04763 0.07400
#
# Static dielectric constant tensor:
#      x y z
#    x 1.814620 0.000000 0.000000 
#    y 0.000000 1.790830 0.000000 
#    z 0.000000 0.000000 2.003650 
# 
# From -- ./inp_files/36002.got.cif
#   From: 2010.05.17/outbox.cif.g08.bks.cpg/sg72_19_cif.got.tgz:36002.got - 2010.06.03 17:03:01.
