data_PCOD9525665
_publ_section_title
;
Structure prediction by ZEFSAII (Michael W. Deem and Ramdas Pophale) SiO2 
 PCOD9525665
Probable space group: I B A M
;
_chemical_formula_sum "Si O2"
_cell_formula_units_Z 128
_cell_length_a 20.316343
_cell_length_b 19.464419
_cell_length_c 14.782534
_cell_angle_alpha 90.000000
_cell_angle_beta 90.000000
_cell_angle_gamma 90.000000
_cell_volume 5845.691171
_symmetry_space_group_name_H-M "I B A M"
_symmetry_group_IT_number 72
_symmetry_cell_setting 'orthorhombic'
loop_
_space_group_symop_operation_xyz
x,y,z
-x,-y,z
x,-y,1/2-z
-x,y,1/2-z
-x,-y,-z
x,y,-z
-x,y,1/2+z
x,-y,1/2+z
1/2+x,1/2+y,1/2+z
1/2-x,1/2-y,1/2+z
1/2+x,1/2-y,-z
1/2-x,1/2+y,-z
1/2-x,1/2-y,1/2-z
1/2+x,1/2+y,1/2-z
1/2-x,1/2+y,z
1/2+x,1/2-y,z
loop_
_atom_site_type_symbol
_atom_site_label
_atom_site_fract_x
_atom_site_fract_y
_atom_site_fract_z
Si Si1 0.899260 0.145903 0.103687
Si Si2 0.385249 0.488671 0.357390
Si Si3 0.541444 0.648290 0.391586
Si Si4 0.597004 0.039282 0.607872
Si Si5 0.240254 0.496036 0.643044
Si Si6 0.467051 0.104164 0.610703
Si Si7 0.874161 0.272140 0.610975
Si Si8 0.244944 0.155837 0.606545
O O1 0.828497 0.163864 0.146370
O O2 0.969025 0.165790 0.146316
O O3 0.900364 0.062804 0.101227
O O4 0.898579 0.171595 0.000000
O O5 0.384358 0.500000 0.250000
O O6 0.437176 0.429694 0.376448
O O7 0.311192 0.468616 0.388915
O O8 0.536463 0.657559 0.500000
O O9 0.598968 0.698640 0.359412
O O10 0.589036 0.037598 0.500000
O O11 0.542746 0.093950 0.640872
O O12 0.674477 0.046316 0.623047
O O13 0.572771 0.964104 0.640515
O O14 0.244035 0.500000 0.750000
O O15 0.234723 0.575278 0.610960
O O16 0.466101 0.105014 0.500000
O O17 0.428511 0.171623 0.638839
O O18 0.871044 0.272943 0.500000
O O19 0.803127 0.297351 0.644614
O O20 0.239480 0.171445 0.500000
#
# Coordination Sequence:
#
# PCOD9525665 Si02
#       8
#    16  16  16  16  16  16  16  16
#     4   9  18  32  52  77 101 125 163 211 253 293
#     4  10  21  35  52  72  98 132 171 211 254 304
#     4  10  20  33  51  79 107 128 158 211 265 301
#     4   9  15  26  47  73  98 128 172 212 244 289
#     4  10  19  30  47  72 102 130 167 217 259 290
#     4   8  14  25  45  73  99 127 166 206 240 288
#     4   9  16  29  51  76 104 134 165 200 247 307
#     4   9  16  30  53  75  96 133 172 196 237 309
#
# _framework density 21.896470999999998
#
# number of rings (size 3 to 8) (size 9 to 14) (size 15 to 20)
#    0.000    2.750    1.250    1.875    0.000    3.500 
#    0.000    2.500    0.000   14.250    0.000    0.000 
#    0.000    0.000    0.000    0.000    0.000    0.000 
#
# Total GULP energy -356900.852483 kJ/mol
# GULP energy per Si atom -5576.575820 kJ/mol
# Density = 2.184663 g / cm^3
# Si number density = 21.896471 Si / 1000 Ang^3
#
#
#
# Elastic Constant Matrix: (Units=GPa)
#
#
# Indices 1 2 3 4 5 6 
#
# 1 187.1983 34.2786 4.0729 0.0000 0.0000 0.0000
# 2 34.2786 33.6989 -2.9957 0.0000 0.0000 0.0000
# 3 4.0729 -2.9957 33.0717 0.0000 0.0000 0.0000
# 4 0.0000 0.0000 0.0000 -37.0657 0.0000 0.0000
# 5 0.0000 0.0000 0.0000 0.0000 27.0977 0.0000
# 6 0.0000 0.0000 0.0000 0.0000 0.0000 20.3538
#
#
#
# Elastic Compliance Matrix: (Units=1/GPa)
#
#
# Indices 1 2 3 4 5 6 
#
# 1 0.006632 -0.006874 -0.001439 0.000000 0.000000 0.000000
# 2 -0.006874 0.037040 0.004202 0.000000 0.000000 0.000000
# 3 -0.001439 0.004202 0.030795 0.000000 0.000000 0.000000
# 4 0.000000 0.000000 0.000000 -0.026979 0.000000 0.000000
# 5 0.000000 0.000000 0.000000 0.000000 0.036903 0.000000
# 6 0.000000 0.000000 0.000000 0.000000 0.000000 0.049131
#
#
# Mechanical properties :
#
#
# Convention : Reuss Voigt Hill
#
# Bulk Modulus (GPa) = 15.09569 36.07562 25.58565
# Shear Modulus (GPa) = 30.51991 16.65137 23.58564
#
# Velocity S-wave (km/s) = 3.73745 2.76063 3.28555
# Velocity P-wave (km/s) = 5.05310 5.16457 5.10914
#
# Compressibility (1/GPa) = 0.06624407
#
# Stress axis : x y z
#
# Youngs Moduli (GPa) = 150.78476 26.99763 32.47256
#
# Poissons Ratio (x) = 0.18558 0.04674
# Poissons Ratio (y) = 1.03649 -0.13644
# Poissons Ratio (z) = 0.21704 -0.11344
#
# Static dielectric constant tensor:
#      x y z
#    x 1.880210 0.000000 0.000000 
#    y 0.000000 1.781910 0.000000 
#    z 0.000000 0.000000 1.821360 
# 
# From -- ./inp_files/39341.got.cif
#   From: 2010.05.17/outbox.cif.g08.bks.cpg/sg72_20_cif.got.tgz:39341.got - 2010.06.03 17:03:01.
