data_PCOD9525836
_publ_section_title
;
Structure prediction by ZEFSAII (Michael W. Deem and Ramdas Pophale) SiO2 
 PCOD9525836
Probable space group: I B A M
;
_chemical_formula_sum "Si O2"
_cell_formula_units_Z 80
_cell_length_a 19.516525
_cell_length_b 27.232098
_cell_length_c 8.392460
_cell_angle_alpha 90.000000
_cell_angle_beta 90.000000
_cell_angle_gamma 90.000000
_cell_volume 4460.390411
_symmetry_space_group_name_H-M "I B A M"
_symmetry_group_IT_number 72
_symmetry_cell_setting 'orthorhombic'
loop_
_space_group_symop_operation_xyz
x,y,z
-x,-y,z
x,-y,1/2-z
-x,y,1/2-z
-x,-y,-z
x,y,-z
-x,y,1/2+z
x,-y,1/2+z
1/2+x,1/2+y,1/2+z
1/2-x,1/2-y,1/2+z
1/2+x,1/2-y,-z
1/2-x,1/2+y,-z
1/2-x,1/2-y,1/2-z
1/2+x,1/2+y,1/2-z
1/2-x,1/2+y,z
1/2+x,1/2-y,z
loop_
_atom_site_type_symbol
_atom_site_label
_atom_site_fract_x
_atom_site_fract_y
_atom_site_fract_z
Si Si1 0.421669 0.642268 0.691078
Si Si2 0.328396 0.946607 0.307485
Si Si3 0.578545 0.749378 0.807883
Si Si4 0.670549 0.446722 0.809621
Si Si5 0.578352 0.143477 0.306993
O O1 0.500000 0.637579 0.750000
O O2 0.422394 0.641509 0.500000
O O3 0.393868 0.696192 0.744989
O O4 0.376104 0.597683 0.751641
O O5 0.328783 0.946491 0.500000
O O6 0.249445 0.940542 0.253863
O O7 0.375445 0.901774 0.251053
O O8 0.352604 0.000000 0.250000
O O9 0.500000 0.749515 0.750000
O O10 0.606238 0.802602 0.755423
O O11 0.579982 0.749304 0.000000
O O12 0.646245 0.500000 0.750000
O O13 0.670637 0.447230 0.000000
O O14 0.500000 0.138606 0.250000
O O15 0.577981 0.142812 0.500000
#
# Coordination Sequence:
#
# PCOD9525836 Si02
#       5
#    16  16  16  16  16
#     4  10  19  32  51  75  99 125 157 196 237 282
#     4   9  19  34  51  69  95 129 163 198 240 285
#     4   8  15  28  47  69  96 126 156 190 233 280
#     4  10  20  35  52  70  94 127 162 198 239 285
#     4   9  17  31  50  73  98 127 161 198 237 280
#
# _framework density 17.935649999999999
#
# number of rings (size 3 to 8) (size 9 to 14) (size 15 to 20)
#    0.000    2.800    0.000    1.200    0.000    3.200 
#    0.000    5.000    0.000    0.000    0.000    0.000 
#    0.000    0.000    0.000    0.000    0.000    0.000 
#
# Total GULP energy -222780.231518 kJ/mol
# GULP energy per Si atom -5569.505788 kJ/mol
# Density = 1.789483 g / cm^3
# Si number density = 17.935650 Si / 1000 Ang^3
#
#
#
# Elastic Constant Matrix: (Units=GPa)
#
#
# Indices 1 2 3 4 5 6 
#
# 1 51.5841 85.6394 11.2930 0.0000 0.0000 0.0000
# 2 85.6394 241.2282 28.5842 0.0000 0.0000 0.0000
# 3 11.2930 28.5842 18.8251 0.0000 0.0000 0.0000
# 4 0.0000 0.0000 0.0000 22.4109 0.0000 0.0000
# 5 0.0000 0.0000 0.0000 0.0000 18.5028 0.0000
# 6 0.0000 0.0000 0.0000 0.0000 0.0000 -37.5456
#
#
#
# Elastic Compliance Matrix: (Units=1/GPa)
#
#
# Indices 1 2 3 4 5 6 
#
# 1 0.047402 -0.016412 -0.003516 0.000000 0.000000 0.000000
# 2 -0.016412 0.010737 -0.006458 0.000000 0.000000 0.000000
# 3 -0.003516 -0.006458 0.065036 0.000000 0.000000 0.000000
# 4 0.000000 0.000000 0.000000 0.044621 0.000000 0.000000
# 5 0.000000 0.000000 0.000000 0.000000 0.054046 0.000000
# 6 0.000000 0.000000 0.000000 0.000000 0.000000 -0.026634
#
#
# Mechanical properties :
#
#
# Convention : Reuss Voigt Hill
#
# Bulk Modulus (GPa) = 14.20396 62.51894 38.36145
# Shear Modulus (GPa) = 18.41973 13.08167 15.75070
#
# Velocity S-wave (km/s) = 3.20814 2.70361 2.96662
# Velocity P-wave (km/s) = 4.65398 6.68424 5.75928
#
# Compressibility (1/GPa) = 0.07040288
#
# Stress axis : x y z
#
# Youngs Moduli (GPa) = 21.09599 93.13482 15.37615
#
# Poissons Ratio (x) = 1.52851 0.05407
# Poissons Ratio (y) = 0.34622 0.09930
# Poissons Ratio (z) = 0.07418 0.60147
#
# Static dielectric constant tensor:
#      x y z
#    x 1.576270 0.000000 0.000000 
#    y 0.000000 1.657310 0.000000 
#    z 0.000000 0.000000 1.620510 
# 
# From -- ./inp_files/4744.got.cif
#   From: 2010.05.17/outbox.cif.g08.bks.cpg/sg72_3_cif.got.tgz:4744.got - 2010.06.03 17:03:01.
