data_PCOD9525902
_publ_section_title
;
Structure prediction by ZEFSAII (Michael W. Deem and Ramdas Pophale) SiO2 
 PCOD9525902
Probable space group: I B A M
;
_chemical_formula_sum "Si O2"
_cell_formula_units_Z 128
_cell_length_a 11.780795
_cell_length_b 24.761667
_cell_length_c 22.557471
_cell_angle_alpha 90.000000
_cell_angle_beta 90.000000
_cell_angle_gamma 90.000000
_cell_volume 6580.287750
_symmetry_space_group_name_H-M "I B A M"
_symmetry_group_IT_number 72
_symmetry_cell_setting 'orthorhombic'
loop_
_space_group_symop_operation_xyz
x,y,z
-x,-y,z
x,-y,1/2-z
-x,y,1/2-z
-x,-y,-z
x,y,-z
-x,y,1/2+z
x,-y,1/2+z
1/2+x,1/2+y,1/2+z
1/2-x,1/2-y,1/2+z
1/2+x,1/2-y,-z
1/2-x,1/2+y,-z
1/2-x,1/2-y,1/2-z
1/2+x,1/2+y,1/2-z
1/2-x,1/2+y,z
1/2+x,1/2-y,z
loop_
_atom_site_type_symbol
_atom_site_label
_atom_site_fract_x
_atom_site_fract_y
_atom_site_fract_z
Si Si1 0.878796 0.530351 0.306383
Si Si2 0.279380 0.611154 0.430458
Si Si3 0.361802 0.002425 0.567630
Si Si4 0.572644 0.781607 0.932423
Si Si5 0.212193 0.803476 0.641171
Si Si6 0.490225 0.656384 0.070034
Si Si7 0.867322 0.685239 0.861722
Si Si8 0.123320 0.649976 0.239427
O O1 0.820460 0.500000 0.250000
O O2 0.827718 0.529848 0.372762
O O3 0.897217 0.591609 0.287836
O O4 0.000000 0.500000 0.311819
O O5 0.296638 0.610325 0.500000
O O6 0.194933 0.560978 0.418844
O O7 0.408569 0.617160 0.407500
O O8 0.214505 0.665567 0.413324
O O9 0.325065 0.986743 0.500000
O O10 0.500000 0.000000 0.565205
O O11 0.699814 0.791049 0.911626
O O12 0.537204 0.718523 0.928205
O O13 0.493144 0.815855 0.888191
O O14 0.554345 0.798773 0.000000
O O15 0.156084 0.746282 0.657232
O O16 0.285458 0.822217 0.697322
O O17 0.117331 0.842866 0.613859
O O18 0.462021 0.646004 0.000000
O O19 0.836610 0.646701 0.807161
O O20 0.000000 0.678016 0.250000
#
# Coordination Sequence:
#
# PCOD9525902 Si02
#       8
#    16  16  16  16  16  16  16  16
#     4  10  19  35  59  85 116 150 191 246 320 387
#     4  10  19  34  60  89 119 160 198 243 317 381
#     4   9  19  33  54  88 125 150 189 255 318 380
#     4  10  19  32  54  81 116 159 204 256 306 356
#     4  11  22  37  54  83 123 165 211 255 303 361
#     4   9  19  35  55  81 118 162 208 247 297 373
#     4  11  22  36  54  85 121 160 206 254 300 364
#     4  12  23  38  57  83 117 160 205 252 316 384
#
# _framework density 19.452037000000001
#
# number of rings (size 3 to 8) (size 9 to 14) (size 15 to 20)
#    0.000    1.750    3.750    1.875    1.750    1.000 
#    0.000    1.875    0.000    0.750    0.000    3.500 
#    0.000    0.000    0.000    0.000    0.000    0.000 
#
# Total GULP energy -356276.028937 kJ/mol
# GULP energy per Si atom -5566.812952 kJ/mol
# Density = 1.940776 g / cm^3
# Si number density = 19.452037 Si / 1000 Ang^3
#
#
#
# Elastic Constant Matrix: (Units=GPa)
#
#
# Indices 1 2 3 4 5 6 
#
# 1 94.9114 24.8095 31.0686 0.0000 0.0000 0.0000
# 2 24.8095 50.7078 35.6838 0.0000 0.0000 0.0000
# 3 31.0686 35.6838 98.2607 0.0000 0.0000 0.0000
# 4 0.0000 0.0000 0.0000 19.8317 0.0000 0.0000
# 5 0.0000 0.0000 0.0000 0.0000 17.9772 0.0000
# 6 0.0000 0.0000 0.0000 0.0000 0.0000 20.4905
#
#
#
# Elastic Compliance Matrix: (Units=1/GPa)
#
#
# Indices 1 2 3 4 5 6 
#
# 1 0.012462 -0.004466 -0.002319 0.000000 0.000000 0.000000
# 2 -0.004466 0.028091 -0.008789 0.000000 0.000000 0.000000
# 3 -0.002319 -0.008789 0.014102 0.000000 0.000000 0.000000
# 4 0.000000 0.000000 0.000000 0.050424 0.000000 0.000000
# 5 0.000000 0.000000 0.000000 0.000000 0.055626 0.000000
# 6 0.000000 0.000000 0.000000 0.000000 0.000000 0.048803
#
#
# Mechanical properties :
#
#
# Convention : Reuss Voigt Hill
#
# Bulk Modulus (GPa) = 42.53889 47.44484 44.99187
# Shear Modulus (GPa) = 20.12136 21.81444 20.96790
#
# Velocity S-wave (km/s) = 3.21971 3.35243 3.28674
# Velocity P-wave (km/s) = 5.97814 6.27923 6.13053
#
# Compressibility (1/GPa) = 0.02350790
#
# Stress axis : x y z
#
# Youngs Moduli (GPa) = 80.24089 35.59869 70.91179
#
# Poissons Ratio (x) = 0.15897 0.16442
# Poissons Ratio (y) = 0.35833 0.62327
# Poissons Ratio (z) = 0.18606 0.31289
#
# Static dielectric constant tensor:
#      x y z
#    x 1.754810 0.000000 0.000000 
#    y 0.000000 1.692500 0.000000 
#    z 0.000000 0.000000 1.775440 
# 
# From -- ./inp_files/43694.got.cif
#   From: 2010.05.17/outbox.cif.g08.bks.cpg/sg72_22_cif.got.tgz:43694.got - 2010.06.03 17:03:01.
