data_PCOD9525294
_publ_section_title
;
Structure prediction by ZEFSAII (Michael W. Deem and Ramdas Pophale) SiO2 
 PCOD9525294
Probable space group: I B A M
;
_chemical_formula_sum "Si O2"
_cell_formula_units_Z 96
_cell_length_a 20.461059
_cell_length_b 30.730438
_cell_length_c 9.257471
_cell_angle_alpha 90.000000
_cell_angle_beta 90.000000
_cell_angle_gamma 90.000000
_cell_volume 5820.887667
_symmetry_space_group_name_H-M "I B A M"
_symmetry_group_IT_number 72
_symmetry_cell_setting 'orthorhombic'
loop_
_space_group_symop_operation_xyz
x,y,z
-x,-y,z
x,-y,1/2-z
-x,y,1/2-z
-x,-y,-z
x,y,-z
-x,y,1/2+z
x,-y,1/2+z
1/2+x,1/2+y,1/2+z
1/2-x,1/2-y,1/2+z
1/2+x,1/2-y,-z
1/2-x,1/2+y,-z
1/2-x,1/2-y,1/2-z
1/2+x,1/2+y,1/2-z
1/2-x,1/2+y,z
1/2+x,1/2-y,z
loop_
_atom_site_type_symbol
_atom_site_label
_atom_site_fract_x
_atom_site_fract_y
_atom_site_fract_z
Si Si1 0.306184 0.277027 0.672495
Si Si2 0.262534 0.371137 0.331356
Si Si3 0.435420 0.778341 0.827300
Si Si4 0.257189 0.542640 0.664287
Si Si5 0.597833 0.955971 0.332649
Si Si6 0.104549 0.367105 0.329773
O O1 0.294892 0.275824 0.500000
O O2 0.250000 0.250000 0.750000
O O3 0.298637 0.327273 0.716741
O O4 0.374771 0.253708 0.701068
O O5 0.276593 0.379002 0.500000
O O6 0.279590 0.413278 0.239687
O O7 0.183842 0.364890 0.320062
O O8 0.500000 0.761004 0.750000
O O9 0.421406 0.825353 0.755867
O O10 0.443426 0.782813 0.000000
O O11 0.277984 0.500000 0.750000
O O12 0.278688 0.540537 0.500000
O O13 0.177490 0.543044 0.664988
O O14 0.575736 0.954894 0.500000
O O15 0.581613 0.912066 0.244770
O O16 0.577100 0.000000 0.250000
O O17 0.087101 0.366082 0.500000
#
# Coordination Sequence:
#
# PCOD9525294 Si02
#       6
#    16  16  16  16  16  16
#     4  10  20  34  53  76 101 131 167 210 255 300
#     4   9  17  29  46  70  98 127 161 203 248 294
#     4  11  23  37  53  73 100 133 170 209 253 302
#     4   9  16  25  39  62  94 130 162 196 240 290
#     4   9  16  26  41  64  93 124 162 204 249 296
#     4  10  18  30  49  70  95 127 164 206 254 299
#
# _framework density 16.492329999999999
#
# number of rings (size 3 to 8) (size 9 to 14) (size 15 to 20)
#    0.000    2.333    1.667    2.000    0.000    6.000 
#    0.000    0.000    0.000    0.500    0.000    3.500 
#    0.000    0.667    0.000    7.667    0.000    2.667 
#
# Total GULP energy -267874.307800 kJ/mol
# GULP energy per Si atom -5580.714746 kJ/mol
# Density = 1.645479 g / cm^3
# Si number density = 16.492330 Si / 1000 Ang^3
#
#
#
# Elastic Constant Matrix: (Units=GPa)
#
#
# Indices 1 2 3 4 5 6 
#
# 1 56.8592 53.0537 49.6799 0.0000 0.0000 0.0000
# 2 53.0537 160.5651 89.6952 0.0000 0.0000 0.0000
# 3 49.6799 89.6952 120.0494 -0.0001 0.0000 0.0000
# 4 0.0000 0.0000 -0.0001 31.2472 0.0000 0.0000
# 5 0.0000 0.0000 0.0000 0.0000 14.3356 0.0000
# 6 0.0000 0.0000 0.0000 0.0000 0.0000 2.8537
#
#
#
# Elastic Compliance Matrix: (Units=1/GPa)
#
#
# Indices 1 2 3 4 5 6 
#
# 1 0.029774 -0.005072 -0.008532 0.000000 0.000000 0.000000
# 2 -0.005072 0.011554 -0.006533 0.000000 0.000000 0.000000
# 3 -0.008532 -0.006533 0.016742 0.000000 0.000000 0.000000
# 4 0.000000 0.000000 0.000000 0.032003 0.000000 0.000000
# 5 0.000000 0.000000 0.000000 0.000000 0.069756 0.000000
# 6 0.000000 0.000000 0.000000 0.000000 0.000000 0.350428
#
#
# Mechanical properties :
#
#
# Convention : Reuss Voigt Hill
#
# Bulk Modulus (GPa) = 56.19384 80.25904 68.22644
# Shear Modulus (GPa) = 8.98531 19.35696 14.17113
#
# Velocity S-wave (km/s) = 2.33666 3.42964 2.93449
# Velocity P-wave (km/s) = 6.43636 8.02828 7.27599
#
# Compressibility (1/GPa) = 0.01779554
#
# Stress axis : x y z
#
# Youngs Moduli (GPa) = 33.58585 86.55371 59.72945
#
# Poissons Ratio (x) = 0.43898 0.50962
# Poissons Ratio (y) = 0.17034 0.39024
# Poissons Ratio (z) = 0.28656 0.56549
#
# Static dielectric constant tensor:
#      x y z
#    x 1.550400 0.000000 0.000000 
#    y 0.000000 1.549720 0.000000 
#    z 0.000000 0.000000 1.551750 
# 
# From -- ./inp_files/5943.got.cif
#   From: 2010.05.17/outbox.cif.g08.bks.cpg/sg72_3_cif.got.tgz:5943.got - 2010.06.03 17:03:01.
