data_PCOD9525316
_publ_section_title
;
Structure prediction by ZEFSAII (Michael W. Deem and Ramdas Pophale) SiO2 
 PCOD9525316
Probable space group: I B A M
;
_chemical_formula_sum "Si O2"
_cell_formula_units_Z 128
_cell_length_a 19.246494
_cell_length_b 20.212458
_cell_length_c 20.203535
_cell_angle_alpha 90.000000
_cell_angle_beta 90.000000
_cell_angle_gamma 90.000000
_cell_volume 7859.558005
_symmetry_space_group_name_H-M "I B A M"
_symmetry_group_IT_number 72
_symmetry_cell_setting 'orthorhombic'
loop_
_space_group_symop_operation_xyz
x,y,z
-x,-y,z
x,-y,1/2-z
-x,y,1/2-z
-x,-y,-z
x,y,-z
-x,y,1/2+z
x,-y,1/2+z
1/2+x,1/2+y,1/2+z
1/2-x,1/2-y,1/2+z
1/2+x,1/2-y,-z
1/2-x,1/2+y,-z
1/2-x,1/2-y,1/2-z
1/2+x,1/2+y,1/2-z
1/2-x,1/2+y,z
1/2+x,1/2-y,z
loop_
_atom_site_type_symbol
_atom_site_label
_atom_site_fract_x
_atom_site_fract_y
_atom_site_fract_z
Si Si1 0.281883 0.068384 0.832884
Si Si2 0.182907 0.819688 0.688290
Si Si3 0.721286 0.697013 0.841337
Si Si4 0.317591 0.078664 0.316741
Si Si5 0.094783 0.388737 0.576130
Si Si6 0.031257 0.765466 0.322316
Si Si7 0.527484 0.105642 0.176517
Si Si8 0.589189 0.728775 0.075880
O O1 0.210355 0.108865 0.834515
O O2 0.316651 0.090733 0.762770
O O3 0.333802 0.087055 0.891447
O O4 0.277472 0.989497 0.829389
O O5 0.237566 0.766186 0.660058
O O6 0.189030 0.813549 0.768025
O O7 0.105584 0.799478 0.668862
O O8 0.777494 0.639052 0.850335
O O9 0.659320 0.699056 0.893435
O O10 0.397886 0.073208 0.336629
O O11 0.086882 0.409452 0.500000
O O12 0.096025 0.308701 0.578278
O O13 0.030801 0.410706 0.622498
O O14 0.039397 0.685421 0.324790
O O15 0.000000 0.780691 0.250000
O O16 0.976245 0.786811 0.377679
O O17 0.500000 0.088510 0.250000
O O18 0.578960 0.709047 0.000000
#
# Coordination Sequence:
#
# PCOD9525316 Si02
#       8
#    16  16  16  16  16  16  16  16
#     4  10  20  34  50  77 108 138 177 219 261 311
#     4  10  18  30  56  79 103 131 179 226 258 298
#     4  10  18  31  53  80 102 134 174 220 262 306
#     4  10  20  33  52  78 106 137 177 226 262 296
#     4  10  20  34  50  73 109 147 173 206 261 320
#     4  10  18  30  53  83 102 131 177 225 263 307
#     4  10  18  30  51  75 106 137 177 217 252 307
#     4  10  20  34  52  79 112 139 168 216 274 318
#
# _framework density 16.285903000000001
#
# number of rings (size 3 to 8) (size 9 to 14) (size 15 to 20)
#    0.000    2.000    5.000    0.000    0.000    0.500 
#    0.000    3.750    0.000    0.750    0.000    0.875 
#    0.000    0.000    0.000    0.000    0.000    0.000 
#
# Total GULP energy -357027.064633 kJ/mol
# GULP energy per Si atom -5578.547885 kJ/mol
# Density = 1.624884 g / cm^3
# Si number density = 16.285903 Si / 1000 Ang^3
#
#
#
# Elastic Constant Matrix: (Units=GPa)
#
#
# Indices 1 2 3 4 5 6 
#
# 1 87.1907 25.5826 47.7570 0.0000 0.0000 0.0000
# 2 25.5826 50.9867 22.5403 0.0000 0.0000 0.0000
# 3 47.7570 22.5403 101.7955 0.0000 0.0000 0.0000
# 4 0.0000 0.0000 0.0000 9.8562 0.0000 0.0000
# 5 0.0000 0.0000 0.0000 0.0000 22.9828 0.0000
# 6 0.0000 0.0000 0.0000 0.0000 0.0000 19.3625
#
#
#
# Elastic Compliance Matrix: (Units=1/GPa)
#
#
# Indices 1 2 3 4 5 6 
#
# 1 0.016698 -0.005448 -0.006627 0.000000 0.000000 0.000000
# 2 -0.005448 0.023519 -0.002652 0.000000 0.000000 0.000000
# 3 -0.006627 -0.002652 0.013520 0.000000 0.000000 0.000000
# 4 0.000000 0.000000 0.000000 0.101459 0.000000 0.000000
# 5 0.000000 0.000000 0.000000 0.000000 0.043511 0.000000
# 6 0.000000 0.000000 0.000000 0.000000 0.000000 0.051646
#
#
# Mechanical properties :
#
#
# Convention : Reuss Voigt Hill
#
# Bulk Modulus (GPa) = 41.18267 47.97030 44.57649
# Shear Modulus (GPa) = 17.36711 20.04651 18.70681
#
# Velocity S-wave (km/s) = 3.26910 3.51224 3.39285
# Velocity P-wave (km/s) = 6.29219 6.77988 6.54058
#
# Compressibility (1/GPa) = 0.02428206
#
# Stress axis : x y z
#
# Youngs Moduli (GPa) = 59.88872 42.51900 73.96492
#
# Poissons Ratio (x) = 0.23165 0.49018
# Poissons Ratio (y) = 0.32629 0.19613
# Poissons Ratio (z) = 0.39690 0.11275
#
# Static dielectric constant tensor:
#      x y z
#    x 1.527210 0.000000 0.000000 
#    y 0.000000 1.554360 0.000000 
#    z 0.000000 0.000000 1.542150 
# 
# From -- ./inp_files/39367.got.cif
#   From: 2010.05.17/outbox.cif.g08.bks.cpg/sg72_20_cif.got.tgz:39367.got - 2010.06.03 17:03:01.
