data_PCOD9525719
_publ_section_title
;
Structure prediction by ZEFSAII (Michael W. Deem and Ramdas Pophale) SiO2 
 PCOD9525719
Probable space group: I B A M
;
_chemical_formula_sum "Si O2"
_cell_formula_units_Z 80
_cell_length_a 27.910712
_cell_length_b 18.598452
_cell_length_c 8.740136
_cell_angle_alpha 90.000000
_cell_angle_beta 90.000000
_cell_angle_gamma 90.000000
_cell_volume 4536.969964
_symmetry_space_group_name_H-M "I B A M"
_symmetry_group_IT_number 72
_symmetry_cell_setting 'orthorhombic'
loop_
_space_group_symop_operation_xyz
x,y,z
-x,-y,z
x,-y,1/2-z
-x,y,1/2-z
-x,-y,-z
x,y,-z
-x,y,1/2+z
x,-y,1/2+z
1/2+x,1/2+y,1/2+z
1/2-x,1/2-y,1/2+z
1/2+x,1/2-y,-z
1/2-x,1/2+y,-z
1/2-x,1/2-y,1/2-z
1/2+x,1/2+y,1/2-z
1/2-x,1/2+y,z
1/2+x,1/2-y,z
loop_
_atom_site_type_symbol
_atom_site_label
_atom_site_fract_x
_atom_site_fract_y
_atom_site_fract_z
Si Si1 0.188511 0.634320 0.316086
Si Si2 0.450683 0.224553 0.183074
Si Si3 0.084536 0.576268 0.316780
Si Si4 0.152494 0.218734 0.315642
Si Si5 0.208385 0.923001 0.815206
O O1 0.189740 0.639682 0.500000
O O2 0.140505 0.590478 0.274699
O O3 0.182323 0.714158 0.249609
O O4 0.237436 0.596866 0.265017
O O5 0.500000 0.254278 0.250000
O O6 0.443181 0.144080 0.247481
O O7 0.402853 0.268152 0.228673
O O8 0.453039 0.222007 0.000000
O O9 0.069006 0.500000 0.250000
O O10 0.080176 0.576577 0.500000
O O11 0.155125 0.222258 0.500000
O O12 0.174287 0.142741 0.266837
O O13 0.194353 0.000000 0.750000
O O14 0.207982 0.926244 0.000000
#
# Coordination Sequence:
#
# PCOD9525719 Si02
#       5
#    16  16  16  16  16
#     4   9  18  31  49  73 102 134 168 198 230 277
#     4  10  20  35  53  72  93 122 160 205 251 294
#     4  10  19  31  47  71 102 134 165 198 234 279
#     4   9  19  34  52  73  99 128 162 202 243 286
#     4  10  20  33  49  74 104 133 163 198 238 284
#
# _framework density 17.632915000000001
#
# number of rings (size 3 to 8) (size 9 to 14) (size 15 to 20)
#    0.000    2.400    0.000    2.400    0.000    3.600 
#    0.000    2.000    0.000    0.600    0.000    4.200 
#    0.000    0.000    0.000    0.000    0.000    0.000 
#
# Total GULP energy -223274.173139 kJ/mol
# GULP energy per Si atom -5581.854328 kJ/mol
# Density = 1.759278 g / cm^3
# Si number density = 17.632915 Si / 1000 Ang^3
#
#
#
# Elastic Constant Matrix: (Units=GPa)
#
#
# Indices 1 2 3 4 5 6 
#
# 1 67.3699 21.0966 14.3123 0.0000 0.0000 0.0000
# 2 21.0966 78.6121 8.8965 0.0000 0.0000 0.0000
# 3 14.3123 8.8965 15.3744 0.0000 0.0000 0.0000
# 4 0.0000 0.0000 0.0000 25.0133 0.0000 0.0000
# 5 0.0000 0.0000 0.0000 0.0000 20.5017 0.0000
# 6 0.0000 0.0000 0.0000 0.0000 0.0000 4.2593
#
#
#
# Elastic Compliance Matrix: (Units=1/GPa)
#
#
# Indices 1 2 3 4 5 6 
#
# 1 0.019301 -0.003367 -0.016019 0.000000 0.000000 0.000000
# 2 -0.003367 0.014199 -0.005082 0.000000 0.000000 0.000000
# 3 -0.016019 -0.005082 0.082897 0.000000 0.000000 0.000000
# 4 0.000000 0.000000 0.000000 0.039979 0.000000 0.000000
# 5 0.000000 0.000000 0.000000 0.000000 0.048777 0.000000
# 6 0.000000 0.000000 0.000000 0.000000 0.000000 0.234779
#
#
# Mechanical properties :
#
#
# Convention : Reuss Voigt Hill
#
# Bulk Modulus (GPa) = 14.82355 27.77413 21.29884
# Shear Modulus (GPa) = 9.77794 17.75826 13.76810
#
# Velocity S-wave (km/s) = 2.35740 3.17694 2.79734
# Velocity P-wave (km/s) = 3.97929 5.40766 4.74750
#
# Compressibility (1/GPa) = 0.06746024
#
# Stress axis : x y z
#
# Youngs Moduli (GPa) = 51.81101 70.42570 12.06318
#
# Poissons Ratio (x) = 0.23711 0.19324
# Poissons Ratio (y) = 0.17444 0.06131
# Poissons Ratio (z) = 0.82998 0.35793
#
# Static dielectric constant tensor:
#      x y z
#    x 1.628140 0.000000 0.000000 
#    y 0.000000 1.567220 0.000000 
#    z 0.000000 0.000000 1.597710 
# 
# From -- ./inp_files/4745.got.cif
#   From: 2010.05.17/outbox.cif.g08.bks.cpg/sg72_3_cif.got.tgz:4745.got - 2010.06.03 17:03:01.
