data_PCOD9525729
_publ_section_title
;
Structure prediction by ZEFSAII (Michael W. Deem and Ramdas Pophale) SiO2 
 PCOD9525729
Probable space group: I B A M
;
_chemical_formula_sum "Si O2"
_cell_formula_units_Z 96
_cell_length_a 23.905736
_cell_length_b 14.212571
_cell_length_c 14.827055
_cell_angle_alpha 90.000000
_cell_angle_beta 90.000000
_cell_angle_gamma 90.000000
_cell_volume 5037.669419
_symmetry_space_group_name_H-M "I B A M"
_symmetry_group_IT_number 72
_symmetry_cell_setting 'orthorhombic'
loop_
_space_group_symop_operation_xyz
x,y,z
-x,-y,z
x,-y,1/2-z
-x,y,1/2-z
-x,-y,-z
x,y,-z
-x,y,1/2+z
x,-y,1/2+z
1/2+x,1/2+y,1/2+z
1/2-x,1/2-y,1/2+z
1/2+x,1/2-y,-z
1/2-x,1/2+y,-z
1/2-x,1/2-y,1/2-z
1/2+x,1/2+y,1/2-z
1/2-x,1/2+y,z
1/2+x,1/2-y,z
loop_
_atom_site_type_symbol
_atom_site_label
_atom_site_fract_x
_atom_site_fract_y
_atom_site_fract_z
Si Si1 0.381823 0.208376 0.291034
Si Si2 0.551339 0.938207 0.396141
Si Si3 0.242463 0.585424 0.095777
Si Si4 0.617242 0.124095 0.597824
Si Si5 0.232050 0.637922 0.393344
Si Si6 0.825350 0.111848 0.246564
O O1 0.428579 0.157820 0.351608
O O2 0.397419 0.170942 0.191528
O O3 0.321334 0.175558 0.335149
O O4 0.374993 0.319768 0.276781
O O5 0.537425 0.918421 0.500000
O O6 0.500000 0.000000 0.357504
O O7 0.601684 0.013797 0.394089
O O8 0.183496 0.635469 0.093438
O O9 0.228907 0.475545 0.106895
O O10 0.278149 0.620954 0.177336
O O11 0.272328 0.597699 0.000000
O O12 0.593680 0.155393 0.500000
O O13 0.230574 0.667791 0.500000
O O14 0.292508 0.649220 0.342990
O O15 0.839303 0.000000 0.250000
#
# Coordination Sequence:
#
# PCOD9525729 Si02
#       6
#    16  16  16  16  16  16
#     4  12  21  33  54  81 107 150 198 233 286 352
#     4  10  22  39  59  86 117 144 178 236 304 365
#     4   9  17  31  48  69 104 147 189 235 283 332
#     4  10  20  33  51  76 108 144 185 234 290 348
#     4  10  19  31  48  73 107 149 194 241 285 341
#     4  10  22  36  49  73 110 154 195 244 279 330
#
# _framework density 19.056429999999999
#
# number of rings (size 3 to 8) (size 9 to 14) (size 15 to 20)
#    0.000    1.833    3.333    1.500    0.000    3.333 
#    0.000    0.000    0.000    0.000    0.000    2.333 
#    0.000    4.000    0.000    0.000    0.000    0.000 
#
# Total GULP energy -267227.654264 kJ/mol
# GULP energy per Si atom -5567.242797 kJ/mol
# Density = 1.901306 g / cm^3
# Si number density = 19.056430 Si / 1000 Ang^3
#
#
#
# Elastic Constant Matrix: (Units=GPa)
#
#
# Indices 1 2 3 4 5 6 
#
# 1 50.0453 44.2002 24.4595 0.0000 0.0000 0.0000
# 2 44.2002 61.2769 34.2267 0.0000 0.0000 0.0000
# 3 24.4595 34.2267 115.0046 0.0000 0.0000 0.0000
# 4 0.0000 0.0000 0.0000 -30.8636 0.0000 0.0000
# 5 0.0000 0.0000 0.0000 0.0000 15.3949 0.0000
# 6 0.0000 0.0000 0.0000 0.0000 0.0000 18.5209
#
#
#
# Elastic Compliance Matrix: (Units=1/GPa)
#
#
# Indices 1 2 3 4 5 6 
#
# 1 0.055059 -0.039789 0.000131 0.000000 0.000000 0.000000
# 2 -0.039789 0.048326 -0.005920 0.000000 0.000000 0.000000
# 3 0.000131 -0.005920 0.010429 0.000000 0.000000 0.000000
# 4 0.000000 0.000000 0.000000 -0.032401 0.000000 0.000000
# 5 0.000000 0.000000 0.000000 0.000000 0.064956 0.000000
# 6 0.000000 0.000000 0.000000 0.000000 0.000000 0.053993
#
#
# Mechanical properties :
#
#
# Convention : Reuss Voigt Hill
#
# Bulk Modulus (GPa) = 44.13040 48.01109 46.07074
# Shear Modulus (GPa) = 16.71840 8.83981 12.77911
#
# Velocity S-wave (km/s) = 2.96516 2.15611 2.59239
# Velocity P-wave (km/s) = 5.91024 5.60779 5.76100
#
# Compressibility (1/GPa) = 0.02266011
#
# Stress axis : x y z
#
# Youngs Moduli (GPa) = 18.16228 20.69263 95.88414
#
# Poissons Ratio (x) = 0.82333 -0.01260
# Poissons Ratio (y) = 0.72265 0.56765
# Poissons Ratio (z) = -0.00239 0.12250
#
# Static dielectric constant tensor:
#      x y z
#    x 1.700460 0.000000 0.000000 
#    y 0.000000 1.695990 0.000000 
#    z 0.000000 0.000000 1.761470 
# 
# From -- ./inp_files/24158.got.cif
#   From: 2010.05.17/outbox.cif.g08.bks.cpg/sg72_13_cif.got.tgz:24158.got - 2010.06.03 17:03:01.
