data_PCOD9525392
_publ_section_title
;
Structure prediction by ZEFSAII (Michael W. Deem and Ramdas Pophale) SiO2 
 PCOD9525392
Probable space group: I B A M
;
_chemical_formula_sum "Si O2"
_cell_formula_units_Z 68
_cell_length_a 14.171561
_cell_length_b 7.482313
_cell_length_c 27.864162
_cell_angle_alpha 90.000000
_cell_angle_beta 90.000000
_cell_angle_gamma 90.000000
_cell_volume 2954.605817
_symmetry_space_group_name_H-M "I B A M"
_symmetry_group_IT_number 72
_symmetry_cell_setting 'orthorhombic'
loop_
_space_group_symop_operation_xyz
x,y,z
-x,-y,z
x,-y,1/2-z
-x,y,1/2-z
-x,-y,-z
x,y,-z
-x,y,1/2+z
x,-y,1/2+z
1/2+x,1/2+y,1/2+z
1/2-x,1/2-y,1/2+z
1/2+x,1/2-y,-z
1/2-x,1/2+y,-z
1/2-x,1/2-y,1/2-z
1/2+x,1/2+y,1/2-z
1/2-x,1/2+y,z
1/2+x,1/2-y,z
loop_
_atom_site_type_symbol
_atom_site_label
_atom_site_fract_x
_atom_site_fract_y
_atom_site_fract_z
Si Si1 0.819142 0.227145 0.603394
Si Si2 0.500000 0.500000 0.750000
Si Si3 0.106887 0.170394 0.396374
Si Si4 0.542537 0.189521 0.180007
Si Si5 0.818200 0.611088 0.000000
Si Si6 0.106332 0.212411 0.500000
O O1 0.705706 0.223011 0.603814
O O2 0.864953 0.338983 0.646952
O O3 0.843978 0.296738 0.550159
O O4 0.861071 0.031744 0.610906
O O5 0.443471 0.645848 0.782587
O O6 0.059684 0.181724 0.448944
O O7 0.037260 0.238880 0.356378
O O8 0.500000 0.000000 0.198023
O O9 0.862175 0.417129 0.000000
O O10 0.703790 0.598498 0.000000
#
# Coordination Sequence:
#
# PCOD9525392 Si02
#       6
#    16   4  16  16   8   8
#     4  11  21  39  64  97 135 174 216 258 318 387
#     4  12  26  52  68  96 124 162 222 280 352 368
#     4  11  21  39  64  97 135 174 216 258 318 387
#     4  12  25  46  72  95 127 170 211 277 332 389
#     4  10  18  31  54  93 133 176 212 253 307 378
#     4  10  18  31  54  93 133 176 212 253 307 378
#
# _framework density 23.014915999999999
#
# number of rings (size 3 to 8) (size 9 to 14) (size 15 to 20)
#    0.000    0.941    2.353    9.529    0.000    0.941 
#    0.000    5.882    0.000    0.000    0.000    0.000 
#    0.000    0.000    0.000    0.000    0.000    0.000 
#
# Total GULP energy -190146.668267 kJ/mol
# GULP energy per Si atom -5592.549067 kJ/mol
# Density = 2.296253 g / cm^3
# Si number density = 23.014916 Si / 1000 Ang^3
#
#
#
# Elastic Constant Matrix: (Units=GPa)
#
#
# Indices 1 2 3 4 5 6 
#
# 1 85.0311 9.7830 32.1867 0.0000 0.0000 0.0000
# 2 9.7830 127.1824 37.1832 0.0000 0.0000 0.0000
# 3 32.1867 37.1832 134.9959 0.0000 0.0000 0.0000
# 4 0.0000 0.0000 0.0000 39.6060 0.0000 0.0000
# 5 0.0000 0.0000 0.0000 0.0000 8.7954 0.0000
# 6 0.0000 0.0000 0.0000 0.0000 0.0000 -152.3594
#
#
#
# Elastic Compliance Matrix: (Units=1/GPa)
#
#
# Indices 1 2 3 4 5 6 
#
# 1 0.012928 -0.000101 -0.003055 0.000000 0.000000 0.000000
# 2 -0.000101 0.008552 -0.002331 0.000000 0.000000 0.000000
# 3 -0.003055 -0.002331 0.008778 0.000000 0.000000 0.000000
# 4 0.000000 0.000000 0.000000 0.025249 0.000000 0.000000
# 5 0.000000 0.000000 0.000000 0.000000 0.113696 0.000000
# 6 0.000000 0.000000 0.000000 0.000000 0.000000 -0.006563
#
#
# Mechanical properties :
#
#
# Convention : Reuss Voigt Hill
#
# Bulk Modulus (GPa) = 51.85705 56.16835 54.01270
# Shear Modulus (GPa) = 27.77126 -2.92116 12.42505
#
# Velocity S-wave (km/s) = 3.47747 -1.12783 2.32603
# Velocity P-wave (km/s) = 6.22130 4.77097 5.54377
#
# Compressibility (1/GPa) = 0.01928378
#
# Stress axis : x y z
#
# Youngs Moduli (GPa) = 77.34967 116.92984 113.92021
#
# Poissons Ratio (x) = 0.01186 0.34797
# Poissons Ratio (y) = 0.00785 0.26559
# Poissons Ratio (z) = 0.23627 0.27261
#
# Static dielectric constant tensor:
#      x y z
#    x 1.863010 0.000000 0.000000 
#    y 0.000000 1.911730 0.000000 
#    z 0.000000 0.000000 1.902130 
# 
# From -- ./inp_files/48455.got.cif
#   From: 2010.05.17/outbox.cif.g08.bks.cpg/sg72_25_cif.got.tgz:48455.got - 2010.06.03 17:03:01.
