data_PCOD9525903
_publ_section_title
;
Structure prediction by ZEFSAII (Michael W. Deem and Ramdas Pophale) SiO2 
 PCOD9525903
Probable space group: I B A M
;
_chemical_formula_sum "Si O2"
_cell_formula_units_Z 96
_cell_length_a 14.041494
_cell_length_b 13.147291
_cell_length_c 24.407968
_cell_angle_alpha 90.000000
_cell_angle_beta 90.000000
_cell_angle_gamma 90.000000
_cell_volume 4505.896581
_symmetry_space_group_name_H-M "I B A M"
_symmetry_group_IT_number 72
_symmetry_cell_setting 'orthorhombic'
loop_
_space_group_symop_operation_xyz
x,y,z
-x,-y,z
x,-y,1/2-z
-x,y,1/2-z
-x,-y,-z
x,y,-z
-x,y,1/2+z
x,-y,1/2+z
1/2+x,1/2+y,1/2+z
1/2-x,1/2-y,1/2+z
1/2+x,1/2-y,-z
1/2-x,1/2+y,-z
1/2-x,1/2-y,1/2-z
1/2+x,1/2+y,1/2-z
1/2-x,1/2+y,z
1/2+x,1/2-y,z
loop_
_atom_site_type_symbol
_atom_site_label
_atom_site_fract_x
_atom_site_fract_y
_atom_site_fract_z
Si Si1 0.884972 0.381183 0.242234
Si Si2 0.358592 0.826409 0.858397
Si Si3 0.331851 0.982594 0.437132
Si Si4 0.536687 0.390818 0.437906
Si Si5 0.178149 0.830098 0.441510
Si Si6 0.415561 0.203827 0.126163
O O1 0.860108 0.500000 0.250000
O O2 0.835868 0.329529 0.294420
O O3 0.866666 0.331774 0.183061
O O4 0.000000 0.376485 0.250000
O O5 0.300485 0.741201 0.890868
O O6 0.471601 0.804701 0.861532
O O7 0.346144 0.930382 0.892570
O O8 0.354455 0.012804 0.500000
O O9 0.223793 0.940870 0.435239
O O10 0.390496 0.882061 0.419074
O O11 0.500000 0.500000 0.416278
O O12 0.576308 0.403174 0.500000
O O13 0.434925 0.335064 0.444606
O O14 0.597162 0.317315 0.398660
O O15 0.215041 0.789616 0.500000
#
# Coordination Sequence:
#
# PCOD9525903 Si02
#       6
#    16  16  16  16  16  16
#     4   9  16  30  53  78 102 132 171 215 270 319
#     4  10  19  34  55  74 104 138 176 222 270 324
#     4  11  21  31  49  78 109 137 171 221 278 331
#     4   9  18  34  55  76 104 144 184 220 261 319
#     4   9  20  35  49  73 105 138 176 216 270 326
#     4  10  19  32  54  82 106 134 179 224 267 326
#
# _framework density 21.305415
#
# number of rings (size 3 to 8) (size 9 to 14) (size 15 to 20)
#    0.000    2.333    1.667    1.500    0.000    4.000 
#    0.000    4.167    0.000   12.500    0.000    0.000 
#    0.000    0.000    0.000    0.000    0.000    0.000 
#
# Total GULP energy -267551.402911 kJ/mol
# GULP energy per Si atom -5573.987561 kJ/mol
# Density = 2.125692 g / cm^3
# Si number density = 21.305415 Si / 1000 Ang^3
#
#
#
# Elastic Constant Matrix: (Units=GPa)
#
#
# Indices 1 2 3 4 5 6 
#
# 1 26.7999 -4.4555 18.9052 0.0000 0.0000 0.0000
# 2 -4.4555 111.7615 79.3989 0.0000 0.0000 0.0000
# 3 18.9052 79.3989 175.2554 0.0000 0.0000 0.0000
# 4 0.0000 0.0000 0.0000 30.4638 0.0000 0.0000
# 5 0.0000 0.0000 0.0000 0.0000 20.7743 0.0000
# 6 0.0000 0.0000 0.0000 0.0000 0.0000 11.7996
#
#
#
# Elastic Compliance Matrix: (Units=1/GPa)
#
#
# Indices 1 2 3 4 5 6 
#
# 1 0.044398 0.007627 -0.008245 0.000000 0.000000 0.000000
# 2 0.007627 0.014505 -0.007394 0.000000 0.000000 0.000000
# 3 -0.008245 -0.007394 0.009945 0.000000 0.000000 0.000000
# 4 0.000000 0.000000 0.000000 0.032826 0.000000 0.000000
# 5 0.000000 0.000000 0.000000 0.000000 0.048136 0.000000
# 6 0.000000 0.000000 0.000000 0.000000 0.000000 0.084749
#
#
# Mechanical properties :
#
#
# Convention : Reuss Voigt Hill
#
# Bulk Modulus (GPa) = 18.93061 55.72379 37.32720
# Shear Modulus (GPa) = 18.64348 27.27206 22.95777
#
# Velocity S-wave (km/s) = 2.96135 3.58166 3.28618
# Velocity P-wave (km/s) = 4.53844 6.58149 5.65302
#
# Compressibility (1/GPa) = 0.05282451
#
# Stress axis : x y z
#
# Youngs Moduli (GPa) = 22.52367 68.94316 100.55072
#
# Poissons Ratio (x) = -0.52586 0.82903
# Poissons Ratio (y) = -0.17180 0.74348
# Poissons Ratio (z) = 0.18570 0.50977
#
# Static dielectric constant tensor:
#      x y z
#    x 1.821680 0.000000 0.000000 
#    y 0.000000 1.784390 0.000000 
#    z 0.000000 0.000000 1.792020 
# 
# From -- ./inp_files/49047.got.cif
#   From: 2010.05.17/outbox.cif.g08.bks.cpg/sg72_25_cif.got.tgz:49047.got - 2010.06.03 17:03:01.
