data_PCOD9525376
_publ_section_title
;
Structure prediction by ZEFSAII (Michael W. Deem and Ramdas Pophale) SiO2 
 PCOD9525376
Probable space group: I B A M
;
_chemical_formula_sum "Si O2"
_cell_formula_units_Z 112
_cell_length_a 13.577500
_cell_length_b 27.441516
_cell_length_c 15.564654
_cell_angle_alpha 90.000000
_cell_angle_beta 90.000000
_cell_angle_gamma 90.000000
_cell_volume 5799.190596
_symmetry_space_group_name_H-M "I B A M"
_symmetry_group_IT_number 72
_symmetry_cell_setting 'orthorhombic'
loop_
_space_group_symop_operation_xyz
x,y,z
-x,-y,z
x,-y,1/2-z
-x,y,1/2-z
-x,-y,-z
x,y,-z
-x,y,1/2+z
x,-y,1/2+z
1/2+x,1/2+y,1/2+z
1/2-x,1/2-y,1/2+z
1/2+x,1/2-y,-z
1/2-x,1/2+y,-z
1/2-x,1/2-y,1/2-z
1/2+x,1/2+y,1/2-z
1/2-x,1/2+y,z
1/2+x,1/2-y,z
loop_
_atom_site_type_symbol
_atom_site_label
_atom_site_fract_x
_atom_site_fract_y
_atom_site_fract_z
Si Si1 0.760085 0.446226 0.846981
Si Si2 0.857488 0.606307 0.182492
Si Si3 0.235354 0.193066 0.736049
Si Si4 0.198718 0.049950 0.597929
Si Si5 0.975498 0.554226 0.402264
Si Si6 0.088926 0.143721 0.397765
Si Si7 0.356919 0.355856 0.598943
O O1 0.806478 0.425288 0.758631
O O2 0.720088 0.500999 0.849911
O O3 0.675349 0.411201 0.882014
O O4 0.858298 0.442374 0.904064
O O5 0.830718 0.661792 0.205000
O O6 0.793782 0.585299 0.103240
O O7 0.968525 0.592788 0.157804
O O8 0.250000 0.250000 0.750000
O O9 0.152982 0.177935 0.664941
O O10 0.201655 0.173409 0.828797
O O11 0.180319 0.034966 0.500000
O O12 0.113900 0.087448 0.626843
O O13 0.011719 0.557750 0.500000
O O14 0.000000 0.500000 0.368640
O O15 0.113456 0.149329 0.500000
O O16 0.973025 0.151911 0.388336
O O17 0.332425 0.343740 0.500000
#
# Coordination Sequence:
#
# PCOD9525376 Si02
#       7
#    16  16  16  16  16  16  16
#     4  11  21  33  53  82 118 159 198 237 283 349
#     4  10  21  35  53  79 112 152 197 244 296 356
#     4  10  22  41  64  87 112 149 200 261 313 360
#     4  10  18  31  52  82 115 151 194 231 274 342
#     4  11  21  33  53  80 116 161 199 241 295 357
#     4   9  20  38  62  89 119 154 192 240 297 360
#     4  10  21  39  60  86 121 156 191 238 300 361
#
# _framework density 19.313040000000001
#
# number of rings (size 3 to 8) (size 9 to 14) (size 15 to 20)
#    0.000    1.857    1.429    3.000    0.000    2.286 
#    0.000    7.857    0.000    8.571    0.000    0.000 
#    0.000    0.000    0.000    0.000    0.000    0.000 
#
# Total GULP energy -312153.684946 kJ/mol
# GULP energy per Si atom -5574.172945 kJ/mol
# Density = 1.926908 g / cm^3
# Si number density = 19.313040 Si / 1000 Ang^3
#
#
#
# Elastic Constant Matrix: (Units=GPa)
#
#
# Indices 1 2 3 4 5 6 
#
# 1 52.6302 35.5189 32.6034 0.0000 0.0000 0.0000
# 2 35.5189 159.7136 51.3637 0.0000 0.0000 0.0000
# 3 32.6034 51.3637 94.9348 -0.0002 0.0000 0.0000
# 4 0.0000 0.0000 -0.0002 25.1097 0.0000 0.0000
# 5 0.0000 0.0000 0.0000 0.0000 30.9442 0.0000
# 6 0.0000 0.0000 0.0000 0.0000 0.0000 9.5323
#
#
#
# Elastic Compliance Matrix: (Units=1/GPa)
#
#
# Indices 1 2 3 4 5 6 
#
# 1 0.025634 -0.003474 -0.006924 0.000000 0.000000 0.000000
# 2 -0.003474 0.008051 -0.003163 0.000000 0.000000 0.000000
# 3 -0.006924 -0.003163 0.014623 0.000000 0.000000 0.000000
# 4 0.000000 0.000000 0.000000 0.039825 0.000000 0.000000
# 5 0.000000 0.000000 0.000000 0.000000 0.032316 0.000000
# 6 0.000000 0.000000 0.000000 0.000000 0.000000 0.104906
#
#
# Mechanical properties :
#
#
# Convention : Reuss Voigt Hill
#
# Bulk Modulus (GPa) = 47.20047 60.69452 53.94750
# Shear Modulus (GPa) = 19.26489 25.63675 22.45082
#
# Velocity S-wave (km/s) = 3.16176 3.64735 3.41320
# Velocity P-wave (km/s) = 6.14994 7.01658 6.59751
#
# Compressibility (1/GPa) = 0.02118623
#
# Stress axis : x y z
#
# Youngs Moduli (GPa) = 39.01013 124.20853 68.38708
#
# Poissons Ratio (x) = 0.43152 0.47351
# Poissons Ratio (y) = 0.13553 0.21629
# Poissons Ratio (z) = 0.27010 0.39285
#
# Static dielectric constant tensor:
#      x y z
#    x 1.740740 0.000000 0.000000 
#    y 0.000000 1.661860 0.000000 
#    z 0.000000 0.000000 1.760230 
# 
# From -- ./inp_files/22301.got.cif
#   From: 2010.05.17/outbox.cif.g08.bks.cpg/sg72_12_cif.got.tgz:22301.got - 2010.06.03 17:03:01.
