data_PCOD9525915
_publ_section_title
;
Structure prediction by ZEFSAII (Michael W. Deem and Ramdas Pophale) SiO2 
 PCOD9525915
Probable space group: I B A M
;
_chemical_formula_sum "Si O2"
_cell_formula_units_Z 112
_cell_length_a 19.973606
_cell_length_b 12.600055
_cell_length_c 22.839928
_cell_angle_alpha 90.000000
_cell_angle_beta 90.000000
_cell_angle_gamma 90.000000
_cell_volume 5748.091200
_symmetry_space_group_name_H-M "I B A M"
_symmetry_group_IT_number 72
_symmetry_cell_setting 'orthorhombic'
loop_
_space_group_symop_operation_xyz
x,y,z
-x,-y,z
x,-y,1/2-z
-x,y,1/2-z
-x,-y,-z
x,y,-z
-x,y,1/2+z
x,-y,1/2+z
1/2+x,1/2+y,1/2+z
1/2-x,1/2-y,1/2+z
1/2+x,1/2-y,-z
1/2-x,1/2+y,-z
1/2-x,1/2-y,1/2-z
1/2+x,1/2+y,1/2-z
1/2-x,1/2+y,z
1/2+x,1/2-y,z
loop_
_atom_site_type_symbol
_atom_site_label
_atom_site_fract_x
_atom_site_fract_y
_atom_site_fract_z
Si Si1 0.849413 0.307747 0.789128
Si Si2 0.342483 0.442779 0.190921
Si Si3 0.175301 0.193585 0.934891
Si Si4 0.632115 0.874045 0.345608
Si Si5 0.446698 0.423500 0.618456
Si Si6 0.505645 0.214061 0.679878
Si Si7 0.772815 0.552642 0.627371
O O1 0.847848 0.180485 0.793878
O O2 0.849833 0.352079 0.722822
O O3 0.787948 0.362043 0.821813
O O4 0.919196 0.329937 0.823738
O O5 0.322324 0.500000 0.250000
O O6 0.408382 0.503854 0.166978
O O7 0.284593 0.468754 0.144814
O O8 0.164555 0.280952 0.884632
O O9 0.110414 0.119609 0.924280
O O10 0.241475 0.122808 0.924155
O O11 0.175393 0.238959 0.000000
O O12 0.551724 0.864568 0.343453
O O13 0.660923 0.981407 0.372962
O O14 0.500000 0.500000 0.588640
O O15 0.485579 0.324589 0.648389
O O16 0.500000 0.231785 0.750000
#
# Coordination Sequence:
#
# PCOD9525915 Si02
#       7
#    16  16  16  16  16  16  16
#     4  11  20  34  57  87 121 150 185 234 291 366
#     4  11  20  30  51  81 117 152 184 224 281 350
#     4  10  23  41  58  79 107 146 200 247 284 338
#     4  10  21  37  57  83 115 151 190 236 295 348
#     4  10  19  32  55  84 111 141 183 239 299 339
#     4   9  18  32  52  85 119 153 186 225 284 359
#     4  11  23  36  54  81 117 154 187 231 288 350
#
# _framework density 19.484729000000002
#
# number of rings (size 3 to 8) (size 9 to 14) (size 15 to 20)
#    0.000    1.714    1.429    5.571    0.000    3.143 
#    0.000    2.143    0.000    3.429    0.000    5.000 
#    0.000    0.000    0.000    0.000    0.000    0.000 
#
# Total GULP energy -312106.718540 kJ/mol
# GULP energy per Si atom -5573.334260 kJ/mol
# Density = 1.944038 g / cm^3
# Si number density = 19.484729 Si / 1000 Ang^3
#
#
#
# Elastic Constant Matrix: (Units=GPa)
#
#
# Indices 1 2 3 4 5 6 
#
# 1 79.7343 32.2246 26.9489 0.0000 0.0000 0.0000
# 2 32.2246 58.5759 9.8062 0.0000 0.0000 0.0000
# 3 26.9489 9.8062 50.7602 0.0000 0.0000 0.0000
# 4 0.0000 0.0000 0.0000 5.9120 0.0000 0.0000
# 5 0.0000 0.0000 0.0000 0.0000 11.5023 0.0000
# 6 0.0000 0.0000 0.0000 0.0000 0.0000 32.4626
#
#
#
# Elastic Compliance Matrix: (Units=1/GPa)
#
#
# Indices 1 2 3 4 5 6 
#
# 1 0.019030 -0.009071 -0.008351 0.000000 0.000000 0.000000
# 2 -0.009071 0.021966 0.000572 0.000000 0.000000 0.000000
# 3 -0.008351 0.000572 0.024023 0.000000 0.000000 0.000000
# 4 0.000000 0.000000 0.000000 0.169148 0.000000 0.000000
# 5 0.000000 0.000000 0.000000 0.000000 0.086939 0.000000
# 6 0.000000 0.000000 0.000000 0.000000 0.000000 0.030805
#
#
# Mechanical properties :
#
#
# Convention : Reuss Voigt Hill
#
# Bulk Modulus (GPa) = 31.92779 36.33664 34.13221
# Shear Modulus (GPa) = 12.62460 17.98140 15.30300
#
# Velocity S-wave (km/s) = 2.54819 3.04113 2.80551
# Velocity P-wave (km/s) = 5.00793 5.56961 5.29622
#
# Compressibility (1/GPa) = 0.03132067
#
# Stress axis : x y z
#
# Youngs Moduli (GPa) = 52.54811 45.52412 41.62607
#
# Poissons Ratio (x) = 0.41295 0.34761
# Poissons Ratio (y) = 0.47667 -0.02382
# Poissons Ratio (z) = 0.43882 -0.02605
#
# Static dielectric constant tensor:
#      x y z
#    x 1.760460 0.000000 0.000000 
#    y 0.000000 1.732810 0.000000 
#    z 0.000000 0.000000 1.638460 
# 
# From -- ./inp_files/45414.got.cif
#   From: 2010.05.17/outbox.cif.g08.bks.cpg/sg72_23_cif.got.tgz:45414.got - 2010.06.03 17:03:01.
