data_PCOD9525990
_publ_section_title
;
Structure prediction by ZEFSAII (Michael W. Deem and Ramdas Pophale) SiO2 
 PCOD9525990
Probable space group: I B A M
;
_chemical_formula_sum "Si O2"
_cell_formula_units_Z 96
_cell_length_a 15.218206
_cell_length_b 24.325241
_cell_length_c 14.161547
_cell_angle_alpha 90.000000
_cell_angle_beta 90.000000
_cell_angle_gamma 90.000000
_cell_volume 5242.413923
_symmetry_space_group_name_H-M "I B A M"
_symmetry_group_IT_number 72
_symmetry_cell_setting 'orthorhombic'
loop_
_space_group_symop_operation_xyz
x,y,z
-x,-y,z
x,-y,1/2-z
-x,y,1/2-z
-x,-y,-z
x,y,-z
-x,y,1/2+z
x,-y,1/2+z
1/2+x,1/2+y,1/2+z
1/2-x,1/2-y,1/2+z
1/2+x,1/2-y,-z
1/2-x,1/2+y,-z
1/2-x,1/2-y,1/2-z
1/2+x,1/2+y,1/2-z
1/2-x,1/2+y,z
1/2+x,1/2-y,z
loop_
_atom_site_type_symbol
_atom_site_label
_atom_site_fract_x
_atom_site_fract_y
_atom_site_fract_z
Si Si1 0.647428 0.940371 0.771779
Si Si2 0.971283 0.716244 0.895850
Si Si3 0.333699 0.735166 0.603862
Si Si4 0.019853 0.412309 0.110822
Si Si5 0.757554 0.853478 0.109905
Si Si6 0.098132 0.190008 0.778517
O O1 0.606608 0.921856 0.672040
O O2 0.561949 0.943680 0.841289
O O3 0.709930 0.896836 0.822460
O O4 0.686876 0.000000 0.750000
O O5 0.995519 0.653252 0.877833
O O6 0.913314 0.747704 0.819208
O O7 0.063262 0.748335 0.899466
O O8 0.929226 0.719452 0.000000
O O9 0.307936 0.713982 0.500000
O O10 0.282991 0.792133 0.620965
O O11 0.334222 0.693383 0.690896
O O12 0.027049 0.424730 0.000000
O O13 0.858439 0.846480 0.140614
O O14 0.745822 0.868621 0.000000
O O15 0.000000 0.171900 0.750000
#
# Coordination Sequence:
#
# PCOD9525990 Si02
#       6
#    16  16  16  16  16  16
#     4  11  23  35  52  78 107 145 194 240 280 324
#     4   9  16  28  47  75 108 144 179 212 259 323
#     4   9  17  29  48  74 108 144 175 212 263 329
#     4  10  19  33  54  78 112 149 182 224 278 339
#     4  11  21  36  56  78 108 147 188 227 278 338
#     4  10  20  32  52  80 111 145 183 227 272 327
#
# _framework density 18.312175
#
# number of rings (size 3 to 8) (size 9 to 14) (size 15 to 20)
#    0.000    2.000    1.667    3.500    4.667    2.667 
#    0.000    2.500    0.000    0.500    0.000    1.167 
#    0.000    0.000    0.000    0.000    0.000    0.000 
#
# Total GULP energy -267675.447390 kJ/mol
# GULP energy per Si atom -5576.571821 kJ/mol
# Density = 1.827050 g / cm^3
# Si number density = 18.312175 Si / 1000 Ang^3
#
#
#
# Elastic Constant Matrix: (Units=GPa)
#
#
# Indices 1 2 3 4 5 6 
#
# 1 53.0114 14.0566 26.3963 0.0000 0.0000 0.0000
# 2 14.0566 28.1304 16.7157 0.0000 0.0000 0.0000
# 3 26.3963 16.7157 102.9847 0.0000 0.0000 0.0000
# 4 0.0000 0.0000 0.0000 8.1220 0.0000 0.0000
# 5 0.0000 0.0000 0.0000 0.0000 19.4068 0.0000
# 6 0.0000 0.0000 0.0000 0.0000 0.0000 13.2988
#
#
#
# Elastic Compliance Matrix: (Units=1/GPa)
#
#
# Indices 1 2 3 4 5 6 
#
# 1 0.023536 -0.009049 -0.004564 0.000000 0.000000 0.000000
# 2 -0.009049 0.042822 -0.004631 0.000000 0.000000 0.000000
# 3 -0.004564 -0.004631 0.011632 0.000000 0.000000 0.000000
# 4 0.000000 0.000000 0.000000 0.123122 0.000000 0.000000
# 5 0.000000 0.000000 0.000000 0.000000 0.051528 0.000000
# 6 0.000000 0.000000 0.000000 0.000000 0.000000 0.075195
#
#
# Mechanical properties :
#
#
# Convention : Reuss Voigt Hill
#
# Bulk Modulus (GPa) = 24.09520 33.16265 28.62892
# Shear Modulus (GPa) = 13.22202 16.62938 14.92570
#
# Velocity S-wave (km/s) = 2.68999 3.01675 2.85804
# Velocity P-wave (km/s) = 4.77856 5.50303 5.15354
#
# Compressibility (1/GPa) = 0.04150204
#
# Stress axis : x y z
#
# Youngs Moduli (GPa) = 42.48851 23.35229 85.97233
#
# Poissons Ratio (x) = 0.21131 0.39236
# Poissons Ratio (y) = 0.38447 0.39816
# Poissons Ratio (z) = 0.19391 0.10815
#
# Static dielectric constant tensor:
#      x y z
#    x 1.643410 0.000000 0.000000 
#    y 0.000000 1.627560 0.000000 
#    z 0.000000 0.000000 1.730260 
# 
# From -- ./inp_files/21876.got.cif
#   From: 2010.05.17/outbox.cif.g08.bks.cpg/sg72_11_cif.got.tgz:21876.got - 2010.06.03 17:03:01.
