data_PCOD9526734
_publ_section_title
;
Structure prediction by ZEFSAII (Michael W. Deem and Ramdas Pophale) SiO2 
 PCOD9526734
Probable space group: I B A M
;
_chemical_formula_sum "Si O2"
_cell_formula_units_Z 96
_cell_length_a 23.951357
_cell_length_b 10.981881
_cell_length_c 14.836129
_cell_angle_alpha 90.000000
_cell_angle_beta 90.000000
_cell_angle_gamma 90.000000
_cell_volume 3902.361140
_symmetry_space_group_name_H-M "I B A M"
_symmetry_group_IT_number 72
_symmetry_cell_setting 'orthorhombic'
loop_
_space_group_symop_operation_xyz
x,y,z
-x,-y,z
x,-y,1/2-z
-x,y,1/2-z
-x,-y,-z
x,y,-z
-x,y,1/2+z
x,-y,1/2+z
1/2+x,1/2+y,1/2+z
1/2-x,1/2-y,1/2+z
1/2+x,1/2-y,-z
1/2-x,1/2+y,-z
1/2-x,1/2-y,1/2-z
1/2+x,1/2+y,1/2-z
1/2-x,1/2+y,z
1/2+x,1/2-y,z
loop_
_atom_site_type_symbol
_atom_site_label
_atom_site_fract_x
_atom_site_fract_y
_atom_site_fract_z
Si Si1 0.511019 0.163567 0.643084
Si Si2 0.190022 0.233254 0.391557
Si Si3 0.082586 0.890403 0.144190
Si Si4 0.419524 0.653661 0.143469
Si Si5 0.315800 0.203834 0.391440
Si Si6 0.119808 0.466450 0.608081
O O1 0.500000 0.157932 0.750000
O O2 0.551775 0.272204 0.606261
O O3 0.453069 0.226986 0.609859
O O4 0.553293 0.049198 0.626505
O O5 0.192962 0.243513 0.500000
O O6 0.148628 0.123271 0.369172
O O7 0.252742 0.216761 0.357818
O O8 0.156711 0.352476 0.357956
O O9 0.070440 0.870044 0.250310
O O10 0.064704 0.020907 0.106741
O O11 0.354766 0.681927 0.129947
O O12 0.312784 0.192718 0.500000
O O13 0.349607 0.086475 0.356331
O O14 0.123612 0.467982 0.500000
#
# Coordination Sequence:
#
# PCOD9526734 Si02
#       6
#    16  16  16  16  16  16
#     4   9  18  36  59  80 112 151 191 233 282 342
#     4   9  19  36  58  79 108 149 191 234 285 338
#     4   9  19  36  57  82 111 145 186 238 284 331
#     4  10  20  34  55  83 114 146 187 232 285 341
#     4  10  22  36  55  83 114 152 192 233 281 341
#     4   9  19  37  57  83 118 153 190 238 291 335
#
# _framework density 24.600490000000001
#
# number of rings (size 3 to 8) (size 9 to 14) (size 15 to 20)
#    0.000    2.667    0.000    0.500    2.333    4.667 
#    0.000   11.667    0.000    5.000    0.000    0.000 
#    0.000    0.000    0.000    0.000    0.000    0.000 
#
# Total GULP energy -267675.290253 kJ/mol
# GULP energy per Si atom -5576.568547 kJ/mol
# Density = 2.454450 g / cm^3
# Si number density = 24.600490 Si / 1000 Ang^3
#
#
#
# Elastic Constant Matrix: (Units=GPa)
#
#
# Indices 1 2 3 4 5 6 
#
# 1 199.1558 30.4044 5.2813 0.0000 0.0000 0.0000
# 2 30.4044 67.9020 15.5950 0.0000 0.0000 0.0000
# 3 5.2813 15.5950 75.8732 0.0000 0.0000 0.0000
# 4 0.0000 0.0000 0.0000 4.6411 0.0000 0.0000
# 5 0.0000 0.0000 0.0000 0.0000 -3.6914 0.0000
# 6 0.0000 0.0000 0.0000 0.0000 0.0000 28.1795
#
#
#
# Elastic Compliance Matrix: (Units=1/GPa)
#
#
# Indices 1 2 3 4 5 6 
#
# 1 0.005391 -0.002443 0.000127 0.000000 0.000000 0.000000
# 2 -0.002443 0.016564 -0.003234 0.000000 0.000000 0.000000
# 3 0.000127 -0.003234 0.013836 0.000000 0.000000 0.000000
# 4 0.000000 0.000000 0.000000 0.215465 0.000000 0.000000
# 5 0.000000 0.000000 0.000000 0.000000 -0.270897 0.000000
# 6 0.000000 0.000000 0.000000 0.000000 0.000000 0.035487
#
#
# Mechanical properties :
#
#
# Convention : Reuss Voigt Hill
#
# Bulk Modulus (GPa) = 40.50324 49.49915 45.00119
# Shear Modulus (GPa) = 142.14431 25.26920 83.70676
#
# Velocity S-wave (km/s) = 7.60963 3.20845 5.83955
# Velocity P-wave (km/s) = 9.68033 5.82155 7.98747
#
# Compressibility (1/GPa) = 0.02468939
#
# Stress axis : x y z
#
# Youngs Moduli (GPa) = 185.50161 60.37240 72.27588
#
# Poissons Ratio (x) = 0.14749 -0.00917
# Poissons Ratio (y) = 0.45318 0.23378
# Poissons Ratio (z) = -0.02354 0.19527
#
# Static dielectric constant tensor:
#      x y z
#    x 1.965600 0.000000 0.000000 
#    y 0.000000 2.051190 0.000000 
#    z 0.000000 0.000000 1.957070 
# 
# From -- ./inp_files/33236.got.cif
#   From: 2010.05.17/outbox.cif.g08.bks.cpg/sg72_17_cif.got.tgz:33236.got - 2010.06.03 17:03:01.
