data_PCOD9526468
_publ_section_title
;
Structure prediction by ZEFSAII (Michael W. Deem and Ramdas Pophale) SiO2 
 PCOD9526468
Probable space group: I B A M
;
_chemical_formula_sum "Si O2"
_cell_formula_units_Z 116
_cell_length_a 23.503502
_cell_length_b 7.632665
_cell_length_c 26.767917
_cell_angle_alpha 90.000000
_cell_angle_beta 90.000000
_cell_angle_gamma 90.000000
_cell_volume 4802.013261
_symmetry_space_group_name_H-M "I B A M"
_symmetry_group_IT_number 72
_symmetry_cell_setting 'orthorhombic'
loop_
_space_group_symop_operation_xyz
x,y,z
-x,-y,z
x,-y,1/2-z
-x,y,1/2-z
-x,-y,-z
x,y,-z
-x,y,1/2+z
x,-y,1/2+z
1/2+x,1/2+y,1/2+z
1/2-x,1/2-y,1/2+z
1/2+x,1/2-y,-z
1/2-x,1/2+y,-z
1/2-x,1/2-y,1/2-z
1/2+x,1/2+y,1/2-z
1/2-x,1/2+y,z
1/2+x,1/2-y,z
loop_
_atom_site_type_symbol
_atom_site_label
_atom_site_fract_x
_atom_site_fract_y
_atom_site_fract_z
Si Si1 0.125182 0.097982 0.121186
Si Si2 0.507385 0.290105 0.146371
Si Si3 0.078210 0.211079 0.735244
Si Si4 0.066401 0.201117 0.443328
Si Si5 0.500000 0.000000 0.750000
Si Si6 0.732075 0.173417 0.112436
Si Si7 0.315464 0.867681 0.556067
Si Si8 0.693280 0.620002 0.795142
O O1 0.075753 0.224630 0.141571
O O2 0.180295 0.197051 0.101434
O O3 0.094774 0.971698 0.081467
O O4 0.151261 0.987464 0.167394
O O5 0.500000 0.500000 0.152161
O O6 0.455641 0.236975 0.184267
O O7 0.483891 0.237960 0.092150
O O8 0.045833 0.353076 0.770473
O O9 0.145300 0.242806 0.730273
O O10 0.069090 0.000000 0.750000
O O11 0.048863 0.168529 0.500000
O O12 0.117754 0.338771 0.442752
O O13 0.781667 0.192925 0.071319
O O14 0.757859 0.188462 0.168133
O O15 0.704841 0.986634 0.101607
O O16 0.299903 0.924825 0.500000
O O17 0.715893 0.500000 0.750000
#
# Coordination Sequence:
#
# PCOD9526468 Si02
#       8
#    16  16  16  16   4  16  16  16
#     4  11  23  40  68  98 128 179 229 269 340 412
#     4  10  19  39  67  96 130 178 215 274 341 406
#     4  11  23  44  71  99 142 179 227 295 349 413
#     4  10  21  41  68 100 133 172 221 278 346 415
#     4  12  26  36  68 118 130 176 242 284 354 430
#     4  12  23  45  63  96 135 172 234 282 331 423
#     4  11  22  40  68  95 129 174 219 282 345 403
#     4  11  24  44  72  94 134 190 228 285 355 407
#
# _framework density 24.156534000000001
#
# number of rings (size 3 to 8) (size 9 to 14) (size 15 to 20)
#    0.000    1.103    5.517    1.448    1.931    5.241 
#    4.966    0.000    3.034    1.655    0.000    0.000 
#    0.000    0.000    0.000    0.000    0.000    0.000 
#
# Total GULP energy -323073.779294 kJ/mol
# GULP energy per Si atom -5570.237574 kJ/mol
# Density = 2.410155 g / cm^3
# Si number density = 24.156534 Si / 1000 Ang^3
#
#
#
# Elastic Constant Matrix: (Units=GPa)
#
#
# Indices 1 2 3 4 5 6 
#
# 1 90.2042 7.3148 -15.9908 0.0000 0.0000 0.0000
# 2 7.3148 44.8897 -15.6094 0.0000 0.0000 0.0000
# 3 -15.9908 -15.6094 36.8002 0.0000 0.0000 0.0000
# 4 0.0000 0.0000 0.0000 11.6199 0.0000 0.0000
# 5 0.0000 0.0000 0.0000 0.0000 49.8851 0.0000
# 6 0.0000 0.0000 0.0000 0.0000 0.0000 16.7214
#
#
#
# Elastic Compliance Matrix: (Units=1/GPa)
#
#
# Indices 1 2 3 4 5 6 
#
# 1 0.012012 -0.000167 0.005149 0.000000 0.000000 0.000000
# 2 -0.000167 0.026133 0.011012 0.000000 0.000000 0.000000
# 3 0.005149 0.011012 0.034082 0.000000 0.000000 0.000000
# 4 0.000000 0.000000 0.000000 0.086059 0.000000 0.000000
# 5 0.000000 0.000000 0.000000 0.000000 0.020046 0.000000
# 6 0.000000 0.000000 0.000000 0.000000 0.000000 0.059803
#
#
# Mechanical properties :
#
#
# Convention : Reuss Voigt Hill
#
# Bulk Modulus (GPa) = 9.59543 13.70258 11.64901
# Shear Modulus (GPa) = 20.75663 28.72392 24.74027
#
# Velocity S-wave (km/s) = 2.93449 3.45204 3.20373
# Velocity P-wave (km/s) = 3.93223 4.64472 4.30325
#
# Compressibility (1/GPa) = 0.10421624
#
# Stress axis : x y z
#
# Youngs Moduli (GPa) = 83.24835 38.26524 29.34084
#
# Poissons Ratio (x) = 0.00639 -0.15107
# Poissons Ratio (y) = 0.01390 -0.32311
# Poissons Ratio (z) = -0.42863 -0.42139
#
# Static dielectric constant tensor:
#      x y z
#    x 1.977220 0.000000 0.000000 
#    y 0.000000 1.880580 0.000000 
#    z 0.000000 0.000000 2.213970 
# 
# From -- ./inp_files/49731.got.cif
#   From: 2010.05.17/outbox.cif.g08.bks.cpg/sg72_25_cif.got.tgz:49731.got - 2010.06.03 17:03:01.
