data_PCOD9526263
_publ_section_title
;
Structure prediction by ZEFSAII (Michael W. Deem and Ramdas Pophale) SiO2 
 PCOD9526263
Probable space group: I B A M
;
_chemical_formula_sum "Si O2"
_cell_formula_units_Z 116
_cell_length_a 15.524758
_cell_length_b 23.333140
_cell_length_c 14.909842
_cell_angle_alpha 90.000000
_cell_angle_beta 90.000000
_cell_angle_gamma 90.000000
_cell_volume 5400.961322
_symmetry_space_group_name_H-M "I B A M"
_symmetry_group_IT_number 72
_symmetry_cell_setting 'orthorhombic'
loop_
_space_group_symop_operation_xyz
x,y,z
-x,-y,z
x,-y,1/2-z
-x,y,1/2-z
-x,-y,-z
x,y,-z
-x,y,1/2+z
x,-y,1/2+z
1/2+x,1/2+y,1/2+z
1/2-x,1/2-y,1/2+z
1/2+x,1/2-y,-z
1/2-x,1/2+y,-z
1/2-x,1/2-y,1/2-z
1/2+x,1/2+y,1/2-z
1/2-x,1/2+y,z
1/2+x,1/2-y,z
loop_
_atom_site_type_symbol
_atom_site_label
_atom_site_fract_x
_atom_site_fract_y
_atom_site_fract_z
Si Si1 0.133616 0.398000 0.397829
Si Si2 0.748724 0.296903 0.890109
Si Si3 0.930980 0.248328 0.390082
Si Si4 0.115356 0.199712 0.609580
Si Si5 0.356808 0.570787 0.599883
Si Si6 0.684865 0.980091 0.346504
Si Si7 0.000000 0.000000 0.500000
Si Si8 0.557886 0.878033 0.391811
O O1 0.123200 0.376802 0.500000
O O2 0.203116 0.354241 0.357103
O O3 0.167094 0.462588 0.402276
O O4 0.037947 0.394167 0.357794
O O5 0.650769 0.288604 0.859466
O O6 0.807344 0.242255 0.865201
O O7 0.744431 0.298314 0.000000
O O8 0.931545 0.247627 0.500000
O O9 0.919649 0.314070 0.361099
O O10 0.023635 0.225035 0.360998
O O11 0.113369 0.199177 0.500000
O O12 0.126015 0.133863 0.637708
O O13 0.315464 0.579455 0.500000
O O14 0.284837 0.536414 0.652794
O O15 0.442501 0.534832 0.577037
O O16 0.628277 0.925455 0.370684
O O17 0.655837 0.000000 0.250000
O O18 0.554578 0.876338 0.500000
#
# Coordination Sequence:
#
# PCOD9526263 Si02
#       8
#    16  16  16  16  16  16   4  16
#     4  10  20  35  55  83 118 149 193 252 297 352
#     4   9  16  27  47  81 117 145 178 232 298 350
#     4   9  16  27  51  87 118 144 181 239 308 363
#     4   9  15  28  51  83 118 143 180 240 297 356
#     4   9  19  37  60  87 117 145 191 246 293 355
#     4  12  25  38  55  82 114 164 204 239 294 355
#     4   8  20  36  62  92 110 152 186 242 296 338
#     4  10  19  35  58  85 119 154 196 248 302 354
#
# _framework density 21.477657000000001
#
# number of rings (size 3 to 8) (size 9 to 14) (size 15 to 20)
#    0.414    1.931    1.379    2.483    0.000    5.517 
#    2.483    0.345    0.000    3.310    0.000    0.000 
#    0.000    0.000    0.000    0.000    0.000    0.000 
#
# Total GULP energy -323084.557058 kJ/mol
# GULP energy per Si atom -5570.423398 kJ/mol
# Density = 2.142877 g / cm^3
# Si number density = 21.477657 Si / 1000 Ang^3
#
#
#
# Elastic Constant Matrix: (Units=GPa)
#
#
# Indices 1 2 3 4 5 6 
#
# 1 86.0165 24.5260 -10.4744 0.0000 0.0000 0.0000
# 2 24.5260 77.5944 -2.4111 0.0000 0.0000 0.0000
# 3 -10.4744 -2.4111 16.7174 -0.0001 0.0000 0.0000
# 4 0.0000 0.0000 -0.0001 -4.7400 0.0000 0.0000
# 5 0.0000 0.0000 0.0000 0.0000 -1.5332 0.0000
# 6 0.0000 0.0000 0.0000 0.0000 0.0000 35.8071
#
#
#
# Elastic Compliance Matrix: (Units=1/GPa)
#
#
# Indices 1 2 3 4 5 6 
#
# 1 0.013775 -0.004104 0.008039 0.000000 0.000000 0.000000
# 2 -0.004104 0.014168 -0.000528 0.000000 0.000000 0.000000
# 3 0.008039 -0.000528 0.064779 -0.000001 0.000001 0.000000
# 4 0.000000 0.000000 -0.000001 -0.210970 0.000000 0.000000
# 5 0.000000 0.000000 0.000001 0.000000 -0.652211 0.000000
# 6 0.000000 0.000000 0.000000 0.000000 0.000000 0.027927
#
#
# Mechanical properties :
#
#
# Convention : Reuss Voigt Hill
#
# Bulk Modulus (GPa) = 10.04672 22.62326 16.33499
# Shear Modulus (GPa) = -6.98162 17.15263 5.08551
#
# Velocity S-wave (km/s) = -1.80491 2.82906 1.54044
# Velocity P-wave (km/s) = 0.58678 4.60736 3.28421
#
# Compressibility (1/GPa) = 0.09953502
#
# Stress axis : x y z
#
# Youngs Moduli (GPa) = 72.59642 70.57983 15.43719
#
# Poissons Ratio (x) = 0.28967 -0.12410
# Poissons Ratio (y) = 0.29795 0.00815
# Poissons Ratio (z) = -0.58359 0.03727
#
# Static dielectric constant tensor:
#      x y z
#    x 1.759880 0.000000 0.000000 
#    y 0.000000 1.789730 0.000000 
#    z 0.000000 0.000000 1.822400 
# 
# From -- ./inp_files/30883.got.cif
#   From: 2010.05.17/outbox.cif.g08.bks.cpg/sg72_16_cif.got.tgz:30883.got - 2010.06.03 17:03:01.
