data_PCOD9526148
_publ_section_title
;
Structure prediction by ZEFSAII (Michael W. Deem and Ramdas Pophale) SiO2 
 PCOD9526148
Probable space group: I B A M
;
_chemical_formula_sum "Si O2"
_cell_formula_units_Z 112
_cell_length_a 19.316964
_cell_length_b 18.041547
_cell_length_c 18.738721
_cell_angle_alpha 90.000000
_cell_angle_beta 90.000000
_cell_angle_gamma 90.000000
_cell_volume 6530.592565
_symmetry_space_group_name_H-M "I B A M"
_symmetry_group_IT_number 72
_symmetry_cell_setting 'orthorhombic'
loop_
_space_group_symop_operation_xyz
x,y,z
-x,-y,z
x,-y,1/2-z
-x,y,1/2-z
-x,-y,-z
x,y,-z
-x,y,1/2+z
x,-y,1/2+z
1/2+x,1/2+y,1/2+z
1/2-x,1/2-y,1/2+z
1/2+x,1/2-y,-z
1/2-x,1/2+y,-z
1/2-x,1/2-y,1/2-z
1/2+x,1/2+y,1/2-z
1/2-x,1/2+y,z
1/2+x,1/2-y,z
loop_
_atom_site_type_symbol
_atom_site_label
_atom_site_fract_x
_atom_site_fract_y
_atom_site_fract_z
Si Si1 0.445998 0.436488 0.084859
Si Si2 0.961351 0.764829 0.415192
Si Si3 0.783503 0.649097 0.809341
Si Si4 0.322386 0.781844 0.338478
Si Si5 0.115491 0.274582 0.084463
Si Si6 0.707524 0.366662 0.917011
Si Si7 0.314712 0.485013 0.828976
O O1 0.500000 0.500000 0.108154
O O2 0.471892 0.352929 0.096448
O O3 0.373496 0.446097 0.124288
O O4 0.564391 0.553579 0.000000
O O5 0.945495 0.755517 0.500000
O O6 0.898340 0.736327 0.367102
O O7 0.034166 0.725390 0.399834
O O8 0.719235 0.706370 0.819721
O O9 0.816411 0.667748 0.732383
O O10 0.839967 0.669183 0.868860
O O11 0.751469 0.568075 0.818749
O O12 0.277923 0.822977 0.399362
O O13 0.146865 0.192609 0.099389
O O14 0.125585 0.287489 0.000000
O O15 0.702506 0.438086 0.867552
O O16 0.702767 0.387171 0.000000
O O17 0.342882 0.500000 0.750000
#
# Coordination Sequence:
#
# PCOD9526148 Si02
#       7
#    16  16  16  16  16  16  16
#     4  10  21  36  54  81 118 153 186 223 276 342
#     4  10  19  34  57  83 111 145 185 232 279 333
#     4  10  21  36  55  78 111 150 188 235 276 328
#     4  10  19  36  55  80 109 145 191 235 274 327
#     4   9  20  36  56  83 113 144 185 232 278 333
#     4  10  20  35  56  81 113 150 185 228 281 334
#     4  12  22  36  54  81 114 149 187 232 280 337
#
# _framework density 17.150051999999999
#
# number of rings (size 3 to 8) (size 9 to 14) (size 15 to 20)
#    0.000    1.857    2.857    1.714    0.000    4.857 
#    0.000    1.429    0.000    0.857    0.000    3.000 
#    0.000    0.000    0.000    0.000    0.000    0.000 
#
# Total GULP energy -312513.000145 kJ/mol
# GULP energy per Si atom -5580.589288 kJ/mol
# Density = 1.711102 g / cm^3
# Si number density = 17.150052 Si / 1000 Ang^3
#
#
#
# Elastic Constant Matrix: (Units=GPa)
#
#
# Indices 1 2 3 4 5 6 
#
# 1 107.7101 9.4249 37.4385 0.0000 0.0000 0.0000
# 2 9.4249 13.5607 11.5011 0.0000 0.0000 0.0000
# 3 37.4385 11.5011 48.3695 0.0000 0.0000 0.0000
# 4 0.0000 0.0000 0.0000 23.2504 0.0000 0.0000
# 5 0.0000 0.0000 0.0000 0.0000 35.1847 0.0000
# 6 0.0000 0.0000 0.0000 0.0000 0.0000 23.9102
#
#
#
# Elastic Compliance Matrix: (Units=1/GPa)
#
#
# Indices 1 2 3 4 5 6 
#
# 1 0.012705 -0.000614 -0.009688 0.000000 0.000000 0.000000
# 2 -0.000614 0.092400 -0.021495 0.000000 0.000000 0.000000
# 3 -0.009688 -0.021495 0.033284 0.000000 0.000000 0.000000
# 4 0.000000 0.000000 0.000000 0.043010 0.000000 0.000000
# 5 0.000000 0.000000 0.000000 0.000000 0.028421 0.000000
# 6 0.000000 0.000000 0.000000 0.000000 0.000000 0.041823
#
#
# Mechanical properties :
#
#
# Convention : Reuss Voigt Hill
#
# Bulk Modulus (GPa) = 13.36993 31.81881 22.59437
# Shear Modulus (GPa) = 14.69853 23.88743 19.29298
#
# Velocity S-wave (km/s) = 2.93072 3.73614 3.35767
# Velocity P-wave (km/s) = 4.38919 6.09960 5.31367
#
# Compressibility (1/GPa) = 0.07479470
#
# Stress axis : x y z
#
# Youngs Moduli (GPa) = 78.70715 10.82251 30.04450
#
# Poissons Ratio (x) = 0.00664 0.29107
# Poissons Ratio (y) = 0.04831 0.64582
# Poissons Ratio (z) = 0.76252 0.23263
#
# Static dielectric constant tensor:
#      x y z
#    x 1.560020 0.000000 0.000000 
#    y 0.000000 1.575390 0.000000 
#    z 0.000000 0.000000 1.585560 
# 
# From -- ./inp_files/39190.got.cif
#   From: 2010.05.17/outbox.cif.g08.bks.cpg/sg72_20_cif.got.tgz:39190.got - 2010.06.03 17:03:01.
