data_PCOD9526335
_publ_section_title
;
Structure prediction by ZEFSAII (Michael W. Deem and Ramdas Pophale) SiO2 
 PCOD9526335
Probable space group: I B A M
;
_chemical_formula_sum "Si O2"
_cell_formula_units_Z 116
_cell_length_a 14.991741
_cell_length_b 17.600146
_cell_length_c 23.567653
_cell_angle_alpha 90.000000
_cell_angle_beta 90.000000
_cell_angle_gamma 90.000000
_cell_volume 6218.486220
_symmetry_space_group_name_H-M "I B A M"
_symmetry_group_IT_number 72
_symmetry_cell_setting 'orthorhombic'
loop_
_space_group_symop_operation_xyz
x,y,z
-x,-y,z
x,-y,1/2-z
-x,y,1/2-z
-x,-y,-z
x,y,-z
-x,y,1/2+z
x,-y,1/2+z
1/2+x,1/2+y,1/2+z
1/2-x,1/2-y,1/2+z
1/2+x,1/2-y,-z
1/2-x,1/2+y,-z
1/2-x,1/2-y,1/2-z
1/2+x,1/2+y,1/2-z
1/2-x,1/2+y,z
1/2+x,1/2-y,z
loop_
_atom_site_type_symbol
_atom_site_label
_atom_site_fract_x
_atom_site_fract_y
_atom_site_fract_z
Si Si1 0.447329 0.630241 0.329850
Si Si2 0.896620 0.278519 0.762996
Si Si3 0.325881 0.149448 0.871250
Si Si4 0.500000 0.500000 0.250000
Si Si5 0.893195 0.501054 0.433595
Si Si6 0.650348 0.166354 0.064801
Si Si7 0.867123 0.208837 0.350457
Si Si8 0.137859 0.802104 0.065087
O O1 0.399077 0.697740 0.295531
O O2 0.444043 0.554411 0.292407
O O3 0.551163 0.654759 0.334311
O O4 0.407792 0.636859 0.393037
O O5 0.857044 0.338751 0.806475
O O6 0.846609 0.261781 0.704247
O O7 0.000000 0.297371 0.750000
O O8 0.353468 0.069881 0.897800
O O9 0.219810 0.164024 0.870521
O O10 0.370770 0.217670 0.908088
O O11 0.866200 0.509307 0.500000
O O12 0.863397 0.418251 0.412577
O O13 0.000000 0.500000 0.431345
O O14 0.604336 0.231970 0.101031
O O15 0.755923 0.182760 0.065292
O O16 0.617732 0.167722 0.000000
O O17 0.106490 0.805157 0.000000
#
# Coordination Sequence:
#
# PCOD9526335 Si02
#       8
#    16  16  16   4  16  16  16  16
#     4  10  21  35  60  83 112 152 188 243 285 351
#     4   9  18  35  55  82 110 150 190 236 280 336
#     4  10  20  34  60  83 116 151 192 238 288 341
#     4  12  20  40  54  80 112 142 198 234 304 340
#     4  10  22  37  56  84 116 155 192 236 292 350
#     4   9  20  37  57  83 119 151 187 240 292 346
#     4  10  19  36  58  84 113 150 197 235 282 345
#     4   9  19  37  59  86 113 150 194 236 291 349
#
# _framework density 18.654057999999999
#
# number of rings (size 3 to 8) (size 9 to 14) (size 15 to 20)
#    0.000    2.345    2.069    0.828    5.793    2.207 
#    0.000    1.034    0.000    0.000    0.000    0.000 
#    0.000    0.000    0.000    0.000    0.000    0.000 
#
# Total GULP energy -323487.136278 kJ/mol
# GULP energy per Si atom -5577.364419 kJ/mol
# Density = 1.861160 g / cm^3
# Si number density = 18.654058 Si / 1000 Ang^3
#
#
#
# Elastic Constant Matrix: (Units=GPa)
#
#
# Indices 1 2 3 4 5 6 
#
# 1 28.6531 17.2844 11.1844 0.0000 0.0000 0.0000
# 2 17.2844 94.7606 29.1391 0.0000 0.0000 0.0000
# 3 11.1844 29.1391 88.3080 0.0000 0.0000 0.0000
# 4 0.0000 0.0000 0.0000 36.2389 0.0000 0.0000
# 5 0.0000 0.0000 0.0000 0.0000 26.7505 0.0000
# 6 0.0000 0.0000 0.0000 0.0000 0.0000 16.2078
#
#
#
# Elastic Compliance Matrix: (Units=1/GPa)
#
#
# Indices 1 2 3 4 5 6 
#
# 1 0.039894 -0.006369 -0.002951 0.000000 0.000000 0.000000
# 2 -0.006369 0.012761 -0.003404 0.000000 0.000000 0.000000
# 3 -0.002951 -0.003404 0.012821 0.000000 0.000000 0.000000
# 4 0.000000 0.000000 0.000000 0.027595 0.000000 0.000000
# 5 0.000000 0.000000 0.000000 0.000000 0.037382 0.000000
# 6 0.000000 0.000000 0.000000 0.000000 0.000000 0.061699
#
#
# Mechanical properties :
#
#
# Convention : Reuss Voigt Hill
#
# Bulk Modulus (GPa) = 24.98266 36.32638 30.65452
# Shear Modulus (GPa) = 21.65025 26.11371 23.88198
#
# Velocity S-wave (km/s) = 3.41048 3.74558 3.58195
# Velocity P-wave (km/s) = 5.37868 6.18238 5.79448
#
# Compressibility (1/GPa) = 0.04002776
#
# Stress axis : x y z
#
# Youngs Moduli (GPa) = 25.06623 78.36087 77.99676
#
# Poissons Ratio (x) = 0.49910 0.23017
# Poissons Ratio (y) = 0.15965 0.26552
# Poissons Ratio (z) = 0.07397 0.26676
#
# Static dielectric constant tensor:
#      x y z
#    x 1.664510 0.000000 0.000000 
#    y 0.000000 1.621490 0.000000 
#    z 0.000000 0.000000 1.681180 
# 
# From -- ./inp_files/44983.got.cif
#   From: 2010.05.17/outbox.cif.g08.bks.cpg/sg72_23_cif.got.tgz:44983.got - 2010.06.03 17:03:01.
