data_PCOD9526667
_publ_section_title
;
Structure prediction by ZEFSAII (Michael W. Deem and Ramdas Pophale) SiO2 
 PCOD9526667
Probable space group: I B A M
;
_chemical_formula_sum "Si O2"
_cell_formula_units_Z 96
_cell_length_a 13.288240
_cell_length_b 27.278694
_cell_length_c 15.926698
_cell_angle_alpha 90.000000
_cell_angle_beta 90.000000
_cell_angle_gamma 90.000000
_cell_volume 5773.202388
_symmetry_space_group_name_H-M "I B A M"
_symmetry_group_IT_number 72
_symmetry_cell_setting 'orthorhombic'
loop_
_space_group_symop_operation_xyz
x,y,z
-x,-y,z
x,-y,1/2-z
-x,y,1/2-z
-x,-y,-z
x,y,-z
-x,y,1/2+z
x,-y,1/2+z
1/2+x,1/2+y,1/2+z
1/2-x,1/2-y,1/2+z
1/2+x,1/2-y,-z
1/2-x,1/2+y,-z
1/2-x,1/2-y,1/2-z
1/2+x,1/2+y,1/2-z
1/2-x,1/2+y,z
1/2+x,1/2-y,z
loop_
_atom_site_type_symbol
_atom_site_label
_atom_site_fract_x
_atom_site_fract_y
_atom_site_fract_z
Si Si1 0.751649 0.309725 0.900359
Si Si2 0.428333 0.123720 0.831868
Si Si3 0.723337 0.693537 0.903975
Si Si4 0.380881 0.644635 0.755627
Si Si5 0.370553 0.893800 0.909178
Si Si6 0.729471 0.057307 0.753459
O O1 0.854427 0.333048 0.861882
O O2 0.756338 0.250980 0.894500
O O3 0.662895 0.329350 0.839624
O O4 0.741641 0.322533 0.000000
O O5 0.500000 0.134710 0.750000
O O6 0.510464 0.109663 0.900130
O O7 0.353768 0.078655 0.811176
O O8 0.656201 0.673924 0.827402
O O9 0.823997 0.660540 0.897011
O O10 0.683993 0.685729 0.000000
O O11 0.500000 0.641462 0.750000
O O12 0.327438 0.591432 0.754553
O O13 0.322309 0.928798 0.841111
O O14 0.339603 0.911186 0.000000
O O15 0.748489 0.000000 0.750000
#
# Coordination Sequence:
#
# PCOD9526667 Si02
#       6
#    16  16  16  16  16  16
#     4  10  20  34  51  77 110 141 170 206 250 300
#     4   9  18  31  50  75 104 134 163 202 249 301
#     4   9  19  34  52  74 104 138 172 206 245 294
#     4  10  21  35  53  75 100 134 174 215 254 295
#     4   9  17  31  50  73  98 127 162 201 245 300
#     4   9  19  36  52  69  96 127 162 208 258 304
#
# _framework density 16.628553
#
# number of rings (size 3 to 8) (size 9 to 14) (size 15 to 20)
#    0.000    2.667    0.000    2.000    0.000    6.000 
#    0.000    8.333    0.000    0.000    0.000    9.333 
#    0.000    0.000    0.000    0.000    0.000    0.000 
#
# Total GULP energy -267231.082804 kJ/mol
# GULP energy per Si atom -5567.314225 kJ/mol
# Density = 1.659071 g / cm^3
# Si number density = 16.628553 Si / 1000 Ang^3
#
#
#
# Elastic Constant Matrix: (Units=GPa)
#
#
# Indices 1 2 3 4 5 6 
#
# 1 130.2353 48.7627 56.2209 0.0000 0.0000 0.0000
# 2 48.7627 126.8023 62.3635 0.0000 0.0000 0.0000
# 3 56.2209 62.3635 94.8927 -0.0002 0.0000 0.0001
# 4 0.0000 0.0000 -0.0002 -3.2018 0.0000 0.0000
# 5 0.0000 0.0000 0.0000 0.0000 4.6523 0.0000
# 6 0.0000 0.0000 0.0001 0.0000 0.0000 -1.8282
#
#
#
# Elastic Compliance Matrix: (Units=1/GPa)
#
#
# Indices 1 2 3 4 5 6 
#
# 1 0.010493 -0.001445 -0.005267 0.000000 0.000000 0.000000
# 2 -0.001445 0.011852 -0.006933 0.000000 0.000000 0.000000
# 3 -0.005267 -0.006933 0.018215 -0.000001 0.000000 0.000001
# 4 0.000000 0.000000 -0.000001 -0.312329 0.000000 -0.000004
# 5 0.000000 0.000000 0.000000 0.000000 0.214946 -0.000002
# 6 0.000000 0.000000 0.000001 -0.000004 -0.000002 -0.546974
#
#
# Mechanical properties :
#
#
# Convention : Reuss Voigt Hill
#
# Bulk Modulus (GPa) = 75.35777 76.29160 75.82469
# Shear Modulus (GPa) = -8.74000 12.23002 1.74501
#
# Velocity S-wave (km/s) = -2.29509 2.71492 1.02552
# Velocity P-wave (km/s) = 6.19624 7.47042 6.86297
#
# Compressibility (1/GPa) = 0.01327003
#
# Stress axis : x y z
#
# Youngs Moduli (GPa) = 95.29978 84.37697 54.89862
#
# Poissons Ratio (x) = 0.12189 0.28918
# Poissons Ratio (y) = 0.13767 0.38061
# Poissons Ratio (z) = 0.50199 0.58498
#
# Static dielectric constant tensor:
#      x y z
#    x 1.544230 0.000000 0.000000 
#    y 0.000000 1.533560 0.000000 
#    z 0.000000 0.000000 1.608220 
# 
# From -- ./inp_files/29466.got.cif
#   From: 2010.05.17/outbox.cif.g08.bks.cpg/sg72_15_cif.got.tgz:29466.got - 2010.06.03 17:03:01.
