data_PCOD9526075
_publ_section_title
;
Structure prediction by ZEFSAII (Michael W. Deem and Ramdas Pophale) SiO2 
 PCOD9526075
Probable space group: I B A M
;
_chemical_formula_sum "Si O2"
_cell_formula_units_Z 96
_cell_length_a 13.096375
_cell_length_b 13.864511
_cell_length_c 31.694425
_cell_angle_alpha 90.000000
_cell_angle_beta 90.000000
_cell_angle_gamma 90.000000
_cell_volume 5754.909998
_symmetry_space_group_name_H-M "I B A M"
_symmetry_group_IT_number 72
_symmetry_cell_setting 'orthorhombic'
loop_
_space_group_symop_operation_xyz
x,y,z
-x,-y,z
x,-y,1/2-z
-x,y,1/2-z
-x,-y,-z
x,y,-z
-x,y,1/2+z
x,-y,1/2+z
1/2+x,1/2+y,1/2+z
1/2-x,1/2-y,1/2+z
1/2+x,1/2-y,-z
1/2-x,1/2+y,-z
1/2-x,1/2-y,1/2-z
1/2+x,1/2+y,1/2-z
1/2-x,1/2+y,z
1/2+x,1/2-y,z
loop_
_atom_site_type_symbol
_atom_site_label
_atom_site_fract_x
_atom_site_fract_y
_atom_site_fract_z
Si Si1 0.474722 0.612864 0.951983
Si Si2 0.745333 0.063285 0.840158
Si Si3 0.000000 0.652767 0.750000
Si Si4 0.293824 0.365666 0.385465
Si Si5 0.924892 0.279648 0.336711
Si Si6 0.675598 0.000000 0.750000
Si Si7 0.382810 0.715896 0.387370
O O1 0.500000 0.500000 0.952851
O O2 0.373767 0.624815 0.923585
O O3 0.567236 0.665496 0.927875
O O4 0.461564 0.647243 0.000000
O O5 0.641720 0.125151 0.846560
O O6 0.740432 0.033453 0.790666
O O7 0.835316 0.134998 0.855783
O O8 0.753589 0.967506 0.868369
O O9 0.040229 0.714480 0.711300
O O10 0.096049 0.585040 0.763164
O O11 0.355324 0.312159 0.347779
O O12 0.204426 0.292493 0.397802
O O13 0.025579 0.271343 0.364483
#
# Coordination Sequence:
#
# PCOD9526075 Si02
#       7
#    16  16   8  16  16   8  16
#     4  10  20  37  59  79 103 136 168 210 264 315
#     4  10  19  34  50  77 108 138 181 219 252 310
#     4   9  16  32  46  71 106 142 182 213 252 307
#     4  10  20  34  56  79 104 138 173 214 263 308
#     4   9  20  32  51  76 104 142 179 216 259 301
#     4   9  18  28  50  71 102 148 176 213 262 293
#     4  10  20  35  55  80 104 138 174 212 261 312
#
# _framework density 16.681408999999999
#
# number of rings (size 3 to 8) (size 9 to 14) (size 15 to 20)
#    0.000    2.333    1.667    1.000    0.000    4.000 
#    0.000    5.000    0.000    3.000    0.000    4.667 
#    0.000    0.000    0.000    0.000    0.000    0.000 
#
# Total GULP energy -267519.441630 kJ/mol
# GULP energy per Si atom -5573.321701 kJ/mol
# Density = 1.664344 g / cm^3
# Si number density = 16.681409 Si / 1000 Ang^3
#
#
#
# Elastic Constant Matrix: (Units=GPa)
#
#
# Indices 1 2 3 4 5 6 
#
# 1 95.5543 56.1514 64.0249 0.0000 0.0000 0.0000
# 2 56.1514 89.2647 65.2425 0.0000 0.0000 0.0000
# 3 64.0249 65.2425 125.1245 0.0000 0.0000 0.0000
# 4 0.0000 0.0000 0.0000 20.5114 0.0000 0.0000
# 5 0.0000 0.0000 0.0000 0.0000 -2.9913 0.0000
# 6 0.0000 0.0000 0.0000 0.0000 0.0000 11.2415
#
#
#
# Elastic Compliance Matrix: (Units=1/GPa)
#
#
# Indices 1 2 3 4 5 6 
#
# 1 0.018723 -0.007716 -0.005557 0.000000 0.000000 0.000000
# 2 -0.007716 0.021281 -0.007148 0.000000 0.000000 0.000000
# 3 -0.005557 -0.007148 0.014563 0.000000 0.000000 0.000000
# 4 0.000000 0.000000 0.000000 0.048753 0.000000 0.000000
# 5 0.000000 0.000000 0.000000 0.000000 -0.334301 0.000000
# 6 0.000000 0.000000 0.000000 0.000000 0.000000 0.088956
#
#
# Mechanical properties :
#
#
# Convention : Reuss Voigt Hill
#
# Bulk Modulus (GPa) = 72.86400 75.64234 74.25317
# Shear Modulus (GPa) = -51.75534 14.05396 -18.85069
#
# Velocity S-wave (km/s) = -5.57612 2.90572 -3.36526
# Velocity P-wave (km/s) = 1.52220 7.53003 5.43224
#
# Compressibility (1/GPa) = 0.01372420
#
# Stress axis : x y z
#
# Youngs Moduli (GPa) = 53.41067 46.99091 68.66879
#
# Poissons Ratio (x) = 0.36258 0.38160
# Poissons Ratio (y) = 0.41211 0.49085
# Poissons Ratio (z) = 0.29681 0.33589
#
# Static dielectric constant tensor:
#      x y z
#    x 1.561110 0.000000 0.000000 
#    y 0.000000 1.565160 0.000000 
#    z 0.000000 0.000000 1.549970 
# 
# From -- ./inp_files/51405.got.cif
#   From: 2010.05.17/outbox.cif.g08.bks.cpg/sg72_26_cif.got.tgz:51405.got - 2010.06.03 17:03:01.
