data_PCOD9526979
_publ_section_title
;
Structure prediction by ZEFSAII (Michael W. Deem and Ramdas Pophale) SiO2 
 PCOD9526979
Probable space group: I B A M
;
_chemical_formula_sum "Si O2"
_cell_formula_units_Z 56
_cell_length_a 9.254506
_cell_length_b 14.703116
_cell_length_c 17.136016
_cell_angle_alpha 90.000000
_cell_angle_beta 90.000000
_cell_angle_gamma 90.000000
_cell_volume 2331.698986
_symmetry_space_group_name_H-M "I B A M"
_symmetry_group_IT_number 72
_symmetry_cell_setting 'orthorhombic'
loop_
_space_group_symop_operation_xyz
x,y,z
-x,-y,z
x,-y,1/2-z
-x,y,1/2-z
-x,-y,-z
x,y,-z
-x,y,1/2+z
x,-y,1/2+z
1/2+x,1/2+y,1/2+z
1/2-x,1/2-y,1/2+z
1/2+x,1/2-y,-z
1/2-x,1/2+y,-z
1/2-x,1/2-y,1/2-z
1/2+x,1/2+y,1/2-z
1/2-x,1/2+y,z
1/2+x,1/2-y,z
loop_
_atom_site_type_symbol
_atom_site_label
_atom_site_fract_x
_atom_site_fract_y
_atom_site_fract_z
Si Si1 0.331385 0.692377 0.185446
Si Si2 0.792437 0.000000 0.250000
Si Si3 0.412827 0.243991 0.086285
Si Si4 0.164139 0.956703 0.086102
O O1 0.250000 0.750000 0.250000
O O2 0.363125 0.595705 0.224343
O O3 0.463403 0.748921 0.150912
O O4 0.218482 0.681557 0.114314
O O5 0.737139 0.024902 0.162454
O O6 0.356957 0.348133 0.083386
O O7 0.466570 0.219616 0.000000
O O8 0.215438 0.986464 0.000000
O O9 0.000000 0.000000 0.095643
#
# Coordination Sequence:
#
# PCOD9526979 Si02
#       4
#    16   8  16  16
#     4  12  25  42  69 101 137 181 237 289 357 423
#     4  12  23  40  69  96 144 183 233 292 354 421
#     4  11  24  43  68 101 140 181 230 294 356 426
#     4  10  20  35  63  99 130 170 234 291 340 406
#
# _framework density 24.016822000000001
#
# number of rings (size 3 to 8) (size 9 to 14) (size 15 to 20)
#    0.000    0.857    5.714    2.143    0.000    1.143 
#    0.000    2.857    0.000    1.714    0.000    0.000 
#    0.000    0.000    0.000    0.000    0.000    0.000 
#
# Total GULP energy -155990.300931 kJ/mol
# GULP energy per Si atom -5571.082176 kJ/mol
# Density = 2.396216 g / cm^3
# Si number density = 24.016822 Si / 1000 Ang^3
#
#
#
# Elastic Constant Matrix: (Units=GPa)
#
#
# Indices 1 2 3 4 5 6 
#
# 1 63.2793 18.0053 23.5186 0.0000 0.0000 0.0000
# 2 18.0053 83.4089 13.4411 0.0000 0.0000 0.0000
# 3 23.5186 13.4411 209.9147 0.0000 0.0000 0.0000
# 4 0.0000 0.0000 0.0000 40.3259 0.0000 0.0000
# 5 0.0000 0.0000 0.0000 0.0000 35.4980 0.0000
# 6 0.0000 0.0000 0.0000 0.0000 0.0000 -6.2024
#
#
#
# Elastic Compliance Matrix: (Units=1/GPa)
#
#
# Indices 1 2 3 4 5 6 
#
# 1 0.017438 -0.003485 -0.001731 0.000000 0.000000 0.000000
# 2 -0.003485 0.012811 -0.000430 0.000000 0.000000 0.000000
# 3 -0.001731 -0.000430 0.004985 0.000000 0.000000 0.000000
# 4 0.000000 0.000000 0.000000 0.024798 0.000000 0.000000
# 5 0.000000 0.000000 0.000000 0.000000 0.028171 0.000000
# 6 0.000000 0.000000 0.000000 0.000000 0.000000 -0.161228
#
#
# Mechanical properties :
#
#
# Convention : Reuss Voigt Hill
#
# Bulk Modulus (GPa) = 41.76689 51.83700 46.80195
# Shear Modulus (GPa) = -93.01771 34.03350 -29.49210
#
# Velocity S-wave (km/s) = -6.23011 3.76848 -3.50805
# Velocity P-wave (km/s) = 5.85867 6.36913 1.76660
#
# Compressibility (1/GPa) = 0.02394241
#
# Stress axis : x y z
#
# Youngs Moduli (GPa) = 57.34651 78.05934 200.59189
#
# Poissons Ratio (x) = 0.27207 0.34713
# Poissons Ratio (y) = 0.19988 0.08621
# Poissons Ratio (z) = 0.09924 0.03355
#
# Static dielectric constant tensor:
#      x y z
#    x 1.979060 0.000000 0.000000 
#    y 0.000000 1.962270 0.000000 
#    z 0.000000 0.000000 2.023060 
# 
# From -- ./inp_files/19622.got.cif
#   From: 2010.05.17/outbox.cif.g08.bks.cpg/sg72_10_cif.got.tgz:19622.got - 2010.06.03 17:03:01.
