data_PCOD9526632
_publ_section_title
;
Structure prediction by ZEFSAII (Michael W. Deem and Ramdas Pophale) SiO2 
 PCOD9526632
Probable space group: I B A M
;
_chemical_formula_sum "Si O2"
_cell_formula_units_Z 116
_cell_length_a 23.893312
_cell_length_b 14.757492
_cell_length_c 14.858568
_cell_angle_alpha 90.000000
_cell_angle_beta 90.000000
_cell_angle_gamma 90.000000
_cell_volume 5239.210729
_symmetry_space_group_name_H-M "I B A M"
_symmetry_group_IT_number 72
_symmetry_cell_setting 'orthorhombic'
loop_
_space_group_symop_operation_xyz
x,y,z
-x,-y,z
x,-y,1/2-z
-x,y,1/2-z
-x,-y,-z
x,y,-z
-x,y,1/2+z
x,-y,1/2+z
1/2+x,1/2+y,1/2+z
1/2-x,1/2-y,1/2+z
1/2+x,1/2-y,-z
1/2-x,1/2+y,-z
1/2-x,1/2-y,1/2-z
1/2+x,1/2+y,1/2-z
1/2-x,1/2+y,z
1/2+x,1/2-y,z
loop_
_atom_site_type_symbol
_atom_site_label
_atom_site_fract_x
_atom_site_fract_y
_atom_site_fract_z
Si Si1 0.098701 0.172834 0.391253
Si Si2 0.372615 0.822614 0.862302
Si Si3 0.823393 0.670551 0.670681
Si Si4 0.500000 0.000000 0.000000
Si Si5 0.408601 0.982934 0.358944
Si Si6 0.025547 0.201793 0.109476
Si Si7 0.900444 0.034163 0.390009
Si Si8 0.200773 0.154359 0.899798
O O1 0.100767 0.171434 0.500000
O O2 0.149362 0.233784 0.357190
O O3 0.038579 0.213756 0.364875
O O4 0.098100 0.068895 0.358945
O O5 0.337088 0.842500 0.774322
O O6 0.389591 0.919971 0.899294
O O7 0.431483 0.771700 0.847008
O O8 0.334238 0.747293 0.908589
O O9 0.859423 0.589815 0.627019
O O10 0.758038 0.666571 0.652289
O O11 0.461113 0.045931 0.919215
O O12 0.418956 0.000000 0.250000
O O13 0.047874 0.100571 0.131766
O O14 0.030602 0.212627 0.000000
O O15 0.899290 0.032618 0.500000
O O16 0.843650 0.083731 0.359636
O O17 0.216142 0.122983 0.000000
#
# Coordination Sequence:
#
# PCOD9526632 Si02
#       8
#    16  16  16   4  16  16  16  16
#     4  10  20  33  56  87 121 153 194 245 309 371
#     4  10  22  42  62  84 121 166 204 251 320 370
#     4  11  24  40  56  88 127 161 203 259 317 363
#     4  12  26  40  76  86 128 170 226 252 326 386
#     4  10  26  44  63  96 133 166 214 267 316 381
#     4   9  18  33  59  87 115 150 201 249 299 372
#     4   8  16  34  56  85 115 152 193 252 306 355
#     4  10  21  39  65  89 118 154 213 264 304 375
#
# _framework density 22.140739
#
# number of rings (size 3 to 8) (size 9 to 14) (size 15 to 20)
#    0.000    2.207    0.000    2.690    5.793    3.310 
#    0.000    5.517    0.000    3.310    0.000    0.000 
#    0.000    0.000    0.000    0.000    0.000    0.000 
#
# Total GULP energy -323351.129335 kJ/mol
# GULP energy per Si atom -5575.019471 kJ/mol
# Density = 2.209035 g / cm^3
# Si number density = 22.140739 Si / 1000 Ang^3
#
#
#
# Elastic Constant Matrix: (Units=GPa)
#
#
# Indices 1 2 3 4 5 6 
#
# 1 84.1315 -12.5846 8.2748 0.0000 0.0000 0.0000
# 2 -12.5846 67.8970 -15.2467 0.0000 0.0000 0.0000
# 3 8.2748 -15.2467 55.3238 0.0000 0.0000 0.0000
# 4 0.0000 0.0000 0.0000 1.5617 0.0000 0.0000
# 5 0.0000 0.0000 0.0000 0.0000 11.7947 0.0000
# 6 0.0000 0.0000 0.0000 0.0000 0.0000 14.0751
#
#
#
# Elastic Compliance Matrix: (Units=1/GPa)
#
#
# Indices 1 2 3 4 5 6 
#
# 1 0.012311 0.001992 -0.001293 0.000000 0.000000 0.000000
# 2 0.001992 0.016022 0.004118 0.000000 0.000000 0.000000
# 3 -0.001293 0.004118 0.019403 0.000000 0.000000 0.000000
# 4 0.000000 0.000000 0.000000 0.640332 0.000000 0.000000
# 5 0.000000 0.000000 0.000000 0.000000 0.084784 0.000000
# 6 0.000000 0.000000 0.000000 0.000000 0.000000 0.071047
#
#
# Mechanical properties :
#
#
# Convention : Reuss Voigt Hill
#
# Bulk Modulus (GPa) = 17.43072 18.69328 18.06200
# Shear Modulus (GPa) = 5.85899 20.61357 13.23628
#
# Velocity S-wave (km/s) = 1.62849 3.05458 2.44770
# Velocity P-wave (km/s) = 3.38020 4.57186 4.02043
#
# Compressibility (1/GPa) = 0.05736999
#
# Stress axis : x y z
#
# Youngs Moduli (GPa) = 81.22696 62.41435 51.53714
#
# Poissons Ratio (x) = -0.12430 0.06661
# Poissons Ratio (y) = -0.16177 -0.21221
# Poissons Ratio (z) = 0.10499 -0.25700
#
# Static dielectric constant tensor:
#      x y z
#    x 1.764050 0.000000 0.000000 
#    y 0.000000 1.848240 0.000000 
#    z 0.000000 0.000000 1.881900 
# 
# From -- ./inp_files/33426.got.cif
#   From: 2010.05.17/outbox.cif.g08.bks.cpg/sg72_17_cif.got.tgz:33426.got - 2010.06.03 17:03:01.
