data_PCOD9526236
_publ_section_title
;
Structure prediction by ZEFSAII (Michael W. Deem and Ramdas Pophale) SiO2 
 PCOD9526236
Probable space group: I B A M
;
_chemical_formula_sum "Si O2"
_cell_formula_units_Z 52
_cell_length_a 21.747362
_cell_length_b 7.345576
_cell_length_c 17.026367
_cell_angle_alpha 90.000000
_cell_angle_beta 90.000000
_cell_angle_gamma 90.000000
_cell_volume 2719.909353
_symmetry_space_group_name_H-M "I B A M"
_symmetry_group_IT_number 72
_symmetry_cell_setting 'orthorhombic'
loop_
_space_group_symop_operation_xyz
x,y,z
-x,-y,z
x,-y,1/2-z
-x,y,1/2-z
-x,-y,-z
x,y,-z
-x,y,1/2+z
x,-y,1/2+z
1/2+x,1/2+y,1/2+z
1/2-x,1/2-y,1/2+z
1/2+x,1/2-y,-z
1/2-x,1/2+y,-z
1/2-x,1/2-y,1/2-z
1/2+x,1/2+y,1/2-z
1/2-x,1/2+y,z
1/2+x,1/2-y,z
loop_
_atom_site_type_symbol
_atom_site_label
_atom_site_fract_x
_atom_site_fract_y
_atom_site_fract_z
Si Si1 0.816687 0.233506 0.408060
Si Si2 0.906727 0.690378 0.781299
Si Si3 0.500000 0.500000 0.750000
Si Si4 0.803528 0.120609 0.176129
O O1 0.815041 0.267973 0.500000
O O2 0.868730 0.342147 0.361033
O O3 0.751145 0.278027 0.368059
O O4 0.829769 0.023536 0.386204
O O5 0.932123 0.500000 0.750000
O O6 0.856493 0.760480 0.716880
O O7 0.954817 0.855522 0.792768
O O8 0.778708 0.000000 0.250000
#
# Coordination Sequence:
#
# PCOD9526236 Si02
#       4
#    16  16   4  16
#     4  11  20  34  58  93 129 157 192 253 317 362
#     4  11  22  40  65  88 118 159 212 252 293 359
#     4  12  22  44  66  90 112 168 220 246 288 346
#     4  10  19  35  56  88 126 160 201 249 300 364
#
# _framework density 19.118283999999999
#
# number of rings (size 3 to 8) (size 9 to 14) (size 15 to 20)
#    0.000    1.231    4.615    7.846    0.000    0.000 
#    0.000    2.308    0.000    1.846    0.000    0.000 
#    0.000    0.000    0.000    0.000    0.000    0.000 
#
# Total GULP energy -144934.486967 kJ/mol
# GULP energy per Si atom -5574.403345 kJ/mol
# Density = 1.907477 g / cm^3
# Si number density = 19.118284 Si / 1000 Ang^3
#
#
#
# Elastic Constant Matrix: (Units=GPa)
#
#
# Indices 1 2 3 4 5 6 
#
# 1 98.5204 31.0235 54.6685 0.0000 0.0000 0.0000
# 2 31.0235 94.9393 43.7507 0.0000 0.0000 0.0000
# 3 54.6685 43.7507 115.0132 0.0000 0.0000 0.0000
# 4 0.0000 0.0000 0.0000 7.9518 0.0000 0.0000
# 5 0.0000 0.0000 0.0000 0.0000 -1.9608 0.0000
# 6 0.0000 0.0000 0.0000 0.0000 0.0000 14.1550
#
#
#
# Elastic Compliance Matrix: (Units=1/GPa)
#
#
# Indices 1 2 3 4 5 6 
#
# 1 0.014045 -0.001835 -0.005978 0.000000 0.000000 0.000000
# 2 -0.001835 0.013012 -0.004078 0.000000 0.000000 0.000000
# 3 -0.005978 -0.004078 0.013087 0.000000 0.000000 0.000000
# 4 0.000000 0.000000 0.000000 0.125758 0.000000 0.000000
# 5 0.000000 0.000000 0.000000 0.000000 -0.509989 0.000000
# 6 0.000000 0.000000 0.000000 0.000000 0.000000 0.070646
#
#
# Mechanical properties :
#
#
# Convention : Reuss Voigt Hill
#
# Bulk Modulus (GPa) = 61.11187 63.03983 62.07585
# Shear Modulus (GPa) = -20.47455 15.96454 -2.25500
#
# Velocity S-wave (km/s) = -3.27607 2.89284 -1.08723
# Velocity P-wave (km/s) = 4.21003 6.64855 5.56451
#
# Compressibility (1/GPa) = 0.01636343
#
# Stress axis : x y z
#
# Youngs Moduli (GPa) = 71.19911 76.85445 76.41020
#
# Poissons Ratio (x) = 0.14100 0.45679
# Poissons Ratio (y) = 0.13063 0.31156
# Poissons Ratio (z) = 0.42563 0.31337
#
# Static dielectric constant tensor:
#      x y z
#    x 1.708790 0.000000 0.000000 
#    y 0.000000 1.774180 0.000000 
#    z 0.000000 0.000000 1.636720 
# 
# From -- ./inp_files/18281.got.cif
#   From: 2010.05.17/outbox.cif.g08.bks.cpg/sg72_10_cif.got.tgz:18281.got - 2010.06.03 17:03:01.
