data_PCOD9526337
_publ_section_title
;
Structure prediction by ZEFSAII (Michael W. Deem and Ramdas Pophale) SiO2 
 PCOD9526337
Probable space group: I B A M
;
_chemical_formula_sum "Si O2"
_cell_formula_units_Z 116
_cell_length_a 23.773097
_cell_length_b 27.357985
_cell_length_c 8.405092
_cell_angle_alpha 90.000000
_cell_angle_beta 90.000000
_cell_angle_gamma 90.000000
_cell_volume 5466.537617
_symmetry_space_group_name_H-M "I B A M"
_symmetry_group_IT_number 72
_symmetry_cell_setting 'orthorhombic'
loop_
_space_group_symop_operation_xyz
x,y,z
-x,-y,z
x,-y,1/2-z
-x,y,1/2-z
-x,-y,-z
x,y,-z
-x,y,1/2+z
x,-y,1/2+z
1/2+x,1/2+y,1/2+z
1/2-x,1/2-y,1/2+z
1/2+x,1/2-y,-z
1/2-x,1/2+y,-z
1/2-x,1/2-y,1/2-z
1/2+x,1/2+y,1/2-z
1/2-x,1/2+y,z
1/2+x,1/2-y,z
loop_
_atom_site_type_symbol
_atom_site_label
_atom_site_fract_x
_atom_site_fract_y
_atom_site_fract_z
Si Si1 0.783930 0.597179 0.188538
Si Si2 0.437925 0.808471 0.193035
Si Si3 0.406299 0.083599 0.312212
Si Si4 0.384062 0.710412 0.192810
Si Si5 0.167022 0.054688 0.189499
Si Si6 0.258234 0.304872 0.690651
Si Si7 0.000000 0.500000 0.750000
Si Si8 0.940411 0.115548 0.691885
O O1 0.842888 0.574447 0.250067
O O2 0.727724 0.575564 0.263446
O O3 0.781225 0.655111 0.226981
O O4 0.780149 0.589791 0.000000
O O5 0.500000 0.794713 0.250000
O O6 0.425742 0.863549 0.253153
O O7 0.395817 0.765542 0.248705
O O8 0.436887 0.809458 0.000000
O O9 0.398917 0.090987 0.500000
O O10 0.452651 0.041058 0.299131
O O11 0.323818 0.687191 0.233603
O O12 0.430736 0.671655 0.244947
O O13 0.384445 0.712745 0.000000
O O14 0.113372 0.085108 0.250011
O O15 0.162769 0.000000 0.250000
O O16 0.164306 0.056017 0.000000
O O17 0.251717 0.308379 0.500000
O O18 0.250000 0.250000 0.750000
O O19 0.940126 0.115067 0.500000
O O20 0.000000 0.096494 0.750000
#
# Coordination Sequence:
#
# PCOD9526337 Si02
#       8
#    16  16  16  16  16  16   4  16
#     4  11  23  42  66  96 130 170 219 272 331 396
#     4  10  19  36  58  84 120 160 203 256 317 379
#     4  10  23  41  62  90 125 165 211 269 334 391
#     4   9  18  35  59  84 123 168 203 255 320 381
#     4  11  24  44  66  93 129 169 215 270 328 391
#     4  11  21  38  62  93 132 174 217 264 325 391
#     4  12  22  44  68  90 124 172 224 272 332 404
#     4  10  21  39  62  91 126 166 212 258 316 381
#
# _framework density 21.220013000000002
#
# number of rings (size 3 to 8) (size 9 to 14) (size 15 to 20)
#    0.000    1.655    2.069    2.690    0.966    3.586 
#    0.000    7.586    0.000    0.000    0.000    0.000 
#    0.000    0.000    0.000    0.000    0.000    0.000 
#
# Total GULP energy -323406.131011 kJ/mol
# GULP energy per Si atom -5575.967776 kJ/mol
# Density = 2.117172 g / cm^3
# Si number density = 21.220013 Si / 1000 Ang^3
#
#
#
# Elastic Constant Matrix: (Units=GPa)
#
#
# Indices 1 2 3 4 5 6 
#
# 1 126.9709 23.8133 16.5596 0.0000 0.0000 0.0000
# 2 23.8133 84.2193 9.9977 0.0000 0.0000 0.0000
# 3 16.5596 9.9977 15.5600 0.0000 0.0000 0.0000
# 4 0.0000 0.0000 0.0000 20.2671 0.0000 0.0000
# 5 0.0000 0.0000 0.0000 0.0000 22.3350 0.0000
# 6 0.0000 0.0000 0.0000 0.0000 0.0000 32.2647
#
#
#
# Elastic Compliance Matrix: (Units=1/GPa)
#
#
# Indices 1 2 3 4 5 6 
#
# 1 0.009336 -0.001581 -0.008920 0.000000 0.000000 0.000000
# 2 -0.001581 0.013122 -0.006749 0.000000 0.000000 0.000000
# 3 -0.008920 -0.006749 0.078096 0.000000 0.000000 0.000000
# 4 0.000000 0.000000 0.000000 0.049341 0.000000 0.000000
# 5 0.000000 0.000000 0.000000 0.000000 0.044773 0.000000
# 6 0.000000 0.000000 0.000000 0.000000 0.000000 0.030994
#
#
# Mechanical properties :
#
#
# Convention : Reuss Voigt Hill
#
# Bulk Modulus (GPa) = 15.13882 36.38793 25.76337
# Shear Modulus (GPa) = 17.71931 26.73199 22.22565
#
# Velocity S-wave (km/s) = 2.89282 3.55315 3.23985
# Velocity P-wave (km/s) = 4.27874 5.83252 5.11497
#
# Compressibility (1/GPa) = 0.06605533
#
# Stress axis : x y z
#
# Youngs Moduli (GPa) = 107.11675 76.20851 12.80472
#
# Poissons Ratio (x) = 0.12047 0.11421
# Poissons Ratio (y) = 0.16933 0.08642
# Poissons Ratio (z) = 0.95544 0.51431
#
# Static dielectric constant tensor:
#      x y z
#    x 1.809390 0.000000 0.000000 
#    y 0.000000 1.790500 0.000000 
#    z 0.000000 0.000000 1.737810 
# 
# From -- ./inp_files/7325.got.cif
#   From: 2010.05.17/outbox.cif.g08.bks.cpg/sg72_4_cif.got.tgz:7325.got - 2010.06.03 17:03:01.
