data_PCOD9526931
_publ_section_title
;
Structure prediction by ZEFSAII (Michael W. Deem and Ramdas Pophale) SiO2 
 PCOD9526931
Probable space group: I B A M
;
_chemical_formula_sum "Si O2"
_cell_formula_units_Z 104
_cell_length_a 27.663721
_cell_length_b 22.263185
_cell_length_c 9.021716
_cell_angle_alpha 90.000000
_cell_angle_beta 90.000000
_cell_angle_gamma 90.000000
_cell_volume 5556.317351
_symmetry_space_group_name_H-M "I B A M"
_symmetry_group_IT_number 72
_symmetry_cell_setting 'orthorhombic'
loop_
_space_group_symop_operation_xyz
x,y,z
-x,-y,z
x,-y,1/2-z
-x,y,1/2-z
-x,-y,-z
x,y,-z
-x,y,1/2+z
x,-y,1/2+z
1/2+x,1/2+y,1/2+z
1/2-x,1/2-y,1/2+z
1/2+x,1/2-y,-z
1/2-x,1/2+y,-z
1/2-x,1/2-y,1/2-z
1/2+x,1/2+y,1/2-z
1/2-x,1/2+y,z
1/2+x,1/2-y,z
loop_
_atom_site_type_symbol
_atom_site_label
_atom_site_fract_x
_atom_site_fract_y
_atom_site_fract_z
Si Si1 0.148235 0.883853 0.669762
Si Si2 0.448789 0.659118 0.323958
Si Si3 0.297323 0.500000 0.750000
Si Si4 0.797141 0.220832 0.176788
Si Si5 0.551086 0.196183 0.323192
Si Si6 0.299680 0.943252 0.165487
Si Si7 0.147206 0.674738 0.321528
O O1 0.143919 0.863426 0.500000
O O2 0.096934 0.874053 0.750334
O O3 0.187165 0.842147 0.753443
O O4 0.168369 0.951761 0.671928
O O5 0.500000 0.641922 0.250000
O O6 0.449656 0.647675 0.500000
O O7 0.443332 0.731262 0.302788
O O8 0.257626 0.541576 0.665211
O O9 0.750000 0.250000 0.250000
O O10 0.838183 0.266993 0.228217
O O11 0.792273 0.216521 0.000000
O O12 0.500000 0.180497 0.250000
O O13 0.552811 0.184701 0.500000
O O14 0.593163 0.162531 0.233188
O O15 0.315825 0.878605 0.223053
O O16 0.321398 0.000000 0.250000
O O17 0.318091 0.944456 0.000000
O O18 0.150175 0.684944 0.500000
#
# Coordination Sequence:
#
# PCOD9526931 Si02
#       7
#    16  16   8  16  16  16  16
#     4  12  24  40  64  90 120 161 205 254 308 364
#     4  10  21  38  61  89 123 160 199 249 305 364
#     4  10  24  42  63  84 117 160 212 248 298 358
#     4  12  25  39  57  86 123 160 199 252 308 363
#     4  10  20  35  58  90 124 161 197 242 301 364
#     4   9  21  39  60  85 116 158 202 246 293 350
#     4  11  21  37  61  90 123 158 199 248 302 363
#
# _framework density 18.717431999999999
#
# number of rings (size 3 to 8) (size 9 to 14) (size 15 to 20)
#    0.462    0.923    1.538    4.615    0.000    6.154 
#    0.000    0.385    0.000    2.308    0.000    3.231 
#    0.000    0.000    0.000    0.000    0.000    0.000 
#
# Total GULP energy -289868.032583 kJ/mol
# GULP energy per Si atom -5574.385242 kJ/mol
# Density = 1.867483 g / cm^3
# Si number density = 18.717432 Si / 1000 Ang^3
#
#
#
# Elastic Constant Matrix: (Units=GPa)
#
#
# Indices 1 2 3 4 5 6 
#
# 1 131.1964 30.8188 47.1039 0.0000 0.0000 0.0000
# 2 30.8188 82.1898 35.4194 0.0000 0.0000 0.0000
# 3 47.1039 35.4194 119.7667 0.0000 0.0000 0.0000
# 4 0.0000 0.0000 0.0000 21.8974 0.0000 0.0000
# 5 0.0000 0.0000 0.0000 0.0000 28.0250 0.0000
# 6 0.0000 0.0000 0.0000 0.0000 0.0000 27.6117
#
#
#
# Elastic Compliance Matrix: (Units=1/GPa)
#
#
# Indices 1 2 3 4 5 6 
#
# 1 0.009200 -0.002167 -0.002978 0.000000 0.000000 0.000000
# 2 -0.002167 0.014454 -0.003423 0.000000 0.000000 0.000000
# 3 -0.002978 -0.003423 0.010533 0.000000 0.000000 0.000000
# 4 0.000000 0.000000 0.000000 0.045668 0.000000 0.000000
# 5 0.000000 0.000000 0.000000 0.000000 0.035682 0.000000
# 6 0.000000 0.000000 0.000000 0.000000 0.000000 0.036217
#
#
# Mechanical properties :
#
#
# Convention : Reuss Voigt Hill
#
# Bulk Modulus (GPa) = 58.63824 62.20413 60.42118
# Shear Modulus (GPa) = 28.64147 30.16087 29.40117
#
# Velocity S-wave (km/s) = 3.91602 4.01855 3.96762
# Velocity P-wave (km/s) = 7.20022 7.40521 7.30343
#
# Compressibility (1/GPa) = 0.01705372
#
# Stress axis : x y z
#
# Youngs Moduli (GPa) = 108.69349 69.18359 94.94105
#
# Poissons Ratio (x) = 0.14989 0.28270
# Poissons Ratio (y) = 0.23549 0.32494
# Poissons Ratio (z) = 0.32365 0.23678
#
# Static dielectric constant tensor:
#      x y z
#    x 1.711590 0.000000 0.000000 
#    y 0.000000 1.680120 0.000000 
#    z 0.000000 0.000000 1.635420 
# 
# From -- ./inp_files/9215.got.cif
#   From: 2010.05.17/outbox.cif.g08.bks.cpg/sg72_5_cif.got.tgz:9215.got - 2010.06.03 17:03:01.
