data_PCOD9526039
_publ_section_title
;
Structure prediction by ZEFSAII (Michael W. Deem and Ramdas Pophale) SiO2 
 PCOD9526039
Probable space group: I B A M
;
_chemical_formula_sum "Si O2"
_cell_formula_units_Z 64
_cell_length_a 13.169799
_cell_length_b 14.758553
_cell_length_c 19.466008
_cell_angle_alpha 90.000000
_cell_angle_beta 90.000000
_cell_angle_gamma 90.000000
_cell_volume 3783.553013
_symmetry_space_group_name_H-M "I B A M"
_symmetry_group_IT_number 72
_symmetry_cell_setting 'orthorhombic'
loop_
_space_group_symop_operation_xyz
x,y,z
-x,-y,z
x,-y,1/2-z
-x,y,1/2-z
-x,-y,-z
x,y,-z
-x,y,1/2+z
x,-y,1/2+z
1/2+x,1/2+y,1/2+z
1/2-x,1/2-y,1/2+z
1/2+x,1/2-y,-z
1/2-x,1/2+y,-z
1/2-x,1/2-y,1/2-z
1/2+x,1/2+y,1/2-z
1/2-x,1/2+y,z
1/2+x,1/2-y,z
loop_
_atom_site_type_symbol
_atom_site_label
_atom_site_fract_x
_atom_site_fract_y
_atom_site_fract_z
Si Si1 0.693769 0.640850 0.819509
Si Si2 0.491180 0.391714 0.921099
Si Si3 0.629046 0.280204 0.173672
Si Si4 0.671199 0.000000 0.750000
Si Si5 0.000000 0.641054 0.250000
O O1 0.605972 0.631451 0.874629
O O2 0.647842 0.665275 0.744541
O O3 0.769533 0.722465 0.839460
O O4 0.758751 0.549151 0.806448
O O5 0.500000 0.500000 0.919840
O O6 0.588172 0.344990 0.885309
O O7 0.480462 0.362125 0.000000
O O8 0.543173 0.205370 0.190834
O O9 0.593782 0.078710 0.725432
#
# Coordination Sequence:
#
# PCOD9526039 Si02
#       5
#    16  16  16   8   8
#     4  10  19  33  57  83 105 136 176 222 264 310
#     4  11  23  37  52  75 110 147 178 214 261 313
#     4  10  19  34  57  80 106 135 179 220 266 310
#     4   9  18  28  53  84 106 130 167 218 271 310
#     4   9  16  32  51  80 110 130 163 224 268 311
#
# _framework density 16.915317999999999
#
# number of rings (size 3 to 8) (size 9 to 14) (size 15 to 20)
#    0.000    2.000    2.500    1.500    0.000    2.000 
#    0.000    0.000    0.000    0.000    0.000    7.000 
#    0.000    0.000    0.000    0.000    0.000    0.000 
#
# Total GULP energy -178419.109647 kJ/mol
# GULP energy per Si atom -5575.597176 kJ/mol
# Density = 1.687682 g / cm^3
# Si number density = 16.915318 Si / 1000 Ang^3
#
#
#
# Elastic Constant Matrix: (Units=GPa)
#
#
# Indices 1 2 3 4 5 6 
#
# 1 86.4991 28.8687 60.8401 0.0000 0.0000 0.0000
# 2 28.8687 74.0057 42.2576 0.0000 0.0000 0.0000
# 3 60.8401 42.2576 104.3028 0.0000 0.0000 0.0000
# 4 0.0000 0.0000 0.0000 20.2182 0.0000 0.0000
# 5 0.0000 0.0000 0.0000 0.0000 -2.7478 0.0000
# 6 0.0000 0.0000 0.0000 0.0000 0.0000 28.2329
#
#
#
# Elastic Compliance Matrix: (Units=1/GPa)
#
#
# Indices 1 2 3 4 5 6 
#
# 1 0.019725 -0.001463 -0.010913 0.000000 0.000000 0.000000
# 2 -0.001463 0.017688 -0.006313 0.000000 0.000000 0.000000
# 3 -0.010913 -0.006313 0.018510 0.000000 0.000000 0.000000
# 4 0.000000 0.000000 0.000000 0.049460 0.000000 0.000000
# 5 0.000000 0.000000 0.000000 0.000000 -0.363924 0.000000
# 6 0.000000 0.000000 0.000000 0.000000 0.000000 0.035420
#
#
# Mechanical properties :
#
#
# Convention : Reuss Voigt Hill
#
# Bulk Modulus (GPa) = 53.92022 58.74894 56.33458
# Shear Modulus (GPa) = -27.84549 17.99673 -4.92438
#
# Velocity S-wave (km/s) = -4.06170 3.26533 -1.70807
# Velocity P-wave (km/s) = 3.15423 7.00165 5.43012
#
# Compressibility (1/GPa) = 0.01854592
#
# Stress axis : x y z
#
# Youngs Moduli (GPa) = 50.69791 56.53623 54.02379
#
# Poissons Ratio (x) = 0.08272 0.58954
# Poissons Ratio (y) = 0.07418 0.34103
# Poissons Ratio (z) = 0.55325 0.35689
#
# Static dielectric constant tensor:
#      x y z
#    x 1.602880 0.000000 0.000000 
#    y 0.000000 1.608760 0.000000 
#    z 0.000000 0.000000 1.522370 
# 
# From -- ./inp_files/30241.got.cif
#   From: 2010.05.17/outbox.cif.g08.bks.cpg/sg72_16_cif.got.tgz:30241.got - 2010.06.03 17:03:01.
