data_PCOD9526811
_publ_section_title
;
Structure prediction by ZEFSAII (Michael W. Deem and Ramdas Pophale) SiO2 
 PCOD9526811
Probable space group: I B A M
;
_chemical_formula_sum "Si O2"
_cell_formula_units_Z 104
_cell_length_a 31.794580
_cell_length_b 20.075260
_cell_length_c 9.696337
_cell_angle_alpha 90.000000
_cell_angle_beta 90.000000
_cell_angle_gamma 90.000000
_cell_volume 6189.021227
_symmetry_space_group_name_H-M "I B A M"
_symmetry_group_IT_number 72
_symmetry_cell_setting 'orthorhombic'
loop_
_space_group_symop_operation_xyz
x,y,z
-x,-y,z
x,-y,1/2-z
-x,y,1/2-z
-x,-y,-z
x,y,-z
-x,y,1/2+z
x,-y,1/2+z
1/2+x,1/2+y,1/2+z
1/2-x,1/2-y,1/2+z
1/2+x,1/2-y,-z
1/2-x,1/2+y,-z
1/2-x,1/2-y,1/2-z
1/2+x,1/2+y,1/2-z
1/2-x,1/2+y,z
1/2+x,1/2-y,z
loop_
_atom_site_type_symbol
_atom_site_label
_atom_site_fract_x
_atom_site_fract_y
_atom_site_fract_z
Si Si1 0.218047 0.796861 0.336421
Si Si2 0.957973 0.244832 0.836800
Si Si3 0.338210 0.111684 0.349064
Si Si4 0.963477 0.404225 0.849416
Si Si5 0.236387 0.567613 0.836725
Si Si6 0.606801 0.000000 0.250000
Si Si7 0.376694 0.745594 0.162028
O O1 0.223404 0.781736 0.500000
O O2 0.250000 0.750000 0.250000
O O3 0.228963 0.874680 0.317692
O O4 0.169247 0.783657 0.301472
O O5 0.955967 0.325570 0.831728
O O6 0.915187 0.223261 0.758588
O O7 0.000000 0.225528 0.750000
O O8 0.960013 0.226293 0.000000
O O9 0.317615 0.121113 0.500000
O O10 0.305129 0.102314 0.227041
O O11 0.364413 0.043983 0.348255
O O12 0.368427 0.174772 0.327653
O O13 0.922267 0.447328 0.827533
O O14 0.000000 0.425595 0.750000
O O15 0.980791 0.414593 0.000000
O O16 0.243543 0.500000 0.750000
O O17 0.231886 0.553400 0.000000
O O18 0.385720 0.731298 0.000000
#
# Coordination Sequence:
#
# PCOD9526811 Si02
#       7
#    16  16  16  16  16   8  16
#     4  10  21  36  56  81 108 141 181 224 269 320
#     4  10  20  35  52  72  96 130 171 217 268 316
#     4  11  22  33  50  72  98 133 173 219 269 313
#     4  10  22  35  46  61  86 121 164 213 260 305
#     4  11  23  37  54  77 108 142 178 220 267 318
#     4  12  21  32  46  68  92 122 172 218 261 306
#     4  10  20  36  54  75 102 133 172 219 267 315
#
# _framework density 16.80395
#
# number of rings (size 3 to 8) (size 9 to 14) (size 15 to 20)
#    0.000    1.538    3.846    1.615    0.000    4.923 
#    0.000    0.000    0.000    0.000    0.000    0.000 
#    0.000    0.615    0.000    7.077    0.000    2.154 
#
# Total GULP energy -289959.059768 kJ/mol
# GULP energy per Si atom -5576.135765 kJ/mol
# Density = 1.676570 g / cm^3
# Si number density = 16.803950 Si / 1000 Ang^3
#
#
#
# Elastic Constant Matrix: (Units=GPa)
#
#
# Indices 1 2 3 4 5 6 
#
# 1 113.7024 18.2454 71.8755 0.0000 0.0000 0.0000
# 2 18.2454 29.6311 28.8851 0.0000 0.0000 0.0000
# 3 71.8755 28.8851 122.3022 0.0000 0.0000 0.0000
# 4 0.0000 0.0000 0.0000 15.7799 0.0000 0.0000
# 5 0.0000 0.0000 0.0000 0.0000 15.0710 0.0000
# 6 0.0000 0.0000 0.0000 0.0000 0.0000 29.2627
#
#
#
# Elastic Compliance Matrix: (Units=1/GPa)
#
#
# Indices 1 2 3 4 5 6 
#
# 1 0.014007 -0.000780 -0.008048 0.000000 0.000000 0.000000
# 2 -0.000780 0.043886 -0.009906 0.000000 0.000000 0.000000
# 3 -0.008048 -0.009906 0.015246 0.000000 0.000000 0.000000
# 4 0.000000 0.000000 0.000000 0.063372 0.000000 0.000000
# 5 0.000000 0.000000 0.000000 0.000000 0.066353 0.000000
# 6 0.000000 0.000000 0.000000 0.000000 0.000000 0.034173
#
#
# Mechanical properties :
#
#
# Convention : Reuss Voigt Hill
#
# Bulk Modulus (GPa) = 28.03449 55.96087 41.99768
# Shear Modulus (GPa) = 17.45844 21.79803 19.62824
#
# Velocity S-wave (km/s) = 3.22677 3.60557 3.42142
# Velocity P-wave (km/s) = 5.53193 7.12096 6.37614
#
# Compressibility (1/GPa) = 0.03567035
#
# Stress axis : x y z
#
# Youngs Moduli (GPa) = 71.39131 22.78657 65.59226
#
# Poissons Ratio (x) = 0.01777 0.52787
# Poissons Ratio (y) = 0.05568 0.64979
# Poissons Ratio (z) = 0.57454 0.22573
#
# Static dielectric constant tensor:
#      x y z
#    x 1.582760 0.000000 0.000000 
#    y 0.000000 1.568960 0.000000 
#    z 0.000000 0.000000 1.592350 
# 
# From -- ./inp_files/9174.got.cif
#   From: 2010.05.17/outbox.cif.g08.bks.cpg/sg72_5_cif.got.tgz:9174.got - 2010.06.03 17:03:01.
