data_PCOD9526540
_publ_section_title
;
Structure prediction by ZEFSAII (Michael W. Deem and Ramdas Pophale) SiO2 
 PCOD9526540
Probable space group: I B A M
;
_chemical_formula_sum "Si O2"
_cell_formula_units_Z 96
_cell_length_a 14.135204
_cell_length_b 22.169376
_cell_length_c 16.244159
_cell_angle_alpha 90.000000
_cell_angle_beta 90.000000
_cell_angle_gamma 90.000000
_cell_volume 5090.410214
_symmetry_space_group_name_H-M "I B A M"
_symmetry_group_IT_number 72
_symmetry_cell_setting 'orthorhombic'
loop_
_space_group_symop_operation_xyz
x,y,z
-x,-y,z
x,-y,1/2-z
-x,y,1/2-z
-x,-y,-z
x,y,-z
-x,y,1/2+z
x,-y,1/2+z
1/2+x,1/2+y,1/2+z
1/2-x,1/2-y,1/2+z
1/2+x,1/2-y,-z
1/2-x,1/2+y,-z
1/2-x,1/2-y,1/2-z
1/2+x,1/2+y,1/2-z
1/2-x,1/2+y,z
1/2+x,1/2-y,z
loop_
_atom_site_type_symbol
_atom_site_label
_atom_site_fract_x
_atom_site_fract_y
_atom_site_fract_z
Si Si1 0.398886 0.070583 0.500000
Si Si2 0.093686 0.850411 0.707036
Si Si3 0.020116 0.246927 0.909373
Si Si4 0.125579 0.429883 0.500000
Si Si5 0.362836 0.150093 0.343591
Si Si6 0.293306 0.873872 0.669434
Si Si7 0.178503 0.232487 0.651458
O O1 0.512533 0.078207 0.500000
O O2 0.366168 0.102301 0.416452
O O3 0.363833 0.001964 0.500000
O O4 0.064292 0.814370 0.625516
O O5 0.184441 0.891682 0.689290
O O6 0.127236 0.797715 0.769913
O O7 0.000000 0.877851 0.750000
O O8 0.049052 0.303728 0.852641
O O9 0.908070 0.236504 0.911286
O O10 0.056968 0.261111 0.000000
O O11 0.167797 0.401777 0.415306
O O12 0.353536 0.119325 0.253806
O O13 0.270046 0.191403 0.360895
O O14 0.290176 0.801180 0.661104
#
# Coordination Sequence:
#
# PCOD9526540 Si02
#       7
#     8  16  16   8  16  16  16
#     4  11  26  45  58  85 119 160 221 264 291 360
#     4   9  18  34  52  85 129 152 190 236 294 383
#     4  11  20  28  49  89 124 161 187 232 298 368
#     4  11  28  43  60  87 117 160 223 266 295 349
#     4  11  21  38  61  84 125 166 192 245 308 369
#     4  11  21  38  60  89 124 164 196 253 308 368
#     4  10  20  32  53  88 122 155 195 231 299 383
#
# _framework density 18.858989999999999
#
# number of rings (size 3 to 8) (size 9 to 14) (size 15 to 20)
#    0.000    1.500    4.167    2.000    3.500    2.667 
#    0.000    1.667    0.000    0.000    0.000   30.333 
#    0.000    0.000    0.000    0.000    0.000    0.000 
#
# Total GULP energy -267619.564681 kJ/mol
# GULP energy per Si atom -5575.407598 kJ/mol
# Density = 1.881607 g / cm^3
# Si number density = 18.858990 Si / 1000 Ang^3
#
#
#
# Elastic Constant Matrix: (Units=GPa)
#
#
# Indices 1 2 3 4 5 6 
#
# 1 67.5111 26.6114 45.6240 0.0000 0.0000 0.0000
# 2 26.6114 54.9986 46.9286 0.0000 0.0000 0.0000
# 3 45.6240 46.9286 156.7715 0.0000 0.0000 0.0000
# 4 0.0000 0.0000 0.0000 13.7388 0.0000 0.0000
# 5 0.0000 0.0000 0.0000 0.0000 23.5755 0.0000
# 6 0.0000 0.0000 0.0000 0.0000 0.0000 15.9281
#
#
#
# Elastic Compliance Matrix: (Units=1/GPa)
#
#
# Indices 1 2 3 4 5 6 
#
# 1 0.019946 -0.006310 -0.003916 0.000000 0.000000 0.000000
# 2 -0.006310 0.026415 -0.006071 0.000000 0.000000 0.000000
# 3 -0.003916 -0.006071 0.009336 0.000000 0.000000 0.000000
# 4 0.000000 0.000000 0.000000 0.072787 0.000000 0.000000
# 5 0.000000 0.000000 0.000000 0.000000 0.042417 0.000000
# 6 0.000000 0.000000 0.000000 0.000000 0.000000 0.062782
#
#
# Mechanical properties :
#
#
# Convention : Reuss Voigt Hill
#
# Bulk Modulus (GPa) = 43.28290 57.51211 50.39751
# Shear Modulus (GPa) = 18.24967 21.32294 19.78630
#
# Velocity S-wave (km/s) = 3.11415 3.36616 3.24260
# Velocity P-wave (km/s) = 5.99426 6.75797 6.38754
#
# Compressibility (1/GPa) = 0.02310381
#
# Stress axis : x y z
#
# Youngs Moduli (GPa) = 50.13565 37.85665 107.11586
#
# Poissons Ratio (x) = 0.23886 0.41946
# Poissons Ratio (y) = 0.31633 0.65031
# Poissons Ratio (z) = 0.19633 0.22983
#
# Static dielectric constant tensor:
#      x y z
#    x 1.740490 0.000000 0.000000 
#    y 0.000000 1.613790 0.000000 
#    z 0.000000 0.000000 1.697350 
# 
# From -- ./inp_files/22043.got.cif
#   From: 2010.05.17/outbox.cif.g08.bks.cpg/sg72_12_cif.got.tgz:22043.got - 2010.06.03 17:03:01.
