data_PCOD9526073
_publ_section_title
;
Structure prediction by ZEFSAII (Michael W. Deem and Ramdas Pophale) SiO2 
 PCOD9526073
Probable space group: I B A M
;
_chemical_formula_sum "Si O2"
_cell_formula_units_Z 128
_cell_length_a 22.757506
_cell_length_b 16.566135
_cell_length_c 19.431433
_cell_angle_alpha 90.000000
_cell_angle_beta 90.000000
_cell_angle_gamma 90.000000
_cell_volume 7325.726347
_symmetry_space_group_name_H-M "I B A M"
_symmetry_group_IT_number 72
_symmetry_cell_setting 'orthorhombic'
loop_
_space_group_symop_operation_xyz
x,y,z
-x,-y,z
x,-y,1/2-z
-x,y,1/2-z
-x,-y,-z
x,y,-z
-x,y,1/2+z
x,-y,1/2+z
1/2+x,1/2+y,1/2+z
1/2-x,1/2-y,1/2+z
1/2+x,1/2-y,-z
1/2-x,1/2+y,-z
1/2-x,1/2-y,1/2-z
1/2+x,1/2+y,1/2-z
1/2-x,1/2+y,z
1/2+x,1/2-y,z
loop_
_atom_site_type_symbol
_atom_site_label
_atom_site_fract_x
_atom_site_fract_y
_atom_site_fract_z
Si Si1 0.735388 0.453384 0.819448
Si Si2 0.670251 0.656722 0.579084
Si Si3 0.998957 0.404414 0.332167
Si Si4 0.698971 0.230673 0.426927
Si Si5 0.601997 0.094117 0.574731
Si Si6 0.193317 0.292750 0.718731
Si Si7 0.881924 0.304044 0.353252
Si Si8 0.184387 0.446828 0.080346
O O1 0.718137 0.500000 0.750000
O O2 0.684012 0.410950 0.863575
O O3 0.783609 0.383650 0.799257
O O4 0.766342 0.515645 0.871252
O O5 0.658820 0.630596 0.500000
O O6 0.733133 0.704048 0.576479
O O7 0.621889 0.718531 0.608172
O O8 0.058876 0.374558 0.367004
O O9 0.000000 0.500000 0.351511
O O10 0.000000 0.400886 0.250000
O O11 0.943543 0.351226 0.355436
O O12 0.690054 0.275512 0.500000
O O13 0.658720 0.150750 0.431072
O O14 0.681236 0.258729 0.350855
O O15 0.571541 0.094198 0.500000
O O16 0.628061 0.005839 0.588028
O O17 0.250000 0.250000 0.750000
O O18 0.142037 0.295288 0.775083
O O19 0.835089 0.360571 0.392555
O O20 0.200654 0.446414 0.000000
#
# Coordination Sequence:
#
# PCOD9526073 Si02
#       8
#    16  16  16  16  16  16  16  16
#     4  11  20  31  54  75 102 139 179 226 287 340
#     4  10  20  35  52  76 108 145 182 223 281 341
#     4  11  24  35  49  72 107 149 194 234 269 317
#     4   9  17  31  52  69  91 132 180 223 275 325
#     4  10  19  34  50  68  96 139 190 233 264 310
#     4  11  19  32  49  73 103 135 181 232 282 340
#     4  12  22  34  53  76 109 150 187 231 285 328
#     4  11  21  32  50  74 101 142 192 234 269 321
#
# _framework density 17.472669
#
# number of rings (size 3 to 8) (size 9 to 14) (size 15 to 20)
#    0.000    1.375    7.500    1.500    0.000    1.250 
#    0.000    0.000    0.000    0.000    0.000    0.000 
#    0.000    0.500    0.000    1.125    1.250    0.750 
#
# Total GULP energy -356492.919100 kJ/mol
# GULP energy per Si atom -5570.201861 kJ/mol
# Density = 1.743290 g / cm^3
# Si number density = 17.472669 Si / 1000 Ang^3
#
#
#
# Elastic Constant Matrix: (Units=GPa)
#
#
# Indices 1 2 3 4 5 6 
#
# 1 50.2699 24.6736 28.2927 0.0000 0.0000 0.0000
# 2 24.6736 45.2767 35.6400 0.0000 0.0000 0.0000
# 3 28.2927 35.6400 150.1511 0.0000 0.0000 0.0000
# 4 0.0000 0.0000 0.0000 14.8801 0.0000 0.0000
# 5 0.0000 0.0000 0.0000 0.0000 12.2714 0.0000
# 6 0.0000 0.0000 0.0000 0.0000 0.0000 22.1428
#
#
#
# Elastic Compliance Matrix: (Units=1/GPa)
#
#
# Indices 1 2 3 4 5 6 
#
# 1 0.027640 -0.013482 -0.002008 0.000000 0.000000 0.000000
# 2 -0.013482 0.033737 -0.005468 0.000000 0.000000 0.000000
# 3 -0.002008 -0.005468 0.008336 0.000000 0.000000 0.000000
# 4 0.000000 0.000000 0.000000 0.067204 0.000000 0.000000
# 5 0.000000 0.000000 0.000000 0.000000 0.081490 0.000000
# 6 0.000000 0.000000 0.000000 0.000000 0.000000 0.045162
#
#
# Mechanical properties :
#
#
# Convention : Reuss Voigt Hill
#
# Bulk Modulus (GPa) = 35.97323 46.99003 41.48163
# Shear Modulus (GPa) = 15.88564 20.33162 18.10863
#
# Velocity S-wave (km/s) = 3.01852 3.41489 3.22281
# Velocity P-wave (km/s) = 5.72552 6.51924 6.13523
#
# Compressibility (1/GPa) = 0.02779845
#
# Stress axis : x y z
#
# Youngs Moduli (GPa) = 36.17957 29.64098 119.95994
#
# Poissons Ratio (x) = 0.39961 0.24089
# Poissons Ratio (y) = 0.48776 0.65588
# Poissons Ratio (z) = 0.07265 0.16206
#
# Static dielectric constant tensor:
#      x y z
#    x 1.580050 0.000000 0.000000 
#    y 0.000000 1.614020 0.000000 
#    z 0.000000 0.000000 1.688200 
# 
# From -- ./inp_files/39940.got.cif
#   From: 2010.05.17/outbox.cif.g08.bks.cpg/sg72_20_cif.got.tgz:39940.got - 2010.06.03 17:03:01.
