data_PCOD9526628
_publ_section_title
;
Structure prediction by ZEFSAII (Michael W. Deem and Ramdas Pophale) SiO2 
 PCOD9526628
Probable space group: I B A M
;
_chemical_formula_sum "Si O2"
_cell_formula_units_Z 116
_cell_length_a 25.087011
_cell_length_b 27.099705
_cell_length_c 7.672562
_cell_angle_alpha 90.000000
_cell_angle_beta 90.000000
_cell_angle_gamma 90.000000
_cell_volume 5216.195860
_symmetry_space_group_name_H-M "I B A M"
_symmetry_group_IT_number 72
_symmetry_cell_setting 'orthorhombic'
loop_
_space_group_symop_operation_xyz
x,y,z
-x,-y,z
x,-y,1/2-z
-x,y,1/2-z
-x,-y,-z
x,y,-z
-x,y,1/2+z
x,-y,1/2+z
1/2+x,1/2+y,1/2+z
1/2-x,1/2-y,1/2+z
1/2+x,1/2-y,-z
1/2-x,1/2+y,-z
1/2-x,1/2-y,1/2-z
1/2+x,1/2+y,1/2-z
1/2-x,1/2+y,z
1/2+x,1/2-y,z
loop_
_atom_site_type_symbol
_atom_site_label
_atom_site_fract_x
_atom_site_fract_y
_atom_site_fract_z
Si Si1 0.394279 0.185865 0.292573
Si Si2 0.058197 0.214894 0.706222
Si Si3 0.164964 0.834696 0.207618
Si Si4 0.798745 0.574875 0.288801
Si Si5 0.000000 0.500000 0.750000
Si Si6 0.719661 0.812007 0.299383
Si Si7 0.316477 0.552411 0.206832
Si Si8 0.584555 0.925365 0.293858
O O1 0.386402 0.179991 0.500000
O O2 0.436703 0.228255 0.261649
O O3 0.336849 0.205601 0.219551
O O4 0.412319 0.131684 0.230628
O O5 0.062886 0.212853 0.500000
O O6 0.110261 0.187460 0.780872
O O7 0.000000 0.194601 0.750000
O O8 0.220425 0.810139 0.278440
O O9 0.163747 0.894072 0.231219
O O10 0.167557 0.826539 0.000000
O O11 0.800011 0.577390 0.500000
O O12 0.792318 0.629579 0.210755
O O13 0.744620 0.549598 0.227416
O O14 0.855017 0.555673 0.223516
O O15 0.043820 0.459480 0.689520
O O16 0.723110 0.795158 0.500000
O O17 0.343505 0.500000 0.250000
O O18 0.315240 0.556086 0.000000
O O19 0.569386 0.927100 0.500000
#
# Coordination Sequence:
#
# PCOD9526628 Si02
#       8
#    16  16  16  16   4  16  16  16
#     4   9  19  37  60  85 112 147 188 237 296 351
#     4  11  24  40  60  86 114 152 196 237 286 340
#     4   9  19  37  59  85 119 153 190 236 284 341
#     4   9  18  32  52  80 111 145 186 229 275 337
#     4  12  26  40  56  82 102 148 208 254 298 340
#     4   8  15  32  57  84 114 148 181 227 292 344
#     4  10  20  33  55  88 120 153 188 224 276 337
#     4  10  23  41  57  76 107 146 191 246 300 343
#
# _framework density 22.238430000000001
#
# number of rings (size 3 to 8) (size 9 to 14) (size 15 to 20)
#    0.000    2.483    0.000    2.276    1.931    6.621 
#    0.000    0.000    0.000    0.414    0.000    2.897 
#    0.000    0.000    0.000    0.000    0.000    0.000 
#
# Total GULP energy -323157.979936 kJ/mol
# GULP energy per Si atom -5571.689309 kJ/mol
# Density = 2.218781 g / cm^3
# Si number density = 22.238430 Si / 1000 Ang^3
#
#
#
# Elastic Constant Matrix: (Units=GPa)
#
#
# Indices 1 2 3 4 5 6 
#
# 1 156.1468 61.7245 11.1385 0.0000 0.0000 0.0000
# 2 61.7245 89.2369 4.2796 0.0000 0.0000 0.0000
# 3 11.1385 4.2796 67.8720 0.0000 0.0000 0.0000
# 4 0.0000 0.0000 0.0000 145.1636 0.0000 0.0000
# 5 0.0000 0.0000 0.0000 0.0000 18.9200 0.0000
# 6 0.0000 0.0000 0.0000 0.0000 0.0000 40.2320
#
#
#
# Elastic Compliance Matrix: (Units=1/GPa)
#
#
# Indices 1 2 3 4 5 6 
#
# 1 0.008892 -0.006099 -0.001075 0.000000 0.000000 0.000000
# 2 -0.006099 0.015423 0.000028 0.000000 0.000000 0.000000
# 3 -0.001075 0.000028 0.014908 0.000000 0.000000 0.000000
# 4 0.000000 0.000000 0.000000 0.006889 0.000000 0.000000
# 5 0.000000 0.000000 0.000000 0.000000 0.052854 0.000000
# 6 0.000000 0.000000 0.000000 0.000000 0.000000 0.024856
#
#
# Mechanical properties :
#
#
# Convention : Reuss Voigt Hill
#
# Bulk Modulus (GPa) = 40.10754 51.94900 46.02827
# Shear Modulus (GPa) = 34.14760 56.60399 45.37580
#
# Velocity S-wave (km/s) = 3.92283 5.05059 4.52200
# Velocity P-wave (km/s) = 6.21228 7.57773 6.92873
#
# Compressibility (1/GPa) = 0.02493297
#
# Stress axis : x y z
#
# Youngs Moduli (GPa) = 112.46396 64.83710 67.07727
#
# Poissons Ratio (x) = 0.39543 0.07209
# Poissons Ratio (y) = 0.68590 -0.00190
# Poissons Ratio (z) = 0.12086 -0.00184
#
# Static dielectric constant tensor:
#      x y z
#    x 1.936070 0.000000 0.000000 
#    y 0.000000 1.844620 0.000000 
#    z 0.000000 0.000000 1.860720 
# 
# From -- ./inp_files/7283.got.cif
#   From: 2010.05.17/outbox.cif.g08.bks.cpg/sg72_4_cif.got.tgz:7283.got - 2010.06.03 17:03:01.
