data_PCOD9526967
_publ_section_title
;
Structure prediction by ZEFSAII (Michael W. Deem and Ramdas Pophale) SiO2 
 PCOD9526967
Probable space group: I B A M
;
_chemical_formula_sum "Si O2"
_cell_formula_units_Z 96
_cell_length_a 10.296376
_cell_length_b 24.795080
_cell_length_c 17.118754
_cell_angle_alpha 90.000000
_cell_angle_beta 90.000000
_cell_angle_gamma 90.000000
_cell_volume 4370.408766
_symmetry_space_group_name_H-M "I B A M"
_symmetry_group_IT_number 72
_symmetry_cell_setting 'orthorhombic'
loop_
_space_group_symop_operation_xyz
x,y,z
-x,-y,z
x,-y,1/2-z
-x,y,1/2-z
-x,-y,-z
x,y,-z
-x,y,1/2+z
x,-y,1/2+z
1/2+x,1/2+y,1/2+z
1/2-x,1/2-y,1/2+z
1/2+x,1/2-y,-z
1/2-x,1/2+y,-z
1/2-x,1/2-y,1/2-z
1/2+x,1/2+y,1/2-z
1/2-x,1/2+y,z
1/2+x,1/2-y,z
loop_
_atom_site_type_symbol
_atom_site_label
_atom_site_fract_x
_atom_site_fract_y
_atom_site_fract_z
Si Si1 0.204557 0.689400 0.910316
Si Si2 0.089658 0.428792 0.592133
Si Si3 0.814764 0.947292 0.797089
Si Si4 0.534638 0.374641 0.910725
Si Si5 0.773212 0.807169 0.407619
Si Si6 0.885125 0.613510 0.810995
O O1 0.128807 0.634366 0.893387
O O2 0.354534 0.671325 0.904005
O O3 0.190258 0.748259 0.873602
O O4 0.169171 0.699369 0.000000
O O5 0.088821 0.439379 0.500000
O O6 0.202975 0.459537 0.638016
O O7 0.948775 0.431504 0.631748
O O8 0.928970 0.917917 0.844780
O O9 0.738878 0.908398 0.736446
O O10 0.851945 0.000000 0.750000
O O11 0.396291 0.346793 0.902543
O O12 0.547130 0.396569 0.000000
O O13 0.737254 0.803281 0.500000
O O14 0.658340 0.834953 0.360114
O O15 0.000000 0.624840 0.750000
#
# Coordination Sequence:
#
# PCOD9526967 Si02
#       6
#    16  16  16  16  16  16
#     4   8  16  31  58  88 113 153 199 246 302 350
#     4   9  18  36  61  88 119 154 204 257 293 355
#     4  10  21  40  62  82 117 166 201 245 316 375
#     4   9  19  38  62  91 120 155 210 260 296 359
#     4  10  20  35  61  90 121 159 204 253 299 353
#     4  10  22  37  55  84 125 160 199 248 303 366
#
# _framework density 21.965909
#
# number of rings (size 3 to 8) (size 9 to 14) (size 15 to 20)
#    0.000    2.667    0.000    2.000    2.333    3.667 
#    0.000   13.333    0.000    2.000    0.000    0.000 
#    0.000    0.000    0.000    0.000    0.000    0.000 
#
# Total GULP energy -267812.573141 kJ/mol
# GULP energy per Si atom -5579.428607 kJ/mol
# Density = 2.191591 g / cm^3
# Si number density = 21.965909 Si / 1000 Ang^3
#
#
#
# Elastic Constant Matrix: (Units=GPa)
#
#
# Indices 1 2 3 4 5 6 
#
# 1 53.7822 31.6087 27.2586 0.0000 0.0000 0.0000
# 2 31.6087 98.4229 45.5819 0.0000 0.0000 0.0000
# 3 27.2586 45.5819 115.1450 0.0001 0.0000 0.0000
# 4 0.0000 0.0000 0.0001 21.4972 0.0000 0.0000
# 5 0.0000 0.0000 0.0000 0.0000 -28.4516 0.0000
# 6 0.0000 0.0000 0.0000 0.0000 0.0000 12.2265
#
#
#
# Elastic Compliance Matrix: (Units=1/GPa)
#
#
# Indices 1 2 3 4 5 6 
#
# 1 0.023845 -0.006176 -0.003200 0.000000 0.000000 0.000000
# 2 -0.006176 0.014041 -0.004096 0.000000 0.000000 0.000000
# 3 -0.003200 -0.004096 0.011064 0.000000 0.000000 0.000000
# 4 0.000000 0.000000 0.000000 0.046518 0.000000 0.000000
# 5 0.000000 0.000000 0.000000 0.000000 -0.035147 0.000000
# 6 0.000000 0.000000 0.000000 0.000000 0.000000 0.081789
#
#
# Mechanical properties :
#
#
# Convention : Reuss Voigt Hill
#
# Bulk Modulus (GPa) = 45.44368 52.91651 49.18009
# Shear Modulus (GPa) = 28.34650 11.91448 20.13049
#
# Velocity S-wave (km/s) = 3.59622 2.33149 3.03056
# Velocity P-wave (km/s) = 6.16254 5.60271 5.88928
#
# Compressibility (1/GPa) = 0.02200526
#
# Stress axis : x y z
#
# Youngs Moduli (GPa) = 41.93740 71.22177 90.38473
#
# Poissons Ratio (x) = 0.43985 0.28924
# Poissons Ratio (y) = 0.25900 0.37023
# Poissons Ratio (z) = 0.13420 0.29174
#
# Static dielectric constant tensor:
#      x y z
#    x 1.852420 0.000000 0.000000 
#    y 0.000000 1.872800 0.000000 
#    z 0.000000 0.000000 1.835970 
# 
# From -- ./inp_files/29490.got.cif
#   From: 2010.05.17/outbox.cif.g08.bks.cpg/sg72_15_cif.got.tgz:29490.got - 2010.06.03 17:03:01.
