data_PCOD9526006
_publ_section_title
;
Structure prediction by ZEFSAII (Michael W. Deem and Ramdas Pophale) SiO2 
 PCOD9526006
Probable space group: I B A M
;
_chemical_formula_sum "Si O2"
_cell_formula_units_Z 96
_cell_length_a 15.361219
_cell_length_b 18.502486
_cell_length_c 14.359178
_cell_angle_alpha 90.000000
_cell_angle_beta 90.000000
_cell_angle_gamma 90.000000
_cell_volume 4081.176190
_symmetry_space_group_name_H-M "I B A M"
_symmetry_group_IT_number 72
_symmetry_cell_setting 'orthorhombic'
loop_
_space_group_symop_operation_xyz
x,y,z
-x,-y,z
x,-y,1/2-z
-x,y,1/2-z
-x,-y,-z
x,y,-z
-x,y,1/2+z
x,-y,1/2+z
1/2+x,1/2+y,1/2+z
1/2-x,1/2-y,1/2+z
1/2+x,1/2-y,-z
1/2-x,1/2+y,-z
1/2-x,1/2-y,1/2-z
1/2+x,1/2+y,1/2-z
1/2-x,1/2+y,z
1/2+x,1/2-y,z
loop_
_atom_site_type_symbol
_atom_site_label
_atom_site_fract_x
_atom_site_fract_y
_atom_site_fract_z
Si Si1 0.363886 0.142125 0.104945
Si Si2 0.537637 0.775389 0.608414
Si Si3 0.098540 0.521610 0.608014
Si Si4 0.807854 0.345176 0.296710
Si Si5 0.518664 0.388626 0.890575
Si Si6 0.642488 0.577098 0.224007
O O1 0.462654 0.166262 0.130828
O O2 0.305153 0.170931 0.187084
O O3 0.354108 0.055662 0.106763
O O4 0.347420 0.168011 0.000000
O O5 0.556743 0.783140 0.500000
O O6 0.629018 0.785950 0.659354
O O7 0.497421 0.696442 0.622236
O O8 0.098603 0.548763 0.500000
O O9 0.139222 0.581304 0.674896
O O10 0.000000 0.500000 0.632104
O O11 0.709705 0.366475 0.320662
O O12 0.437257 0.432165 0.848162
O O13 0.599764 0.399248 0.821719
O O14 0.533829 0.402882 0.000000
O O15 0.684586 0.500000 0.250000
#
# Coordination Sequence:
#
# PCOD9526006 Si02
#       6
#    16  16  16  16  16  16
#     4  10  21  35  55  89 133 178 222 259 313 397
#     4  10  22  41  64  96 130 175 227 265 324 411
#     4  10  19  33  54  87 130 176 222 261 308 387
#     4  12  23  37  66  98 137 178 214 277 339 389
#     4  10  24  48  73  92 128 176 225 286 346 398
#     4  11  26  45  69 105 132 164 235 287 340 412
#
# _framework density 23.522631000000001
#
# number of rings (size 3 to 8) (size 9 to 14) (size 15 to 20)
#    0.000    1.500    1.667    3.500    4.667    4.667 
#    0.000    0.000    0.000    0.000    0.000    0.000 
#    0.000    0.000    0.000    0.000    0.000    0.000 
#
# Total GULP energy -268198.485735 kJ/mol
# GULP energy per Si atom -5587.468453 kJ/mol
# Density = 2.346909 g / cm^3
# Si number density = 23.522631 Si / 1000 Ang^3
#
#
#
# Elastic Constant Matrix: (Units=GPa)
#
#
# Indices 1 2 3 4 5 6 
#
# 1 79.3274 -5.6575 22.0215 0.0000 0.0000 0.0000
# 2 -5.6575 61.1845 1.4728 0.0000 0.0000 0.0000
# 3 22.0215 1.4728 96.0611 0.0000 0.0000 0.0000
# 4 0.0000 0.0000 0.0000 26.4550 0.0000 0.0000
# 5 0.0000 0.0000 0.0000 0.0000 2.9355 0.0000
# 6 0.0000 0.0000 0.0000 0.0000 0.0000 20.3837
#
#
#
# Elastic Compliance Matrix: (Units=1/GPa)
#
#
# Indices 1 2 3 4 5 6 
#
# 1 0.013570 0.001330 -0.003131 0.000000 0.000000 0.000000
# 2 0.001330 0.016480 -0.000558 0.000000 0.000000 0.000000
# 3 -0.003131 -0.000558 0.011136 0.000000 0.000000 0.000000
# 4 0.000000 0.000000 0.000000 0.037800 0.000000 0.000000
# 5 0.000000 0.000000 0.000000 0.000000 0.340654 0.000000
# 6 0.000000 0.000000 0.000000 0.000000 0.000000 0.049059
#
#
# Mechanical properties :
#
#
# Convention : Reuss Voigt Hill
#
# Bulk Modulus (GPa) = 27.42016 30.24961 28.83488
# Shear Modulus (GPa) = 10.29710 24.53728 17.41719
#
# Velocity S-wave (km/s) = 2.09452 3.23326 2.72406
# Velocity P-wave (km/s) = 4.18708 5.17942 4.70946
#
# Compressibility (1/GPa) = 0.03646952
#
# Stress axis : x y z
#
# Youngs Moduli (GPa) = 73.69140 60.67805 89.79553
#
# Poissons Ratio (x) = -0.08071 0.28117
# Poissons Ratio (y) = -0.09802 0.05007
# Poissons Ratio (z) = 0.23075 0.03383
#
# Static dielectric constant tensor:
#      x y z
#    x 1.882840 0.000000 0.000000 
#    y 0.000000 1.947180 0.000000 
#    z 0.000000 0.000000 1.887330 
# 
# From -- ./inp_files/21828.got.cif
#   From: 2010.05.17/outbox.cif.g08.bks.cpg/sg72_11_cif.got.tgz:21828.got - 2010.06.03 17:03:01.
