data_PCOD9527829
_publ_section_title
;
Structure prediction by ZEFSAII (Michael W. Deem and Ramdas Pophale) SiO2 
 PCOD9527829
Probable space group: I B A M
;
_chemical_formula_sum "Si O2"
_cell_formula_units_Z 72
_cell_length_a 9.273547
_cell_length_b 15.225453
_cell_length_c 23.558518
_cell_angle_alpha 90.000000
_cell_angle_beta 90.000000
_cell_angle_gamma 90.000000
_cell_volume 3326.320307
_symmetry_space_group_name_H-M "I B A M"
_symmetry_group_IT_number 72
_symmetry_cell_setting 'orthorhombic'
loop_
_space_group_symop_operation_xyz
x,y,z
-x,-y,z
x,-y,1/2-z
-x,y,1/2-z
-x,-y,-z
x,y,-z
-x,y,1/2+z
x,-y,1/2+z
1/2+x,1/2+y,1/2+z
1/2-x,1/2-y,1/2+z
1/2+x,1/2-y,-z
1/2-x,1/2+y,-z
1/2-x,1/2-y,1/2-z
1/2+x,1/2+y,1/2-z
1/2-x,1/2+y,z
1/2+x,1/2-y,z
loop_
_atom_site_type_symbol
_atom_site_label
_atom_site_fract_x
_atom_site_fract_y
_atom_site_fract_z
Si Si1 0.000000 0.283679 0.750000
Si Si2 0.913105 0.086463 0.363288
Si Si3 0.663048 0.675965 0.936198
Si Si4 0.724600 0.752144 0.323881
Si Si5 0.337376 0.997598 0.435684
O O1 0.871776 0.242713 0.788552
O O2 0.892673 0.321609 0.700727
O O3 0.856633 0.158312 0.318757
O O4 0.018932 0.135394 0.407961
O O5 0.772640 0.053112 0.396065
O O6 0.000000 0.000000 0.341996
O O7 0.732137 0.738893 0.889328
O O8 0.774264 0.595380 0.939646
O O9 0.638172 0.710112 0.000000
O O10 0.338383 0.960489 0.500000
O O11 0.500000 0.000000 0.414364
#
# Coordination Sequence:
#
# PCOD9527829 Si02
#       5
#     8  16  16  16  16
#     4  10  24  42  67  85 124 168 216 262 322 348
#     4  10  21  39  63  91 129 169 205 259 327 388
#     4  10  21  37  61  95 128 162 206 258 322 389
#     4  11  22  43  66  91 124 167 215 266 309 386
#     4   9  19  34  56  87 130 167 200 255 320 383
#
# _framework density 21.64554
#
# number of rings (size 3 to 8) (size 9 to 14) (size 15 to 20)
#    0.000    2.000    2.222    0.667    3.111    4.444 
#    0.000    0.556    0.000    5.333    0.000    0.000 
#    0.000    0.000    0.000    0.000    0.000    0.000 
#
# Total GULP energy -200412.009393 kJ/mol
# GULP energy per Si atom -5567.000261 kJ/mol
# Density = 2.159627 g / cm^3
# Si number density = 21.645540 Si / 1000 Ang^3
#
#
#
# Elastic Constant Matrix: (Units=GPa)
#
#
# Indices 1 2 3 4 5 6 
#
# 1 187.1859 33.9506 39.3370 0.0000 0.0000 0.0000
# 2 33.9506 64.8345 35.0111 0.0000 0.0000 0.0000
# 3 39.3370 35.0111 115.8861 0.0000 0.0000 0.0000
# 4 0.0000 0.0000 0.0000 15.0787 0.0000 0.0000
# 5 0.0000 0.0000 0.0000 0.0000 23.2175 0.0000
# 6 0.0000 0.0000 0.0000 0.0000 0.0000 22.1773
#
#
#
# Elastic Compliance Matrix: (Units=1/GPa)
#
#
# Indices 1 2 3 4 5 6 
#
# 1 0.006066 -0.002467 -0.001314 0.000000 0.000000 0.000000
# 2 -0.002467 0.019434 -0.005034 0.000000 0.000000 0.000000
# 3 -0.001314 -0.005034 0.010596 0.000000 0.000000 0.000000
# 4 0.000000 0.000000 0.000000 0.066318 0.000000 0.000000
# 5 0.000000 0.000000 0.000000 0.000000 0.043071 0.000000
# 6 0.000000 0.000000 0.000000 0.000000 0.000000 0.045091
#
#
# Mechanical properties :
#
#
# Convention : Reuss Voigt Hill
#
# Bulk Modulus (GPa) = 54.15182 64.94486 59.54834
# Shear Modulus (GPa) = 23.32513 29.40190 26.36352
#
# Velocity S-wave (km/s) = 3.28624 3.68956 3.49372
# Velocity P-wave (km/s) = 6.28259 6.94402 6.62157
#
# Compressibility (1/GPa) = 0.01846660
#
# Stress axis : x y z
#
# Youngs Moduli (GPa) = 164.85887 51.45597 94.37579
#
# Poissons Ratio (x) = 0.12694 0.12398
# Poissons Ratio (y) = 0.40670 0.47508
# Poissons Ratio (z) = 0.21657 0.25903
#
# Static dielectric constant tensor:
#      x y z
#    x 1.768600 0.000000 0.000000 
#    y 0.000000 1.842920 0.000000 
#    z 0.000000 0.000000 1.883220 
# 
# From -- ./inp_files/47047.got.cif
#   From: 2010.05.17/outbox.cif.g08.bks.cpg/sg72_24_cif.got.tgz:47047.got - 2010.06.03 17:03:01.
