data_PCOD9527044
_publ_section_title
;
Structure prediction by ZEFSAII (Michael W. Deem and Ramdas Pophale) SiO2 
 PCOD9527044
Probable space group: I B A M
;
_chemical_formula_sum "Si O2"
_cell_formula_units_Z 112
_cell_length_a 13.911748
_cell_length_b 17.211004
_cell_length_c 23.047652
_cell_angle_alpha 90.000000
_cell_angle_beta 90.000000
_cell_angle_gamma 90.000000
_cell_volume 5518.418025
_symmetry_space_group_name_H-M "I B A M"
_symmetry_group_IT_number 72
_symmetry_cell_setting 'orthorhombic'
loop_
_space_group_symop_operation_xyz
x,y,z
-x,-y,z
x,-y,1/2-z
-x,y,1/2-z
-x,-y,-z
x,y,-z
-x,y,1/2+z
x,-y,1/2+z
1/2+x,1/2+y,1/2+z
1/2-x,1/2-y,1/2+z
1/2+x,1/2-y,-z
1/2-x,1/2+y,-z
1/2-x,1/2-y,1/2-z
1/2+x,1/2+y,1/2-z
1/2-x,1/2+y,z
1/2+x,1/2-y,z
loop_
_atom_site_type_symbol
_atom_site_label
_atom_site_fract_x
_atom_site_fract_y
_atom_site_fract_z
Si Si1 0.836430 0.335228 0.885496
Si Si2 0.627131 0.625927 0.367416
Si Si3 0.682869 0.406866 0.261785
Si Si4 0.397982 0.016127 0.065818
Si Si5 0.107928 0.592335 0.761900
Si Si6 0.189122 0.024393 0.567976
Si Si7 0.089305 0.838053 0.123502
O O1 0.721725 0.333053 0.892668
O O2 0.880279 0.391723 0.933694
O O3 0.863423 0.383606 0.827134
O O4 0.876309 0.249796 0.880415
O O5 0.642435 0.627317 0.298212
O O6 0.633503 0.538642 0.393161
O O7 0.524790 0.659567 0.383134
O O8 0.680981 0.500000 0.250000
O O9 0.794705 0.382069 0.271862
O O10 0.620153 0.377321 0.315285
O O11 0.299971 0.978695 0.089837
O O12 0.500000 0.000000 0.095898
O O13 0.404833 0.985863 0.000000
O O14 0.103091 0.500000 0.750000
O O15 0.000000 0.623615 0.750000
O O16 0.188229 0.001856 0.500000
O O17 0.141535 0.107421 0.576734
#
# Coordination Sequence:
#
# PCOD9527044 Si02
#       7
#    16  16  16  16  16  16  16
#     4  10  24  39  56  90 125 149 194 250 296 348
#     4  10  22  41  59  82 120 161 195 237 295 352
#     4  10  20  36  58  85 118 153 202 239 278 360
#     4   9  20  40  66  87 113 160 204 240 286 347
#     4   9  20  35  57  84 115 161 193 234 291 347
#     4  10  22  40  62  90 118 152 204 245 285 356
#     4  12  24  36  62  91 117 158 193 247 305 346
#
# _framework density 20.295672
#
# number of rings (size 3 to 8) (size 9 to 14) (size 15 to 20)
#    0.000    2.000    1.429    0.857    4.000    8.000 
#    0.000    0.000    0.000    0.000    0.000    0.000 
#    0.000    0.000    0.000    0.000    0.000    0.000 
#
# Total GULP energy -312322.963906 kJ/mol
# GULP energy per Si atom -5577.195784 kJ/mol
# Density = 2.024948 g / cm^3
# Si number density = 20.295672 Si / 1000 Ang^3
#
#
#
# Elastic Constant Matrix: (Units=GPa)
#
#
# Indices 1 2 3 4 5 6 
#
# 1 160.7245 75.0658 15.6751 0.0000 0.0000 0.0000
# 2 75.0658 92.0240 6.1110 0.0000 0.0000 0.0000
# 3 15.6751 6.1110 48.9194 0.0000 0.0000 0.0000
# 4 0.0000 0.0000 0.0000 12.6367 0.0000 0.0000
# 5 0.0000 0.0000 0.0000 0.0000 7.9169 0.0000
# 6 0.0000 0.0000 0.0000 0.0000 0.0000 13.0452
#
#
#
# Elastic Compliance Matrix: (Units=1/GPa)
#
#
# Indices 1 2 3 4 5 6 
#
# 1 0.010295 -0.008247 -0.002269 0.000000 0.000000 0.000000
# 2 -0.008247 0.017564 0.000448 0.000000 0.000000 0.000000
# 3 -0.002269 0.000448 0.021113 0.000000 0.000000 0.000000
# 4 0.000000 0.000000 0.000000 0.079135 0.000000 0.000000
# 5 0.000000 0.000000 0.000000 0.000000 0.126312 0.000000
# 6 0.000000 0.000000 0.000000 0.000000 0.000000 0.076657
#
#
# Mechanical properties :
#
#
# Convention : Reuss Voigt Hill
#
# Bulk Modulus (GPa) = 34.67707 55.04130 44.85919
# Shear Modulus (GPa) = 13.85724 20.37415 17.11569
#
# Velocity S-wave (km/s) = 2.61582 3.17182 2.90714
# Velocity P-wave (km/s) = 5.12312 6.37123 5.78096
#
# Compressibility (1/GPa) = 0.02883750
#
# Stress axis : x y z
#
# Youngs Moduli (GPa) = 97.13617 56.93386 47.36496
#
# Poissons Ratio (x) = 0.46954 0.10745
# Poissons Ratio (y) = 0.80109 -0.02124
# Poissons Ratio (z) = 0.22036 -0.02553
#
# Static dielectric constant tensor:
#      x y z
#    x 1.761520 0.000000 0.000000 
#    y 0.000000 1.684480 0.000000 
#    z 0.000000 0.000000 1.766550 
# 
# From -- ./inp_files/48720.got.cif
#   From: 2010.05.17/outbox.cif.g08.bks.cpg/sg72_25_cif.got.tgz:48720.got - 2010.06.03 17:03:01.
