data_PCOD9527641
_publ_section_title
;
Structure prediction by ZEFSAII (Michael W. Deem and Ramdas Pophale) SiO2 
 PCOD9527641
Probable space group: I B A M
;
_chemical_formula_sum "Si O2"
_cell_formula_units_Z 112
_cell_length_a 27.409129
_cell_length_b 12.731325
_cell_length_c 14.778708
_cell_angle_alpha 90.000000
_cell_angle_beta 90.000000
_cell_angle_gamma 90.000000
_cell_volume 5157.097093
_symmetry_space_group_name_H-M "I B A M"
_symmetry_group_IT_number 72
_symmetry_cell_setting 'orthorhombic'
loop_
_space_group_symop_operation_xyz
x,y,z
-x,-y,z
x,-y,1/2-z
-x,y,1/2-z
-x,-y,-z
x,y,-z
-x,y,1/2+z
x,-y,1/2+z
1/2+x,1/2+y,1/2+z
1/2-x,1/2-y,1/2+z
1/2+x,1/2-y,-z
1/2-x,1/2+y,-z
1/2-x,1/2-y,1/2-z
1/2+x,1/2+y,1/2-z
1/2-x,1/2+y,z
1/2+x,1/2-y,z
loop_
_atom_site_type_symbol
_atom_site_label
_atom_site_fract_x
_atom_site_fract_y
_atom_site_fract_z
Si Si1 0.441657 0.166677 0.755993
Si Si2 0.940390 0.508102 0.896772
Si Si3 0.710370 0.060283 0.846207
Si Si4 0.602885 0.609379 0.252121
Si Si5 0.716943 0.153543 0.601352
Si Si6 0.675731 0.290176 0.890523
Si Si7 0.319138 0.366172 0.893509
O O1 0.500000 0.160808 0.750000
O O2 0.424332 0.092790 0.838420
O O3 0.426927 0.286011 0.769942
O O4 0.425759 0.109517 0.662617
O O5 0.000000 0.500000 0.899030
O O6 0.923476 0.511371 0.000000
O O7 0.681775 0.168861 0.857952
O O8 0.765251 0.088048 0.877524
O O9 0.710184 0.000000 0.750000
O O10 0.693860 0.960236 0.903479
O O11 0.573504 0.500000 0.250000
O O12 0.633026 0.647106 0.340748
O O13 0.641822 0.585224 0.172802
O O14 0.724320 0.194426 0.500000
O O15 0.772204 0.156539 0.638437
O O16 0.684473 0.245117 0.642041
O O17 0.670559 0.293316 0.000000
O O18 0.331863 0.376405 0.000000
#
# Coordination Sequence:
#
# PCOD9527641 Si02
#       7
#    16  16  16  16  16  16  16
#     4   9  20  39  62  91 122 150 193 244 294 363
#     4   8  15  35  68  95 115 144 182 232 296 362
#     4  11  19  32  57  82 112 151 195 247 301 355
#     4  12  25  39  57  83 118 160 206 248 295 355
#     4   9  17  32  53  75 103 144 192 238 289 343
#     4  10  22  39  57  81 116 157 200 248 301 358
#     4  10  21  36  53  79 115 156 205 251 297 352
#
# _framework density 21.717642999999999
#
# number of rings (size 3 to 8) (size 9 to 14) (size 15 to 20)
#    0.000    2.143    0.000    6.000    0.000    5.429 
#    7.714    0.000    0.000    0.000    0.000    6.000 
#    0.000    0.000    0.000    0.000    0.000    0.000 
#
# Total GULP energy -312366.115508 kJ/mol
# GULP energy per Si atom -5577.966348 kJ/mol
# Density = 2.166821 g / cm^3
# Si number density = 21.717643 Si / 1000 Ang^3
#
#
#
# Elastic Constant Matrix: (Units=GPa)
#
#
# Indices 1 2 3 4 5 6 
#
# 1 34.9751 15.3112 13.6163 0.0000 0.0000 0.0000
# 2 15.3112 195.0057 38.3636 0.0000 0.0000 0.0000
# 3 13.6163 38.3636 146.5654 0.0000 0.0000 0.0000
# 4 0.0000 0.0000 0.0000 60.6394 0.0000 0.0000
# 5 0.0000 0.0000 0.0000 0.0000 13.8873 0.0000
# 6 0.0000 0.0000 0.0000 0.0000 0.0000 23.5031
#
#
#
# Elastic Compliance Matrix: (Units=1/GPa)
#
#
# Indices 1 2 3 4 5 6 
#
# 1 0.030336 -0.001927 -0.002314 0.000000 0.000000 0.000000
# 2 -0.001927 0.005529 -0.001268 0.000000 0.000000 0.000000
# 3 -0.002314 -0.001268 0.007370 0.000000 0.000000 0.000000
# 4 0.000000 0.000000 0.000000 0.016491 0.000000 0.000000
# 5 0.000000 0.000000 0.000000 0.000000 0.072008 0.000000
# 6 0.000000 0.000000 0.000000 0.000000 0.000000 0.042548
#
#
# Mechanical properties :
#
#
# Convention : Reuss Voigt Hill
#
# Bulk Modulus (GPa) = 31.03949 56.79205 43.91577
# Shear Modulus (GPa) = 25.50527 40.22299 32.86413
#
# Velocity S-wave (km/s) = 3.43067 4.30826 3.89427
# Velocity P-wave (km/s) = 5.47869 7.13828 6.36283
#
# Compressibility (1/GPa) = 0.03221702
#
# Stress axis : x y z
#
# Youngs Moduli (GPa) = 32.96409 180.87045 135.68860
#
# Poissons Ratio (x) = 0.34847 0.31398
# Poissons Ratio (y) = 0.06351 0.17208
# Poissons Ratio (z) = 0.07628 0.22938
#
# Static dielectric constant tensor:
#      x y z
#    x 1.816060 0.000000 0.000000 
#    y 0.000000 1.848290 0.000000 
#    z 0.000000 0.000000 2.205270 
# 
# From -- ./inp_files/26357.got.cif
#   From: 2010.05.17/outbox.cif.g08.bks.cpg/sg72_14_cif.got.tgz:26357.got - 2010.06.03 17:03:01.
