data_PCOD9527137
_publ_section_title
;
Structure prediction by ZEFSAII (Michael W. Deem and Ramdas Pophale) SiO2 
 PCOD9527137
Probable space group: I B A M
;
_chemical_formula_sum "Si O2"
_cell_formula_units_Z 88
_cell_length_a 18.552010
_cell_length_b 11.880398
_cell_length_c 19.685908
_cell_angle_alpha 90.000000
_cell_angle_beta 90.000000
_cell_angle_gamma 90.000000
_cell_volume 4338.877720
_symmetry_space_group_name_H-M "I B A M"
_symmetry_group_IT_number 72
_symmetry_cell_setting 'orthorhombic'
loop_
_space_group_symop_operation_xyz
x,y,z
-x,-y,z
x,-y,1/2-z
-x,y,1/2-z
-x,-y,-z
x,y,-z
-x,y,1/2+z
x,-y,1/2+z
1/2+x,1/2+y,1/2+z
1/2-x,1/2-y,1/2+z
1/2+x,1/2-y,-z
1/2-x,1/2+y,-z
1/2-x,1/2-y,1/2-z
1/2+x,1/2+y,1/2-z
1/2-x,1/2+y,z
1/2+x,1/2-y,z
loop_
_atom_site_type_symbol
_atom_site_label
_atom_site_fract_x
_atom_site_fract_y
_atom_site_fract_z
Si Si1 0.462283 0.839826 0.425446
Si Si2 0.555884 0.589968 0.113206
Si Si3 0.500000 0.699594 0.250000
Si Si4 0.604655 0.807568 0.344420
Si Si5 0.173557 0.502261 0.080331
Si Si6 0.167498 0.087493 0.919078
O O1 0.488431 0.869536 0.500000
O O2 0.440558 0.708862 0.423730
O O3 0.530560 0.852057 0.377734
O O4 0.393589 0.914624 0.409641
O O5 0.500000 0.500000 0.082383
O O6 0.524361 0.623993 0.186694
O O7 0.630431 0.524305 0.110977
O O8 0.571457 0.771451 0.271400
O O9 0.632899 0.694108 0.380992
O O10 0.662841 0.901930 0.365147
O O11 0.247247 0.571106 0.089806
O O12 0.172946 0.463077 0.000000
O O13 0.152805 0.095941 0.000000
#
# Coordination Sequence:
#
# PCOD9527137 Si02
#       6
#    16  16   8  16  16  16
#     4  10  20  36  62  93 121 156 206 260 319 378
#     4  11  21  37  63  86 123 158 216 260 310 365
#     4  10  23  42  65  88 114 169 223 278 300 352
#     4  11  22  40  66  86 124 166 219 255 314 369
#     4  10  23  40  61  94 135 164 195 258 331 393
#     4  11  23  36  60  95 128 162 198 256 328 396
#
# _framework density 20.281742999999999
#
# number of rings (size 3 to 8) (size 9 to 14) (size 15 to 20)
#    0.000    1.455    3.636    3.000    2.545    2.182 
#    0.000    8.182    8.000    0.000    0.000    0.000 
#    0.000    0.000    0.000    0.000    0.000    0.000 
#
# Total GULP energy -245399.286311 kJ/mol
# GULP energy per Si atom -5577.256507 kJ/mol
# Density = 2.023558 g / cm^3
# Si number density = 20.281743 Si / 1000 Ang^3
#
#
#
# Elastic Constant Matrix: (Units=GPa)
#
#
# Indices 1 2 3 4 5 6 
#
# 1 74.0888 1.3298 16.1420 0.0000 0.0000 0.0000
# 2 1.3298 83.3556 27.9993 0.0000 0.0000 0.0000
# 3 16.1420 27.9993 61.0551 0.0000 0.0000 0.0000
# 4 0.0000 0.0000 0.0000 19.3250 0.0000 0.0000
# 5 0.0000 0.0000 0.0000 0.0000 -35.9582 0.0000
# 6 0.0000 0.0000 0.0000 0.0000 0.0000 30.5352
#
#
#
# Elastic Compliance Matrix: (Units=1/GPa)
#
#
# Indices 1 2 3 4 5 6 
#
# 1 0.014430 0.001243 -0.004385 0.000000 0.000000 0.000000
# 2 0.001243 0.014288 -0.006881 0.000000 0.000000 0.000000
# 3 -0.004385 -0.006881 0.020694 0.000000 0.000000 0.000000
# 4 0.000000 0.000000 0.000000 0.051746 0.000000 0.000000
# 5 0.000000 0.000000 0.000000 0.000000 -0.027810 0.000000
# 6 0.000000 0.000000 0.000000 0.000000 0.000000 0.032749
#
#
# Mechanical properties :
#
#
# Convention : Reuss Voigt Hill
#
# Bulk Modulus (GPa) = 34.05352 34.38241 34.21797
# Shear Modulus (GPa) = 36.78281 14.31564 25.54922
#
# Velocity S-wave (km/s) = 4.26325 2.65964 3.55310
# Velocity P-wave (km/s) = 6.40784 5.14012 5.80867
#
# Compressibility (1/GPa) = 0.02936554
#
# Stress axis : x y z
#
# Youngs Moduli (GPa) = 69.29809 69.98719 48.32411
#
# Poissons Ratio (x) = -0.08698 0.21191
# Poissons Ratio (y) = -0.08612 0.33252
# Poissons Ratio (z) = 0.30388 0.48159
#
# Static dielectric constant tensor:
#      x y z
#    x 1.730750 0.000000 0.000000 
#    y 0.000000 1.761100 0.000000 
#    z 0.000000 0.000000 1.752930 
# 
# From -- ./inp_files/38873.got.cif
#   From: 2010.05.17/outbox.cif.g08.bks.cpg/sg72_20_cif.got.tgz:38873.got - 2010.06.03 17:03:01.
