data_PCOD9527865
_publ_section_title
;
Structure prediction by ZEFSAII (Michael W. Deem and Ramdas Pophale) SiO2 
 PCOD9527865
Probable space group: I B A M
;
_chemical_formula_sum "Si O2"
_cell_formula_units_Z 104
_cell_length_a 25.599685
_cell_length_b 23.982427
_cell_length_c 8.920148
_cell_angle_alpha 90.000000
_cell_angle_beta 90.000000
_cell_angle_gamma 90.000000
_cell_volume 5476.458648
_symmetry_space_group_name_H-M "I B A M"
_symmetry_group_IT_number 72
_symmetry_cell_setting 'orthorhombic'
loop_
_space_group_symop_operation_xyz
x,y,z
-x,-y,z
x,-y,1/2-z
-x,y,1/2-z
-x,-y,-z
x,y,-z
-x,y,1/2+z
x,-y,1/2+z
1/2+x,1/2+y,1/2+z
1/2-x,1/2-y,1/2+z
1/2+x,1/2-y,-z
1/2-x,1/2+y,-z
1/2-x,1/2-y,1/2-z
1/2+x,1/2+y,1/2-z
1/2-x,1/2+y,z
1/2+x,1/2-y,z
loop_
_atom_site_type_symbol
_atom_site_label
_atom_site_fract_x
_atom_site_fract_y
_atom_site_fract_z
Si Si1 0.088249 0.770893 0.668891
Si Si2 0.384145 0.836700 0.678973
Si Si3 0.557748 0.059116 0.819077
Si Si4 0.227408 0.693053 0.679686
Si Si5 0.416095 0.555932 0.667995
Si Si6 0.165074 0.857287 0.180043
Si Si7 0.500000 0.354353 0.750000
O O1 0.100018 0.752700 0.500000
O O2 0.081390 0.716932 0.772245
O O3 0.135721 0.806783 0.737344
O O4 0.039020 0.812443 0.666488
O O5 0.384385 0.843091 0.500000
O O6 0.406195 0.891009 0.761229
O O7 0.326198 0.823265 0.740219
O O8 0.500000 0.068460 0.750000
O O9 0.575660 0.000000 0.750000
O O10 0.555421 0.056765 0.000000
O O11 0.220553 0.699207 0.500000
O O12 0.250000 0.750000 0.750000
O O13 0.273430 0.647735 0.704859
O O14 0.432424 0.500000 0.750000
O O15 0.403997 0.539018 0.500000
O O16 0.364618 0.586776 0.731394
O O17 0.460867 0.603139 0.667577
O O18 0.155780 0.851594 0.000000
#
# Coordination Sequence:
#
# PCOD9527865 Si02
#       7
#    16  16  16  16  16  16   8
#     4  11  22  36  57  85 117 155 201 250 304 361
#     4  12  25  40  60  91 128 164 203 249 300 360
#     4  11  23  44  70  96 126 162 203 248 302 365
#     4  11  21  37  61  89 121 160 203 249 307 369
#     4  10  21  38  58  82 113 154 200 246 296 352
#     4   9  20  38  58  81 116 155 193 246 307 361
#     4  10  23  38  56  82 119 156 200 250 306 354
#
# _framework density 18.990373999999999
#
# number of rings (size 3 to 8) (size 9 to 14) (size 15 to 20)
#    0.000    1.385    1.538    4.846    1.077    6.154 
#    0.000    0.769    0.000    1.846    0.000    0.000 
#    0.000    0.000    0.000    0.000    0.000    0.000 
#
# Total GULP energy -290238.879030 kJ/mol
# GULP energy per Si atom -5581.516904 kJ/mol
# Density = 1.894715 g / cm^3
# Si number density = 18.990374 Si / 1000 Ang^3
#
#
#
# Elastic Constant Matrix: (Units=GPa)
#
#
# Indices 1 2 3 4 5 6 
#
# 1 87.7781 62.7808 34.4192 0.0000 0.0000 0.0000
# 2 62.7808 128.6272 56.3852 0.0000 0.0000 0.0000
# 3 34.4192 56.3852 131.2241 0.0000 0.0000 0.0000
# 4 0.0000 0.0000 0.0000 20.9284 0.0000 0.0000
# 5 0.0000 0.0000 0.0000 0.0000 17.3048 0.0000
# 6 0.0000 0.0000 0.0000 0.0000 0.0000 27.1615
#
#
#
# Elastic Compliance Matrix: (Units=1/GPa)
#
#
# Indices 1 2 3 4 5 6 
#
# 1 0.017640 -0.008109 -0.001143 0.000000 0.000000 0.000000
# 2 -0.008109 0.013306 -0.003591 0.000000 0.000000 0.000000
# 3 -0.001143 -0.003591 0.009463 0.000000 0.000000 0.000000
# 4 0.000000 0.000000 0.000000 0.047782 0.000000 0.000000
# 5 0.000000 0.000000 0.000000 0.000000 0.057788 0.000000
# 6 0.000000 0.000000 0.000000 0.000000 0.000000 0.036817
#
#
# Mechanical properties :
#
#
# Convention : Reuss Voigt Hill
#
# Bulk Modulus (GPa) = 67.91099 72.75552 70.33326
# Shear Modulus (GPa) = 23.43145 26.01520 24.72332
#
# Velocity S-wave (km/s) = 3.51644 3.70525 3.61208
# Velocity P-wave (km/s) = 7.23364 7.52995 7.38328
#
# Compressibility (1/GPa) = 0.01472516
#
# Stress axis : x y z
#
# Youngs Moduli (GPa) = 56.68907 75.15270 105.67401
#
# Poissons Ratio (x) = 0.60941 0.12074
# Poissons Ratio (y) = 0.45969 0.37943
# Poissons Ratio (z) = 0.06477 0.26984
#
# Static dielectric constant tensor:
#      x y z
#    x 1.679460 0.000000 0.000000 
#    y 0.000000 1.664050 0.000000 
#    z 0.000000 0.000000 1.653410 
# 
# From -- ./inp_files/7192.got.cif
#   From: 2010.05.17/outbox.cif.g08.bks.cpg/sg72_4_cif.got.tgz:7192.got - 2010.06.03 17:03:01.
