data_PCOD9527607
_publ_section_title
;
Structure prediction by ZEFSAII (Michael W. Deem and Ramdas Pophale) SiO2 
 PCOD9527607
Probable space group: I B A M
;
_chemical_formula_sum "Si O2"
_cell_formula_units_Z 64
_cell_length_a 11.126609
_cell_length_b 9.159490
_cell_length_c 27.580720
_cell_angle_alpha 90.000000
_cell_angle_beta 90.000000
_cell_angle_gamma 90.000000
_cell_volume 2810.863260
_symmetry_space_group_name_H-M "I B A M"
_symmetry_group_IT_number 72
_symmetry_cell_setting 'orthorhombic'
loop_
_space_group_symop_operation_xyz
x,y,z
-x,-y,z
x,-y,1/2-z
-x,y,1/2-z
-x,-y,-z
x,y,-z
-x,y,1/2+z
x,-y,1/2+z
1/2+x,1/2+y,1/2+z
1/2-x,1/2-y,1/2+z
1/2+x,1/2-y,-z
1/2-x,1/2+y,-z
1/2-x,1/2-y,1/2-z
1/2+x,1/2+y,1/2-z
1/2-x,1/2+y,z
1/2+x,1/2-y,z
loop_
_atom_site_type_symbol
_atom_site_label
_atom_site_fract_x
_atom_site_fract_y
_atom_site_fract_z
Si Si1 0.121680 0.900914 0.946091
Si Si2 0.315688 0.128224 0.217688
Si Si3 0.480259 0.830400 0.373994
Si Si4 0.367913 0.571060 0.859523
O O1 0.086343 0.752418 0.918304
O O2 0.192285 0.996923 0.906507
O O3 0.171622 0.880190 0.000000
O O4 0.000000 0.000000 0.951035
O O5 0.250000 0.250000 0.250000
O O6 0.406350 0.186806 0.176450
O O7 0.211481 0.050284 0.186851
O O8 0.370853 0.000000 0.250000
O O9 0.604391 0.741141 0.367884
O O10 0.500000 0.000000 0.382436
O O11 0.500000 0.500000 0.852979
#
# Coordination Sequence:
#
# PCOD9527607 Si02
#       4
#    16  16  16  16
#     4   8  16  35  60  79 103 145 183 213 265 333
#     4  12  24  36  55  81 111 148 186 223 267 321
#     4  10  21  35  54  84 115 136 173 235 279 309
#     4   9  20  38  57  76 106 148 187 216 257 330
#
# _framework density 22.768805
#
# number of rings (size 3 to 8) (size 9 to 14) (size 15 to 20)
#    0.000    2.750    0.000    4.500    0.000    6.500 
#    0.000    1.250    0.000    9.000    0.000    0.000 
#    0.000    0.000    0.000    0.000    0.000    0.000 
#
# Total GULP energy -178655.799031 kJ/mol
# GULP energy per Si atom -5582.993720 kJ/mol
# Density = 2.271698 g / cm^3
# Si number density = 22.768805 Si / 1000 Ang^3
#
#
#
# Elastic Constant Matrix: (Units=GPa)
#
#
# Indices 1 2 3 4 5 6 
#
# 1 49.4460 26.0670 42.5467 0.0000 0.0000 0.0000
# 2 26.0670 178.4618 76.1353 0.0000 0.0000 0.0000
# 3 42.5467 76.1353 206.7679 0.0000 0.0000 0.0000
# 4 0.0000 0.0000 0.0000 23.6052 0.0000 0.0000
# 5 0.0000 0.0000 0.0000 0.0000 -305.0924 0.0000
# 6 0.0000 0.0000 0.0000 0.0000 0.0000 20.3003
#
#
#
# Elastic Compliance Matrix: (Units=1/GPa)
#
#
# Indices 1 2 3 4 5 6 
#
# 1 0.025017 -0.001730 -0.004511 0.000000 0.000000 0.000000
# 2 -0.001730 0.006767 -0.002136 0.000000 0.000000 0.000000
# 3 -0.004511 -0.002136 0.006551 0.000000 0.000000 0.000000
# 4 0.000000 0.000000 0.000000 0.042364 0.000000 0.000000
# 5 0.000000 0.000000 0.000000 0.000000 -0.003278 0.000000
# 6 0.000000 0.000000 0.000000 0.000000 0.000000 0.049260
#
#
# Mechanical properties :
#
#
# Convention : Reuss Voigt Hill
#
# Bulk Modulus (GPa) = 46.33341 80.46373 63.39857
# Shear Modulus (GPa) = 33.19406 -32.90894 0.14256
#
# Velocity S-wave (km/s) = 3.82235 -3.80590 0.25050
# Velocity P-wave (km/s) = 6.31460 4.01285 5.29043
#
# Compressibility (1/GPa) = 0.02158270
#
# Stress axis : x y z
#
# Youngs Moduli (GPa) = 39.97204 147.76911 152.64766
#
# Poissons Ratio (x) = 0.25560 0.68858
# Poissons Ratio (y) = 0.06914 0.32604
# Poissons Ratio (z) = 0.18031 0.31562
#
# Static dielectric constant tensor:
#      x y z
#    x 1.894810 0.000000 0.000000 
#    y 0.000000 1.919910 0.000000 
#    z 0.000000 0.000000 2.050290 
# 
# From -- ./inp_files/51139.got.cif
#   From: 2010.05.17/outbox.cif.g08.bks.cpg/sg72_26_cif.got.tgz:51139.got - 2010.06.03 17:03:01.
