data_PCOD9527010
_publ_section_title
;
Structure prediction by ZEFSAII (Michael W. Deem and Ramdas Pophale) SiO2 
 PCOD9527010
Probable space group: I B A M
;
_chemical_formula_sum "Si O2"
_cell_formula_units_Z 96
_cell_length_a 16.019943
_cell_length_b 20.877325
_cell_length_c 15.203910
_cell_angle_alpha 90.000000
_cell_angle_beta 90.000000
_cell_angle_gamma 90.000000
_cell_volume 5085.001772
_symmetry_space_group_name_H-M "I B A M"
_symmetry_group_IT_number 72
_symmetry_cell_setting 'orthorhombic'
loop_
_space_group_symop_operation_xyz
x,y,z
-x,-y,z
x,-y,1/2-z
-x,y,1/2-z
-x,-y,-z
x,y,-z
-x,y,1/2+z
x,-y,1/2+z
1/2+x,1/2+y,1/2+z
1/2-x,1/2-y,1/2+z
1/2+x,1/2-y,-z
1/2-x,1/2+y,-z
1/2-x,1/2-y,1/2-z
1/2+x,1/2+y,1/2-z
1/2-x,1/2+y,z
1/2+x,1/2-y,z
loop_
_atom_site_type_symbol
_atom_site_label
_atom_site_fract_x
_atom_site_fract_y
_atom_site_fract_z
Si Si1 0.440121 0.787554 0.500000
Si Si2 0.663972 0.649915 0.658155
Si Si3 0.713245 0.885389 0.000000
Si Si4 0.286155 0.476977 0.000000
Si Si5 0.767352 0.686770 0.191243
Si Si6 0.697287 0.678077 0.000000
Si Si7 0.940792 0.279368 0.666521
Si Si8 0.089778 0.019945 0.148805
O O1 0.373099 0.845773 0.500000
O O2 0.390630 0.718459 0.500000
O O3 0.500058 0.792885 0.415524
O O4 0.734748 0.638989 0.584907
O O5 0.707671 0.639703 0.753619
O O6 0.614129 0.715901 0.649261
O O7 0.595964 0.595773 0.644419
O O8 0.716375 0.964351 0.000000
O O9 0.338846 0.492266 0.912741
O O10 0.283296 0.399106 0.000000
O O11 0.750000 0.750000 0.250000
O O12 0.737933 0.698527 0.092312
O O13 0.865648 0.670953 0.188626
O O14 0.000000 0.270288 0.750000
O O15 0.098152 0.000000 0.250000
O O16 0.000000 0.000000 0.114995
#
# Coordination Sequence:
#
# PCOD9527010 Si02
#       8
#     8  16   8   8  16   8  16  16
#     4  12  22  34  59  86 117 147 199 256 305 345
#     4  10  20  36  56  77 119 163 197 236 294 365
#     4  10  21  41  58  82 117 166 197 240 302 368
#     4  10  23  38  57  84 117 157 203 237 292 362
#     4  10  21  39  57  83 120 156 202 239 294 359
#     4  12  23  37  62  87 116 155 200 245 293 365
#     4  11  22  33  55  86 112 146 193 255 301 344
#     4  10  21  33  53  79 119 157 194 237 289 354
#
# _framework density 18.879048999999998
#
# number of rings (size 3 to 8) (size 9 to 14) (size 15 to 20)
#    0.000    1.500    0.000    7.250    4.667    0.000 
#    0.000    0.000    0.000    2.000    0.000    1.167 
#    0.000    0.000    0.000    0.000    0.000    0.000 
#
# Total GULP energy -267314.610311 kJ/mol
# GULP energy per Si atom -5569.054381 kJ/mol
# Density = 1.883608 g / cm^3
# Si number density = 18.879049 Si / 1000 Ang^3
#
#
#
# Elastic Constant Matrix: (Units=GPa)
#
#
# Indices 1 2 3 4 5 6 
#
# 1 126.1197 41.5874 44.7861 0.0000 0.0000 0.0000
# 2 41.5874 80.5606 17.5537 0.0000 0.0001 0.0000
# 3 44.7861 17.5537 135.4067 0.0000 0.0002 0.0000
# 4 0.0000 0.0000 0.0000 27.2505 0.0000 0.0000
# 5 0.0000 0.0001 0.0002 0.0000 425.1746 0.0000
# 6 0.0000 0.0000 0.0000 0.0000 0.0000 26.5308
#
#
#
# Elastic Compliance Matrix: (Units=1/GPa)
#
#
# Indices 1 2 3 4 5 6 
#
# 1 0.010532 -0.004814 -0.002859 0.000000 0.000000 0.000000
# 2 -0.004814 0.014974 -0.000349 0.000000 0.000000 0.000000
# 3 -0.002859 -0.000349 0.008376 0.000000 0.000000 0.000000
# 4 0.000000 0.000000 0.000000 0.036697 0.000000 0.000000
# 5 0.000000 0.000000 0.000000 0.000000 0.002352 0.000000
# 6 0.000000 0.000000 0.000000 0.000000 0.000000 0.037692
#
#
# Mechanical properties :
#
#
# Convention : Reuss Voigt Hill
#
# Bulk Modulus (GPa) = 56.06106 61.10457 58.58282
# Shear Modulus (GPa) = 37.70390 111.66851 74.68620
#
# Velocity S-wave (km/s) = 4.47377 7.69921 6.29653
# Velocity P-wave (km/s) = 7.51302 10.55811 9.16295
#
# Compressibility (1/GPa) = 0.01783769
#
# Stress axis : x y z
#
# Youngs Moduli (GPa) = 94.95208 66.78237 119.38676
#
# Poissons Ratio (x) = 0.32147 0.34137
# Poissons Ratio (y) = 0.45707 0.04167
# Poissons Ratio (z) = 0.27150 0.02331
#
# Static dielectric constant tensor:
#      x y z
#    x 1.679930 0.000000 0.000000 
#    y 0.000000 1.771060 0.000000 
#    z 0.000000 0.000000 1.686710 
# 
# From -- ./inp_files/21924.got.cif
#   From: 2010.05.17/outbox.cif.g08.bks.cpg/sg72_11_cif.got.tgz:21924.got - 2010.06.03 17:03:01.
