data_PCOD9527930
_publ_section_title
;
Structure prediction by ZEFSAII (Michael W. Deem and Ramdas Pophale) SiO2 
 PCOD9527930
Probable space group: I B A M
;
_chemical_formula_sum "Si O2"
_cell_formula_units_Z 68
_cell_length_a 13.035360
_cell_length_b 19.045265
_cell_length_c 13.500302
_cell_angle_alpha 90.000000
_cell_angle_beta 90.000000
_cell_angle_gamma 90.000000
_cell_volume 3351.610430
_symmetry_space_group_name_H-M "I B A M"
_symmetry_group_IT_number 72
_symmetry_cell_setting 'orthorhombic'
loop_
_space_group_symop_operation_xyz
x,y,z
-x,-y,z
x,-y,1/2-z
-x,y,1/2-z
-x,-y,-z
x,y,-z
-x,y,1/2+z
x,-y,1/2+z
1/2+x,1/2+y,1/2+z
1/2-x,1/2-y,1/2+z
1/2+x,1/2-y,-z
1/2-x,1/2+y,-z
1/2-x,1/2-y,1/2-z
1/2+x,1/2+y,1/2-z
1/2-x,1/2+y,z
1/2+x,1/2-y,z
loop_
_atom_site_type_symbol
_atom_site_label
_atom_site_fract_x
_atom_site_fract_y
_atom_site_fract_z
Si Si1 0.856037 0.223150 0.288604
Si Si2 0.468066 0.786380 0.614779
Si Si3 0.909219 0.445162 0.119488
Si Si4 0.500000 0.500000 0.750000
Si Si5 0.824860 0.071495 0.381012
O O1 0.750000 0.250000 0.250000
O O2 0.920733 0.226242 0.185501
O O3 0.834647 0.151774 0.345821
O O4 0.911934 0.276349 0.363702
O O5 0.442347 0.777124 0.500000
O O6 0.434863 0.864405 0.647577
O O7 0.789503 0.457501 0.147171
O O8 0.000000 0.500000 0.148087
O O9 0.910157 0.445846 0.000000
O O10 0.420119 0.537638 0.823832
O O11 0.834345 0.065820 0.500000
#
# Coordination Sequence:
#
# PCOD9527930 Si02
#       5
#    16  16  16   4  16
#     4  11  22  38  62  95 124 164 216 260 329 395
#     4  10  21  38  61  92 129 166 214 274 327 387
#     4   9  19  39  66  94 126 169 216 267 332 388
#     4  12  26  44  66 102 128 184 232 254 324 418
#     4  11  24  45  69  95 137 175 216 282 333 391
#
# _framework density 20.288754999999998
#
# number of rings (size 3 to 8) (size 9 to 14) (size 15 to 20)
#    0.000    1.647    2.353    2.471    0.000    2.824 
#    0.000    1.176    0.000    0.000    0.000    0.000 
#    0.000    0.941    0.000    0.000    0.000    0.000 
#
# Total GULP energy -189332.551925 kJ/mol
# GULP energy per Si atom -5568.604468 kJ/mol
# Density = 2.024258 g / cm^3
# Si number density = 20.288755 Si / 1000 Ang^3
#
#
#
# Elastic Constant Matrix: (Units=GPa)
#
#
# Indices 1 2 3 4 5 6 
#
# 1 170.5899 60.0852 46.6292 0.0000 0.0000 0.0000
# 2 60.0852 61.7455 38.7732 0.0002 0.0000 0.0000
# 3 46.6292 38.7732 134.0536 0.0005 0.0000 -0.0001
# 4 0.0000 0.0002 0.0005 24.6274 0.0000 -0.0001
# 5 0.0000 0.0000 0.0000 0.0000 19.9192 0.0000
# 6 0.0000 0.0000 -0.0001 -0.0001 0.0000 39.5380
#
#
#
# Elastic Compliance Matrix: (Units=1/GPa)
#
#
# Indices 1 2 3 4 5 6 
#
# 1 0.008977 -0.008278 -0.000728 0.000000 0.000000 0.000000
# 2 -0.008278 0.027424 -0.005052 0.000000 0.000000 0.000000
# 3 -0.000728 -0.005052 0.009174 0.000000 0.000000 0.000000
# 4 0.000000 0.000000 0.000000 0.040605 0.000000 0.000000
# 5 0.000000 0.000000 0.000000 0.000000 0.050203 0.000000
# 6 0.000000 0.000000 0.000000 0.000000 0.000000 0.025292
#
#
# Mechanical properties :
#
#
# Convention : Reuss Voigt Hill
#
# Bulk Modulus (GPa) = 57.28250 73.04048 65.16149
# Shear Modulus (GPa) = 25.56085 31.54369 28.55227
#
# Velocity S-wave (km/s) = 3.55329 3.94729 3.75546
# Velocity P-wave (km/s) = 6.71784 7.54012 7.14083
#
# Compressibility (1/GPa) = 0.01745734
#
# Stress axis : x y z
#
# Youngs Moduli (GPa) = 111.39854 36.46468 108.99963
#
# Poissons Ratio (x) = 0.30186 0.07937
# Poissons Ratio (y) = 0.92218 0.55072
# Poissons Ratio (z) = 0.08111 0.18424
#
# Static dielectric constant tensor:
#      x y z
#    x 1.641000 0.000000 0.000000 
#    y 0.000000 1.707130 0.000000 
#    z 0.000000 0.000000 3.471720 
# 
# From -- ./inp_files/19930.got.cif
#   From: 2010.05.17/outbox.cif.g08.bks.cpg/sg72_10_cif.got.tgz:19930.got - 2010.06.03 17:03:01.
