data_PCOD9527836
_publ_section_title
;
Structure prediction by ZEFSAII (Michael W. Deem and Ramdas Pophale) SiO2 
 PCOD9527836
Probable space group: I B A M
;
_chemical_formula_sum "Si O2"
_cell_formula_units_Z 64
_cell_length_a 9.179751
_cell_length_b 19.355572
_cell_length_c 12.772313
_cell_angle_alpha 90.000000
_cell_angle_beta 90.000000
_cell_angle_gamma 90.000000
_cell_volume 2269.376035
_symmetry_space_group_name_H-M "I B A M"
_symmetry_group_IT_number 72
_symmetry_cell_setting 'orthorhombic'
loop_
_space_group_symop_operation_xyz
x,y,z
-x,-y,z
x,-y,1/2-z
-x,y,1/2-z
-x,-y,-z
x,y,-z
-x,y,1/2+z
x,-y,1/2+z
1/2+x,1/2+y,1/2+z
1/2-x,1/2-y,1/2+z
1/2+x,1/2-y,-z
1/2-x,1/2+y,-z
1/2-x,1/2-y,1/2-z
1/2+x,1/2+y,1/2-z
1/2-x,1/2+y,z
1/2+x,1/2-y,z
loop_
_atom_site_type_symbol
_atom_site_label
_atom_site_fract_x
_atom_site_fract_y
_atom_site_fract_z
Si Si1 0.318405 0.544815 0.887573
Si Si2 0.454820 0.260827 0.121929
Si Si3 0.199524 0.892940 0.181833
Si Si4 0.015651 0.395509 0.384703
O O1 0.361367 0.598982 0.799405
O O2 0.354393 0.465054 0.867985
O O3 0.142149 0.548110 0.883327
O O4 0.367659 0.567840 0.000000
O O5 0.500000 0.264078 0.250000
O O6 0.339243 0.322782 0.124804
O O7 0.410547 0.180449 0.117742
O O8 0.525466 0.268652 0.000000
O O9 0.375179 0.896953 0.188552
O O10 0.944945 0.401460 0.500000
#
# Coordination Sequence:
#
# PCOD9527836 Si02
#       4
#    16  16  16  16
#     4  10  21  37  62  95 124 158 207 261 318 374
#     4  11  25  43  65  95 129 168 213 260 315 381
#     4  11  22  40  65  91 126 166 207 262 321 375
#     4  10  21  38  63  95 129 164 207 260 317 377
#
# _framework density 28.201582999999999
#
# number of rings (size 3 to 8) (size 9 to 14) (size 15 to 20)
#    0.000    1.500    0.000    5.250    0.000    9.000 
#    0.000    7.500    0.000    7.500    0.000    0.000 
#    0.000    0.000    0.000    0.000    0.000    0.000 
#
# Total GULP energy -178529.224268 kJ/mol
# GULP energy per Si atom -5579.038258 kJ/mol
# Density = 2.813740 g / cm^3
# Si number density = 28.201583 Si / 1000 Ang^3
#
#
#
# Elastic Constant Matrix: (Units=GPa)
#
#
# Indices 1 2 3 4 5 6 
#
# 1 83.8843 29.3115 29.8534 0.0000 0.0000 0.0000
# 2 29.3115 176.9250 45.0871 0.0001 0.0000 0.0000
# 3 29.8534 45.0871 236.7133 0.0001 0.0000 0.0000
# 4 0.0000 0.0001 0.0001 0.0313 0.0000 0.0000
# 5 0.0000 0.0000 0.0000 0.0000 33.7909 0.0000
# 6 0.0000 0.0000 0.0000 0.0000 0.0000 34.6439
#
#
#
# Elastic Compliance Matrix: (Units=1/GPa)
#
#
# Indices 1 2 3 4 5 6 
#
# 1 0.013020 -0.001827 -0.001294 -0.000002 0.000000 0.000000
# 2 -0.001827 0.006197 -0.000950 -0.000016 0.000000 0.000000
# 3 -0.001294 -0.000950 0.004569 -0.000004 0.000000 0.000000
# 4 -0.000002 -0.000016 -0.000004 31.967215 0.000012 0.000011
# 5 0.000000 0.000000 0.000000 0.000012 0.029594 0.000000
# 6 0.000000 0.000000 0.000000 0.000011 0.000000 0.028865
#
#
# Mechanical properties :
#
#
# Convention : Reuss Voigt Hill
#
# Bulk Modulus (GPa) = 63.92493 78.44740 71.18616
# Shear Modulus (GPa) = 0.15594 39.91125 20.03360
#
# Velocity S-wave (km/s) = 0.23541 3.76601 2.66817
# Velocity P-wave (km/s) = 4.77391 6.84014 5.89821
#
# Compressibility (1/GPa) = 0.01564335
#
# Stress axis : x y z
#
# Youngs Moduli (GPa) = 76.80363 161.37067 218.88358
#
# Poissons Ratio (x) = 0.29488 0.28324
# Poissons Ratio (y) = 0.14035 0.20791
# Poissons Ratio (z) = 0.09938 0.15328
#
# Static dielectric constant tensor:
#      x y z
#    x 2.263760 0.000000 0.000000 
#    y 0.000000 2.011320 0.000000 
#    z 0.000000 0.000000 2.363930 
# 
# From -- ./inp_files/12378.got.cif
#   From: 2010.05.17/outbox.cif.g08.bks.cpg/sg72_7_cif.got.tgz:12378.got - 2010.06.03 17:03:01.
