data_PCOD9527097
_publ_section_title
;
Structure prediction by ZEFSAII (Michael W. Deem and Ramdas Pophale) SiO2 
 PCOD9527097
Probable space group: I B A M
;
_chemical_formula_sum "Si O2"
_cell_formula_units_Z 52
_cell_length_a 17.688974
_cell_length_b 14.230990
_cell_length_c 8.265464
_cell_angle_alpha 90.000000
_cell_angle_beta 90.000000
_cell_angle_gamma 90.000000
_cell_volume 2080.678578
_symmetry_space_group_name_H-M "I B A M"
_symmetry_group_IT_number 72
_symmetry_cell_setting 'orthorhombic'
loop_
_space_group_symop_operation_xyz
x,y,z
-x,-y,z
x,-y,1/2-z
-x,y,1/2-z
-x,-y,-z
x,y,-z
-x,y,1/2+z
x,-y,1/2+z
1/2+x,1/2+y,1/2+z
1/2-x,1/2-y,1/2+z
1/2+x,1/2-y,-z
1/2-x,1/2+y,-z
1/2-x,1/2-y,1/2-z
1/2+x,1/2+y,1/2-z
1/2-x,1/2+y,z
1/2+x,1/2-y,z
loop_
_atom_site_type_symbol
_atom_site_label
_atom_site_fract_x
_atom_site_fract_y
_atom_site_fract_z
Si Si1 0.176750 0.766810 0.500000
Si Si2 0.827491 0.500000 0.250000
Si Si3 0.612368 0.451846 0.000000
Si Si4 0.000000 0.000000 0.250000
Si Si5 0.585870 0.813186 0.186298
Si Si6 0.723108 0.393693 0.500000
O O1 0.180009 0.879035 0.500000
O O2 0.133571 0.736664 0.666473
O O3 0.257552 0.715867 0.500000
O O4 0.881441 0.580392 0.322066
O O5 0.769570 0.438679 0.354036
O O6 0.556409 0.437179 0.147800
O O7 0.641636 0.558610 0.000000
O O8 0.500000 0.814163 0.250000
O O9 0.586781 0.775804 0.000000
#
# Coordination Sequence:
#
# PCOD9527097 Si02
#       6
#     8   8   8   4  16   8
#     4  10  25  42  72 105 144 193 241 303 372 430
#     4  10  20  36  60  88 136 192 236 294 360 430
#     4  11  24  50  74 108 147 187 251 302 367 447
#     4  10  26  46  80 104 144 196 238 306 372 432
#     4  11  21  35  60  99 144 190 244 298 361 441
#     4  10  21  42  68  99 141 187 240 295 364 436
#
# _framework density 24.991848000000001
#
# number of rings (size 3 to 8) (size 9 to 14) (size 15 to 20)
#    0.000    1.538    3.077    1.385    2.154    1.231 
#    2.769   13.846    0.000    0.000    0.000    0.000 
#    0.000    0.000    0.000    0.000    0.000    0.000 
#
# Total GULP energy -145234.161771 kJ/mol
# GULP energy per Si atom -5585.929299 kJ/mol
# Density = 2.493497 g / cm^3
# Si number density = 24.991848 Si / 1000 Ang^3
#
#
#
# Elastic Constant Matrix: (Units=GPa)
#
#
# Indices 1 2 3 4 5 6 
#
# 1 130.9994 29.9982 42.6811 0.0000 0.0000 0.0000
# 2 29.9982 116.4374 19.6405 0.0000 0.0000 0.0000
# 3 42.6811 19.6405 173.4283 0.0000 0.0000 0.0000
# 4 0.0000 0.0000 0.0000 9.4278 0.0000 0.0000
# 5 0.0000 0.0000 0.0000 0.0000 31.9680 0.0000
# 6 0.0000 0.0000 0.0000 0.0000 0.0000 25.0734
#
#
#
# Elastic Compliance Matrix: (Units=1/GPa)
#
#
# Indices 1 2 3 4 5 6 
#
# 1 0.008699 -0.001917 -0.001924 0.000000 0.000000 0.000000
# 2 -0.001917 0.009178 -0.000568 0.000000 0.000000 0.000000
# 3 -0.001924 -0.000568 0.006304 0.000000 0.000000 0.000000
# 4 0.000000 0.000000 0.000000 0.106069 0.000000 0.000000
# 5 0.000000 0.000000 0.000000 0.000000 0.031281 0.000000
# 6 0.000000 0.000000 0.000000 0.000000 0.000000 0.039883
#
#
# Mechanical properties :
#
#
# Convention : Reuss Voigt Hill
#
# Bulk Modulus (GPa) = 65.08497 67.27830 66.18163
# Shear Modulus (GPa) = 23.21771 35.19684 29.20727
#
# Velocity S-wave (km/s) = 3.05128 3.75685 3.42229
# Velocity P-wave (km/s) = 6.20586 6.76735 6.49268
#
# Compressibility (1/GPa) = 0.01536453
#
# Stress axis : x y z
#
# Youngs Moduli (GPa) = 114.95098 108.95765 158.63380
#
# Poissons Ratio (x) = 0.20884 0.30519
# Poissons Ratio (y) = 0.22033 0.09005
# Poissons Ratio (z) = 0.22115 0.06185
#
# Static dielectric constant tensor:
#      x y z
#    x 1.860610 0.000000 0.000000 
#    y 0.000000 1.969490 0.000000 
#    z 0.000000 0.000000 2.097690 
# 
# From -- ./inp_files/5337.got.cif
#   From: 2010.05.17/outbox.cif.g08.bks.cpg/sg72_3_cif.got.tgz:5337.got - 2010.06.03 17:03:01.
