data_PCOD9527350
_publ_section_title
;
Structure prediction by ZEFSAII (Michael W. Deem and Ramdas Pophale) SiO2 
 PCOD9527350
Probable space group: I B A M
;
_chemical_formula_sum "Si O2"
_cell_formula_units_Z 80
_cell_length_a 16.083634
_cell_length_b 8.806510
_cell_length_c 27.355081
_cell_angle_alpha 90.000000
_cell_angle_beta 90.000000
_cell_angle_gamma 90.000000
_cell_volume 3874.592374
_symmetry_space_group_name_H-M "I B A M"
_symmetry_group_IT_number 72
_symmetry_cell_setting 'orthorhombic'
loop_
_space_group_symop_operation_xyz
x,y,z
-x,-y,z
x,-y,1/2-z
-x,y,1/2-z
-x,-y,-z
x,y,-z
-x,y,1/2+z
x,-y,1/2+z
1/2+x,1/2+y,1/2+z
1/2-x,1/2-y,1/2+z
1/2+x,1/2-y,-z
1/2-x,1/2+y,-z
1/2-x,1/2-y,1/2-z
1/2+x,1/2+y,1/2-z
1/2-x,1/2+y,z
1/2+x,1/2-y,z
loop_
_atom_site_type_symbol
_atom_site_label
_atom_site_fract_x
_atom_site_fract_y
_atom_site_fract_z
Si Si1 0.854814 0.805778 0.557800
Si Si2 0.147167 0.690596 0.669435
Si Si3 0.598979 0.671798 0.763375
Si Si4 0.525016 0.676428 0.860522
Si Si5 0.753128 0.441999 0.113167
O O1 0.859797 0.819637 0.500000
O O2 0.943136 0.801595 0.585032
O O3 0.805953 0.656130 0.574909
O O4 0.805902 0.945760 0.582548
O O5 0.145352 0.712291 0.727876
O O6 0.187745 0.540221 0.648253
O O7 0.197938 0.829305 0.645560
O O8 0.052356 0.716558 0.651858
O O9 0.625623 0.500000 0.750000
O O10 0.500000 0.678668 0.750000
O O11 0.599218 0.702478 0.821101
O O12 0.500000 0.500000 0.852920
#
# Coordination Sequence:
#
# PCOD9527350 Si02
#       5
#    16  16  16  16  16
#     4  11  23  41  63  88 120 163 209 260 313 363
#     4  10  20  38  63  90 121 165 198 252 310 369
#     4   9  14  30  59  86 114 153 193 236 297 355
#     4  11  19  37  63  92 120 159 210 251 300 369
#     4  10  22  41  60  89 127 159 204 258 312 372
#
# _framework density 20.647333
#
# number of rings (size 3 to 8) (size 9 to 14) (size 15 to 20)
#    0.000    1.800    6.000    0.600    0.000    1.200 
#    0.000   15.000    0.000    3.600    0.000    0.000 
#    0.000    0.000    0.000    0.000    0.000    0.000 
#
# Total GULP energy -223629.415685 kJ/mol
# GULP energy per Si atom -5590.735392 kJ/mol
# Density = 2.060034 g / cm^3
# Si number density = 20.647333 Si / 1000 Ang^3
#
#
#
# Elastic Constant Matrix: (Units=GPa)
#
#
# Indices 1 2 3 4 5 6 
#
# 1 47.9491 19.2746 39.7188 0.0000 0.0000 0.0000
# 2 19.2746 69.7404 32.7517 0.0000 0.0000 0.0000
# 3 39.7188 32.7517 150.7265 0.0000 0.0000 0.0000
# 4 0.0000 0.0000 0.0000 20.3427 0.0000 0.0000
# 5 0.0000 0.0000 0.0000 0.0000 25.9432 0.0000
# 6 0.0000 0.0000 0.0000 0.0000 0.0000 18.6921
#
#
#
# Elastic Compliance Matrix: (Units=1/GPa)
#
#
# Indices 1 2 3 4 5 6 
#
# 1 0.028032 -0.004765 -0.006352 0.000000 0.000000 0.000000
# 2 -0.004765 0.016778 -0.002390 0.000000 0.000000 0.000000
# 3 -0.006352 -0.002390 0.008828 0.000000 0.000000 0.000000
# 4 0.000000 0.000000 0.000000 0.049158 0.000000 0.000000
# 5 0.000000 0.000000 0.000000 0.000000 0.038546 0.000000
# 6 0.000000 0.000000 0.000000 0.000000 0.000000 0.053499
#
#
# Mechanical properties :
#
#
# Convention : Reuss Voigt Hill
#
# Bulk Modulus (GPa) = 37.55841 50.21179 43.88510
# Shear Modulus (GPa) = 21.67056 24.77366 23.22211
#
# Velocity S-wave (km/s) = 3.24320 3.46764 3.35730
# Velocity P-wave (km/s) = 5.67930 6.35644 6.02738
#
# Compressibility (1/GPa) = 0.02662520
#
# Stress axis : x y z
#
# Youngs Moduli (GPa) = 35.67342 59.60116 113.28024
#
# Poissons Ratio (x) = 0.28397 0.71951
# Poissons Ratio (y) = 0.16997 0.27077
# Poissons Ratio (z) = 0.22658 0.14246
#
# Static dielectric constant tensor:
#      x y z
#    x 1.769170 0.000000 0.000000 
#    y 0.000000 1.737910 0.000000 
#    z 0.000000 0.000000 1.727890 
# 
# From -- ./inp_files/47175.got.cif
#   From: 2010.05.17/outbox.cif.g08.bks.cpg/sg72_24_cif.got.tgz:47175.got - 2010.06.03 17:03:01.
