data_PCOD9527020
_publ_section_title
;
Structure prediction by ZEFSAII (Michael W. Deem and Ramdas Pophale) SiO2 
 PCOD9527020
Probable space group: I B A M
;
_chemical_formula_sum "Si O2"
_cell_formula_units_Z 80
_cell_length_a 25.953498
_cell_length_b 9.166548
_cell_length_c 15.681543
_cell_angle_alpha 90.000000
_cell_angle_beta 90.000000
_cell_angle_gamma 90.000000
_cell_volume 3730.701574
_symmetry_space_group_name_H-M "I B A M"
_symmetry_group_IT_number 72
_symmetry_cell_setting 'orthorhombic'
loop_
_space_group_symop_operation_xyz
x,y,z
-x,-y,z
x,-y,1/2-z
-x,y,1/2-z
-x,-y,-z
x,y,-z
-x,y,1/2+z
x,-y,1/2+z
1/2+x,1/2+y,1/2+z
1/2-x,1/2-y,1/2+z
1/2+x,1/2-y,-z
1/2-x,1/2+y,-z
1/2-x,1/2-y,1/2-z
1/2+x,1/2+y,1/2-z
1/2-x,1/2+y,z
1/2+x,1/2-y,z
loop_
_atom_site_type_symbol
_atom_site_label
_atom_site_fract_x
_atom_site_fract_y
_atom_site_fract_z
Si Si1 0.420846 0.350977 0.895909
Si Si2 0.188858 0.754857 0.902366
Si Si3 0.516662 0.160038 0.895550
Si Si4 0.614073 0.325999 0.103119
Si Si5 0.218972 0.064827 0.156749
O O1 0.369437 0.264954 0.868033
O O2 0.473669 0.277081 0.867722
O O3 0.411832 0.518899 0.872141
O O4 0.420759 0.348437 0.000000
O O5 0.227953 0.649140 0.855096
O O6 0.210216 0.921276 0.901073
O O7 0.186576 0.704549 0.000000
O O8 0.574032 0.203481 0.868732
O O9 0.500000 0.000000 0.868242
O O10 0.516670 0.162549 0.000000
O O11 0.671521 0.326409 0.138846
O O12 0.618106 0.322957 0.000000
O O13 0.214545 0.000000 0.250000
#
# Coordination Sequence:
#
# PCOD9527020 Si02
#       5
#    16  16  16  16  16
#     4   8  15  28  47  71  98 134 179 226 276 330
#     4  10  20  36  57  79 107 145 191 237 284 343
#     4   9  16  26  45  77 108 132 170 227 283 328
#     4   9  17  31  51  73 103 143 183 223 273 337
#     4  11  22  36  54  82 114 149 190 236 289 344
#
# _framework density 21.443687000000001
#
# number of rings (size 3 to 8) (size 9 to 14) (size 15 to 20)
#    0.000    2.600    0.000    4.200    0.000    4.000 
#    0.000    4.000    0.000    9.600    0.000    5.600 
#    0.000    0.000    0.000    0.000    0.000    0.600 
#
# Total GULP energy -223384.217453 kJ/mol
# GULP energy per Si atom -5584.605436 kJ/mol
# Density = 2.139488 g / cm^3
# Si number density = 21.443687 Si / 1000 Ang^3
#
#
#
# Elastic Constant Matrix: (Units=GPa)
#
#
# Indices 1 2 3 4 5 6 
#
# 1 83.1421 14.4201 24.9246 0.0000 0.0000 0.0000
# 2 14.4201 17.8804 10.3225 0.0000 0.0000 0.0000
# 3 24.9246 10.3225 35.5123 0.0000 0.0000 0.0000
# 4 0.0000 0.0000 0.0000 -1.7126 0.0000 0.0000
# 5 0.0000 0.0000 0.0000 0.0000 -15.9840 0.0000
# 6 0.0000 0.0000 0.0000 0.0000 0.0000 49.1978
#
#
#
# Elastic Compliance Matrix: (Units=1/GPa)
#
#
# Indices 1 2 3 4 5 6 
#
# 1 0.016080 -0.007754 -0.009032 0.000000 0.000000 0.000000
# 2 -0.007754 0.070944 -0.015179 0.000000 0.000000 0.000000
# 3 -0.009032 -0.015179 0.038911 0.000000 0.000000 0.000000
# 4 0.000000 0.000000 0.000000 -0.583891 0.000000 0.000000
# 5 0.000000 0.000000 0.000000 0.000000 -0.062563 0.000000
# 6 0.000000 0.000000 0.000000 0.000000 0.000000 0.020326
#
#
# Mechanical properties :
#
#
# Convention : Reuss Voigt Hill
#
# Bulk Modulus (GPa) = 16.12804 26.20768 21.16786
# Shear Modulus (GPa) = -12.03095 12.09140 0.03023
#
# Velocity S-wave (km/s) = -2.37122 2.37717 0.11886
# Velocity P-wave (km/s) = 0.20138 4.44778 3.14828
#
# Compressibility (1/GPa) = 0.06200382
#
# Stress axis : x y z
#
# Youngs Moduli (GPa) = 62.18870 14.09568 25.69987
#
# Poissons Ratio (x) = 0.10930 0.23212
# Poissons Ratio (y) = 0.48221 0.39011
# Poissons Ratio (z) = 0.56169 0.21396
#
# Static dielectric constant tensor:
#      x y z
#    x 1.754630 0.000000 0.000000 
#    y 0.000000 1.760610 0.000000 
#    z 0.000000 0.000000 1.818960 
# 
# From -- ./inp_files/33778.got.cif
#   From: 2010.05.17/outbox.cif.g08.bks.cpg/sg72_17_cif.got.tgz:33778.got - 2010.06.03 17:03:01.
