data_PCOD9527895
_publ_section_title
;
Structure prediction by ZEFSAII (Michael W. Deem and Ramdas Pophale) SiO2 
 PCOD9527895
Probable space group: I B A M
;
_chemical_formula_sum "Si O2"
_cell_formula_units_Z 112
_cell_length_a 12.260148
_cell_length_b 30.832480
_cell_length_c 15.318549
_cell_angle_alpha 90.000000
_cell_angle_beta 90.000000
_cell_angle_gamma 90.000000
_cell_volume 5790.576472
_symmetry_space_group_name_H-M "I B A M"
_symmetry_group_IT_number 72
_symmetry_cell_setting 'orthorhombic'
loop_
_space_group_symop_operation_xyz
x,y,z
-x,-y,z
x,-y,1/2-z
-x,y,1/2-z
-x,-y,-z
x,y,-z
-x,y,1/2+z
x,-y,1/2+z
1/2+x,1/2+y,1/2+z
1/2-x,1/2-y,1/2+z
1/2+x,1/2-y,-z
1/2-x,1/2+y,-z
1/2-x,1/2-y,1/2-z
1/2+x,1/2+y,1/2-z
1/2-x,1/2+y,z
1/2+x,1/2-y,z
loop_
_atom_site_type_symbol
_atom_site_label
_atom_site_fract_x
_atom_site_fract_y
_atom_site_fract_z
Si Si1 0.137382 0.457454 0.190728
Si Si2 0.510356 0.806332 0.397121
Si Si3 0.846872 0.022644 0.101398
Si Si4 0.545258 0.906793 0.096426
Si Si5 0.257306 0.386019 0.306380
Si Si6 0.444424 0.569172 0.893713
Si Si7 0.676031 0.792020 0.242617
O O1 0.128828 0.500000 0.250000
O O2 0.219592 0.470795 0.113818
O O3 0.208665 0.419583 0.235967
O O4 0.023050 0.438071 0.158911
O O5 0.513197 0.793145 0.500000
O O6 0.505742 0.858806 0.396398
O O7 0.610097 0.794420 0.333872
O O8 0.406103 0.789872 0.340974
O O9 0.929885 0.060244 0.132741
O O10 0.883843 0.975625 0.134992
O O11 0.872527 0.020288 0.000000
O O12 0.671641 0.897932 0.116323
O O13 0.532914 0.924367 0.000000
O O14 0.377848 0.394536 0.342224
O O15 0.239077 0.337330 0.272953
O O16 0.436185 0.575325 0.000000
O O17 0.750000 0.750000 0.250000
#
# Coordination Sequence:
#
# PCOD9527895 Si02
#       7
#    16  16  16  16  16  16  16
#     4  12  22  35  54  85 120 151 195 247 292 350
#     4   9  19  39  65  91 120 160 203 245 307 381
#     4   9  19  36  54  75 109 156 202 242 290 349
#     4  10  21  38  60  82 115 159 199 241 297 362
#     4  11  21  37  57  86 118 151 195 243 297 360
#     4   9  18  36  57  77 109 155 205 245 286 349
#     4  10  21  39  64  91 124 157 197 253 312 368
#
# _framework density 19.34177
#
# number of rings (size 3 to 8) (size 9 to 14) (size 15 to 20)
#    0.000    2.000    2.857    2.143    0.000    2.857 
#    0.000    3.571    0.000    1.714    0.000    0.000 
#    0.000    0.000    0.000    0.000    0.000    0.000 
#
# Total GULP energy -312142.656764 kJ/mol
# GULP energy per Si atom -5573.976014 kJ/mol
# Density = 1.929775 g / cm^3
# Si number density = 19.341770 Si / 1000 Ang^3
#
#
#
# Elastic Constant Matrix: (Units=GPa)
#
#
# Indices 1 2 3 4 5 6 
#
# 1 75.0694 45.3092 32.4288 0.0000 0.0000 0.0000
# 2 45.3092 97.0958 41.0535 0.0000 0.0000 0.0000
# 3 32.4288 41.0535 107.4235 0.0004 -0.0002 -0.0001
# 4 0.0000 0.0000 0.0004 17.9668 -0.0001 0.0000
# 5 0.0000 0.0000 -0.0002 -0.0001 23.8744 0.0001
# 6 0.0000 0.0000 -0.0001 0.0000 0.0001 35.4354
#
#
#
# Elastic Compliance Matrix: (Units=1/GPa)
#
#
# Indices 1 2 3 4 5 6 
#
# 1 0.019242 -0.007780 -0.002835 0.000000 0.000000 0.000000
# 2 -0.007780 0.015430 -0.003548 0.000000 0.000000 0.000000
# 3 -0.002835 -0.003548 0.011521 0.000000 0.000000 0.000000
# 4 0.000000 0.000000 0.000000 0.055658 0.000000 0.000000
# 5 0.000000 0.000000 0.000000 0.000000 0.041886 0.000000
# 6 0.000000 0.000000 0.000000 0.000000 0.000000 0.028220
#
#
# Mechanical properties :
#
#
# Convention : Reuss Voigt Hill
#
# Bulk Modulus (GPa) = 55.97489 57.46353 56.71921
# Shear Modulus (GPa) = 24.24372 26.17513 25.20942
#
# Velocity S-wave (km/s) = 3.54423 3.68271 3.61413
# Velocity P-wave (km/s) = 6.76399 6.91789 6.84137
#
# Compressibility (1/GPa) = 0.01786515
#
# Stress axis : x y z
#
# Youngs Moduli (GPa) = 51.97060 64.80937 86.79930
#
# Poissons Ratio (x) = 0.50423 0.24610
# Poissons Ratio (y) = 0.40434 0.30797
# Poissons Ratio (z) = 0.14735 0.22995
#
# Static dielectric constant tensor:
#      x y z
#    x 1.730850 0.000000 0.000000 
#    y 0.000000 1.655930 0.000000 
#    z 0.000000 0.000000 1.736420 
# 
# From -- ./inp_files/20678.got.cif
#   From: 2010.05.17/outbox.cif.g08.bks.cpg/sg72_11_cif.got.tgz:20678.got - 2010.06.03 17:03:01.
