data_PCOD9527854
_publ_section_title
;
Structure prediction by ZEFSAII (Michael W. Deem and Ramdas Pophale) SiO2 
 PCOD9527854
Probable space group: I B A M
;
_chemical_formula_sum "Si O2"
_cell_formula_units_Z 92
_cell_length_a 25.662051
_cell_length_b 22.233610
_cell_length_c 9.246059
_cell_angle_alpha 90.000000
_cell_angle_beta 90.000000
_cell_angle_gamma 90.000000
_cell_volume 5275.431735
_symmetry_space_group_name_H-M "I B A M"
_symmetry_group_IT_number 72
_symmetry_cell_setting 'orthorhombic'
loop_
_space_group_symop_operation_xyz
x,y,z
-x,-y,z
x,-y,1/2-z
-x,y,1/2-z
-x,-y,-z
x,y,-z
-x,y,1/2+z
x,-y,1/2+z
1/2+x,1/2+y,1/2+z
1/2-x,1/2-y,1/2+z
1/2+x,1/2-y,-z
1/2-x,1/2+y,-z
1/2-x,1/2-y,1/2-z
1/2+x,1/2+y,1/2-z
1/2-x,1/2+y,z
1/2+x,1/2-y,z
loop_
_atom_site_type_symbol
_atom_site_label
_atom_site_fract_x
_atom_site_fract_y
_atom_site_fract_z
Si Si1 0.084973 0.000000 0.250000
Si Si2 0.556273 0.062675 0.175421
Si Si3 0.723901 0.944865 0.833815
Si Si4 0.804845 0.233765 0.826442
Si Si5 0.500000 0.500000 0.000000
Si Si6 0.672351 0.404366 0.673248
Si Si7 0.632908 0.849493 0.832248
O O1 0.122481 0.057629 0.276335
O O2 0.045644 0.990426 0.379307
O O3 0.500000 0.072904 0.250000
O O4 0.593235 0.116868 0.226689
O O5 0.574575 0.000000 0.250000
O O6 0.553443 0.057260 0.000000
O O7 0.777110 0.930905 0.751839
O O8 0.685993 0.888185 0.829988
O O9 0.698010 0.000000 0.750000
O O10 0.733831 0.960892 0.000000
O O11 0.750000 0.250000 0.750000
O O12 0.825368 0.166859 0.792871
O O13 0.849023 0.282849 0.789759
O O14 0.796363 0.237565 0.000000
O O15 0.676745 0.410827 0.500000
O O16 0.613785 0.849991 0.000000
#
# Coordination Sequence:
#
# PCOD9527854 Si02
#       7
#     8  16  16  16   4  16  16
#     4  11  22  42  64  92 116 152 199 254 314 364
#     4  11  22  38  63  89 116 154 199 246 297 350
#     4  11  22  33  52  84 120 156 196 242 294 349
#     4  10  21  38  58  85 122 165 201 240 290 360
#     4  10  24  42  68  86 116 150 196 258 316 366
#     4  11  22  36  60  88 120 155 194 240 302 365
#     4  10  21  38  57  82 122 162 199 245 289 344
#
# _framework density 17.439330000000002
#
# number of rings (size 3 to 8) (size 9 to 14) (size 15 to 20)
#    0.000    1.391    3.478    3.130    1.217    3.478 
#    0.000    0.000    3.826    0.000    0.000    0.000 
#    0.000    0.000    0.000    0.000    0.000    0.000 
#
# Total GULP energy -256096.577768 kJ/mol
# GULP energy per Si atom -5567.316908 kJ/mol
# Density = 1.739964 g / cm^3
# Si number density = 17.439330 Si / 1000 Ang^3
#
#
#
# Elastic Constant Matrix: (Units=GPa)
#
#
# Indices 1 2 3 4 5 6 
#
# 1 104.7536 51.8405 59.5295 0.0000 0.0000 0.0000
# 2 51.8405 135.4657 55.2639 0.0000 0.0000 0.0000
# 3 59.5295 55.2639 136.9764 0.0000 0.0000 0.0000
# 4 0.0000 0.0000 0.0000 24.8551 0.0000 0.0000
# 5 0.0000 0.0000 0.0000 0.0000 43.1154 0.0000
# 6 0.0000 0.0000 0.0000 0.0000 0.0000 16.5978
#
#
#
# Elastic Compliance Matrix: (Units=1/GPa)
#
#
# Indices 1 2 3 4 5 6 
#
# 1 0.013881 -0.003413 -0.004656 0.000000 0.000000 0.000000
# 2 -0.003413 0.009675 -0.002420 0.000000 0.000000 0.000000
# 3 -0.004656 -0.002420 0.010300 0.000000 0.000000 0.000000
# 4 0.000000 0.000000 0.000000 0.040233 0.000000 0.000000
# 5 0.000000 0.000000 0.000000 0.000000 0.023194 0.000000
# 6 0.000000 0.000000 0.000000 0.000000 0.000000 0.060249
#
#
# Mechanical properties :
#
#
# Convention : Reuss Voigt Hill
#
# Bulk Modulus (GPa) = 77.64588 78.94041 78.29314
# Shear Modulus (GPa) = 27.35188 30.95112 29.15150
#
# Velocity S-wave (km/s) = 3.96460 4.21739 4.09295
# Velocity P-wave (km/s) = 8.09799 8.31139 8.20539
#
# Compressibility (1/GPa) = 0.01287898
#
# Stress axis : x y z
#
# Youngs Moduli (GPa) = 72.04183 103.35558 97.08330
#
# Poissons Ratio (x) = 0.35272 0.45199
# Poissons Ratio (y) = 0.24585 0.23498
# Poissons Ratio (z) = 0.33541 0.25017
#
# Static dielectric constant tensor:
#      x y z
#    x 1.569280 0.000000 0.000000 
#    y 0.000000 1.631810 0.000000 
#    z 0.000000 0.000000 1.589600 
# 
# From -- ./inp_files/8093.got.cif
#   From: 2010.05.17/outbox.cif.g08.bks.cpg/sg72_5_cif.got.tgz:8093.got - 2010.06.03 17:03:01.
