data_PCOD9527191
_publ_section_title
;
Structure prediction by ZEFSAII (Michael W. Deem and Ramdas Pophale) SiO2 
 PCOD9527191
Probable space group: I B A M
;
_chemical_formula_sum "Si O2"
_cell_formula_units_Z 120
_cell_length_a 11.125088
_cell_length_b 21.126127
_cell_length_c 24.174321
_cell_angle_alpha 90.000000
_cell_angle_beta 90.000000
_cell_angle_gamma 90.000000
_cell_volume 5681.691196
_symmetry_space_group_name_H-M "I B A M"
_symmetry_group_IT_number 72
_symmetry_cell_setting 'orthorhombic'
loop_
_space_group_symop_operation_xyz
x,y,z
-x,-y,z
x,-y,1/2-z
-x,y,1/2-z
-x,-y,-z
x,y,-z
-x,y,1/2+z
x,-y,1/2+z
1/2+x,1/2+y,1/2+z
1/2-x,1/2-y,1/2+z
1/2+x,1/2-y,-z
1/2-x,1/2+y,-z
1/2-x,1/2-y,1/2-z
1/2+x,1/2+y,1/2-z
1/2-x,1/2+y,z
1/2+x,1/2-y,z
loop_
_atom_site_type_symbol
_atom_site_label
_atom_site_fract_x
_atom_site_fract_y
_atom_site_fract_z
Si Si1 0.202314 0.971361 0.936909
Si Si2 0.500000 0.500000 0.353676
Si Si3 0.518591 0.169223 0.145604
Si Si4 0.917110 0.437457 0.064447
Si Si5 0.221403 0.670015 0.562071
Si Si6 0.083736 0.799860 0.138202
Si Si7 0.724295 0.178256 0.770953
Si Si8 0.407902 0.622046 0.800188
O O1 0.278627 0.906632 0.933387
O O2 0.284153 0.033138 0.926882
O O3 0.157198 0.974612 0.000000
O O4 0.096224 0.966673 0.893245
O O5 0.569250 0.550640 0.317128
O O6 0.456939 0.111474 0.112257
O O7 0.619659 0.194909 0.102780
O O8 0.427573 0.226659 0.154017
O O9 0.595337 0.161604 0.202421
O O10 0.000000 0.500000 0.066799
O O11 0.925606 0.413192 0.000000
O O12 0.193823 0.688145 0.500000
O O13 0.354793 0.692101 0.579007
O O14 0.183608 0.831506 0.177937
O O15 0.957082 0.833428 0.150601
O O16 0.750000 0.250000 0.750000
O O17 0.774682 0.135261 0.721427
O O18 0.500000 0.637900 0.750000
#
# Coordination Sequence:
#
# PCOD9527191 Si02
#       8
#    16   8  16  16  16  16  16  16
#     4  10  21  38  61  88 122 165 207 248 312 394
#     4  12  22  38  64  90 122 162 204 272 322 372
#     4  11  21  36  63  89 120 166 214 264 320 382
#     4  10  20  37  61  89 124 169 215 256 315 392
#     4  10  20  37  59  85 122 163 203 252 316 384
#     4  10  21  37  59  87 118 157 209 251 311 385
#     4  10  21  38  62  88 119 160 210 260 322 389
#     4  10  21  38  57  86 116 156 208 256 313 380
#
# _framework density 21.120470999999998
#
# number of rings (size 3 to 8) (size 9 to 14) (size 15 to 20)
#    0.000    1.733    4.000    0.800    0.000    2.133 
#    0.000    0.000    0.000    0.000    3.467    0.000 
#    0.000    0.000    0.000    0.000    0.000    0.000 
#
# Total GULP energy -334636.223723 kJ/mol
# GULP energy per Si atom -5577.270395 kJ/mol
# Density = 2.107240 g / cm^3
# Si number density = 21.120471 Si / 1000 Ang^3
#
#
#
# Elastic Constant Matrix: (Units=GPa)
#
#
# Indices 1 2 3 4 5 6 
#
# 1 51.8239 21.4321 45.2055 0.0000 0.0000 0.0000
# 2 21.4321 83.5729 22.5694 0.0000 0.0000 0.0000
# 3 45.2055 22.5694 69.6740 0.0000 0.0000 0.0000
# 4 0.0000 0.0000 0.0000 29.4670 0.0000 0.0000
# 5 0.0000 0.0000 0.0000 0.0000 16.5201 0.0000
# 6 0.0000 0.0000 0.0000 0.0000 0.0000 30.5517
#
#
#
# Elastic Compliance Matrix: (Units=1/GPa)
#
#
# Indices 1 2 3 4 5 6 
#
# 1 0.045684 -0.004067 -0.028323 0.000000 0.000000 0.000000
# 2 -0.004067 0.013475 -0.001726 0.000000 0.000000 0.000000
# 3 -0.028323 -0.001726 0.033288 0.000000 0.000000 0.000000
# 4 0.000000 0.000000 0.000000 0.033936 0.000000 0.000000
# 5 0.000000 0.000000 0.000000 0.000000 0.060532 0.000000
# 6 0.000000 0.000000 0.000000 0.000000 0.000000 0.032731
#
#
# Mechanical properties :
#
#
# Convention : Reuss Voigt Hill
#
# Bulk Modulus (GPa) = 41.29733 42.60939 41.95336
# Shear Modulus (GPa) = 16.89474 23.03201 19.96337
#
# Velocity S-wave (km/s) = 2.83136 3.30586 3.07777
# Velocity P-wave (km/s) = 5.50313 5.89830 5.70414
#
# Compressibility (1/GPa) = 0.02421464
#
# Stress axis : x y z
#
# Youngs Moduli (GPa) = 21.88962 74.21314 30.04076
#
# Poissons Ratio (x) = 0.30180 0.85084
# Poissons Ratio (y) = 0.08902 0.05186
# Poissons Ratio (z) = 0.61998 0.12812
#
# Static dielectric constant tensor:
#      x y z
#    x 1.822410 0.000000 0.000000 
#    y 0.000000 1.765710 0.000000 
#    z 0.000000 0.000000 1.803450 
# 
# From -- ./inp_files/43577.got.cif
#   From: 2010.05.17/outbox.cif.g08.bks.cpg/sg72_22_cif.got.tgz:43577.got - 2010.06.03 17:03:01.
