data_PCOD9527059
_publ_section_title
;
Structure prediction by ZEFSAII (Michael W. Deem and Ramdas Pophale) SiO2 
 PCOD9527059
Probable space group: I B A M
;
_chemical_formula_sum "Si O2"
_cell_formula_units_Z 112
_cell_length_a 27.527926
_cell_length_b 12.410950
_cell_length_c 16.784079
_cell_angle_alpha 90.000000
_cell_angle_beta 90.000000
_cell_angle_gamma 90.000000
_cell_volume 5734.242208
_symmetry_space_group_name_H-M "I B A M"
_symmetry_group_IT_number 72
_symmetry_cell_setting 'orthorhombic'
loop_
_space_group_symop_operation_xyz
x,y,z
-x,-y,z
x,-y,1/2-z
-x,y,1/2-z
-x,-y,-z
x,y,-z
-x,y,1/2+z
x,-y,1/2+z
1/2+x,1/2+y,1/2+z
1/2-x,1/2-y,1/2+z
1/2+x,1/2-y,-z
1/2-x,1/2+y,-z
1/2-x,1/2-y,1/2-z
1/2+x,1/2+y,1/2-z
1/2-x,1/2+y,z
1/2+x,1/2-y,z
loop_
_atom_site_type_symbol
_atom_site_label
_atom_site_fract_x
_atom_site_fract_y
_atom_site_fract_z
Si Si1 0.879619 0.589985 0.815046
Si Si2 0.701795 0.204354 0.709695
Si Si3 0.295274 0.011354 0.091504
Si Si4 0.936774 0.227936 0.402670
Si Si5 0.031963 0.890418 0.090021
Si Si6 0.698227 0.386205 0.410613
Si Si7 0.618144 0.513780 0.341634
O O1 0.896113 0.500000 0.750000
O O2 0.839876 0.664027 0.769083
O O3 0.847949 0.531597 0.883374
O O4 0.918959 0.665461 0.857526
O O5 0.750000 0.250000 0.750000
O O6 0.716475 0.104622 0.653861
O O7 0.682547 0.297667 0.652402
O O8 0.254191 0.919846 0.100410
O O9 0.293958 0.047560 0.000000
O O10 0.931271 0.231658 0.500000
O O11 0.905693 0.126999 0.367765
O O12 0.993407 0.200228 0.385860
O O13 0.077507 0.921399 0.143089
O O14 0.049215 0.869007 0.000000
O O15 0.000000 0.000000 0.087451
O O16 0.691710 0.346303 0.500000
O O17 0.664594 0.489601 0.395815
O O18 0.632448 0.500000 0.250000
#
# Coordination Sequence:
#
# PCOD9527059 Si02
#       7
#    16  16  16  16  16  16  16
#     4  10  21  37  57  83 115 154 201 257 302 343
#     4  11  22  37  54  74 114 151 194 245 302 349
#     4  10  22  37  54  77 110 155 203 247 292 349
#     4  10  20  36  59  86 118 159 201 241 293 360
#     4   8  16  33  53  79 117 152 183 228 288 353
#     4  11  23  36  54  81 114 155 201 239 285 354
#     4  11  22  33  55  88 127 156 191 235 298 358
#
# _framework density 19.531787000000001
#
# number of rings (size 3 to 8) (size 9 to 14) (size 15 to 20)
#    0.000    1.857    1.429    3.857    4.000    2.571 
#    0.000    0.000    0.000    0.000    0.000   17.000 
#    0.000   38.857    0.000    0.000    0.000    0.000 
#
# Total GULP energy -312520.350551 kJ/mol
# GULP energy per Si atom -5580.720546 kJ/mol
# Density = 1.948733 g / cm^3
# Si number density = 19.531787 Si / 1000 Ang^3
#
#
#
# Elastic Constant Matrix: (Units=GPa)
#
#
# Indices 1 2 3 4 5 6 
#
# 1 42.8295 26.4283 21.8176 0.0000 0.0000 0.0000
# 2 26.4283 71.8858 32.2773 0.0000 0.0000 0.0000
# 3 21.8176 32.2773 85.8802 0.0000 0.0000 0.0000
# 4 0.0000 0.0000 0.0000 17.3423 0.0000 0.0000
# 5 0.0000 0.0000 0.0000 0.0000 18.1333 0.0000
# 6 0.0000 0.0000 0.0000 0.0000 0.0000 33.8680
#
#
#
# Elastic Compliance Matrix: (Units=1/GPa)
#
#
# Indices 1 2 3 4 5 6 
#
# 1 0.031520 -0.009615 -0.004394 0.000000 0.000000 0.000000
# 2 -0.009615 0.019668 -0.004949 0.000000 0.000000 0.000000
# 3 -0.004394 -0.004949 0.014621 0.000000 0.000000 0.000000
# 4 0.000000 0.000000 0.000000 0.057663 0.000000 0.000000
# 5 0.000000 0.000000 0.000000 0.000000 0.055147 0.000000
# 6 0.000000 0.000000 0.000000 0.000000 0.000000 0.029526
#
#
# Mechanical properties :
#
#
# Convention : Reuss Voigt Hill
#
# Bulk Modulus (GPa) = 35.85277 40.18244 38.01760
# Shear Modulus (GPa) = 19.58032 21.87354 20.72693
#
# Velocity S-wave (km/s) = 3.16964 3.35011 3.26112
# Velocity P-wave (km/s) = 5.63839 5.96505 5.80402
#
# Compressibility (1/GPa) = 0.02789185
#
# Stress axis : x y z
#
# Youngs Moduli (GPa) = 31.72615 50.84341 68.39699
#
# Poissons Ratio (x) = 0.48887 0.30052
# Poissons Ratio (y) = 0.30505 0.33852
# Poissons Ratio (z) = 0.13940 0.25164
#
# Static dielectric constant tensor:
#      x y z
#    x 1.676210 0.000000 0.000000 
#    y 0.000000 1.712360 0.000000 
#    z 0.000000 0.000000 2.298830 
# 
# From -- ./inp_files/26399.got.cif
#   From: 2010.05.17/outbox.cif.g08.bks.cpg/sg72_14_cif.got.tgz:26399.got - 2010.06.03 17:03:01.
