data_PCOD9527141
_publ_section_title
;
Structure prediction by ZEFSAII (Michael W. Deem and Ramdas Pophale) SiO2 
 PCOD9527141
Probable space group: I B A M
;
_chemical_formula_sum "Si O2"
_cell_formula_units_Z 52
_cell_length_a 8.645678
_cell_length_b 13.845965
_cell_length_c 17.627200
_cell_angle_alpha 90.000000
_cell_angle_beta 90.000000
_cell_angle_gamma 90.000000
_cell_volume 2110.112539
_symmetry_space_group_name_H-M "I B A M"
_symmetry_group_IT_number 72
_symmetry_cell_setting 'orthorhombic'
loop_
_space_group_symop_operation_xyz
x,y,z
-x,-y,z
x,-y,1/2-z
-x,y,1/2-z
-x,-y,-z
x,y,-z
-x,y,1/2+z
x,-y,1/2+z
1/2+x,1/2+y,1/2+z
1/2-x,1/2-y,1/2+z
1/2+x,1/2-y,-z
1/2-x,1/2+y,-z
1/2-x,1/2-y,1/2-z
1/2+x,1/2+y,1/2-z
1/2-x,1/2+y,z
1/2+x,1/2-y,z
loop_
_atom_site_type_symbol
_atom_site_label
_atom_site_fract_x
_atom_site_fract_y
_atom_site_fract_z
Si Si1 0.680112 0.356987 0.768455
Si Si2 0.500000 0.000000 0.500000
Si Si3 0.166679 0.379831 0.877137
Si Si4 0.662527 0.188626 0.588334
O O1 0.500000 0.364765 0.750000
O O2 0.750000 0.250000 0.750000
O O3 0.770842 0.414896 0.703256
O O4 0.718286 0.367335 0.857210
O O5 0.378054 0.036735 0.433858
O O6 0.283845 0.299957 0.911312
O O7 0.003174 0.322640 0.871985
O O8 0.642143 0.154491 0.500000
#
# Coordination Sequence:
#
# PCOD9527141 Si02
#       4
#    16   4  16  16
#     4  10  20  36  62  96 131 170 226 288 345 404
#     4  12  24  40  62 102 134 182 228 290 366 424
#     4  11  22  39  66  96 136 176 234 291 357 420
#     4  11  19  37  64  97 125 172 231 292 338 412
#
# _framework density 24.643232999999999
#
# number of rings (size 3 to 8) (size 9 to 14) (size 15 to 20)
#    0.000    1.231    3.077    8.308    0.000    0.000 
#    2.769    3.077    0.000   16.615    0.000    0.000 
#    0.000    0.000    0.000    0.000    0.000    0.000 
#
# Total GULP energy -144914.759705 kJ/mol
# GULP energy per Si atom -5573.644604 kJ/mol
# Density = 2.458714 g / cm^3
# Si number density = 24.643233 Si / 1000 Ang^3
#
#
#
# Elastic Constant Matrix: (Units=GPa)
#
#
# Indices 1 2 3 4 5 6 
#
# 1 181.7239 29.6320 89.1321 0.0000 0.0000 0.0000
# 2 29.6320 75.9893 47.3713 0.0000 0.0000 0.0000
# 3 89.1321 47.3713 242.0711 0.0000 0.0000 0.0000
# 4 0.0000 0.0000 0.0000 57.6130 0.0000 0.0000
# 5 0.0000 0.0000 0.0000 0.0000 44.6414 0.0000
# 6 0.0000 0.0000 0.0000 0.0000 0.0000 23.9590
#
#
#
# Elastic Compliance Matrix: (Units=1/GPa)
#
#
# Indices 1 2 3 4 5 6 
#
# 1 0.006818 -0.001246 -0.002267 0.000000 0.000000 0.000000
# 2 -0.001246 0.015216 -0.002519 0.000000 0.000000 0.000000
# 3 -0.002267 -0.002519 0.005459 0.000000 0.000000 0.000000
# 4 0.000000 0.000000 0.000000 0.017357 0.000000 0.000000
# 5 0.000000 0.000000 0.000000 0.000000 0.022401 0.000000
# 6 0.000000 0.000000 0.000000 0.000000 0.000000 0.041738
#
#
# Mechanical properties :
#
#
# Convention : Reuss Voigt Hill
#
# Bulk Modulus (GPa) = 64.80995 92.45058 78.63027
# Shear Modulus (GPa) = 39.62175 47.48596 43.55385
#
# Velocity S-wave (km/s) = 4.01411 4.39445 4.20858
# Velocity P-wave (km/s) = 6.91668 7.95898 7.45606
#
# Compressibility (1/GPa) = 0.01542973
#
# Stress axis : x y z
#
# Youngs Moduli (GPa) = 146.67791 65.72131 183.19997
#
# Poissons Ratio (x) = 0.08186 0.41523
# Poissons Ratio (y) = 0.18270 0.46147
# Poissons Ratio (z) = 0.33245 0.16555
#
# Static dielectric constant tensor:
#      x y z
#    x 1.859640 0.000000 0.000000 
#    y 0.000000 1.893760 0.000000 
#    z 0.000000 0.000000 2.055260 
# 
# From -- ./inp_files/27411.got.cif
#   From: 2010.05.17/outbox.cif.g08.bks.cpg/sg72_14_cif.got.tgz:27411.got - 2010.06.03 17:03:01.
