data_PCOD9527922
_publ_section_title
;
Structure prediction by ZEFSAII (Michael W. Deem and Ramdas Pophale) SiO2 
 PCOD9527922
Probable space group: I B A M
;
_chemical_formula_sum "Si O2"
_cell_formula_units_Z 56
_cell_length_a 4.935775
_cell_length_b 24.502523
_cell_length_c 22.560673
_cell_angle_alpha 90.000000
_cell_angle_beta 90.000000
_cell_angle_gamma 90.000000
_cell_volume 2728.463889
_symmetry_space_group_name_H-M "I B A M"
_symmetry_group_IT_number 72
_symmetry_cell_setting 'orthorhombic'
loop_
_space_group_symop_operation_xyz
x,y,z
-x,-y,z
x,-y,1/2-z
-x,y,1/2-z
-x,-y,-z
x,y,-z
-x,y,1/2+z
x,-y,1/2+z
1/2+x,1/2+y,1/2+z
1/2-x,1/2-y,1/2+z
1/2+x,1/2-y,-z
1/2-x,1/2+y,-z
1/2-x,1/2-y,1/2-z
1/2+x,1/2+y,1/2-z
1/2-x,1/2+y,z
1/2+x,1/2-y,z
loop_
_atom_site_type_symbol
_atom_site_label
_atom_site_fract_x
_atom_site_fract_y
_atom_site_fract_z
Si Si1 0.859103 0.285520 0.070282
Si Si2 0.392311 0.105618 0.619800
Si Si3 0.255959 0.959071 0.000000
Si Si4 0.583519 0.560144 0.681044
O O1 0.555296 0.265984 0.082059
O O2 0.966652 0.337312 0.105426
O O3 0.881271 0.298121 0.000000
O O4 0.299632 0.077663 0.558186
O O5 0.611124 0.071711 0.659337
O O6 0.111909 0.106397 0.654834
O O7 0.500000 0.000000 0.000000
O O8 0.000000 0.000000 0.000000
O O9 0.500000 0.500000 0.657257
O O10 0.500000 0.558992 0.750000
#
# Coordination Sequence:
#
# PCOD9527922 Si02
#       4
#    16  16   8  16
#     4  10  21  38  61  89 121 158 205 250 305 378
#     4  12  22  40  63  90 125 161 204 259 316 369
#     4  12  24  36  56  94 132 160 190 248 325 384
#     4  11  24  41  63  88 121 168 216 252 297 373
#
# _framework density 20.524367999999999
#
# number of rings (size 3 to 8) (size 9 to 14) (size 15 to 20)
#    0.000    0.857    1.429    7.714    0.000    2.286 
#    0.000    0.000    0.000   17.143    0.000    0.000 
#    0.000    0.000    0.000    0.000    0.000    0.000 
#
# Total GULP energy -156358.459405 kJ/mol
# GULP energy per Si atom -5584.230693 kJ/mol
# Density = 2.047765 g / cm^3
# Si number density = 20.524368 Si / 1000 Ang^3
#
#
#
# Elastic Constant Matrix: (Units=GPa)
#
#
# Indices 1 2 3 4 5 6 
#
# 1 108.9338 -8.2282 14.3315 0.0000 0.0000 0.0000
# 2 -8.2282 55.9805 15.2468 0.0000 0.0000 0.0000
# 3 14.3315 15.2468 88.3299 0.0000 0.0000 0.0000
# 4 0.0000 0.0000 0.0000 17.5666 0.0000 0.0000
# 5 0.0000 0.0000 0.0000 0.0000 22.2438 0.0000
# 6 0.0000 0.0000 0.0000 0.0000 0.0000 22.4951
#
#
#
# Elastic Compliance Matrix: (Units=1/GPa)
#
#
# Indices 1 2 3 4 5 6 
#
# 1 0.009573 0.001920 -0.001885 0.000000 0.000000 0.000000
# 2 0.001920 0.019130 -0.003614 0.000000 0.000000 0.000000
# 3 -0.001885 -0.003614 0.012251 0.000000 0.000000 0.000000
# 4 0.000000 0.000000 0.000000 0.056926 0.000000 0.000000
# 5 0.000000 0.000000 0.000000 0.000000 0.044956 0.000000
# 6 0.000000 0.000000 0.000000 0.000000 0.000000 0.044454
#
#
# Mechanical properties :
#
#
# Convention : Reuss Voigt Hill
#
# Bulk Modulus (GPa) = 29.58791 32.88272 31.23532
# Shear Modulus (GPa) = 24.30584 27.92070 26.11327
#
# Velocity S-wave (km/s) = 3.44502 3.69232 3.57081
# Velocity P-wave (km/s) = 5.50195 5.85096 5.67914
#
# Compressibility (1/GPa) = 0.03379758
#
# Stress axis : x y z
#
# Youngs Moduli (GPa) = 104.46164 52.27444 81.62778
#
# Poissons Ratio (x) = -0.10039 0.15384
# Poissons Ratio (y) = -0.20060 0.29497
# Poissons Ratio (z) = 0.19688 0.18890
#
# Static dielectric constant tensor:
#      x y z
#    x 1.728700 0.000000 0.000000 
#    y 0.000000 1.730620 0.000000 
#    z 0.000000 0.000000 1.698500 
# 
# From -- ./inp_files/34657.got.cif
#   From: 2010.05.17/outbox.cif.g08.bks.cpg/sg72_18_cif.got.tgz:34657.got - 2010.06.03 17:03:01.
