data_PCOD9527177
_publ_section_title
;
Structure prediction by ZEFSAII (Michael W. Deem and Ramdas Pophale) SiO2 
 PCOD9527177
Probable space group: I B A M
;
_chemical_formula_sum "Si O2"
_cell_formula_units_Z 104
_cell_length_a 19.423203
_cell_length_b 25.125365
_cell_length_c 9.649378
_cell_angle_alpha 90.000000
_cell_angle_beta 90.000000
_cell_angle_gamma 90.000000
_cell_volume 4709.041830
_symmetry_space_group_name_H-M "I B A M"
_symmetry_group_IT_number 72
_symmetry_cell_setting 'orthorhombic'
loop_
_space_group_symop_operation_xyz
x,y,z
-x,-y,z
x,-y,1/2-z
-x,y,1/2-z
-x,-y,-z
x,y,-z
-x,y,1/2+z
x,-y,1/2+z
1/2+x,1/2+y,1/2+z
1/2-x,1/2-y,1/2+z
1/2+x,1/2-y,-z
1/2-x,1/2+y,-z
1/2-x,1/2-y,1/2-z
1/2+x,1/2+y,1/2-z
1/2-x,1/2+y,z
1/2+x,1/2-y,z
loop_
_atom_site_type_symbol
_atom_site_label
_atom_site_fract_x
_atom_site_fract_y
_atom_site_fract_z
Si Si1 0.623084 0.004087 0.500000
Si Si2 0.937986 0.917912 0.657974
Si Si3 0.618424 0.301498 0.335058
Si Si4 0.742127 0.656153 0.339670
Si Si5 0.279084 0.551689 0.335503
Si Si6 0.080613 0.426925 0.755476
Si Si7 0.898366 0.314407 0.157864
O O1 0.614307 0.957676 0.381256
O O2 0.617151 0.050795 0.380779
O O3 0.958551 0.925197 0.500000
O O4 0.925762 0.854946 0.684233
O O5 0.862339 0.943162 0.675029
O O6 0.000000 0.938039 0.750000
O O7 0.638414 0.301106 0.500000
O O8 0.683501 0.309153 0.234388
O O9 0.581727 0.245675 0.305187
O O10 0.723806 0.642207 0.500000
O O11 0.748129 0.603929 0.242286
O O12 0.815093 0.685173 0.343431
O O13 0.257701 0.500000 0.250000
O O14 0.261346 0.547006 0.500000
O O15 0.082259 0.363007 0.756272
O O16 0.000000 0.441876 0.750000
O O17 0.922273 0.325763 0.000000
#
# Coordination Sequence:
#
# PCOD9527177 Si02
#       7
#     8  16  16  16  16  16  16
#     4  10  21  38  60  78 104 150 186 218 273 340
#     4   9  19  34  56  82 111 147 185 221 275 330
#     4   9  19  38  59  77 112 153 184 225 278 331
#     4  10  20  37  58  83 110 148 188 227 277 332
#     4  10  21  39  59  82 114 150 185 229 279 329
#     4  11  20  37  59  80 109 144 184 227 278 332
#     4  10  21  37  57  85 112 143 187 234 280 326
#
# _framework density 22.085173000000001
#
# number of rings (size 3 to 8) (size 9 to 14) (size 15 to 20)
#    0.000    2.154    0.769    4.154    0.000    4.000 
#    6.923    1.538    0.000    0.000    0.000    0.000 
#    0.000    0.000    0.000    0.000    0.000    0.000 
#
# Total GULP energy -289622.409024 kJ/mol
# GULP energy per Si atom -5569.661712 kJ/mol
# Density = 2.203491 g / cm^3
# Si number density = 22.085173 Si / 1000 Ang^3
#
#
#
# Elastic Constant Matrix: (Units=GPa)
#
#
# Indices 1 2 3 4 5 6 
#
# 1 74.3456 -3.3821 36.3759 0.0000 0.0000 0.0000
# 2 -3.3821 143.3916 39.1382 0.0000 0.0000 0.0000
# 3 36.3759 39.1382 130.8253 0.0000 0.0000 0.0000
# 4 0.0000 0.0000 0.0000 98.7692 0.0000 0.0000
# 5 0.0000 0.0000 0.0000 0.0000 -16.1068 0.0000
# 6 0.0000 0.0000 0.0000 0.0000 0.0000 -24.4824
#
#
#
# Elastic Compliance Matrix: (Units=1/GPa)
#
#
# Indices 1 2 3 4 5 6 
#
# 1 0.015952 0.001728 -0.004953 0.000000 0.000000 0.000000
# 2 0.001728 0.007781 -0.002808 0.000000 0.000000 0.000000
# 3 -0.004953 -0.002808 0.009861 0.000000 0.000000 0.000000
# 4 0.000000 0.000000 0.000000 0.010125 0.000000 0.000000
# 5 0.000000 0.000000 0.000000 0.000000 -0.062086 0.000000
# 6 0.000000 0.000000 0.000000 0.000000 0.000000 -0.040846
#
#
# Mechanical properties :
#
#
# Convention : Reuss Voigt Hill
#
# Bulk Modulus (GPa) = 46.44898 54.75849 50.60374
# Shear Modulus (GPa) = -125.09375 30.06472 -47.51451
#
# Velocity S-wave (km/s) = -7.53422 3.69359 -4.64337
# Velocity P-wave (km/s) = 7.38976 6.56035 2.40524
#
# Compressibility (1/GPa) = 0.02152900
#
# Stress axis : x y z
#
# Youngs Moduli (GPa) = 62.68616 128.51505 101.40983
#
# Poissons Ratio (x) = -0.22208 0.50224
# Poissons Ratio (y) = -0.10832 0.28479
# Poissons Ratio (z) = 0.31046 0.36091
#
# Static dielectric constant tensor:
#      x y z
#    x 1.850230 0.000000 0.000000 
#    y 0.000000 1.812440 0.000000 
#    z 0.000000 0.000000 1.746120 
# 
# From -- ./inp_files/6173.got.cif
#   From: 2010.05.17/outbox.cif.g08.bks.cpg/sg72_4_cif.got.tgz:6173.got - 2010.06.03 17:03:01.
