data_PCOD9527073
_publ_section_title
;
Structure prediction by ZEFSAII (Michael W. Deem and Ramdas Pophale) SiO2 
 PCOD9527073
Probable space group: I B A M
;
_chemical_formula_sum "Si O2"
_cell_formula_units_Z 88
_cell_length_a 27.675787
_cell_length_b 11.463556
_cell_length_c 14.046101
_cell_angle_alpha 90.000000
_cell_angle_beta 90.000000
_cell_angle_gamma 90.000000
_cell_volume 4456.307216
_symmetry_space_group_name_H-M "I B A M"
_symmetry_group_IT_number 72
_symmetry_cell_setting 'orthorhombic'
loop_
_space_group_symop_operation_xyz
x,y,z
-x,-y,z
x,-y,1/2-z
-x,y,1/2-z
-x,-y,-z
x,y,-z
-x,y,1/2+z
x,-y,1/2+z
1/2+x,1/2+y,1/2+z
1/2-x,1/2-y,1/2+z
1/2+x,1/2-y,-z
1/2-x,1/2+y,-z
1/2-x,1/2-y,1/2-z
1/2+x,1/2+y,1/2-z
1/2-x,1/2+y,z
1/2+x,1/2-y,z
loop_
_atom_site_type_symbol
_atom_site_label
_atom_site_fract_x
_atom_site_fract_y
_atom_site_fract_z
Si Si1 0.556224 0.215853 0.742526
Si Si2 0.878532 0.834284 0.113071
Si Si3 0.207494 0.763421 0.891796
Si Si4 0.894579 0.102764 0.109907
Si Si5 0.302497 0.836806 0.810834
Si Si6 0.621442 0.000000 0.250000
O O1 0.500000 0.190711 0.750000
O O2 0.578354 0.257630 0.843060
O O3 0.568621 0.322483 0.672444
O O4 0.587333 0.102879 0.711556
O O5 0.829636 0.782116 0.158148
O O6 0.887470 0.968739 0.138904
O O7 0.875502 0.824749 0.000000
O O8 0.157320 0.833240 0.884928
O O9 0.253403 0.845862 0.869162
O O10 0.208039 0.674455 0.802446
O O11 0.211641 0.717182 0.000000
O O12 0.910325 0.103205 0.000000
O O13 0.342181 0.937357 0.823626
#
# Coordination Sequence:
#
# PCOD9527073 Si02
#       6
#    16  16  16  16  16   8
#     4  11  23  41  63  86 117 160 207 255 306 355
#     4  10  21  38  60  88 119 151 197 254 308 365
#     4  10  20  36  59  90 122 161 203 243 297 363
#     4  10  21  39  61  88 122 156 195 251 310 365
#     4  10  21  37  60  87 123 163 201 243 299 358
#     4  10  21  42  60  88 120 166 201 250 294 360
#
# _framework density 19.747292999999999
#
# number of rings (size 3 to 8) (size 9 to 14) (size 15 to 20)
#    0.000    1.818    3.636    1.364    0.000    5.091 
#    0.000   12.727    0.000    5.455    0.000    0.000 
#    0.000    0.000    0.000    0.000    0.000    0.000 
#
# Total GULP energy -245437.225187 kJ/mol
# GULP energy per Si atom -5578.118754 kJ/mol
# Density = 1.970235 g / cm^3
# Si number density = 19.747293 Si / 1000 Ang^3
#
#
#
# Elastic Constant Matrix: (Units=GPa)
#
#
# Indices 1 2 3 4 5 6 
#
# 1 102.4765 12.5296 14.2155 0.0000 0.0000 0.0000
# 2 12.5296 78.1292 18.3760 0.0000 0.0000 0.0000
# 3 14.2155 18.3760 109.9592 0.0000 0.0000 0.0000
# 4 0.0000 0.0000 0.0000 14.0205 0.0000 0.0000
# 5 0.0000 0.0000 0.0000 0.0000 13.6961 0.0000
# 6 0.0000 0.0000 0.0000 0.0000 0.0000 20.3850
#
#
#
# Elastic Compliance Matrix: (Units=1/GPa)
#
#
# Indices 1 2 3 4 5 6 
#
# 1 0.010074 -0.001363 -0.001075 0.000000 0.000000 0.000000
# 2 -0.001363 0.013507 -0.002081 0.000000 0.000000 0.000000
# 3 -0.001075 -0.002081 0.009581 0.000000 0.000000 0.000000
# 4 0.000000 0.000000 0.000000 0.071324 0.000000 0.000000
# 5 0.000000 0.000000 0.000000 0.000000 0.073014 0.000000
# 6 0.000000 0.000000 0.000000 0.000000 0.000000 0.049056
#
#
# Mechanical properties :
#
#
# Convention : Reuss Voigt Hill
#
# Bulk Modulus (GPa) = 41.45032 42.31189 41.88110
# Shear Modulus (GPa) = 20.52253 25.98325 23.25289
#
# Velocity S-wave (km/s) = 3.22725 3.63131 3.43523
# Velocity P-wave (km/s) = 5.90955 6.24941 6.08185
#
# Compressibility (1/GPa) = 0.02412527
#
# Stress axis : x y z
#
# Youngs Moduli (GPa) = 99.26515 74.03384 104.37333
#
# Poissons Ratio (x) = 0.10089 0.11216
# Poissons Ratio (y) = 0.13528 0.21721
# Poissons Ratio (z) = 0.10667 0.15407
#
# Static dielectric constant tensor:
#      x y z
#    x 1.687320 0.000000 0.000000 
#    y 0.000000 1.720410 0.000000 
#    z 0.000000 0.000000 1.702210 
# 
# From -- ./inp_files/25818.got.cif
#   From: 2010.05.17/outbox.cif.g08.bks.cpg/sg72_13_cif.got.tgz:25818.got - 2010.06.03 17:03:01.
