data_PCOD9527127
_publ_section_title
;
Structure prediction by ZEFSAII (Michael W. Deem and Ramdas Pophale) SiO2 
 PCOD9527127
Probable space group: I B A M
;
_chemical_formula_sum "Si O2"
_cell_formula_units_Z 88
_cell_length_a 20.495862
_cell_length_b 9.141199
_cell_length_c 21.840649
_cell_angle_alpha 90.000000
_cell_angle_beta 90.000000
_cell_angle_gamma 90.000000
_cell_volume 4091.993085
_symmetry_space_group_name_H-M "I B A M"
_symmetry_group_IT_number 72
_symmetry_cell_setting 'orthorhombic'
loop_
_space_group_symop_operation_xyz
x,y,z
-x,-y,z
x,-y,1/2-z
-x,y,1/2-z
-x,-y,-z
x,y,-z
-x,y,1/2+z
x,-y,1/2+z
1/2+x,1/2+y,1/2+z
1/2-x,1/2-y,1/2+z
1/2+x,1/2-y,-z
1/2-x,1/2+y,-z
1/2-x,1/2-y,1/2-z
1/2+x,1/2+y,1/2-z
1/2-x,1/2+y,z
1/2+x,1/2-y,z
loop_
_atom_site_type_symbol
_atom_site_label
_atom_site_fract_x
_atom_site_fract_y
_atom_site_fract_z
Si Si1 0.433170 0.905312 0.859952
Si Si2 0.076998 0.539641 0.500000
Si Si3 0.302355 0.055113 0.816512
Si Si4 0.807401 0.868041 0.633044
Si Si5 0.160209 0.747650 0.000000
Si Si6 0.924302 0.985269 0.000000
Si Si7 0.927792 0.072615 0.634752
O O1 0.418000 0.893289 0.932509
O O2 0.432955 0.735865 0.837590
O O3 0.500000 0.000000 0.852111
O O4 0.374828 0.996494 0.829960
O O5 0.132768 0.414793 0.500000
O O6 0.000000 0.500000 0.500000
O O7 0.299131 0.228253 0.823691
O O8 0.282342 0.000000 0.750000
O O9 0.252325 0.979059 0.862954
O O10 0.808625 0.798808 0.564190
O O11 0.872353 0.956670 0.654699
O O12 0.096228 0.847332 0.000000
O O13 0.905309 0.913212 0.063363
O O14 0.000000 0.000000 0.000000
O O15 0.000000 0.000000 0.637670
#
# Coordination Sequence:
#
# PCOD9527127 Si02
#       7
#    16   8  16  16   8   8  16
#     4  11  23  39  66 101 134 175 224 280 350 421
#     4  10  21  33  65  97 139 170 214 263 352 415
#     4  12  26  46  69  91 129 181 232 286 340 414
#     4  11  24  43  67  99 132 175 228 280 350 416
#     4  10  20  39  60 100 134 172 208 286 333 420
#     4   8  17  26  53  83 130 166 203 237 320 395
#     4  10  20  36  61  95 134 172 215 270 333 407
#
# _framework density 21.505413000000001
#
# number of rings (size 3 to 8) (size 9 to 14) (size 15 to 20)
#    0.000    1.455    1.818    3.273   12.727    1.818 
#    0.000    1.818    0.000    3.818    0.000    0.000 
#    0.000    0.000    0.000    0.000    0.000    0.000 
#
# Total GULP energy -245196.439796 kJ/mol
# GULP energy per Si atom -5572.646359 kJ/mol
# Density = 2.145647 g / cm^3
# Si number density = 21.505413 Si / 1000 Ang^3
#
#
#
# Elastic Constant Matrix: (Units=GPa)
#
#
# Indices 1 2 3 4 5 6 
#
# 1 107.4212 56.5370 3.8903 0.0000 0.0000 0.0000
# 2 56.5370 164.0982 3.4392 0.0000 0.0000 0.0000
# 3 3.8903 3.4392 29.8363 0.0000 0.0000 0.0000
# 4 0.0000 0.0000 0.0000 9.8224 0.0000 0.0000
# 5 0.0000 0.0000 0.0000 0.0000 35.1586 0.0000
# 6 0.0000 0.0000 0.0000 0.0000 0.0000 33.7644
#
#
#
# Elastic Compliance Matrix: (Units=1/GPa)
#
#
# Indices 1 2 3 4 5 6 
#
# 1 0.011403 -0.003907 -0.001036 0.000000 0.000000 0.000000
# 2 -0.003907 0.007447 -0.000349 0.000000 0.000000 0.000000
# 3 -0.001036 -0.000349 0.033692 0.000000 0.000000 0.000000
# 4 0.000000 0.000000 0.000000 0.101809 0.000000 0.000000
# 5 0.000000 0.000000 0.000000 0.000000 0.028443 0.000000
# 6 0.000000 0.000000 0.000000 0.000000 0.000000 0.029617
#
#
# Mechanical properties :
#
#
# Convention : Reuss Voigt Hill
#
# Bulk Modulus (GPa) = 23.83397 47.67652 35.75525
# Shear Modulus (GPa) = 21.09879 31.58168 26.34023
#
# Velocity S-wave (km/s) = 3.13564 3.83632 3.50354
# Velocity P-wave (km/s) = 4.92102 6.46845 5.74705
#
# Compressibility (1/GPa) = 0.04195692
#
# Stress axis : x y z
#
# Youngs Moduli (GPa) = 87.69650 134.27694 29.68103
#
# Poissons Ratio (x) = 0.52461 0.03076
# Poissons Ratio (y) = 0.34263 0.01036
# Poissons Ratio (z) = 0.09089 0.04687
#
# Static dielectric constant tensor:
#      x y z
#    x 1.794920 0.000000 0.000000 
#    y 0.000000 1.817950 0.000000 
#    z 0.000000 0.000000 1.849010 
# 
# From -- ./inp_files/45284.got.cif
#   From: 2010.05.17/outbox.cif.g08.bks.cpg/sg72_23_cif.got.tgz:45284.got - 2010.06.03 17:03:01.
