data_PCOD9527562
_publ_section_title
;
Structure prediction by ZEFSAII (Michael W. Deem and Ramdas Pophale) SiO2 
 PCOD9527562
Probable space group: I B A M
;
_chemical_formula_sum "Si O2"
_cell_formula_units_Z 56
_cell_length_a 5.068074
_cell_length_b 32.331778
_cell_length_c 14.290506
_cell_angle_alpha 90.000000
_cell_angle_beta 90.000000
_cell_angle_gamma 90.000000
_cell_volume 2341.640076
_symmetry_space_group_name_H-M "I B A M"
_symmetry_group_IT_number 72
_symmetry_cell_setting 'orthorhombic'
loop_
_space_group_symop_operation_xyz
x,y,z
-x,-y,z
x,-y,1/2-z
-x,y,1/2-z
-x,-y,-z
x,y,-z
-x,y,1/2+z
x,-y,1/2+z
1/2+x,1/2+y,1/2+z
1/2-x,1/2-y,1/2+z
1/2+x,1/2-y,-z
1/2-x,1/2+y,-z
1/2-x,1/2-y,1/2-z
1/2+x,1/2+y,1/2-z
1/2-x,1/2+y,z
1/2+x,1/2-y,z
loop_
_atom_site_type_symbol
_atom_site_label
_atom_site_fract_x
_atom_site_fract_y
_atom_site_fract_z
Si Si1 0.039394 0.902724 0.362344
Si Si2 0.965838 0.642387 0.139649
Si Si3 0.680982 0.729440 0.111450
Si Si4 0.754869 0.970162 0.000000
O O1 0.234630 0.864974 0.391499
O O2 0.190562 0.940956 0.409657
O O3 0.000000 0.907415 0.250000
O O4 0.744724 0.891632 0.395863
O O5 0.828413 0.686158 0.124018
O O6 0.000000 0.636776 0.250000
O O7 0.387046 0.736240 0.149555
O O8 0.648595 0.735080 0.000000
O O9 0.500000 0.000000 0.000000
O O10 0.000000 0.000000 0.000000
#
# Coordination Sequence:
#
# PCOD9527562 Si02
#       4
#    16  16  16   8
#     4  10  23  42  64  95 128 163 211 263 316 385
#     4  10  21  38  61  87 120 167 214 258 318 375
#     4  10  21  34  51  83 122 161 210 263 317 367
#     4  12  26  44  70 102 128 166 212 256 330 406
#
# _framework density 23.914860999999998
#
# number of rings (size 3 to 8) (size 9 to 14) (size 15 to 20)
#    0.000    1.714    0.000    3.429    4.000    1.714 
#    0.000    1.429    0.000    0.000    0.000    0.000 
#    0.000    0.000    0.000    0.000    0.000    0.000 
#
# Total GULP energy -156242.526367 kJ/mol
# GULP energy per Si atom -5580.090227 kJ/mol
# Density = 2.386043 g / cm^3
# Si number density = 23.914861 Si / 1000 Ang^3
#
#
#
# Elastic Constant Matrix: (Units=GPa)
#
#
# Indices 1 2 3 4 5 6 
#
# 1 170.1646 33.5956 12.4912 0.0000 0.0000 0.0000
# 2 33.5956 92.9589 -6.6796 0.0000 0.0000 0.0000
# 3 12.4912 -6.6796 109.4523 0.0000 0.0000 0.0000
# 4 0.0000 0.0000 0.0000 33.2915 0.0000 0.0000
# 5 0.0000 0.0000 0.0000 0.0000 4.8388 0.0000
# 6 0.0000 0.0000 0.0000 0.0000 0.0000 53.1235
#
#
#
# Elastic Compliance Matrix: (Units=1/GPa)
#
#
# Indices 1 2 3 4 5 6 
#
# 1 0.006411 -0.002380 -0.000877 0.000000 0.000000 0.000000
# 2 -0.002380 0.011688 0.000985 0.000000 0.000000 0.000000
# 3 -0.000877 0.000985 0.009297 0.000000 0.000000 0.000000
# 4 0.000000 0.000000 0.000000 0.030038 0.000000 0.000000
# 5 0.000000 0.000000 0.000000 0.000000 0.206661 0.000000
# 6 0.000000 0.000000 0.000000 0.000000 0.000000 0.018824
#
#
# Mechanical properties :
#
#
# Convention : Reuss Voigt Hill
#
# Bulk Modulus (GPa) = 43.75980 50.15446 46.95713
# Shear Modulus (GPa) = 16.94454 40.46199 28.70327
#
# Velocity S-wave (km/s) = 2.66472 4.11776 3.46819
# Velocity P-wave (km/s) = 5.27310 6.60496 5.97625
#
# Compressibility (1/GPa) = 0.02285203
#
# Stress axis : x y z
#
# Youngs Moduli (GPa) = 155.98436 85.55544 107.56641
#
# Poissons Ratio (x) = 0.20362 0.09432
# Poissons Ratio (y) = 0.37123 -0.10594
# Poissons Ratio (z) = 0.13678 -0.08426
#
# Static dielectric constant tensor:
#      x y z
#    x 1.941340 0.000000 0.000000 
#    y 0.000000 1.893530 0.000000 
#    z 0.000000 0.000000 2.002190 
# 
# From -- ./inp_files/17559.got.cif
#   From: 2010.05.17/outbox.cif.g08.bks.cpg/sg72_9_cif.got.tgz:17559.got - 2010.06.03 17:03:01.
