data_PCOD9527394
_publ_section_title
;
Structure prediction by ZEFSAII (Michael W. Deem and Ramdas Pophale) SiO2 
 PCOD9527394
Probable space group: I B A M
;
_chemical_formula_sum "Si O2"
_cell_formula_units_Z 104
_cell_length_a 8.520405
_cell_length_b 28.499960
_cell_length_c 20.657052
_cell_angle_alpha 90.000000
_cell_angle_beta 90.000000
_cell_angle_gamma 90.000000
_cell_volume 5016.176760
_symmetry_space_group_name_H-M "I B A M"
_symmetry_group_IT_number 72
_symmetry_cell_setting 'orthorhombic'
loop_
_space_group_symop_operation_xyz
x,y,z
-x,-y,z
x,-y,1/2-z
-x,y,1/2-z
-x,-y,-z
x,y,-z
-x,y,1/2+z
x,-y,1/2+z
1/2+x,1/2+y,1/2+z
1/2-x,1/2-y,1/2+z
1/2+x,1/2-y,-z
1/2-x,1/2+y,-z
1/2-x,1/2-y,1/2-z
1/2+x,1/2+y,1/2-z
1/2-x,1/2+y,z
1/2+x,1/2-y,z
loop_
_atom_site_type_symbol
_atom_site_label
_atom_site_fract_x
_atom_site_fract_y
_atom_site_fract_z
Si Si1 0.975580 0.448555 0.886808
Si Si2 0.408468 0.216097 0.426587
Si Si3 0.498490 0.370814 0.500000
Si Si4 0.054909 0.651576 0.160924
Si Si5 0.776218 0.959441 0.000000
Si Si6 0.248476 0.693929 0.737399
Si Si7 0.774789 0.436806 0.500000
Si Si8 0.057076 0.807101 0.117302
O O1 0.956032 0.404279 0.840384
O O2 0.000000 0.500000 0.856262
O O3 0.829973 0.452705 0.936037
O O4 0.119696 0.438565 0.935680
O O5 0.431521 0.231129 0.500000
O O6 0.523494 0.172749 0.410048
O O7 0.227154 0.204371 0.414814
O O8 0.460350 0.259213 0.381937
O O9 0.398605 0.417917 0.500000
O O10 0.676124 0.389835 0.500000
O O11 0.476486 0.342322 0.566706
O O12 0.214769 0.669378 0.193799
O O13 0.904961 0.674936 0.197763
O O14 0.821998 0.014339 0.000000
O O15 0.250000 0.750000 0.750000
O O16 0.393136 0.680154 0.690674
#
# Coordination Sequence:
#
# PCOD9527394 Si02
#       8
#    16  16   8  16   8  16   8  16
#     4   9  19  38  61  91 118 151 197 253 306 364
#     4  11  20  35  51  80 113 151 197 244 310 354
#     4  12  21  36  54  90 120 156 201 250 318 364
#     4  10  21  34  61  82 114 161 201 246 305 354
#     4   9  21  35  57  89 123 154 192 245 311 380
#     4  10  20  39  53  79 113 159 210 244 287 361
#     4   9  17  35  61  85 121 156 190 241 311 370
#     4  11  23  35  54  78 116 159 201 258 297 361
#
# _framework density 20.732921999999999
#
# number of rings (size 3 to 8) (size 9 to 14) (size 15 to 20)
#    0.000    1.846    3.077    3.000    2.154    1.231 
#    0.000    1.538    0.000    0.000    0.000    0.000 
#    0.000    0.615    0.000    0.000    0.000    0.000 
#
# Total GULP energy -290180.551502 kJ/mol
# GULP energy per Si atom -5580.395221 kJ/mol
# Density = 2.068573 g / cm^3
# Si number density = 20.732922 Si / 1000 Ang^3
#
#
#
# Elastic Constant Matrix: (Units=GPa)
#
#
# Indices 1 2 3 4 5 6 
#
# 1 34.3027 27.6511 23.7383 0.0000 0.0000 0.0000
# 2 27.6511 164.5394 35.9996 0.0000 0.0000 0.0000
# 3 23.7383 35.9996 71.8398 0.0001 0.0000 0.0000
# 4 0.0000 0.0000 0.0001 27.3789 0.0000 0.0000
# 5 0.0000 0.0000 0.0000 0.0000 7.2534 0.0000
# 6 0.0000 0.0000 0.0000 0.0000 0.0000 36.4866
#
#
#
# Elastic Compliance Matrix: (Units=1/GPa)
#
#
# Indices 1 2 3 4 5 6 
#
# 1 0.040381 -0.004343 -0.011167 0.000000 0.000000 0.000000
# 2 -0.004343 0.007293 -0.002220 0.000000 0.000000 0.000000
# 3 -0.011167 -0.002220 0.018722 0.000000 0.000000 0.000000
# 4 0.000000 0.000000 0.000000 0.036524 0.000000 0.000000
# 5 0.000000 0.000000 0.000000 0.000000 0.137866 0.000000
# 6 0.000000 0.000000 0.000000 0.000000 0.000000 0.027407
#
#
# Mechanical properties :
#
#
# Convention : Reuss Voigt Hill
#
# Bulk Modulus (GPa) = 32.32361 49.49554 40.90958
# Shear Modulus (GPa) = 15.92534 26.44330 21.18432
#
# Velocity S-wave (km/s) = 2.77450 3.57518 3.19998
# Velocity P-wave (km/s) = 5.08804 6.40057 5.78167
#
# Compressibility (1/GPa) = 0.03093713
#
# Stress axis : x y z
#
# Youngs Moduli (GPa) = 24.76424 137.11761 53.41295
#
# Poissons Ratio (x) = 0.59548 0.59646
# Poissons Ratio (y) = 0.10755 0.11855
# Poissons Ratio (z) = 0.27654 0.30434
#
# Static dielectric constant tensor:
#      x y z
#    x 1.776650 0.000000 0.000000 
#    y 0.000000 1.729830 0.000000 
#    z 0.000000 0.000000 1.844290 
# 
# From -- ./inp_files/42681.got.cif
#   From: 2010.05.17/outbox.cif.g08.bks.cpg/sg72_22_cif.got.tgz:42681.got - 2010.06.03 17:03:01.
