data_PCOD9527441
_publ_section_title
;
Structure prediction by ZEFSAII (Michael W. Deem and Ramdas Pophale) SiO2 
 PCOD9527441
Probable space group: I B A M
;
_chemical_formula_sum "Si O2"
_cell_formula_units_Z 96
_cell_length_a 9.541452
_cell_length_b 27.948843
_cell_length_c 19.173339
_cell_angle_alpha 90.000000
_cell_angle_beta 90.000000
_cell_angle_gamma 90.000000
_cell_volume 5113.003087
_symmetry_space_group_name_H-M "I B A M"
_symmetry_group_IT_number 72
_symmetry_cell_setting 'orthorhombic'
loop_
_space_group_symop_operation_xyz
x,y,z
-x,-y,z
x,-y,1/2-z
-x,y,1/2-z
-x,-y,-z
x,y,-z
-x,y,1/2+z
x,-y,1/2+z
1/2+x,1/2+y,1/2+z
1/2-x,1/2-y,1/2+z
1/2+x,1/2-y,-z
1/2-x,1/2+y,-z
1/2-x,1/2-y,1/2-z
1/2+x,1/2+y,1/2-z
1/2-x,1/2+y,z
1/2+x,1/2-y,z
loop_
_atom_site_type_symbol
_atom_site_label
_atom_site_fract_x
_atom_site_fract_y
_atom_site_fract_z
Si Si1 0.248910 0.573795 0.419614
Si Si2 0.919792 0.204491 0.676396
Si Si3 0.190534 0.462508 0.581504
Si Si4 0.087999 0.292964 0.677292
Si Si5 0.938495 0.112319 0.420180
Si Si6 0.004125 0.604041 0.666731
O O1 0.202968 0.582774 0.500000
O O2 0.228033 0.517504 0.405409
O O3 0.409813 0.588299 0.414602
O O4 0.159501 0.603668 0.364398
O O5 0.754069 0.216139 0.685887
O O6 0.000000 0.196171 0.750000
O O7 0.006707 0.248587 0.642019
O O8 0.926978 0.156767 0.631171
O O9 0.148522 0.458732 0.500000
O O10 0.324284 0.428645 0.593020
O O11 0.071974 0.440478 0.630242
O O12 0.068564 0.345788 0.645630
O O13 0.000000 0.296431 0.750000
O O14 0.918819 0.128953 0.500000
O O15 0.000000 0.599025 0.750000
#
# Coordination Sequence:
#
# PCOD9527441 Si02
#       6
#    16  16  16  16  16  16
#     4  10  22  38  61  85 114 159 199 234 284 351
#     4  11  22  39  65  87 116 154 194 237 287 351
#     4  10  20  40  61  83 116 157 198 235 287 348
#     4  10  22  38  61  90 115 153 192 236 287 347
#     4  10  22  39  60  88 118 150 194 246 290 336
#     4  11  23  37  58  89 121 149 192 244 292 336
#
# _framework density 18.775658
#
# number of rings (size 3 to 8) (size 9 to 14) (size 15 to 20)
#    0.000    1.667    1.667    3.500    7.000    4.667 
#    0.000    2.500    0.000    3.000    0.000    0.000 
#    0.000    0.000    0.000    0.000    0.000    0.000 
#
# Total GULP energy -267816.078348 kJ/mol
# GULP energy per Si atom -5579.501632 kJ/mol
# Density = 1.873292 g / cm^3
# Si number density = 18.775658 Si / 1000 Ang^3
#
#
#
# Elastic Constant Matrix: (Units=GPa)
#
#
# Indices 1 2 3 4 5 6 
#
# 1 126.1251 35.7296 30.8049 0.0000 0.0000 0.0000
# 2 35.7296 106.2506 38.3710 0.0000 0.0000 0.0000
# 3 30.8049 38.3710 44.0584 -0.0002 0.0000 0.0000
# 4 0.0000 0.0000 -0.0002 -44.9463 0.0000 0.0000
# 5 0.0000 0.0000 0.0000 0.0000 27.2916 0.0000
# 6 0.0000 0.0000 0.0000 0.0000 0.0000 30.0786
#
#
#
# Elastic Compliance Matrix: (Units=1/GPa)
#
#
# Indices 1 2 3 4 5 6 
#
# 1 0.009662 -0.001181 -0.005727 0.000000 0.000000 0.000000
# 2 -0.001181 0.013874 -0.011258 0.000000 0.000000 0.000000
# 3 -0.005727 -0.011258 0.036506 0.000000 0.000000 0.000000
# 4 0.000000 0.000000 0.000000 -0.022249 0.000000 0.000000
# 5 0.000000 0.000000 0.000000 0.000000 0.036641 0.000000
# 6 0.000000 0.000000 0.000000 0.000000 0.000000 0.033246
#
#
# Mechanical properties :
#
#
# Convention : Reuss Voigt Hill
#
# Bulk Modulus (GPa) = 42.17458 54.02721 48.10089
# Shear Modulus (GPa) = 32.91293 13.92001 23.41647
#
# Velocity S-wave (km/s) = 4.19138 2.72579 3.53536
# Velocity P-wave (km/s) = 6.77751 6.22448 6.50688
#
# Compressibility (1/GPa) = 0.02371097
#
# Stress axis : x y z
#
# Youngs Moduli (GPa) = 103.49900 72.07531 27.39281
#
# Poissons Ratio (x) = 0.08511 0.15688
# Poissons Ratio (y) = 0.12221 0.30838
# Poissons Ratio (z) = 0.59274 0.81141
#
# Static dielectric constant tensor:
#      x y z
#    x 1.671420 0.000000 0.000000 
#    y 0.000000 1.669500 0.000000 
#    z 0.000000 0.000000 1.643320 
# 
# From -- ./inp_files/36010.got.cif
#   From: 2010.05.17/outbox.cif.g08.bks.cpg/sg72_19_cif.got.tgz:36010.got - 2010.06.03 17:03:01.
