data_PCOD9527167
_publ_section_title
;
Structure prediction by ZEFSAII (Michael W. Deem and Ramdas Pophale) SiO2 
 PCOD9527167
Probable space group: I B A M
;
_chemical_formula_sum "Si O2"
_cell_formula_units_Z 72
_cell_length_a 24.262545
_cell_length_b 16.598637
_cell_length_c 9.097279
_cell_angle_alpha 90.000000
_cell_angle_beta 90.000000
_cell_angle_gamma 90.000000
_cell_volume 3663.703297
_symmetry_space_group_name_H-M "I B A M"
_symmetry_group_IT_number 72
_symmetry_cell_setting 'orthorhombic'
loop_
_space_group_symop_operation_xyz
x,y,z
-x,-y,z
x,-y,1/2-z
-x,y,1/2-z
-x,-y,-z
x,y,-z
-x,y,1/2+z
x,-y,1/2+z
1/2+x,1/2+y,1/2+z
1/2-x,1/2-y,1/2+z
1/2+x,1/2-y,-z
1/2-x,1/2+y,-z
1/2-x,1/2-y,1/2-z
1/2+x,1/2+y,1/2-z
1/2-x,1/2+y,z
1/2+x,1/2-y,z
loop_
_atom_site_type_symbol
_atom_site_label
_atom_site_fract_x
_atom_site_fract_y
_atom_site_fract_z
Si Si1 0.355761 0.500000 0.250000
Si Si2 0.552729 0.620473 0.833207
Si Si3 0.287119 0.349944 0.334707
Si Si4 0.166544 0.303935 0.672884
Si Si5 0.942501 0.291377 0.324068
O O1 0.397576 0.442214 0.162784
O O2 0.317044 0.435473 0.329379
O O3 0.500000 0.585165 0.750000
O O4 0.564906 0.699686 0.736359
O O5 0.539047 0.644680 0.000000
O O6 0.292978 0.315841 0.500000
O O7 0.221963 0.355856 0.303906
O O8 0.314086 0.285330 0.224951
O O9 0.152957 0.301708 0.500000
O O10 0.113273 0.331830 0.763567
O O11 0.945591 0.293870 0.500000
O O12 0.000000 0.319585 0.250000
#
# Coordination Sequence:
#
# PCOD9527167 Si02
#       5
#     8  16  16  16  16
#     4  12  23  34  56  80 111 148 190 226 270 322
#     4  11  23  36  51  74 108 148 188 224 266 314
#     4  10  22  37  55  78 108 146 187 229 273 322
#     4  10  20  37  57  79 107 142 184 229 277 325
#     4  11  21  35  57  81 109 141 182 225 273 325
#
# _framework density 19.652246999999999
#
# number of rings (size 3 to 8) (size 9 to 14) (size 15 to 20)
#    0.000    1.333    2.222    5.667    0.000    5.333 
#    0.000    0.000    0.000    0.000    0.000    0.778 
#    0.000    5.333    0.000    0.000    0.000    0.222 
#
# Total GULP energy -200816.592259 kJ/mol
# GULP energy per Si atom -5578.238674 kJ/mol
# Density = 1.960752 g / cm^3
# Si number density = 19.652247 Si / 1000 Ang^3
#
#
#
# Elastic Constant Matrix: (Units=GPa)
#
#
# Indices 1 2 3 4 5 6 
#
# 1 172.4850 22.6351 77.4867 0.0000 0.0000 0.0000
# 2 22.6351 18.7537 2.6560 0.0000 0.0000 0.0000
# 3 77.4867 2.6560 158.2117 0.0000 0.0000 0.0000
# 4 0.0000 0.0000 0.0000 1.1649 0.0000 0.0000
# 5 0.0000 0.0000 0.0000 0.0000 18.3593 0.0000
# 6 0.0000 0.0000 0.0000 0.0000 0.0000 39.4939
#
#
#
# Elastic Compliance Matrix: (Units=1/GPa)
#
#
# Indices 1 2 3 4 5 6 
#
# 1 0.009074 -0.010347 -0.004270 0.000000 0.000000 0.000000
# 2 -0.010347 0.065249 0.003972 0.000000 0.000000 0.000000
# 3 -0.004270 0.003972 0.008345 0.000000 0.000000 0.000000
# 4 0.000000 0.000000 0.000000 0.858408 0.000000 0.000000
# 5 0.000000 0.000000 0.000000 0.000000 0.054468 0.000000
# 6 0.000000 0.000000 0.000000 0.000000 0.000000 0.025320
#
#
# Mechanical properties :
#
#
# Convention : Reuss Voigt Hill
#
# Bulk Modulus (GPa) = 16.29258 61.66735 38.97996
# Shear Modulus (GPa) = 4.70538 28.24847 16.47692
#
# Velocity S-wave (km/s) = 1.54904 3.79544 2.89870
# Velocity P-wave (km/s) = 3.39231 7.11720 5.57505
#
# Compressibility (1/GPa) = 0.06137764
#
# Stress axis : x y z
#
# Youngs Moduli (GPa) = 110.20687 15.32599 119.82601
#
# Poissons Ratio (x) = 0.15858 0.51170
# Poissons Ratio (y) = 1.14031 -0.47598
# Poissons Ratio (z) = 0.47062 -0.06088
#
# Static dielectric constant tensor:
#      x y z
#    x 1.976410 0.000000 0.000000 
#    y 0.000000 1.680340 0.000000 
#    z 0.000000 0.000000 1.695260 
# 
# From -- ./inp_files/4608.got.cif
#   From: 2010.05.17/outbox.cif.g08.bks.cpg/sg72_3_cif.got.tgz:4608.got - 2010.06.03 17:03:01.
