data_PCOD9527635
_publ_section_title
;
Structure prediction by ZEFSAII (Michael W. Deem and Ramdas Pophale) SiO2 
 PCOD9527635
Probable space group: I B A M
;
_chemical_formula_sum "Si O2"
_cell_formula_units_Z 112
_cell_length_a 12.429048
_cell_length_b 29.069643
_cell_length_c 14.657590
_cell_angle_alpha 90.000000
_cell_angle_beta 90.000000
_cell_angle_gamma 90.000000
_cell_volume 5295.904355
_symmetry_space_group_name_H-M "I B A M"
_symmetry_group_IT_number 72
_symmetry_cell_setting 'orthorhombic'
loop_
_space_group_symop_operation_xyz
x,y,z
-x,-y,z
x,-y,1/2-z
-x,y,1/2-z
-x,-y,-z
x,y,-z
-x,y,1/2+z
x,-y,1/2+z
1/2+x,1/2+y,1/2+z
1/2-x,1/2-y,1/2+z
1/2+x,1/2-y,-z
1/2-x,1/2+y,-z
1/2-x,1/2-y,1/2-z
1/2+x,1/2+y,1/2-z
1/2-x,1/2+y,z
1/2+x,1/2-y,z
loop_
_atom_site_type_symbol
_atom_site_label
_atom_site_fract_x
_atom_site_fract_y
_atom_site_fract_z
Si Si1 0.876758 0.657095 0.392094
Si Si2 0.283766 0.581241 0.110660
Si Si3 0.616287 0.170046 0.105405
Si Si4 0.682953 0.614891 0.888295
Si Si5 0.122098 0.987403 0.111574
Si Si6 0.960820 0.157215 0.389534
Si Si7 0.701047 0.732325 0.656584
O O1 0.887407 0.649963 0.500000
O O2 0.816813 0.611439 0.355983
O O3 0.795179 0.699949 0.383048
O O4 0.995936 0.667215 0.355502
O O5 0.301813 0.529275 0.142005
O O6 0.390061 0.611719 0.129535
O O7 0.276719 0.579235 0.000000
O O8 0.706383 0.136533 0.146759
O O9 0.663923 0.221345 0.107012
O O10 0.608115 0.156086 0.000000
O O11 0.658942 0.562989 0.857946
O O12 0.582727 0.647210 0.862746
O O13 0.683687 0.614551 0.000000
O O14 0.122574 0.986334 0.000000
O O15 0.000000 0.000000 0.137964
O O16 0.955602 0.165023 0.500000
O O17 0.903145 0.199678 0.341669
O O18 0.750000 0.750000 0.750000
#
# Coordination Sequence:
#
# PCOD9527635 Si02
#       7
#    16  16  16  16  16  16  16
#     4   9  19  36  54  74 104 142 180 214 257 322
#     4   8  13  24  45  72 103 135 166 207 258 312
#     4  10  21  36  52  71 102 143 181 216 259 316
#     4   9  17  28  47  77 108 137 173 214 258 314
#     4   9  13  21  42  76 111 135 159 206 265 313
#     4   9  16  30  51  75 103 137 179 217 261 320
#     4  11  23  36  53  76 101 132 178 231 273 316
#
# _framework density 21.148419000000001
#
# number of rings (size 3 to 8) (size 9 to 14) (size 15 to 20)
#    0.000    2.714    1.429    2.143    2.000    0.571 
#    0.000    0.714    0.000    4.286    0.000    4.000 
#    0.000    4.571    0.000    0.000    0.000    0.000 
#
# Total GULP energy -312617.944932 kJ/mol
# GULP energy per Si atom -5582.463302 kJ/mol
# Density = 2.110028 g / cm^3
# Si number density = 21.148419 Si / 1000 Ang^3
#
#
#
# Elastic Constant Matrix: (Units=GPa)
#
#
# Indices 1 2 3 4 5 6 
#
# 1 189.3637 96.9902 12.7960 -0.0001 0.0000 0.0000
# 2 96.9902 156.8021 11.3932 -0.0002 0.0000 0.0000
# 3 12.7960 11.3932 54.6247 -0.0009 0.0002 -0.0001
# 4 -0.0001 -0.0002 -0.0009 -11.2856 0.0001 0.0000
# 5 0.0000 0.0000 0.0002 0.0001 -3.2021 0.0000
# 6 0.0000 0.0000 -0.0001 0.0000 0.0000 26.5078
#
#
#
# Elastic Compliance Matrix: (Units=1/GPa)
#
#
# Indices 1 2 3 4 5 6 
#
# 1 0.007767 -0.004744 -0.000830 0.000000 0.000000 0.000000
# 2 -0.004744 0.009373 -0.000844 0.000000 0.000000 0.000000
# 3 -0.000830 -0.000844 0.018677 -0.000002 0.000001 0.000000
# 4 0.000000 0.000000 -0.000002 -0.088609 -0.000003 0.000000
# 5 0.000000 0.000000 0.000001 -0.000003 -0.312300 0.000000
# 6 0.000000 0.000000 0.000000 0.000000 0.000000 0.037725
#
#
# Mechanical properties :
#
#
# Convention : Reuss Voigt Hill
#
# Bulk Modulus (GPa) = 43.51239 71.46105 57.48672
# Shear Modulus (GPa) = -16.29346 21.04479 2.37566
#
# Velocity S-wave (km/s) = -2.77868 3.15794 1.06102
# Velocity P-wave (km/s) = 3.21321 6.86734 5.36121
#
# Compressibility (1/GPa) = 0.02298196
#
# Stress axis : x y z
#
# Youngs Moduli (GPa) = 128.75597 106.68910 53.54144
#
# Poissons Ratio (x) = 0.50611 0.04444
# Poissons Ratio (y) = 0.61079 0.04517
# Poissons Ratio (z) = 0.10686 0.09002
#
# Static dielectric constant tensor:
#      x y z
#    x 1.785630 0.000000 0.000000 
#    y 0.000000 1.793930 0.000000 
#    z 0.000000 0.000000 1.878920 
# 
# From -- ./inp_files/20681.got.cif
#   From: 2010.05.17/outbox.cif.g08.bks.cpg/sg72_11_cif.got.tgz:20681.got - 2010.06.03 17:03:01.
