data_PCOD9527128
_publ_section_title
;
Structure prediction by ZEFSAII (Michael W. Deem and Ramdas Pophale) SiO2 
 PCOD9527128
Probable space group: I B A M
;
_chemical_formula_sum "Si O2"
_cell_formula_units_Z 60
_cell_length_a 16.051868
_cell_length_b 16.297521
_cell_length_c 9.733961
_cell_angle_alpha 90.000000
_cell_angle_beta 90.000000
_cell_angle_gamma 90.000000
_cell_volume 2546.459251
_symmetry_space_group_name_H-M "I B A M"
_symmetry_group_IT_number 72
_symmetry_cell_setting 'orthorhombic'
loop_
_space_group_symop_operation_xyz
x,y,z
-x,-y,z
x,-y,1/2-z
-x,y,1/2-z
-x,-y,-z
x,y,-z
-x,y,1/2+z
x,-y,1/2+z
1/2+x,1/2+y,1/2+z
1/2-x,1/2-y,1/2+z
1/2+x,1/2-y,-z
1/2-x,1/2+y,-z
1/2-x,1/2-y,1/2-z
1/2+x,1/2+y,1/2-z
1/2-x,1/2+y,z
1/2+x,1/2-y,z
loop_
_atom_site_type_symbol
_atom_site_label
_atom_site_fract_x
_atom_site_fract_y
_atom_site_fract_z
Si Si1 0.500000 0.000000 0.250000
Si Si2 0.252310 0.904469 0.725075
Si Si3 0.358719 0.835076 0.500000
Si Si4 0.955770 0.621915 0.000000
Si Si5 0.720641 0.192083 0.000000
Si Si6 0.929101 0.085446 0.660483
O O1 0.544272 0.937800 0.363400
O O2 0.330694 0.885990 0.631594
O O3 0.258032 0.858346 0.865731
O O4 0.163429 0.878034 0.660842
O O5 0.250537 0.000000 0.750000
O O6 0.457337 0.827509 0.500000
O O7 0.290448 0.762822 0.500000
O O8 0.880512 0.688187 0.000000
O O9 0.952453 0.074900 0.500000
O O10 0.000000 0.131102 0.750000
O O11 0.920540 0.000000 0.750000
#
# Coordination Sequence:
#
# PCOD9527128 Si02
#       6
#     4  16   8   8   8  16
#     4  10  24  42  80 118 144 180 254 338 368 446
#     4  11  25  43  72 107 142 190 247 311 378 444
#     4  12  26  50  70 105 153 194 246 314 380 468
#     4  11  26  46  74 112 147 194 254 308 391 440
#     4  12  28  46  72 107 147 202 246 304 390 456
#     4  10  20  36  61  96 137 177 230 291 352 423
#
# _framework density 23.562128000000001
#
# number of rings (size 3 to 8) (size 9 to 14) (size 15 to 20)
#    0.000    1.067    1.333    4.800   18.667    0.000 
#    4.800    0.000    0.000    0.000    0.000    0.000 
#    0.000    0.000    0.000    0.000    0.000    0.000 
#
# Total GULP energy -167337.700339 kJ/mol
# GULP energy per Si atom -5577.923345 kJ/mol
# Density = 2.350850 g / cm^3
# Si number density = 23.562128 Si / 1000 Ang^3
#
#
#
# Elastic Constant Matrix: (Units=GPa)
#
#
# Indices 1 2 3 4 5 6 
#
# 1 207.9643 69.2469 61.4627 0.0000 0.0000 0.0000
# 2 69.2469 57.8248 20.8353 0.0000 0.0000 0.0000
# 3 61.4627 20.8353 208.3138 0.0000 0.0000 0.0000
# 4 0.0000 0.0000 0.0000 18.9560 0.0000 0.0000
# 5 0.0000 0.0000 0.0000 0.0000 102.3705 0.0000
# 6 0.0000 0.0000 0.0000 0.0000 0.0000 27.3641
#
#
#
# Elastic Compliance Matrix: (Units=1/GPa)
#
#
# Indices 1 2 3 4 5 6 
#
# 1 0.008446 -0.009561 -0.001536 0.000000 0.000000 0.000000
# 2 -0.009561 0.028763 -0.000056 0.000000 0.000000 0.000000
# 3 -0.001536 -0.000056 0.005259 0.000000 0.000000 0.000000
# 4 0.000000 0.000000 0.000000 0.052754 0.000000 0.000000
# 5 0.000000 0.000000 0.000000 0.000000 0.009768 0.000000
# 6 0.000000 0.000000 0.000000 0.000000 0.000000 0.036544
#
#
# Mechanical properties :
#
#
# Convention : Reuss Voigt Hill
#
# Bulk Modulus (GPa) = 49.59513 86.35473 67.97493
# Shear Modulus (GPa) = 29.31504 51.24199 40.27852
#
# Velocity S-wave (km/s) = 3.53109 4.66849 4.13905
# Velocity P-wave (km/s) = 6.14159 8.11105 7.19404
#
# Compressibility (1/GPa) = 0.02016327
#
# Stress axis : x y z
#
# Youngs Moduli (GPa) = 118.40024 34.76656 190.14492
#
# Poissons Ratio (x) = 0.33240 0.29200
# Poissons Ratio (y) = 1.13202 0.01064
# Poissons Ratio (z) = 0.18183 0.00194
#
# Static dielectric constant tensor:
#      x y z
#    x 2.012090 0.000000 0.000000 
#    y 0.000000 1.937240 0.000000 
#    z 0.000000 0.000000 1.866400 
# 
# From -- ./inp_files/4218.got.cif
#   From: 2010.05.17/outbox.cif.g08.bks.cpg/sg72_3_cif.got.tgz:4218.got - 2010.06.03 17:03:01.
