data_PCOD9527388
_publ_section_title
;
Structure prediction by ZEFSAII (Michael W. Deem and Ramdas Pophale) SiO2 
 PCOD9527388
Probable space group: I B A M
;
_chemical_formula_sum "Si O2"
_cell_formula_units_Z 112
_cell_length_a 15.687660
_cell_length_b 13.254916
_cell_length_c 25.440811
_cell_angle_alpha 90.000000
_cell_angle_beta 90.000000
_cell_angle_gamma 90.000000
_cell_volume 5290.127017
_symmetry_space_group_name_H-M "I B A M"
_symmetry_group_IT_number 72
_symmetry_cell_setting 'orthorhombic'
loop_
_space_group_symop_operation_xyz
x,y,z
-x,-y,z
x,-y,1/2-z
-x,y,1/2-z
-x,-y,-z
x,y,-z
-x,y,1/2+z
x,-y,1/2+z
1/2+x,1/2+y,1/2+z
1/2-x,1/2-y,1/2+z
1/2+x,1/2-y,-z
1/2-x,1/2+y,-z
1/2-x,1/2-y,1/2-z
1/2+x,1/2+y,1/2-z
1/2-x,1/2+y,z
1/2+x,1/2-y,z
loop_
_atom_site_type_symbol
_atom_site_label
_atom_site_fract_x
_atom_site_fract_y
_atom_site_fract_z
Si Si1 0.042171 0.707159 0.626540
Si Si2 0.641117 0.156432 0.385001
Si Si3 0.100085 0.021567 0.440113
Si Si4 0.693814 0.364729 0.656801
Si Si5 0.870616 0.538775 0.189474
Si Si6 0.686912 0.303532 0.941772
Si Si7 0.026497 0.114307 0.695729
O O1 0.058029 0.618413 0.669263
O O2 0.129790 0.730019 0.595080
O O3 0.955469 0.677297 0.595311
O O4 0.012809 0.812276 0.652607
O O5 0.675269 0.246100 0.347340
O O6 0.716144 0.166369 0.427443
O O7 0.635867 0.055197 0.350859
O O8 0.105454 0.063970 0.500000
O O9 0.140031 0.910666 0.440484
O O10 0.154354 0.086757 0.397593
O O11 0.000000 0.000000 0.428683
O O12 0.783972 0.400191 0.676905
O O13 0.626926 0.398020 0.699718
O O14 0.878742 0.500000 0.250000
O O15 0.685098 0.259413 0.000000
O O16 0.000000 0.161776 0.750000
O O17 0.000000 0.000000 0.688703
#
# Coordination Sequence:
#
# PCOD9527388 Si02
#       7
#    16  16  16  16  16  16  16
#     4  11  25  46  69 101 145 188 238 298 351 435
#     4  11  25  45  68  99 141 181 240 288 360 428
#     4  10  20  38  68 100 130 171 224 288 360 426
#     4  11  22  41  64  96 132 179 220 300 344 426
#     4  12  28  44  72  98 141 196 247 296 359 431
#     4  11  23  43  73 103 137 181 231 295 364 433
#     4  10  23  38  66  99 138 179 229 290 360 414
#
# _framework density 21.171513999999998
#
# number of rings (size 3 to 8) (size 9 to 14) (size 15 to 20)
#    0.000    1.143    2.857    3.429    6.000    2.286 
#    0.000    0.714    0.000    1.714    0.000    0.000 
#    0.000    0.000    0.000    0.000    0.000    0.000 
#
# Total GULP energy -311914.201818 kJ/mol
# GULP energy per Si atom -5569.896461 kJ/mol
# Density = 2.112333 g / cm^3
# Si number density = 21.171514 Si / 1000 Ang^3
#
#
#
# Elastic Constant Matrix: (Units=GPa)
#
#
# Indices 1 2 3 4 5 6 
#
# 1 138.9908 15.4532 42.0388 0.0000 0.0000 0.0000
# 2 15.4532 92.2858 6.4934 0.0000 0.0000 0.0000
# 3 42.0388 6.4934 87.2908 0.0000 0.0000 0.0000
# 4 0.0000 0.0000 0.0000 22.9620 0.0000 0.0000
# 5 0.0000 0.0000 0.0000 0.0000 2.6199 0.0000
# 6 0.0000 0.0000 0.0000 0.0000 0.0000 20.2608
#
#
#
# Elastic Compliance Matrix: (Units=1/GPa)
#
#
# Indices 1 2 3 4 5 6 
#
# 1 0.008540 -0.001147 -0.004028 0.000000 0.000000 0.000000
# 2 -0.001147 0.011047 -0.000270 0.000000 0.000000 0.000000
# 3 -0.004028 -0.000270 0.013416 0.000000 0.000000 0.000000
# 4 0.000000 0.000000 0.000000 0.043550 0.000000 0.000000
# 5 0.000000 0.000000 0.000000 0.000000 0.381693 0.000000
# 6 0.000000 0.000000 0.000000 0.000000 0.000000 0.049356
#
#
# Mechanical properties :
#
#
# Convention : Reuss Voigt Hill
#
# Bulk Modulus (GPa) = 45.21777 49.61534 47.41656
# Shear Modulus (GPa) = 9.50819 26.14068 17.82444
#
# Velocity S-wave (km/s) = 2.12150 3.51766 2.90471
# Velocity P-wave (km/s) = 5.23500 6.32332 5.80472
#
# Compressibility (1/GPa) = 0.02211520
#
# Stress axis : x y z
#
# Youngs Moduli (GPa) = 117.09009 90.52326 74.53923
#
# Poissons Ratio (x) = 0.10380 0.30022
# Poissons Ratio (y) = 0.13427 0.02009
# Poissons Ratio (z) = 0.47161 0.02440
#
# Static dielectric constant tensor:
#      x y z
#    x 1.762340 0.000000 0.000000 
#    y 0.000000 1.661950 0.000000 
#    z 0.000000 0.000000 1.819700 
# 
# From -- ./inp_files/48705.got.cif
#   From: 2010.05.17/outbox.cif.g08.bks.cpg/sg72_25_cif.got.tgz:48705.got - 2010.06.03 17:03:01.
