data_PCOD9527325
_publ_section_title
;
Structure prediction by ZEFSAII (Michael W. Deem and Ramdas Pophale) SiO2 
 PCOD9527325
Probable space group: I B A M
;
_chemical_formula_sum "Si O2"
_cell_formula_units_Z 96
_cell_length_a 24.695659
_cell_length_b 24.522673
_cell_length_c 8.508899
_cell_angle_alpha 90.000000
_cell_angle_beta 90.000000
_cell_angle_gamma 90.000000
_cell_volume 5153.019613
_symmetry_space_group_name_H-M "I B A M"
_symmetry_group_IT_number 72
_symmetry_cell_setting 'orthorhombic'
loop_
_space_group_symop_operation_xyz
x,y,z
-x,-y,z
x,-y,1/2-z
-x,y,1/2-z
-x,-y,-z
x,y,-z
-x,y,1/2+z
x,-y,1/2+z
1/2+x,1/2+y,1/2+z
1/2-x,1/2-y,1/2+z
1/2+x,1/2-y,-z
1/2-x,1/2+y,-z
1/2-x,1/2-y,1/2-z
1/2+x,1/2+y,1/2-z
1/2-x,1/2+y,z
1/2+x,1/2-y,z
loop_
_atom_site_type_symbol
_atom_site_label
_atom_site_fract_x
_atom_site_fract_y
_atom_site_fract_z
Si Si1 0.559484 0.145094 0.811578
Si Si2 0.644377 0.941703 0.812928
Si Si3 0.560250 0.727918 0.310541
Si Si4 0.766386 0.940312 0.313379
Si Si5 0.646439 0.639388 0.685021
Si Si6 0.056691 0.061479 0.689038
O O1 0.500000 0.129465 0.750000
O O2 0.604904 0.106235 0.740642
O O3 0.568171 0.208634 0.767750
O O4 0.560547 0.141345 0.000000
O O5 0.704600 0.934655 0.743424
O O6 0.623713 0.000000 0.750000
O O7 0.648275 0.943778 0.000000
O O8 0.500000 0.712110 0.250000
O O9 0.558564 0.723074 0.500000
O O10 0.612042 0.692101 0.255691
O O11 0.768864 0.943725 0.500000
O O12 0.799746 0.886846 0.259638
O O13 0.786290 0.000000 0.250000
O O14 0.656119 0.646657 0.500000
O O15 0.603740 0.592229 0.722482
O O16 0.060923 0.064352 0.500000
O O17 0.000000 0.085029 0.750000
O O18 0.058114 0.000000 0.750000
#
# Coordination Sequence:
#
# PCOD9527325 Si02
#       6
#    16  16  16  16  16  16
#     4  10  20  38  61  89 119 150 184 224 272 329
#     4  11  22  39  62  89 117 149 182 223 274 331
#     4   9  20  36  57  81 112 149 188 232 281 330
#     4  11  22  38  58  82 111 148 188 234 283 334
#     4  11  21  35  53  77 106 143 188 233 276 329
#     4  11  21  33  47  68  97 133 175 228 286 338
#
# _framework density 18.629854000000002
#
# number of rings (size 3 to 8) (size 9 to 14) (size 15 to 20)
#    0.000    1.500    0.000    8.000    0.000    3.667 
#    0.000    2.500    0.000    0.000    0.000    0.000 
#    0.000    0.000    0.000    0.000    0.000    0.000 
#
# Total GULP energy -267868.395481 kJ/mol
# GULP energy per Si atom -5580.591573 kJ/mol
# Density = 1.858745 g / cm^3
# Si number density = 18.629854 Si / 1000 Ang^3
#
#
#
# Elastic Constant Matrix: (Units=GPa)
#
#
# Indices 1 2 3 4 5 6 
#
# 1 91.3649 67.1760 28.8321 0.0000 0.0000 0.0000
# 2 67.1760 114.6437 34.4288 0.0000 0.0000 0.0000
# 3 28.8321 34.4288 90.9903 0.0000 0.0000 0.0000
# 4 0.0000 0.0000 0.0000 19.4692 0.0000 0.0000
# 5 0.0000 0.0000 0.0000 0.0000 32.8607 0.0000
# 6 0.0000 0.0000 0.0000 0.0000 0.0000 36.0453
#
#
#
# Elastic Compliance Matrix: (Units=1/GPa)
#
#
# Indices 1 2 3 4 5 6 
#
# 1 0.019580 -0.010842 -0.002102 0.000000 0.000000 0.000000
# 2 -0.010842 0.015844 -0.002560 0.000000 0.000000 0.000000
# 3 -0.002102 -0.002560 0.012625 0.000000 0.000000 0.000000
# 4 0.000000 0.000000 0.000000 0.051363 0.000000 0.000000
# 5 0.000000 0.000000 0.000000 0.000000 0.030431 0.000000
# 6 0.000000 0.000000 0.000000 0.000000 0.000000 0.027743
#
#
# Mechanical properties :
#
#
# Convention : Reuss Voigt Hill
#
# Bulk Modulus (GPa) = 58.67849 61.98587 60.33218
# Shear Modulus (GPa) = 25.73696 28.77918 27.25807
#
# Velocity S-wave (km/s) = 3.72087 3.93464 3.82925
# Velocity P-wave (km/s) = 7.07285 7.34755 7.21151
#
# Compressibility (1/GPa) = 0.01704202
#
# Stress axis : x y z
#
# Youngs Moduli (GPa) = 51.07331 63.11522 79.20930
#
# Poissons Ratio (x) = 0.68427 0.16650
# Poissons Ratio (y) = 0.55371 0.20275
# Poissons Ratio (z) = 0.10736 0.16156
#
# Static dielectric constant tensor:
#      x y z
#    x 1.614230 0.000000 0.000000 
#    y 0.000000 1.635060 0.000000 
#    z 0.000000 0.000000 1.629690 
# 
# From -- ./inp_files/6995.got.cif
#   From: 2010.05.17/outbox.cif.g08.bks.cpg/sg72_4_cif.got.tgz:6995.got - 2010.06.03 17:03:01.
