data_PCOD9527858
_publ_section_title
;
Structure prediction by ZEFSAII (Michael W. Deem and Ramdas Pophale) SiO2 
 PCOD9527858
Probable space group: I B A M
;
_chemical_formula_sum "Si O2"
_cell_formula_units_Z 92
_cell_length_a 14.401847
_cell_length_b 18.159682
_cell_length_c 18.543103
_cell_angle_alpha 90.000000
_cell_angle_beta 90.000000
_cell_angle_gamma 90.000000
_cell_volume 4849.632647
_symmetry_space_group_name_H-M "I B A M"
_symmetry_group_IT_number 72
_symmetry_cell_setting 'orthorhombic'
loop_
_space_group_symop_operation_xyz
x,y,z
-x,-y,z
x,-y,1/2-z
-x,y,1/2-z
-x,-y,-z
x,y,-z
-x,y,1/2+z
x,-y,1/2+z
1/2+x,1/2+y,1/2+z
1/2-x,1/2-y,1/2+z
1/2+x,1/2-y,-z
1/2-x,1/2+y,-z
1/2-x,1/2-y,1/2-z
1/2+x,1/2+y,1/2-z
1/2-x,1/2+y,z
1/2+x,1/2-y,z
loop_
_atom_site_type_symbol
_atom_site_label
_atom_site_fract_x
_atom_site_fract_y
_atom_site_fract_z
Si Si1 0.225251 0.874825 0.920022
Si Si2 0.575268 0.889291 0.366120
Si Si3 0.401299 0.751494 0.232575
Si Si4 0.110860 0.010751 0.500000
Si Si5 0.543758 0.920197 0.000000
Si Si6 0.773456 0.282831 0.147726
Si Si7 0.000000 0.500000 0.750000
Si Si8 0.748984 0.875292 0.000000
O O1 0.324903 0.907998 0.900306
O O2 0.210628 0.804518 0.869276
O O3 0.234295 0.841402 0.000000
O O4 0.148480 0.938688 0.932480
O O5 0.580015 0.810259 0.329665
O O6 0.497698 0.885272 0.427768
O O7 0.555988 0.948051 0.304147
O O8 0.500000 0.714557 0.250000
O O9 0.316350 0.705211 0.199193
O O10 0.361890 0.797410 0.301213
O O11 0.165312 0.932756 0.500000
O O12 0.000000 0.000000 0.500000
O O13 0.500000 0.000000 0.000000
O O14 0.653621 0.921147 0.000000
O O15 0.757248 0.326259 0.073272
#
# Coordination Sequence:
#
# PCOD9527858 Si02
#       8
#    16  16  16   8   8  16   4   8
#     4   9  19  41  60  82 121 168 197 255 314 355
#     4  11  21  35  57  88 128 160 200 237 318 382
#     4  10  21  38  57  85 123 159 195 255 310 366
#     4  10  23  38  57  86 119 157 213 261 301 345
#     4  12  22  36  58  89 126 161 193 246 313 393
#     4  10  22  39  61  89 120 156 210 249 311 379
#     4  12  24  30  56  96 130 162 188 234 300 414
#     4  12  23  36  63  93 116 151 211 262 300 373
#
# _framework density 18.970509
#
# number of rings (size 3 to 8) (size 9 to 14) (size 15 to 20)
#    0.522    1.043    3.478    2.087    0.000    1.391 
#    0.000    2.609    0.000    0.000    0.000   12.174 
#    0.000    0.000    0.000    0.000    0.000    0.000 
#
# Total GULP energy -256105.256961 kJ/mol
# GULP energy per Si atom -5567.505586 kJ/mol
# Density = 1.892733 g / cm^3
# Si number density = 18.970509 Si / 1000 Ang^3
#
#
#
# Elastic Constant Matrix: (Units=GPa)
#
#
# Indices 1 2 3 4 5 6 
#
# 1 145.4180 17.7330 31.3717 0.0000 0.0000 0.0000
# 2 17.7330 42.5423 10.8406 0.0000 0.0000 0.0000
# 3 31.3717 10.8406 103.3162 0.0000 0.0000 0.0000
# 4 0.0000 0.0000 0.0000 17.3341 0.0000 0.0000
# 5 0.0000 0.0000 0.0000 0.0000 24.9869 0.0000
# 6 0.0000 0.0000 0.0000 0.0000 0.0000 29.5525
#
#
#
# Elastic Compliance Matrix: (Units=1/GPa)
#
#
# Indices 1 2 3 4 5 6 
#
# 1 0.007642 -0.002665 -0.002041 0.000000 0.000000 0.000000
# 2 -0.002665 0.025081 -0.001822 0.000000 0.000000 0.000000
# 3 -0.002041 -0.001822 0.010490 0.000000 0.000000 0.000000
# 4 0.000000 0.000000 0.000000 0.057690 0.000000 0.000000
# 5 0.000000 0.000000 0.000000 0.000000 0.040021 0.000000
# 6 0.000000 0.000000 0.000000 0.000000 0.000000 0.033838
#
#
# Mechanical properties :
#
#
# Convention : Reuss Voigt Hill
#
# Bulk Modulus (GPa) = 33.16068 45.68523 39.42295
# Shear Modulus (GPa) = 25.26893 29.79677 27.53285
#
# Velocity S-wave (km/s) = 3.65363 3.96749 3.81379
# Velocity P-wave (km/s) = 5.94279 6.71733 6.34190
#
# Compressibility (1/GPa) = 0.03015620
#
# Stress axis : x y z
#
# Youngs Moduli (GPa) = 130.85519 39.87020 95.32950
#
# Poissons Ratio (x) = 0.10627 0.19455
# Poissons Ratio (y) = 0.34878 0.17373
# Poissons Ratio (z) = 0.26705 0.07266
#
# Static dielectric constant tensor:
#      x y z
#    x 1.710600 0.000000 0.000000 
#    y 0.000000 2.245740 0.000000 
#    z 0.000000 0.000000 1.671440 
# 
# From -- ./inp_files/29520.got.cif
#   From: 2010.05.17/outbox.cif.g08.bks.cpg/sg72_15_cif.got.tgz:29520.got - 2010.06.03 17:03:01.
