data_PCOD9527205
_publ_section_title
;
Structure prediction by ZEFSAII (Michael W. Deem and Ramdas Pophale) SiO2 
 PCOD9527205
Probable space group: I B A M
;
_chemical_formula_sum "Si O2"
_cell_formula_units_Z 112
_cell_length_a 16.323556
_cell_length_b 16.105209
_cell_length_c 24.036902
_cell_angle_alpha 90.000000
_cell_angle_beta 90.000000
_cell_angle_gamma 90.000000
_cell_volume 6319.164069
_symmetry_space_group_name_H-M "I B A M"
_symmetry_group_IT_number 72
_symmetry_cell_setting 'orthorhombic'
loop_
_space_group_symop_operation_xyz
x,y,z
-x,-y,z
x,-y,1/2-z
-x,y,1/2-z
-x,-y,-z
x,y,-z
-x,y,1/2+z
x,-y,1/2+z
1/2+x,1/2+y,1/2+z
1/2-x,1/2-y,1/2+z
1/2+x,1/2-y,-z
1/2-x,1/2+y,-z
1/2-x,1/2-y,1/2-z
1/2+x,1/2+y,1/2-z
1/2-x,1/2+y,z
1/2+x,1/2-y,z
loop_
_atom_site_type_symbol
_atom_site_label
_atom_site_fract_x
_atom_site_fract_y
_atom_site_fract_z
Si Si1 0.263604 0.589753 0.232382
Si Si2 0.518957 0.096927 0.436736
Si Si3 0.594678 0.482621 0.844487
Si Si4 0.658811 0.173494 0.063767
Si Si5 0.330941 0.370861 0.564325
Si Si6 0.699845 0.648104 0.852280
Si Si7 0.330235 0.160814 0.871012
O O1 0.228988 0.500000 0.250000
O O2 0.350361 0.565046 0.202435
O O3 0.275895 0.644808 0.287186
O O4 0.203664 0.632149 0.188577
O O5 0.548858 0.115640 0.500000
O O6 0.432007 0.140276 0.429048
O O7 0.583969 0.125992 0.391538
O O8 0.500000 0.000000 0.433269
O O9 0.500000 0.500000 0.830241
O O10 0.607910 0.424841 0.898393
O O11 0.637633 0.571147 0.857062
O O12 0.653402 0.272667 0.070760
O O13 0.721591 0.135354 0.108029
O O14 0.686024 0.156543 0.000000
O O15 0.336187 0.393807 0.500000
O O16 0.238356 0.377099 0.587322
O O17 0.667710 0.738835 0.870041
#
# Coordination Sequence:
#
# PCOD9527205 Si02
#       7
#    16  16  16  16  16  16  16
#     4   9  20  37  59  80 111 151 187 234 284 336
#     4  10  22  36  58  85 114 150 189 233 279 337
#     4  10  22  36  58  85 114 148 187 236 281 339
#     4   9  20  38  58  83 114 148 185 233 284 338
#     4   9  19  36  57  82 115 150 183 228 286 338
#     4  10  21  37  61  83 111 149 191 233 283 342
#     4  10  20  37  60  83 111 148 193 234 283 334
#
# _framework density 17.723863000000001
#
# number of rings (size 3 to 8) (size 9 to 14) (size 15 to 20)
#    0.000    2.429    0.000    0.857    8.000    4.000 
#    0.000    0.714    3.143    0.000    0.000    0.000 
#    0.000    0.000    0.000    0.000    0.000    0.000 
#
# Total GULP energy -312204.527069 kJ/mol
# GULP energy per Si atom -5575.080841 kJ/mol
# Density = 1.768352 g / cm^3
# Si number density = 17.723863 Si / 1000 Ang^3
#
#
#
# Elastic Constant Matrix: (Units=GPa)
#
#
# Indices 1 2 3 4 5 6 
#
# 1 96.2102 42.6572 61.8849 0.0000 0.0000 0.0000
# 2 42.6572 34.3768 32.5098 0.0000 0.0000 0.0000
# 3 61.8849 32.5098 111.2067 0.0000 0.0000 0.0000
# 4 0.0000 0.0000 0.0000 35.2611 0.0000 0.0000
# 5 0.0000 0.0000 0.0000 0.0000 58.0659 0.0000
# 6 0.0000 0.0000 0.0000 0.0000 0.0000 21.0248
#
#
#
# Elastic Compliance Matrix: (Units=1/GPa)
#
#
# Indices 1 2 3 4 5 6 
#
# 1 0.026660 -0.026331 -0.007138 0.000000 0.000000 0.000000
# 2 -0.026331 0.066210 -0.004703 0.000000 0.000000 0.000000
# 3 -0.007138 -0.004703 0.014340 0.000000 0.000000 0.000000
# 4 0.000000 0.000000 0.000000 0.028360 0.000000 0.000000
# 5 0.000000 0.000000 0.000000 0.000000 0.017222 0.000000
# 6 0.000000 0.000000 0.000000 0.000000 0.000000 0.047563
#
#
# Mechanical properties :
#
#
# Convention : Reuss Voigt Hill
#
# Bulk Modulus (GPa) = 32.39890 57.32193 44.86042
# Shear Modulus (GPa) = 17.42238 29.85313 23.63776
#
# Velocity S-wave (km/s) = 3.13867 4.10853 3.65590
# Velocity P-wave (km/s) = 5.60843 7.41071 6.57165
#
# Compressibility (1/GPa) = 0.03086524
#
# Stress axis : x y z
#
# Youngs Moduli (GPa) = 37.50940 15.10342 69.73740
#
# Poissons Ratio (x) = 0.39769 0.49781
# Poissons Ratio (y) = 0.98766 0.32797
# Poissons Ratio (z) = 0.26776 0.07103
#
# Static dielectric constant tensor:
#      x y z
#    x 1.600280 0.000000 0.000000 
#    y 0.000000 1.586540 0.000000 
#    z 0.000000 0.000000 1.625550 
# 
# From -- ./inp_files/44334.got.cif
#   From: 2010.05.17/outbox.cif.g08.bks.cpg/sg72_23_cif.got.tgz:44334.got - 2010.06.03 17:03:01.
