data_PCOD9528774
_publ_section_title
;
Structure prediction by ZEFSAII (Michael W. Deem and Ramdas Pophale) SiO2 
 PCOD9528774
Probable space group: I B A M
;
_chemical_formula_sum "Si O2"
_cell_formula_units_Z 84
_cell_length_a 23.747758
_cell_length_b 13.426040
_cell_length_c 13.090126
_cell_angle_alpha 90.000000
_cell_angle_beta 90.000000
_cell_angle_gamma 90.000000
_cell_volume 4173.634160
_symmetry_space_group_name_H-M "I B A M"
_symmetry_group_IT_number 72
_symmetry_cell_setting 'orthorhombic'
loop_
_space_group_symop_operation_xyz
x,y,z
-x,-y,z
x,-y,1/2-z
-x,y,1/2-z
-x,-y,-z
x,y,-z
-x,y,1/2+z
x,-y,1/2+z
1/2+x,1/2+y,1/2+z
1/2-x,1/2-y,1/2+z
1/2+x,1/2-y,-z
1/2-x,1/2+y,-z
1/2-x,1/2-y,1/2-z
1/2+x,1/2+y,1/2-z
1/2-x,1/2+y,z
1/2+x,1/2-y,z
loop_
_atom_site_type_symbol
_atom_site_label
_atom_site_fract_x
_atom_site_fract_y
_atom_site_fract_z
Si Si1 0.459311 0.138801 0.623857
Si Si2 0.000000 0.000000 0.250000
Si Si3 0.810059 0.710918 0.377575
Si Si4 0.084810 0.571854 0.123976
Si Si5 0.199588 0.113701 0.781551
Si Si6 0.920185 0.142993 0.378791
O O1 0.459181 0.138528 0.500000
O O2 0.524552 0.120211 0.652054
O O3 0.420736 0.044557 0.654288
O O4 0.435619 0.244969 0.655105
O O5 0.039290 0.931945 0.320124
O O6 0.811435 0.725623 0.500000
O O7 0.862075 0.639011 0.346545
O O8 0.811459 0.815045 0.316443
O O9 0.752697 0.657188 0.342703
O O10 0.086664 0.570680 0.000000
O O11 0.143808 0.119852 0.849926
O O12 0.209928 0.000000 0.750000
O O13 0.928608 0.135271 0.500000
#
# Coordination Sequence:
#
# PCOD9528774 Si02
#       6
#    16   4  16  16  16  16
#     4   8  16  32  60  93 127 162 203 259 326 393
#     4  12  26  44  64  96 128 172 238 278 322 398
#     4  10  23  42  68  96 129 172 219 274 331 392
#     4   8  15  32  60  96 126 160 208 258 325 392
#     4  11  25  45  64  94 132 171 228 273 325 405
#     4  11  24  43  66  93 132 176 220 278 338 393
#
# _framework density 20.126345000000001
#
# number of rings (size 3 to 8) (size 9 to 14) (size 15 to 20)
#    0.000    2.286    0.952    2.000    2.667    4.571 
#    0.000    1.905    0.000    0.000    0.000    0.000 
#    0.000    0.000    0.000    0.000    0.000    0.000 
#
# Total GULP energy -234826.500990 kJ/mol
# GULP energy per Si atom -5591.107166 kJ/mol
# Density = 2.008054 g / cm^3
# Si number density = 20.126345 Si / 1000 Ang^3
#
#
#
# Elastic Constant Matrix: (Units=GPa)
#
#
# Indices 1 2 3 4 5 6 
#
# 1 117.1941 60.7816 53.0480 0.0000 0.0000 0.0000
# 2 60.7816 151.9511 66.1382 0.0000 0.0000 0.0000
# 3 53.0480 66.1382 118.6905 0.0000 0.0000 0.0000
# 4 0.0000 0.0000 0.0000 33.9046 0.0000 0.0000
# 5 0.0000 0.0000 0.0000 0.0000 28.5200 0.0000
# 6 0.0000 0.0000 0.0000 0.0000 0.0000 33.6079
#
#
#
# Elastic Compliance Matrix: (Units=1/GPa)
#
#
# Indices 1 2 3 4 5 6 
#
# 1 0.011763 -0.003191 -0.003479 0.000000 0.000000 0.000000
# 2 -0.003191 0.009554 -0.003898 0.000000 0.000000 0.000000
# 3 -0.003479 -0.003898 0.012152 0.000000 0.000000 0.000000
# 4 0.000000 0.000000 0.000000 0.029495 0.000000 0.000000
# 5 0.000000 0.000000 0.000000 0.000000 0.035063 0.000000
# 6 0.000000 0.000000 0.000000 0.000000 0.000000 0.029755
#
#
# Mechanical properties :
#
#
# Convention : Reuss Voigt Hill
#
# Bulk Modulus (GPa) = 81.08064 83.08571 82.08318
# Shear Modulus (GPa) = 32.67383 33.06434 32.86908
#
# Velocity S-wave (km/s) = 4.03356 4.05759 4.04559
# Velocity P-wave (km/s) = 7.87820 7.95762 7.91801
#
# Compressibility (1/GPa) = 0.01233340
#
# Stress axis : x y z
#
# Youngs Moduli (GPa) = 85.01539 104.66952 82.28966
#
# Poissons Ratio (x) = 0.33397 0.28630
# Poissons Ratio (y) = 0.27126 0.32074
# Poissons Ratio (z) = 0.29579 0.40796
#
# Static dielectric constant tensor:
#      x y z
#    x 1.661170 0.000000 0.000000 
#    y 0.000000 1.678410 0.000000 
#    z 0.000000 0.000000 1.773330 
# 
# From -- ./inp_files/15431.got.cif
#   From: 2010.05.17/outbox.cif.g08.bks.cpg/sg72_8_cif.got.tgz:15431.got - 2010.06.03 17:03:01.
