data_PCOD9528052
_publ_section_title
;
Structure prediction by ZEFSAII (Michael W. Deem and Ramdas Pophale) SiO2 
 PCOD9528052
Probable space group: I B A M
;
_chemical_formula_sum "Si O2"
_cell_formula_units_Z 80
_cell_length_a 12.074476
_cell_length_b 15.572589
_cell_length_c 18.816695
_cell_angle_alpha 90.000000
_cell_angle_beta 90.000000
_cell_angle_gamma 90.000000
_cell_volume 3538.119195
_symmetry_space_group_name_H-M "I B A M"
_symmetry_group_IT_number 72
_symmetry_cell_setting 'orthorhombic'
loop_
_space_group_symop_operation_xyz
x,y,z
-x,-y,z
x,-y,1/2-z
-x,y,1/2-z
-x,-y,-z
x,y,-z
-x,y,1/2+z
x,-y,1/2+z
1/2+x,1/2+y,1/2+z
1/2-x,1/2-y,1/2+z
1/2+x,1/2-y,-z
1/2-x,1/2+y,-z
1/2-x,1/2-y,1/2-z
1/2+x,1/2+y,1/2-z
1/2-x,1/2+y,z
1/2+x,1/2-y,z
loop_
_atom_site_type_symbol
_atom_site_label
_atom_site_fract_x
_atom_site_fract_y
_atom_site_fract_z
Si Si1 0.481577 0.401263 0.417433
Si Si2 0.332658 0.179539 0.690175
Si Si3 0.396475 0.666214 0.709523
Si Si4 0.995154 0.602547 0.580738
Si Si5 0.254516 0.181217 0.918520
O O1 0.500000 0.500000 0.397195
O O2 0.512031 0.390923 0.500000
O O3 0.555818 0.337963 0.370090
O O4 0.352136 0.380020 0.410161
O O5 0.380902 0.241444 0.751256
O O6 0.226120 0.125365 0.716685
O O7 0.425321 0.133929 0.643719
O O8 0.270930 0.242706 0.634974
O O9 0.500000 0.622837 0.750000
O O10 0.027054 0.632919 0.500000
O O11 0.000000 0.500000 0.579515
O O12 0.870158 0.633908 0.594025
O O13 0.255037 0.211810 0.000000
#
# Coordination Sequence:
#
# PCOD9528052 Si02
#       5
#    16  16  16  16  16
#     4  10  23  42  67  99 134 174 230 297 358 411
#     4  11  23  41  66  97 141 182 234 285 347 424
#     4  11  23  42  66  96 133 178 230 285 343 421
#     4  10  23  43  69 104 147 192 238 293 362 427
#     4  10  21  39  64  98 136 176 232 289 345 427
#
# _framework density 22.610883000000001
#
# number of rings (size 3 to 8) (size 9 to 14) (size 15 to 20)
#    0.000    1.600    2.000    1.800    2.800    2.000 
#    0.000    0.000    0.000    7.800    0.000    0.000 
#    0.000    0.800    0.000    0.000    0.000    0.000 
#
# Total GULP energy -223462.021651 kJ/mol
# GULP energy per Si atom -5586.550541 kJ/mol
# Density = 2.255942 g / cm^3
# Si number density = 22.610883 Si / 1000 Ang^3
#
#
#
# Elastic Constant Matrix: (Units=GPa)
#
#
# Indices 1 2 3 4 5 6 
#
# 1 165.3010 39.3725 76.8624 0.0000 0.0000 0.0000
# 2 39.3725 61.4124 49.4752 0.0000 0.0000 0.0000
# 3 76.8624 49.4752 119.8424 0.0000 0.0000 0.0000
# 4 0.0000 0.0000 0.0000 30.2441 0.0000 0.0000
# 5 0.0000 0.0000 0.0000 0.0000 43.8525 0.0000
# 6 0.0000 0.0000 0.0000 0.0000 0.0000 17.7572
#
#
#
# Elastic Compliance Matrix: (Units=1/GPa)
#
#
# Indices 1 2 3 4 5 6 
#
# 1 0.008728 -0.001627 -0.004926 0.000000 0.000000 0.000000
# 2 -0.001627 0.024701 -0.009154 0.000000 0.000000 0.000000
# 3 -0.004926 -0.009154 0.015283 0.000000 0.000000 0.000000
# 4 0.000000 0.000000 0.000000 0.033064 0.000000 0.000000
# 5 0.000000 0.000000 0.000000 0.000000 0.022804 0.000000
# 6 0.000000 0.000000 0.000000 0.000000 0.000000 0.056315
#
#
# Mechanical properties :
#
#
# Convention : Reuss Voigt Hill
#
# Bulk Modulus (GPa) = 57.81140 75.33065 66.57103
# Shear Modulus (GPa) = 25.24307 30.42712 27.83510
#
# Velocity S-wave (km/s) = 3.34490 3.67234 3.51244
# Velocity P-wave (km/s) = 6.36720 7.16728 6.77905
#
# Compressibility (1/GPa) = 0.01729763
#
# Stress axis : x y z
#
# Youngs Moduli (GPa) = 114.57991 40.48396 65.43381
#
# Poissons Ratio (x) = 0.06587 0.32232
# Poissons Ratio (y) = 0.18642 0.59898
# Poissons Ratio (z) = 0.56440 0.37059
#
# Static dielectric constant tensor:
#      x y z
#    x 1.953900 0.000000 0.000000 
#    y 0.000000 1.865710 0.000000 
#    z 0.000000 0.000000 1.934240 
# 
# From -- ./inp_files/43112.got.cif
#   From: 2010.05.17/outbox.cif.g08.bks.cpg/sg72_22_cif.got.tgz:43112.got - 2010.06.03 17:03:01.
