data_PCOD9528356
_publ_section_title
;
Structure prediction by ZEFSAII (Michael W. Deem and Ramdas Pophale) SiO2 
 PCOD9528356
Probable space group: I B A M
;
_chemical_formula_sum "Si O2"
_cell_formula_units_Z 64
_cell_length_a 21.393130
_cell_length_b 9.657785
_cell_length_c 13.916114
_cell_angle_alpha 90.000000
_cell_angle_beta 90.000000
_cell_angle_gamma 90.000000
_cell_volume 2875.211793
_symmetry_space_group_name_H-M "I B A M"
_symmetry_group_IT_number 72
_symmetry_cell_setting 'orthorhombic'
loop_
_space_group_symop_operation_xyz
x,y,z
-x,-y,z
x,-y,1/2-z
-x,y,1/2-z
-x,-y,-z
x,y,-z
-x,y,1/2+z
x,-y,1/2+z
1/2+x,1/2+y,1/2+z
1/2-x,1/2-y,1/2+z
1/2+x,1/2-y,-z
1/2-x,1/2+y,-z
1/2-x,1/2-y,1/2-z
1/2+x,1/2+y,1/2-z
1/2-x,1/2+y,z
1/2+x,1/2-y,z
loop_
_atom_site_type_symbol
_atom_site_label
_atom_site_fract_x
_atom_site_fract_y
_atom_site_fract_z
Si Si1 0.790932 0.231942 0.889131
Si Si2 0.487648 0.837740 0.892832
Si Si3 0.670599 0.584136 0.611786
Si Si4 0.401842 0.253507 0.242199
O O1 0.723366 0.298216 0.874257
O O2 0.841784 0.293091 0.817117
O O3 0.797280 0.066182 0.875450
O O4 0.808249 0.261295 0.000000
O O5 0.541307 0.751372 0.835454
O O6 0.426223 0.840773 0.827662
O O7 0.500000 0.000000 0.900342
O O8 0.480276 0.780894 0.000000
O O9 0.649253 0.589529 0.500000
O O10 0.617939 0.615238 0.691002
#
# Coordination Sequence:
#
# PCOD9528356 Si02
#       4
#    16  16  16  16
#     4  10  22  39  60  90 127 164 203 249 302 361
#     4  10  23  41  60  87 122 159 203 254 307 365
#     4  10  22  39  60  90 127 164 203 249 302 361
#     4  11  20  36  62  88 115 155 202 252 301 359
#
# _framework density 22.259229000000001
#
# number of rings (size 3 to 8) (size 9 to 14) (size 15 to 20)
#    0.000    1.750    0.000    4.500    0.000    4.000 
#    0.000   15.000    0.000   18.000    0.000    0.000 
#    0.000    0.000    0.000    0.000    0.000    0.000 
#
# Total GULP energy -178320.429529 kJ/mol
# GULP energy per Si atom -5572.513423 kJ/mol
# Density = 2.220857 g / cm^3
# Si number density = 22.259229 Si / 1000 Ang^3
#
#
#
# Elastic Constant Matrix: (Units=GPa)
#
#
# Indices 1 2 3 4 5 6 
#
# 1 51.8652 44.6512 60.0660 0.0000 0.0000 0.0000
# 2 44.6512 68.0977 49.6814 0.0000 0.0000 0.0000
# 3 60.0660 49.6814 172.6130 0.0000 0.0000 0.0000
# 4 0.0000 0.0000 0.0000 62.3818 0.0000 0.0000
# 5 0.0000 0.0000 0.0000 0.0000 -40.5488 0.0000
# 6 0.0000 0.0000 0.0000 0.0000 0.0000 21.2597
#
#
#
# Elastic Compliance Matrix: (Units=1/GPa)
#
#
# Indices 1 2 3 4 5 6 
#
# 1 0.058665 -0.029838 -0.011826 0.000000 0.000000 0.000000
# 2 -0.029838 0.033764 0.000665 0.000000 0.000000 0.000000
# 3 -0.011826 0.000665 0.009717 0.000000 0.000000 0.000000
# 4 0.000000 0.000000 0.000000 0.016030 0.000000 0.000000
# 5 0.000000 0.000000 0.000000 0.000000 -0.024662 0.000000
# 6 0.000000 0.000000 0.000000 0.000000 0.000000 0.047037
#
#
# Mechanical properties :
#
#
# Convention : Reuss Voigt Hill
#
# Bulk Modulus (GPa) = 49.63360 66.81923 58.22642
# Shear Modulus (GPa) = 21.80867 17.83036 19.81951
#
# Velocity S-wave (km/s) = 3.13351 2.83332 2.98719
# Velocity P-wave (km/s) = 5.95300 6.38650 6.17356
#
# Compressibility (1/GPa) = 0.02014764
#
# Stress axis : x y z
#
# Youngs Moduli (GPa) = 17.04601 29.61711 102.91071
#
# Poissons Ratio (x) = 0.88372 1.21704
# Poissons Ratio (y) = 0.50862 -0.06844
# Poissons Ratio (z) = 0.20159 -0.01970
#
# Static dielectric constant tensor:
#      x y z
#    x 1.829440 0.000000 0.000000 
#    y 0.000000 1.884290 0.000000 
#    z 0.000000 0.000000 1.876700 
# 
# From -- ./inp_files/22791.got.cif
#   From: 2010.05.17/outbox.cif.g08.bks.cpg/sg72_12_cif.got.tgz:22791.got - 2010.06.03 17:03:01.
