data_PCOD9528039
_publ_section_title
;
Structure prediction by ZEFSAII (Michael W. Deem and Ramdas Pophale) SiO2 
 PCOD9528039
Probable space group: I B A M
;
_chemical_formula_sum "Si O2"
_cell_formula_units_Z 52
_cell_length_a 27.131725
_cell_length_b 9.289130
_cell_length_c 10.782491
_cell_angle_alpha 90.000000
_cell_angle_beta 90.000000
_cell_angle_gamma 90.000000
_cell_volume 2717.512508
_symmetry_space_group_name_H-M "I B A M"
_symmetry_group_IT_number 72
_symmetry_cell_setting 'orthorhombic'
loop_
_space_group_symop_operation_xyz
x,y,z
-x,-y,z
x,-y,1/2-z
-x,y,1/2-z
-x,-y,-z
x,y,-z
-x,y,1/2+z
x,-y,1/2+z
1/2+x,1/2+y,1/2+z
1/2-x,1/2-y,1/2+z
1/2+x,1/2-y,-z
1/2-x,1/2+y,-z
1/2-x,1/2-y,1/2-z
1/2+x,1/2+y,1/2-z
1/2-x,1/2+y,z
1/2+x,1/2-y,z
loop_
_atom_site_type_symbol
_atom_site_label
_atom_site_fract_x
_atom_site_fract_y
_atom_site_fract_z
Si Si1 0.000000 0.000000 0.250000
Si Si2 0.904578 0.103612 0.639860
Si Si3 0.723884 0.390113 0.634855
Si Si4 0.330664 0.164397 0.719978
O O1 0.963107 0.097977 0.331361
O O2 0.896860 0.050882 0.500000
O O3 0.875887 0.252142 0.658330
O O4 0.885263 0.000000 0.750000
O O5 0.720383 0.500000 0.750000
O O6 0.714435 0.455993 0.500000
O O7 0.687665 0.256538 0.660982
O O8 0.780460 0.336215 0.639575
O O9 0.342725 0.000000 0.750000
#
# Coordination Sequence:
#
# PCOD9528039 Si02
#       4
#     4  16  16  16
#     4   8  22  40  68  88 114 144 204 252 294 354
#     4  10  21  39  64  88 114 150 195 246 297 351
#     4  10  22  39  58  84 120 163 204 240 282 346
#     4  10  22  36  57  87 123 158 195 241 295 349
#
# _framework density 19.135148000000001
#
# number of rings (size 3 to 8) (size 9 to 14) (size 15 to 20)
#    0.923    1.231    0.000    2.308    0.000   18.462 
#    0.000    0.769    0.000    1.846    0.000    0.000 
#    0.000    0.000    0.000    0.000    0.000    0.000 
#
# Total GULP energy -144824.329432 kJ/mol
# GULP energy per Si atom -5570.166517 kJ/mol
# Density = 1.909160 g / cm^3
# Si number density = 19.135148 Si / 1000 Ang^3
#
#
#
# Elastic Constant Matrix: (Units=GPa)
#
#
# Indices 1 2 3 4 5 6 
#
# 1 137.7433 44.1370 29.2711 0.0000 0.0000 0.0000
# 2 44.1370 115.0123 54.7166 0.0000 0.0000 0.0000
# 3 29.2711 54.7166 172.5993 0.0000 0.0000 0.0000
# 4 0.0000 0.0000 0.0000 19.2072 0.0000 0.0000
# 5 0.0000 0.0000 0.0000 0.0000 -31.8859 0.0000
# 6 0.0000 0.0000 0.0000 0.0000 0.0000 31.9554
#
#
#
# Elastic Compliance Matrix: (Units=1/GPa)
#
#
# Indices 1 2 3 4 5 6 
#
# 1 0.008310 -0.002966 -0.000469 0.000000 0.000000 0.000000
# 2 -0.002966 0.011297 -0.003078 0.000000 0.000000 0.000000
# 3 -0.000469 -0.003078 0.006849 0.000000 0.000000 0.000000
# 4 0.000000 0.000000 0.000000 0.052064 0.000000 0.000000
# 5 0.000000 0.000000 0.000000 0.000000 -0.031362 0.000000
# 6 0.000000 0.000000 0.000000 0.000000 0.000000 0.031294
#
#
# Mechanical properties :
#
#
# Convention : Reuss Voigt Hill
#
# Bulk Modulus (GPa) = 74.46115 75.73382 75.09748
# Shear Modulus (GPa) = 52.10742 23.67070 37.88906
#
# Velocity S-wave (km/s) = 5.22402 3.52096 4.45463
# Velocity P-wave (km/s) = 8.68245 7.49625 8.11106
#
# Compressibility (1/GPa) = 0.01342982
#
# Stress axis : x y z
#
# Youngs Moduli (GPa) = 120.33841 88.51538 146.00150
#
# Poissons Ratio (x) = 0.26252 0.06848
# Poissons Ratio (y) = 0.35690 0.44946
# Poissons Ratio (z) = 0.05645 0.27249
#
# Static dielectric constant tensor:
#      x y z
#    x 1.699050 0.000000 0.000000 
#    y 0.000000 1.683810 0.000000 
#    z 0.000000 0.000000 1.702560 
# 
# From -- ./inp_files/15923.got.cif
#   From: 2010.05.17/outbox.cif.g08.bks.cpg/sg72_8_cif.got.tgz:15923.got - 2010.06.03 17:03:01.
