data_PCOD9528355
_publ_section_title
;
Structure prediction by ZEFSAII (Michael W. Deem and Ramdas Pophale) SiO2 
 PCOD9528355
Probable space group: I B A M
;
_chemical_formula_sum "Si O2"
_cell_formula_units_Z 64
_cell_length_a 22.652017
_cell_length_b 9.463565
_cell_length_c 14.098437
_cell_angle_alpha 90.000000
_cell_angle_beta 90.000000
_cell_angle_gamma 90.000000
_cell_volume 3022.265519
_symmetry_space_group_name_H-M "I B A M"
_symmetry_group_IT_number 72
_symmetry_cell_setting 'orthorhombic'
loop_
_space_group_symop_operation_xyz
x,y,z
-x,-y,z
x,-y,1/2-z
-x,y,1/2-z
-x,-y,-z
x,y,-z
-x,y,1/2+z
x,-y,1/2+z
1/2+x,1/2+y,1/2+z
1/2-x,1/2-y,1/2+z
1/2+x,1/2-y,-z
1/2-x,1/2+y,-z
1/2-x,1/2-y,1/2-z
1/2+x,1/2+y,1/2-z
1/2-x,1/2+y,z
1/2+x,1/2-y,z
loop_
_atom_site_type_symbol
_atom_site_label
_atom_site_fract_x
_atom_site_fract_y
_atom_site_fract_z
Si Si1 0.793355 0.016154 0.110874
Si Si2 0.181142 0.331676 0.321514
Si Si3 0.433166 0.994154 0.137144
Si Si4 0.847945 0.737238 0.107407
O O1 0.737081 0.925306 0.146767
O O2 0.846548 0.904282 0.124163
O O3 0.806757 0.168575 0.153372
O O4 0.785407 0.037584 0.000000
O O5 0.121801 0.392970 0.374091
O O6 0.176708 0.330402 0.206161
O O7 0.500000 0.000000 0.100999
O O8 0.438181 0.000000 0.250000
O O9 0.409124 0.843559 0.103949
O O10 0.821093 0.716981 0.000000
#
# Coordination Sequence:
#
# PCOD9528355 Si02
#       4
#    16  16  16  16
#     4  11  23  39  62  92 124 159 202 252 308 365
#     4  11  22  40  63  89 124 160 200 250 306 364
#     4   9  20  40  64  88 117 158 206 253 303 360
#     4  10  22  39  60  89 124 162 203 246 297 362
#
# _framework density 21.176167
#
# number of rings (size 3 to 8) (size 9 to 14) (size 15 to 20)
#    0.000    1.750    0.000    3.750    0.000    8.500 
#    0.000    7.500    0.000    9.000    0.000    0.000 
#    0.000    0.000    0.000    0.000    0.000    0.000 
#
# Total GULP energy -178158.115121 kJ/mol
# GULP energy per Si atom -5567.441098 kJ/mol
# Density = 2.112797 g / cm^3
# Si number density = 21.176167 Si / 1000 Ang^3
#
#
#
# Elastic Constant Matrix: (Units=GPa)
#
#
# Indices 1 2 3 4 5 6 
#
# 1 159.1509 113.0462 20.3402 0.0000 0.0000 0.0000
# 2 113.0462 190.5510 25.8815 0.0000 0.0000 0.0000
# 3 20.3402 25.8815 151.8420 0.0000 0.0000 0.0000
# 4 0.0000 0.0000 0.0000 106.9734 0.0000 0.0000
# 5 0.0000 0.0000 0.0000 0.0000 -27.9548 0.0000
# 6 0.0000 0.0000 0.0000 0.0000 0.0000 23.0734
#
#
#
# Elastic Compliance Matrix: (Units=1/GPa)
#
#
# Indices 1 2 3 4 5 6 
#
# 1 0.010879 -0.006405 -0.000366 0.000000 0.000000 0.000000
# 2 -0.006405 0.009143 -0.000700 0.000000 0.000000 0.000000
# 3 -0.000366 -0.000700 0.006754 0.000000 0.000000 0.000000
# 4 0.000000 0.000000 0.000000 0.009348 0.000000 0.000000
# 5 0.000000 0.000000 0.000000 0.000000 -0.035772 0.000000
# 6 0.000000 0.000000 0.000000 0.000000 0.000000 0.043340
#
#
# Mechanical properties :
#
#
# Convention : Reuss Voigt Hill
#
# Bulk Modulus (GPa) = 84.49717 91.11999 87.80858
# Shear Modulus (GPa) = 79.89962 43.23680 61.56821
#
# Velocity S-wave (km/s) = 6.14921 4.52349 5.39791
# Velocity P-wave (km/s) = 9.50819 8.39080 8.96692
#
# Compressibility (1/GPa) = 0.01183472
#
# Stress axis : x y z
#
# Youngs Moduli (GPa) = 91.91752 109.37731 148.05674
#
# Poissons Ratio (x) = 0.70052 0.05414
# Poissons Ratio (y) = 0.58869 0.10370
# Poissons Ratio (z) = 0.03361 0.07661
#
# Static dielectric constant tensor:
#      x y z
#    x 1.840630 0.000000 0.000000 
#    y 0.000000 1.773010 0.000000 
#    z 0.000000 0.000000 1.926560 
# 
# From -- ./inp_files/24749.got.cif
#   From: 2010.05.17/outbox.cif.g08.bks.cpg/sg72_13_cif.got.tgz:24749.got - 2010.06.03 17:03:01.
