data_PCOD9528537
_publ_section_title
;
Structure prediction by ZEFSAII (Michael W. Deem and Ramdas Pophale) SiO2 
 PCOD9528537
Probable space group: I B A M
;
_chemical_formula_sum "Si O2"
_cell_formula_units_Z 52
_cell_length_a 10.765672
_cell_length_b 16.819047
_cell_length_c 14.037203
_cell_angle_alpha 90.000000
_cell_angle_beta 90.000000
_cell_angle_gamma 90.000000
_cell_volume 2541.693093
_symmetry_space_group_name_H-M "I B A M"
_symmetry_group_IT_number 72
_symmetry_cell_setting 'orthorhombic'
loop_
_space_group_symop_operation_xyz
x,y,z
-x,-y,z
x,-y,1/2-z
-x,y,1/2-z
-x,-y,-z
x,y,-z
-x,y,1/2+z
x,-y,1/2+z
1/2+x,1/2+y,1/2+z
1/2-x,1/2-y,1/2+z
1/2+x,1/2-y,-z
1/2-x,1/2+y,-z
1/2-x,1/2-y,1/2-z
1/2+x,1/2+y,1/2-z
1/2-x,1/2+y,z
1/2+x,1/2-y,z
loop_
_atom_site_type_symbol
_atom_site_label
_atom_site_fract_x
_atom_site_fract_y
_atom_site_fract_z
Si Si1 0.500000 0.500000 0.750000
Si Si2 0.548991 0.789625 0.500000
Si Si3 0.572736 0.074111 0.849216
Si Si4 0.720534 0.175155 0.500000
Si Si5 0.704366 0.532675 0.609334
O O1 0.588946 0.547494 0.678015
O O2 0.572159 0.846691 0.590179
O O3 0.401760 0.770883 0.500000
O O4 0.648971 0.720147 0.500000
O O5 0.500000 0.085379 0.750000
O O6 0.500000 0.000000 0.897072
O O7 0.711219 0.037399 0.846835
O O8 0.720739 0.114543 0.409910
O O9 0.668545 0.509718 0.500000
#
# Coordination Sequence:
#
# PCOD9528537 Si02
#       5
#     4   8  16   8  16
#     4  12  22  36  70  98 136 168 236 294 348 410
#     4  12  22  45  65 101 140 181 232 276 350 418
#     4  11  20  39  76  98 121 172 243 289 323 396
#     4  10  25  41  64  94 145 189 214 276 358 417
#     4  10  22  42  63 100 133 177 229 286 350 406
#
# _framework density 20.458803
#
# number of rings (size 3 to 8) (size 9 to 14) (size 15 to 20)
#    0.923    0.308    4.615    2.769    0.000    2.462 
#    2.769    1.538    0.000    0.000    0.000    0.000 
#    0.000    0.000    0.000    0.000    0.000    0.000 
#
# Total GULP energy -144825.667706 kJ/mol
# GULP energy per Si atom -5570.217989 kJ/mol
# Density = 2.041224 g / cm^3
# Si number density = 20.458803 Si / 1000 Ang^3
#
#
#
# Elastic Constant Matrix: (Units=GPa)
#
#
# Indices 1 2 3 4 5 6 
#
# 1 132.3454 27.6097 44.6500 0.0000 0.0000 0.0000
# 2 27.6097 46.2285 23.0740 0.0000 0.0000 0.0000
# 3 44.6500 23.0740 140.4526 0.0000 0.0000 0.0000
# 4 0.0000 0.0000 0.0000 -41.0687 0.0000 0.0000
# 5 0.0000 0.0000 0.0000 0.0000 42.0366 0.0000
# 6 0.0000 0.0000 0.0000 0.0000 0.0000 41.3831
#
#
#
# Elastic Compliance Matrix: (Units=1/GPa)
#
#
# Indices 1 2 3 4 5 6 
#
# 1 0.009220 -0.004405 -0.002207 0.000000 0.000000 0.000000
# 2 -0.004405 0.025668 -0.002817 0.000000 0.000000 0.000000
# 3 -0.002207 -0.002817 0.008284 0.000000 0.000000 0.000000
# 4 0.000000 0.000000 0.000000 -0.024349 0.000000 0.000000
# 5 0.000000 0.000000 0.000000 0.000000 0.023789 0.000000
# 6 0.000000 0.000000 0.000000 0.000000 0.000000 0.024164
#
#
# Mechanical properties :
#
#
# Convention : Reuss Voigt Hill
#
# Bulk Modulus (GPa) = 41.12701 56.63265 48.87983
# Shear Modulus (GPa) = 53.34032 23.38306 38.36169
#
# Velocity S-wave (km/s) = 5.11162 3.38440 4.33491
# Velocity P-wave (km/s) = 7.41513 6.55848 6.99992
#
# Compressibility (1/GPa) = 0.02431492
#
# Stress axis : x y z
#
# Youngs Moduli (GPa) = 108.46518 38.95884 120.71074
#
# Poissons Ratio (x) = 0.17160 0.26645
# Poissons Ratio (y) = 0.47774 0.34000
# Poissons Ratio (z) = 0.23942 0.10973
#
# Static dielectric constant tensor:
#      x y z
#    x 1.839700 0.000000 0.000000 
#    y 0.000000 1.687050 0.000000 
#    z 0.000000 0.000000 1.773400 
# 
# From -- ./inp_files/19480.got.cif
#   From: 2010.05.17/outbox.cif.g08.bks.cpg/sg72_10_cif.got.tgz:19480.got - 2010.06.03 17:03:01.
