data_PCOD9528337
_publ_section_title
;
Structure prediction by ZEFSAII (Michael W. Deem and Ramdas Pophale) SiO2 
 PCOD9528337
Probable space group: I B A M
;
_chemical_formula_sum "Si O2"
_cell_formula_units_Z 80
_cell_length_a 14.297198
_cell_length_b 11.309044
_cell_length_c 23.352904
_cell_angle_alpha 90.000000
_cell_angle_beta 90.000000
_cell_angle_gamma 90.000000
_cell_volume 3775.875964
_symmetry_space_group_name_H-M "I B A M"
_symmetry_group_IT_number 72
_symmetry_cell_setting 'orthorhombic'
loop_
_space_group_symop_operation_xyz
x,y,z
-x,-y,z
x,-y,1/2-z
-x,y,1/2-z
-x,-y,-z
x,y,-z
-x,y,1/2+z
x,-y,1/2+z
1/2+x,1/2+y,1/2+z
1/2-x,1/2-y,1/2+z
1/2+x,1/2-y,-z
1/2-x,1/2+y,-z
1/2-x,1/2-y,1/2-z
1/2+x,1/2+y,1/2-z
1/2-x,1/2+y,z
1/2+x,1/2-y,z
loop_
_atom_site_type_symbol
_atom_site_label
_atom_site_fract_x
_atom_site_fract_y
_atom_site_fract_z
Si Si1 0.187490 0.136363 0.237998
Si Si2 0.798714 0.943794 0.113326
Si Si3 0.063285 0.777272 0.563294
Si Si4 0.893172 0.515342 0.932939
Si Si5 0.564701 0.617508 0.156885
O O1 0.250000 0.250000 0.250000
O O2 0.097724 0.151223 0.279430
O O3 0.222470 0.000000 0.250000
O O4 0.177150 0.132015 0.169925
O O5 0.689633 0.949804 0.099865
O O6 0.840028 0.073519 0.126285
O O7 0.863539 0.884688 0.065771
O O8 0.018191 0.773672 0.500000
O O9 0.120086 0.656251 0.570435
O O10 0.988802 0.794830 0.614362
O O11 0.000000 0.500000 0.912484
O O12 0.889979 0.480500 0.000000
O O13 0.500000 0.500000 0.161241
#
# Coordination Sequence:
#
# PCOD9528337 Si02
#       5
#    16  16  16  16  16
#     4  10  23  40  67  96 129 173 224 276 339 400
#     4  10  22  38  66  89 130 169 227 274 336 401
#     4  10  22  38  63  98 131 171 222 273 337 409
#     4  10  23  40  59  90 132 176 219 273 342 405
#     4   9  21  41  65  95 129 170 218 275 336 399
#
# _framework density 21.187137
#
# number of rings (size 3 to 8) (size 9 to 14) (size 15 to 20)
#    0.000    2.200    0.000    0.600    8.400   13.600 
#    0.000    4.000    0.000    5.400    0.000    0.000 
#    0.000    0.000    0.000    0.000    0.000    0.000 
#
# Total GULP energy -222918.718041 kJ/mol
# GULP energy per Si atom -5572.967951 kJ/mol
# Density = 2.113891 g / cm^3
# Si number density = 21.187137 Si / 1000 Ang^3
#
#
#
# Elastic Constant Matrix: (Units=GPa)
#
#
# Indices 1 2 3 4 5 6 
#
# 1 126.6602 21.1144 51.6008 0.0000 0.0000 0.0000
# 2 21.1144 55.6068 33.8819 0.0000 0.0000 0.0000
# 3 51.6008 33.8819 128.9819 0.0000 0.0000 0.0000
# 4 0.0000 0.0000 0.0000 14.2968 0.0000 0.0000
# 5 0.0000 0.0000 0.0000 0.0000 34.5739 0.0000
# 6 0.0000 0.0000 0.0000 0.0000 0.0000 22.6845
#
#
#
# Elastic Compliance Matrix: (Units=1/GPa)
#
#
# Indices 1 2 3 4 5 6 
#
# 1 0.009543 -0.001544 -0.003412 0.000000 0.000000 0.000000
# 2 -0.001544 0.021660 -0.005072 0.000000 0.000000 0.000000
# 3 -0.003412 -0.005072 0.010450 0.000000 0.000000 0.000000
# 4 0.000000 0.000000 0.000000 0.069946 0.000000 0.000000
# 5 0.000000 0.000000 0.000000 0.000000 0.028924 0.000000
# 6 0.000000 0.000000 0.000000 0.000000 0.000000 0.044083
#
#
# Mechanical properties :
#
#
# Convention : Reuss Voigt Hill
#
# Bulk Modulus (GPa) = 46.30388 58.27145 52.28766
# Shear Modulus (GPa) = 23.60038 27.95450 25.77744
#
# Velocity S-wave (km/s) = 3.34114 3.63631 3.49184
# Velocity P-wave (km/s) = 6.06518 6.72259 6.40233
#
# Compressibility (1/GPa) = 0.02159646
#
# Stress axis : x y z
#
# Youngs Moduli (GPa) = 104.79310 46.16743 95.69052
#
# Poissons Ratio (x) = 0.07130 0.32649
# Poissons Ratio (y) = 0.16185 0.48534
# Poissons Ratio (z) = 0.35755 0.23416
#
# Static dielectric constant tensor:
#      x y z
#    x 1.805720 0.000000 0.000000 
#    y 0.000000 1.775620 0.000000 
#    z 0.000000 0.000000 1.828790 
# 
# From -- ./inp_files/44064.got.cif
#   From: 2010.05.17/outbox.cif.g08.bks.cpg/sg72_23_cif.got.tgz:44064.got - 2010.06.03 17:03:01.
