data_PCOD9528015
_publ_section_title
;
Structure prediction by ZEFSAII (Michael W. Deem and Ramdas Pophale) SiO2 
 PCOD9528015
Probable space group: I B A M
;
_chemical_formula_sum "Si O2"
_cell_formula_units_Z 96
_cell_length_a 16.137510
_cell_length_b 11.411414
_cell_length_c 25.396176
_cell_angle_alpha 90.000000
_cell_angle_beta 90.000000
_cell_angle_gamma 90.000000
_cell_volume 4676.751715
_symmetry_space_group_name_H-M "I B A M"
_symmetry_group_IT_number 72
_symmetry_cell_setting 'orthorhombic'
loop_
_space_group_symop_operation_xyz
x,y,z
-x,-y,z
x,-y,1/2-z
-x,y,1/2-z
-x,-y,-z
x,y,-z
-x,y,1/2+z
x,-y,1/2+z
1/2+x,1/2+y,1/2+z
1/2-x,1/2-y,1/2+z
1/2+x,1/2-y,-z
1/2-x,1/2+y,-z
1/2-x,1/2-y,1/2-z
1/2+x,1/2+y,1/2-z
1/2-x,1/2+y,z
1/2+x,1/2-y,z
loop_
_atom_site_type_symbol
_atom_site_label
_atom_site_fract_x
_atom_site_fract_y
_atom_site_fract_z
Si Si1 0.637971 0.981464 0.142912
Si Si2 0.061292 0.255823 0.330421
Si Si3 0.887049 0.687413 0.783776
Si Si4 0.407528 0.529746 0.401693
Si Si5 0.265024 0.866553 0.939083
Si Si6 0.794468 0.164799 0.360296
O O1 0.577844 0.870747 0.133382
O O2 0.726848 0.928019 0.156780
O O3 0.607432 0.056755 0.192622
O O4 0.663311 0.061863 0.092875
O O5 0.113117 0.285761 0.277621
O O6 0.082080 0.135365 0.359472
O O7 0.968877 0.254040 0.308486
O O8 0.810908 0.745890 0.813482
O O9 0.500000 0.500000 0.424202
O O10 0.326235 0.572553 0.434650
O O11 0.374666 0.409334 0.376409
O O12 0.262360 0.741429 0.909514
O O13 0.286422 0.854975 0.000000
#
# Coordination Sequence:
#
# PCOD9528015 Si02
#       6
#    16  16  16  16  16  16
#     4  10  21  39  62  92 122 161 203 262 300 364
#     4  11  21  40  62  91 129 168 209 244 305 369
#     4  10  22  38  62  90 126 175 205 241 300 368
#     4  11  22  41  65  91 130 162 205 262 305 370
#     4  10  23  44  68  90 119 163 208 262 328 373
#     4  10  21  40  60  92 126 162 205 258 307 368
#
# _framework density 20.527069999999998
#
# number of rings (size 3 to 8) (size 9 to 14) (size 15 to 20)
#    0.000    1.667    3.333    1.000    0.000    5.667 
#    6.000    0.000    0.000    8.000    0.000    0.000 
#    0.000    0.000    0.000    0.000    0.000    0.000 
#
# Total GULP energy -267467.849551 kJ/mol
# GULP energy per Si atom -5572.246866 kJ/mol
# Density = 2.048035 g / cm^3
# Si number density = 20.527070 Si / 1000 Ang^3
#
#
#
# Elastic Constant Matrix: (Units=GPa)
#
#
# Indices 1 2 3 4 5 6 
#
# 1 47.2065 1.5602 19.5133 0.0000 0.0000 0.0000
# 2 1.5602 82.7515 29.3575 0.0000 0.0000 0.0000
# 3 19.5133 29.3575 106.3526 0.0000 0.0000 0.0000
# 4 0.0000 0.0000 0.0000 3.1038 0.0000 0.0000
# 5 0.0000 0.0000 0.0000 0.0000 21.8063 0.0000
# 6 0.0000 0.0000 0.0000 0.0000 0.0000 33.1764
#
#
#
# Elastic Compliance Matrix: (Units=1/GPa)
#
#
# Indices 1 2 3 4 5 6 
#
# 1 0.023025 0.001180 -0.004550 0.000000 0.000000 0.000000
# 2 0.001180 0.013457 -0.003931 0.000000 0.000000 0.000000
# 3 -0.004550 -0.003931 0.011323 0.000000 0.000000 0.000000
# 4 0.000000 0.000000 0.000000 0.322183 0.000000 0.000000
# 5 0.000000 0.000000 0.000000 0.000000 0.045858 0.000000
# 6 0.000000 0.000000 0.000000 0.000000 0.000000 0.030142
#
#
# Mechanical properties :
#
#
# Convention : Reuss Voigt Hill
#
# Bulk Modulus (GPa) = 30.11845 37.46363 33.79104
# Shear Modulus (GPa) = 10.60089 24.00929 17.30509
#
# Velocity S-wave (km/s) = 2.27498 3.42371 2.90666
# Velocity P-wave (km/s) = 4.64813 5.82405 5.26900
#
# Compressibility (1/GPa) = 0.03320224
#
# Stress axis : x y z
#
# Youngs Moduli (GPa) = 43.43019 74.31213 88.31793
#
# Poissons Ratio (x) = -0.08770 0.40188
# Poissons Ratio (y) = -0.05126 0.34719
# Poissons Ratio (z) = 0.19763 0.29213
#
# Static dielectric constant tensor:
#      x y z
#    x 1.787930 0.000000 0.000000 
#    y 0.000000 1.766330 0.000000 
#    z 0.000000 0.000000 1.713330 
# 
# From -- ./inp_files/44819.got.cif
#   From: 2010.05.17/outbox.cif.g08.bks.cpg/sg72_23_cif.got.tgz:44819.got - 2010.06.03 17:03:01.
