data_PCOD9528500
_publ_section_title
;
Structure prediction by ZEFSAII (Michael W. Deem and Ramdas Pophale) SiO2 
 PCOD9528500
Probable space group: I B A M
;
_chemical_formula_sum "Si O2"
_cell_formula_units_Z 64
_cell_length_a 9.007210
_cell_length_b 21.506080
_cell_length_c 15.169294
_cell_angle_alpha 90.000000
_cell_angle_beta 90.000000
_cell_angle_gamma 90.000000
_cell_volume 2938.440586
_symmetry_space_group_name_H-M "I B A M"
_symmetry_group_IT_number 72
_symmetry_cell_setting 'orthorhombic'
loop_
_space_group_symop_operation_xyz
x,y,z
-x,-y,z
x,-y,1/2-z
-x,y,1/2-z
-x,-y,-z
x,y,-z
-x,y,1/2+z
x,-y,1/2+z
1/2+x,1/2+y,1/2+z
1/2-x,1/2-y,1/2+z
1/2+x,1/2-y,-z
1/2-x,1/2+y,-z
1/2-x,1/2-y,1/2-z
1/2+x,1/2+y,1/2-z
1/2-x,1/2+y,z
1/2+x,1/2-y,z
loop_
_atom_site_type_symbol
_atom_site_label
_atom_site_fract_x
_atom_site_fract_y
_atom_site_fract_z
Si Si1 0.902059 0.942064 0.106243
Si Si2 0.970251 0.191135 0.102888
Si Si3 0.363625 0.189740 0.658423
Si Si4 0.103185 0.603967 0.180384
O O1 0.734242 0.935327 0.140264
O O2 0.981274 0.877643 0.130771
O O3 0.896661 0.945820 0.000000
O O4 0.000000 0.000000 0.138354
O O5 0.793701 0.195197 0.112489
O O6 0.056758 0.244136 0.155324
O O7 0.011201 0.199172 0.000000
O O8 0.162872 0.339726 0.744056
O O9 0.484249 0.140205 0.618785
O O10 0.000000 0.568014 0.250000
#
# Coordination Sequence:
#
# PCOD9528500 Si02
#       4
#    16  16  16  16
#     4  10  22  41  65  92 128 176 228 281 335 403
#     4  11  21  35  59  94 131 171 221 275 338 406
#     4   9  21  36  59  93 131 170 215 276 347 398
#     4   8  21  40  62  94 124 170 213 272 342 402
#
# _framework density 21.780259000000001
#
# number of rings (size 3 to 8) (size 9 to 14) (size 15 to 20)
#    1.500    0.750    0.000    2.250    0.000   14.000 
#    0.000    3.750    5.500    4.500    0.000    0.000 
#    0.000    1.000    0.000    0.000    0.000    0.000 
#
# Total GULP energy -178355.859191 kJ/mol
# GULP energy per Si atom -5573.620600 kJ/mol
# Density = 2.173069 g / cm^3
# Si number density = 21.780259 Si / 1000 Ang^3
#
#
#
# Elastic Constant Matrix: (Units=GPa)
#
#
# Indices 1 2 3 4 5 6 
#
# 1 172.7211 82.5134 18.9944 0.0000 0.0000 0.0000
# 2 82.5134 137.8252 27.7056 0.0000 0.0000 0.0000
# 3 18.9944 27.7056 40.3061 0.0003 0.0000 0.0000
# 4 0.0000 0.0000 0.0003 -21.1441 0.0000 0.0001
# 5 0.0000 0.0000 0.0000 0.0000 33.1479 0.0000
# 6 0.0000 0.0000 0.0000 0.0001 0.0000 37.7444
#
#
#
# Elastic Compliance Matrix: (Units=1/GPa)
#
#
# Indices 1 2 3 4 5 6 
#
# 1 0.008120 -0.004748 -0.000563 0.000000 0.000000 0.000000
# 2 -0.004748 0.011195 -0.005458 0.000000 0.000000 0.000000
# 3 -0.000563 -0.005458 0.028827 0.000000 0.000000 0.000000
# 4 0.000000 0.000000 0.000000 -0.047295 0.000000 0.000000
# 5 0.000000 0.000000 0.000000 0.000000 0.030168 0.000000
# 6 0.000000 0.000000 0.000000 0.000000 0.000000 0.026494
#
#
# Mechanical properties :
#
#
# Convention : Reuss Voigt Hill
#
# Bulk Modulus (GPa) = 37.58740 67.69769 52.64254
# Shear Modulus (GPa) = 56.87310 24.72558 40.79934
#
# Velocity S-wave (km/s) = 5.11556 3.37297 4.33277
# Velocity P-wave (km/s) = 7.22405 6.80580 7.01804
#
# Compressibility (1/GPa) = 0.02660466
#
# Stress axis : x y z
#
# Youngs Moduli (GPa) = 123.15500 89.32329 34.68974
#
# Poissons Ratio (x) = 0.42411 0.01952
# Poissons Ratio (y) = 0.58475 0.18933
# Poissons Ratio (z) = 0.06931 0.48752
#
# Static dielectric constant tensor:
#      x y z
#    x 1.810800 0.000000 0.000000 
#    y 0.000000 1.795050 0.000000 
#    z 0.000000 0.000000 1.830020 
# 
# From -- ./inp_files/27652.got.cif
#   From: 2010.05.17/outbox.cif.g08.bks.cpg/sg72_14_cif.got.tgz:27652.got - 2010.06.03 17:03:01.
