data_PCOD9528241
_publ_section_title
;
Structure prediction by ZEFSAII (Michael W. Deem and Ramdas Pophale) SiO2 
 PCOD9528241
Probable space group: I B A M
;
_chemical_formula_sum "Si O2"
_cell_formula_units_Z 56
_cell_length_a 19.518937
_cell_length_b 13.651553
_cell_length_c 8.908303
_cell_angle_alpha 90.000000
_cell_angle_beta 90.000000
_cell_angle_gamma 90.000000
_cell_volume 2373.740295
_symmetry_space_group_name_H-M "I B A M"
_symmetry_group_IT_number 72
_symmetry_cell_setting 'orthorhombic'
loop_
_space_group_symop_operation_xyz
x,y,z
-x,-y,z
x,-y,1/2-z
-x,y,1/2-z
-x,-y,-z
x,y,-z
-x,y,1/2+z
x,-y,1/2+z
1/2+x,1/2+y,1/2+z
1/2-x,1/2-y,1/2+z
1/2+x,1/2-y,-z
1/2-x,1/2+y,-z
1/2-x,1/2-y,1/2-z
1/2+x,1/2+y,1/2-z
1/2-x,1/2+y,z
1/2+x,1/2-y,z
loop_
_atom_site_type_symbol
_atom_site_label
_atom_site_fract_x
_atom_site_fract_y
_atom_site_fract_z
Si Si1 0.928687 0.626199 0.325827
Si Si2 0.211161 0.159486 0.833396
Si Si3 0.928685 0.861583 0.669874
Si Si4 0.314128 0.000000 0.750000
O O1 0.920162 0.591017 0.500000
O O2 0.927280 0.743081 0.335264
O O3 0.870130 0.584550 0.215683
O O4 0.000000 0.600784 0.250000
O O5 0.250000 0.250000 0.750000
O O6 0.142578 0.120021 0.753992
O O7 0.262653 0.067521 0.842991
O O8 0.193577 0.194151 0.000000
O O9 0.927373 0.900126 0.500000
O O10 0.000000 0.889329 0.750000
#
# Coordination Sequence:
#
# PCOD9528241 Si02
#       4
#    16  16  16   8
#     4  10  22  40  63  97 136 176 221 271 336 406
#     4  12  26  45  69 101 138 182 230 283 344 406
#     4  10  21  43  70 100 135 179 228 281 341 405
#     4  12  25  42  65  98 138 178 228 276 335 406
#
# _framework density 23.591459
#
# number of rings (size 3 to 8) (size 9 to 14) (size 15 to 20)
#    0.000    1.143    2.857    3.000    0.000    9.143 
#    0.000    0.714    0.000    3.429    0.000    0.000 
#    0.000    0.000    0.000    0.000    0.000    0.000 
#
# Total GULP energy -156058.045337 kJ/mol
# GULP energy per Si atom -5573.501619 kJ/mol
# Density = 2.353776 g / cm^3
# Si number density = 23.591459 Si / 1000 Ang^3
#
#
#
# Elastic Constant Matrix: (Units=GPa)
#
#
# Indices 1 2 3 4 5 6 
#
# 1 235.2725 20.6420 88.4807 0.0000 0.0000 0.0000
# 2 20.6420 85.5678 36.2950 0.0000 0.0000 0.0000
# 3 88.4807 36.2950 151.1325 0.0000 0.0000 0.0000
# 4 0.0000 0.0000 0.0000 14.3346 0.0000 0.0000
# 5 0.0000 0.0000 0.0000 0.0000 -16.6559 0.0000
# 6 0.0000 0.0000 0.0000 0.0000 0.0000 31.5365
#
#
#
# Elastic Compliance Matrix: (Units=1/GPa)
#
#
# Indices 1 2 3 4 5 6 
#
# 1 0.005451 0.000043 -0.003201 0.000000 0.000000 0.000000
# 2 0.000043 0.013012 -0.003150 0.000000 0.000000 0.000000
# 3 -0.003201 -0.003150 0.009248 0.000000 0.000000 0.000000
# 4 0.000000 0.000000 0.000000 0.069761 0.000000 0.000000
# 5 0.000000 0.000000 0.000000 0.000000 -0.060039 0.000000
# 6 0.000000 0.000000 0.000000 0.000000 0.000000 0.031709
#
#
# Mechanical properties :
#
#
# Convention : Reuss Voigt Hill
#
# Bulk Modulus (GPa) = 66.25380 84.75647 75.50513
# Shear Modulus (GPa) = 57.61003 27.61338 42.61171
#
# Velocity S-wave (km/s) = 4.94701 3.42494 4.25459
# Velocity P-wave (km/s) = 7.79585 7.18645 7.49734
#
# Compressibility (1/GPa) = 0.01509347
#
# Stress axis : x y z
#
# Youngs Moduli (GPa) = 183.46650 76.84944 108.13732
#
# Poissons Ratio (x) = -0.00331 0.34619
# Poissons Ratio (y) = -0.00790 0.34065
# Poissons Ratio (z) = 0.58735 0.24209
#
# Static dielectric constant tensor:
#      x y z
#    x 1.867300 0.000000 0.000000 
#    y 0.000000 1.950940 0.000000 
#    z 0.000000 0.000000 1.946270 
# 
# From -- ./inp_files/3243.got.cif
#   From: 2010.05.17/outbox.cif.g08.bks.cpg/sg72_2_cif.got.tgz:3243.got - 2010.06.03 17:03:01.
