data_PCOD9528786
_publ_section_title
;
Structure prediction by ZEFSAII (Michael W. Deem and Ramdas Pophale) SiO2 
 PCOD9528786
Probable space group: I B A M
;
_chemical_formula_sum "Si O2"
_cell_formula_units_Z 96
_cell_length_a 14.230918
_cell_length_b 20.975015
_cell_length_c 16.970435
_cell_angle_alpha 90.000000
_cell_angle_beta 90.000000
_cell_angle_gamma 90.000000
_cell_volume 5065.568248
_symmetry_space_group_name_H-M "I B A M"
_symmetry_group_IT_number 72
_symmetry_cell_setting 'orthorhombic'
loop_
_space_group_symop_operation_xyz
x,y,z
-x,-y,z
x,-y,1/2-z
-x,y,1/2-z
-x,-y,-z
x,y,-z
-x,y,1/2+z
x,-y,1/2+z
1/2+x,1/2+y,1/2+z
1/2-x,1/2-y,1/2+z
1/2+x,1/2-y,-z
1/2-x,1/2+y,-z
1/2-x,1/2-y,1/2-z
1/2+x,1/2+y,1/2-z
1/2-x,1/2+y,z
1/2+x,1/2-y,z
loop_
_atom_site_type_symbol
_atom_site_label
_atom_site_fract_x
_atom_site_fract_y
_atom_site_fract_z
Si Si1 0.055317 0.565360 0.594206
Si Si2 0.744382 0.061940 0.804952
Si Si3 0.072388 0.312828 0.406162
Si Si4 0.027910 0.813225 0.342187
Si Si5 0.566815 0.440586 0.406484
Si Si6 0.740852 0.313055 0.196536
O O1 0.073498 0.567461 0.500000
O O2 0.151683 0.567783 0.641877
O O3 0.000000 0.500000 0.611343
O O4 0.989451 0.625240 0.614953
O O5 0.836203 0.055610 0.859307
O O6 0.755492 0.124804 0.751736
O O7 0.736619 0.000000 0.750000
O O8 0.085214 0.312281 0.500000
O O9 0.171991 0.315068 0.362779
O O10 0.017331 0.249830 0.379165
O O11 0.140462 0.811684 0.346532
O O12 0.000000 0.815447 0.250000
O O13 0.985684 0.875477 0.383482
O O14 0.500000 0.500000 0.385351
O O15 0.584180 0.442328 0.500000
O O16 0.750000 0.250000 0.250000
#
# Coordination Sequence:
#
# PCOD9528786 Si02
#       6
#    16  16  16  16  16  16
#     4  10  23  43  64  90 129 171 213 264 320 385
#     4  12  24  39  66  96 125 168 215 262 322 379
#     4  11  25  43  65  94 131 170 213 265 323 381
#     4  12  23  42  68  94 130 167 215 265 318 380
#     4  11  25  43  65  95 131 168 211 264 321 383
#     4  12  24  40  65  95 125 166 210 267 315 376
#
# _framework density 18.951478000000002
#
# number of rings (size 3 to 8) (size 9 to 14) (size 15 to 20)
#    0.000    0.667    3.333    4.000    0.000    3.000 
#    0.000    6.667    0.000    0.000    0.000    0.000 
#    0.000    0.000    0.000    0.000    0.000    0.000 
#
# Total GULP energy -268699.038672 kJ/mol
# GULP energy per Si atom -5597.896639 kJ/mol
# Density = 1.890834 g / cm^3
# Si number density = 18.951478 Si / 1000 Ang^3
#
#
#
# Elastic Constant Matrix: (Units=GPa)
#
#
# Indices 1 2 3 4 5 6 
#
# 1 230.7544 86.1737 93.9178 0.0000 0.0000 0.0000
# 2 86.1737 173.6049 62.4595 -0.0001 0.0000 0.0000
# 3 93.9178 62.4595 83.9436 -0.0001 0.0001 0.0000
# 4 0.0000 -0.0001 -0.0001 4.6760 0.0001 0.0000
# 5 0.0000 0.0000 0.0001 0.0001 26.7488 0.0000
# 6 0.0000 0.0000 0.0000 0.0000 0.0000 31.6870
#
#
#
# Elastic Compliance Matrix: (Units=1/GPa)
#
#
# Indices 1 2 3 4 5 6 
#
# 1 0.008091 -0.001037 -0.008281 0.000000 0.000000 0.000000
# 2 -0.001037 0.007999 -0.004791 0.000000 0.000000 0.000000
# 3 -0.008281 -0.004791 0.024743 0.000000 0.000000 0.000000
# 4 0.000000 0.000000 0.000000 0.213859 -0.000001 0.000000
# 5 0.000000 0.000000 0.000000 -0.000001 0.037385 0.000000
# 6 0.000000 0.000000 0.000000 0.000000 0.000000 0.031559
#
#
# Mechanical properties :
#
#
# Convention : Reuss Voigt Hill
#
# Bulk Modulus (GPa) = 79.27699 108.15612 93.71655
# Shear Modulus (GPa) = 14.04261 29.00583 21.52422
#
# Velocity S-wave (km/s) = 2.72504 3.91644 3.37375
# Velocity P-wave (km/s) = 7.19885 8.81166 8.04577
#
# Compressibility (1/GPa) = 0.01261400
#
# Stress axis : x y z
#
# Youngs Moduli (GPa) = 123.58922 125.01879 40.41542
#
# Poissons Ratio (x) = 0.12964 0.33469
# Poissons Ratio (y) = 0.12816 0.19365
# Poissons Ratio (z) = 1.02346 0.59902
#
# Static dielectric constant tensor:
#      x y z
#    x 1.620200 0.000000 0.000000 
#    y 0.000000 1.627510 0.000000 
#    z 0.000000 0.000000 1.631060 
# 
# From -- ./inp_files/21813.got.cif
#   From: 2010.05.17/outbox.cif.g08.bks.cpg/sg72_11_cif.got.tgz:21813.got - 2010.06.03 17:03:01.
