data_PCOD9528855
_publ_section_title
;
Structure prediction by ZEFSAII (Michael W. Deem and Ramdas Pophale) SiO2 
 PCOD9528855
Probable space group: I B A M
;
_chemical_formula_sum "Si O2"
_cell_formula_units_Z 56
_cell_length_a 11.172971
_cell_length_b 15.738494
_cell_length_c 17.064918
_cell_angle_alpha 90.000000
_cell_angle_beta 90.000000
_cell_angle_gamma 90.000000
_cell_volume 3000.793083
_symmetry_space_group_name_H-M "I B A M"
_symmetry_group_IT_number 72
_symmetry_cell_setting 'orthorhombic'
loop_
_space_group_symop_operation_xyz
x,y,z
-x,-y,z
x,-y,1/2-z
-x,y,1/2-z
-x,-y,-z
x,y,-z
-x,y,1/2+z
x,-y,1/2+z
1/2+x,1/2+y,1/2+z
1/2-x,1/2-y,1/2+z
1/2+x,1/2-y,-z
1/2-x,1/2+y,-z
1/2-x,1/2-y,1/2-z
1/2+x,1/2+y,1/2-z
1/2-x,1/2+y,z
1/2+x,1/2-y,z
loop_
_atom_site_type_symbol
_atom_site_label
_atom_site_fract_x
_atom_site_fract_y
_atom_site_fract_z
Si Si1 0.000000 0.500000 0.132182
Si Si2 0.782332 0.063814 0.500000
Si Si3 0.205114 0.500000 0.250000
Si Si4 0.484665 0.325717 0.000000
Si Si5 0.617797 0.555861 0.132953
Si Si6 0.989020 0.375336 0.000000
O O1 0.889818 0.468175 0.185202
O O2 0.041311 0.422930 0.076114
O O3 0.650297 0.099072 0.500000
O O4 0.882141 0.136425 0.500000
O O5 0.810282 0.005429 0.574243
O O6 0.295233 0.433591 0.207602
O O7 0.421073 0.364703 0.921706
O O8 0.494712 0.225043 0.000000
O O9 0.500000 0.500000 0.153940
#
# Coordination Sequence:
#
# PCOD9528855 Si02
#       6
#     8   8   8   8  16   8
#     4  10  24  34  58  82 112 166 192 232 290 366
#     4   9  17  36  56  81 112 143 205 244 274 349
#     4  11  19  36  58  82 117 147 200 228 298 371
#     4   9  21  34  62  90 108 148 210 246 294 338
#     4   9  18  35  60  84 108 151 191 244 292 345
#     4  11  20  40  58  82 118 157 206 243 288 348
#
# _framework density 18.661732000000001
#
# number of rings (size 3 to 8) (size 9 to 14) (size 15 to 20)
#    0.000    2.286    2.857    2.143    0.000    2.286 
#    0.000    1.429   25.143    0.000    0.000    0.000 
#    0.000    0.000    0.000    0.000    0.000    0.000 
#
# Total GULP energy -155899.088535 kJ/mol
# GULP energy per Si atom -5567.824591 kJ/mol
# Density = 1.861926 g / cm^3
# Si number density = 18.661732 Si / 1000 Ang^3
#
#
#
# Elastic Constant Matrix: (Units=GPa)
#
#
# Indices 1 2 3 4 5 6 
#
# 1 96.4391 18.2897 40.6632 0.0000 0.0000 0.0000
# 2 18.2897 126.3457 34.2176 0.0000 0.0000 0.0000
# 3 40.6632 34.2176 102.1275 0.0000 0.0000 0.0000
# 4 0.0000 0.0000 0.0000 6.9570 0.0000 0.0000
# 5 0.0000 0.0000 0.0000 0.0000 94.4479 0.0000
# 6 0.0000 0.0000 0.0000 0.0000 0.0000 14.9706
#
#
#
# Elastic Compliance Matrix: (Units=1/GPa)
#
#
# Indices 1 2 3 4 5 6 
#
# 1 0.012491 -0.000507 -0.004803 0.000000 0.000000 0.000000
# 2 -0.000507 0.008725 -0.002721 0.000000 0.000000 0.000000
# 3 -0.004803 -0.002721 0.012616 0.000000 0.000000 0.000000
# 4 0.000000 0.000000 0.000000 0.143741 0.000000 0.000000
# 5 0.000000 0.000000 0.000000 0.000000 0.010588 0.000000
# 6 0.000000 0.000000 0.000000 0.000000 0.000000 0.066798
#
#
# Mechanical properties :
#
#
# Convention : Reuss Voigt Hill
#
# Bulk Modulus (GPa) = 56.28124 56.80593 56.54359
# Shear Modulus (GPa) = 18.05411 38.72455 28.38933
#
# Velocity S-wave (km/s) = 3.11374 4.56024 3.90456
# Velocity P-wave (km/s) = 6.56897 7.63110 7.11987
#
# Compressibility (1/GPa) = 0.01776791
#
# Stress axis : x y z
#
# Youngs Moduli (GPa) = 80.05910 114.60994 79.26437
#
# Poissons Ratio (x) = 0.05814 0.38074
# Poissons Ratio (y) = 0.04061 0.21571
# Poissons Ratio (z) = 0.38455 0.31190
#
# Static dielectric constant tensor:
#      x y z
#    x 1.697260 0.000000 0.000000 
#    y 0.000000 1.586030 0.000000 
#    z 0.000000 0.000000 1.748300 
# 
# From -- ./inp_files/28736.got.cif
#   From: 2010.05.17/outbox.cif.g08.bks.cpg/sg72_15_cif.got.tgz:28736.got - 2010.06.03 17:03:01.
