data_PCOD9528197
_publ_section_title
;
Structure prediction by ZEFSAII (Michael W. Deem and Ramdas Pophale) SiO2 
 PCOD9528197
Probable space group: I B A M
;
_chemical_formula_sum "Si O2"
_cell_formula_units_Z 80
_cell_length_a 9.693393
_cell_length_b 24.167678
_cell_length_c 13.671323
_cell_angle_alpha 90.000000
_cell_angle_beta 90.000000
_cell_angle_gamma 90.000000
_cell_volume 3202.737101
_symmetry_space_group_name_H-M "I B A M"
_symmetry_group_IT_number 72
_symmetry_cell_setting 'orthorhombic'
loop_
_space_group_symop_operation_xyz
x,y,z
-x,-y,z
x,-y,1/2-z
-x,y,1/2-z
-x,-y,-z
x,y,-z
-x,y,1/2+z
x,-y,1/2+z
1/2+x,1/2+y,1/2+z
1/2-x,1/2-y,1/2+z
1/2+x,1/2-y,-z
1/2-x,1/2+y,-z
1/2-x,1/2-y,1/2-z
1/2+x,1/2+y,1/2-z
1/2-x,1/2+y,z
1/2+x,1/2-y,z
loop_
_atom_site_type_symbol
_atom_site_label
_atom_site_fract_x
_atom_site_fract_y
_atom_site_fract_z
Si Si1 0.520296 0.875952 0.390155
Si Si2 0.352841 0.433209 0.791019
Si Si3 0.689168 0.035668 0.384038
Si Si4 0.791913 0.821849 0.681049
Si Si5 0.755328 0.295975 0.894287
O O1 0.579137 0.879058 0.500000
O O2 0.465133 0.938560 0.367897
O O3 0.635455 0.846862 0.324727
O O4 0.388955 0.835485 0.394162
O O5 0.500000 0.449389 0.750000
O O6 0.258406 0.477202 0.850289
O O7 0.271932 0.424493 0.689149
O O8 0.373959 0.376466 0.848494
O O9 0.711637 0.041417 0.500000
O O10 0.802523 0.767845 0.616060
O O11 0.825918 0.805279 0.792977
O O12 0.684927 0.303540 0.000000
#
# Coordination Sequence:
#
# PCOD9528197 Si02
#       5
#    16  16  16  16  16
#     4  10  21  41  69  98 132 175 226 280 342 409
#     4  11  25  42  65  98 132 177 233 277 339 413
#     4  10  22  43  68  93 129 175 224 284 344 406
#     4  11  23  40  67  97 138 177 221 284 342 396
#     4  10  22  40  62  94 135 179 221 267 335 408
#
# _framework density 24.978635000000001
#
# number of rings (size 3 to 8) (size 9 to 14) (size 15 to 20)
#    0.000    1.600    2.000    2.400    0.000    7.200 
#    0.000    4.000    0.000    0.000    0.000    1.400 
#    0.000    0.000    0.000    0.000    0.000    0.000 
#
# Total GULP energy -222945.888246 kJ/mol
# GULP energy per Si atom -5573.647206 kJ/mol
# Density = 2.492178 g / cm^3
# Si number density = 24.978635 Si / 1000 Ang^3
#
#
#
# Elastic Constant Matrix: (Units=GPa)
#
#
# Indices 1 2 3 4 5 6 
#
# 1 74.0413 30.9008 22.3139 0.0000 0.0000 -0.0002
# 2 30.9008 198.9991 11.9891 0.0000 0.0000 -0.0001
# 3 22.3139 11.9891 157.9318 0.0003 -0.0002 -0.0023
# 4 0.0000 0.0000 0.0003 3.4582 -0.0001 -0.0014
# 5 0.0000 0.0000 -0.0002 -0.0001 29.6575 0.0015
# 6 -0.0002 -0.0001 -0.0023 -0.0014 0.0015 -397.5925
#
#
#
# Elastic Compliance Matrix: (Units=1/GPa)
#
#
# Indices 1 2 3 4 5 6 
#
# 1 0.015019 -0.002214 -0.001954 0.000000 0.000000 0.000000
# 2 -0.002214 0.005375 -0.000095 0.000000 0.000000 0.000000
# 3 -0.001954 -0.000095 0.006615 -0.000001 0.000000 0.000000
# 4 0.000000 0.000000 -0.000001 0.289164 0.000001 -0.000001
# 5 0.000000 0.000000 0.000000 0.000001 0.033718 0.000000
# 6 0.000000 0.000000 0.000000 -0.000001 0.000000 -0.002515
#
#
# Mechanical properties :
#
#
# Convention : Reuss Voigt Hill
#
# Bulk Modulus (GPa) = 54.10696 62.37553 58.24124
# Shear Modulus (GPa) = 13.80971 -48.51081 -17.35055
#
# Velocity S-wave (km/s) = 2.35385 -4.41170 -2.63842
# Velocity P-wave (km/s) = 5.39405 0.96178 3.75305
#
# Compressibility (1/GPa) = 0.01848191
#
# Stress axis : x y z
#
# Youngs Moduli (GPa) = 66.58224 186.05544 151.16859
#
# Poissons Ratio (x) = 0.41201 0.29537
# Poissons Ratio (y) = 0.14744 0.01438
# Poissons Ratio (z) = 0.13010 0.01770
#
# Static dielectric constant tensor:
#      x y z
#    x 2.358920 0.000000 0.000000 
#    y 0.000000 2.061430 0.000000 
#    z 0.000000 0.000000 1.962900 
# 
# From -- ./inp_files/20219.got.cif
#   From: 2010.05.17/outbox.cif.g08.bks.cpg/sg72_11_cif.got.tgz:20219.got - 2010.06.03 17:03:01.
