data_PCOD9528897
_publ_section_title
;
Structure prediction by ZEFSAII (Michael W. Deem and Ramdas Pophale) SiO2 
 PCOD9528897
Probable space group: I B A M
;
_chemical_formula_sum "Si O2"
_cell_formula_units_Z 52
_cell_length_a 10.378330
_cell_length_b 9.645497
_cell_length_c 23.245860
_cell_angle_alpha 90.000000
_cell_angle_beta 90.000000
_cell_angle_gamma 90.000000
_cell_volume 2327.007077
_symmetry_space_group_name_H-M "I B A M"
_symmetry_group_IT_number 72
_symmetry_cell_setting 'orthorhombic'
loop_
_space_group_symop_operation_xyz
x,y,z
-x,-y,z
x,-y,1/2-z
-x,y,1/2-z
-x,-y,-z
x,y,-z
-x,y,1/2+z
x,-y,1/2+z
1/2+x,1/2+y,1/2+z
1/2-x,1/2-y,1/2+z
1/2+x,1/2-y,-z
1/2-x,1/2+y,-z
1/2-x,1/2-y,1/2-z
1/2+x,1/2+y,1/2-z
1/2-x,1/2+y,z
1/2+x,1/2-y,z
loop_
_atom_site_type_symbol
_atom_site_label
_atom_site_fract_x
_atom_site_fract_y
_atom_site_fract_z
Si Si1 0.500000 0.500000 0.250000
Si Si2 0.866174 0.917655 0.434650
Si Si3 0.328766 0.714523 0.677354
Si Si4 0.146638 0.502885 0.353214
O O1 0.586244 0.395940 0.288255
O O2 0.835487 0.878772 0.500000
O O3 0.751238 0.005353 0.404780
O O4 0.877757 0.793381 0.389075
O O5 0.000000 0.000000 0.434244
O O6 0.185462 0.650258 0.675061
O O7 0.331203 0.875717 0.690608
O O8 0.000000 0.500000 0.371639
#
# Coordination Sequence:
#
# PCOD9528897 Si02
#       4
#     4  16  16  16
#     4  12  24  44  74  88 144 188 228 278 348 384
#     4   9  20  40  68  95 134 180 221 278 344 410
#     4  10  24  43  66  98 134 179 224 278 337 405
#     4  10  24  43  69 100 136 169 231 280 340 413
#
# _framework density 22.346298999999998
#
# number of rings (size 3 to 8) (size 9 to 14) (size 15 to 20)
#    1.846    0.308    1.538    0.000    8.615    3.077 
#    0.000    0.000    0.000    0.000    0.000    0.000 
#    0.000    0.000    0.000    0.000    0.000    0.000 
#
# Total GULP energy -144884.087935 kJ/mol
# GULP energy per Si atom -5572.464921 kJ/mol
# Density = 2.229544 g / cm^3
# Si number density = 22.346299 Si / 1000 Ang^3
#
#
#
# Elastic Constant Matrix: (Units=GPa)
#
#
# Indices 1 2 3 4 5 6 
#
# 1 149.8133 23.4956 29.1596 0.0000 0.0000 0.0000
# 2 23.4956 99.0448 6.2822 0.0000 0.0000 0.0000
# 3 29.1596 6.2822 121.7155 0.0000 0.0000 0.0000
# 4 0.0000 0.0000 0.0000 3.9833 0.0000 0.0000
# 5 0.0000 0.0000 0.0000 0.0000 15.5739 0.0000
# 6 0.0000 0.0000 0.0000 0.0000 0.0000 20.0009
#
#
#
# Elastic Compliance Matrix: (Units=1/GPa)
#
#
# Indices 1 2 3 4 5 6 
#
# 1 0.007250 -0.001615 -0.001654 0.000000 0.000000 0.000000
# 2 -0.001615 0.010489 -0.000154 0.000000 0.000000 0.000000
# 3 -0.001654 -0.000154 0.008620 0.000000 0.000000 0.000000
# 4 0.000000 0.000000 0.000000 0.251049 0.000000 0.000000
# 5 0.000000 0.000000 0.000000 0.000000 0.064210 0.000000
# 6 0.000000 0.000000 0.000000 0.000000 0.000000 0.049998
#
#
# Mechanical properties :
#
#
# Convention : Reuss Voigt Hill
#
# Bulk Modulus (GPa) = 51.24694 54.27203 52.75949
# Shear Modulus (GPa) = 12.34670 28.68736 20.51703
#
# Velocity S-wave (km/s) = 2.35312 3.58685 3.03337
# Velocity P-wave (km/s) = 5.51051 6.44155 5.99413
#
# Compressibility (1/GPa) = 0.01951336
#
# Stress axis : x y z
#
# Youngs Moduli (GPa) = 137.92895 95.33476 116.00928
#
# Poissons Ratio (x) = 0.15397 0.19183
# Poissons Ratio (y) = 0.22276 0.01792
# Poissons Ratio (z) = 0.22807 0.01473
#
# Static dielectric constant tensor:
#      x y z
#    x 1.821250 0.000000 0.000000 
#    y 0.000000 1.915270 0.000000 
#    z 0.000000 0.000000 1.876140 
# 
# From -- ./inp_files/47776.got.cif
#   From: 2010.05.17/outbox.cif.g08.bks.cpg/sg72_24_cif.got.tgz:47776.got - 2010.06.03 17:03:01.
