data_PCOD9528638
_publ_section_title
;
Structure prediction by ZEFSAII (Michael W. Deem and Ramdas Pophale) SiO2 
 PCOD9528638
Probable space group: I B A M
;
_chemical_formula_sum "Si O2"
_cell_formula_units_Z 52
_cell_length_a 22.000237
_cell_length_b 7.811922
_cell_length_c 11.766145
_cell_angle_alpha 90.000000
_cell_angle_beta 90.000000
_cell_angle_gamma 90.000000
_cell_volume 2022.178338
_symmetry_space_group_name_H-M "I B A M"
_symmetry_group_IT_number 72
_symmetry_cell_setting 'orthorhombic'
loop_
_space_group_symop_operation_xyz
x,y,z
-x,-y,z
x,-y,1/2-z
-x,y,1/2-z
-x,-y,-z
x,y,-z
-x,y,1/2+z
x,-y,1/2+z
1/2+x,1/2+y,1/2+z
1/2-x,1/2-y,1/2+z
1/2+x,1/2-y,-z
1/2-x,1/2+y,-z
1/2-x,1/2-y,1/2-z
1/2+x,1/2+y,1/2-z
1/2-x,1/2+y,z
1/2+x,1/2-y,z
loop_
_atom_site_type_symbol
_atom_site_label
_atom_site_fract_x
_atom_site_fract_y
_atom_site_fract_z
Si Si1 0.352117 0.686382 0.741050
Si Si2 0.000000 0.000000 0.750000
Si Si3 0.770235 0.598612 0.872032
Si Si4 0.038875 0.327760 0.626385
O O1 0.384588 0.500000 0.750000
O O2 0.299058 0.659709 0.647732
O O3 0.316631 0.743237 0.854061
O O4 0.402427 0.818634 0.705820
O O5 0.001340 0.843301 0.846746
O O6 0.781138 0.500000 0.750000
O O7 0.777611 0.528412 0.000000
O O8 0.063684 0.319216 0.500000
O O9 0.000000 0.500000 0.634620
#
# Coordination Sequence:
#
# PCOD9528638 Si02
#       4
#    16   4  16  16
#     4  10  22  44  72 107 154 202 252 320 391 471
#     4  12  24  48  68 104 148 188 256 324 394 464
#     4  10  23  42  72 114 158 204 255 316 395 478
#     4  11  25  46  74 107 148 202 262 325 393 468
#
# _framework density 25.714842000000001
#
# number of rings (size 3 to 8) (size 9 to 14) (size 15 to 20)
#    0.000    1.538    1.538    1.846    0.000   16.000 
#    0.000    3.077    0.000    2.769    0.000    0.000 
#    0.000    0.000    0.000    0.000    0.000    0.000 
#
# Total GULP energy -144800.875722 kJ/mol
# GULP energy per Si atom -5569.264451 kJ/mol
# Density = 2.565631 g / cm^3
# Si number density = 25.714842 Si / 1000 Ang^3
#
#
#
# Elastic Constant Matrix: (Units=GPa)
#
#
# Indices 1 2 3 4 5 6 
#
# 1 78.7823 65.7019 43.9272 0.0000 0.0000 0.0000
# 2 65.7019 210.4256 43.1042 0.0000 0.0000 0.0000
# 3 43.9272 43.1042 156.5859 0.0000 0.0000 0.0000
# 4 0.0000 0.0000 0.0000 43.4205 0.0000 0.0000
# 5 0.0000 0.0000 0.0000 0.0000 8.0647 0.0000
# 6 0.0000 0.0000 0.0000 0.0000 0.0000 32.2097
#
#
#
# Elastic Compliance Matrix: (Units=1/GPa)
#
#
# Indices 1 2 3 4 5 6 
#
# 1 0.019236 -0.005194 -0.003967 0.000000 0.000000 0.000000
# 2 -0.005194 0.006439 -0.000315 0.000000 0.000000 0.000000
# 3 -0.003967 -0.000315 0.007586 0.000000 0.000000 0.000000
# 4 0.000000 0.000000 0.000000 0.023031 0.000000 0.000000
# 5 0.000000 0.000000 0.000000 0.000000 0.123998 0.000000
# 6 0.000000 0.000000 0.000000 0.000000 0.000000 0.031047
#
#
# Mechanical properties :
#
#
# Convention : Reuss Voigt Hill
#
# Bulk Modulus (GPa) = 69.88512 83.47340 76.67926
# Shear Modulus (GPa) = 21.27145 36.27634 28.77389
#
# Velocity S-wave (km/s) = 2.87924 3.76002 3.34872
# Velocity P-wave (km/s) = 6.18784 7.16813 6.69594
#
# Compressibility (1/GPa) = 0.01430920
#
# Stress axis : x y z
#
# Youngs Moduli (GPa) = 51.98513 155.31545 131.82413
#
# Poissons Ratio (x) = 0.80665 0.52290
# Poissons Ratio (y) = 0.26999 0.04157
# Poissons Ratio (z) = 0.20621 0.04898
#
# Static dielectric constant tensor:
#      x y z
#    x 1.842740 0.000000 0.000000 
#    y 0.000000 2.244120 0.000000 
#    z 0.000000 0.000000 2.052500 
# 
# From -- ./inp_files/15931.got.cif
#   From: 2010.05.17/outbox.cif.g08.bks.cpg/sg72_8_cif.got.tgz:15931.got - 2010.06.03 17:03:01.
