data_PCOD9528340
_publ_section_title
;
Structure prediction by ZEFSAII (Michael W. Deem and Ramdas Pophale) SiO2 
 PCOD9528340
Probable space group: I B A M
;
_chemical_formula_sum "Si O2"
_cell_formula_units_Z 88
_cell_length_a 19.271396
_cell_length_b 8.315100
_cell_length_c 25.449362
_cell_angle_alpha 90.000000
_cell_angle_beta 90.000000
_cell_angle_gamma 90.000000
_cell_volume 4078.097000
_symmetry_space_group_name_H-M "I B A M"
_symmetry_group_IT_number 72
_symmetry_cell_setting 'orthorhombic'
loop_
_space_group_symop_operation_xyz
x,y,z
-x,-y,z
x,-y,1/2-z
-x,y,1/2-z
-x,-y,-z
x,y,-z
-x,y,1/2+z
x,-y,1/2+z
1/2+x,1/2+y,1/2+z
1/2-x,1/2-y,1/2+z
1/2+x,1/2-y,-z
1/2-x,1/2+y,-z
1/2-x,1/2-y,1/2-z
1/2+x,1/2+y,1/2-z
1/2-x,1/2+y,z
1/2+x,1/2-y,z
loop_
_atom_site_type_symbol
_atom_site_label
_atom_site_fract_x
_atom_site_fract_y
_atom_site_fract_z
Si Si1 0.604542 0.868443 0.500000
Si Si2 0.852299 0.193603 0.093290
Si Si3 0.212188 0.446944 0.086940
Si Si4 0.281618 0.000000 0.250000
Si Si5 0.081311 0.987420 0.186568
Si Si6 0.683726 0.729355 0.316160
Si Si7 0.452270 0.236652 0.000000
O O1 0.657361 0.860957 0.548770
O O2 0.536036 0.757748 0.500000
O O3 0.572696 0.049556 0.500000
O O4 0.816293 0.371309 0.092750
O O5 0.793313 0.069116 0.072187
O O6 0.881583 0.149788 0.151514
O O7 0.916027 0.193155 0.052266
O O8 0.213959 0.342377 0.139668
O O9 0.328047 0.145388 0.269675
O O10 0.232572 0.088598 0.207005
O O11 0.094850 0.000000 0.250000
O O12 0.115027 0.148350 0.163779
O O13 0.000000 0.000000 0.179520
#
# Coordination Sequence:
#
# PCOD9528340 Si02
#       7
#     8  16  16   8  16  16   8
#     4   9  21  42  65 102 135 174 220 279 336 394
#     4  11  23  43  69 101 134 180 226 281 348 402
#     4  11  23  39  72 101 132 172 229 281 335 404
#     4  10  22  38  65  95 126 164 226 262 334 390
#     4  11  26  45  64  89 139 181 220 286 344 408
#     4  11  22  38  65  94 128 170 211 279 324 399
#     4   9  21  42  68  93 143 178 218 280 333 414
#
# _framework density 21.578690999999999
#
# number of rings (size 3 to 8) (size 9 to 14) (size 15 to 20)
#    0.000    1.455    0.909    3.818    7.636    0.000 
#    0.000    3.182    0.000    0.000    0.000    0.000 
#    0.000    0.000    0.000    0.000    0.000    0.000 
#
# Total GULP energy -245297.741156 kJ/mol
# GULP energy per Si atom -5574.948663 kJ/mol
# Density = 2.152958 g / cm^3
# Si number density = 21.578691 Si / 1000 Ang^3
#
#
#
# Elastic Constant Matrix: (Units=GPa)
#
#
# Indices 1 2 3 4 5 6 
#
# 1 121.4866 43.9726 44.9872 0.0000 0.0000 0.0000
# 2 43.9726 100.5954 42.4418 0.0000 0.0000 0.0000
# 3 44.9872 42.4418 105.7027 0.0000 0.0000 0.0000
# 4 0.0000 0.0000 0.0000 -2.9976 0.0000 0.0000
# 5 0.0000 0.0000 0.0000 0.0000 25.9538 0.0000
# 6 0.0000 0.0000 0.0000 0.0000 0.0000 21.5898
#
#
#
# Elastic Compliance Matrix: (Units=1/GPa)
#
#
# Indices 1 2 3 4 5 6 
#
# 1 0.010604 -0.003288 -0.003193 0.000000 0.000000 0.000000
# 2 -0.003288 0.012988 -0.003815 0.000000 0.000000 0.000000
# 3 -0.003193 -0.003815 0.012351 0.000000 0.000000 0.000000
# 4 0.000000 0.000000 0.000000 -0.333597 0.000000 0.000000
# 5 0.000000 0.000000 0.000000 0.000000 0.038530 0.000000
# 6 0.000000 0.000000 0.000000 0.000000 0.000000 0.046318
#
#
# Mechanical properties :
#
#
# Convention : Reuss Voigt Hill
#
# Bulk Modulus (GPa) = 65.14516 65.62086 65.38301
# Shear Modulus (GPa) = -26.72418 22.00140 -2.36139
#
# Velocity S-wave (km/s) = -3.52298 3.19657 -1.04723
# Velocity P-wave (km/s) = 3.70224 6.64079 5.37618
#
# Compressibility (1/GPa) = 0.01535034
#
# Stress axis : x y z
#
# Youngs Moduli (GPa) = 94.30583 76.99470 80.96305
#
# Poissons Ratio (x) = 0.25317 0.25849
# Poissons Ratio (y) = 0.31009 0.30891
# Poissons Ratio (z) = 0.30109 0.29377
#
# Static dielectric constant tensor:
#      x y z
#    x 1.833120 0.000000 0.000000 
#    y 0.000000 1.792900 0.000000 
#    z 0.000000 0.000000 1.888500 
# 
# From -- ./inp_files/45312.got.cif
#   From: 2010.05.17/outbox.cif.g08.bks.cpg/sg72_23_cif.got.tgz:45312.got - 2010.06.03 17:03:01.
