data_PCOD9528823
_publ_section_title
;
Structure prediction by ZEFSAII (Michael W. Deem and Ramdas Pophale) SiO2 
 PCOD9528823
Probable space group: I B A M
;
_chemical_formula_sum "Si O2"
_cell_formula_units_Z 68
_cell_length_a 8.136840
_cell_length_b 23.273261
_cell_length_c 14.891179
_cell_angle_alpha 90.000000
_cell_angle_beta 90.000000
_cell_angle_gamma 90.000000
_cell_volume 2819.954496
_symmetry_space_group_name_H-M "I B A M"
_symmetry_group_IT_number 72
_symmetry_cell_setting 'orthorhombic'
loop_
_space_group_symop_operation_xyz
x,y,z
-x,-y,z
x,-y,1/2-z
-x,y,1/2-z
-x,-y,-z
x,y,-z
-x,y,1/2+z
x,-y,1/2+z
1/2+x,1/2+y,1/2+z
1/2-x,1/2-y,1/2+z
1/2+x,1/2-y,-z
1/2-x,1/2+y,-z
1/2-x,1/2-y,1/2-z
1/2+x,1/2+y,1/2-z
1/2-x,1/2+y,z
1/2+x,1/2-y,z
loop_
_atom_site_type_symbol
_atom_site_label
_atom_site_fract_x
_atom_site_fract_y
_atom_site_fract_z
Si Si1 0.446738 0.938950 0.645212
Si Si2 0.000000 0.000000 0.750000
Si Si3 0.433780 0.419206 0.394510
Si Si4 0.921367 0.319693 0.652634
Si Si5 0.925511 0.201202 0.100371
O O1 0.500000 0.940634 0.750000
O O2 0.250536 0.935144 0.634803
O O3 0.530941 0.880743 0.608691
O O4 0.500000 0.000000 0.605453
O O5 0.055892 0.047075 0.673680
O O6 0.461460 0.432600 0.500000
O O7 0.449896 0.350786 0.384434
O O8 0.995089 0.263255 0.606628
O O9 0.000000 0.320673 0.750000
O O10 0.728312 0.309582 0.663528
O O11 0.856115 0.193826 0.000000
#
# Coordination Sequence:
#
# PCOD9528823 Si02
#       5
#    16   4  16  16  16
#     4  10  23  44  69 103 144 193 238 292 367 433
#     4  12  26  44  78  98 152 188 238 300 360 426
#     4  11  27  46  73 109 145 193 247 299 363 439
#     4  11  24  41  71 103 140 188 245 298 365 440
#     4  11  25  45  70 103 144 186 240 305 368 432
#
# _framework density 24.113865000000001
#
# number of rings (size 3 to 8) (size 9 to 14) (size 15 to 20)
#    0.000    1.176    0.000    4.588   11.529    4.235 
#    0.000    0.000    0.000    0.000    0.000    0.000 
#    0.000    0.000    0.000    0.000    0.000    0.000 
#
# Total GULP energy -189920.026715 kJ/mol
# GULP energy per Si atom -5585.883139 kJ/mol
# Density = 2.405898 g / cm^3
# Si number density = 24.113865 Si / 1000 Ang^3
#
#
#
# Elastic Constant Matrix: (Units=GPa)
#
#
# Indices 1 2 3 4 5 6 
#
# 1 112.3723 58.5092 12.4621 0.0000 0.0000 0.0000
# 2 58.5092 252.2907 34.7638 0.0000 0.0000 0.0000
# 3 12.4621 34.7638 139.0456 0.0000 0.0000 0.0000
# 4 0.0000 0.0000 0.0000 19.9229 0.0000 0.0000
# 5 0.0000 0.0000 0.0000 0.0000 75.0790 0.0000
# 6 0.0000 0.0000 0.0000 0.0000 0.0000 36.3402
#
#
#
# Elastic Compliance Matrix: (Units=1/GPa)
#
#
# Indices 1 2 3 4 5 6 
#
# 1 0.010136 -0.002305 -0.000332 0.000000 0.000000 0.000000
# 2 -0.002305 0.004629 -0.000951 0.000000 0.000000 0.000000
# 3 -0.000332 -0.000951 0.007459 0.000000 0.000000 0.000000
# 4 0.000000 0.000000 0.000000 0.050193 0.000000 0.000000
# 5 0.000000 0.000000 0.000000 0.000000 0.013319 0.000000
# 6 0.000000 0.000000 0.000000 0.000000 0.000000 0.027518
#
#
# Mechanical properties :
#
#
# Convention : Reuss Voigt Hill
#
# Bulk Modulus (GPa) = 66.45050 79.46430 72.95740
# Shear Modulus (GPa) = 39.85747 52.79998 46.32872
#
# Velocity S-wave (km/s) = 4.06998 4.68440 4.38796
# Velocity P-wave (km/s) = 7.05004 7.89199 7.48287
#
# Compressibility (1/GPa) = 0.01504880
#
# Stress axis : x y z
#
# Youngs Moduli (GPa) = 98.65908 216.01899 134.05943
#
# Poissons Ratio (x) = 0.49790 0.04453
# Poissons Ratio (y) = 0.22740 0.12747
# Poissons Ratio (z) = 0.03277 0.20539
#
# Static dielectric constant tensor:
#      x y z
#    x 1.929420 0.000000 0.000000 
#    y 0.000000 1.959080 0.000000 
#    z 0.000000 0.000000 1.984780 
# 
# From -- ./inp_files/27811.got.cif
#   From: 2010.05.17/outbox.cif.g08.bks.cpg/sg72_14_cif.got.tgz:27811.got - 2010.06.03 17:03:01.
