data_PCOD9528980
_publ_section_title
;
Structure prediction by ZEFSAII (Michael W. Deem and Ramdas Pophale) SiO2 
 PCOD9528980
Probable space group: I B A M
;
_chemical_formula_sum "Si O2"
_cell_formula_units_Z 80
_cell_length_a 7.873632
_cell_length_b 13.660452
_cell_length_c 32.298585
_cell_angle_alpha 90.000000
_cell_angle_beta 90.000000
_cell_angle_gamma 90.000000
_cell_volume 3473.950922
_symmetry_space_group_name_H-M "I B A M"
_symmetry_group_IT_number 72
_symmetry_cell_setting 'orthorhombic'
loop_
_space_group_symop_operation_xyz
x,y,z
-x,-y,z
x,-y,1/2-z
-x,y,1/2-z
-x,-y,-z
x,y,-z
-x,y,1/2+z
x,-y,1/2+z
1/2+x,1/2+y,1/2+z
1/2-x,1/2-y,1/2+z
1/2+x,1/2-y,-z
1/2-x,1/2+y,-z
1/2-x,1/2-y,1/2-z
1/2+x,1/2+y,1/2-z
1/2-x,1/2+y,z
1/2+x,1/2-y,z
loop_
_atom_site_type_symbol
_atom_site_label
_atom_site_fract_x
_atom_site_fract_y
_atom_site_fract_z
Si Si1 0.221270 0.054741 0.589882
Si Si2 0.403236 0.847293 0.591306
Si Si3 0.905803 0.343902 0.000000
Si Si4 0.106830 0.177858 0.342674
Si Si5 0.734434 0.440677 0.500000
Si Si6 0.622313 0.201050 0.782039
O O1 0.398724 0.118113 0.592592
O O2 0.089851 0.094015 0.623527
O O3 0.146363 0.069848 0.543923
O O4 0.289433 0.944598 0.594991
O O5 0.368300 0.801489 0.545516
O O6 0.365089 0.773748 0.628571
O O7 0.815753 0.450395 0.000000
O O8 0.106082 0.367178 0.000000
O O9 0.269158 0.144458 0.315686
O O10 0.970441 0.214067 0.309002
O O11 0.500000 0.145604 0.750000
O O12 0.750000 0.250000 0.750000
#
# Coordination Sequence:
#
# PCOD9528980 Si02
#       6
#    16  16   8  16   8  16
#     4   9  17  30  51  79 111 147 186 225 260 323
#     4   9  17  30  51  79 111 147 186 223 263 319
#     4   7  12  25  44  71 110 149 180 217 263 310
#     4  11  18  33  58  83 102 142 186 226 273 333
#     4   7  12  25  44  71 110 149 180 217 267 304
#     4   9  20  36  56  78 106 137 171 221 295 347
#
# _framework density 23.028535000000002
#
# number of rings (size 3 to 8) (size 9 to 14) (size 15 to 20)
#    0.000    3.000    2.000    2.400    0.000    0.800 
#    0.000    1.000    0.000   18.000    0.000    4.200 
#    0.000    0.000    0.000    0.000    0.000    0.000 
#
# Total GULP energy -222924.131728 kJ/mol
# GULP energy per Si atom -5573.103293 kJ/mol
# Density = 2.297612 g / cm^3
# Si number density = 23.028535 Si / 1000 Ang^3
#
#
#
# Elastic Constant Matrix: (Units=GPa)
#
#
# Indices 1 2 3 4 5 6 
#
# 1 42.8407 13.0125 44.9535 0.0000 0.0000 0.0000
# 2 13.0125 80.4924 43.3913 0.0000 0.0000 0.0000
# 3 44.9535 43.3913 215.7949 0.0000 0.0000 0.0000
# 4 0.0000 0.0000 0.0000 13.1067 0.0000 0.0000
# 5 0.0000 0.0000 0.0000 0.0000 23.0840 0.0000
# 6 0.0000 0.0000 0.0000 0.0000 0.0000 16.4961
#
#
#
# Elastic Compliance Matrix: (Units=1/GPa)
#
#
# Indices 1 2 3 4 5 6 
#
# 1 0.030070 -0.001665 -0.005929 0.000000 0.000000 0.000000
# 2 -0.001665 0.014026 -0.002474 0.000000 0.000000 0.000000
# 3 -0.005929 -0.002474 0.006367 0.000000 0.000000 0.000000
# 4 0.000000 0.000000 0.000000 0.076297 0.000000 0.000000
# 5 0.000000 0.000000 0.000000 0.000000 0.043320 0.000000
# 6 0.000000 0.000000 0.000000 0.000000 0.000000 0.060620
#
#
# Mechanical properties :
#
#
# Convention : Reuss Voigt Hill
#
# Bulk Modulus (GPa) = 32.97377 60.20475 46.58926
# Shear Modulus (GPa) = 19.16123 26.38873 22.77498
#
# Velocity S-wave (km/s) = 2.88768 3.38881 3.14823
# Velocity P-wave (km/s) = 5.04659 6.44301 5.78707
#
# Compressibility (1/GPa) = 0.03032713
#
# Stress axis : x y z
#
# Youngs Moduli (GPa) = 33.25615 71.29583 157.07102
#
# Poissons Ratio (x) = 0.11869 0.93131
# Poissons Ratio (y) = 0.05537 0.38852
# Poissons Ratio (z) = 0.19718 0.17635
#
# Static dielectric constant tensor:
#      x y z
#    x 1.952280 0.000000 0.000000 
#    y 0.000000 1.838800 0.000000 
#    z 0.000000 0.000000 1.875130 
# 
# From -- ./inp_files/50776.got.cif
#   From: 2010.05.17/outbox.cif.g08.bks.cpg/sg72_26_cif.got.tgz:50776.got - 2010.06.03 17:03:01.
