data_PCOD9528026
_publ_section_title
;
Structure prediction by ZEFSAII (Michael W. Deem and Ramdas Pophale) SiO2 
 PCOD9528026
Probable space group: I B A M
;
_chemical_formula_sum "Si O2"
_cell_formula_units_Z 80
_cell_length_a 15.807377
_cell_length_b 9.072841
_cell_length_c 24.536920
_cell_angle_alpha 90.000000
_cell_angle_beta 90.000000
_cell_angle_gamma 90.000000
_cell_volume 3519.031530
_symmetry_space_group_name_H-M "I B A M"
_symmetry_group_IT_number 72
_symmetry_cell_setting 'orthorhombic'
loop_
_space_group_symop_operation_xyz
x,y,z
-x,-y,z
x,-y,1/2-z
-x,y,1/2-z
-x,-y,-z
x,y,-z
-x,y,1/2+z
x,-y,1/2+z
1/2+x,1/2+y,1/2+z
1/2-x,1/2-y,1/2+z
1/2+x,1/2-y,-z
1/2-x,1/2+y,-z
1/2-x,1/2-y,1/2-z
1/2+x,1/2+y,1/2-z
1/2-x,1/2+y,z
1/2+x,1/2-y,z
loop_
_atom_site_type_symbol
_atom_site_label
_atom_site_fract_x
_atom_site_fract_y
_atom_site_fract_z
Si Si1 0.367519 0.927256 0.804169
Si Si2 0.684386 0.343806 0.060633
Si Si3 0.531054 0.847156 0.588561
Si Si4 0.777251 0.726920 0.667206
Si Si5 0.082542 0.091148 0.373211
O O1 0.433960 0.883644 0.850396
O O2 0.303997 0.787470 0.800018
O O3 0.405146 0.000000 0.750000
O O4 0.306397 0.061383 0.822074
O O5 0.609716 0.224077 0.058442
O O6 0.750747 0.277796 0.103389
O O7 0.638973 0.483291 0.089549
O O8 0.715966 0.376823 0.000000
O O9 0.457195 0.727463 0.593515
O O10 0.500000 0.000000 0.565023
O O11 0.856713 0.836931 0.671869
O O12 0.000000 0.000000 0.353322
#
# Coordination Sequence:
#
# PCOD9528026 Si02
#       5
#    16  16  16  16  16
#     4  11  23  40  67  93 124 169 216 260 321 379
#     4  10  23  41  65  92 123 169 212 253 317 383
#     4  10  21  39  63  90 128 162 202 265 311 372
#     4  11  21  42  64  93 128 163 211 273 308 373
#     4  10  21  40  63  86 132 168 201 255 324 370
#
# _framework density 22.733526999999999
#
# number of rings (size 3 to 8) (size 9 to 14) (size 15 to 20)
#    0.000    1.600    4.000    0.600    0.000    5.200 
#    0.000    0.000    0.000    0.000    0.000    0.000 
#    0.000    0.000    0.000    0.000    0.000    0.000 
#
# Total GULP energy -223405.988975 kJ/mol
# GULP energy per Si atom -5585.149724 kJ/mol
# Density = 2.268178 g / cm^3
# Si number density = 22.733527 Si / 1000 Ang^3
#
#
#
# Elastic Constant Matrix: (Units=GPa)
#
#
# Indices 1 2 3 4 5 6 
#
# 1 76.6649 28.5263 8.2575 0.0000 0.0000 0.0000
# 2 28.5263 116.9132 -4.6176 0.0000 0.0000 0.0000
# 3 8.2575 -4.6176 89.3775 0.0000 0.0000 0.0000
# 4 0.0000 0.0000 0.0000 -1.4555 0.0000 0.0000
# 5 0.0000 0.0000 0.0000 0.0000 -3.7941 0.0000
# 6 0.0000 0.0000 0.0000 0.0000 0.0000 25.3800
#
#
#
# Elastic Compliance Matrix: (Units=1/GPa)
#
#
# Indices 1 2 3 4 5 6 
#
# 1 0.014552 -0.003611 -0.001531 0.000000 0.000000 0.000000
# 2 -0.003611 0.009467 0.000823 0.000000 0.000000 0.000000
# 3 -0.001531 0.000823 0.011372 0.000000 0.000000 0.000000
# 4 0.000000 0.000000 0.000000 -0.687068 0.000000 0.000000
# 5 0.000000 0.000000 0.000000 0.000000 -0.263570 0.000000
# 6 0.000000 0.000000 0.000000 0.000000 0.000000 0.039401
#
#
# Mechanical properties :
#
#
# Convention : Reuss Voigt Hill
#
# Bulk Modulus (GPa) = 37.37926 38.58754 37.98340
# Shear Modulus (GPa) = -5.82554 20.74540 7.45993
#
# Velocity S-wave (km/s) = -1.60253 3.02412 1.81345
# Velocity P-wave (km/s) = 3.61302 5.40411 4.59665
#
# Compressibility (1/GPa) = 0.02675280
#
# Stress axis : x y z
#
# Youngs Moduli (GPa) = 68.71735 105.63054 87.93179
#
# Poissons Ratio (x) = 0.38145 0.13463
# Poissons Ratio (y) = 0.24815 -0.07234
# Poissons Ratio (z) = 0.10521 -0.08691
#
# Static dielectric constant tensor:
#      x y z
#    x 1.842490 0.000000 0.000000 
#    y 0.000000 1.843730 0.000000 
#    z 0.000000 0.000000 2.058830 
# 
# From -- ./inp_files/47153.got.cif
#   From: 2010.05.17/outbox.cif.g08.bks.cpg/sg72_24_cif.got.tgz:47153.got - 2010.06.03 17:03:01.
