data_PCOD9528946
_publ_section_title
;
Structure prediction by ZEFSAII (Michael W. Deem and Ramdas Pophale) SiO2 
 PCOD9528946
Probable space group: I B A M
;
_chemical_formula_sum "Si O2"
_cell_formula_units_Z 72
_cell_length_a 30.584564
_cell_length_b 8.589970
_cell_length_c 13.284792
_cell_angle_alpha 90.000000
_cell_angle_beta 90.000000
_cell_angle_gamma 90.000000
_cell_volume 3490.187027
_symmetry_space_group_name_H-M "I B A M"
_symmetry_group_IT_number 72
_symmetry_cell_setting 'orthorhombic'
loop_
_space_group_symop_operation_xyz
x,y,z
-x,-y,z
x,-y,1/2-z
-x,y,1/2-z
-x,-y,-z
x,y,-z
-x,y,1/2+z
x,-y,1/2+z
1/2+x,1/2+y,1/2+z
1/2-x,1/2-y,1/2+z
1/2+x,1/2-y,-z
1/2-x,1/2+y,-z
1/2-x,1/2-y,1/2-z
1/2+x,1/2+y,1/2-z
1/2-x,1/2+y,z
1/2+x,1/2-y,z
loop_
_atom_site_type_symbol
_atom_site_label
_atom_site_fract_x
_atom_site_fract_y
_atom_site_fract_z
Si Si1 0.198201 0.747498 0.119986
Si Si2 0.934701 0.369241 0.619653
Si Si3 0.467865 0.219455 0.880793
Si Si4 0.749101 0.000000 0.750000
Si Si5 0.888751 0.172221 0.221060
O O1 0.221565 0.888496 0.179917
O O2 0.219254 0.597644 0.173185
O O3 0.146882 0.756093 0.146199
O O4 0.205205 0.752421 0.000000
O O5 0.927224 0.354053 0.500000
O O6 0.944937 0.551235 0.640206
O O7 0.897300 0.285812 0.683911
O O8 0.981237 0.288758 0.646689
O O9 0.435912 0.342807 0.831816
O O10 0.467510 0.238968 0.000000
O O11 0.873979 0.000000 0.250000
#
# Coordination Sequence:
#
# PCOD9528946 Si02
#       5
#    16  16  16   8  16
#     4  11  24  46  71  99 132 164 207 263 317 384
#     4   9  20  38  60  86 120 168 223 269 308 369
#     4   9  19  38  61  84 118 168 221 269 316 363
#     4  10  24  48  74 100 122 168 212 250 328 390
#     4  12  24  37  55  94 129 167 205 260 317 381
#
# _framework density 20.629266000000001
#
# number of rings (size 3 to 8) (size 9 to 14) (size 15 to 20)
#    0.000    1.778    1.111    4.000    3.111    5.333 
#    0.000    3.333    0.000    0.000    0.000    0.000 
#    0.000    0.000    0.000    0.000    0.000    0.000 
#
# Total GULP energy -201084.692084 kJ/mol
# GULP energy per Si atom -5585.685891 kJ/mol
# Density = 2.058231 g / cm^3
# Si number density = 20.629266 Si / 1000 Ang^3
#
#
#
# Elastic Constant Matrix: (Units=GPa)
#
#
# Indices 1 2 3 4 5 6 
#
# 1 69.3357 29.7031 37.0556 0.0000 0.0000 0.0000
# 2 29.7031 52.5494 34.4186 0.0000 0.0000 0.0000
# 3 37.0556 34.4186 149.4599 0.0000 0.0000 0.0000
# 4 0.0000 0.0000 0.0000 18.2763 0.0000 0.0000
# 5 0.0000 0.0000 0.0000 0.0000 36.7457 0.0000
# 6 0.0000 0.0000 0.0000 0.0000 0.0000 15.3787
#
#
#
# Elastic Compliance Matrix: (Units=1/GPa)
#
#
# Indices 1 2 3 4 5 6 
#
# 1 0.019958 -0.009468 -0.002768 0.000000 0.000000 0.000000
# 2 -0.009468 0.026902 -0.003848 0.000000 0.000000 0.000000
# 3 -0.002768 -0.003848 0.008263 0.000000 0.000000 0.000000
# 4 0.000000 0.000000 0.000000 0.054716 0.000000 0.000000
# 5 0.000000 0.000000 0.000000 0.000000 0.027214 0.000000
# 6 0.000000 0.000000 0.000000 0.000000 0.000000 0.065025
#
#
# Mechanical properties :
#
#
# Convention : Reuss Voigt Hill
#
# Bulk Modulus (GPa) = 43.56284 52.63332 48.09808
# Shear Modulus (GPa) = 20.66999 25.42465 23.04732
#
# Velocity S-wave (km/s) = 3.16883 3.51444 3.34610
# Velocity P-wave (km/s) = 5.87805 6.48365 6.18826
#
# Compressibility (1/GPa) = 0.02295534
#
# Stress axis : x y z
#
# Youngs Moduli (GPa) = 50.10541 37.17246 121.02105
#
# Poissons Ratio (x) = 0.35196 0.33496
# Poissons Ratio (y) = 0.47441 0.46564
# Poissons Ratio (z) = 0.13868 0.14303
#
# Static dielectric constant tensor:
#      x y z
#    x 1.718750 0.000000 0.000000 
#    y 0.000000 1.763380 0.000000 
#    z 0.000000 0.000000 1.745280 
# 
# From -- ./inp_files/26208.got.cif
#   From: 2010.05.17/outbox.cif.g08.bks.cpg/sg72_14_cif.got.tgz:26208.got - 2010.06.03 17:03:01.
