data_PCOD9529924
_publ_section_title
;
Structure prediction by ZEFSAII (Michael W. Deem and Ramdas Pophale) SiO2 
 PCOD9529924
Probable space group: I B C A 
;
_chemical_formula_sum "Si O2"
_cell_formula_units_Z 96
_cell_length_a 30.298265
_cell_length_b 9.861730
_cell_length_c 16.347393
_cell_angle_alpha 90.000000
_cell_angle_beta 90.000000
_cell_angle_gamma 90.000000
_cell_volume 4884.491646
_symmetry_space_group_name_H-M "I B C A "
_symmetry_group_IT_number 73
_symmetry_cell_setting 'orthorhombic'
loop_
_space_group_symop_operation_xyz
x,y,z
-x,1/2-y,z
x,-y,1/2-z
1/2-x,y,-z
-x,-y,-z
x,1/2+y,-z
-x,y,1/2+z
1/2+x,-y,z
1/2+x,1/2+y,1/2+z
1/2-x,-y,1/2+z
1/2+x,1/2-y,-z
-x,1/2+y,1/2-z
1/2-x,1/2-y,1/2-z
1/2+x,y,1/2-z
1/2-x,1/2+y,z
x,1/2-y,1/2+z
loop_
_atom_site_type_symbol
_atom_site_label
_atom_site_fract_x
_atom_site_fract_y
_atom_site_fract_z
Si Si1 0.948272 0.252024 0.431463
Si Si2 0.237968 0.125760 0.690036
Si Si3 0.112885 0.188569 0.798063
Si Si4 0.357435 0.599131 0.635278
Si Si5 0.602629 0.985907 0.026856
Si Si6 0.668764 0.052565 0.156848
O O1 0.934573 0.199920 0.340717
O O2 0.932949 0.408119 0.438129
O O3 0.000000 0.250000 0.447683
O O4 0.920862 0.147897 0.490300
O O5 0.250000 0.250000 0.750000
O O6 0.192843 0.149057 0.641448
O O7 0.280532 0.086305 0.635950
O O8 0.229339 0.000000 0.750000
O O9 0.114286 0.187724 0.699910
O O10 0.141647 0.308756 0.835759
O O11 0.136715 0.052612 0.828456
O O12 0.374852 0.575954 0.544810
O O13 0.641125 0.961100 0.093775
O O14 0.669940 0.000000 0.250000
#
# Coordination Sequence:
#
# PCOD9529924 Si02
#       6
#    16  16  16  16  16  16
#     4  10  21  40  61  84 115 146 193 245 305 362
#     4  11  19  31  55  81 115 159 198 236 277 345
#     4   9  18  36  57  78 110 154 192 232 289 363
#     4  10  18  35  58  81 114 155 201 228 294 353
#     4  10  23  36  61  85 116 154 190 249 303 360
#     4  10  21  34  54  84 119 153 197 242 295 339
#
# _framework density 19.654042
#
# number of rings (size 3 to 8) (size 9 to 14) (size 15 to 20)
#    0.000    2.000    3.333    0.500    2.333    0.667 
#    0.000    0.833   29.333    8.000    0.000    0.000 
#    0.000    0.000    0.000    0.000    0.000    0.000 
#
# Total GULP energy -267476.474521 kJ/mol
# GULP energy per Si atom -5572.426553 kJ/mol
# Density = 1.960931 g / cm^3
# Si number density = 19.654042 Si / 1000 Ang^3
#
#
#
# Elastic Constant Matrix: (Units=GPa)
#
#
# Indices 1 2 3 4 5 6 
#
# 1 105.3677 15.6826 35.7678 0.0000 0.0000 0.0000
# 2 15.6826 58.7155 0.9939 0.0000 0.0000 0.0000
# 3 35.7678 0.9939 77.4759 0.0000 0.0000 0.0000
# 4 0.0000 0.0000 0.0000 19.2605 0.0000 0.0000
# 5 0.0000 0.0000 0.0000 0.0000 21.2523 0.0000
# 6 0.0000 0.0000 0.0000 0.0000 0.0000 24.8737
#
#
#
# Elastic Compliance Matrix: (Units=1/GPa)
#
#
# Indices 1 2 3 4 5 6 
#
# 1 0.011778 -0.003054 -0.005398 0.000000 0.000000 0.000000
# 2 -0.003054 0.017827 0.001181 0.000000 0.000000 0.000000
# 3 -0.005398 0.001181 0.015384 0.000000 0.000000 0.000000
# 4 0.000000 0.000000 0.000000 0.051920 0.000000 0.000000
# 5 0.000000 0.000000 0.000000 0.000000 0.047054 0.000000
# 6 0.000000 0.000000 0.000000 0.000000 0.000000 0.040203
#
#
# Mechanical properties :
#
#
# Convention : Reuss Voigt Hill
#
# Bulk Modulus (GPa) = 32.84421 38.49416 35.66919
# Shear Modulus (GPa) = 23.93988 25.68495 24.81241
#
# Velocity S-wave (km/s) = 3.49386 3.61896 3.55696
# Velocity P-wave (km/s) = 5.74661 6.09023 5.92092
#
# Compressibility (1/GPa) = 0.03044677
#
# Stress axis : x y z
#
# Youngs Moduli (GPa) = 84.90700 56.09438 65.00175
#
# Poissons Ratio (x) = 0.17133 0.35089
# Poissons Ratio (y) = 0.25934 -0.07679
# Poissons Ratio (z) = 0.45834 -0.06627
#
# Static dielectric constant tensor:
#      x y z
#    x 1.709870 0.000000 0.000000 
#    y 0.000000 1.718810 0.000000 
#    z 0.000000 0.000000 1.727440 
# 
# From -- ./inp_files/12110.got.cif
#   From: 2010.05.17/outbox.cif.g08.bks.cpg/sg73_7_cif.got.tgz:12110.got - 2010.06.03 17:35:07.
