data_PCOD9529146
_publ_section_title
;
Structure prediction by ZEFSAII (Michael W. Deem and Ramdas Pophale) SiO2 
 PCOD9529146
Probable space group: I B A M
;
_chemical_formula_sum "Si O2"
_cell_formula_units_Z 96
_cell_length_a 27.148956
_cell_length_b 9.853596
_cell_length_c 19.043134
_cell_angle_alpha 90.000000
_cell_angle_beta 90.000000
_cell_angle_gamma 90.000000
_cell_volume 5094.321026
_symmetry_space_group_name_H-M "I B A M"
_symmetry_group_IT_number 72
_symmetry_cell_setting 'orthorhombic'
loop_
_space_group_symop_operation_xyz
x,y,z
-x,-y,z
x,-y,1/2-z
-x,y,1/2-z
-x,-y,-z
x,y,-z
-x,y,1/2+z
x,-y,1/2+z
1/2+x,1/2+y,1/2+z
1/2-x,1/2-y,1/2+z
1/2+x,1/2-y,-z
1/2-x,1/2+y,-z
1/2-x,1/2-y,1/2-z
1/2+x,1/2+y,1/2-z
1/2-x,1/2+y,z
1/2+x,1/2-y,z
loop_
_atom_site_type_symbol
_atom_site_label
_atom_site_fract_x
_atom_site_fract_y
_atom_site_fract_z
Si Si1 0.345338 0.148407 0.315414
Si Si2 0.554540 0.265715 0.757252
Si Si3 0.349556 0.385908 0.923007
Si Si4 0.053405 0.014891 0.366310
Si Si5 0.209629 0.155060 0.082488
Si Si6 0.188374 0.348584 0.333842
O O1 0.399119 0.173046 0.279877
O O2 0.330087 0.252626 0.376287
O O3 0.307914 0.169296 0.249940
O O4 0.336760 0.995947 0.342554
O O5 0.500000 0.199634 0.750000
O O6 0.556052 0.382421 0.817134
O O7 0.556998 0.355470 0.686088
O O8 0.400616 0.466579 0.916376
O O9 0.307846 0.499263 0.914075
O O10 0.344407 0.271558 0.864949
O O11 0.345283 0.322930 0.000000
O O12 0.000000 0.000000 0.401157
O O13 0.260899 0.162638 0.123852
O O14 0.213925 0.192803 0.000000
#
# Coordination Sequence:
#
# PCOD9529146 Si02
#       6
#    16  16  16  16  16  16
#     4  11  22  40  63  89 118 161 209 252 306 370
#     4   9  17  34  63  90 117 149 195 252 307 351
#     4  11  22  37  60  87 120 160 200 250 305 359
#     4   9  17  33  60  89 116 147 192 248 304 348
#     4  11  24  41  61  86 120 167 211 251 299 362
#     4  11  24  38  56  89 125 157 207 251 308 358
#
# _framework density 18.844514
#
# number of rings (size 3 to 8) (size 9 to 14) (size 15 to 20)
#    0.000    1.667    3.333    3.000    0.000    5.000 
#    0.000    1.667    0.000    0.000    0.000    4.667 
#    0.000    0.000    0.000    0.000    0.000    0.000 
#
# Total GULP energy -267504.850537 kJ/mol
# GULP energy per Si atom -5573.017720 kJ/mol
# Density = 1.880162 g / cm^3
# Si number density = 18.844514 Si / 1000 Ang^3
#
#
#
# Elastic Constant Matrix: (Units=GPa)
#
#
# Indices 1 2 3 4 5 6 
#
# 1 131.4578 32.0668 29.2112 0.0000 0.0000 0.0000
# 2 32.0668 60.4485 32.7211 0.0000 0.0000 0.0000
# 3 29.2112 32.7211 82.2932 0.0000 0.0000 0.0000
# 4 0.0000 0.0000 0.0000 18.5940 0.0000 0.0000
# 5 0.0000 0.0000 0.0000 0.0000 7.4582 0.0000
# 6 0.0000 0.0000 0.0000 0.0000 0.0000 18.1372
#
#
#
# Elastic Compliance Matrix: (Units=1/GPa)
#
#
# Indices 1 2 3 4 5 6 
#
# 1 0.008907 -0.003840 -0.001635 0.000000 0.000000 0.000000
# 2 -0.003840 0.022736 -0.007677 0.000000 0.000000 0.000000
# 3 -0.001635 -0.007677 0.015784 0.000000 0.000000 0.000000
# 4 0.000000 0.000000 0.000000 0.053781 0.000000 0.000000
# 5 0.000000 0.000000 0.000000 0.000000 0.134080 0.000000
# 6 0.000000 0.000000 0.000000 0.000000 0.000000 0.055135
#
#
# Mechanical properties :
#
#
# Convention : Reuss Voigt Hill
#
# Bulk Modulus (GPa) = 47.34077 51.35529 49.34803
# Shear Modulus (GPa) = 15.44314 20.85126 18.14720
#
# Velocity S-wave (km/s) = 2.86580 3.33000 3.10658
# Velocity P-wave (km/s) = 6.01055 6.48818 6.25393
#
# Compressibility (1/GPa) = 0.02112344
#
# Stress axis : x y z
#
# Youngs Moduli (GPa) = 112.27146 43.98369 63.35342
#
# Poissons Ratio (x) = 0.16890 0.10357
# Poissons Ratio (y) = 0.43113 0.48636
# Poissons Ratio (z) = 0.18354 0.33766
#
# Static dielectric constant tensor:
#      x y z
#    x 1.720940 0.000000 0.000000 
#    y 0.000000 1.636980 0.000000 
#    z 0.000000 0.000000 1.642930 
# 
# From -- ./inp_files/40697.got.cif
#   From: 2010.05.17/outbox.cif.g08.bks.cpg/sg72_21_cif.got.tgz:40697.got - 2010.06.03 17:03:01.
